FWF.pdb
     RDKit          3D

 37 40  0  0  1  0  0  0  0  0999 V2000
   27.7298  -21.4185  -15.1560 N   0  0  0  0  0  0  0  0  0  0  0  0
   27.8942  -20.4992  -14.0715 C   0  0  1  0  0  0  0  0  0  0  0  0
   27.3422  -19.1258  -14.4004 C   0  0  0  0  0  0  0  0  0  0  0  0
   28.1417  -18.4821  -15.4890 C   0  0  0  0  0  0  0  0  0  0  0  0
   29.4454  -18.1163  -15.2702 C   0  0  0  0  0  0  0  0  0  0  0  0
   30.1504  -17.5169  -16.3123 C   0  0  0  0  0  0  0  0  0  0  0  0
   29.5419  -17.3026  -17.5272 C   0  0  0  0  0  0  0  0  0  0  0  0
   28.2334  -17.6772  -17.7257 C   0  0  0  0  0  0  0  0  0  0  0  0
   27.5065  -18.2715  -16.7196 C   0  0  0  0  0  0  0  0  0  0  0  0
   27.1905  -20.9956  -12.8630 C   0  0  0  0  0  0  0  0  0  0  0  0
   26.1791  -21.7693  -12.9568 O   0  0  0  0  0  0  0  0  0  0  0  0
   27.5943  -20.6487  -11.5506 N   0  0  0  0  0  0  0  0  0  0  0  0
   26.7902  -21.1129  -10.4137 C   0  0  1  0  0  0  0  0  0  0  0  0
   27.6926  -20.8912   -9.2176 C   0  0  0  0  0  0  0  0  0  0  0  0
   26.9876  -20.7230   -7.9388 C   0  0  0  0  0  0  0  0  0  0  0  0
   25.6722  -20.9972   -7.6331 C   0  0  0  0  0  0  0  0  0  0  0  0
   25.3917  -20.6945   -6.3614 N   0  0  0  0  0  0  0  0  0  0  0  0
   26.5271  -20.2131   -5.8075 C   0  0  0  0  0  0  0  0  0  0  0  0
   26.7711  -19.7578   -4.5129 C   0  0  0  0  0  0  0  0  0  0  0  0
   28.0275  -19.3097   -4.1825 C   0  0  0  0  0  0  0  0  0  0  0  0
   29.0436  -19.3089   -5.1235 C   0  0  0  0  0  0  0  0  0  0  0  0
   28.7635  -19.7665   -6.3924 C   0  0  0  0  0  0  0  0  0  0  0  0
   27.5150  -20.2204   -6.7492 C   0  0  0  0  0  0  0  0  0  0  0  0
   25.5443  -20.3631  -10.4023 C   0  0  0  0  0  0  0  0  0  0  0  0
   25.5591  -19.0955  -10.4060 O   0  0  0  0  0  0  0  0  0  0  0  0
   24.2846  -21.0018  -10.3910 N   0  0  0  0  0  0  0  0  0  0  0  0
   23.1288  -20.4545  -11.0884 C   0  0  1  0  0  0  0  0  0  0  0  0
   23.5858  -20.2692  -12.5360 C   0  0  0  0  0  0  0  0  0  0  0  0
   22.5612  -19.6930  -13.4052 C   0  0  0  0  0  0  0  0  0  0  0  0
   22.4097  -18.3296  -13.5106 C   0  0  0  0  0  0  0  0  0  0  0  0
   21.4353  -17.7631  -14.3374 C   0  0  0  0  0  0  0  0  0  0  0  0
   20.5927  -18.5873  -15.0763 C   0  0  0  0  0  0  0  0  0  0  0  0
   20.7380  -19.9581  -14.9764 C   0  0  0  0  0  0  0  0  0  0  0  0
   21.7144  -20.4961  -14.1474 C   0  0  0  0  0  0  0  0  0  0  0  0
   21.9154  -21.2446  -10.9658 C   0  0  0  0  0  0  0  0  0  0  0  0
   21.9145  -22.6040  -11.2256 O   0  0  0  0  0  0  0  0  0  0  0  0
   20.8383  -20.7122  -10.6214 O   0  0  0  0  0  0  0  0  0  0  0  0
  2  1  1  6
  2  3  1  0
  3  4  1  0
  4  5  2  0
  5  6  1  0
  7  6  2  0
  8  7  1  0
  9  4  1  0
  9  8  2  0
 10 11  2  0
 10  2  1  0
 12 10  1  0
 13 24  1  0
 13 12  1  0
 13 14  1  1
 15 23  1  0
 15 14  1  0
 16 15  2  0
 17 16  1  0
 17 18  1  0
 18 23  2  0
 19 18  1  0
 19 20  2  0
 20 21  1  0
 21 22  2  0
 23 22  1  0
 24 25  2  0
 26 27  1  0
 26 24  1  0
 27 28  1  6
 28 29  1  0
 29 34  1  0
 30 29  2  0
 30 31  1  0
 31 32  2  0
 32 33  1  0
 34 33  2  0
 35 36  1  0
 35 27  1  0
 37 35  2  0
M  END
$$$$
