FWF.pdb
     RDKit          3D

 37 40  0  0  1  0  0  0  0  0999 V2000
   27.7010  -20.9919  -17.2066 N   0  0  0  0  0  0  0  0  0  0  0  0
   28.1795  -21.0803  -15.8607 C   0  0  1  0  0  0  0  0  0  0  0  0
   29.4057  -20.2176  -15.6343 C   0  0  0  0  0  0  0  0  0  0  0  0
   29.8141  -20.2475  -14.1952 C   0  0  0  0  0  0  0  0  0  0  0  0
   30.5652  -21.2865  -13.7076 C   0  0  0  0  0  0  0  0  0  0  0  0
   30.9195  -21.2738  -12.3598 C   0  0  0  0  0  0  0  0  0  0  0  0
   30.5194  -20.2382  -11.5478 C   0  0  0  0  0  0  0  0  0  0  0  0
   29.7665  -19.2057  -12.0571 C   0  0  0  0  0  0  0  0  0  0  0  0
   29.3981  -19.1849  -13.3828 C   0  0  0  0  0  0  0  0  0  0  0  0
   27.1296  -20.6385  -14.9096 C   0  0  0  0  0  0  0  0  0  0  0  0
   26.6359  -19.4626  -14.9680 O   0  0  0  0  0  0  0  0  0  0  0  0
   26.6166  -21.4837  -13.8956 N   0  0  0  0  0  0  0  0  0  0  0  0
   25.6006  -20.9558  -12.9772 C   0  0  1  0  0  0  0  0  0  0  0  0
   24.3069  -21.5603  -13.4824 C   0  0  0  0  0  0  0  0  0  0  0  0
   23.0987  -21.0975  -12.7846 C   0  0  0  0  0  0  0  0  0  0  0  0
   22.7594  -19.8197  -12.3965 C   0  0  0  0  0  0  0  0  0  0  0  0
   21.5806  -19.7962  -11.7659 N   0  0  0  0  0  0  0  0  0  0  0  0
   21.1237  -21.0681  -11.7297 C   0  0  0  0  0  0  0  0  0  0  0  0
   19.9475  -21.5841  -11.1883 C   0  0  0  0  0  0  0  0  0  0  0  0
   19.7008  -22.9330  -11.2766 C   0  0  0  0  0  0  0  0  0  0  0  0
   20.6094  -23.7747  -11.8965 C   0  0  0  0  0  0  0  0  0  0  0  0
   21.7604  -23.2272  -12.4194 C   0  0  0  0  0  0  0  0  0  0  0  0
   22.0316  -21.8808  -12.3446 C   0  0  0  0  0  0  0  0  0  0  0  0
   25.9754  -21.3281  -11.6225 C   0  0  0  0  0  0  0  0  0  0  0  0
   26.4894  -22.4630  -11.3886 O   0  0  0  0  0  0  0  0  0  0  0  0
   25.7909  -20.4560  -10.5267 N   0  0  0  0  0  0  0  0  0  0  0  0
   26.0659  -20.8617   -9.1550 C   0  0  1  0  0  0  0  0  0  0  0  0
   27.2600  -20.0121   -8.7182 C   0  0  0  0  0  0  0  0  0  0  0  0
   27.5004  -20.0358   -7.2763 C   0  0  0  0  0  0  0  0  0  0  0  0
   28.1258  -21.1076   -6.6822 C   0  0  0  0  0  0  0  0  0  0  0  0
   28.3633  -21.1454   -5.3052 C   0  0  0  0  0  0  0  0  0  0  0  0
   27.9624  -20.0797   -4.5060 C   0  0  0  0  0  0  0  0  0  0  0  0
   27.3334  -18.9989   -5.0946 C   0  0  0  0  0  0  0  0  0  0  0  0
   27.1092  -18.9859   -6.4656 C   0  0  0  0  0  0  0  0  0  0  0  0
   24.9304  -20.7632   -8.2536 C   0  0  0  0  0  0  0  0  0  0  0  0
   24.7991  -21.6124   -7.1687 O   0  0  0  0  0  0  0  0  0  0  0  0
   24.0406  -19.9050   -8.4382 O   0  0  0  0  0  0  0  0  0  0  0  0
  2  1  1  6
  2  3  1  0
  3  4  1  0
  4  5  2  0
  5  6  1  0
  7  6  2  0
  8  7  1  0
  9  4  1  0
  9  8  2  0
 10 11  2  0
 10  2  1  0
 12 10  1  0
 13 24  1  0
 13 12  1  0
 13 14  1  6
 15 23  1  0
 15 14  1  0
 16 15  2  0
 17 16  1  0
 17 18  1  0
 18 23  2  0
 19 18  1  0
 19 20  2  0
 20 21  1  0
 21 22  2  0
 23 22  1  0
 24 25  2  0
 26 27  1  0
 26 24  1  0
 27 28  1  1
 28 29  1  0
 29 34  1  0
 30 29  2  0
 30 31  1  0
 31 32  2  0
 32 33  1  0
 34 33  2  0
 35 36  1  0
 35 27  1  0
 37 35  2  0
M  END
$$$$
