KHT.pdb
     RDKit          3D

 27 27  0  0  1  0  0  0  0  0999 V2000
   19.5087  -11.0548  -18.4232 N   0  0  0  0  0  0  0  0  0  0  0  0
   20.6814  -10.3723  -18.0014 C   0  0  1  0  0  0  0  0  0  0  0  0
   21.3641   -9.7457  -19.1854 C   0  0  0  0  0  0  0  0  0  0  0  0
   21.9922  -10.6830  -20.1442 C   0  0  0  0  0  0  0  0  0  0  0  0
   22.8769  -10.0997  -21.1867 C   0  0  0  0  0  0  0  0  0  0  0  0
   23.3604  -11.2100  -22.1432 C   0  0  0  0  0  0  0  0  0  0  0  0
   24.3279  -10.7019  -23.0685 N   0  0  0  0  0  0  0  0  0  0  0  0
   20.3864   -9.2794  -17.0159 C   0  0  0  0  0  0  0  0  0  0  0  0
   19.3786   -8.5706  -17.2508 O   0  0  0  0  0  0  0  0  0  0  0  0
   21.1932   -9.0419  -15.8693 N   0  0  0  0  0  0  0  0  0  0  0  0
   20.9054   -7.9899  -14.9154 C   0  0  1  0  0  0  0  0  0  0  0  0
   20.7541   -8.5516  -13.5120 C   0  0  0  0  0  0  0  0  0  0  0  0
   19.4659   -9.2732  -13.3214 C   0  0  0  0  0  0  0  0  0  0  0  0
   18.4522   -9.4794  -14.2228 C   0  0  0  0  0  0  0  0  0  0  0  0
   17.4997  -10.1752  -13.5849 N   0  0  0  0  0  0  0  0  0  0  0  0
   17.8597  -10.4224  -12.3174 C   0  0  0  0  0  0  0  0  0  0  0  0
   19.0705   -9.8639  -12.1640 N   0  0  0  0  0  0  0  0  0  0  0  0
   21.9037   -6.8944  -14.9916 C   0  0  0  0  0  0  0  0  0  0  0  0
   23.1448   -7.0777  -14.9440 O   0  0  0  0  0  0  0  0  0  0  0  0
   22.6952   -4.6371  -17.7199 C   0  0  0  0  0  0  0  0  0  0  0  0
   22.3450   -3.7440  -16.5749 C   0  0  1  0  0  0  0  0  0  0  0  0
   21.0052   -3.3480  -16.7700 O   0  0  0  0  0  0  0  0  0  0  0  0
   22.4473   -4.4513  -15.2380 C   0  0  2  0  0  0  0  0  0  0  0  0
   21.4794   -5.5210  -15.1289 N   0  0  0  0  0  0  0  0  0  0  0  0
   22.3410   -3.4962  -14.1082 C   0  0  0  0  0  0  0  0  0  0  0  0
   23.2179   -2.6171  -13.9356 O   0  0  0  0  0  0  0  0  0  0  0  0
   21.2824   -3.5402  -13.2142 O   0  0  0  0  0  0  0  0  0  0  0  0
  2  1  1  6
  3  2  1  0
  4  3  1  0
  4  5  1  0
  5  6  1  0
  6  7  1  0
  8  9  2  0
  8  2  1  0
 10  8  1  0
 11 12  1  1
 11 10  1  0
 12 13  1  0
 13 17  1  0
 13 14  2  0
 14 15  1  0
 16 15  1  0
 17 16  2  0
 18 11  1  0
 19 18  2  0
 21 20  1  6
 21 23  1  0
 22 21  1  0
 23 24  1  1
 24 18  1  0
 25 27  1  0
 25 23  1  0
 26 25  2  0
M  END
$$$$
