KHT.pdb
     RDKit          3D

 27 27  0  0  1  0  0  0  0  0999 V2000
   27.3673  -20.9827  -19.2616 N   0  0  0  0  0  0  0  0  0  0  0  0
   27.4111  -21.2449  -17.8658 C   0  0  1  0  0  0  0  0  0  0  0  0
   28.8049  -21.0258  -17.3461 C   0  0  0  0  0  0  0  0  0  0  0  0
   29.7855  -22.0937  -17.6467 C   0  0  0  0  0  0  0  0  0  0  0  0
   29.5346  -23.4347  -17.0566 C   0  0  0  0  0  0  0  0  0  0  0  0
   30.7323  -24.3646  -17.3431 C   0  0  0  0  0  0  0  0  0  0  0  0
   30.5332  -25.6522  -16.7491 N   0  0  0  0  0  0  0  0  0  0  0  0
   26.4897  -20.3536  -17.0851 C   0  0  0  0  0  0  0  0  0  0  0  0
   26.3603  -19.1782  -17.5032 O   0  0  0  0  0  0  0  0  0  0  0  0
   25.7900  -20.7973  -15.9294 N   0  0  0  0  0  0  0  0  0  0  0  0
   24.6863  -20.0572  -15.3519 C   0  0  1  0  0  0  0  0  0  0  0  0
   23.6711  -19.6723  -16.4145 C   0  0  0  0  0  0  0  0  0  0  0  0
   22.5003  -18.9465  -15.8497 C   0  0  0  0  0  0  0  0  0  0  0  0
   22.2333  -18.6272  -14.5422 C   0  0  0  0  0  0  0  0  0  0  0  0
   21.0588  -17.9802  -14.5317 N   0  0  0  0  0  0  0  0  0  0  0  0
   20.5642  -17.8723  -15.7732 C   0  0  0  0  0  0  0  0  0  0  0  0
   21.4575  -18.4694  -16.5775 N   0  0  0  0  0  0  0  0  0  0  0  0
   24.0766  -20.7857  -14.2115 C   0  0  0  0  0  0  0  0  0  0  0  0
   23.4127  -21.8440  -14.3353 O   0  0  0  0  0  0  0  0  0  0  0  0
   25.9927  -21.3194  -10.7891 C   0  0  0  0  0  0  0  0  0  0  0  0
   24.5839  -20.9037  -10.5171 C   0  0  1  0  0  0  0  0  0  0  0  0
   24.6314  -19.5438  -10.1454 O   0  0  0  0  0  0  0  0  0  0  0  0
   23.6959  -21.0375  -11.7384 C   0  0  2  0  0  0  0  0  0  0  0  0
   24.2242  -20.2945  -12.8618 N   0  0  0  0  0  0  0  0  0  0  0  0
   22.2949  -20.6553  -11.4362 C   0  0  0  0  0  0  0  0  0  0  0  0
   21.7688  -19.6702  -12.0057 O   0  0  0  0  0  0  0  0  0  0  0  0
   21.5268  -21.3640  -10.5255 O   0  0  0  0  0  0  0  0  0  0  0  0
  2  1  1  6
  3  2  1  0
  4  3  1  0
  4  5  1  0
  5  6  1  0
  6  7  1  0
  8  9  2  0
  8  2  1  0
 10  8  1  0
 11 12  1  6
 11 10  1  0
 12 13  1  0
 13 17  1  0
 13 14  2  0
 14 15  1  0
 16 15  1  0
 17 16  2  0
 18 11  1  0
 19 18  2  0
 21 20  1  6
 21 23  1  0
 22 21  1  0
 23 24  1  6
 24 18  1  0
 25 27  1  0
 25 23  1  0
 26 25  2  0
M  END
$$$$
