KHT.pdb
     RDKit          3D

 27 27  0  0  1  0  0  0  0  0999 V2000
   28.0419  -23.1732  -17.3832 N   0  0  0  0  0  0  0  0  0  0  0  0
   27.9080  -21.9077  -16.7511 C   0  0  1  0  0  0  0  0  0  0  0  0
   27.6214  -20.8486  -17.7789 C   0  0  0  0  0  0  0  0  0  0  0  0
   28.8032  -20.1815  -18.3711 C   0  0  0  0  0  0  0  0  0  0  0  0
   29.5370  -20.9148  -19.4358 C   0  0  0  0  0  0  0  0  0  0  0  0
   30.7489  -20.0821  -19.9041 C   0  0  0  0  0  0  0  0  0  0  0  0
   31.4676  -20.7630  -20.9387 N   0  0  0  0  0  0  0  0  0  0  0  0
   26.7911  -21.8822  -15.7486 C   0  0  0  0  0  0  0  0  0  0  0  0
   25.7428  -22.4952  -16.0625 O   0  0  0  0  0  0  0  0  0  0  0  0
   26.8940  -21.2052  -14.5024 N   0  0  0  0  0  0  0  0  0  0  0  0
   25.8439  -21.2405  -13.5047 C   0  0  1  0  0  0  0  0  0  0  0  0
   26.4018  -20.9837  -12.1152 C   0  0  0  0  0  0  0  0  0  0  0  0
   25.3497  -21.0168  -11.0623 C   0  0  0  0  0  0  0  0  0  0  0  0
   24.0010  -21.2297  -11.1982 C   0  0  0  0  0  0  0  0  0  0  0  0
   23.4700  -21.1588   -9.9688 N   0  0  0  0  0  0  0  0  0  0  0  0
   24.4187  -20.9102   -9.0547 C   0  0  0  0  0  0  0  0  0  0  0  0
   25.5718  -20.8244   -9.7362 N   0  0  0  0  0  0  0  0  0  0  0  0
   24.7271  -20.3274  -13.8536 C   0  0  0  0  0  0  0  0  0  0  0  0
   24.8466  -19.0806  -13.9383 O   0  0  0  0  0  0  0  0  0  0  0  0
   22.9815  -19.5874  -16.7525 C   0  0  0  0  0  0  0  0  0  0  0  0
   21.8774  -19.9968  -15.8333 C   0  0  1  0  0  0  0  0  0  0  0  0
   21.5470  -21.3261  -16.1702 O   0  0  0  0  0  0  0  0  0  0  0  0
   22.2948  -19.9597  -14.3764 C   0  0  2  0  0  0  0  0  0  0  0  0
   23.4073  -20.8486  -14.1210 N   0  0  0  0  0  0  0  0  0  0  0  0
   21.1498  -20.2389  -13.4758 C   0  0  0  0  0  0  0  0  0  0  0  0
   21.1985  -21.1932  -12.6643 O   0  0  0  0  0  0  0  0  0  0  0  0
   19.9998  -19.4651  -13.4982 O   0  0  0  0  0  0  0  0  0  0  0  0
  2  1  1  6
  3  2  1  0
  4  3  1  0
  4  5  1  0
  5  6  1  0
  6  7  1  0
  8  9  2  0
  8  2  1  0
 10  8  1  0
 11 12  1  1
 11 10  1  0
 12 13  1  0
 13 17  1  0
 13 14  2  0
 14 15  1  0
 16 15  1  0
 17 16  2  0
 18 11  1  0
 19 18  2  0
 21 20  1  6
 21 23  1  0
 22 21  1  0
 23 24  1  6
 24 18  1  0
 25 27  1  0
 25 23  1  0
 26 25  2  0
M  END
$$$$
