KHT.pdb
     RDKit          3D

 27 27  0  0  1  0  0  0  0  0999 V2000
   21.5675  -16.6581  -15.7418 N   0  0  0  0  0  0  0  0  0  0  0  0
   21.1043  -15.4907  -16.4061 C   0  0  1  0  0  0  0  0  0  0  0  0
   19.6199  -15.3469  -16.2157 C   0  0  0  0  0  0  0  0  0  0  0  0
   18.7799  -16.3896  -16.8479 C   0  0  0  0  0  0  0  0  0  0  0  0
   17.3127  -16.1537  -16.8831 C   0  0  0  0  0  0  0  0  0  0  0  0
   16.6155  -17.3066  -17.6355 C   0  0  0  0  0  0  0  0  0  0  0  0
   15.1930  -17.2216  -17.4956 N   0  0  0  0  0  0  0  0  0  0  0  0
   21.7522  -14.2399  -15.8878 C   0  0  0  0  0  0  0  0  0  0  0  0
   21.8355  -14.1277  -14.6413 O   0  0  0  0  0  0  0  0  0  0  0  0
   22.2524  -13.2226  -16.7461 N   0  0  0  0  0  0  0  0  0  0  0  0
   23.0344  -12.1040  -16.2595 C   0  0  1  0  0  0  0  0  0  0  0  0
   24.4457  -12.1389  -16.8206 C   0  0  0  0  0  0  0  0  0  0  0  0
   25.2658  -13.2354  -16.2360 C   0  0  0  0  0  0  0  0  0  0  0  0
   24.9253  -14.1414  -15.2635 C   0  0  0  0  0  0  0  0  0  0  0  0
   25.9965  -14.9244  -15.0689 N   0  0  0  0  0  0  0  0  0  0  0  0
   27.0050  -14.5590  -15.8732 C   0  0  0  0  0  0  0  0  0  0  0  0
   26.5466  -13.5193  -16.5876 N   0  0  0  0  0  0  0  0  0  0  0  0
   22.3499  -10.8103  -16.5051 C   0  0  0  0  0  0  0  0  0  0  0  0
   22.1556  -10.3305  -17.6489 O   0  0  0  0  0  0  0  0  0  0  0  0
   18.9374   -9.7002  -15.7739 C   0  0  0  0  0  0  0  0  0  0  0  0
   19.8180   -8.6972  -15.1030 C   0  0  1  0  0  0  0  0  0  0  0  0
   19.8420   -9.0363  -13.7340 O   0  0  0  0  0  0  0  0  0  0  0  0
   21.2385   -8.7303  -15.6313 C   0  0  2  0  0  0  0  0  0  0  0  0
   21.8590  -10.0171  -15.4029 N   0  0  0  0  0  0  0  0  0  0  0  0
   22.0512   -7.6212  -15.0751 C   0  0  0  0  0  0  0  0  0  0  0  0
   23.0573   -7.8644  -14.3678 O   0  0  0  0  0  0  0  0  0  0  0  0
   21.7323   -6.2935  -15.3140 O   0  0  0  0  0  0  0  0  0  0  0  0
  2  1  1  1
  3  2  1  0
  4  3  1  0
  4  5  1  0
  5  6  1  0
  6  7  1  0
  8  9  2  0
  8  2  1  0
 10  8  1  0
 11 12  1  6
 11 10  1  0
 12 13  1  0
 13 17  1  0
 13 14  2  0
 14 15  1  0
 16 15  1  0
 17 16  2  0
 18 11  1  0
 19 18  2  0
 21 20  1  6
 21 23  1  0
 22 21  1  0
 23 24  1  1
 24 18  1  0
 25 27  1  0
 25 23  1  0
 26 25  2  0
M  END
$$$$
