KHT.pdb
     RDKit          3D

 27 27  0  0  1  0  0  0  0  0999 V2000
   19.9091  -17.0214  -16.2594 N   0  0  0  0  0  0  0  0  0  0  0  0
   21.0225  -16.1815  -16.5311 C   0  0  1  0  0  0  0  0  0  0  0  0
   21.8693  -16.7870  -17.6159 C   0  0  0  0  0  0  0  0  0  0  0  0
   23.1599  -17.3697  -17.1835 C   0  0  0  0  0  0  0  0  0  0  0  0
   23.4443  -18.7715  -17.5884 C   0  0  0  0  0  0  0  0  0  0  0  0
   24.8534  -19.1787  -17.1090 C   0  0  0  0  0  0  0  0  0  0  0  0
   25.2140  -20.4675  -17.6186 N   0  0  0  0  0  0  0  0  0  0  0  0
   20.6108  -14.8120  -16.9870 C   0  0  0  0  0  0  0  0  0  0  0  0
   20.0817  -14.7351  -18.1216 O   0  0  0  0  0  0  0  0  0  0  0  0
   20.8009  -13.6491  -16.1911 N   0  0  0  0  0  0  0  0  0  0  0  0
   20.4120  -12.3258  -16.6353 C   0  0  1  0  0  0  0  0  0  0  0  0
   18.9480  -12.2936  -17.0396 C   0  0  0  0  0  0  0  0  0  0  0  0
   18.0663  -12.9660  -16.0461 C   0  0  0  0  0  0  0  0  0  0  0  0
   18.4124  -13.6239  -14.8929 C   0  0  0  0  0  0  0  0  0  0  0  0
   17.2733  -14.0651  -14.3396 N   0  0  0  0  0  0  0  0  0  0  0  0
   16.2160  -13.7186  -15.0876 C   0  0  0  0  0  0  0  0  0  0  0  0
   16.7131  -13.0428  -16.1353 N   0  0  0  0  0  0  0  0  0  0  0  0
   20.7538  -11.2891  -15.6298 C   0  0  0  0  0  0  0  0  0  0  0  0
   20.6507  -11.4594  -14.3903 O   0  0  0  0  0  0  0  0  0  0  0  0
   23.9529   -9.7138  -14.7531 C   0  0  0  0  0  0  0  0  0  0  0  0
   23.0464   -8.5989  -15.1616 C   0  0  1  0  0  0  0  0  0  0  0  0
   23.3493   -8.3084  -16.5083 O   0  0  0  0  0  0  0  0  0  0  0  0
   21.5824   -8.9815  -15.0699 C   0  0  2  0  0  0  0  0  0  0  0  0
   21.2369   -9.9932  -16.0447 N   0  0  0  0  0  0  0  0  0  0  0  0
   20.7022   -7.7924  -15.1758 C   0  0  0  0  0  0  0  0  0  0  0  0
   20.7531   -6.8860  -14.3113 O   0  0  0  0  0  0  0  0  0  0  0  0
   19.8035   -7.6420  -16.2206 O   0  0  0  0  0  0  0  0  0  0  0  0
  2  1  1  6
  3  2  1  0
  4  3  1  0
  4  5  1  0
  5  6  1  0
  6  7  1  0
  8  9  2  0
  8  2  1  0
 10  8  1  0
 11 12  1  1
 11 10  1  0
 12 13  1  0
 13 17  1  0
 13 14  2  0
 14 15  1  0
 16 15  1  0
 17 16  2  0
 18 11  1  0
 19 18  2  0
 21 20  1  6
 21 23  1  0
 22 21  1  0
 23 24  1  6
 24 18  1  0
 25 27  1  0
 25 23  1  0
 26 25  2  0
M  END
$$$$
