KHT.pdb
     RDKit          3D

 27 27  0  0  1  0  0  0  0  0999 V2000
   29.9201  -25.2119  -17.7928 N   0  0  0  0  0  0  0  0  0  0  0  0
   28.6022  -25.0209  -17.2973 C   0  0  1  0  0  0  0  0  0  0  0  0
   28.2207  -26.1651  -16.3998 C   0  0  0  0  0  0  0  0  0  0  0  0
   27.5753  -27.3221  -17.0610 C   0  0  0  0  0  0  0  0  0  0  0  0
   26.3004  -27.0701  -17.7828 C   0  0  0  0  0  0  0  0  0  0  0  0
   25.7436  -28.3973  -18.3396 C   0  0  0  0  0  0  0  0  0  0  0  0
   24.4701  -28.1959  -18.9625 N   0  0  0  0  0  0  0  0  0  0  0  0
   28.4657  -23.7548  -16.5027 C   0  0  0  0  0  0  0  0  0  0  0  0
   29.3056  -23.5739  -15.5889 O   0  0  0  0  0  0  0  0  0  0  0  0
   27.4456  -22.7969  -16.7551 N   0  0  0  0  0  0  0  0  0  0  0  0
   27.2986  -21.5868  -15.9717 C   0  0  1  0  0  0  0  0  0  0  0  0
   27.2472  -20.3599  -16.8661 C   0  0  0  0  0  0  0  0  0  0  0  0
   27.0284  -19.1028  -16.0990 C   0  0  0  0  0  0  0  0  0  0  0  0
   26.9856  -18.9190  -14.7399 C   0  0  0  0  0  0  0  0  0  0  0  0
   26.7562  -17.6144  -14.5307 N   0  0  0  0  0  0  0  0  0  0  0  0
   26.6506  -16.9575  -15.6946 C   0  0  0  0  0  0  0  0  0  0  0  0
   26.8194  -17.8809  -16.6540 N   0  0  0  0  0  0  0  0  0  0  0  0
   26.1420  -21.6721  -15.0456 C   0  0  0  0  0  0  0  0  0  0  0  0
   25.0062  -22.0852  -15.3851 O   0  0  0  0  0  0  0  0  0  0  0  0
   26.3527  -20.3100  -10.8445 C   0  0  0  0  0  0  0  0  0  0  0  0
   25.7492  -21.5999  -11.2956 C   0  0  1  0  0  0  0  0  0  0  0  0
   24.6714  -21.8648  -10.4251 O   0  0  0  0  0  0  0  0  0  0  0  0
   25.2152  -21.5237  -12.7124 C   0  0  2  0  0  0  0  0  0  0  0  0
   26.2742  -21.2704  -13.6650 N   0  0  0  0  0  0  0  0  0  0  0  0
   24.1215  -20.5285  -12.8283 C   0  0  0  0  0  0  0  0  0  0  0  0
   24.2856  -19.4799  -13.4955 O   0  0  0  0  0  0  0  0  0  0  0  0
   22.8948  -20.7191  -12.2114 O   0  0  0  0  0  0  0  0  0  0  0  0
  2  1  1  1
  3  2  1  0
  4  3  1  0
  4  5  1  0
  5  6  1  0
  6  7  1  0
  8  9  2  0
  8  2  1  0
 10  8  1  0
 11 12  1  6
 11 10  1  0
 12 13  1  0
 13 17  1  0
 13 14  2  0
 14 15  1  0
 16 15  1  0
 17 16  2  0
 18 11  1  0
 19 18  2  0
 21 20  1  1
 21 23  1  0
 22 21  1  0
 23 24  1  6
 24 18  1  0
 25 27  1  0
 25 23  1  0
 26 25  2  0
M  END
$$$$
