KHT.pdb
     RDKit          3D

 27 27  0  0  1  0  0  0  0  0999 V2000
   23.8872  -12.8829  -18.2535 N   0  0  0  0  0  0  0  0  0  0  0  0
   23.4026  -11.6827  -18.8396 C   0  0  1  0  0  0  0  0  0  0  0  0
   21.9585  -11.8463  -19.2244 C   0  0  0  0  0  0  0  0  0  0  0  0
   21.6614  -12.9329  -20.1854 C   0  0  0  0  0  0  0  0  0  0  0  0
   22.2708  -12.8320  -21.5375 C   0  0  0  0  0  0  0  0  0  0  0  0
   21.7800  -13.9984  -22.4207 C   0  0  0  0  0  0  0  0  0  0  0  0
   22.4719  -15.2098  -22.0981 N   0  0  0  0  0  0  0  0  0  0  0  0
   23.4944  -10.5105  -17.9067 C   0  0  0  0  0  0  0  0  0  0  0  0
   23.0688  -10.6884  -16.7403 O   0  0  0  0  0  0  0  0  0  0  0  0
   24.0318   -9.2550  -18.3027 N   0  0  0  0  0  0  0  0  0  0  0  0
   24.1229   -8.1243  -17.4011 C   0  0  1  0  0  0  0  0  0  0  0  0
   25.5713   -7.7964  -17.0808 C   0  0  0  0  0  0  0  0  0  0  0  0
   26.2734   -8.9182  -16.3988 C   0  0  0  0  0  0  0  0  0  0  0  0
   27.3031   -9.6984  -16.8612 C   0  0  0  0  0  0  0  0  0  0  0  0
   27.5908  -10.5781  -15.8908 N   0  0  0  0  0  0  0  0  0  0  0  0
   26.7915  -10.3947  -14.8303 C   0  0  0  0  0  0  0  0  0  0  0  0
   25.9843   -9.3716  -15.1516 N   0  0  0  0  0  0  0  0  0  0  0  0
   23.3683   -6.9538  -17.9139 C   0  0  0  0  0  0  0  0  0  0  0  0
   23.7458   -6.2514  -18.8836 O   0  0  0  0  0  0  0  0  0  0  0  0
   20.1240   -6.8402  -19.4965 C   0  0  0  0  0  0  0  0  0  0  0  0
   20.0061   -5.8991  -18.3425 C   0  0  1  0  0  0  0  0  0  0  0  0
   19.3482   -6.6057  -17.3141 O   0  0  0  0  0  0  0  0  0  0  0  0
   21.3574   -5.4460  -17.8260 C   0  0  2  0  0  0  0  0  0  0  0  0
   22.1232   -6.5554  -17.3008 N   0  0  0  0  0  0  0  0  0  0  0  0
   21.2209   -4.3528  -16.8328 C   0  0  0  0  0  0  0  0  0  0  0  0
   21.6078   -4.5164  -15.6516 O   0  0  0  0  0  0  0  0  0  0  0  0
   20.6682   -3.1270  -17.1700 O   0  0  0  0  0  0  0  0  0  0  0  0
  2  1  1  1
  3  2  1  0
  4  3  1  0
  4  5  1  0
  5  6  1  0
  6  7  1  0
  8  9  2  0
  8  2  1  0
 10  8  1  0
 11 12  1  6
 11 10  1  0
 12 13  1  0
 13 17  1  0
 13 14  2  0
 14 15  1  0
 16 15  1  0
 17 16  2  0
 18 11  1  0
 19 18  2  0
 21 20  1  6
 21 23  1  0
 22 21  1  0
 23 24  1  1
 24 18  1  0
 25 27  1  0
 25 23  1  0
 26 25  2  0
M  END
$$$$
