NYP.pdb
     RDKit          3D

 28 29  0  0  1  0  0  0  0  0999 V2000
   11.3620  -19.6270   19.5745 N   0  0  0  0  0  0  0  0  0  0  0  0
   11.7263  -19.9278   20.9173 C   0  0  0  0  0  0  0  0  0  0  0  0
   12.2331  -21.0543   21.1535 O   0  0  0  0  0  0  0  0  0  0  0  0
   11.4844  -18.8947   21.9453 C   0  0  0  0  0  0  0  0  0  0  0  0
   10.8584  -17.6934   21.2663 C   0  0  2  0  0  0  0  0  0  0  0  0
   11.7749  -17.2562   20.2155 N   0  0  0  0  0  0  0  0  0  0  0  0
   10.5933  -16.5895   22.2238 C   0  0  0  0  0  0  0  0  0  0  0  0
   11.4149  -15.7087   22.5123 O   0  0  0  0  0  0  0  0  0  0  0  0
    6.2989  -11.0895   27.5953 O   0  0  0  0  0  0  0  0  0  0  0  0
    6.5867  -12.0836   26.6562 C   0  0  0  0  0  0  0  0  0  0  0  0
    6.2461  -13.4016   26.8604 C   0  0  0  0  0  0  0  0  0  0  0  0
    6.5524  -14.3447   25.9031 C   0  0  0  0  0  0  0  0  0  0  0  0
    7.2019  -14.0305   24.7145 C   0  0  0  0  0  0  0  0  0  0  0  0
    7.5008  -15.0981   23.6871 C   0  0  0  0  0  0  0  0  0  0  0  0
    8.9238  -15.5272   23.8096 C   0  0  2  0  0  0  0  0  0  0  0  0
    9.3313  -16.5247   22.8536 N   0  0  0  0  0  0  0  0  0  0  0  0
    9.2410  -16.0526   25.1366 C   0  0  0  0  0  0  0  0  0  0  0  0
    8.9682  -17.3097   25.3527 O   0  0  0  0  0  0  0  0  0  0  0  0
    7.5328  -12.7120   24.5289 C   0  0  0  0  0  0  0  0  0  0  0  0
    7.2308  -11.7484   25.4856 C   0  0  0  0  0  0  0  0  0  0  0  0
    9.8096  -15.3987   26.2485 N   0  0  0  0  0  0  0  0  0  0  0  0
    9.8950  -13.9322   26.3263 C   0  0  0  0  0  0  0  0  0  0  0  0
    9.7612  -13.6638   27.8013 C   0  0  0  0  0  0  0  0  0  0  0  0
   10.7605  -14.7107   28.3200 C   0  0  0  0  0  0  0  0  0  0  0  0
   10.3867  -15.9370   27.4330 C   0  0  1  0  0  0  0  0  0  0  0  0
    9.4651  -16.7867   28.2416 C   0  0  0  0  0  0  0  0  0  0  0  0
    9.9252  -17.3211   29.2807 O   0  0  0  0  0  0  0  0  0  0  0  0
    8.1457  -17.0160   27.9202 O   0  0  0  0  0  0  0  0  0  0  0  0
  1  2  1  0
  2  3  2  0
  4  5  1  0
  4  2  1  0
  5  6  1  6
  7  5  1  0
  7  8  2  0
  9 10  1  0
 10 11  2  0
 11 12  1  0
 13 12  2  0
 13 14  1  0
 15 14  1  1
 15 16  1  0
 16  7  1  0
 17 15  1  0
 18 17  2  0
 19 13  1  0
 20 10  1  0
 20 19  2  0
 21 22  1  0
 21 17  1  0
 23 22  1  0
 24 23  1  0
 24 25  1  0
 25 21  1  0
 25 26  1  1
 27 26  2  0
 28 26  1  0
M  END
$$$$
