NYP.pdb
     RDKit          3D

 28 29  0  0  1  0  0  0  0  0999 V2000
    7.4105  -19.3188   17.7952 N   0  0  0  0  0  0  0  0  0  0  0  0
    7.2063  -18.0075   18.3100 C   0  0  0  0  0  0  0  0  0  0  0  0
    6.4910  -17.2162   17.6436 O   0  0  0  0  0  0  0  0  0  0  0  0
    7.8493  -17.6632   19.5947 C   0  0  0  0  0  0  0  0  0  0  0  0
    8.0067  -16.1572   19.6529 C   0  0  2  0  0  0  0  0  0  0  0  0
    8.9464  -15.7733   18.6019 N   0  0  0  0  0  0  0  0  0  0  0  0
    8.4894  -15.6999   20.9810 C   0  0  0  0  0  0  0  0  0  0  0  0
    9.6518  -15.8433   21.3839 O   0  0  0  0  0  0  0  0  0  0  0  0
    8.2834  -12.6532   29.2380 O   0  0  0  0  0  0  0  0  0  0  0  0
    7.9447  -12.9015   27.9051 C   0  0  0  0  0  0  0  0  0  0  0  0
    8.5505  -12.2381   26.8621 C   0  0  0  0  0  0  0  0  0  0  0  0
    8.1808  -12.5190   25.5643 C   0  0  0  0  0  0  0  0  0  0  0  0
    7.2065  -13.4577   25.2433 C   0  0  0  0  0  0  0  0  0  0  0  0
    6.8477  -13.7432   23.8030 C   0  0  0  0  0  0  0  0  0  0  0  0
    7.8578  -14.6652   23.2082 C   0  0  2  0  0  0  0  0  0  0  0  0
    7.5801  -15.0599   21.8510 N   0  0  0  0  0  0  0  0  0  0  0  0
    8.0253  -15.8928   23.9843 C   0  0  0  0  0  0  0  0  0  0  0  0
    6.9639  -16.6319   24.1533 O   0  0  0  0  0  0  0  0  0  0  0  0
    6.6146  -14.1087   26.2961 C   0  0  0  0  0  0  0  0  0  0  0  0
    6.9766  -13.8363   27.6113 C   0  0  0  0  0  0  0  0  0  0  0  0
    9.1822  -16.4178   24.5951 N   0  0  0  0  0  0  0  0  0  0  0  0
   10.4841  -15.7387   24.5039 C   0  0  0  0  0  0  0  0  0  0  0  0
   11.1384  -16.0857   25.8143 C   0  0  0  0  0  0  0  0  0  0  0  0
   10.8438  -17.5946   25.8294 C   0  0  0  0  0  0  0  0  0  0  0  0
    9.3583  -17.6076   25.3562 C   0  0  1  0  0  0  0  0  0  0  0  0
    8.5170  -17.6882   26.5853 C   0  0  0  0  0  0  0  0  0  0  0  0
    8.0135  -16.6225   27.0187 O   0  0  0  0  0  0  0  0  0  0  0  0
    8.2577  -18.8562   27.2676 O   0  0  0  0  0  0  0  0  0  0  0  0
  1  2  1  0
  2  3  2  0
  4  5  1  0
  4  2  1  0
  5  6  1  6
  7  5  1  0
  7  8  2  0
  9 10  1  0
 10 11  2  0
 11 12  1  0
 13 12  2  0
 13 14  1  0
 15 14  1  1
 15 16  1  0
 16  7  1  0
 17 15  1  0
 18 17  2  0
 19 13  1  0
 20 10  1  0
 20 19  2  0
 21 22  1  0
 21 17  1  0
 23 22  1  0
 24 23  1  0
 24 25  1  0
 25 21  1  0
 25 26  1  1
 27 26  2  0
 28 26  1  0
M  END
$$$$
