NYP.pdb
     RDKit          3D

 28 29  0  0  1  0  0  0  0  0999 V2000
    5.6515  -21.4261   25.0268 N   0  0  0  0  0  0  0  0  0  0  0  0
    6.2155  -20.4411   25.8858 C   0  0  0  0  0  0  0  0  0  0  0  0
    6.8430  -20.8337   26.9025 O   0  0  0  0  0  0  0  0  0  0  0  0
    6.0258  -19.0211   25.5249 C   0  0  0  0  0  0  0  0  0  0  0  0
    6.9406  -18.7062   24.3587 C   0  0  2  0  0  0  0  0  0  0  0  0
    8.3133  -18.9367   24.8031 N   0  0  0  0  0  0  0  0  0  0  0  0
    6.7713  -17.3102   23.8809 C   0  0  0  0  0  0  0  0  0  0  0  0
    5.6801  -16.8068   23.5809 O   0  0  0  0  0  0  0  0  0  0  0  0
    6.0963  -12.0419   28.3226 O   0  0  0  0  0  0  0  0  0  0  0  0
    6.7442  -12.5628   27.1992 C   0  0  0  0  0  0  0  0  0  0  0  0
    6.2755  -12.3510   25.9224 C   0  0  0  0  0  0  0  0  0  0  0  0
    6.9509  -12.8867   24.8469 C   0  0  0  0  0  0  0  0  0  0  0  0
    8.1070  -13.6471   24.9841 C   0  0  0  0  0  0  0  0  0  0  0  0
    8.8220  -14.1989   23.7722 C   0  0  0  0  0  0  0  0  0  0  0  0
    7.9582  -15.2105   23.0980 C   0  0  2  0  0  0  0  0  0  0  0  0
    7.9149  -16.4918   23.7549 N   0  0  0  0  0  0  0  0  0  0  0  0
    8.3538  -15.4543   21.7118 C   0  0  0  0  0  0  0  0  0  0  0  0
    8.9466  -16.5885   21.4596 O   0  0  0  0  0  0  0  0  0  0  0  0
    8.5587  -13.8468   26.2642 C   0  0  0  0  0  0  0  0  0  0  0  0
    7.8882  -13.3130   27.3599 C   0  0  0  0  0  0  0  0  0  0  0  0
    8.1921  -14.6364   20.5751 N   0  0  0  0  0  0  0  0  0  0  0  0
    7.5291  -13.3253   20.6504 C   0  0  0  0  0  0  0  0  0  0  0  0
    8.2432  -12.5247   19.5946 C   0  0  0  0  0  0  0  0  0  0  0  0
    8.2027  -13.5549   18.4540 C   0  0  0  0  0  0  0  0  0  0  0  0
    8.5779  -14.8581   19.2231 C   0  0  1  0  0  0  0  0  0  0  0  0
   10.0407  -15.0693   19.0218 C   0  0  0  0  0  0  0  0  0  0  0  0
   10.4170  -15.5302   17.9160 O   0  0  0  0  0  0  0  0  0  0  0  0
   10.9988  -14.7872   19.9702 O   0  0  0  0  0  0  0  0  0  0  0  0
  1  2  1  0
  2  3  2  0
  4  5  1  0
  4  2  1  0
  5  6  1  1
  7  5  1  0
  7  8  2  0
  9 10  1  0
 10 11  2  0
 11 12  1  0
 13 12  2  0
 13 14  1  0
 15 14  1  1
 15 16  1  0
 16  7  1  0
 17 15  1  0
 18 17  2  0
 19 13  1  0
 20 10  1  0
 20 19  2  0
 21 22  1  0
 21 17  1  0
 23 22  1  0
 24 23  1  0
 24 25  1  0
 25 21  1  0
 25 26  1  1
 27 26  2  0
 28 26  1  0
M  END
$$$$
