NYP.pdb
     RDKit          3D

 28 29  0  0  1  0  0  0  0  0999 V2000
   12.8681  -19.1827   20.4150 N   0  0  0  0  0  0  0  0  0  0  0  0
   12.6669  -17.9515   19.7296 C   0  0  0  0  0  0  0  0  0  0  0  0
   12.9861  -17.8930   18.5146 O   0  0  0  0  0  0  0  0  0  0  0  0
   12.0957  -16.8229   20.4928 C   0  0  0  0  0  0  0  0  0  0  0  0
   11.7337  -17.3258   21.8756 C   0  0  2  0  0  0  0  0  0  0  0  0
   10.6931  -18.3390   21.7156 N   0  0  0  0  0  0  0  0  0  0  0  0
   11.2662  -16.2288   22.7611 C   0  0  0  0  0  0  0  0  0  0  0  0
   11.8808  -15.1677   22.9351 O   0  0  0  0  0  0  0  0  0  0  0  0
    6.8880  -12.9820   19.0901 O   0  0  0  0  0  0  0  0  0  0  0  0
    7.1762  -13.5134   20.3501 C   0  0  0  0  0  0  0  0  0  0  0  0
    7.8400  -12.7886   21.3138 C   0  0  0  0  0  0  0  0  0  0  0  0
    8.1007  -13.3583   22.5415 C   0  0  0  0  0  0  0  0  0  0  0  0
    7.7210  -14.6557   22.8676 C   0  0  0  0  0  0  0  0  0  0  0  0
    8.0146  -15.2304   24.2344 C   0  0  0  0  0  0  0  0  0  0  0  0
    9.4831  -15.4430   24.3838 C   0  0  2  0  0  0  0  0  0  0  0  0
   10.0472  -16.3888   23.4553 N   0  0  0  0  0  0  0  0  0  0  0  0
    9.8536  -15.8891   25.7259 C   0  0  0  0  0  0  0  0  0  0  0  0
    9.9757  -17.1752   25.9060 O   0  0  0  0  0  0  0  0  0  0  0  0
    7.0603  -15.3619   21.8944 C   0  0  0  0  0  0  0  0  0  0  0  0
    6.7899  -14.8011   20.6505 C   0  0  0  0  0  0  0  0  0  0  0  0
   10.1059  -15.1297   26.8865 N   0  0  0  0  0  0  0  0  0  0  0  0
    9.8114  -13.6898   26.9510 C   0  0  0  0  0  0  0  0  0  0  0  0
    9.4429  -13.4849   28.3959 C   0  0  0  0  0  0  0  0  0  0  0  0
   10.6048  -14.2553   29.0441 C   0  0  0  0  0  0  0  0  0  0  0  0
   10.6567  -15.5232   28.1385 C   0  0  1  0  0  0  0  0  0  0  0  0
    9.8893  -16.5883   28.8468 C   0  0  0  0  0  0  0  0  0  0  0  0
   10.4025  -17.0899   29.8773 O   0  0  0  0  0  0  0  0  0  0  0  0
    8.6563  -17.0496   28.4421 O   0  0  0  0  0  0  0  0  0  0  0  0
  1  2  1  0
  2  3  2  0
  4  5  1  0
  4  2  1  0
  5  6  1  6
  7  5  1  0
  7  8  2  0
  9 10  1  0
 10 11  2  0
 11 12  1  0
 13 12  2  0
 13 14  1  0
 15 14  1  1
 15 16  1  0
 16  7  1  0
 17 15  1  0
 18 17  2  0
 19 13  1  0
 20 10  1  0
 20 19  2  0
 21 22  1  0
 21 17  1  0
 23 22  1  0
 24 23  1  0
 24 25  1  0
 25 21  1  0
 25 26  1  1
 27 26  2  0
 28 26  1  0
M  END
$$$$
