NYP.pdb
     RDKit          3D

 28 29  0  0  1  0  0  0  0  0999 V2000
    7.1970  -20.2070   19.1576 N   0  0  0  0  0  0  0  0  0  0  0  0
    8.4442  -19.5758   18.8886 C   0  0  0  0  0  0  0  0  0  0  0  0
    8.8829  -19.6130   17.7105 O   0  0  0  0  0  0  0  0  0  0  0  0
    9.1408  -18.9180   20.0131 C   0  0  0  0  0  0  0  0  0  0  0  0
    9.2319  -17.4367   19.7078 C   0  0  2  0  0  0  0  0  0  0  0  0
   10.3739  -17.2416   18.8172 N   0  0  0  0  0  0  0  0  0  0  0  0
    9.3837  -16.6234   20.9412 C   0  0  0  0  0  0  0  0  0  0  0  0
   10.4720  -16.3669   21.4739 O   0  0  0  0  0  0  0  0  0  0  0  0
    7.2572  -11.4169   27.7485 O   0  0  0  0  0  0  0  0  0  0  0  0
    7.1765  -12.1853   26.5840 C   0  0  0  0  0  0  0  0  0  0  0  0
    6.5727  -13.4222   26.5658 C   0  0  0  0  0  0  0  0  0  0  0  0
    6.5191  -14.1413   25.3911 C   0  0  0  0  0  0  0  0  0  0  0  0
    7.0540  -13.6749   24.1954 C   0  0  0  0  0  0  0  0  0  0  0  0
    6.9549  -14.4935   22.9286 C   0  0  0  0  0  0  0  0  0  0  0  0
    8.2056  -15.2846   22.7441 C   0  0  2  0  0  0  0  0  0  0  0  0
    8.2256  -16.1022   21.5582 N   0  0  0  0  0  0  0  0  0  0  0  0
    8.4858  -16.1668   23.8758 C   0  0  0  0  0  0  0  0  0  0  0  0
    7.7137  -17.2089   24.0152 O   0  0  0  0  0  0  0  0  0  0  0  0
    7.6511  -12.4402   24.2334 C   0  0  0  0  0  0  0  0  0  0  0  0
    7.7135  -11.7023   25.4110 C   0  0  0  0  0  0  0  0  0  0  0  0
    9.4839  -16.0668   24.8662 N   0  0  0  0  0  0  0  0  0  0  0  0
   10.3647  -14.8925   24.9645 C   0  0  0  0  0  0  0  0  0  0  0  0
   10.6308  -14.7928   26.4426 C   0  0  0  0  0  0  0  0  0  0  0  0
   10.9658  -16.2676   26.7189 C   0  0  0  0  0  0  0  0  0  0  0  0
    9.8516  -16.9805   25.8937 C   0  0  1  0  0  0  0  0  0  0  0  0
    8.7559  -17.3133   26.8495 C   0  0  0  0  0  0  0  0  0  0  0  0
    8.9539  -18.2515   27.6603 O   0  0  0  0  0  0  0  0  0  0  0  0
    7.5475  -16.6541   26.8979 O   0  0  0  0  0  0  0  0  0  0  0  0
  1  2  1  0
  2  3  2  0
  4  5  1  0
  4  2  1  0
  5  6  1  6
  7  5  1  0
  7  8  2  0
  9 10  1  0
 10 11  2  0
 11 12  1  0
 13 12  2  0
 13 14  1  0
 15 14  1  1
 15 16  1  0
 16  7  1  0
 17 15  1  0
 18 17  2  0
 19 13  1  0
 20 10  1  0
 20 19  2  0
 21 22  1  0
 21 17  1  0
 23 22  1  0
 24 23  1  0
 24 25  1  0
 25 21  1  0
 25 26  1  1
 27 26  2  0
 28 26  1  0
M  END
$$$$
