NYP.pdb
     RDKit          3D

 28 29  0  0  1  0  0  0  0  0999 V2000
   10.6510  -20.3958   18.8581 N   0  0  0  0  0  0  0  0  0  0  0  0
    9.6787  -19.4004   19.1579 C   0  0  0  0  0  0  0  0  0  0  0  0
    8.7163  -19.2562   18.3612 O   0  0  0  0  0  0  0  0  0  0  0  0
    9.8654  -18.6020   20.3867 C   0  0  0  0  0  0  0  0  0  0  0  0
    9.7224  -17.1381   20.0225 C   0  0  2  0  0  0  0  0  0  0  0  0
   10.8261  -16.7989   19.1271 N   0  0  0  0  0  0  0  0  0  0  0  0
    9.7327  -16.2633   21.2227 C   0  0  0  0  0  0  0  0  0  0  0  0
   10.7553  -15.7547   21.7020 O   0  0  0  0  0  0  0  0  0  0  0  0
    6.7836  -11.5870   28.1064 O   0  0  0  0  0  0  0  0  0  0  0  0
    6.8415  -12.3149   26.9148 C   0  0  0  0  0  0  0  0  0  0  0  0
    6.3598  -13.6010   26.8207 C   0  0  0  0  0  0  0  0  0  0  0  0
    6.4405  -14.2769   25.6223 C   0  0  0  0  0  0  0  0  0  0  0  0
    6.9948  -13.7179   24.4760 C   0  0  0  0  0  0  0  0  0  0  0  0
    7.0448  -14.4936   23.1798 C   0  0  0  0  0  0  0  0  0  0  0  0
    8.3571  -15.1926   23.0644 C   0  0  2  0  0  0  0  0  0  0  0  0
    8.5096  -15.9835   21.8701 N   0  0  0  0  0  0  0  0  0  0  0  0
    8.6265  -16.0752   24.1984 C   0  0  0  0  0  0  0  0  0  0  0  0
    7.9936  -17.2156   24.2201 O   0  0  0  0  0  0  0  0  0  0  0  0
    7.4689  -12.4354   24.5895 C   0  0  0  0  0  0  0  0  0  0  0  0
    7.3950  -11.7401   25.7920 C   0  0  0  0  0  0  0  0  0  0  0  0
    9.4837  -15.8838   25.3010 N   0  0  0  0  0  0  0  0  0  0  0  0
   10.1524  -14.5974   25.5499 C   0  0  0  0  0  0  0  0  0  0  0  0
   10.2386  -14.5467   27.0518 C   0  0  0  0  0  0  0  0  0  0  0  0
   10.7703  -15.9673   27.3027 C   0  0  0  0  0  0  0  0  0  0  0  0
    9.8780  -16.7907   26.3247 C   0  0  1  0  0  0  0  0  0  0  0  0
    8.7520  -17.3426   27.1324 C   0  0  0  0  0  0  0  0  0  0  0  0
    7.5912  -16.9473   26.8617 O   0  0  0  0  0  0  0  0  0  0  0  0
    8.9081  -18.2579   28.1496 O   0  0  0  0  0  0  0  0  0  0  0  0
  1  2  1  0
  2  3  2  0
  4  5  1  0
  4  2  1  0
  5  6  1  6
  7  5  1  0
  7  8  2  0
  9 10  1  0
 10 11  2  0
 11 12  1  0
 13 12  2  0
 13 14  1  0
 15 14  1  1
 15 16  1  0
 16  7  1  0
 17 15  1  0
 18 17  2  0
 19 13  1  0
 20 10  1  0
 20 19  2  0
 21 22  1  0
 21 17  1  0
 23 22  1  0
 24 23  1  0
 24 25  1  0
 25 21  1  0
 25 26  1  1
 27 26  2  0
 28 26  1  0
M  END
$$$$
