NYP.pdb
     RDKit          3D

 28 29  0  0  1  0  0  0  0  0999 V2000
   11.7367  -17.9937   18.1292 N   0  0  0  0  0  0  0  0  0  0  0  0
   12.4726  -17.4065   19.1969 C   0  0  0  0  0  0  0  0  0  0  0  0
   13.6693  -17.7600   19.3537 O   0  0  0  0  0  0  0  0  0  0  0  0
   11.7801  -16.4196   20.0506 C   0  0  0  0  0  0  0  0  0  0  0  0
   11.5412  -17.0553   21.4051 C   0  0  2  0  0  0  0  0  0  0  0  0
   10.5705  -18.1317   21.2196 N   0  0  0  0  0  0  0  0  0  0  0  0
   11.0484  -16.0707   22.4020 C   0  0  0  0  0  0  0  0  0  0  0  0
   11.6795  -15.0650   22.7545 O   0  0  0  0  0  0  0  0  0  0  0  0
    5.8200  -11.7384   27.9476 O   0  0  0  0  0  0  0  0  0  0  0  0
    6.2845  -12.5773   26.9310 C   0  0  0  0  0  0  0  0  0  0  0  0
    6.9185  -12.0866   25.8121 C   0  0  0  0  0  0  0  0  0  0  0  0
    7.3582  -12.9559   24.8370 C   0  0  0  0  0  0  0  0  0  0  0  0
    7.1924  -14.3338   24.9236 C   0  0  0  0  0  0  0  0  0  0  0  0
    7.7077  -15.2478   23.8356 C   0  0  0  0  0  0  0  0  0  0  0  0
    9.1789  -15.4341   23.9926 C   0  0  2  0  0  0  0  0  0  0  0  0
    9.7839  -16.2786   22.9946 N   0  0  0  0  0  0  0  0  0  0  0  0
    9.5403  -15.9877   25.2966 C   0  0  0  0  0  0  0  0  0  0  0  0
    9.3741  -17.2714   25.4576 O   0  0  0  0  0  0  0  0  0  0  0  0
    6.5587  -14.8037   26.0461 C   0  0  0  0  0  0  0  0  0  0  0  0
    6.1091  -13.9393   27.0389 C   0  0  0  0  0  0  0  0  0  0  0  0
   10.0529  -15.3370   26.4372 N   0  0  0  0  0  0  0  0  0  0  0  0
   10.0853  -13.8702   26.5449 C   0  0  0  0  0  0  0  0  0  0  0  0
    9.8988  -13.6357   28.0200 C   0  0  0  0  0  0  0  0  0  0  0  0
   10.9179  -14.6580   28.5490 C   0  0  0  0  0  0  0  0  0  0  0  0
   10.6130  -15.8786   27.6283 C   0  0  1  0  0  0  0  0  0  0  0  0
    9.6979  -16.7749   28.3927 C   0  0  0  0  0  0  0  0  0  0  0  0
   10.1854  -17.4305   29.3463 O   0  0  0  0  0  0  0  0  0  0  0  0
    8.3563  -16.9229   28.1186 O   0  0  0  0  0  0  0  0  0  0  0  0
  1  2  1  0
  2  3  2  0
  4  5  1  0
  4  2  1  0
  5  6  1  6
  7  5  1  0
  7  8  2  0
  9 10  1  0
 10 11  2  0
 11 12  1  0
 13 12  2  0
 13 14  1  0
 15 14  1  6
 15 16  1  0
 16  7  1  0
 17 15  1  0
 18 17  2  0
 19 13  1  0
 20 10  1  0
 20 19  2  0
 21 22  1  0
 21 17  1  0
 23 22  1  0
 24 23  1  0
 24 25  1  0
 25 21  1  0
 25 26  1  1
 27 26  2  0
 28 26  1  0
M  END
$$$$
