NYP.pdb
     RDKit          3D

 28 29  0  0  1  0  0  0  0  0999 V2000
    5.3647  -22.3867   25.9610 N   0  0  0  0  0  0  0  0  0  0  0  0
    5.4208  -21.8650   24.6378 C   0  0  0  0  0  0  0  0  0  0  0  0
    5.7500  -22.6459   23.7086 O   0  0  0  0  0  0  0  0  0  0  0  0
    5.0881  -20.4387   24.4443 C   0  0  0  0  0  0  0  0  0  0  0  0
    6.3691  -19.6969   24.1205 C   0  0  2  0  0  0  0  0  0  0  0  0
    7.2325  -19.7782   25.2965 N   0  0  0  0  0  0  0  0  0  0  0  0
    6.1135  -18.2803   23.7543 C   0  0  0  0  0  0  0  0  0  0  0  0
    5.2839  -17.9213   22.9077 O   0  0  0  0  0  0  0  0  0  0  0  0
   11.2934  -15.2959   28.5801 O   0  0  0  0  0  0  0  0  0  0  0  0
   10.1600  -15.1939   27.7689 C   0  0  0  0  0  0  0  0  0  0  0  0
    9.8699  -14.0501   27.0601 C   0  0  0  0  0  0  0  0  0  0  0  0
    8.7390  -13.9995   26.2738 C   0  0  0  0  0  0  0  0  0  0  0  0
    7.8543  -15.0655   26.1545 C   0  0  0  0  0  0  0  0  0  0  0  0
    6.6358  -14.9677   25.2654 C   0  0  0  0  0  0  0  0  0  0  0  0
    6.8039  -15.8628   24.0845 C   0  0  2  0  0  0  0  0  0  0  0  0
    6.8535  -17.2671   24.4017 N   0  0  0  0  0  0  0  0  0  0  0  0
    8.0073  -15.5565   23.3128 C   0  0  0  0  0  0  0  0  0  0  0  0
    9.1104  -16.1456   23.6838 O   0  0  0  0  0  0  0  0  0  0  0  0
    8.1605  -16.1967   26.8680 C   0  0  0  0  0  0  0  0  0  0  0  0
    9.2979  -16.2633   27.6661 C   0  0  0  0  0  0  0  0  0  0  0  0
    8.1686  -14.7029   22.2026 N   0  0  0  0  0  0  0  0  0  0  0  0
    7.1582  -13.6952   21.8452 C   0  0  0  0  0  0  0  0  0  0  0  0
    7.9835  -12.5851   21.2518 C   0  0  0  0  0  0  0  0  0  0  0  0
    8.8693  -13.4267   20.3187 C   0  0  0  0  0  0  0  0  0  0  0  0
    9.2261  -14.6223   21.2534 C   0  0  1  0  0  0  0  0  0  0  0  0
   10.5649  -14.3242   21.8397 C   0  0  0  0  0  0  0  0  0  0  0  0
   10.6106  -13.9865   23.0483 O   0  0  0  0  0  0  0  0  0  0  0  0
   11.7483  -14.4003   21.1391 O   0  0  0  0  0  0  0  0  0  0  0  0
  1  2  1  0
  2  3  2  0
  4  5  1  0
  4  2  1  0
  5  6  1  1
  7  5  1  0
  7  8  2  0
  9 10  1  0
 10 11  2  0
 11 12  1  0
 13 12  2  0
 13 14  1  0
 15 14  1  1
 15 16  1  0
 16  7  1  0
 17 15  1  0
 18 17  2  0
 19 13  1  0
 20 10  1  0
 20 19  2  0
 21 22  1  0
 21 17  1  0
 23 22  1  0
 24 23  1  0
 24 25  1  0
 25 21  1  0
 25 26  1  1
 27 26  2  0
 28 26  1  0
M  END
$$$$
