NYP.pdb
     RDKit          3D

 28 29  0  0  1  0  0  0  0  0999 V2000
    7.3355  -20.0869   22.4334 N   0  0  0  0  0  0  0  0  0  0  0  0
    6.0170  -20.2772   22.9349 C   0  0  0  0  0  0  0  0  0  0  0  0
    5.2424  -21.0289   22.2894 O   0  0  0  0  0  0  0  0  0  0  0  0
    5.6461  -19.5778   24.1822 C   0  0  0  0  0  0  0  0  0  0  0  0
    6.8576  -18.8078   24.6675 C   0  0  2  0  0  0  0  0  0  0  0  0
    6.9280  -18.9693   26.1180 N   0  0  0  0  0  0  0  0  0  0  0  0
    6.7849  -17.3699   24.3027 C   0  0  0  0  0  0  0  0  0  0  0  0
    5.7812  -16.6627   24.4649 O   0  0  0  0  0  0  0  0  0  0  0  0
    8.1561  -14.0015   29.4838 O   0  0  0  0  0  0  0  0  0  0  0  0
    8.3606  -14.1283   28.1072 C   0  0  0  0  0  0  0  0  0  0  0  0
    7.6855  -13.3505   27.1940 C   0  0  0  0  0  0  0  0  0  0  0  0
    7.9227  -13.5143   25.8461 C   0  0  0  0  0  0  0  0  0  0  0  0
    8.8279  -14.4440   25.3465 C   0  0  0  0  0  0  0  0  0  0  0  0
    9.0663  -14.5744   23.8596 C   0  0  0  0  0  0  0  0  0  0  0  0
    7.9848  -15.4000   23.2491 C   0  0  2  0  0  0  0  0  0  0  0  0
    7.9216  -16.7549   23.7344 N   0  0  0  0  0  0  0  0  0  0  0  0
    8.0861  -15.4723   21.7924 C   0  0  0  0  0  0  0  0  0  0  0  0
    8.4200  -16.6253   21.2820 O   0  0  0  0  0  0  0  0  0  0  0  0
    9.4913  -15.2095   26.2720 C   0  0  0  0  0  0  0  0  0  0  0  0
    9.2627  -15.0563   27.6355 C   0  0  0  0  0  0  0  0  0  0  0  0
    7.8749  -14.4671   20.8270 N   0  0  0  0  0  0  0  0  0  0  0  0
    7.4032  -13.1234   21.1961 C   0  0  0  0  0  0  0  0  0  0  0  0
    8.0610  -12.2408   20.1694 C   0  0  0  0  0  0  0  0  0  0  0  0
    7.7302  -13.0604   18.9115 C   0  0  0  0  0  0  0  0  0  0  0  0
    8.0375  -14.5040   19.4134 C   0  0  1  0  0  0  0  0  0  0  0  0
    9.4187  -14.8327   18.9560 C   0  0  0  0  0  0  0  0  0  0  0  0
    9.5707  -15.1729   17.7568 O   0  0  0  0  0  0  0  0  0  0  0  0
   10.5320  -14.7823   19.7652 O   0  0  0  0  0  0  0  0  0  0  0  0
  1  2  1  0
  2  3  2  0
  4  5  1  0
  4  2  1  0
  5  6  1  1
  7  5  1  0
  7  8  2  0
  9 10  1  0
 10 11  2  0
 11 12  1  0
 13 12  2  0
 13 14  1  0
 15 14  1  1
 15 16  1  0
 16  7  1  0
 17 15  1  0
 18 17  2  0
 19 13  1  0
 20 10  1  0
 20 19  2  0
 21 22  1  0
 21 17  1  0
 23 22  1  0
 24 23  1  0
 24 25  1  0
 25 21  1  0
 25 26  1  1
 27 26  2  0
 28 26  1  0
M  END
$$$$
