HLV.pdb
     RDKit          3D

 26 26  0  0  1  0  0  0  0  0999 V2000
   24.9922  -20.0350  -16.4067 N   0  0  0  0  0  0  0  0  0  0  0  0
   24.5625  -19.2022  -15.3163 C   0  0  1  0  0  0  0  0  0  0  0  0
   23.3186  -18.4644  -15.7328 C   0  0  0  0  0  0  0  0  0  0  0  0
   23.6984  -17.4935  -16.7927 C   0  0  0  0  0  0  0  0  0  0  0  0
   24.3524  -16.2651  -16.6241 C   0  0  0  0  0  0  0  0  0  0  0  0
   24.5129  -15.6877  -17.8181 N   0  0  0  0  0  0  0  0  0  0  0  0
   23.9889  -16.4960  -18.7412 C   0  0  0  0  0  0  0  0  0  0  0  0
   23.4974  -17.5862  -18.1196 N   0  0  0  0  0  0  0  0  0  0  0  0
   24.3783  -19.9804  -14.0803 C   0  0  0  0  0  0  0  0  0  0  0  0
   23.6073  -20.9674  -14.0188 O   0  0  0  0  0  0  0  0  0  0  0  0
   25.6917  -21.8476   -9.2125 C   0  0  0  0  0  0  0  0  0  0  0  0
   25.2504  -20.3856   -9.2221 C   0  0  1  0  0  0  0  0  0  0  0  0
   26.1677  -19.7113   -8.1664 C   0  0  0  0  0  0  0  0  0  0  0  0
   25.6705  -19.8181  -10.5469 C   0  0  0  0  0  0  0  0  0  0  0  0
   24.7695  -20.2884  -11.6300 C   0  0  2  0  0  0  0  0  0  0  0  0
   25.0783  -19.6320  -12.9032 N   0  0  0  0  0  0  0  0  0  0  0  0
   23.3481  -20.0947  -11.2898 C   0  0  0  0  0  0  0  0  0  0  0  0
   22.8105  -18.9750  -11.2722 O   0  0  0  0  0  0  0  0  0  0  0  0
   20.4934  -22.9171  -12.1558 C   0  0  0  0  0  0  0  0  0  0  0  0
   20.1882  -21.4877  -11.7411 C   0  0  1  0  0  0  0  0  0  0  0  0
   18.7368  -21.3178  -11.3964 C   0  0  0  0  0  0  0  0  0  0  0  0
   21.1100  -21.0621  -10.6125 C   0  0  2  0  0  0  0  0  0  0  0  0
   22.4967  -21.2066  -10.9555 N   0  0  0  0  0  0  0  0  0  0  0  0
   20.8456  -21.9471   -9.4400 C   0  0  0  0  0  0  0  0  0  0  0  0
   19.7589  -21.8275   -8.6124 O   0  0  0  0  0  0  0  0  0  0  0  0
   21.6811  -22.8674   -9.1963 O   0  0  0  0  0  0  0  0  0  0  0  0
  2  1  1  6
  3  2  1  0
  4  8  1  0
  4  3  1  0
  5  4  2  0
  6  5  1  0
  6  7  1  0
  7  8  2  0
  9 10  2  0
  9  2  1  0
 12 11  1  6
 12 14  1  0
 12 13  1  0
 15 16  1  0
 15 14  1  1
 16  9  1  0
 17 15  1  0
 18 17  2  0
 20 19  1  1
 20 22  1  0
 20 21  1  0
 22 23  1  6
 23 17  1  0
 24 25  1  0
 24 22  1  0
 26 24  2  0
M  END
$$$$
