HLV.pdb
     RDKit          3D

 26 26  0  0  1  0  0  0  0  0999 V2000
   27.9336  -19.9948  -16.3772 N   0  0  0  0  0  0  0  0  0  0  0  0
   27.0503  -19.2069  -15.5610 C   0  0  1  0  0  0  0  0  0  0  0  0
   26.3287  -18.2221  -16.4412 C   0  0  0  0  0  0  0  0  0  0  0  0
   27.2915  -17.1516  -16.8112 C   0  0  0  0  0  0  0  0  0  0  0  0
   27.9082  -16.9569  -18.0550 C   0  0  0  0  0  0  0  0  0  0  0  0
   28.7057  -15.8874  -17.9850 N   0  0  0  0  0  0  0  0  0  0  0  0
   28.6238  -15.3916  -16.7492 C   0  0  0  0  0  0  0  0  0  0  0  0
   27.7690  -16.1567  -16.0418 N   0  0  0  0  0  0  0  0  0  0  0  0
   26.1335  -20.0545  -14.7808 C   0  0  0  0  0  0  0  0  0  0  0  0
   25.6832  -21.1378  -15.2231 O   0  0  0  0  0  0  0  0  0  0  0  0
   26.2376  -20.5616   -9.2812 C   0  0  0  0  0  0  0  0  0  0  0  0
   26.2286  -20.7291  -10.7991 C   0  0  1  0  0  0  0  0  0  0  0  0
   26.2317  -22.2679  -11.0054 C   0  0  0  0  0  0  0  0  0  0  0  0
   24.8854  -20.2582  -11.2760 C   0  0  0  0  0  0  0  0  0  0  0  0
   24.7464  -20.4615  -12.7408 C   0  0  2  0  0  0  0  0  0  0  0  0
   25.7258  -19.6652  -13.4850 N   0  0  0  0  0  0  0  0  0  0  0  0
   23.3826  -20.1612  -13.2135 C   0  0  0  0  0  0  0  0  0  0  0  0
   22.9461  -19.0019  -13.3060 O   0  0  0  0  0  0  0  0  0  0  0  0
   21.8311  -20.6621  -16.4779 C   0  0  0  0  0  0  0  0  0  0  0  0
   20.9673  -21.4649  -15.5199 C   0  0  1  0  0  0  0  0  0  0  0  0
   21.2347  -22.9369  -15.6472 C   0  0  0  0  0  0  0  0  0  0  0  0
   21.1508  -20.9589  -14.1005 C   0  0  2  0  0  0  0  0  0  0  0  0
   22.4724  -21.2086  -13.5979 N   0  0  0  0  0  0  0  0  0  0  0  0
   20.1930  -21.6911  -13.2204 C   0  0  0  0  0  0  0  0  0  0  0  0
   18.8503  -21.4225  -13.1497 O   0  0  0  0  0  0  0  0  0  0  0  0
   20.6534  -22.6202  -12.4931 O   0  0  0  0  0  0  0  0  0  0  0  0
  2  1  1  6
  3  2  1  0
  4  8  1  0
  4  3  1  0
  5  4  2  0
  6  5  1  0
  6  7  1  0
  7  8  2  0
  9 10  2  0
  9  2  1  0
 12 11  1  1
 12 14  1  0
 12 13  1  0
 15 16  1  0
 15 14  1  1
 16  9  1  0
 17 15  1  0
 18 17  2  0
 20 19  1  6
 20 22  1  0
 20 21  1  0
 22 23  1  1
 23 17  1  0
 24 25  1  0
 24 22  1  0
 26 24  2  0
M  END
$$$$
