HLV.pdb
     RDKit          3D

 26 26  0  0  1  0  0  0  0  0999 V2000
   22.0017  -20.5535  -14.2450 N   0  0  0  0  0  0  0  0  0  0  0  0
   21.3435  -20.0142  -13.0860 C   0  0  1  0  0  0  0  0  0  0  0  0
   19.8947  -19.7788  -13.4188 C   0  0  0  0  0  0  0  0  0  0  0  0
   19.8180  -18.5826  -14.2981 C   0  0  0  0  0  0  0  0  0  0  0  0
   20.8724  -17.7431  -14.6836 C   0  0  0  0  0  0  0  0  0  0  0  0
   20.3965  -16.7798  -15.4775 N   0  0  0  0  0  0  0  0  0  0  0  0
   19.0831  -16.9694  -15.6148 C   0  0  0  0  0  0  0  0  0  0  0  0
   18.7357  -18.0589  -14.9015 N   0  0  0  0  0  0  0  0  0  0  0  0
   21.5261  -20.8785  -11.9082 C   0  0  0  0  0  0  0  0  0  0  0  0
   21.5147  -22.1298  -11.9875 O   0  0  0  0  0  0  0  0  0  0  0  0
   23.8528  -22.7849   -7.8611 C   0  0  0  0  0  0  0  0  0  0  0  0
   23.1600  -21.5179   -7.3642 C   0  0  1  0  0  0  0  0  0  0  0  0
   24.2370  -20.8216   -6.4891 C   0  0  0  0  0  0  0  0  0  0  0  0
   22.9742  -20.6314   -8.5614 C   0  0  0  0  0  0  0  0  0  0  0  0
   21.9183  -21.1706   -9.4562 C   0  0  2  0  0  0  0  0  0  0  0  0
   21.7236  -20.3131  -10.6283 N   0  0  0  0  0  0  0  0  0  0  0  0
   20.6392  -21.3627   -8.7487 C   0  0  0  0  0  0  0  0  0  0  0  0
   19.8948  -20.4165   -8.4426 O   0  0  0  0  0  0  0  0  0  0  0  0
   17.7091  -23.0805   -9.9695 C   0  0  0  0  0  0  0  0  0  0  0  0
   18.0126  -23.7904   -8.6610 C   0  0  1  0  0  0  0  0  0  0  0  0
   18.6057  -25.1486   -8.9020 C   0  0  0  0  0  0  0  0  0  0  0  0
   18.8912  -22.9172   -7.7834 C   0  0  2  0  0  0  0  0  0  0  0  0
   20.1789  -22.6733   -8.3699 N   0  0  0  0  0  0  0  0  0  0  0  0
   19.1168  -23.6348   -6.4941 C   0  0  0  0  0  0  0  0  0  0  0  0
   20.3201  -24.1662   -6.1071 O   0  0  0  0  0  0  0  0  0  0  0  0
   18.1309  -23.7592   -5.7088 O   0  0  0  0  0  0  0  0  0  0  0  0
  2  1  1  6
  3  2  1  0
  4  8  1  0
  4  3  1  0
  5  4  2  0
  6  5  1  0
  6  7  1  0
  7  8  2  0
  9 10  2  0
  9  2  1  0
 12 11  1  6
 12 14  1  0
 12 13  1  0
 15 16  1  0
 15 14  1  1
 16  9  1  0
 17 15  1  0
 18 17  2  0
 20 19  1  6
 20 22  1  0
 20 21  1  0
 22 23  1  6
 23 17  1  0
 24 25  1  0
 24 22  1  0
 26 24  2  0
M  END
$$$$
