HLV.pdb
     RDKit          3D

 26 26  0  0  1  0  0  0  0  0999 V2000
   27.8171  -21.4817  -15.9383 N   0  0  0  0  0  0  0  0  0  0  0  0
   27.0024  -20.4295  -15.3940 C   0  0  1  0  0  0  0  0  0  0  0  0
   26.4844  -19.5843  -16.5265 C   0  0  0  0  0  0  0  0  0  0  0  0
   27.6329  -18.8297  -17.0935 C   0  0  0  0  0  0  0  0  0  0  0  0
   28.9307  -18.7395  -16.5713 C   0  0  0  0  0  0  0  0  0  0  0  0
   29.6713  -17.9674  -17.3713 N   0  0  0  0  0  0  0  0  0  0  0  0
   28.9008  -17.5611  -18.3818 C   0  0  0  0  0  0  0  0  0  0  0  0
   27.6698  -18.0831  -18.2120 N   0  0  0  0  0  0  0  0  0  0  0  0
   25.9273  -20.9630  -14.5412 C   0  0  0  0  0  0  0  0  0  0  0  0
   25.2637  -21.9789  -14.8571 O   0  0  0  0  0  0  0  0  0  0  0  0
   26.0239  -20.2144   -9.1318 C   0  0  0  0  0  0  0  0  0  0  0  0
   25.9598  -20.7484  -10.5611 C   0  0  1  0  0  0  0  0  0  0  0  0
   25.9414  -22.2907  -10.3835 C   0  0  0  0  0  0  0  0  0  0  0  0
   24.6051  -20.3849  -11.0958 C   0  0  0  0  0  0  0  0  0  0  0  0
   24.4709  -20.8012  -12.5154 C   0  0  2  0  0  0  0  0  0  0  0  0
   25.6048  -20.3344  -13.3174 N   0  0  0  0  0  0  0  0  0  0  0  0
   23.2033  -20.3386  -13.1095 C   0  0  0  0  0  0  0  0  0  0  0  0
   22.9901  -19.1470  -13.3883 O   0  0  0  0  0  0  0  0  0  0  0  0
   21.5936  -21.0561  -16.3454 C   0  0  0  0  0  0  0  0  0  0  0  0
   20.5963  -21.5224  -15.2983 C   0  0  1  0  0  0  0  0  0  0  0  0
   20.5783  -23.0199  -15.1907 C   0  0  0  0  0  0  0  0  0  0  0  0
   20.8778  -20.8451  -13.9692 C   0  0  2  0  0  0  0  0  0  0  0  0
   22.1316  -21.2546  -13.4019 N   0  0  0  0  0  0  0  0  0  0  0  0
   19.8039  -21.2411  -13.0110 C   0  0  0  0  0  0  0  0  0  0  0  0
   18.5141  -20.7789  -13.0636 O   0  0  0  0  0  0  0  0  0  0  0  0
   20.1069  -22.0571  -12.0910 O   0  0  0  0  0  0  0  0  0  0  0  0
  2  1  1  6
  3  2  1  0
  4  8  1  0
  4  3  1  0
  5  4  2  0
  6  5  1  0
  6  7  1  0
  7  8  2  0
  9 10  2  0
  9  2  1  0
 12 11  1  1
 12 14  1  0
 12 13  1  0
 15 16  1  0
 15 14  1  1
 16  9  1  0
 17 15  1  0
 18 17  2  0
 20 19  1  6
 20 22  1  0
 20 21  1  0
 22 23  1  1
 23 17  1  0
 24 25  1  0
 24 22  1  0
 26 24  2  0
M  END
$$$$
