HLV.pdb
     RDKit          3D

 26 26  0  0  1  0  0  0  0  0999 V2000
   27.7618  -21.4925  -15.9033 N   0  0  0  0  0  0  0  0  0  0  0  0
   26.8928  -20.4448  -15.4404 C   0  0  1  0  0  0  0  0  0  0  0  0
   26.3234  -19.7264  -16.6340 C   0  0  0  0  0  0  0  0  0  0  0  0
   27.3432  -18.7550  -17.1099 C   0  0  0  0  0  0  0  0  0  0  0  0
   28.6980  -18.7031  -16.7534 C   0  0  0  0  0  0  0  0  0  0  0  0
   29.2800  -17.6855  -17.3939 N   0  0  0  0  0  0  0  0  0  0  0  0
   28.3538  -17.0859  -18.1440 C   0  0  0  0  0  0  0  0  0  0  0  0
   27.1846  -17.7336  -17.9708 N   0  0  0  0  0  0  0  0  0  0  0  0
   25.8530  -20.9634  -14.5362 C   0  0  0  0  0  0  0  0  0  0  0  0
   25.1491  -21.9596  -14.8265 O   0  0  0  0  0  0  0  0  0  0  0  0
   26.0558  -20.0687   -9.0511 C   0  0  0  0  0  0  0  0  0  0  0  0
   26.0022  -20.6707  -10.4537 C   0  0  1  0  0  0  0  0  0  0  0  0
   25.9119  -22.1999  -10.2009 C   0  0  0  0  0  0  0  0  0  0  0  0
   24.6778  -20.2771  -11.0405 C   0  0  0  0  0  0  0  0  0  0  0  0
   24.5328  -20.8131  -12.4182 C   0  0  2  0  0  0  0  0  0  0  0  0
   25.6124  -20.3424  -13.2899 N   0  0  0  0  0  0  0  0  0  0  0  0
   23.2226  -20.4793  -13.0061 C   0  0  0  0  0  0  0  0  0  0  0  0
   22.9319  -19.3330  -13.3863 O   0  0  0  0  0  0  0  0  0  0  0  0
   20.7825  -23.6303  -14.4034 C   0  0  0  0  0  0  0  0  0  0  0  0
   20.6417  -22.2100  -14.9242 C   0  0  1  0  0  0  0  0  0  0  0  0
   19.2948  -21.9893  -15.5499 C   0  0  0  0  0  0  0  0  0  0  0  0
   20.9414  -21.2148  -13.8177 C   0  0  2  0  0  0  0  0  0  0  0  0
   22.1973  -21.4763  -13.1729 N   0  0  0  0  0  0  0  0  0  0  0  0
   19.8737  -21.3386  -12.7819 C   0  0  0  0  0  0  0  0  0  0  0  0
   18.6544  -20.7155  -12.8524 O   0  0  0  0  0  0  0  0  0  0  0  0
   20.1126  -22.0672  -11.7738 O   0  0  0  0  0  0  0  0  0  0  0  0
  2  1  1  6
  3  2  1  0
  4  8  1  0
  4  3  1  0
  5  4  2  0
  6  5  1  0
  6  7  1  0
  7  8  2  0
  9 10  2  0
  9  2  1  0
 12 11  1  1
 12 14  1  0
 12 13  1  0
 15 16  1  0
 15 14  1  1
 16  9  1  0
 17 15  1  0
 18 17  2  0
 20 19  1  1
 20 22  1  0
 20 21  1  0
 22 23  1  1
 23 17  1  0
 24 25  1  0
 24 22  1  0
 26 24  2  0
M  END
$$$$
