HLV.pdb
     RDKit          3D

 26 26  0  0  1  0  0  0  0  0999 V2000
   26.2769  -22.1101  -20.0226 N   0  0  0  0  0  0  0  0  0  0  0  0
   25.1977  -21.6550  -19.1889 C   0  0  1  0  0  0  0  0  0  0  0  0
   24.2063  -22.7758  -19.0270 C   0  0  0  0  0  0  0  0  0  0  0  0
   23.3854  -22.8397  -20.2648 C   0  0  0  0  0  0  0  0  0  0  0  0
   22.8657  -23.9868  -20.8806 C   0  0  0  0  0  0  0  0  0  0  0  0
   22.1842  -23.6266  -21.9718 N   0  0  0  0  0  0  0  0  0  0  0  0
   22.2473  -22.2982  -22.0780 C   0  0  0  0  0  0  0  0  0  0  0  0
   22.9733  -21.8249  -21.0458 N   0  0  0  0  0  0  0  0  0  0  0  0
   25.6892  -21.1367  -17.9015 C   0  0  0  0  0  0  0  0  0  0  0  0
   26.4708  -21.7904  -17.1708 O   0  0  0  0  0  0  0  0  0  0  0  0
   27.6785  -17.5064  -14.9194 C   0  0  0  0  0  0  0  0  0  0  0  0
   26.1656  -17.4055  -14.7369 C   0  0  1  0  0  0  0  0  0  0  0  0
   25.8930  -15.8772  -14.7135 C   0  0  0  0  0  0  0  0  0  0  0  0
   25.5444  -17.9095  -16.0071 C   0  0  0  0  0  0  0  0  0  0  0  0
   25.6991  -19.3825  -16.1199 C   0  0  2  0  0  0  0  0  0  0  0  0
   25.2874  -19.8623  -17.4417 N   0  0  0  0  0  0  0  0  0  0  0  0
   24.9577  -20.0984  -15.0656 C   0  0  0  0  0  0  0  0  0  0  0  0
   23.7791  -20.4647  -15.2069 O   0  0  0  0  0  0  0  0  0  0  0  0
   26.3574  -19.9344  -11.0735 C   0  0  0  0  0  0  0  0  0  0  0  0
   25.7386  -21.2547  -11.5001 C   0  0  1  0  0  0  0  0  0  0  0  0
   25.0022  -21.9043  -10.3643 C   0  0  0  0  0  0  0  0  0  0  0  0
   24.8628  -21.0513  -12.7232 C   0  0  2  0  0  0  0  0  0  0  0  0
   25.5675  -20.4150  -13.8003 N   0  0  0  0  0  0  0  0  0  0  0  0
   23.7319  -20.1557  -12.3393 C   0  0  0  0  0  0  0  0  0  0  0  0
   22.6039  -20.5756  -11.6826 O   0  0  0  0  0  0  0  0  0  0  0  0
   23.8234  -18.9290  -12.6409 O   0  0  0  0  0  0  0  0  0  0  0  0
  2  1  1  6
  3  2  1  0
  4  8  1  0
  4  3  1  0
  5  4  2  0
  6  5  1  0
  6  7  1  0
  7  8  2  0
  9 10  2  0
  9  2  1  0
 12 11  1  6
 12 14  1  0
 12 13  1  0
 15 16  1  0
 15 14  1  6
 16  9  1  0
 17 15  1  0
 18 17  2  0
 20 19  1  1
 20 22  1  0
 20 21  1  0
 22 23  1  6
 23 17  1  0
 24 25  1  0
 24 22  1  0
 26 24  2  0
M  END
$$$$
