HLV.pdb
     RDKit          3D

 26 26  0  0  1  0  0  0  0  0999 V2000
   28.1069  -21.1140  -16.2006 N   0  0  0  0  0  0  0  0  0  0  0  0
   27.2058  -20.0922  -15.7412 C   0  0  1  0  0  0  0  0  0  0  0  0
   26.7577  -19.2758  -16.9235 C   0  0  0  0  0  0  0  0  0  0  0  0
   27.9365  -18.5263  -17.4322 C   0  0  0  0  0  0  0  0  0  0  0  0
   28.8843  -18.9668  -18.3665 C   0  0  0  0  0  0  0  0  0  0  0  0
   29.7885  -18.0025  -18.5599 N   0  0  0  0  0  0  0  0  0  0  0  0
   29.4576  -16.9655  -17.7885 C   0  0  0  0  0  0  0  0  0  0  0  0
   28.3386  -17.2841  -17.1081 N   0  0  0  0  0  0  0  0  0  0  0  0
   26.0810  -20.6634  -14.9821 C   0  0  0  0  0  0  0  0  0  0  0  0
   25.4764  -21.6962  -15.3561 O   0  0  0  0  0  0  0  0  0  0  0  0
   26.0107  -20.4347   -9.5230 C   0  0  0  0  0  0  0  0  0  0  0  0
   25.9769  -20.8376  -10.9957 C   0  0  1  0  0  0  0  0  0  0  0  0
   25.8151  -22.3812  -10.9573 C   0  0  0  0  0  0  0  0  0  0  0  0
   24.6894  -20.3081  -11.5572 C   0  0  0  0  0  0  0  0  0  0  0  0
   24.5619  -20.6531  -12.9963 C   0  0  2  0  0  0  0  0  0  0  0  0
   25.6405  -20.0532  -13.7861 N   0  0  0  0  0  0  0  0  0  0  0  0
   23.2510  -20.2602  -13.5448 C   0  0  0  0  0  0  0  0  0  0  0  0
   22.9423  -19.0760  -13.7581 O   0  0  0  0  0  0  0  0  0  0  0  0
   21.5377  -21.2805  -16.7707 C   0  0  0  0  0  0  0  0  0  0  0  0
   20.6048  -21.6761  -15.6387 C   0  0  1  0  0  0  0  0  0  0  0  0
   20.6114  -23.1615  -15.4202 C   0  0  0  0  0  0  0  0  0  0  0  0
   20.9497  -20.8995  -14.3808 C   0  0  2  0  0  0  0  0  0  0  0  0
   22.2462  -21.2400  -13.8665 N   0  0  0  0  0  0  0  0  0  0  0  0
   19.9475  -21.2492  -13.3312 C   0  0  0  0  0  0  0  0  0  0  0  0
   18.6496  -20.8071  -13.3259 O   0  0  0  0  0  0  0  0  0  0  0  0
   20.3234  -22.0035  -12.3857 O   0  0  0  0  0  0  0  0  0  0  0  0
  2  1  1  6
  3  2  1  0
  4  8  1  0
  4  3  1  0
  5  4  2  0
  6  5  1  0
  6  7  1  0
  7  8  2  0
  9 10  2  0
  9  2  1  0
 12 11  1  1
 12 14  1  0
 12 13  1  0
 15 16  1  0
 15 14  1  1
 16  9  1  0
 17 15  1  0
 18 17  2  0
 20 19  1  6
 20 22  1  0
 20 21  1  0
 22 23  1  1
 23 17  1  0
 24 25  1  0
 24 22  1  0
 26 24  2  0
M  END
$$$$
