TSW.pdb
     RDKit          3D

 28 29  0  0  1  0  0  0  0  0999 V2000
    7.6573  -12.6140   20.1912 C   0  0  0  0  0  0  0  0  0  0  0  0
    8.3558  -13.0529   18.9415 C   0  0  1  0  0  0  0  0  0  0  0  0
    9.7306  -13.0153   19.0586 O   0  0  0  0  0  0  0  0  0  0  0  0
    7.8597  -14.4695   18.6227 C   0  0  2  0  0  0  0  0  0  0  0  0
    6.4152  -14.3414   18.4641 N   0  0  0  0  0  0  0  0  0  0  0  0
    8.1560  -15.3683   19.7563 C   0  0  0  0  0  0  0  0  0  0  0  0
    7.4148  -15.3656   20.7751 O   0  0  0  0  0  0  0  0  0  0  0  0
   11.8452  -17.3454   20.1964 O   0  0  0  0  0  0  0  0  0  0  0  0
   10.7155  -18.0747   20.5084 C   0  0  0  0  0  0  0  0  0  0  0  0
    9.6046  -17.0708   20.8443 C   0  0  2  0  0  0  0  0  0  0  0  0
    9.2816  -16.2508   19.7166 N   0  0  0  0  0  0  0  0  0  0  0  0
   10.1575  -16.2105   21.9211 C   0  0  0  0  0  0  0  0  0  0  0  0
   10.3933  -15.0129   21.6611 O   0  0  0  0  0  0  0  0  0  0  0  0
   10.3810  -16.8162   23.1809 N   0  0  0  0  0  0  0  0  0  0  0  0
   10.1437  -16.0415   24.3757 C   0  0  1  0  0  0  0  0  0  0  0  0
    8.7220  -15.5426   24.3494 C   0  0  0  0  0  0  0  0  0  0  0  0
    8.4311  -14.8335   25.6246 C   0  0  0  0  0  0  0  0  0  0  0  0
    8.7441  -15.2639   26.8956 C   0  0  0  0  0  0  0  0  0  0  0  0
    8.2896  -14.3155   27.7261 N   0  0  0  0  0  0  0  0  0  0  0  0
    7.7085  -13.3127   27.0499 C   0  0  0  0  0  0  0  0  0  0  0  0
    7.0998  -12.1299   27.4471 C   0  0  0  0  0  0  0  0  0  0  0  0
    6.5722  -11.2557   26.5406 C   0  0  0  0  0  0  0  0  0  0  0  0
    6.6563  -11.5753   25.1953 C   0  0  0  0  0  0  0  0  0  0  0  0
    7.2517  -12.7366   24.7718 C   0  0  0  0  0  0  0  0  0  0  0  0
    7.7820  -13.6132   25.6979 C   0  0  0  0  0  0  0  0  0  0  0  0
   10.3444  -16.9131   25.5568 C   0  0  0  0  0  0  0  0  0  0  0  0
    9.9495  -18.2612   25.5460 O   0  0  0  0  0  0  0  0  0  0  0  0
   10.8696  -16.5029   26.6173 O   0  0  0  0  0  0  0  0  0  0  0  0
  2  3  1  0
  2  1  1  1
  4  5  1  1
  4  2  1  0
  6  4  1  0
  7  6  2  0
  9  8  1  0
 10  9  1  6
 10 11  1  0
 11  6  1  0
 12 10  1  0
 12 14  1  0
 13 12  2  0
 15 14  1  0
 15 26  1  0
 15 16  1  6
 17 16  1  0
 17 18  2  0
 19 18  1  0
 20 25  2  0
 20 19  1  0
 21 20  1  0
 22 23  1  0
 22 21  2  0
 23 24  2  0
 24 25  1  0
 25 17  1  0
 26 27  1  0
 28 26  2  0
M  END
$$$$
