TSW.pdb
     RDKit          3D

 28 29  0  0  1  0  0  0  0  0999 V2000
    8.9770  -12.5813   18.1737 C   0  0  0  0  0  0  0  0  0  0  0  0
    8.9514  -13.3345   19.4676 C   0  0  1  0  0  0  0  0  0  0  0  0
    8.6798  -12.5233   20.5508 O   0  0  0  0  0  0  0  0  0  0  0  0
    7.9012  -14.4438   19.3219 C   0  0  2  0  0  0  0  0  0  0  0  0
    6.6420  -13.7479   19.0810 N   0  0  0  0  0  0  0  0  0  0  0  0
    7.8101  -15.2122   20.5796 C   0  0  0  0  0  0  0  0  0  0  0  0
    6.9010  -14.9542   21.4130 O   0  0  0  0  0  0  0  0  0  0  0  0
   10.4894  -18.2742   21.3601 O   0  0  0  0  0  0  0  0  0  0  0  0
    9.2010  -18.4710   21.8146 C   0  0  0  0  0  0  0  0  0  0  0  0
    8.5761  -17.0852   22.0239 C   0  0  2  0  0  0  0  0  0  0  0  0
    8.7457  -16.2550   20.8704 N   0  0  0  0  0  0  0  0  0  0  0  0
    9.3152  -16.4827   23.1622 C   0  0  0  0  0  0  0  0  0  0  0  0
   10.2046  -15.6431   22.9141 O   0  0  0  0  0  0  0  0  0  0  0  0
    8.9553  -16.9082   24.4635 N   0  0  0  0  0  0  0  0  0  0  0  0
    9.7552  -16.4714   25.5830 C   0  0  1  0  0  0  0  0  0  0  0  0
    8.8679  -16.3725   26.7970 C   0  0  0  0  0  0  0  0  0  0  0  0
    7.7179  -15.4805   26.4884 C   0  0  0  0  0  0  0  0  0  0  0  0
    6.4826  -15.8647   26.0139 C   0  0  0  0  0  0  0  0  0  0  0  0
    5.7742  -14.7351   25.8790 N   0  0  0  0  0  0  0  0  0  0  0  0
    6.4937  -13.6620   26.2417 C   0  0  0  0  0  0  0  0  0  0  0  0
    6.2137  -12.3028   26.2807 C   0  0  0  0  0  0  0  0  0  0  0  0
    7.1406  -11.3919   26.6995 C   0  0  0  0  0  0  0  0  0  0  0  0
    8.3857  -11.8556   27.0913 C   0  0  0  0  0  0  0  0  0  0  0  0
    8.6922  -13.1927   27.0639 C   0  0  0  0  0  0  0  0  0  0  0  0
    7.7467  -14.1048   26.6384 C   0  0  0  0  0  0  0  0  0  0  0  0
   10.8221  -17.4704   25.8254 C   0  0  0  0  0  0  0  0  0  0  0  0
   11.8435  -17.2367   26.7610 O   0  0  0  0  0  0  0  0  0  0  0  0
   10.8733  -18.5645   25.2178 O   0  0  0  0  0  0  0  0  0  0  0  0
  2  3  1  0
  2  1  1  6
  4  5  1  1
  4  2  1  0
  6  4  1  0
  7  6  2  0
  9  8  1  0
 10  9  1  6
 10 11  1  0
 11  6  1  0
 12 10  1  0
 12 14  1  0
 13 12  2  0
 15 14  1  0
 15 26  1  0
 15 16  1  1
 17 16  1  0
 17 18  2  0
 19 18  1  0
 20 25  2  0
 20 19  1  0
 21 20  1  0
 22 23  1  0
 22 21  2  0
 23 24  2  0
 24 25  1  0
 25 17  1  0
 26 27  1  0
 28 26  2  0
M  END
$$$$
