TSW.pdb
     RDKit          3D

 28 29  0  0  1  0  0  0  0  0999 V2000
    9.6327  -12.8307   20.0006 C   0  0  0  0  0  0  0  0  0  0  0  0
    8.4227  -13.0605   19.1489 C   0  0  1  0  0  0  0  0  0  0  0  0
    8.4130  -12.2745   18.0143 O   0  0  0  0  0  0  0  0  0  0  0  0
    8.3980  -14.5535   18.7958 C   0  0  2  0  0  0  0  0  0  0  0  0
    7.1598  -14.7488   18.0495 N   0  0  0  0  0  0  0  0  0  0  0  0
    8.3628  -15.3581   20.0336 C   0  0  0  0  0  0  0  0  0  0  0  0
    7.3116  -15.4053   20.7266 O   0  0  0  0  0  0  0  0  0  0  0  0
   11.5818  -17.7057   20.9515 O   0  0  0  0  0  0  0  0  0  0  0  0
   10.3665  -18.1982   21.3828 C   0  0  0  0  0  0  0  0  0  0  0  0
    9.4293  -16.9975   21.5684 C   0  0  2  0  0  0  0  0  0  0  0  0
    9.5135  -16.0920   20.4632 N   0  0  0  0  0  0  0  0  0  0  0  0
    9.9056  -16.3060   22.7933 C   0  0  0  0  0  0  0  0  0  0  0  0
   10.6426  -15.3075   22.6621 O   0  0  0  0  0  0  0  0  0  0  0  0
    9.4857  -16.8343   24.0377 N   0  0  0  0  0  0  0  0  0  0  0  0
   10.1567  -16.3982   25.2391 C   0  0  1  0  0  0  0  0  0  0  0  0
    9.7975  -14.9570   25.4931 C   0  0  0  0  0  0  0  0  0  0  0  0
    8.3330  -14.8553   25.7345 C   0  0  0  0  0  0  0  0  0  0  0  0
    7.4105  -15.8746   25.6396 C   0  0  0  0  0  0  0  0  0  0  0  0
    6.2248  -15.3246   25.9353 N   0  0  0  0  0  0  0  0  0  0  0  0
    6.3488  -14.0172   26.2110 C   0  0  0  0  0  0  0  0  0  0  0  0
    5.4359  -13.0328   26.5642 C   0  0  0  0  0  0  0  0  0  0  0  0
    5.8248  -11.7448   26.7966 C   0  0  0  0  0  0  0  0  0  0  0  0
    7.1686  -11.4325   26.6715 C   0  0  0  0  0  0  0  0  0  0  0  0
    8.0946  -12.3834   26.3239 C   0  0  0  0  0  0  0  0  0  0  0  0
    7.6895  -13.6830   26.0913 C   0  0  0  0  0  0  0  0  0  0  0  0
    9.6963  -17.2339   26.3725 C   0  0  0  0  0  0  0  0  0  0  0  0
   10.1376  -16.9938   27.6843 O   0  0  0  0  0  0  0  0  0  0  0  0
    8.8990  -18.1889   26.2271 O   0  0  0  0  0  0  0  0  0  0  0  0
  2  3  1  0
  2  1  1  6
  4  5  1  6
  4  2  1  0
  6  4  1  0
  7  6  2  0
  9  8  1  0
 10  9  1  6
 10 11  1  0
 11  6  1  0
 12 10  1  0
 12 14  1  0
 13 12  2  0
 15 14  1  0
 15 26  1  0
 15 16  1  1
 17 16  1  0
 17 18  2  0
 19 18  1  0
 20 25  2  0
 20 19  1  0
 21 20  1  0
 22 23  1  0
 22 21  2  0
 23 24  2  0
 24 25  1  0
 25 17  1  0
 26 27  1  0
 28 26  2  0
M  END
$$$$
