TSW.pdb
     RDKit          3D

 28 29  0  0  1  0  0  0  0  0999 V2000
    7.6795  -12.4851   18.4517 C   0  0  0  0  0  0  0  0  0  0  0  0
    7.5112  -13.6355   19.3953 C   0  0  1  0  0  0  0  0  0  0  0  0
    7.3583  -14.8419   18.7422 O   0  0  0  0  0  0  0  0  0  0  0  0
    8.7405  -13.6480   20.3134 C   0  0  2  0  0  0  0  0  0  0  0  0
    9.8714  -13.9217   19.4334 N   0  0  0  0  0  0  0  0  0  0  0  0
    8.6106  -14.7338   21.3057 C   0  0  0  0  0  0  0  0  0  0  0  0
    7.6687  -14.7156   22.1424 O   0  0  0  0  0  0  0  0  0  0  0  0
   11.4583  -17.6751   21.4690 O   0  0  0  0  0  0  0  0  0  0  0  0
   10.2145  -18.1111   21.8791 C   0  0  0  0  0  0  0  0  0  0  0  0
    9.4115  -16.8705   22.2925 C   0  0  2  0  0  0  0  0  0  0  0  0
    9.5453  -15.8168   21.3332 N   0  0  0  0  0  0  0  0  0  0  0  0
   10.0012  -16.4253   23.5806 C   0  0  0  0  0  0  0  0  0  0  0  0
   10.9246  -15.5862   23.5516 O   0  0  0  0  0  0  0  0  0  0  0  0
    9.4689  -16.9905   24.7642 N   0  0  0  0  0  0  0  0  0  0  0  0
   10.1326  -16.7275   26.0189 C   0  0  1  0  0  0  0  0  0  0  0  0
    9.8632  -15.2984   26.4138 C   0  0  0  0  0  0  0  0  0  0  0  0
    8.3964  -15.0520   26.3797 C   0  0  0  0  0  0  0  0  0  0  0  0
    7.4129  -15.9759   26.1004 C   0  0  0  0  0  0  0  0  0  0  0  0
    6.2523  -15.3105   26.1779 N   0  0  0  0  0  0  0  0  0  0  0  0
    6.4495  -14.0205   26.4902 C   0  0  0  0  0  0  0  0  0  0  0  0
    5.5872  -12.9494   26.6811 C   0  0  0  0  0  0  0  0  0  0  0  0
    6.0497  -11.7049   26.9999 C   0  0  0  0  0  0  0  0  0  0  0  0
    7.4171  -11.5270   27.1316 C   0  0  0  0  0  0  0  0  0  0  0  0
    8.2945  -12.5660   26.9491 C   0  0  0  0  0  0  0  0  0  0  0  0
    7.8151  -13.8204   26.6270 C   0  0  0  0  0  0  0  0  0  0  0  0
    9.5850  -17.6410   27.0487 C   0  0  0  0  0  0  0  0  0  0  0  0
    8.6707  -18.6541   26.7156 O   0  0  0  0  0  0  0  0  0  0  0  0
    9.9015  -17.5623   28.2582 O   0  0  0  0  0  0  0  0  0  0  0  0
  2  3  1  0
  2  1  1  6
  4  5  1  6
  4  2  1  0
  6  4  1  0
  7  6  2  0
  9  8  1  0
 10  9  1  6
 10 11  1  0
 11  6  1  0
 12 10  1  0
 12 14  1  0
 13 12  2  0
 15 14  1  0
 15 26  1  0
 15 16  1  1
 17 16  1  0
 17 18  2  0
 19 18  1  0
 20 25  2  0
 20 19  1  0
 21 20  1  0
 22 23  1  0
 22 21  2  0
 23 24  2  0
 24 25  1  0
 25 17  1  0
 26 27  1  0
 28 26  2  0
M  END
$$$$
