TSW.pdb
     RDKit          3D

 28 29  0  0  1  0  0  0  0  0999 V2000
   11.1729  -19.1808   21.9651 C   0  0  0  0  0  0  0  0  0  0  0  0
   11.0253  -19.2889   20.4789 C   0  0  1  0  0  0  0  0  0  0  0  0
   11.1975  -20.5789   20.0191 O   0  0  0  0  0  0  0  0  0  0  0  0
    9.6331  -18.7496   20.1246 C   0  0  2  0  0  0  0  0  0  0  0  0
    9.4869  -18.9824   18.6920 N   0  0  0  0  0  0  0  0  0  0  0  0
    9.5754  -17.2998   20.3996 C   0  0  0  0  0  0  0  0  0  0  0  0
   10.4402  -16.5282   19.9054 O   0  0  0  0  0  0  0  0  0  0  0  0
    6.2720  -15.8627   22.1156 O   0  0  0  0  0  0  0  0  0  0  0  0
    7.0045  -14.8642   21.5059 C   0  0  0  0  0  0  0  0  0  0  0  0
    8.4623  -15.3400   21.4489 C   0  0  2  0  0  0  0  0  0  0  0  0
    8.5438  -16.7515   21.2257 N   0  0  0  0  0  0  0  0  0  0  0  0
    9.0348  -15.0310   22.7838 C   0  0  0  0  0  0  0  0  0  0  0  0
    9.2155  -13.8345   23.0890 O   0  0  0  0  0  0  0  0  0  0  0  0
    9.3391  -16.1277   23.6255 N   0  0  0  0  0  0  0  0  0  0  0  0
    9.9430  -15.8697   24.9111 C   0  0  1  0  0  0  0  0  0  0  0  0
    8.9916  -16.3241   25.9878 C   0  0  0  0  0  0  0  0  0  0  0  0
    7.7460  -15.5143   25.9106 C   0  0  0  0  0  0  0  0  0  0  0  0
    6.4826  -15.9744   25.6090 C   0  0  0  0  0  0  0  0  0  0  0  0
    5.6820  -14.9004   25.6495 N   0  0  0  0  0  0  0  0  0  0  0  0
    6.3699  -13.7907   25.9594 C   0  0  0  0  0  0  0  0  0  0  0  0
    6.0020  -12.4617   26.1192 C   0  0  0  0  0  0  0  0  0  0  0  0
    6.9146  -11.4993   26.4435 C   0  0  0  0  0  0  0  0  0  0  0  0
    8.2361  -11.8788   26.6129 C   0  0  0  0  0  0  0  0  0  0  0  0
    8.6304  -13.1843   26.4618 C   0  0  0  0  0  0  0  0  0  0  0  0
    7.6983  -14.1491   26.1337 C   0  0  0  0  0  0  0  0  0  0  0  0
   11.2070  -16.6365   25.0067 C   0  0  0  0  0  0  0  0  0  0  0  0
   12.0315  -16.5484   26.1406 O   0  0  0  0  0  0  0  0  0  0  0  0
   11.6068  -17.3959   24.0943 O   0  0  0  0  0  0  0  0  0  0  0  0
  2  3  1  0
  2  1  1  1
  4  5  1  6
  4  2  1  0
  6  4  1  0
  7  6  2  0
  9  8  1  0
 10  9  1  1
 10 11  1  0
 11  6  1  0
 12 10  1  0
 12 14  1  0
 13 12  2  0
 15 14  1  0
 15 26  1  0
 15 16  1  1
 17 16  1  0
 17 18  2  0
 19 18  1  0
 20 25  2  0
 20 19  1  0
 21 20  1  0
 22 23  1  0
 22 21  2  0
 23 24  2  0
 24 25  1  0
 25 17  1  0
 26 27  1  0
 28 26  2  0
M  END
$$$$
