SPD.pdb
     RDKit          3D

 22 22  0  0  1  0  0  0  0  0999 V2000
   14.9944   -6.2925   -7.5091 O   0  0  0  0  0  0  0  0  0  0  0  0
   15.7835   -6.3995   -8.6316 C   0  0  0  0  0  0  0  0  0  0  0  0
   14.9285   -6.9869   -9.7650 C   0  0  2  0  0  0  0  0  0  0  0  0
   14.6655   -8.3473   -9.4024 N   0  0  0  0  0  0  0  0  0  0  0  0
   15.6973   -6.8228  -11.0125 C   0  0  0  0  0  0  0  0  0  0  0  0
   16.4578   -7.8103  -11.3166 O   0  0  0  0  0  0  0  0  0  0  0  0
   15.6464   -5.6833  -11.8577 N   0  0  0  0  0  0  0  0  0  0  0  0
   14.7739   -4.5519  -11.6627 C   0  0  0  0  0  0  0  0  0  0  0  0
   14.6990   -3.9001  -13.0602 C   0  0  0  0  0  0  0  0  0  0  0  0
   16.1222   -4.1022  -13.4961 C   0  0  0  0  0  0  0  0  0  0  0  0
   16.4076   -5.5040  -13.0357 C   0  0  1  0  0  0  0  0  0  0  0  0
   17.8714   -5.7078  -12.8436 C   0  0  0  0  0  0  0  0  0  0  0  0
   18.3310   -5.4812  -11.6995 O   0  0  0  0  0  0  0  0  0  0  0  0
   18.7734   -6.1352  -13.8424 N   0  0  0  0  0  0  0  0  0  0  0  0
   20.1944   -6.3497  -13.5707 C   0  0  1  0  0  0  0  0  0  0  0  0
   20.6866   -7.5813  -14.3194 C   0  0  0  0  0  0  0  0  0  0  0  0
   22.1366   -7.7634  -14.1797 C   0  0  0  0  0  0  0  0  0  0  0  0
   22.7056   -7.5273  -13.0919 O   0  0  0  0  0  0  0  0  0  0  0  0
   21.0123   -5.1930  -13.9594 C   0  0  0  0  0  0  0  0  0  0  0  0
   20.6380   -4.5113  -14.9451 O   0  0  0  0  0  0  0  0  0  0  0  0
   22.8897   -8.2032  -15.2676 O   0  0  0  0  0  0  0  0  0  0  0  0
   22.1661   -4.8339  -13.2848 O   0  0  0  0  0  0  0  0  0  0  0  0
  1  2  1  0
  3  2  1  0
  3  4  1  1
  3  5  1  0
  5  6  2  0
  7  5  1  0
  7 11  1  0
  8  7  1  0
  9  8  1  0
  9 10  1  0
 10 11  1  0
 11 12  1  1
 12 13  2  0
 12 14  1  0
 14 15  1  0
 15 16  1  6
 17 16  1  0
 17 18  2  0
 19 15  1  0
 19 22  1  0
 20 19  2  0
 21 17  1  0
M  END
$$$$
