SPD.pdb
     RDKit          3D

 22 22  0  0  1  0  0  0  0  0999 V2000
   19.7242   -9.4473  -18.9759 O   0  0  0  0  0  0  0  0  0  0  0  0
   19.8366   -8.4956  -17.9880 C   0  0  0  0  0  0  0  0  0  0  0  0
   20.7789   -9.0392  -16.9030 C   0  0  2  0  0  0  0  0  0  0  0  0
   20.0347  -10.0336  -16.1899 N   0  0  0  0  0  0  0  0  0  0  0  0
   21.2027   -7.8874  -16.0856 C   0  0  0  0  0  0  0  0  0  0  0  0
   20.3304   -7.4674  -15.2440 O   0  0  0  0  0  0  0  0  0  0  0  0
   22.4656   -7.2450  -16.1748 N   0  0  0  0  0  0  0  0  0  0  0  0
   23.5528   -7.6797  -17.0164 C   0  0  0  0  0  0  0  0  0  0  0  0
   24.7986   -7.0379  -16.3686 C   0  0  0  0  0  0  0  0  0  0  0  0
   24.2069   -5.7169  -15.9672 C   0  0  0  0  0  0  0  0  0  0  0  0
   22.8625   -6.1137  -15.4254 C   0  0  1  0  0  0  0  0  0  0  0  0
   21.9056   -4.9738  -15.5032 C   0  0  0  0  0  0  0  0  0  0  0  0
   21.1946   -4.8985  -16.5330 O   0  0  0  0  0  0  0  0  0  0  0  0
   21.7376   -3.9807  -14.5135 N   0  0  0  0  0  0  0  0  0  0  0  0
   20.8092   -2.8629  -14.6792 C   0  0  1  0  0  0  0  0  0  0  0  0
   20.0837   -2.5911  -13.3679 C   0  0  0  0  0  0  0  0  0  0  0  0
   19.1396   -1.4732  -13.4864 C   0  0  0  0  0  0  0  0  0  0  0  0
   18.1835   -1.5304  -14.2898 O   0  0  0  0  0  0  0  0  0  0  0  0
   21.4920   -1.6367  -15.1130 C   0  0  0  0  0  0  0  0  0  0  0  0
   22.6170   -1.3819  -14.6171 O   0  0  0  0  0  0  0  0  0  0  0  0
   19.3071   -0.3356  -12.6978 O   0  0  0  0  0  0  0  0  0  0  0  0
   20.9446   -0.7645  -16.0377 O   0  0  0  0  0  0  0  0  0  0  0  0
  1  2  1  0
  3  2  1  0
  3  4  1  1
  3  5  1  0
  5  6  2  0
  7  5  1  0
  7 11  1  0
  8  7  1  0
  9  8  1  0
  9 10  1  0
 10 11  1  0
 11 12  1  6
 12 13  2  0
 12 14  1  0
 14 15  1  0
 15 16  1  1
 17 16  1  0
 17 18  2  0
 19 15  1  0
 19 22  1  0
 20 19  2  0
 21 17  1  0
M  END
$$$$
