SPD.pdb
     RDKit          3D

 22 22  0  0  1  0  0  0  0  0999 V2000
   25.4279  -13.5544  -20.6013 O   0  0  0  0  0  0  0  0  0  0  0  0
   24.8074  -12.7718  -19.6543 C   0  0  0  0  0  0  0  0  0  0  0  0
   25.1652  -13.3242  -18.2660 C   0  0  2  0  0  0  0  0  0  0  0  0
   24.5633  -14.6212  -18.1854 N   0  0  0  0  0  0  0  0  0  0  0  0
   24.6645  -12.3535  -17.2753 C   0  0  0  0  0  0  0  0  0  0  0  0
   23.4183  -12.4608  -16.9905 O   0  0  0  0  0  0  0  0  0  0  0  0
   25.4493  -11.3506  -16.6478 N   0  0  0  0  0  0  0  0  0  0  0  0
   26.8776  -11.2132  -16.7909 C   0  0  0  0  0  0  0  0  0  0  0  0
   27.2941  -10.3926  -15.5513 C   0  0  0  0  0  0  0  0  0  0  0  0
   26.1223   -9.4557  -15.4787 C   0  0  0  0  0  0  0  0  0  0  0  0
   24.9599  -10.3661  -15.7588 C   0  0  1  0  0  0  0  0  0  0  0  0
   23.8027   -9.5939  -16.2933 C   0  0  0  0  0  0  0  0  0  0  0  0
   23.8247   -9.3097  -17.5141 O   0  0  0  0  0  0  0  0  0  0  0  0
   22.6907   -9.1627  -15.5373 N   0  0  0  0  0  0  0  0  0  0  0  0
   21.5998   -8.3869  -16.1265 C   0  0  1  0  0  0  0  0  0  0  0  0
   20.2669   -8.8400  -15.5454 C   0  0  0  0  0  0  0  0  0  0  0  0
   19.1393   -8.0919  -16.1145 C   0  0  0  0  0  0  0  0  0  0  0  0
   19.2525   -7.5104  -17.2153 O   0  0  0  0  0  0  0  0  0  0  0  0
   21.7590   -6.9450  -15.8948 C   0  0  0  0  0  0  0  0  0  0  0  0
   22.4140   -6.5788  -14.8882 O   0  0  0  0  0  0  0  0  0  0  0  0
   17.9296   -8.0267  -15.4244 O   0  0  0  0  0  0  0  0  0  0  0  0
   21.2188   -5.9893  -16.7376 O   0  0  0  0  0  0  0  0  0  0  0  0
  1  2  1  0
  3  2  1  0
  3  4  1  1
  3  5  1  0
  5  6  2  0
  7  5  1  0
  7 11  1  0
  8  7  1  0
  9  8  1  0
  9 10  1  0
 10 11  1  0
 11 12  1  6
 12 13  2  0
 12 14  1  0
 14 15  1  0
 15 16  1  1
 17 16  1  0
 17 18  2  0
 19 15  1  0
 19 22  1  0
 20 19  2  0
 21 17  1  0
M  END
$$$$
