SPD.pdb
     RDKit          3D

 22 22  0  0  1  0  0  0  0  0999 V2000
   25.5200  -12.2625  -18.6418 O   0  0  0  0  0  0  0  0  0  0  0  0
   24.8208  -11.1016  -18.4013 C   0  0  0  0  0  0  0  0  0  0  0  0
   23.5072  -11.1592  -19.1961 C   0  0  2  0  0  0  0  0  0  0  0  0
   23.8514  -10.8736  -20.5567 N   0  0  0  0  0  0  0  0  0  0  0  0
   22.5884  -10.1849  -18.5788 C   0  0  0  0  0  0  0  0  0  0  0  0
   22.9669   -8.9611  -18.6479 O   0  0  0  0  0  0  0  0  0  0  0  0
   21.3636  -10.5111  -17.9395 N   0  0  0  0  0  0  0  0  0  0  0  0
   20.8057  -11.8383  -17.8572 C   0  0  0  0  0  0  0  0  0  0  0  0
   19.3054  -11.5906  -17.5899 C   0  0  0  0  0  0  0  0  0  0  0  0
   19.4174  -10.4087  -16.6697 C   0  0  0  0  0  0  0  0  0  0  0  0
   20.4884   -9.5847  -17.3272 C   0  0  1  0  0  0  0  0  0  0  0  0
   21.1530   -8.6946  -16.3337 C   0  0  0  0  0  0  0  0  0  0  0  0
   22.1698   -9.1469  -15.7566 O   0  0  0  0  0  0  0  0  0  0  0  0
   20.7304   -7.3902  -15.9960 N   0  0  0  0  0  0  0  0  0  0  0  0
   21.3768   -6.6086  -14.9423 C   0  0  1  0  0  0  0  0  0  0  0  0
   21.6947   -5.2096  -15.4535 C   0  0  0  0  0  0  0  0  0  0  0  0
   22.2349   -4.3494  -14.3936 C   0  0  0  0  0  0  0  0  0  0  0  0
   23.0695   -4.7948  -13.5764 O   0  0  0  0  0  0  0  0  0  0  0  0
   20.5388   -6.5015  -13.7404 C   0  0  0  0  0  0  0  0  0  0  0  0
   19.2925   -6.5498  -13.8849 O   0  0  0  0  0  0  0  0  0  0  0  0
   21.8160   -3.0233  -14.2940 O   0  0  0  0  0  0  0  0  0  0  0  0
   21.0696   -6.3513  -12.4711 O   0  0  0  0  0  0  0  0  0  0  0  0
  1  2  1  0
  3  2  1  0
  3  4  1  6
  3  5  1  0
  5  6  2  0
  7  5  1  0
  7 11  1  0
  8  7  1  0
  9  8  1  0
  9 10  1  0
 10 11  1  0
 11 12  1  1
 12 13  2  0
 12 14  1  0
 14 15  1  0
 15 16  1  6
 17 16  1  0
 17 18  2  0
 19 15  1  0
 19 22  1  0
 20 19  2  0
 21 17  1  0
M  END
$$$$
