SPD.pdb
     RDKit          3D

 22 22  0  0  1  0  0  0  0  0999 V2000
   19.2028  -11.6267  -19.0312 O   0  0  0  0  0  0  0  0  0  0  0  0
   18.7187  -10.6600  -18.1794 C   0  0  0  0  0  0  0  0  0  0  0  0
   18.7805  -11.2090  -16.7458 C   0  0  2  0  0  0  0  0  0  0  0  0
   17.5049  -11.8094  -16.4932 N   0  0  0  0  0  0  0  0  0  0  0  0
   19.1086  -10.0732  -15.8645 C   0  0  0  0  0  0  0  0  0  0  0  0
   18.1340   -9.2760  -15.6191 O   0  0  0  0  0  0  0  0  0  0  0  0
   20.3864   -9.8229  -15.2987 N   0  0  0  0  0  0  0  0  0  0  0  0
   21.4964  -10.7428  -15.3325 C   0  0  0  0  0  0  0  0  0  0  0  0
   22.3988  -10.2731  -14.1713 C   0  0  0  0  0  0  0  0  0  0  0  0
   22.2236   -8.7883  -14.3165 C   0  0  0  0  0  0  0  0  0  0  0  0
   20.7503   -8.6590  -14.5831 C   0  0  1  0  0  0  0  0  0  0  0  0
   20.4551   -7.3902  -15.3070 C   0  0  0  0  0  0  0  0  0  0  0  0
   20.5271   -7.4202  -16.5582 O   0  0  0  0  0  0  0  0  0  0  0  0
   20.1012   -6.1666  -14.6974 N   0  0  0  0  0  0  0  0  0  0  0  0
   19.9535   -4.9281  -15.4611 C   0  0  1  0  0  0  0  0  0  0  0  0
   18.7575   -4.1388  -14.9451 C   0  0  0  0  0  0  0  0  0  0  0  0
   17.5009   -4.8797  -15.1091 C   0  0  0  0  0  0  0  0  0  0  0  0
   17.2015   -5.3885  -16.2110 O   0  0  0  0  0  0  0  0  0  0  0  0
   21.1541   -4.0850  -15.3848 C   0  0  0  0  0  0  0  0  0  0  0  0
   21.9122   -4.2276  -14.3941 O   0  0  0  0  0  0  0  0  0  0  0  0
   16.6306   -5.0196  -14.0288 O   0  0  0  0  0  0  0  0  0  0  0  0
   21.4737   -3.1513  -16.3551 O   0  0  0  0  0  0  0  0  0  0  0  0
  1  2  1  0
  3  2  1  0
  3  4  1  1
  3  5  1  0
  5  6  2  0
  7  5  1  0
  7 11  1  0
  8  7  1  0
  9  8  1  0
  9 10  1  0
 10 11  1  0
 11 12  1  6
 12 13  2  0
 12 14  1  0
 14 15  1  0
 15 16  1  1
 17 16  1  0
 17 18  2  0
 19 15  1  0
 19 22  1  0
 20 19  2  0
 21 17  1  0
M  END
$$$$
