SPD.pdb
     RDKit          3D

 22 22  0  0  1  0  0  0  0  0999 V2000
   32.1413  -34.7753   -4.7580 O   0  0  0  0  0  0  0  0  0  0  0  0
   32.5596  -34.9836   -3.4634 C   0  0  0  0  0  0  0  0  0  0  0  0
   34.0699  -35.2650   -3.4864 C   0  0  2  0  0  0  0  0  0  0  0  0
   34.2211  -36.5886   -4.0121 N   0  0  0  0  0  0  0  0  0  0  0  0
   34.5599  -35.0940   -2.1062 C   0  0  0  0  0  0  0  0  0  0  0  0
   34.1916  -36.0051   -1.2815 O   0  0  0  0  0  0  0  0  0  0  0  0
   35.3788  -34.0243   -1.6584 N   0  0  0  0  0  0  0  0  0  0  0  0
   35.9038  -32.9800   -2.5030 C   0  0  0  0  0  0  0  0  0  0  0  0
   37.1079  -32.4332   -1.7063 C   0  0  0  0  0  0  0  0  0  0  0  0
   36.5351  -32.5136   -0.3201 C   0  0  0  0  0  0  0  0  0  0  0  0
   35.8371  -33.8443   -0.3331 C   0  0  1  0  0  0  0  0  0  0  0  0
   34.7530  -33.8808    0.6890 C   0  0  0  0  0  0  0  0  0  0  0  0
   33.6278  -33.4533    0.3389 O   0  0  0  0  0  0  0  0  0  0  0  0
   34.8936  -34.3580    2.0106 N   0  0  0  0  0  0  0  0  0  0  0  0
   33.7970  -34.3135    2.9773 C   0  0  1  0  0  0  0  0  0  0  0  0
   33.5157  -35.7127    3.5089 C   0  0  0  0  0  0  0  0  0  0  0  0
   32.4750  -35.7057    4.5443 C   0  0  0  0  0  0  0  0  0  0  0  0
   31.3550  -35.1991    4.3171 O   0  0  0  0  0  0  0  0  0  0  0  0
   34.0914  -33.4212    4.1066 C   0  0  0  0  0  0  0  0  0  0  0  0
   35.2912  -33.1220    4.3239 O   0  0  0  0  0  0  0  0  0  0  0  0
   32.7340  -36.2679    5.7937 O   0  0  0  0  0  0  0  0  0  0  0  0
   33.1039  -32.9060    4.9281 O   0  0  0  0  0  0  0  0  0  0  0  0
  1  2  1  0
  3  2  1  0
  3  4  1  1
  3  5  1  0
  5  6  2  0
  7  5  1  0
  7 11  1  0
  8  7  1  0
  9  8  1  0
  9 10  1  0
 10 11  1  0
 11 12  1  1
 12 13  2  0
 12 14  1  0
 14 15  1  0
 15 16  1  1
 17 16  1  0
 17 18  2  0
 19 15  1  0
 19 22  1  0
 20 19  2  0
 21 17  1  0
M  END
$$$$
