SPD.pdb
     RDKit          3D

 22 22  0  0  1  0  0  0  0  0999 V2000
   28.2425  -18.3127  -15.5052 O   0  0  0  0  0  0  0  0  0  0  0  0
   27.0739  -18.9913  -15.2444 C   0  0  0  0  0  0  0  0  0  0  0  0
   27.4362  -20.3541  -14.6344 C   0  0  2  0  0  0  0  0  0  0  0  0
   27.9119  -21.1621  -15.7171 N   0  0  0  0  0  0  0  0  0  0  0  0
   26.2208  -20.8666  -13.9752 C   0  0  0  0  0  0  0  0  0  0  0  0
   25.3329  -21.3452  -14.7678 O   0  0  0  0  0  0  0  0  0  0  0  0
   25.9881  -20.8591  -12.5747 N   0  0  0  0  0  0  0  0  0  0  0  0
   26.9710  -20.5112  -11.5786 C   0  0  0  0  0  0  0  0  0  0  0  0
   26.4343  -21.1662  -10.2878 C   0  0  0  0  0  0  0  0  0  0  0  0
   24.9658  -20.9201  -10.4863 C   0  0  0  0  0  0  0  0  0  0  0  0
   24.7781  -21.2304  -11.9447 C   0  0  1  0  0  0  0  0  0  0  0  0
   23.5788  -20.5281  -12.4828 C   0  0  0  0  0  0  0  0  0  0  0  0
   23.6579  -19.2831  -12.6070 O   0  0  0  0  0  0  0  0  0  0  0  0
   22.3702  -21.1518  -12.8626 N   0  0  0  0  0  0  0  0  0  0  0  0
   21.2126  -20.3905  -13.3309 C   0  0  1  0  0  0  0  0  0  0  0  0
   20.6903  -20.9864  -14.6316 C   0  0  0  0  0  0  0  0  0  0  0  0
   19.5011  -20.2774  -15.1196 C   0  0  0  0  0  0  0  0  0  0  0  0
   19.1513  -19.1930  -14.6053 O   0  0  0  0  0  0  0  0  0  0  0  0
   20.1267  -20.3711  -12.3417 C   0  0  0  0  0  0  0  0  0  0  0  0
   19.2245  -19.5080  -12.4740 O   0  0  0  0  0  0  0  0  0  0  0  0
   18.7522  -20.8148  -16.1658 O   0  0  0  0  0  0  0  0  0  0  0  0
   20.0652  -21.2604  -11.2830 O   0  0  0  0  0  0  0  0  0  0  0  0
  1  2  1  0
  3  2  1  0
  3  4  1  6
  3  5  1  0
  5  6  2  0
  7  5  1  0
  7 11  1  0
  8  7  1  0
  9  8  1  0
  9 10  1  0
 10 11  1  0
 11 12  1  6
 12 13  2  0
 12 14  1  0
 14 15  1  0
 15 16  1  6
 17 16  1  0
 17 18  2  0
 19 15  1  0
 19 22  1  0
 20 19  2  0
 21 17  1  0
M  END
$$$$
