SPD.pdb
     RDKit          3D

 22 22  0  0  1  0  0  0  0  0999 V2000
   12.6720  -12.3399   -9.5665 O   0  0  0  0  0  0  0  0  0  0  0  0
   13.2974  -11.4196  -10.3766 C   0  0  0  0  0  0  0  0  0  0  0  0
   12.6385  -10.0509  -10.1457 C   0  0  2  0  0  0  0  0  0  0  0  0
   11.4096  -10.0707  -10.8809 N   0  0  0  0  0  0  0  0  0  0  0  0
   13.6032   -9.0288  -10.5918 C   0  0  0  0  0  0  0  0  0  0  0  0
   13.6090   -8.8006  -11.8541 O   0  0  0  0  0  0  0  0  0  0  0  0
   14.4878   -8.3159   -9.7404 N   0  0  0  0  0  0  0  0  0  0  0  0
   14.4816   -8.3886   -8.3002 C   0  0  0  0  0  0  0  0  0  0  0  0
   15.1945   -7.0908   -7.8635 C   0  0  0  0  0  0  0  0  0  0  0  0
   16.2443   -7.0209   -8.9355 C   0  0  0  0  0  0  0  0  0  0  0  0
   15.4748   -7.3991  -10.1697 C   0  0  1  0  0  0  0  0  0  0  0  0
   16.3881   -7.9429  -11.2143 C   0  0  0  0  0  0  0  0  0  0  0  0
   16.9847   -9.0124  -10.9462 O   0  0  0  0  0  0  0  0  0  0  0  0
   16.6302   -7.3524  -12.4739 N   0  0  0  0  0  0  0  0  0  0  0  0
   17.6136   -7.8914  -13.4126 C   0  0  1  0  0  0  0  0  0  0  0  0
   16.9044   -8.6123  -14.5515 C   0  0  0  0  0  0  0  0  0  0  0  0
   17.8473   -9.0775  -15.5759 C   0  0  0  0  0  0  0  0  0  0  0  0
   18.6991   -9.9520  -15.3064 O   0  0  0  0  0  0  0  0  0  0  0  0
   18.4766   -6.8425  -13.9721 C   0  0  0  0  0  0  0  0  0  0  0  0
   18.0150   -5.6773  -14.0466 O   0  0  0  0  0  0  0  0  0  0  0  0
   17.7959   -8.5420  -16.8622 O   0  0  0  0  0  0  0  0  0  0  0  0
   19.7643   -7.0919  -14.4140 O   0  0  0  0  0  0  0  0  0  0  0  0
  1  2  1  0
  3  2  1  0
  3  4  1  6
  3  5  1  0
  5  6  2  0
  7  5  1  0
  7 11  1  0
  8  7  1  0
  9  8  1  0
  9 10  1  0
 10 11  1  0
 11 12  1  6
 12 13  2  0
 12 14  1  0
 14 15  1  0
 15 16  1  6
 17 16  1  0
 17 18  2  0
 19 15  1  0
 19 22  1  0
 20 19  2  0
 21 17  1  0
M  END
$$$$
