SPD.pdb
     RDKit          3D

 22 22  0  0  1  0  0  0  0  0999 V2000
   27.3298  -15.8287  -15.3793 O   0  0  0  0  0  0  0  0  0  0  0  0
   26.4234  -16.8643  -15.3951 C   0  0  0  0  0  0  0  0  0  0  0  0
   27.1819  -18.1611  -15.7170 C   0  0  2  0  0  0  0  0  0  0  0  0
   27.3637  -18.1747  -17.1376 N   0  0  0  0  0  0  0  0  0  0  0  0
   26.3706  -19.2750  -15.1923 C   0  0  0  0  0  0  0  0  0  0  0  0
   25.3613  -19.6001  -15.9144 O   0  0  0  0  0  0  0  0  0  0  0  0
   26.6315  -19.9758  -13.9855 N   0  0  0  0  0  0  0  0  0  0  0  0
   27.8135  -19.8102  -13.1763 C   0  0  0  0  0  0  0  0  0  0  0  0
   27.8781  -21.1119  -12.3488 C   0  0  0  0  0  0  0  0  0  0  0  0
   26.4112  -21.3044  -12.0890 C   0  0  0  0  0  0  0  0  0  0  0  0
   25.7982  -20.9677  -13.4191 C   0  0  1  0  0  0  0  0  0  0  0  0
   24.3804  -20.5398  -13.2528 C   0  0  0  0  0  0  0  0  0  0  0  0
   24.1843  -19.3877  -12.7992 O   0  0  0  0  0  0  0  0  0  0  0  0
   23.2492  -21.3249  -13.5662 N   0  0  0  0  0  0  0  0  0  0  0  0
   21.8867  -20.8009  -13.4779 C   0  0  1  0  0  0  0  0  0  0  0  0
   21.7242  -19.6143  -14.4187 C   0  0  0  0  0  0  0  0  0  0  0  0
   20.3431  -19.1172  -14.4391 C   0  0  0  0  0  0  0  0  0  0  0  0
   19.5015  -19.6088  -15.2221 O   0  0  0  0  0  0  0  0  0  0  0  0
   20.8805  -21.8183  -13.8103 C   0  0  0  0  0  0  0  0  0  0  0  0
   21.1746  -22.6763  -14.6784 O   0  0  0  0  0  0  0  0  0  0  0  0
   19.9622  -18.0878  -13.5794 O   0  0  0  0  0  0  0  0  0  0  0  0
   19.6358  -21.8625  -13.2068 O   0  0  0  0  0  0  0  0  0  0  0  0
  1  2  1  0
  3  2  1  0
  3  4  1  6
  3  5  1  0
  5  6  2  0
  7  5  1  0
  7 11  1  0
  8  7  1  0
  9  8  1  0
  9 10  1  0
 10 11  1  0
 11 12  1  1
 12 13  2  0
 12 14  1  0
 14 15  1  0
 15 16  1  6
 17 16  1  0
 17 18  2  0
 19 15  1  0
 19 22  1  0
 20 19  2  0
 21 17  1  0
M  END
$$$$
