CFP.pdb
     RDKit          3D

 25 26  0  0  1  0  0  0  0  0999 V2000
    4.5864  -19.8200   21.8212 N   0  0  0  0  0  0  0  0  0  0  0  0
    5.2971  -19.7748   23.0617 C   0  0  1  0  0  0  0  0  0  0  0  0
    6.3151  -20.9182   23.1693 C   0  0  0  0  0  0  0  0  0  0  0  0
    5.4371  -22.3585   23.8901 S   0  0  0  0  0  0  0  0  0  0  0  0
    6.0327  -18.4986   23.2348 C   0  0  0  0  0  0  0  0  0  0  0  0
    6.6444  -18.0523   22.2162 O   0  0  0  0  0  0  0  0  0  0  0  0
    6.0496  -17.8147   24.4759 N   0  0  0  0  0  0  0  0  0  0  0  0
    6.7793  -16.5985   24.6997 C   0  0  1  0  0  0  0  0  0  0  0  0
    6.1961  -15.7669   25.7961 C   0  0  0  0  0  0  0  0  0  0  0  0
    6.8272  -14.4658   26.0266 C   0  0  0  0  0  0  0  0  0  0  0  0
    7.9927  -14.3908   26.7690 C   0  0  0  0  0  0  0  0  0  0  0  0
    8.5999  -13.1753   26.9742 C   0  0  0  0  0  0  0  0  0  0  0  0
    8.0925  -11.9991   26.4644 C   0  0  0  0  0  0  0  0  0  0  0  0
    6.9230  -12.0643   25.7179 C   0  0  0  0  0  0  0  0  0  0  0  0
    6.3257  -13.2732   25.5182 C   0  0  0  0  0  0  0  0  0  0  0  0
    8.2269  -16.8186   24.7720 C   0  0  0  0  0  0  0  0  0  0  0  0
    8.6170  -17.8481   25.4503 O   0  0  0  0  0  0  0  0  0  0  0  0
    9.2671  -16.0635   24.2071 N   0  0  0  0  0  0  0  0  0  0  0  0
    9.3744  -14.6734   23.8293 C   0  0  0  0  0  0  0  0  0  0  0  0
   10.4599  -14.5982   22.7457 C   0  0  0  0  0  0  0  0  0  0  0  0
   10.7477  -16.0733   22.4624 C   0  0  0  0  0  0  0  0  0  0  0  0
   10.6093  -16.6018   23.8726 C   0  0  1  0  0  0  0  0  0  0  0  0
   11.6567  -16.0202   24.7178 C   0  0  0  0  0  0  0  0  0  0  0  0
   12.9899  -16.3371   24.7098 O   0  0  0  0  0  0  0  0  0  0  0  0
   11.2842  -15.1284   25.5431 O   0  0  0  0  0  0  0  0  0  0  0  0
  2  5  1  0
  2  1  1  6
  3  2  1  0
  4  3  1  0
  5  6  2  0
  7  8  1  0
  7  5  1  0
  8  9  1  1
  9 10  1  0
 10 11  2  0
 11 12  1  0
 13 12  2  0
 14 13  1  0
 15 14  2  0
 15 10  1  0
 16  8  1  0
 17 16  2  0
 18 16  1  0
 18 22  1  0
 19 20  1  0
 19 18  1  0
 20 21  1  0
 21 22  1  0
 22 23  1  1
 23 24  1  0
 25 23  2  0
M  END
$$$$
