CFP.pdb
     RDKit          3D

 25 26  0  0  1  0  0  0  0  0999 V2000
    4.1668  -20.4090   23.1579 N   0  0  0  0  0  0  0  0  0  0  0  0
    5.4236  -20.0929   23.7633 C   0  0  1  0  0  0  0  0  0  0  0  0
    6.5860  -20.7916   23.0451 C   0  0  0  0  0  0  0  0  0  0  0  0
    8.1041  -20.4554   24.0184 S   0  0  0  0  0  0  0  0  0  0  0  0
    5.6962  -18.6352   23.7497 C   0  0  0  0  0  0  0  0  0  0  0  0
    5.4979  -18.0299   22.6518 O   0  0  0  0  0  0  0  0  0  0  0  0
    6.1547  -17.9555   24.9057 N   0  0  0  0  0  0  0  0  0  0  0  0
    6.5910  -16.5875   24.8988 C   0  0  1  0  0  0  0  0  0  0  0  0
    6.5647  -15.9648   26.2572 C   0  0  0  0  0  0  0  0  0  0  0  0
    6.8545  -14.5307   26.3170 C   0  0  0  0  0  0  0  0  0  0  0  0
    8.1670  -14.0990   26.3963 C   0  0  0  0  0  0  0  0  0  0  0  0
    8.4471  -12.7543   26.4348 C   0  0  0  0  0  0  0  0  0  0  0  0
    7.4609  -11.7915   26.3973 C   0  0  0  0  0  0  0  0  0  0  0  0
    6.1405  -12.2151   26.3178 C   0  0  0  0  0  0  0  0  0  0  0  0
    5.8696  -13.5505   26.2800 C   0  0  0  0  0  0  0  0  0  0  0  0
    7.8296  -16.3980   24.1380 C   0  0  0  0  0  0  0  0  0  0  0  0
    8.6943  -17.3574   24.2022 O   0  0  0  0  0  0  0  0  0  0  0  0
    8.2219  -15.3110   23.3404 N   0  0  0  0  0  0  0  0  0  0  0  0
    7.8417  -13.9175   23.3290 C   0  0  0  0  0  0  0  0  0  0  0  0
    8.1105  -13.4035   21.9071 C   0  0  0  0  0  0  0  0  0  0  0  0
    8.4618  -14.6863   21.1521 C   0  0  0  0  0  0  0  0  0  0  0  0
    9.2272  -15.3887   22.2511 C   0  0  1  0  0  0  0  0  0  0  0  0
   10.4372  -14.6244   22.5697 C   0  0  0  0  0  0  0  0  0  0  0  0
   11.5656  -14.5130   21.8002 O   0  0  0  0  0  0  0  0  0  0  0  0
   10.4344  -14.0010   23.6772 O   0  0  0  0  0  0  0  0  0  0  0  0
  2  5  1  0
  2  1  1  6
  3  2  1  0
  4  3  1  0
  5  6  2  0
  7  8  1  0
  7  5  1  0
  8  9  1  1
  9 10  1  0
 10 11  2  0
 11 12  1  0
 13 12  2  0
 14 13  1  0
 15 14  2  0
 15 10  1  0
 16  8  1  0
 17 16  2  0
 18 16  1  0
 18 22  1  0
 19 20  1  0
 19 18  1  0
 20 21  1  0
 21 22  1  0
 22 23  1  1
 23 24  1  0
 25 23  2  0
M  END
$$$$
