CFP.pdb
     RDKit          3D

 25 26  0  0  1  0  0  0  0  0999 V2000
    4.4147  -20.3521   22.8087 N   0  0  0  0  0  0  0  0  0  0  0  0
    5.4770  -20.1657   23.7483 C   0  0  1  0  0  0  0  0  0  0  0  0
    6.6581  -21.1009   23.4555 C   0  0  0  0  0  0  0  0  0  0  0  0
    7.8624  -20.8966   24.8241 S   0  0  0  0  0  0  0  0  0  0  0  0
    5.9904  -18.7743   23.7381 C   0  0  0  0  0  0  0  0  0  0  0  0
    6.2866  -18.2859   22.6046 O   0  0  0  0  0  0  0  0  0  0  0  0
    6.1413  -18.0306   24.9349 N   0  0  0  0  0  0  0  0  0  0  0  0
    6.7152  -16.7153   24.9826 C   0  0  1  0  0  0  0  0  0  0  0  0
    6.3447  -15.9666   26.2219 C   0  0  0  0  0  0  0  0  0  0  0  0
    6.7933  -14.5746   26.2951 C   0  0  0  0  0  0  0  0  0  0  0  0
    5.9206  -13.5544   25.9593 C   0  0  0  0  0  0  0  0  0  0  0  0
    6.3292  -12.2450   26.0428 C   0  0  0  0  0  0  0  0  0  0  0  0
    7.5962  -11.8900   26.4546 C   0  0  0  0  0  0  0  0  0  0  0  0
    8.4792  -12.9071   26.7937 C   0  0  0  0  0  0  0  0  0  0  0  0
    8.0675  -14.2037   26.7087 C   0  0  0  0  0  0  0  0  0  0  0  0
    8.1413  -16.7133   24.6428 C   0  0  0  0  0  0  0  0  0  0  0  0
    8.8420  -17.6970   25.1047 O   0  0  0  0  0  0  0  0  0  0  0  0
    8.8692  -15.7855   23.8806 N   0  0  0  0  0  0  0  0  0  0  0  0
    8.6501  -14.3937   23.5622 C   0  0  0  0  0  0  0  0  0  0  0  0
    9.4020  -14.1225   22.2510 C   0  0  0  0  0  0  0  0  0  0  0  0
    9.8461  -15.5235   21.8280 C   0  0  0  0  0  0  0  0  0  0  0  0
   10.1538  -16.0828   23.1990 C   0  0  1  0  0  0  0  0  0  0  0  0
   11.2704  -15.3394   23.7910 C   0  0  0  0  0  0  0  0  0  0  0  0
   11.2257  -14.5316   24.8970 O   0  0  0  0  0  0  0  0  0  0  0  0
   12.3964  -15.4603   23.2142 O   0  0  0  0  0  0  0  0  0  0  0  0
  2  5  1  0
  2  1  1  6
  3  2  1  0
  4  3  1  0
  5  6  2  0
  7  8  1  0
  7  5  1  0
  8  9  1  1
  9 10  1  0
 10 11  2  0
 11 12  1  0
 13 12  2  0
 14 13  1  0
 15 14  2  0
 15 10  1  0
 16  8  1  0
 17 16  2  0
 18 16  1  0
 18 22  1  0
 19 20  1  0
 19 18  1  0
 20 21  1  0
 21 22  1  0
 22 23  1  1
 23 24  1  0
 25 23  2  0
M  END
$$$$
