CFP.pdb
     RDKit          3D

 25 26  0  0  1  0  0  0  0  0999 V2000
   12.1239  -16.6221   20.5979 N   0  0  0  0  0  0  0  0  0  0  0  0
   10.8987  -16.9887   21.2386 C   0  0  1  0  0  0  0  0  0  0  0  0
   10.9196  -18.4529   21.6980 C   0  0  0  0  0  0  0  0  0  0  0  0
   10.8692  -19.4944   20.1888 S   0  0  0  0  0  0  0  0  0  0  0  0
   10.6196  -16.1472   22.4275 C   0  0  0  0  0  0  0  0  0  0  0  0
   11.6250  -15.7583   23.0975 O   0  0  0  0  0  0  0  0  0  0  0  0
    9.2962  -15.7968   22.7942 N   0  0  0  0  0  0  0  0  0  0  0  0
    8.9783  -15.0017   23.9467 C   0  0  1  0  0  0  0  0  0  0  0  0
    7.7128  -14.2238   23.7821 C   0  0  0  0  0  0  0  0  0  0  0  0
    7.2596  -13.4704   24.9532 C   0  0  0  0  0  0  0  0  0  0  0  0
    6.5088  -14.1042   25.9278 C   0  0  0  0  0  0  0  0  0  0  0  0
    6.0954  -13.4080   27.0380 C   0  0  0  0  0  0  0  0  0  0  0  0
    6.3994  -12.0773   27.2327 C   0  0  0  0  0  0  0  0  0  0  0  0
    7.1526  -11.4326   26.2599 C   0  0  0  0  0  0  0  0  0  0  0  0
    7.5595  -12.1291   25.1611 C   0  0  0  0  0  0  0  0  0  0  0  0
    9.1018  -15.7545   25.1985 C   0  0  0  0  0  0  0  0  0  0  0  0
    8.7793  -17.0058   25.1491 O   0  0  0  0  0  0  0  0  0  0  0  0
    9.5224  -15.3097   26.4621 N   0  0  0  0  0  0  0  0  0  0  0  0
    9.2742  -14.0962   27.2054 C   0  0  0  0  0  0  0  0  0  0  0  0
   10.4499  -13.9331   28.1797 C   0  0  0  0  0  0  0  0  0  0  0  0
   11.4059  -15.0403   27.7334 C   0  0  0  0  0  0  0  0  0  0  0  0
   10.3787  -16.0945   27.3863 C   0  0  1  0  0  0  0  0  0  0  0  0
    9.6544  -16.4895   28.5984 C   0  0  0  0  0  0  0  0  0  0  0  0
   10.1571  -17.1859   29.6662 O   0  0  0  0  0  0  0  0  0  0  0  0
    8.4320  -16.1475   28.6609 O   0  0  0  0  0  0  0  0  0  0  0  0
  2  5  1  0
  2  1  1  1
  3  2  1  0
  4  3  1  0
  5  6  2  0
  7  8  1  0
  7  5  1  0
  8  9  1  6
  9 10  1  0
 10 11  2  0
 11 12  1  0
 13 12  2  0
 14 13  1  0
 15 14  2  0
 15 10  1  0
 16  8  1  0
 17 16  2  0
 18 16  1  0
 18 22  1  0
 19 20  1  0
 19 18  1  0
 20 21  1  0
 21 22  1  0
 22 23  1  1
 23 24  1  0
 25 23  2  0
M  END
$$$$
