CFP.pdb
     RDKit          3D

 25 26  0  0  1  0  0  0  0  0999 V2000
    7.6091  -18.2433   19.6249 N   0  0  0  0  0  0  0  0  0  0  0  0
    7.2866  -18.5445   20.9855 C   0  0  1  0  0  0  0  0  0  0  0  0
    7.8660  -19.8993   21.4148 C   0  0  0  0  0  0  0  0  0  0  0  0
    7.3140  -20.2025   23.1376 S   0  0  0  0  0  0  0  0  0  0  0  0
    7.8046  -17.5161   21.9202 C   0  0  0  0  0  0  0  0  0  0  0  0
    9.0204  -17.1800   21.7788 O   0  0  0  0  0  0  0  0  0  0  0  0
    6.9812  -16.9400   22.9195 N   0  0  0  0  0  0  0  0  0  0  0  0
    7.4447  -15.9555   23.8564 C   0  0  1  0  0  0  0  0  0  0  0  0
    6.3747  -14.9944   24.2628 C   0  0  0  0  0  0  0  0  0  0  0  0
    6.7532  -13.9870   25.2559 C   0  0  0  0  0  0  0  0  0  0  0  0
    7.3895  -12.8276   24.8484 C   0  0  0  0  0  0  0  0  0  0  0  0
    7.7316  -11.8700   25.7727 C   0  0  0  0  0  0  0  0  0  0  0  0
    7.4654  -12.0117   27.1181 C   0  0  0  0  0  0  0  0  0  0  0  0
    6.8271  -13.1721   27.5367 C   0  0  0  0  0  0  0  0  0  0  0  0
    6.4905  -14.1179   26.6146 C   0  0  0  0  0  0  0  0  0  0  0  0
    8.2171  -16.5458   24.9537 C   0  0  0  0  0  0  0  0  0  0  0  0
    7.6877  -17.5684   25.5421 O   0  0  0  0  0  0  0  0  0  0  0  0
    9.4641  -16.1568   25.4688 N   0  0  0  0  0  0  0  0  0  0  0  0
   10.1955  -14.9119   25.4268 C   0  0  0  0  0  0  0  0  0  0  0  0
   11.6786  -15.2711   25.5988 C   0  0  0  0  0  0  0  0  0  0  0  0
   11.6597  -16.7987   25.5276 C   0  0  0  0  0  0  0  0  0  0  0  0
   10.3582  -17.0395   26.2592 C   0  0  1  0  0  0  0  0  0  0  0  0
   10.4861  -16.5846   27.6472 C   0  0  0  0  0  0  0  0  0  0  0  0
   11.1686  -17.2099   28.6576 O   0  0  0  0  0  0  0  0  0  0  0  0
    9.9006  -15.4951   27.9392 O   0  0  0  0  0  0  0  0  0  0  0  0
  2  5  1  0
  2  1  1  6
  3  2  1  0
  4  3  1  0
  5  6  2  0
  7  8  1  0
  7  5  1  0
  8  9  1  1
  9 10  1  0
 10 11  2  0
 11 12  1  0
 13 12  2  0
 14 13  1  0
 15 14  2  0
 15 10  1  0
 16  8  1  0
 17 16  2  0
 18 16  1  0
 18 22  1  0
 19 20  1  0
 19 18  1  0
 20 21  1  0
 21 22  1  0
 22 23  1  1
 23 24  1  0
 25 23  2  0
M  END
$$$$
