CFP.pdb
     RDKit          3D

 25 26  0  0  1  0  0  0  0  0999 V2000
    4.1711  -20.3075   22.5939 N   0  0  0  0  0  0  0  0  0  0  0  0
    5.1082  -20.0543   23.6446 C   0  0  1  0  0  0  0  0  0  0  0  0
    6.3750  -20.9061   23.4866 C   0  0  0  0  0  0  0  0  0  0  0  0
    7.1719  -20.4041   21.9125 S   0  0  0  0  0  0  0  0  0  0  0  0
    5.5241  -18.6314   23.6875 C   0  0  0  0  0  0  0  0  0  0  0  0
    5.3302  -17.9504   22.6341 O   0  0  0  0  0  0  0  0  0  0  0  0
    6.1082  -18.0640   24.8474 N   0  0  0  0  0  0  0  0  0  0  0  0
    6.5629  -16.7040   24.9204 C   0  0  1  0  0  0  0  0  0  0  0  0
    6.5128  -16.1506   26.3078 C   0  0  0  0  0  0  0  0  0  0  0  0
    6.8165  -14.7248   26.4468 C   0  0  0  0  0  0  0  0  0  0  0  0
    8.1277  -14.3165   26.6180 C   0  0  0  0  0  0  0  0  0  0  0  0
    8.4217  -12.9790   26.7313 C   0  0  0  0  0  0  0  0  0  0  0  0
    7.4512  -12.0010   26.6815 C   0  0  0  0  0  0  0  0  0  0  0  0
    6.1322  -12.4012   26.5100 C   0  0  0  0  0  0  0  0  0  0  0  0
    5.8474  -13.7295   26.3983 C   0  0  0  0  0  0  0  0  0  0  0  0
    7.8217  -16.4943   24.1989 C   0  0  0  0  0  0  0  0  0  0  0  0
    8.6604  -17.4784   24.2116 O   0  0  0  0  0  0  0  0  0  0  0  0
    8.2578  -15.3647   23.4880 N   0  0  0  0  0  0  0  0  0  0  0  0
    7.8938  -13.9682   23.5499 C   0  0  0  0  0  0  0  0  0  0  0  0
    8.2254  -13.3694   22.1753 C   0  0  0  0  0  0  0  0  0  0  0  0
    8.5928  -14.6068   21.3550 C   0  0  0  0  0  0  0  0  0  0  0  0
    9.3054  -15.3873   22.4367 C   0  0  1  0  0  0  0  0  0  0  0  0
   10.5099  -14.6610   22.8509 C   0  0  0  0  0  0  0  0  0  0  0  0
   10.7549  -14.1095   24.0811 O   0  0  0  0  0  0  0  0  0  0  0  0
   11.4198  -14.5321   21.9730 O   0  0  0  0  0  0  0  0  0  0  0  0
  2  5  1  0
  2  1  1  6
  3  2  1  0
  4  3  1  0
  5  6  2  0
  7  8  1  0
  7  5  1  0
  8  9  1  1
  9 10  1  0
 10 11  2  0
 11 12  1  0
 13 12  2  0
 14 13  1  0
 15 14  2  0
 15 10  1  0
 16  8  1  0
 17 16  2  0
 18 16  1  0
 18 22  1  0
 19 20  1  0
 19 18  1  0
 20 21  1  0
 21 22  1  0
 22 23  1  1
 23 24  1  0
 25 23  2  0
M  END
$$$$
