CFP.pdb
     RDKit          3D

 25 26  0  0  1  0  0  0  0  0999 V2000
   12.1697  -16.5227   20.5479 N   0  0  0  0  0  0  0  0  0  0  0  0
   10.9072  -16.8693   21.1239 C   0  0  1  0  0  0  0  0  0  0  0  0
   10.8479  -18.3568   21.4969 C   0  0  0  0  0  0  0  0  0  0  0  0
   12.3013  -18.7066   22.5600 S   0  0  0  0  0  0  0  0  0  0  0  0
   10.6216  -16.0853   22.3500 C   0  0  0  0  0  0  0  0  0  0  0  0
   11.6218  -15.5879   22.9527 O   0  0  0  0  0  0  0  0  0  0  0  0
    9.2979  -15.9027   22.8221 N   0  0  0  0  0  0  0  0  0  0  0  0
    8.9711  -15.1153   23.9775 C   0  0  1  0  0  0  0  0  0  0  0  0
    7.6483  -14.4303   23.8558 C   0  0  0  0  0  0  0  0  0  0  0  0
    7.1942  -13.6868   25.0329 C   0  0  0  0  0  0  0  0  0  0  0  0
    6.4934  -14.3426   26.0299 C   0  0  0  0  0  0  0  0  0  0  0  0
    6.0798  -13.6550   27.1454 C   0  0  0  0  0  0  0  0  0  0  0  0
    6.3351  -12.3119   27.3239 C   0  0  0  0  0  0  0  0  0  0  0  0
    7.0378  -11.6451   26.3285 C   0  0  0  0  0  0  0  0  0  0  0  0
    7.4452  -12.3331   25.2245 C   0  0  0  0  0  0  0  0  0  0  0  0
    9.1973  -15.8396   25.2318 C   0  0  0  0  0  0  0  0  0  0  0  0
    9.0837  -17.1266   25.1790 O   0  0  0  0  0  0  0  0  0  0  0  0
    9.5214  -15.3338   26.5009 N   0  0  0  0  0  0  0  0  0  0  0  0
    9.1629  -14.1161   27.1902 C   0  0  0  0  0  0  0  0  0  0  0  0
   10.2719  -13.8549   28.2199 C   0  0  0  0  0  0  0  0  0  0  0  0
   11.3133  -14.9159   27.8612 C   0  0  0  0  0  0  0  0  0  0  0  0
   10.3695  -16.0390   27.4941 C   0  0  1  0  0  0  0  0  0  0  0  0
    9.6037  -16.4408   28.6782 C   0  0  0  0  0  0  0  0  0  0  0  0
    8.2499  -16.3284   28.8587 O   0  0  0  0  0  0  0  0  0  0  0  0
   10.2699  -16.9461   29.6353 O   0  0  0  0  0  0  0  0  0  0  0  0
  2  5  1  0
  2  1  1  1
  3  2  1  0
  4  3  1  0
  5  6  2  0
  7  8  1  0
  7  5  1  0
  8  9  1  6
  9 10  1  0
 10 11  2  0
 11 12  1  0
 13 12  2  0
 14 13  1  0
 15 14  2  0
 15 10  1  0
 16  8  1  0
 17 16  2  0
 18 16  1  0
 18 22  1  0
 19 20  1  0
 19 18  1  0
 20 21  1  0
 21 22  1  0
 22 23  1  1
 23 24  1  0
 25 23  2  0
M  END
$$$$
