CFP.pdb
     RDKit          3D

 25 26  0  0  1  0  0  0  0  0999 V2000
   11.4010  -16.5278   20.0444 N   0  0  0  0  0  0  0  0  0  0  0  0
   10.5118  -17.1115   21.0008 C   0  0  1  0  0  0  0  0  0  0  0  0
   11.0406  -18.4583   21.5125 C   0  0  0  0  0  0  0  0  0  0  0  0
    9.7237  -19.1962   22.5546 S   0  0  0  0  0  0  0  0  0  0  0  0
   10.3054  -16.2319   22.1770 C   0  0  0  0  0  0  0  0  0  0  0  0
   11.3376  -15.6665   22.6523 O   0  0  0  0  0  0  0  0  0  0  0  0
    9.0195  -16.0349   22.7393 N   0  0  0  0  0  0  0  0  0  0  0  0
    8.7735  -15.1953   23.8778 C   0  0  1  0  0  0  0  0  0  0  0  0
    7.4854  -14.4444   23.7757 C   0  0  0  0  0  0  0  0  0  0  0  0
    7.1208  -13.6250   24.9333 C   0  0  0  0  0  0  0  0  0  0  0  0
    7.4570  -12.2828   24.9566 C   0  0  0  0  0  0  0  0  0  0  0  0
    7.1023  -11.5040   26.0317 C   0  0  0  0  0  0  0  0  0  0  0  0
    6.4116  -12.0066   27.1139 C   0  0  0  0  0  0  0  0  0  0  0  0
    6.0697  -13.3528   27.0996 C   0  0  0  0  0  0  0  0  0  0  0  0
    6.4246  -14.1197   26.0300 C   0  0  0  0  0  0  0  0  0  0  0  0
    9.0031  -15.8911   25.1475 C   0  0  0  0  0  0  0  0  0  0  0  0
    8.7251  -17.1538   25.1676 O   0  0  0  0  0  0  0  0  0  0  0  0
    9.4851  -15.3801   26.3633 N   0  0  0  0  0  0  0  0  0  0  0  0
    9.2856  -14.1220   27.0443 C   0  0  0  0  0  0  0  0  0  0  0  0
   10.5054  -13.9205   27.9551 C   0  0  0  0  0  0  0  0  0  0  0  0
   11.4264  -15.0662   27.5332 C   0  0  0  0  0  0  0  0  0  0  0  0
   10.3716  -16.1230   27.2936 C   0  0  1  0  0  0  0  0  0  0  0  0
    9.6969  -16.4359   28.5573 C   0  0  0  0  0  0  0  0  0  0  0  0
   10.2557  -17.0164   29.6657 O   0  0  0  0  0  0  0  0  0  0  0  0
    8.4642  -16.1350   28.6273 O   0  0  0  0  0  0  0  0  0  0  0  0
  2  5  1  0
  2  1  1  6
  3  2  1  0
  4  3  1  0
  5  6  2  0
  7  8  1  0
  7  5  1  0
  8  9  1  1
  9 10  1  0
 10 11  2  0
 11 12  1  0
 13 12  2  0
 14 13  1  0
 15 14  2  0
 15 10  1  0
 16  8  1  0
 17 16  2  0
 18 16  1  0
 18 22  1  0
 19 20  1  0
 19 18  1  0
 20 21  1  0
 21 22  1  0
 22 23  1  1
 23 24  1  0
 25 23  2  0
M  END
$$$$
