CFP.pdb
     RDKit          3D

 25 26  0  0  1  0  0  0  0  0999 V2000
    3.8834  -20.1565   23.0023 N   0  0  0  0  0  0  0  0  0  0  0  0
    5.1550  -19.9612   23.6273 C   0  0  1  0  0  0  0  0  0  0  0  0
    6.2659  -20.7255   22.8946 C   0  0  0  0  0  0  0  0  0  0  0  0
    7.8235  -20.4345   23.8187 S   0  0  0  0  0  0  0  0  0  0  0  0
    5.5419  -18.5299   23.6651 C   0  0  0  0  0  0  0  0  0  0  0  0
    5.3104  -17.8506   22.6182 O   0  0  0  0  0  0  0  0  0  0  0  0
    6.1395  -17.9531   24.8134 N   0  0  0  0  0  0  0  0  0  0  0  0
    6.5877  -16.5903   24.8726 C   0  0  1  0  0  0  0  0  0  0  0  0
    6.5426  -16.0257   26.2557 C   0  0  0  0  0  0  0  0  0  0  0  0
    6.8194  -14.5930   26.3788 C   0  0  0  0  0  0  0  0  0  0  0  0
    8.1290  -14.1513   26.4501 C   0  0  0  0  0  0  0  0  0  0  0  0
    8.3966  -12.8070   26.5478 C   0  0  0  0  0  0  0  0  0  0  0  0
    7.4002  -11.8545   26.5790 C   0  0  0  0  0  0  0  0  0  0  0  0
    6.0827  -12.2882   26.5080 C   0  0  0  0  0  0  0  0  0  0  0  0
    5.8242  -13.6231   26.4112 C   0  0  0  0  0  0  0  0  0  0  0  0
    7.8413  -16.3803   24.1423 C   0  0  0  0  0  0  0  0  0  0  0  0
    8.6926  -17.3532   24.1732 O   0  0  0  0  0  0  0  0  0  0  0  0
    8.2607  -15.2609   23.4057 N   0  0  0  0  0  0  0  0  0  0  0  0
    7.9890  -13.8479   23.5322 C   0  0  0  0  0  0  0  0  0  0  0  0
    8.1988  -13.2367   22.1391 C   0  0  0  0  0  0  0  0  0  0  0  0
    8.3979  -14.4734   21.2616 C   0  0  0  0  0  0  0  0  0  0  0  0
    9.1803  -15.3182   22.2419 C   0  0  1  0  0  0  0  0  0  0  0  0
   10.4644  -14.6714   22.5288 C   0  0  0  0  0  0  0  0  0  0  0  0
   11.5313  -14.5485   21.6776 O   0  0  0  0  0  0  0  0  0  0  0  0
   10.5974  -14.1735   23.6905 O   0  0  0  0  0  0  0  0  0  0  0  0
  2  5  1  0
  2  1  1  6
  3  2  1  0
  4  3  1  0
  5  6  2  0
  7  8  1  0
  7  5  1  0
  8  9  1  1
  9 10  1  0
 10 11  2  0
 11 12  1  0
 13 12  2  0
 14 13  1  0
 15 14  2  0
 15 10  1  0
 16  8  1  0
 17 16  2  0
 18 16  1  0
 18 22  1  0
 19 20  1  0
 19 18  1  0
 20 21  1  0
 21 22  1  0
 22 23  1  1
 23 24  1  0
 25 23  2  0
M  END
$$$$
