LVL.pdb
     RDKit          3D

 24 23  0  0  1  0  0  0  0  0999 V2000
   21.4082  -29.5484  -14.2032 C   0  0  0  0  0  0  0  0  0  0  0  0
   20.7747  -30.9095  -14.0958 C   0  0  2  0  0  0  0  0  0  0  0  0
   19.7054  -30.8734  -13.0543 C   0  0  0  0  0  0  0  0  0  0  0  0
   21.8575  -31.9413  -13.7628 C   0  0  0  0  0  0  0  0  0  0  0  0
   22.8282  -31.9234  -14.9163 C   0  0  2  0  0  0  0  0  0  0  0  0
   22.1077  -32.3271  -16.1065 N   0  0  0  0  0  0  0  0  0  0  0  0
   23.9531  -32.8654  -14.7227 C   0  0  0  0  0  0  0  0  0  0  0  0
   23.7989  -34.1245  -14.7135 O   0  0  0  0  0  0  0  0  0  0  0  0
   27.1504  -33.0739  -16.7669 C   0  0  0  0  0  0  0  0  0  0  0  0
   27.5168  -32.9731  -15.3183 C   0  0  2  0  0  0  0  0  0  0  0  0
   28.6757  -33.9683  -15.1158 C   0  0  0  0  0  0  0  0  0  0  0  0
   26.4219  -33.3456  -14.3841 C   0  0  2  0  0  0  0  0  0  0  0  0
   25.2861  -32.4166  -14.5337 N   0  0  0  0  0  0  0  0  0  0  0  0
   26.8347  -33.3690  -12.9548 C   0  0  0  0  0  0  0  0  0  0  0  0
   27.3763  -32.3517  -12.4217 O   0  0  0  0  0  0  0  0  0  0  0  0
   27.1511  -32.4678   -8.0855 C   0  0  0  0  0  0  0  0  0  0  0  0
   25.9278  -32.9930   -8.7618 C   0  0  1  0  0  0  0  0  0  0  0  0
   24.7279  -32.0818   -8.4684 C   0  0  0  0  0  0  0  0  0  0  0  0
   26.0138  -33.3467  -10.1834 C   0  0  0  0  0  0  0  0  0  0  0  0
   26.9554  -34.4071  -10.6570 C   0  0  2  0  0  0  0  0  0  0  0  0
   26.6563  -34.4805  -12.1199 N   0  0  0  0  0  0  0  0  0  0  0  0
   26.8200  -35.7197  -10.0654 C   0  0  0  0  0  0  0  0  0  0  0  0
   25.8909  -36.6383  -10.4745 O   0  0  0  0  0  0  0  0  0  0  0  0
   27.5859  -36.0616   -9.1101 O   0  0  0  0  0  0  0  0  0  0  0  0
  2  1  1  1
  2  3  1  0
  4  2  1  0
  4  5  1  0
  5  7  1  0
  5  6  1  6
  7  8  2  0
 10  9  1  6
 10 12  1  0
 10 11  1  0
 13  7  1  0
 12 13  1  1
 14 15  2  0
 14 12  1  0
 17 16  1  6
 17 19  1  0
 18 17  1  0
 20 19  1  1
 20 21  1  0
 21 14  1  0
 22 20  1  0
 22 23  1  0
 24 22  2  0
M  END
$$$$
