LVL.pdb
     RDKit          3D

 24 23  0  0  1  0  0  0  0  0999 V2000
   24.2440  -19.3977  -19.5701 C   0  0  0  0  0  0  0  0  0  0  0  0
   25.2746  -20.4153  -19.1603 C   0  0  2  0  0  0  0  0  0  0  0  0
   25.5643  -21.3148  -20.3163 C   0  0  0  0  0  0  0  0  0  0  0  0
   24.7536  -21.1964  -17.9492 C   0  0  0  0  0  0  0  0  0  0  0  0
   24.5227  -20.1815  -16.8585 C   0  0  2  0  0  0  0  0  0  0  0  0
   25.7280  -19.3881  -16.7307 N   0  0  0  0  0  0  0  0  0  0  0  0
   24.2511  -20.8127  -15.5478 C   0  0  0  0  0  0  0  0  0  0  0  0
   23.5103  -21.8345  -15.4195 O   0  0  0  0  0  0  0  0  0  0  0  0
   26.8795  -21.3455  -12.4884 C   0  0  0  0  0  0  0  0  0  0  0  0
   25.6057  -20.6742  -12.0768 C   0  0  2  0  0  0  0  0  0  0  0  0
   25.2208  -21.3115  -10.7276 C   0  0  0  0  0  0  0  0  0  0  0  0
   24.4754  -20.8776  -13.0209 C   0  0  2  0  0  0  0  0  0  0  0  0
   24.8063  -20.3112  -14.3418 N   0  0  0  0  0  0  0  0  0  0  0  0
   23.1914  -20.2867  -12.5558 C   0  0  0  0  0  0  0  0  0  0  0  0
   23.1181  -19.0552  -12.2551 O   0  0  0  0  0  0  0  0  0  0  0  0
   19.1938  -17.4106  -12.3193 C   0  0  0  0  0  0  0  0  0  0  0  0
   19.3084  -18.5656  -13.2587 C   0  0  1  0  0  0  0  0  0  0  0  0
   19.0051  -18.1132  -14.6938 C   0  0  0  0  0  0  0  0  0  0  0  0
   20.5105  -19.4044  -13.1900 C   0  0  0  0  0  0  0  0  0  0  0  0
   20.7174  -20.3617  -12.0604 C   0  0  2  0  0  0  0  0  0  0  0  0
   22.0069  -21.0243  -12.4251 N   0  0  0  0  0  0  0  0  0  0  0  0
   19.6964  -21.3642  -11.8516 C   0  0  0  0  0  0  0  0  0  0  0  0
   19.7672  -22.6306  -12.3673 O   0  0  0  0  0  0  0  0  0  0  0  0
   18.6660  -21.0796  -11.1635 O   0  0  0  0  0  0  0  0  0  0  0  0
  2  1  1  6
  2  3  1  0
  4  2  1  0
  4  5  1  0
  5  7  1  0
  5  6  1  1
  7  8  2  0
 10  9  1  6
 10 12  1  0
 10 11  1  0
 13  7  1  0
 12 13  1  6
 14 15  2  0
 14 12  1  0
 17 16  1  1
 17 19  1  0
 18 17  1  0
 20 19  1  6
 20 21  1  0
 21 14  1  0
 22 20  1  0
 22 23  1  0
 24 22  2  0
M  END
$$$$
