LVL.pdb
     RDKit          3D

 24 23  0  0  1  0  0  0  0  0999 V2000
   17.9988  -14.5840  -19.5832 C   0  0  0  0  0  0  0  0  0  0  0  0
   17.0453  -14.2068  -18.4813 C   0  0  2  0  0  0  0  0  0  0  0  0
   15.7869  -13.6725  -19.0815 C   0  0  0  0  0  0  0  0  0  0  0  0
   17.7190  -13.1793  -17.5657 C   0  0  0  0  0  0  0  0  0  0  0  0
   18.9153  -13.8704  -16.9620 C   0  0  2  0  0  0  0  0  0  0  0  0
   18.4273  -14.9407  -16.1165 N   0  0  0  0  0  0  0  0  0  0  0  0
   19.7290  -12.9620  -16.1237 C   0  0  0  0  0  0  0  0  0  0  0  0
   19.3421  -12.5452  -14.9897 O   0  0  0  0  0  0  0  0  0  0  0  0
   23.6371  -13.2148  -15.2972 C   0  0  0  0  0  0  0  0  0  0  0  0
   23.2525  -11.8797  -15.8563 C   0  0  2  0  0  0  0  0  0  0  0  0
   24.0444  -10.8446  -15.0341 C   0  0  0  0  0  0  0  0  0  0  0  0
   21.8064  -11.5585  -15.7303 C   0  0  2  0  0  0  0  0  0  0  0  0
   21.0038  -12.4959  -16.5381 N   0  0  0  0  0  0  0  0  0  0  0  0
   21.4636  -10.1674  -16.1319 C   0  0  0  0  0  0  0  0  0  0  0  0
   21.2948   -9.8707  -17.3549 O   0  0  0  0  0  0  0  0  0  0  0  0
   19.2414   -6.1878  -18.0353 C   0  0  0  0  0  0  0  0  0  0  0  0
   18.7680   -6.8534  -16.7852 C   0  0  1  0  0  0  0  0  0  0  0  0
   17.2779   -7.2023  -16.9027 C   0  0  0  0  0  0  0  0  0  0  0  0
   19.5531   -7.9715  -16.2496 C   0  0  0  0  0  0  0  0  0  0  0  0
   20.9118   -7.7484  -15.6670 C   0  0  2  0  0  0  0  0  0  0  0  0
   21.3033   -9.1189  -15.2158 N   0  0  0  0  0  0  0  0  0  0  0  0
   21.0094   -6.8242  -14.5591 C   0  0  0  0  0  0  0  0  0  0  0  0
   21.0360   -7.2193  -13.2485 O   0  0  0  0  0  0  0  0  0  0  0  0
   21.0679   -5.5745  -14.7851 O   0  0  0  0  0  0  0  0  0  0  0  0
  2  1  1  6
  2  3  1  0
  4  2  1  0
  4  5  1  0
  5  7  1  0
  5  6  1  1
  7  8  2  0
 10  9  1  1
 10 12  1  0
 10 11  1  0
 13  7  1  0
 12 13  1  6
 14 15  2  0
 14 12  1  0
 17 16  1  6
 17 19  1  0
 18 17  1  0
 20 19  1  1
 20 21  1  0
 21 14  1  0
 22 20  1  0
 22 23  1  0
 24 22  2  0
M  END
$$$$
