LVL.pdb
     RDKit          3D

 24 23  0  0  1  0  0  0  0  0999 V2000
   21.0133  -16.7964  -14.4759 C   0  0  0  0  0  0  0  0  0  0  0  0
   22.2184  -17.1811  -15.2915 C   0  0  2  0  0  0  0  0  0  0  0  0
   21.8121  -17.3535  -16.7179 C   0  0  0  0  0  0  0  0  0  0  0  0
   22.8252  -18.4644  -14.7145 C   0  0  0  0  0  0  0  0  0  0  0  0
   24.2215  -18.5616  -15.2749 C   0  0  2  0  0  0  0  0  0  0  0  0
   24.1105  -18.8455  -16.6911 N   0  0  0  0  0  0  0  0  0  0  0  0
   25.0059  -19.6506  -14.6515 C   0  0  0  0  0  0  0  0  0  0  0  0
   24.7299  -20.8773  -14.8202 O   0  0  0  0  0  0  0  0  0  0  0  0
   28.5283  -20.4559  -15.1784 C   0  0  0  0  0  0  0  0  0  0  0  0
   28.3547  -20.3468  -13.6949 C   0  0  2  0  0  0  0  0  0  0  0  0
   29.1534  -21.5220  -13.0986 C   0  0  0  0  0  0  0  0  0  0  0  0
   26.9463  -20.4669  -13.2343 C   0  0  2  0  0  0  0  0  0  0  0  0
   26.1253  -19.3901  -13.8189 N   0  0  0  0  0  0  0  0  0  0  0  0
   26.7941  -20.4337  -11.7545 C   0  0  0  0  0  0  0  0  0  0  0  0
   27.7713  -20.1093  -11.0113 O   0  0  0  0  0  0  0  0  0  0  0  0
   28.3155  -20.4626   -7.7135 C   0  0  0  0  0  0  0  0  0  0  0  0
   26.9054  -19.9714   -7.7285 C   0  0  1  0  0  0  0  0  0  0  0  0
   26.7883  -18.6730   -6.9181 C   0  0  0  0  0  0  0  0  0  0  0  0
   26.2128  -19.8776   -9.0187 C   0  0  0  0  0  0  0  0  0  0  0  0
   25.5765  -21.0796   -9.6397 C   0  0  2  0  0  0  0  0  0  0  0  0
   25.5963  -20.7443  -11.0965 N   0  0  0  0  0  0  0  0  0  0  0  0
   24.2258  -21.3949   -9.2305 C   0  0  0  0  0  0  0  0  0  0  0  0
   23.9264  -22.0774   -8.0820 O   0  0  0  0  0  0  0  0  0  0  0  0
   23.2476  -21.0379   -9.9597 O   0  0  0  0  0  0  0  0  0  0  0  0
  2  1  1  1
  2  3  1  0
  4  2  1  0
  4  5  1  0
  5  7  1  0
  5  6  1  6
  7  8  2  0
 10  9  1  6
 10 12  1  0
 10 11  1  0
 13  7  1  0
 12 13  1  6
 14 15  2  0
 14 12  1  0
 17 16  1  6
 17 19  1  0
 18 17  1  0
 20 19  1  1
 20 21  1  0
 21 14  1  0
 22 20  1  0
 22 23  1  0
 24 22  2  0
M  END
$$$$
