LVL.pdb
     RDKit          3D

 24 23  0  0  1  0  0  0  0  0999 V2000
   32.5813  -29.0872    5.6829 C   0  0  0  0  0  0  0  0  0  0  0  0
   34.0775  -29.1932    5.8072 C   0  0  2  0  0  0  0  0  0  0  0  0
   34.4148  -30.2737    6.7809 C   0  0  0  0  0  0  0  0  0  0  0  0
   34.6413  -27.8374    6.2453 C   0  0  0  0  0  0  0  0  0  0  0  0
   34.2957  -26.8612    5.1494 C   0  0  2  0  0  0  0  0  0  0  0  0
   35.1586  -27.1413    4.0200 N   0  0  0  0  0  0  0  0  0  0  0  0
   34.5170  -25.4553    5.5548 C   0  0  0  0  0  0  0  0  0  0  0  0
   35.6681  -24.9228    5.5820 O   0  0  0  0  0  0  0  0  0  0  0  0
   32.4251  -22.3538    4.2296 C   0  0  0  0  0  0  0  0  0  0  0  0
   32.5119  -22.3753    5.7245 C   0  0  2  0  0  0  0  0  0  0  0  0
   32.7283  -20.9091    6.1463 C   0  0  0  0  0  0  0  0  0  0  0  0
   33.6422  -23.1796    6.2591 C   0  0  2  0  0  0  0  0  0  0  0  0
   33.4472  -24.6067    5.9418 N   0  0  0  0  0  0  0  0  0  0  0  0
   33.8367  -23.0391    7.7276 C   0  0  0  0  0  0  0  0  0  0  0  0
   33.0014  -23.5416    8.5413 O   0  0  0  0  0  0  0  0  0  0  0  0
   38.7237  -23.6328   10.0210 C   0  0  0  0  0  0  0  0  0  0  0  0
   37.2400  -23.6122    9.8545 C   0  0  1  0  0  0  0  0  0  0  0  0
   36.5951  -24.7062   10.7168 C   0  0  0  0  0  0  0  0  0  0  0  0
   36.5410  -22.3284    9.9833 C   0  0  0  0  0  0  0  0  0  0  0  0
   35.0626  -22.2335    9.7820 C   0  0  2  0  0  0  0  0  0  0  0  0
   34.9252  -22.3663    8.2993 N   0  0  0  0  0  0  0  0  0  0  0  0
   34.4145  -21.0189   10.2246 C   0  0  0  0  0  0  0  0  0  0  0  0
   33.9948  -20.8149   11.5118 O   0  0  0  0  0  0  0  0  0  0  0  0
   34.2050  -20.0789    9.3948 O   0  0  0  0  0  0  0  0  0  0  0  0
  2  1  1  1
  2  3  1  0
  4  2  1  0
  4  5  1  0
  5  7  1  0
  5  6  1  6
  7  8  2  0
 10  9  1  6
 10 12  1  0
 10 11  1  0
 13  7  1  0
 12 13  1  1
 14 15  2  0
 14 12  1  0
 17 16  1  1
 17 19  1  0
 18 17  1  0
 20 19  1  6
 20 21  1  0
 21 14  1  0
 22 20  1  0
 22 23  1  0
 24 22  2  0
M  END
$$$$
