LVL.pdb
     RDKit          3D

 24 23  0  0  1  0  0  0  0  0999 V2000
   20.5336  -17.9669  -12.7062 C   0  0  0  0  0  0  0  0  0  0  0  0
   19.9426  -19.2590  -12.2093 C   0  0  2  0  0  0  0  0  0  0  0  0
   18.6889  -18.9674  -11.4526 C   0  0  0  0  0  0  0  0  0  0  0  0
   20.9766  -19.9811  -11.3390 C   0  0  0  0  0  0  0  0  0  0  0  0
   22.1656  -20.2471  -12.2272 C   0  0  2  0  0  0  0  0  0  0  0  0
   21.7487  -21.1770  -13.2568 N   0  0  0  0  0  0  0  0  0  0  0  0
   23.2950  -20.8577  -11.4913 C   0  0  0  0  0  0  0  0  0  0  0  0
   23.1929  -21.9590  -10.8699 O   0  0  0  0  0  0  0  0  0  0  0  0
   26.4128  -22.0672  -12.9689 C   0  0  0  0  0  0  0  0  0  0  0  0
   26.7978  -21.1167  -11.8775 C   0  0  2  0  0  0  0  0  0  0  0  0
   28.0255  -21.7490  -11.1938 C   0  0  0  0  0  0  0  0  0  0  0  0
   25.7481  -20.9159  -10.8440 C   0  0  2  0  0  0  0  0  0  0  0  0
   24.5741  -20.2455  -11.4335 N   0  0  0  0  0  0  0  0  0  0  0  0
   26.2070  -20.1286   -9.6678 C   0  0  0  0  0  0  0  0  0  0  0  0
   26.1772  -18.8594   -9.6879 O   0  0  0  0  0  0  0  0  0  0  0  0
   27.5890  -18.3379   -4.7380 C   0  0  0  0  0  0  0  0  0  0  0  0
   27.6560  -19.8088   -4.9864 C   0  0  1  0  0  0  0  0  0  0  0  0
   27.1947  -20.5779   -3.7407 C   0  0  0  0  0  0  0  0  0  0  0  0
   27.0499  -20.3377   -6.2138 C   0  0  0  0  0  0  0  0  0  0  0  0
   27.5847  -19.9640   -7.5589 C   0  0  2  0  0  0  0  0  0  0  0  0
   26.6861  -20.7149   -8.4883 N   0  0  0  0  0  0  0  0  0  0  0  0
   28.9634  -20.3009   -7.8361 C   0  0  0  0  0  0  0  0  0  0  0  0
   30.0017  -19.4244   -7.6678 O   0  0  0  0  0  0  0  0  0  0  0  0
   29.2537  -21.4616   -8.2657 O   0  0  0  0  0  0  0  0  0  0  0  0
  2  1  1  1
  2  3  1  0
  4  2  1  0
  4  5  1  0
  5  7  1  0
  5  6  1  6
  7  8  2  0
 10  9  1  6
 10 12  1  0
 10 11  1  0
 13  7  1  0
 12 13  1  6
 14 15  2  0
 14 12  1  0
 17 16  1  1
 17 19  1  0
 18 17  1  0
 20 19  1  1
 20 21  1  0
 21 14  1  0
 22 20  1  0
 22 23  1  0
 24 22  2  0
M  END
$$$$
