LVL.pdb
     RDKit          3D

 24 23  0  0  1  0  0  0  0  0999 V2000
   29.0778  -18.5104  -16.6700 C   0  0  0  0  0  0  0  0  0  0  0  0
   28.1986  -17.2913  -16.7504 C   0  0  2  0  0  0  0  0  0  0  0  0
   29.0522  -16.0811  -16.9404 C   0  0  0  0  0  0  0  0  0  0  0  0
   27.3549  -17.1970  -15.4748 C   0  0  0  0  0  0  0  0  0  0  0  0
   26.6823  -18.5365  -15.3121 C   0  0  2  0  0  0  0  0  0  0  0  0
   25.7646  -18.7076  -16.4199 N   0  0  0  0  0  0  0  0  0  0  0  0
   25.9041  -18.6292  -14.0568 C   0  0  0  0  0  0  0  0  0  0  0  0
   25.3908  -17.6158  -13.4922 O   0  0  0  0  0  0  0  0  0  0  0  0
   22.7267  -20.2153  -13.6786 C   0  0  0  0  0  0  0  0  0  0  0  0
   23.5893  -20.8216  -12.6150 C   0  0  2  0  0  0  0  0  0  0  0  0
   22.6868  -20.9440  -11.3720 C   0  0  0  0  0  0  0  0  0  0  0  0
   24.7719  -19.9998  -12.2458 C   0  0  2  0  0  0  0  0  0  0  0  0
   25.6808  -19.8672  -13.3998 N   0  0  0  0  0  0  0  0  0  0  0  0
   25.5408  -20.5394  -11.0918 C   0  0  0  0  0  0  0  0  0  0  0  0
   26.0852  -21.6847  -11.1566 O   0  0  0  0  0  0  0  0  0  0  0  0
   28.9954  -20.3538   -6.7196 C   0  0  0  0  0  0  0  0  0  0  0  0
   27.6897  -19.6293   -6.7137 C   0  0  1  0  0  0  0  0  0  0  0  0
   27.8047  -18.3371   -5.8933 C   0  0  0  0  0  0  0  0  0  0  0  0
   27.0089  -19.4075   -7.9946 C   0  0  0  0  0  0  0  0  0  0  0  0
   26.2701  -20.5147   -8.6753 C   0  0  2  0  0  0  0  0  0  0  0  0
   25.7169  -19.8407   -9.8897 N   0  0  0  0  0  0  0  0  0  0  0  0
   25.1979  -21.1429   -7.9356 C   0  0  0  0  0  0  0  0  0  0  0  0
   25.3532  -22.2996   -7.2198 O   0  0  0  0  0  0  0  0  0  0  0  0
   24.0396  -20.6189   -7.9389 O   0  0  0  0  0  0  0  0  0  0  0  0
  2  1  1  1
  2  3  1  0
  4  2  1  0
  4  5  1  0
  5  7  1  0
  5  6  1  6
  7  8  2  0
 10  9  1  6
 10 12  1  0
 10 11  1  0
 13  7  1  0
 12 13  1  6
 14 15  2  0
 14 12  1  0
 17 16  1  6
 17 19  1  0
 18 17  1  0
 20 19  1  1
 20 21  1  0
 21 14  1  0
 22 20  1  0
 22 23  1  0
 24 22  2  0
M  END
$$$$
