LVL.pdb
     RDKit          3D

 24 23  0  0  1  0  0  0  0  0999 V2000
   27.8001  -22.8522  -15.7151 C   0  0  0  0  0  0  0  0  0  0  0  0
   27.9002  -21.4569  -16.2707 C   0  0  2  0  0  0  0  0  0  0  0  0
   29.2620  -21.2543  -16.8485 C   0  0  0  0  0  0  0  0  0  0  0  0
   27.6009  -20.4504  -15.1548 C   0  0  0  0  0  0  0  0  0  0  0  0
   26.2519  -20.8264  -14.5963 C   0  0  2  0  0  0  0  0  0  0  0  0
   25.2468  -20.4187  -15.5566 N   0  0  0  0  0  0  0  0  0  0  0  0
   25.9612  -20.1455  -13.3150 C   0  0  0  0  0  0  0  0  0  0  0  0
   26.0073  -18.8846  -13.1829 O   0  0  0  0  0  0  0  0  0  0  0  0
   23.0077  -19.8034   -9.5991 C   0  0  0  0  0  0  0  0  0  0  0  0
   23.6173  -20.3628  -10.8474 C   0  0  2  0  0  0  0  0  0  0  0  0
   23.3018  -21.8709  -10.8205 C   0  0  0  0  0  0  0  0  0  0  0  0
   25.0930  -20.2027  -10.9311 C   0  0  2  0  0  0  0  0  0  0  0  0
   25.6095  -20.8651  -12.1434 N   0  0  0  0  0  0  0  0  0  0  0  0
   25.8222  -20.7351   -9.7484 C   0  0  0  0  0  0  0  0  0  0  0  0
   26.1575  -21.9586   -9.6926 O   0  0  0  0  0  0  0  0  0  0  0  0
   29.4603  -18.4952   -5.3771 C   0  0  0  0  0  0  0  0  0  0  0  0
   28.6068  -19.6416   -5.8097 C   0  0  1  0  0  0  0  0  0  0  0  0
   27.7755  -20.1586   -4.6274 C   0  0  0  0  0  0  0  0  0  0  0  0
   27.7981  -19.4900   -7.0248 C   0  0  0  0  0  0  0  0  0  0  0  0
   26.8282  -20.5491   -7.4407 C   0  0  2  0  0  0  0  0  0  0  0  0
   26.1837  -19.9465   -8.6475 N   0  0  0  0  0  0  0  0  0  0  0  0
   25.8126  -20.9248   -6.4822 C   0  0  0  0  0  0  0  0  0  0  0  0
   25.8827  -22.0565   -5.7148 O   0  0  0  0  0  0  0  0  0  0  0  0
   24.7881  -20.1879   -6.3292 O   0  0  0  0  0  0  0  0  0  0  0  0
  2  1  1  1
  2  3  1  0
  4  2  1  0
  4  5  1  0
  5  7  1  0
  5  6  1  6
  7  8  2  0
 10  9  1  1
 10 12  1  0
 10 11  1  0
 13  7  1  0
 12 13  1  6
 14 15  2  0
 14 12  1  0
 17 16  1  1
 17 19  1  0
 18 17  1  0
 20 19  1  1
 20 21  1  0
 21 14  1  0
 22 20  1  0
 22 23  1  0
 24 22  2  0
M  END
$$$$
