LWV.pdb
     RDKit          3D

 30 31  0  0  1  0  0  0  0  0999 V2000
   32.1503  -21.8203  -12.5420 C   0  0  0  0  0  0  0  0  0  0  0  0
   30.9448  -20.9483  -12.8326 C   0  0  1  0  0  0  0  0  0  0  0  0
   30.6428  -21.0537  -14.2977 C   0  0  0  0  0  0  0  0  0  0  0  0
   29.8348  -21.3713  -11.9405 C   0  0  0  0  0  0  0  0  0  0  0  0
   28.5682  -20.5777  -12.1346 C   0  0  2  0  0  0  0  0  0  0  0  0
   28.7485  -19.1716  -11.9062 N   0  0  0  0  0  0  0  0  0  0  0  0
   27.5248  -21.0414  -11.1642 C   0  0  0  0  0  0  0  0  0  0  0  0
   27.4636  -22.2689  -10.8085 O   0  0  0  0  0  0  0  0  0  0  0  0
   26.5637  -20.1643  -10.5944 N   0  0  0  0  0  0  0  0  0  0  0  0
   25.3372  -20.7049   -9.9490 C   0  0  1  0  0  0  0  0  0  0  0  0
   25.1163  -19.9685   -8.6564 C   0  0  0  0  0  0  0  0  0  0  0  0
   26.3267  -19.6229   -7.9016 C   0  0  0  0  0  0  0  0  0  0  0  0
   27.2643  -18.6546   -8.1896 C   0  0  0  0  0  0  0  0  0  0  0  0
   28.2457  -18.6628   -7.2786 N   0  0  0  0  0  0  0  0  0  0  0  0
   27.9816  -19.6325   -6.3698 C   0  0  0  0  0  0  0  0  0  0  0  0
   28.6652  -20.0532   -5.2427 C   0  0  0  0  0  0  0  0  0  0  0  0
   28.1782  -21.0918   -4.4565 C   0  0  0  0  0  0  0  0  0  0  0  0
   27.0024  -21.6827   -4.8349 C   0  0  0  0  0  0  0  0  0  0  0  0
   26.3298  -21.2651   -5.9487 C   0  0  0  0  0  0  0  0  0  0  0  0
   26.7943  -20.2319   -6.7490 C   0  0  0  0  0  0  0  0  0  0  0  0
   24.2058  -20.4773  -10.8619 C   0  0  0  0  0  0  0  0  0  0  0  0
   24.0565  -19.2860  -11.3051 O   0  0  0  0  0  0  0  0  0  0  0  0
   23.5542  -22.1740  -14.0229 C   0  0  0  0  0  0  0  0  0  0  0  0
   22.2366  -22.1181  -13.3084 C   0  0  1  0  0  0  0  0  0  0  0  0
   21.9504  -23.4237  -12.6399 C   0  0  0  0  0  0  0  0  0  0  0  0
   22.2344  -21.0332  -12.2219 C   0  0  2  0  0  0  0  0  0  0  0  0
   23.2781  -21.4273  -11.3003 N   0  0  0  0  0  0  0  0  0  0  0  0
   20.9076  -20.8895  -11.6185 C   0  0  0  0  0  0  0  0  0  0  0  0
   19.8581  -20.2351  -12.2987 O   0  0  0  0  0  0  0  0  0  0  0  0
   20.6150  -21.3248  -10.4858 O   0  0  0  0  0  0  0  0  0  0  0  0
  2  1  1  6
  2  3  1  0
  4  2  1  0
  5  6  1  1
  5  4  1  0
  7  5  1  0
  8  7  2  0
  9  7  1  0
 10 21  1  0
 10  9  1  0
 11 12  1  0
 10 11  1  1
 12 20  1  0
 13 12  2  0
 13 14  1  0
 14 15  1  0
 15 16  1  0
 16 17  2  0
 18 17  1  0
 19 18  2  0
 20 15  2  0
 20 19  1  0
 21 27  1  0
 22 21  2  0
 24 23  1  1
 24 25  1  0
 26 24  1  0
 26 28  1  0
 26 27  1  1
 28 30  2  0
 28 29  1  0
M  END
$$$$
