LWV.pdb
     RDKit          3D

 30 31  0  0  1  0  0  0  0  0999 V2000
   30.4036  -22.4918  -16.3790 C   0  0  0  0  0  0  0  0  0  0  0  0
   29.4870  -21.3106  -16.1281 C   0  0  1  0  0  0  0  0  0  0  0  0
   28.9825  -20.8292  -17.4557 C   0  0  0  0  0  0  0  0  0  0  0  0
   28.4250  -21.7350  -15.1800 C   0  0  0  0  0  0  0  0  0  0  0  0
   27.5030  -20.6168  -14.7661 C   0  0  2  0  0  0  0  0  0  0  0  0
   28.2024  -19.4887  -14.2183 N   0  0  0  0  0  0  0  0  0  0  0  0
   26.5648  -21.1000  -13.7023 C   0  0  0  0  0  0  0  0  0  0  0  0
   26.0061  -22.2471  -13.7964 O   0  0  0  0  0  0  0  0  0  0  0  0
   26.2478  -20.3295  -12.5518 N   0  0  0  0  0  0  0  0  0  0  0  0
   25.3323  -20.8689  -11.5107 C   0  0  1  0  0  0  0  0  0  0  0  0
   25.6614  -20.2087  -10.2001 C   0  0  0  0  0  0  0  0  0  0  0  0
   26.9717  -20.5398   -9.6277 C   0  0  0  0  0  0  0  0  0  0  0  0
   27.9515  -21.3539  -10.1539 C   0  0  0  0  0  0  0  0  0  0  0  0
   28.9959  -21.4344   -9.3199 N   0  0  0  0  0  0  0  0  0  0  0  0
   28.7332  -20.6783   -8.2265 C   0  0  0  0  0  0  0  0  0  0  0  0
   29.4685  -20.4209   -7.0830 C   0  0  0  0  0  0  0  0  0  0  0  0
   28.9700  -19.5930   -6.0830 C   0  0  0  0  0  0  0  0  0  0  0  0
   27.7298  -19.0426   -6.2680 C   0  0  0  0  0  0  0  0  0  0  0  0
   27.0062  -19.2990   -7.3983 C   0  0  0  0  0  0  0  0  0  0  0  0
   27.4808  -20.1208   -8.4098 C   0  0  0  0  0  0  0  0  0  0  0  0
   23.9526  -20.5468  -11.9083 C   0  0  0  0  0  0  0  0  0  0  0  0
   23.6860  -19.3108  -12.1064 O   0  0  0  0  0  0  0  0  0  0  0  0
   22.1922  -21.4171  -14.8400 C   0  0  0  0  0  0  0  0  0  0  0  0
   21.2169  -21.7045  -13.7373 C   0  0  1  0  0  0  0  0  0  0  0  0
   21.2062  -23.1646  -13.4184 C   0  0  0  0  0  0  0  0  0  0  0  0
   21.5894  -20.9540  -12.4506 C   0  0  2  0  0  0  0  0  0  0  0  0
   22.9020  -21.4500  -12.0970 N   0  0  0  0  0  0  0  0  0  0  0  0
   20.5680  -21.1350  -11.4165 C   0  0  0  0  0  0  0  0  0  0  0  0
   19.3258  -20.4685  -11.4862 O   0  0  0  0  0  0  0  0  0  0  0  0
   20.7180  -21.8741  -10.4219 O   0  0  0  0  0  0  0  0  0  0  0  0
  2  1  1  6
  2  3  1  0
  4  2  1  0
  5  6  1  1
  5  4  1  0
  7  5  1  0
  8  7  2  0
  9  7  1  0
 10 21  1  0
 10  9  1  0
 11 12  1  0
 10 11  1  1
 12 20  1  0
 13 12  2  0
 13 14  1  0
 14 15  1  0
 15 16  1  0
 16 17  2  0
 18 17  1  0
 19 18  2  0
 20 15  2  0
 20 19  1  0
 21 27  1  0
 22 21  2  0
 24 23  1  6
 24 25  1  0
 26 24  1  0
 26 28  1  0
 26 27  1  1
 28 30  2  0
 28 29  1  0
M  END
$$$$
