LWV.pdb
     RDKit          3D

 30 31  0  0  1  0  0  0  0  0999 V2000
   27.0705  -17.4950  -17.5499 C   0  0  0  0  0  0  0  0  0  0  0  0
   27.9689  -18.2718  -16.6077 C   0  0  1  0  0  0  0  0  0  0  0  0
   28.7274  -17.2824  -15.7744 C   0  0  0  0  0  0  0  0  0  0  0  0
   27.1266  -19.2174  -15.8309 C   0  0  0  0  0  0  0  0  0  0  0  0
   27.8679  -19.9109  -14.7167 C   0  0  2  0  0  0  0  0  0  0  0  0
   28.8573  -20.8358  -15.1938 N   0  0  0  0  0  0  0  0  0  0  0  0
   26.9064  -20.7012  -13.8822 C   0  0  0  0  0  0  0  0  0  0  0  0
   26.5647  -21.8855  -14.2251 O   0  0  0  0  0  0  0  0  0  0  0  0
   26.3309  -20.1930  -12.6871 N   0  0  0  0  0  0  0  0  0  0  0  0
   25.4008  -21.0294  -11.8820 C   0  0  1  0  0  0  0  0  0  0  0  0
   25.5402  -20.6382  -10.4364 C   0  0  0  0  0  0  0  0  0  0  0  0
   26.8270  -20.9589   -9.8076 C   0  0  0  0  0  0  0  0  0  0  0  0
   27.8762  -21.6824  -10.3324 C   0  0  0  0  0  0  0  0  0  0  0  0
   28.8694  -21.7872   -9.4406 N   0  0  0  0  0  0  0  0  0  0  0  0
   28.5027  -21.1378   -8.3093 C   0  0  0  0  0  0  0  0  0  0  0  0
   29.1520  -20.9457   -7.1026 C   0  0  0  0  0  0  0  0  0  0  0  0
   28.5525  -20.2272   -6.0738 C   0  0  0  0  0  0  0  0  0  0  0  0
   27.3009  -19.7179   -6.2949 C   0  0  0  0  0  0  0  0  0  0  0  0
   26.6622  -19.9096   -7.4876 C   0  0  0  0  0  0  0  0  0  0  0  0
   27.2384  -20.6220   -8.5289 C   0  0  0  0  0  0  0  0  0  0  0  0
   24.0310  -20.7638  -12.3493 C   0  0  0  0  0  0  0  0  0  0  0  0
   23.6418  -19.5448  -12.3231 O   0  0  0  0  0  0  0  0  0  0  0  0
   20.3493  -21.5781  -15.3136 C   0  0  0  0  0  0  0  0  0  0  0  0
   21.6559  -21.9429  -14.6736 C   0  0  1  0  0  0  0  0  0  0  0  0
   22.7973  -21.5106  -15.5360 C   0  0  0  0  0  0  0  0  0  0  0  0
   21.8223  -21.2571  -13.3100 C   0  0  2  0  0  0  0  0  0  0  0  0
   23.1101  -21.7030  -12.8236 N   0  0  0  0  0  0  0  0  0  0  0  0
   20.6958  -21.5585  -12.4237 C   0  0  0  0  0  0  0  0  0  0  0  0
   19.6883  -20.6043  -12.1655 O   0  0  0  0  0  0  0  0  0  0  0  0
   20.5480  -22.6550  -11.8459 O   0  0  0  0  0  0  0  0  0  0  0  0
  2  1  1  6
  2  3  1  0
  4  2  1  0
  5  6  1  6
  5  4  1  0
  7  5  1  0
  8  7  2  0
  9  7  1  0
 10 21  1  0
 10  9  1  0
 11 12  1  0
 10 11  1  1
 12 20  1  0
 13 12  2  0
 13 14  1  0
 14 15  1  0
 15 16  1  0
 16 17  2  0
 18 17  1  0
 19 18  2  0
 20 15  2  0
 20 19  1  0
 21 27  1  0
 22 21  2  0
 24 23  1  6
 24 25  1  0
 26 24  1  0
 26 28  1  0
 26 27  1  1
 28 30  2  0
 28 29  1  0
M  END
$$$$
