LWV.pdb
     RDKit          3D

 30 31  0  0  1  0  0  0  0  0999 V2000
   25.4667  -14.3484  -17.4560 C   0  0  0  0  0  0  0  0  0  0  0  0
   24.1239  -14.1044  -16.7960 C   0  0  1  0  0  0  0  0  0  0  0  0
   24.1541  -14.7449  -15.4404 C   0  0  0  0  0  0  0  0  0  0  0  0
   23.8676  -12.6411  -16.7829 C   0  0  0  0  0  0  0  0  0  0  0  0
   22.5642  -12.2623  -16.1275 C   0  0  2  0  0  0  0  0  0  0  0  0
   21.4753  -13.1151  -16.5134 N   0  0  0  0  0  0  0  0  0  0  0  0
   22.1820  -10.8691  -16.5253 C   0  0  0  0  0  0  0  0  0  0  0  0
   23.0682   -9.9513  -16.6213 O   0  0  0  0  0  0  0  0  0  0  0  0
   20.8426  -10.4940  -16.8133 N   0  0  0  0  0  0  0  0  0  0  0  0
   20.5332   -9.1310  -17.3228 C   0  0  1  0  0  0  0  0  0  0  0  0
   19.4221   -9.2412  -18.3304 C   0  0  0  0  0  0  0  0  0  0  0  0
   19.3965   -8.2063  -19.3708 C   0  0  0  0  0  0  0  0  0  0  0  0
   19.5344   -6.8431  -19.2217 C   0  0  0  0  0  0  0  0  0  0  0  0
   19.4231   -6.2257  -20.4047 N   0  0  0  0  0  0  0  0  0  0  0  0
   19.2102   -7.1620  -21.3608 C   0  0  0  0  0  0  0  0  0  0  0  0
   19.0289   -7.0608  -22.7288 C   0  0  0  0  0  0  0  0  0  0  0  0
   18.8236   -8.1934  -23.5092 C   0  0  0  0  0  0  0  0  0  0  0  0
   18.8067   -9.4091  -22.8793 C   0  0  0  0  0  0  0  0  0  0  0  0
   18.9859   -9.5057  -21.5281 C   0  0  0  0  0  0  0  0  0  0  0  0
   19.1923   -8.3917  -20.7280 C   0  0  0  0  0  0  0  0  0  0  0  0
   20.1034   -8.3066  -16.1823 C   0  0  0  0  0  0  0  0  0  0  0  0
   19.2332   -8.8213  -15.3975 O   0  0  0  0  0  0  0  0  0  0  0  0
   21.6538   -7.5430  -13.2907 C   0  0  0  0  0  0  0  0  0  0  0  0
   21.1494   -6.1995  -13.7270 C   0  0  1  0  0  0  0  0  0  0  0  0
   22.2352   -5.4312  -14.4084 C   0  0  0  0  0  0  0  0  0  0  0  0
   19.9860   -6.3335  -14.7200 C   0  0  2  0  0  0  0  0  0  0  0  0
   20.5490   -7.0203  -15.8624 N   0  0  0  0  0  0  0  0  0  0  0  0
   19.3932   -5.0287  -15.0217 C   0  0  0  0  0  0  0  0  0  0  0  0
   18.5509   -4.3731  -14.0981 O   0  0  0  0  0  0  0  0  0  0  0  0
   19.5850   -4.4157  -16.0920 O   0  0  0  0  0  0  0  0  0  0  0  0
  2  1  1  1
  2  3  1  0
  4  2  1  0
  5  6  1  6
  5  4  1  0
  7  5  1  0
  8  7  2  0
  9  7  1  0
 10 21  1  0
 10  9  1  0
 11 12  1  0
 10 11  1  6
 12 20  1  0
 13 12  2  0
 13 14  1  0
 14 15  1  0
 15 16  1  0
 16 17  2  0
 18 17  1  0
 19 18  2  0
 20 15  2  0
 20 19  1  0
 21 27  1  0
 22 21  2  0
 24 23  1  6
 24 25  1  0
 26 24  1  0
 26 28  1  0
 26 27  1  6
 28 30  2  0
 28 29  1  0
M  END
$$$$
