LWV.pdb
     RDKit          3D

 30 31  0  0  1  0  0  0  0  0999 V2000
   28.8223  -17.5754  -15.6561 C   0  0  0  0  0  0  0  0  0  0  0  0
   28.3714  -18.9345  -15.1581 C   0  0  1  0  0  0  0  0  0  0  0  0
   29.5616  -19.8467  -15.1688 C   0  0  0  0  0  0  0  0  0  0  0  0
   27.7391  -18.7588  -13.8254 C   0  0  0  0  0  0  0  0  0  0  0  0
   27.4188  -20.0587  -13.1329 C   0  0  2  0  0  0  0  0  0  0  0  0
   26.4769  -20.8626  -13.8599 N   0  0  0  0  0  0  0  0  0  0  0  0
   26.8062  -19.7828  -11.7935 C   0  0  0  0  0  0  0  0  0  0  0  0
   26.1667  -18.6955  -11.5796 O   0  0  0  0  0  0  0  0  0  0  0  0
   26.8973  -20.6928  -10.7066 N   0  0  0  0  0  0  0  0  0  0  0  0
   26.1930  -20.4127   -9.4265 C   0  0  1  0  0  0  0  0  0  0  0  0
   25.0639  -21.3956   -9.2804 C   0  0  0  0  0  0  0  0  0  0  0  0
   23.7437  -20.9231   -9.7140 C   0  0  0  0  0  0  0  0  0  0  0  0
   22.7266  -20.4058   -8.9411 C   0  0  0  0  0  0  0  0  0  0  0  0
   21.6605  -20.1154   -9.6975 N   0  0  0  0  0  0  0  0  0  0  0  0
   21.9460  -20.4321  -10.9837 C   0  0  0  0  0  0  0  0  0  0  0  0
   21.2028  -20.3317  -12.1466 C   0  0  0  0  0  0  0  0  0  0  0  0
   21.7303  -20.7316  -13.3696 C   0  0  0  0  0  0  0  0  0  0  0  0
   23.0068  -21.2270  -13.3840 C   0  0  0  0  0  0  0  0  0  0  0  0
   23.7380  -21.3250  -12.2338 C   0  0  0  0  0  0  0  0  0  0  0  0
   23.2350  -20.9331  -11.0021 C   0  0  0  0  0  0  0  0  0  0  0  0
   27.1590  -20.5837   -8.3298 C   0  0  0  0  0  0  0  0  0  0  0  0
   28.0030  -21.5381   -8.4518 O   0  0  0  0  0  0  0  0  0  0  0  0
   29.8966  -18.7607   -6.7716 C   0  0  0  0  0  0  0  0  0  0  0  0
   28.9421  -19.1069   -5.6675 C   0  0  1  0  0  0  0  0  0  0  0  0
   28.0508  -17.9457   -5.3660 C   0  0  0  0  0  0  0  0  0  0  0  0
   28.0434  -20.2900   -6.0547 C   0  0  2  0  0  0  0  0  0  0  0  0
   27.2553  -19.8098   -7.1692 N   0  0  0  0  0  0  0  0  0  0  0  0
   27.2608  -20.7587   -4.9088 C   0  0  0  0  0  0  0  0  0  0  0  0
   27.8728  -21.4187   -3.8216 O   0  0  0  0  0  0  0  0  0  0  0  0
   26.0249  -20.6122   -4.8124 O   0  0  0  0  0  0  0  0  0  0  0  0
  2  1  1  1
  2  3  1  0
  4  2  1  0
  5  6  1  6
  5  4  1  0
  7  5  1  0
  8  7  2  0
  9  7  1  0
 10 21  1  0
 10  9  1  0
 11 12  1  0
 10 11  1  1
 12 20  1  0
 13 12  2  0
 13 14  1  0
 14 15  1  0
 15 16  1  0
 16 17  2  0
 18 17  1  0
 19 18  2  0
 20 15  2  0
 20 19  1  0
 21 27  1  0
 22 21  2  0
 24 23  1  6
 24 25  1  0
 26 24  1  0
 26 28  1  0
 26 27  1  6
 28 30  2  0
 28 29  1  0
M  END
$$$$
