MRI.pdb
     RDKit          3D

 28 27  0  0  1  0  0  0  0  0999 V2000
    9.4342  -11.5337   19.2435 C   0  0  0  0  0  0  0  0  0  0  0  0
    8.3199  -12.2097   18.0075 S   0  0  0  0  0  0  0  0  0  0  0  0
    8.1339  -13.9651   18.0187 C   0  0  0  0  0  0  0  0  0  0  0  0
    8.1008  -14.6404   19.3210 C   0  0  0  0  0  0  0  0  0  0  0  0
    8.1456  -16.1042   19.4314 C   0  0  2  0  0  0  0  0  0  0  0  0
    7.1282  -16.8153   18.7443 N   0  0  0  0  0  0  0  0  0  0  0  0
    8.2356  -16.5155   20.8835 C   0  0  0  0  0  0  0  0  0  0  0  0
    7.1457  -16.7421   21.4798 O   0  0  0  0  0  0  0  0  0  0  0  0
   10.3852  -21.4726   24.5729 N   0  0  0  0  0  0  0  0  0  0  0  0
   11.0943  -21.1493   25.7831 C   0  0  0  0  0  0  0  0  0  0  0  0
   10.8691  -21.8393   26.8468 N   0  0  0  0  0  0  0  0  0  0  0  0
   12.0316  -20.0962   25.8391 N   0  0  0  0  0  0  0  0  0  0  0  0
   12.1464  -19.1307   24.7394 C   0  0  0  0  0  0  0  0  0  0  0  0
   10.8746  -18.2824   24.6767 C   0  0  0  0  0  0  0  0  0  0  0  0
   10.6944  -17.8834   23.2592 C   0  0  0  0  0  0  0  0  0  0  0  0
    9.4654  -17.0593   22.9831 C   0  0  2  0  0  0  0  0  0  0  0  0
    9.4375  -16.6524   21.5770 N   0  0  0  0  0  0  0  0  0  0  0  0
    9.5424  -15.8348   23.8465 C   0  0  0  0  0  0  0  0  0  0  0  0
   10.3427  -14.9024   23.5951 O   0  0  0  0  0  0  0  0  0  0  0  0
   11.3565  -21.6363   27.7297 C   0  0  0  0  0  0  0  0  0  0  0  0
    6.2349  -11.7345   26.6937 C   0  0  0  0  0  0  0  0  0  0  0  0
    7.4911  -12.5323   26.6906 C   0  0  2  0  0  0  0  0  0  0  0  0
    7.3965  -13.7900   25.8422 C   0  0  0  0  0  0  0  0  0  0  0  0
    6.1727  -14.5382   26.2143 C   0  0  2  0  0  0  0  0  0  0  0  0
    8.6629  -14.5385   25.8619 N   0  0  0  0  0  0  0  0  0  0  0  0
    8.7021  -15.6867   24.9925 C   0  0  0  0  0  0  0  0  0  0  0  0
    9.2383  -14.8120   27.1958 O   0  0  0  0  0  0  0  0  0  0  0  0
    9.2744  -16.0032   27.5771 O   0  0  0  0  0  0  0  0  0  0  0  0
  2  1  1  0
  3  2  1  0
  4  3  1  0
  4  5  1  0
  5  6  1  1
  7  8  2  0
  7  5  1  0
  9 10  1  0
 10 12  1  0
 11 10  2  0
 12 13  1  0
 13 14  1  0
 14 15  1  0
 16 15  1  6
 16 17  1  0
 17  7  1  0
 18 25  1  0
 18 16  1  0
 19 18  2  0
 20 21  1  0
 21 22  1  0
 22 24  1  0
 22 23  1  6
 24 25  1  1
 24 26  1  0
 26 28  1  0
 27 26  2  0
M  END
$$$$
