MRI.pdb
     RDKit          3D

 28 27  0  0  1  0  0  0  0  0999 V2000
    8.2268  -11.4083   20.1084 C   0  0  0  0  0  0  0  0  0  0  0  0
    7.7226  -12.2107   18.5824 S   0  0  0  0  0  0  0  0  0  0  0  0
    7.8210  -13.9732   18.5723 C   0  0  0  0  0  0  0  0  0  0  0  0
    8.0776  -14.6505   19.8484 C   0  0  0  0  0  0  0  0  0  0  0  0
    8.0708  -16.1150   19.9585 C   0  0  2  0  0  0  0  0  0  0  0  0
    7.0933  -16.7963   19.1883 N   0  0  0  0  0  0  0  0  0  0  0  0
    8.0291  -16.5289   21.4121 C   0  0  0  0  0  0  0  0  0  0  0  0
    6.8871  -16.7064   21.9211 O   0  0  0  0  0  0  0  0  0  0  0  0
   13.0299  -18.8123   20.9135 N   0  0  0  0  0  0  0  0  0  0  0  0
   12.7156  -20.2166   20.9447 C   0  0  0  0  0  0  0  0  0  0  0  0
   13.0793  -20.9640   19.9611 N   0  0  0  0  0  0  0  0  0  0  0  0
   12.0191  -20.8008   22.0237 N   0  0  0  0  0  0  0  0  0  0  0  0
   11.5711  -19.9868   23.1601 C   0  0  0  0  0  0  0  0  0  0  0  0
   10.5544  -18.9529   22.6718 C   0  0  0  0  0  0  0  0  0  0  0  0
   10.0525  -18.2435   23.8741 C   0  0  0  0  0  0  0  0  0  0  0  0
    9.0669  -17.1406   23.5951 C   0  0  2  0  0  0  0  0  0  0  0  0
    9.1661  -16.7185   22.1967 N   0  0  0  0  0  0  0  0  0  0  0  0
    9.4231  -15.9847   24.4827 C   0  0  0  0  0  0  0  0  0  0  0  0
   10.4376  -15.2792   24.2678 O   0  0  0  0  0  0  0  0  0  0  0  0
   12.8999  -21.9769   19.9635 C   0  0  0  0  0  0  0  0  0  0  0  0
    6.2839  -12.1381   25.7910 C   0  0  0  0  0  0  0  0  0  0  0  0
    7.4529  -13.0390   25.5996 C   0  0  2  0  0  0  0  0  0  0  0  0
    7.9416  -13.6650   26.8956 C   0  0  0  0  0  0  0  0  0  0  0  0
    8.3048  -12.5907   27.8494 C   0  0  2  0  0  0  0  0  0  0  0  0
    8.9614  -14.6931   26.6354 N   0  0  0  0  0  0  0  0  0  0  0  0
    8.6149  -15.6449   25.6107 C   0  0  0  0  0  0  0  0  0  0  0  0
    9.5650  -15.3291   27.8254 O   0  0  0  0  0  0  0  0  0  0  0  0
   10.4140  -14.6699   28.4657 O   0  0  0  0  0  0  0  0  0  0  0  0
  2  1  1  0
  3  2  1  0
  4  3  1  0
  4  5  1  0
  5  6  1  6
  7  8  2  0
  7  5  1  0
  9 10  1  0
 10 12  1  0
 11 10  2  0
 12 13  1  0
 13 14  1  0
 14 15  1  0
 16 15  1  6
 16 17  1  0
 17  7  1  0
 18 25  1  0
 18 16  1  0
 19 18  2  0
 20 21  1  0
 21 22  1  0
 22 24  1  0
 22 23  1  1
 24 25  1  6
 24 26  1  0
 26 28  1  0
 27 26  2  0
M  END
$$$$
