MRI.pdb
     RDKit          3D

 28 27  0  0  1  0  0  0  0  0999 V2000
    0.8643  -19.5723   23.4228 C   0  0  0  0  0  0  0  0  0  0  0  0
    1.3363  -19.8745   21.7163 S   0  0  0  0  0  0  0  0  0  0  0  0
    2.9682  -19.3708   21.2697 C   0  0  0  0  0  0  0  0  0  0  0  0
    3.7628  -18.6581   22.2766 C   0  0  0  0  0  0  0  0  0  0  0  0
    4.6136  -17.5156   21.9193 C   0  0  2  0  0  0  0  0  0  0  0  0
    4.9209  -17.3703   20.5419 N   0  0  0  0  0  0  0  0  0  0  0  0
    5.8588  -17.5039   22.7768 C   0  0  0  0  0  0  0  0  0  0  0  0
    5.6941  -17.6362   24.0219 O   0  0  0  0  0  0  0  0  0  0  0  0
   10.1422  -19.0218   18.0469 N   0  0  0  0  0  0  0  0  0  0  0  0
   10.8266  -20.0576   18.7752 C   0  0  0  0  0  0  0  0  0  0  0  0
   11.0306  -21.1953   18.2076 N   0  0  0  0  0  0  0  0  0  0  0  0
   11.2821  -19.8634   20.0964 N   0  0  0  0  0  0  0  0  0  0  0  0
   11.0374  -18.5980   20.7992 C   0  0  0  0  0  0  0  0  0  0  0  0
    9.7954  -18.7416   21.6811 C   0  0  0  0  0  0  0  0  0  0  0  0
    9.5808  -17.4284   22.3371 C   0  0  0  0  0  0  0  0  0  0  0  0
    8.3176  -17.3233   23.1489 C   0  0  2  0  0  0  0  0  0  0  0  0
    7.1487  -17.3572   22.2679 N   0  0  0  0  0  0  0  0  0  0  0  0
    8.3530  -16.0061   23.8662 C   0  0  0  0  0  0  0  0  0  0  0  0
    8.7252  -14.9549   23.2923 O   0  0  0  0  0  0  0  0  0  0  0  0
   11.5680  -21.9379   18.6745 C   0  0  0  0  0  0  0  0  0  0  0  0
    5.6390  -12.3666   25.6695 C   0  0  0  0  0  0  0  0  0  0  0  0
    6.8024  -13.2338   25.3394 C   0  0  2  0  0  0  0  0  0  0  0  0
    7.4067  -13.9104   26.5590 C   0  0  0  0  0  0  0  0  0  0  0  0
    7.8269  -12.8754   27.5327 C   0  0  2  0  0  0  0  0  0  0  0  0
    8.4205  -14.9019   26.1666 N   0  0  0  0  0  0  0  0  0  0  0  0
    7.9619  -15.9021   25.2364 C   0  0  0  0  0  0  0  0  0  0  0  0
    9.2350  -15.4703   27.2613 O   0  0  0  0  0  0  0  0  0  0  0  0
    8.9577  -16.6275   27.6479 O   0  0  0  0  0  0  0  0  0  0  0  0
  2  1  1  0
  3  2  1  0
  4  3  1  0
  4  5  1  0
  5  6  1  6
  7  8  2  0
  7  5  1  0
  9 10  1  0
 10 12  1  0
 11 10  2  0
 12 13  1  0
 13 14  1  0
 14 15  1  0
 16 15  1  6
 16 17  1  0
 17  7  1  0
 18 25  1  0
 18 16  1  0
 19 18  2  0
 20 21  1  0
 21 22  1  0
 22 24  1  0
 22 23  1  1
 24 25  1  6
 24 26  1  0
 26 28  1  0
 27 26  2  0
M  END
$$$$
