MRI.pdb
     RDKit          3D

 28 27  0  0  1  0  0  0  0  0999 V2000
    6.4108  -20.5064   26.2092 C   0  0  0  0  0  0  0  0  0  0  0  0
    8.1827  -20.4654   26.5011 S   0  0  0  0  0  0  0  0  0  0  0  0
    9.1309  -19.5308   25.3419 C   0  0  0  0  0  0  0  0  0  0  0  0
    8.6742  -19.5063   23.9477 C   0  0  0  0  0  0  0  0  0  0  0  0
    9.4162  -18.7837   22.9064 C   0  0  2  0  0  0  0  0  0  0  0  0
   10.7563  -19.1972   22.6913 N   0  0  0  0  0  0  0  0  0  0  0  0
    9.3184  -17.2925   23.1354 C   0  0  0  0  0  0  0  0  0  0  0  0
   10.1715  -16.7784   23.9118 O   0  0  0  0  0  0  0  0  0  0  0  0
    8.5616  -15.5313   18.4381 N   0  0  0  0  0  0  0  0  0  0  0  0
    8.3778  -14.2849   17.7422 C   0  0  0  0  0  0  0  0  0  0  0  0
    8.9561  -14.1088   16.6051 N   0  0  0  0  0  0  0  0  0  0  0  0
    7.5808  -13.2471   18.2697 N   0  0  0  0  0  0  0  0  0  0  0  0
    7.0609  -13.3192   19.6406 C   0  0  0  0  0  0  0  0  0  0  0  0
    8.1168  -13.9523   20.5491 C   0  0  0  0  0  0  0  0  0  0  0  0
    7.4228  -14.3576   21.7960 C   0  0  0  0  0  0  0  0  0  0  0  0
    8.2950  -15.0417   22.8143 C   0  0  2  0  0  0  0  0  0  0  0  0
    8.3528  -16.4793   22.5433 N   0  0  0  0  0  0  0  0  0  0  0  0
    7.6712  -14.8211   24.1608 C   0  0  0  0  0  0  0  0  0  0  0  0
    6.6695  -15.4759   24.5363 O   0  0  0  0  0  0  0  0  0  0  0  0
    8.8437  -13.2331   16.0773 C   0  0  0  0  0  0  0  0  0  0  0  0
   10.7764  -13.5932   28.4839 C   0  0  0  0  0  0  0  0  0  0  0  0
    9.7135  -14.0617   27.5535 C   0  0  2  0  0  0  0  0  0  0  0  0
    8.6084  -13.0387   27.3473 C   0  0  0  0  0  0  0  0  0  0  0  0
    8.0685  -12.6316   28.6659 C   0  0  2  0  0  0  0  0  0  0  0  0
    7.6349  -13.5051   26.3476 N   0  0  0  0  0  0  0  0  0  0  0  0
    8.1989  -13.8517   25.0679 C   0  0  0  0  0  0  0  0  0  0  0  0
    6.3919  -12.7139   26.2288 O   0  0  0  0  0  0  0  0  0  0  0  0
    6.2822  -11.9538   25.2410 O   0  0  0  0  0  0  0  0  0  0  0  0
  2  1  1  0
  3  2  1  0
  4  3  1  0
  4  5  1  0
  5  6  1  1
  7  8  2  0
  7  5  1  0
  9 10  1  0
 10 12  1  0
 11 10  2  0
 12 13  1  0
 13 14  1  0
 14 15  1  0
 16 15  1  6
 16 17  1  0
 17  7  1  0
 18 25  1  0
 18 16  1  0
 19 18  2  0
 20 21  1  0
 21 22  1  0
 22 24  1  0
 22 23  1  6
 24 25  1  1
 24 26  1  0
 26 28  1  0
 27 26  2  0
M  END
$$$$
