MRI.pdb
     RDKit          3D

 28 27  0  0  1  0  0  0  0  0999 V2000
    8.2395  -11.4230   17.9052 C   0  0  0  0  0  0  0  0  0  0  0  0
    8.1611  -12.8525   18.9900 S   0  0  0  0  0  0  0  0  0  0  0  0
    6.7179  -13.8571   18.8342 C   0  0  0  0  0  0  0  0  0  0  0  0
    6.5388  -14.9496   19.7973 C   0  0  0  0  0  0  0  0  0  0  0  0
    7.6729  -15.5185   20.5370 C   0  0  2  0  0  0  0  0  0  0  0  0
    8.3170  -16.6311   19.9368 N   0  0  0  0  0  0  0  0  0  0  0  0
    7.2725  -15.8053   21.9664 C   0  0  0  0  0  0  0  0  0  0  0  0
    6.7818  -14.8452   22.6240 O   0  0  0  0  0  0  0  0  0  0  0  0
    7.0757  -21.9025   28.4705 N   0  0  0  0  0  0  0  0  0  0  0  0
    6.1585  -21.8727   27.3616 C   0  0  0  0  0  0  0  0  0  0  0  0
    5.0526  -22.5274   27.4429 N   0  0  0  0  0  0  0  0  0  0  0  0
    6.4354  -21.1455   26.1846 N   0  0  0  0  0  0  0  0  0  0  0  0
    7.7004  -20.4171   26.0293 C   0  0  0  0  0  0  0  0  0  0  0  0
    7.4062  -18.9273   25.8425 C   0  0  0  0  0  0  0  0  0  0  0  0
    7.3401  -18.6829   24.3808 C   0  0  0  0  0  0  0  0  0  0  0  0
    7.0819  -17.2531   23.9873 C   0  0  2  0  0  0  0  0  0  0  0  0
    7.4171  -17.0507   22.5766 N   0  0  0  0  0  0  0  0  0  0  0  0
    7.9701  -16.3875   24.8315 C   0  0  0  0  0  0  0  0  0  0  0  0
    9.2197  -16.4858   24.7857 O   0  0  0  0  0  0  0  0  0  0  0  0
    4.3631  -22.5104   26.6797 C   0  0  0  0  0  0  0  0  0  0  0  0
    6.0535  -11.4653   26.0146 C   0  0  0  0  0  0  0  0  0  0  0  0
    6.9716  -12.5933   25.6996 C   0  0  2  0  0  0  0  0  0  0  0  0
    7.5125  -13.2859   26.9399 C   0  0  0  0  0  0  0  0  0  0  0  0
    8.2986  -12.3149   27.7368 C   0  0  2  0  0  0  0  0  0  0  0  0
    8.1781  -14.5511   26.5921 N   0  0  0  0  0  0  0  0  0  0  0  0
    7.4210  -15.4153   25.7228 C   0  0  0  0  0  0  0  0  0  0  0  0
    8.8167  -15.2804   27.7079 O   0  0  0  0  0  0  0  0  0  0  0  0
    8.1492  -16.1767   28.2705 O   0  0  0  0  0  0  0  0  0  0  0  0
  2  1  1  0
  3  2  1  0
  4  3  1  0
  4  5  1  0
  5  6  1  6
  7  8  2  0
  7  5  1  0
  9 10  1  0
 10 12  1  0
 11 10  2  0
 12 13  1  0
 13 14  1  0
 14 15  1  0
 16 15  1  1
 16 17  1  0
 17  7  1  0
 18 25  1  0
 18 16  1  0
 19 18  2  0
 20 21  1  0
 21 22  1  0
 22 24  1  0
 22 23  1  1
 24 25  1  6
 24 26  1  0
 26 28  1  0
 27 26  2  0
M  END
$$$$
