MRI.pdb
     RDKit          3D

 28 27  0  0  1  0  0  0  0  0999 V2000
    8.5872  -10.9984   20.1036 C   0  0  0  0  0  0  0  0  0  0  0  0
    8.3477  -11.5580   18.4136 S   0  0  0  0  0  0  0  0  0  0  0  0
    8.4346  -13.3031   18.1624 C   0  0  0  0  0  0  0  0  0  0  0  0
    8.1774  -14.1730   19.3157 C   0  0  0  0  0  0  0  0  0  0  0  0
    8.3340  -15.6309   19.2315 C   0  0  2  0  0  0  0  0  0  0  0  0
    7.5971  -16.2816   18.2085 N   0  0  0  0  0  0  0  0  0  0  0  0
    8.0931  -16.2607   20.5847 C   0  0  0  0  0  0  0  0  0  0  0  0
    6.9088  -16.6129   20.8461 O   0  0  0  0  0  0  0  0  0  0  0  0
   14.6334  -19.0741   20.5751 N   0  0  0  0  0  0  0  0  0  0  0  0
   13.3859  -19.6189   21.0428 C   0  0  0  0  0  0  0  0  0  0  0  0
   12.5706  -20.1413   20.1937 N   0  0  0  0  0  0  0  0  0  0  0  0
   13.0282  -19.5978   22.4074 N   0  0  0  0  0  0  0  0  0  0  0  0
   11.6186  -19.6178   22.8170 C   0  0  0  0  0  0  0  0  0  0  0  0
   11.0076  -18.2330   22.5934 C   0  0  0  0  0  0  0  0  0  0  0  0
    9.5950  -18.3101   23.0401 C   0  0  0  0  0  0  0  0  0  0  0  0
    8.7971  -17.0490   22.8428 C   0  0  2  0  0  0  0  0  0  0  0  0
    9.0941  -16.4650   21.5335 N   0  0  0  0  0  0  0  0  0  0  0  0
    9.2095  -16.0842   23.9151 C   0  0  0  0  0  0  0  0  0  0  0  0
   10.3155  -15.4938   23.8783 O   0  0  0  0  0  0  0  0  0  0  0  0
   11.6366  -20.4651   20.4779 C   0  0  0  0  0  0  0  0  0  0  0  0
    5.8174  -12.5059   25.7376 C   0  0  0  0  0  0  0  0  0  0  0  0
    7.0208  -13.3076   25.3857 C   0  0  2  0  0  0  0  0  0  0  0  0
    7.6106  -14.0504   26.5734 C   0  0  0  0  0  0  0  0  0  0  0  0
    7.9476  -13.0771   27.6388 C   0  0  2  0  0  0  0  0  0  0  0  0
    8.6818  -14.9645   26.1474 N   0  0  0  0  0  0  0  0  0  0  0  0
    8.3522  -15.8024   25.0227 C   0  0  0  0  0  0  0  0  0  0  0  0
    9.3775  -15.7008   27.2239 O   0  0  0  0  0  0  0  0  0  0  0  0
    8.9581  -16.8452   27.5066 O   0  0  0  0  0  0  0  0  0  0  0  0
  2  1  1  0
  3  2  1  0
  4  3  1  0
  4  5  1  0
  5  6  1  6
  7  8  2  0
  7  5  1  0
  9 10  1  0
 10 12  1  0
 11 10  2  0
 12 13  1  0
 13 14  1  0
 14 15  1  0
 16 15  1  1
 16 17  1  0
 17  7  1  0
 18 25  1  0
 18 16  1  0
 19 18  2  0
 20 21  1  0
 21 22  1  0
 22 24  1  0
 22 23  1  1
 24 25  1  6
 24 26  1  0
 26 28  1  0
 27 26  2  0
M  END
$$$$
