MRI.pdb
     RDKit          3D

 28 27  0  0  1  0  0  0  0  0999 V2000
    8.0985  -11.4712   19.7645 C   0  0  0  0  0  0  0  0  0  0  0  0
    8.3831  -12.3027   18.1979 S   0  0  0  0  0  0  0  0  0  0  0  0
    8.2845  -14.0648   18.2343 C   0  0  0  0  0  0  0  0  0  0  0  0
    7.9422  -14.7038   19.5101 C   0  0  0  0  0  0  0  0  0  0  0  0
    7.8922  -16.1648   19.6513 C   0  0  2  0  0  0  0  0  0  0  0  0
    7.1099  -16.8599   18.6933 N   0  0  0  0  0  0  0  0  0  0  0  0
    7.5118  -16.5397   21.0657 C   0  0  0  0  0  0  0  0  0  0  0  0
    6.2789  -16.5546   21.3389 O   0  0  0  0  0  0  0  0  0  0  0  0
   10.1607  -23.3100   24.0142 N   0  0  0  0  0  0  0  0  0  0  0  0
   10.6885  -22.1475   23.3495 C   0  0  0  0  0  0  0  0  0  0  0  0
   11.9089  -22.1585   22.9386 N   0  0  0  0  0  0  0  0  0  0  0  0
    9.9069  -20.9929   23.1340 N   0  0  0  0  0  0  0  0  0  0  0  0
    8.5199  -20.9227   23.6095 C   0  0  0  0  0  0  0  0  0  0  0  0
    7.8722  -19.6370   23.0911 C   0  0  0  0  0  0  0  0  0  0  0  0
    8.4841  -18.5146   23.8437 C   0  0  0  0  0  0  0  0  0  0  0  0
    8.0171  -17.1444   23.4312 C   0  0  2  0  0  0  0  0  0  0  0  0
    8.4374  -16.8615   22.0576 N   0  0  0  0  0  0  0  0  0  0  0  0
    8.6611  -16.1533   24.3552 C   0  0  0  0  0  0  0  0  0  0  0  0
    9.8540  -15.7955   24.2071 O   0  0  0  0  0  0  0  0  0  0  0  0
   12.3265  -21.3383   22.4792 C   0  0  0  0  0  0  0  0  0  0  0  0
    6.1032  -11.7974   25.9910 C   0  0  0  0  0  0  0  0  0  0  0  0
    7.1036  -12.8438   25.6464 C   0  0  2  0  0  0  0  0  0  0  0  0
    7.6172  -13.6006   26.8605 C   0  0  0  0  0  0  0  0  0  0  0  0
    8.1791  -12.6357   27.8346 C   0  0  2  0  0  0  0  0  0  0  0  0
    8.4848  -14.7190   26.4593 N   0  0  0  0  0  0  0  0  0  0  0  0
    7.9342  -15.5790   25.4428 C   0  0  0  0  0  0  0  0  0  0  0  0
    9.1287  -15.4713   27.5567 O   0  0  0  0  0  0  0  0  0  0  0  0
    8.5819  -16.5334   27.9287 O   0  0  0  0  0  0  0  0  0  0  0  0
  2  1  1  0
  3  2  1  0
  4  3  1  0
  4  5  1  0
  5  6  1  6
  7  8  2  0
  7  5  1  0
  9 10  1  0
 10 12  1  0
 11 10  2  0
 12 13  1  0
 13 14  1  0
 14 15  1  0
 16 15  1  1
 16 17  1  0
 17  7  1  0
 18 25  1  0
 18 16  1  0
 19 18  2  0
 20 21  1  0
 21 22  1  0
 22 24  1  0
 22 23  1  1
 24 25  1  6
 24 26  1  0
 26 28  1  0
 27 26  2  0
M  END
$$$$
