MRI.pdb
     RDKit          3D

 28 27  0  0  1  0  0  0  0  0999 V2000
    8.7658  -10.7998   18.0662 C   0  0  0  0  0  0  0  0  0  0  0  0
    7.9039  -11.9349   19.1594 S   0  0  0  0  0  0  0  0  0  0  0  0
    8.4129  -13.6228   19.0706 C   0  0  0  0  0  0  0  0  0  0  0  0
    7.7357  -14.5875   19.9447 C   0  0  0  0  0  0  0  0  0  0  0  0
    8.0492  -16.0216   19.8984 C   0  0  2  0  0  0  0  0  0  0  0  0
    7.4735  -16.7540   18.8282 N   0  0  0  0  0  0  0  0  0  0  0  0
    7.7603  -16.6624   21.2369 C   0  0  0  0  0  0  0  0  0  0  0  0
    6.5759  -17.0517   21.4382 O   0  0  0  0  0  0  0  0  0  0  0  0
   12.7520  -18.2158   23.6705 N   0  0  0  0  0  0  0  0  0  0  0  0
   12.9516  -19.5664   23.2145 C   0  0  0  0  0  0  0  0  0  0  0  0
   14.0500  -19.8716   22.6156 N   0  0  0  0  0  0  0  0  0  0  0  0
   11.9773  -20.5690   23.4045 N   0  0  0  0  0  0  0  0  0  0  0  0
   10.6402  -20.2339   23.9094 C   0  0  0  0  0  0  0  0  0  0  0  0
   10.2630  -18.8254   23.4458 C   0  0  0  0  0  0  0  0  0  0  0  0
    8.8906  -18.5629   23.9439 C   0  0  0  0  0  0  0  0  0  0  0  0
    8.3396  -17.2048   23.6005 C   0  0  2  0  0  0  0  0  0  0  0  0
    8.7184  -16.8385   22.2346 N   0  0  0  0  0  0  0  0  0  0  0  0
    8.9434  -16.2200   24.5577 C   0  0  0  0  0  0  0  0  0  0  0  0
   10.1077  -15.7806   24.4015 O   0  0  0  0  0  0  0  0  0  0  0  0
   14.2328  -20.8293   22.2879 C   0  0  0  0  0  0  0  0  0  0  0  0
    6.1827  -12.0569   25.9544 C   0  0  0  0  0  0  0  0  0  0  0  0
    7.2651  -13.0476   25.7063 C   0  0  2  0  0  0  0  0  0  0  0  0
    7.7764  -13.7032   26.9788 C   0  0  0  0  0  0  0  0  0  0  0  0
    8.2781  -12.6558   27.8992 C   0  0  2  0  0  0  0  0  0  0  0  0
    8.6945  -14.8110   26.6716 N   0  0  0  0  0  0  0  0  0  0  0  0
    8.2095  -15.7453   25.6878 C   0  0  0  0  0  0  0  0  0  0  0  0
    9.3234  -15.4777   27.8314 O   0  0  0  0  0  0  0  0  0  0  0  0
    8.9019  -16.6134   28.1444 O   0  0  0  0  0  0  0  0  0  0  0  0
  2  1  1  0
  3  2  1  0
  4  3  1  0
  4  5  1  0
  5  6  1  6
  7  8  2  0
  7  5  1  0
  9 10  1  0
 10 12  1  0
 11 10  2  0
 12 13  1  0
 13 14  1  0
 14 15  1  0
 16 15  1  1
 16 17  1  0
 17  7  1  0
 18 25  1  0
 18 16  1  0
 19 18  2  0
 20 21  1  0
 21 22  1  0
 22 24  1  0
 22 23  1  1
 24 25  1  6
 24 26  1  0
 26 28  1  0
 27 26  2  0
M  END
$$$$
