NAY.pdb
     RDKit          3D

 26 26  0  0  1  0  0  0  0  0999 V2000
    6.9507  -19.6815   16.5717 N   0  0  0  0  0  0  0  0  0  0  0  0
    7.7377  -19.5255   17.7497 C   0  0  0  0  0  0  0  0  0  0  0  0
    8.0362  -20.5099   18.4583 O   0  0  0  0  0  0  0  0  0  0  0  0
    8.1948  -18.1659   18.1151 C   0  0  0  0  0  0  0  0  0  0  0  0
    8.2467  -18.0574   19.6366 C   0  0  2  0  0  0  0  0  0  0  0  0
    6.9739  -18.4295   20.2168 N   0  0  0  0  0  0  0  0  0  0  0  0
    8.4952  -16.6253   19.9390 C   0  0  0  0  0  0  0  0  0  0  0  0
    9.5416  -16.0609   19.5506 O   0  0  0  0  0  0  0  0  0  0  0  0
    6.5229  -13.7631   21.3145 C   0  0  0  0  0  0  0  0  0  0  0  0
    7.8390  -14.4460   20.9244 C   0  0  2  0  0  0  0  0  0  0  0  0
    7.5493  -15.8424   20.6829 N   0  0  0  0  0  0  0  0  0  0  0  0
    8.7519  -14.2926   22.0947 C   0  0  0  0  0  0  0  0  0  0  0  0
    9.1063  -13.1132   22.4307 O   0  0  0  0  0  0  0  0  0  0  0  0
   11.0536  -14.7274   30.3717 O   0  0  0  0  0  0  0  0  0  0  0  0
   10.4987  -14.7582   29.0783 C   0  0  0  0  0  0  0  0  0  0  0  0
   10.1339  -15.9461   28.4844 C   0  0  0  0  0  0  0  0  0  0  0  0
    9.5881  -16.0132   27.2209 C   0  0  0  0  0  0  0  0  0  0  0  0
    9.3919  -14.8334   26.5024 C   0  0  0  0  0  0  0  0  0  0  0  0
    8.8038  -14.9191   25.1499 C   0  0  0  0  0  0  0  0  0  0  0  0
    9.8077  -15.3022   24.0813 C   0  0  2  0  0  0  0  0  0  0  0  0
    9.1961  -15.4352   22.7931 N   0  0  0  0  0  0  0  0  0  0  0  0
   10.4576  -16.5652   24.5175 C   0  0  0  0  0  0  0  0  0  0  0  0
   11.6991  -16.4627   25.1394 O   0  0  0  0  0  0  0  0  0  0  0  0
    9.7567  -13.6457   27.0967 C   0  0  0  0  0  0  0  0  0  0  0  0
   10.3038  -13.5942   28.3668 C   0  0  0  0  0  0  0  0  0  0  0  0
    9.9359  -17.6919   24.3474 O   0  0  0  0  0  0  0  0  0  0  0  0
  2  3  2  0
  2  1  1  0
  4  2  1  0
  5  4  1  0
  5  7  1  0
  5  6  1  1
  7  8  2  0
 10  9  1  1
 11  7  1  0
 11 10  1  0
 12 10  1  0
 12 21  1  0
 13 12  2  0
 15 14  1  0
 16 15  2  0
 17 16  1  0
 18 24  1  0
 18 17  2  0
 19 18  1  0
 20 21  1  0
 20 19  1  1
 22 23  1  0
 22 20  1  0
 24 25  2  0
 25 15  1  0
 26 22  2  0
M  END
$$$$
