NAY.pdb
     RDKit          3D

 26 26  0  0  1  0  0  0  0  0999 V2000
    8.0262  -12.1080   17.8148 N   0  0  0  0  0  0  0  0  0  0  0  0
    7.8195  -13.5118   17.9485 C   0  0  0  0  0  0  0  0  0  0  0  0
    8.0416  -14.2879   16.9953 O   0  0  0  0  0  0  0  0  0  0  0  0
    7.3341  -14.0306   19.2471 C   0  0  0  0  0  0  0  0  0  0  0  0
    8.5351  -14.2882   20.1531 C   0  0  2  0  0  0  0  0  0  0  0  0
    9.5844  -14.9696   19.4251 N   0  0  0  0  0  0  0  0  0  0  0  0
    8.0532  -15.1907   21.2288 C   0  0  0  0  0  0  0  0  0  0  0  0
    7.0988  -14.8570   21.9650 O   0  0  0  0  0  0  0  0  0  0  0  0
    8.6630  -18.7162   22.3160 C   0  0  0  0  0  0  0  0  0  0  0  0
    8.1793  -17.2814   22.5569 C   0  0  2  0  0  0  0  0  0  0  0  0
    8.6615  -16.4702   21.4608 N   0  0  0  0  0  0  0  0  0  0  0  0
    8.7932  -16.8446   23.8448 C   0  0  0  0  0  0  0  0  0  0  0  0
    9.9585  -16.3246   23.8100 O   0  0  0  0  0  0  0  0  0  0  0  0
    6.5327  -10.5611   25.7813 O   0  0  0  0  0  0  0  0  0  0  0  0
    6.7928  -11.8991   26.1333 C   0  0  0  0  0  0  0  0  0  0  0  0
    8.0707  -12.3300   26.4130 C   0  0  0  0  0  0  0  0  0  0  0  0
    8.3612  -13.6313   26.7608 C   0  0  0  0  0  0  0  0  0  0  0  0
    7.3243  -14.5618   26.8361 C   0  0  0  0  0  0  0  0  0  0  0  0
    7.6490  -15.9530   27.2123 C   0  0  0  0  0  0  0  0  0  0  0  0
    8.6665  -16.6015   26.2955 C   0  0  2  0  0  0  0  0  0  0  0  0
    8.0844  -17.0126   25.0531 N   0  0  0  0  0  0  0  0  0  0  0  0
    9.2602  -17.7465   27.0332 C   0  0  0  0  0  0  0  0  0  0  0  0
   10.0928  -17.4501   28.1091 O   0  0  0  0  0  0  0  0  0  0  0  0
    6.0465  -14.1305   26.5564 C   0  0  0  0  0  0  0  0  0  0  0  0
    5.7701  -12.8200   26.2084 C   0  0  0  0  0  0  0  0  0  0  0  0
    9.0402  -18.9412   26.7250 O   0  0  0  0  0  0  0  0  0  0  0  0
  2  3  2  0
  2  1  1  0
  4  2  1  0
  5  4  1  0
  5  7  1  0
  5  6  1  6
  7  8  2  0
 10  9  1  6
 11  7  1  0
 11 10  1  0
 12 10  1  0
 12 21  1  0
 13 12  2  0
 15 14  1  0
 16 15  2  0
 17 16  1  0
 18 24  1  0
 18 17  2  0
 19 18  1  0
 20 21  1  0
 20 19  1  1
 22 23  1  0
 22 20  1  0
 24 25  2  0
 25 15  1  0
 26 22  2  0
M  END
$$$$
