NAY.pdb
     RDKit          3D

 26 26  0  0  1  0  0  0  0  0999 V2000
    8.8084  -20.3745   17.4473 N   0  0  0  0  0  0  0  0  0  0  0  0
    9.8572  -19.9564   18.3170 C   0  0  0  0  0  0  0  0  0  0  0  0
   10.7178  -20.7661   18.7218 O   0  0  0  0  0  0  0  0  0  0  0  0
    9.9034  -18.5359   18.7307 C   0  0  0  0  0  0  0  0  0  0  0  0
    9.4828  -18.4366   20.1945 C   0  0  2  0  0  0  0  0  0  0  0  0
    8.1113  -18.8689   20.3600 N   0  0  0  0  0  0  0  0  0  0  0  0
    9.5630  -16.9972   20.5491 C   0  0  0  0  0  0  0  0  0  0  0  0
   10.6253  -16.3565   20.3896 O   0  0  0  0  0  0  0  0  0  0  0  0
    7.1716  -14.2577   21.2891 C   0  0  0  0  0  0  0  0  0  0  0  0
    8.5668  -14.8859   21.3864 C   0  0  2  0  0  0  0  0  0  0  0  0
    8.4316  -16.2939   21.0842 N   0  0  0  0  0  0  0  0  0  0  0  0
    9.0151  -14.6908   22.7962 C   0  0  0  0  0  0  0  0  0  0  0  0
    9.2578  -13.5015   23.1912 O   0  0  0  0  0  0  0  0  0  0  0  0
    5.8799  -10.5910   26.6291 O   0  0  0  0  0  0  0  0  0  0  0  0
    6.4703  -11.8574   26.4568 C   0  0  0  0  0  0  0  0  0  0  0  0
    7.8372  -12.0209   26.4970 C   0  0  0  0  0  0  0  0  0  0  0  0
    8.4485  -13.2450   26.3326 C   0  0  0  0  0  0  0  0  0  0  0  0
    7.6589  -14.3746   26.1153 C   0  0  0  0  0  0  0  0  0  0  0  0
    8.3267  -15.6811   25.9430 C   0  0  0  0  0  0  0  0  0  0  0  0
    9.5273  -15.6252   25.0200 C   0  0  2  0  0  0  0  0  0  0  0  0
    9.1585  -15.8064   23.6480 N   0  0  0  0  0  0  0  0  0  0  0  0
   10.4851  -16.6652   25.4768 C   0  0  0  0  0  0  0  0  0  0  0  0
   10.8313  -17.6590   24.5651 O   0  0  0  0  0  0  0  0  0  0  0  0
    6.2921  -14.2106   26.0753 C   0  0  0  0  0  0  0  0  0  0  0  0
    5.6924  -12.9746   26.2422 C   0  0  0  0  0  0  0  0  0  0  0  0
   10.9791  -16.6754   26.6285 O   0  0  0  0  0  0  0  0  0  0  0  0
  2  3  2  0
  2  1  1  0
  4  2  1  0
  5  4  1  0
  5  7  1  0
  5  6  1  6
  7  8  2  0
 10  9  1  1
 11  7  1  0
 11 10  1  0
 12 10  1  0
 12 21  1  0
 13 12  2  0
 15 14  1  0
 16 15  2  0
 17 16  1  0
 18 24  1  0
 18 17  2  0
 19 18  1  0
 20 21  1  0
 20 19  1  1
 22 23  1  0
 22 20  1  0
 24 25  2  0
 25 15  1  0
 26 22  2  0
M  END
$$$$
