NAY.pdb
     RDKit          3D

 26 26  0  0  1  0  0  0  0  0999 V2000
    5.6282  -19.7544   17.7485 N   0  0  0  0  0  0  0  0  0  0  0  0
    6.8525  -19.8072   18.4764 C   0  0  0  0  0  0  0  0  0  0  0  0
    7.2798  -20.8863   18.9380 O   0  0  0  0  0  0  0  0  0  0  0  0
    7.6084  -18.5498   18.6732 C   0  0  0  0  0  0  0  0  0  0  0  0
    7.9956  -18.4346   20.1450 C   0  0  2  0  0  0  0  0  0  0  0  0
    6.8198  -18.5001   20.9868 N   0  0  0  0  0  0  0  0  0  0  0  0
    8.6087  -17.0921   20.3055 C   0  0  0  0  0  0  0  0  0  0  0  0
    9.6728  -16.7995   19.7169 O   0  0  0  0  0  0  0  0  0  0  0  0
    7.7089  -13.7146   21.3653 C   0  0  0  0  0  0  0  0  0  0  0  0
    8.7289  -14.8592   21.3782 C   0  0  2  0  0  0  0  0  0  0  0  0
    8.0060  -16.0885   21.1365 N   0  0  0  0  0  0  0  0  0  0  0  0
    9.3340  -14.8639   22.7421 C   0  0  0  0  0  0  0  0  0  0  0  0
   10.1537  -13.9317   23.0399 O   0  0  0  0  0  0  0  0  0  0  0  0
    5.7314  -10.9415   26.4774 O   0  0  0  0  0  0  0  0  0  0  0  0
    6.4001  -12.1753   26.3657 C   0  0  0  0  0  0  0  0  0  0  0  0
    7.7364  -12.2956   26.6767 C   0  0  0  0  0  0  0  0  0  0  0  0
    8.4221  -13.4869   26.5792 C   0  0  0  0  0  0  0  0  0  0  0  0
    7.7439  -14.6274   26.1479 C   0  0  0  0  0  0  0  0  0  0  0  0
    8.4900  -15.8987   26.0501 C   0  0  0  0  0  0  0  0  0  0  0  0
    9.5573  -15.8877   24.9743 C   0  0  2  0  0  0  0  0  0  0  0  0
    8.9927  -15.8813   23.6581 N   0  0  0  0  0  0  0  0  0  0  0  0
   10.4233  -17.0741   25.1983 C   0  0  0  0  0  0  0  0  0  0  0  0
   11.1065  -17.1464   26.4093 O   0  0  0  0  0  0  0  0  0  0  0  0
    6.4076  -14.5067   25.8372 C   0  0  0  0  0  0  0  0  0  0  0  0
    5.7323  -13.3032   25.9401 C   0  0  0  0  0  0  0  0  0  0  0  0
   10.5546  -17.9892   24.3522 O   0  0  0  0  0  0  0  0  0  0  0  0
  2  3  2  0
  2  1  1  0
  4  2  1  0
  5  4  1  0
  5  7  1  0
  5  6  1  1
  7  8  2  0
 10  9  1  1
 11  7  1  0
 11 10  1  0
 12 10  1  0
 12 21  1  0
 13 12  2  0
 15 14  1  0
 16 15  2  0
 17 16  1  0
 18 24  1  0
 18 17  2  0
 19 18  1  0
 20 21  1  0
 20 19  1  1
 22 23  1  0
 22 20  1  0
 24 25  2  0
 25 15  1  0
 26 22  2  0
M  END
$$$$
