NAY.pdb
     RDKit          3D

 26 26  0  0  1  0  0  0  0  0999 V2000
    7.6075  -20.4628   18.1213 N   0  0  0  0  0  0  0  0  0  0  0  0
    6.9246  -19.2253   17.9380 C   0  0  0  0  0  0  0  0  0  0  0  0
    5.7172  -19.1985   17.6194 O   0  0  0  0  0  0  0  0  0  0  0  0
    7.6816  -17.9685   18.1348 C   0  0  0  0  0  0  0  0  0  0  0  0
    7.9240  -17.7698   19.6286 C   0  0  2  0  0  0  0  0  0  0  0  0
    6.6852  -17.8976   20.3663 N   0  0  0  0  0  0  0  0  0  0  0  0
    8.4168  -16.3781   19.7841 C   0  0  0  0  0  0  0  0  0  0  0  0
    9.5683  -16.0611   19.4126 O   0  0  0  0  0  0  0  0  0  0  0  0
    6.9773  -13.0332   20.4763 C   0  0  0  0  0  0  0  0  0  0  0  0
    8.1457  -14.0250   20.5194 C   0  0  2  0  0  0  0  0  0  0  0  0
    7.5946  -15.3531   20.3624 N   0  0  0  0  0  0  0  0  0  0  0  0
    8.7742  -13.8716   21.8639 C   0  0  0  0  0  0  0  0  0  0  0  0
    9.3284  -12.7565   22.1453 O   0  0  0  0  0  0  0  0  0  0  0  0
   10.8415  -14.8499   30.3391 O   0  0  0  0  0  0  0  0  0  0  0  0
   10.2411  -14.8870   29.0663 C   0  0  0  0  0  0  0  0  0  0  0  0
    9.9418  -16.0823   28.4510 C   0  0  0  0  0  0  0  0  0  0  0  0
    9.3543  -16.1557   27.2067 C   0  0  0  0  0  0  0  0  0  0  0  0
    9.0448  -14.9748   26.5312 C   0  0  0  0  0  0  0  0  0  0  0  0
    8.4130  -15.0674   25.1989 C   0  0  0  0  0  0  0  0  0  0  0  0
    9.3792  -14.8221   24.0574 C   0  0  2  0  0  0  0  0  0  0  0  0
    8.7430  -14.9441   22.7801 N   0  0  0  0  0  0  0  0  0  0  0  0
   10.4994  -15.7860   24.2112 C   0  0  0  0  0  0  0  0  0  0  0  0
   10.3752  -17.0165   23.5716 O   0  0  0  0  0  0  0  0  0  0  0  0
    9.3442  -13.7797   27.1468 C   0  0  0  0  0  0  0  0  0  0  0  0
    9.9344  -13.7219   28.3972 C   0  0  0  0  0  0  0  0  0  0  0  0
   11.5271  -15.5322   24.8819 O   0  0  0  0  0  0  0  0  0  0  0  0
  2  3  2  0
  2  1  1  0
  4  2  1  0
  5  4  1  0
  5  7  1  0
  5  6  1  1
  7  8  2  0
 10  9  1  1
 11  7  1  0
 11 10  1  0
 12 10  1  0
 12 21  1  0
 13 12  2  0
 15 14  1  0
 16 15  2  0
 17 16  1  0
 18 24  1  0
 18 17  2  0
 19 18  1  0
 20 21  1  0
 20 19  1  1
 22 23  1  0
 22 20  1  0
 24 25  2  0
 25 15  1  0
 26 22  2  0
M  END
$$$$
