NAY.pdb
     RDKit          3D

 26 26  0  0  1  0  0  0  0  0999 V2000
    5.2360  -19.8954   18.3171 N   0  0  0  0  0  0  0  0  0  0  0  0
    6.6543  -19.8056   18.4245 C   0  0  0  0  0  0  0  0  0  0  0  0
    7.3697  -20.8275   18.3606 O   0  0  0  0  0  0  0  0  0  0  0  0
    7.2620  -18.4693   18.6141 C   0  0  0  0  0  0  0  0  0  0  0  0
    7.7946  -18.3696   20.0409 C   0  0  2  0  0  0  0  0  0  0  0  0
    6.7280  -18.5758   20.9975 N   0  0  0  0  0  0  0  0  0  0  0  0
    8.2975  -16.9815   20.1966 C   0  0  0  0  0  0  0  0  0  0  0  0
    9.2939  -16.5853   19.5527 O   0  0  0  0  0  0  0  0  0  0  0  0
    7.1652  -13.7314   21.4739 C   0  0  0  0  0  0  0  0  0  0  0  0
    8.2858  -14.7646   21.3085 C   0  0  2  0  0  0  0  0  0  0  0  0
    7.6622  -16.0505   21.0858 N   0  0  0  0  0  0  0  0  0  0  0  0
    9.0470  -14.7640   22.5918 C   0  0  0  0  0  0  0  0  0  0  0  0
    9.8220  -13.7783   22.8312 O   0  0  0  0  0  0  0  0  0  0  0  0
    6.0207  -11.1457   26.9899 O   0  0  0  0  0  0  0  0  0  0  0  0
    6.7059  -12.3467   26.7253 C   0  0  0  0  0  0  0  0  0  0  0  0
    8.0754  -12.4304   26.8453 C   0  0  0  0  0  0  0  0  0  0  0  0
    8.7780  -13.5890   26.5946 C   0  0  0  0  0  0  0  0  0  0  0  0
    8.0829  -14.7331   26.2015 C   0  0  0  0  0  0  0  0  0  0  0  0
    8.8479  -15.9693   25.9382 C   0  0  0  0  0  0  0  0  0  0  0  0
    9.6961  -15.8954   24.6846 C   0  0  2  0  0  0  0  0  0  0  0  0
    8.8963  -15.8348   23.4981 N   0  0  0  0  0  0  0  0  0  0  0  0
   10.5927  -17.0802   24.6867 C   0  0  0  0  0  0  0  0  0  0  0  0
   11.5177  -17.1790   25.7227 O   0  0  0  0  0  0  0  0  0  0  0  0
    6.7135  -14.6490   26.0818 C   0  0  0  0  0  0  0  0  0  0  0  0
    6.0215  -13.4781   26.3370 C   0  0  0  0  0  0  0  0  0  0  0  0
   10.5435  -17.9714   23.8070 O   0  0  0  0  0  0  0  0  0  0  0  0
  2  3  2  0
  2  1  1  0
  4  2  1  0
  5  4  1  0
  5  7  1  0
  5  6  1  1
  7  8  2  0
 10  9  1  1
 11  7  1  0
 11 10  1  0
 12 10  1  0
 12 21  1  0
 13 12  2  0
 15 14  1  0
 16 15  2  0
 17 16  1  0
 18 24  1  0
 18 17  2  0
 19 18  1  0
 20 21  1  0
 20 19  1  1
 22 23  1  0
 22 20  1  0
 24 25  2  0
 25 15  1  0
 26 22  2  0
M  END
$$$$
