RTQ.pdb
     RDKit          3D

 28 27  0  0  1  0  0  0  0  0999 V2000
    7.1057  -13.6255   14.2531 N   0  0  0  0  0  0  0  0  0  0  0  0
    7.8690  -13.4426   15.4482 C   0  0  0  0  0  0  0  0  0  0  0  0
    7.7930  -12.2625   15.9964 N   0  0  0  0  0  0  0  0  0  0  0  0
    8.6621  -14.4640   16.0154 N   0  0  0  0  0  0  0  0  0  0  0  0
    8.2454  -15.0531   17.2658 C   0  0  0  0  0  0  0  0  0  0  0  0
    8.1080  -14.0533   18.3618 C   0  0  0  0  0  0  0  0  0  0  0  0
    7.8157  -14.7392   19.6539 C   0  0  0  0  0  0  0  0  0  0  0  0
    8.9868  -15.5213   20.1967 C   0  0  2  0  0  0  0  0  0  0  0  0
    9.0601  -16.7572   19.4495 N   0  0  0  0  0  0  0  0  0  0  0  0
    8.6656  -15.7723   21.6346 C   0  0  0  0  0  0  0  0  0  0  0  0
    8.4409  -14.7656   22.3522 O   0  0  0  0  0  0  0  0  0  0  0  0
    8.2101  -12.0845   16.9330 C   0  0  0  0  0  0  0  0  0  0  0  0
    6.3876  -18.7820   23.0058 C   0  0  2  0  0  0  0  0  0  0  0  0
    7.6758  -18.6536   23.7822 O   0  0  0  0  0  0  0  0  0  0  0  0
    8.5325  -19.6743   23.3921 C   0  0  2  0  0  0  0  0  0  0  0  0
    8.3096  -17.2935   23.6212 N   0  0  0  0  0  0  0  0  0  0  0  0
    8.6086  -17.0760   22.1968 C   0  0  0  0  0  0  0  0  0  0  0  0
    9.5112  -17.0881   24.4478 O   0  0  0  0  0  0  0  0  0  0  0  0
   10.6780  -17.1824   23.9463 N   0  0  0  0  0  0  0  0  0  0  0  0
    9.7286  -13.3779   29.2814 C   0  0  0  0  0  0  0  0  0  0  0  0
    9.2592  -13.1904   27.9565 O   0  0  0  0  0  0  0  0  0  0  0  0
    8.6108  -12.1472   27.6873 C   0  0  0  0  0  0  0  0  0  0  0  0
    9.5636  -14.2439   26.9603 C   0  0  0  0  0  0  0  0  0  0  0  0
   10.3551  -15.3622   27.6028 C   0  0  2  0  0  0  0  0  0  0  0  0
   10.6567  -16.4692   26.6159 N   0  0  0  0  0  0  0  0  0  0  0  0
    9.4725  -16.7772   25.8283 C   0  0  0  0  0  0  0  0  0  0  0  0
   11.0356  -17.6679   27.4470 O   0  0  0  0  0  0  0  0  0  0  0  0
   12.2204  -17.7368   28.1241 O   0  0  0  0  0  0  0  0  0  0  0  0
  2  4  1  0
  2  1  1  0
  3  2  2  0
  5  4  1  0
  6  5  1  0
  7  8  1  0
  7  6  1  0
  8  9  1  6
  8 10  1  0
 10 11  2  0
 13 12  1  1
 13 15  1  0
 14 13  1  0
 16 10  1  0
 15 16  1  1
 17 15  1  0
 17 18  2  0
 19 20  1  0
 20 22  1  0
 20 21  2  0
 22 23  1  0
 24 23  1  6
 24 26  1  0
 24 25  1  0
 25 17  1  0
 26 27  1  0
 28 26  2  0
M  END
$$$$
