RTQ.pdb
     RDKit          3D

 28 27  0  0  1  0  0  0  0  0999 V2000
   10.1575  -13.3332   19.4969 N   0  0  0  0  0  0  0  0  0  0  0  0
    9.0386  -12.4573   19.3376 C   0  0  0  0  0  0  0  0  0  0  0  0
    9.3227  -11.1958   19.1741 N   0  0  0  0  0  0  0  0  0  0  0  0
    7.7015  -12.9110   19.3535 N   0  0  0  0  0  0  0  0  0  0  0  0
    7.3943  -14.1429   20.0409 C   0  0  0  0  0  0  0  0  0  0  0  0
    8.2629  -15.2767   19.6171 C   0  0  0  0  0  0  0  0  0  0  0  0
    8.7545  -16.0255   20.8101 C   0  0  0  0  0  0  0  0  0  0  0  0
    8.9067  -17.5074   20.5680 C   0  0  2  0  0  0  0  0  0  0  0  0
    7.6559  -17.9827   20.0195 N   0  0  0  0  0  0  0  0  0  0  0  0
    9.1744  -18.1047   21.9116 C   0  0  0  0  0  0  0  0  0  0  0  0
    8.1747  -18.4216   22.6035 O   0  0  0  0  0  0  0  0  0  0  0  0
    8.5653  -10.4850   19.1111 C   0  0  0  0  0  0  0  0  0  0  0  0
   11.4882  -21.0100   22.7744 C   0  0  2  0  0  0  0  0  0  0  0  0
   11.8209  -19.8722   23.7088 O   0  0  0  0  0  0  0  0  0  0  0  0
   13.0323  -19.3172   23.3185 C   0  0  2  0  0  0  0  0  0  0  0  0
   10.7218  -18.8398   23.7697 N   0  0  0  0  0  0  0  0  0  0  0  0
   10.4863  -18.3182   22.4139 C   0  0  0  0  0  0  0  0  0  0  0  0
   10.9791  -17.7424   24.7178 O   0  0  0  0  0  0  0  0  0  0  0  0
   11.0113  -16.5306   24.3275 N   0  0  0  0  0  0  0  0  0  0  0  0
    7.7912  -14.5210   27.0111 C   0  0  0  0  0  0  0  0  0  0  0  0
    8.7073  -14.2060   28.0468 O   0  0  0  0  0  0  0  0  0  0  0  0
    8.4556  -13.2311   28.8000 C   0  0  0  0  0  0  0  0  0  0  0  0
    9.9163  -15.0517   28.1803 C   0  0  0  0  0  0  0  0  0  0  0  0
    9.9318  -16.1199   27.1085 C   0  0  1  0  0  0  0  0  0  0  0  0
   11.2584  -16.8472   27.0665 N   0  0  0  0  0  0  0  0  0  0  0  0
   11.2050  -17.9354   26.1019 C   0  0  0  0  0  0  0  0  0  0  0  0
   11.4623  -17.4090   28.4499 O   0  0  0  0  0  0  0  0  0  0  0  0
   11.3249  -18.7414   28.7202 O   0  0  0  0  0  0  0  0  0  0  0  0
  2  4  1  0
  2  1  1  0
  3  2  2  0
  5  4  1  0
  6  5  1  0
  7  8  1  0
  7  6  1  0
  8  9  1  1
  8 10  1  0
 10 11  2  0
 13 12  1  1
 13 15  1  0
 14 13  1  0
 16 10  1  0
 15 16  1  1
 17 15  1  0
 17 18  2  0
 19 20  1  0
 20 22  1  0
 20 21  2  0
 22 23  1  0
 24 23  1  6
 24 26  1  0
 24 25  1  0
 25 17  1  0
 26 27  1  0
 28 26  2  0
M  END
$$$$
