RTQ.pdb
     RDKit          3D

 28 27  0  0  1  0  0  0  0  0999 V2000
   12.4421  -17.5816   12.9735 N   0  0  0  0  0  0  0  0  0  0  0  0
   11.2368  -17.5304   12.2060 C   0  0  0  0  0  0  0  0  0  0  0  0
   11.1422  -18.3974   11.2374 N   0  0  0  0  0  0  0  0  0  0  0  0
   10.2014  -16.6059   12.4652 N   0  0  0  0  0  0  0  0  0  0  0  0
    9.5498  -16.6363   13.7532 C   0  0  0  0  0  0  0  0  0  0  0  0
   10.3588  -17.3252   14.7974 C   0  0  0  0  0  0  0  0  0  0  0  0
   10.4162  -16.4972   16.0370 C   0  0  0  0  0  0  0  0  0  0  0  0
    9.1048  -15.8312   16.3754 C   0  0  2  0  0  0  0  0  0  0  0  0
    8.8260  -14.8761   15.3260 N   0  0  0  0  0  0  0  0  0  0  0  0
    9.3311  -15.1498   17.6862 C   0  0  0  0  0  0  0  0  0  0  0  0
   10.1240  -14.1751   17.6921 O   0  0  0  0  0  0  0  0  0  0  0  0
   10.3342  -18.3750   10.5820 C   0  0  0  0  0  0  0  0  0  0  0  0
    7.3416  -13.0256   19.4860 C   0  0  2  0  0  0  0  0  0  0  0  0
    7.6703  -14.0817   20.5133 O   0  0  0  0  0  0  0  0  0  0  0  0
    6.5689  -14.9139   20.6621 C   0  0  2  0  0  0  0  0  0  0  0  0
    8.9176  -14.8552   20.1620 N   0  0  0  0  0  0  0  0  0  0  0  0
    8.6953  -15.5595   18.8891 C   0  0  0  0  0  0  0  0  0  0  0  0
    9.3604  -15.7907   21.2099 O   0  0  0  0  0  0  0  0  0  0  0  0
    8.8460  -16.9509   21.3154 N   0  0  0  0  0  0  0  0  0  0  0  0
   14.8583  -15.9516   24.0131 C   0  0  0  0  0  0  0  0  0  0  0  0
   14.5224  -16.0601   22.6396 O   0  0  0  0  0  0  0  0  0  0  0  0
   15.4475  -16.0402   21.7881 C   0  0  0  0  0  0  0  0  0  0  0  0
   13.0894  -16.1915   22.2873 C   0  0  0  0  0  0  0  0  0  0  0  0
   12.2395  -16.2077   23.5392 C   0  0  2  0  0  0  0  0  0  0  0  0
   10.7743  -16.4041   23.2150 N   0  0  0  0  0  0  0  0  0  0  0  0
   10.3657  -15.4891   22.1599 C   0  0  0  0  0  0  0  0  0  0  0  0
   10.0265  -16.0790   24.4823 O   0  0  0  0  0  0  0  0  0  0  0  0
    9.1236  -15.0556   24.5506 O   0  0  0  0  0  0  0  0  0  0  0  0
  2  4  1  0
  2  1  1  0
  3  2  2  0
  5  4  1  0
  6  5  1  0
  7  8  1  0
  7  6  1  0
  8  9  1  6
  8 10  1  0
 10 11  2  0
 13 12  1  1
 13 15  1  0
 14 13  1  0
 16 10  1  0
 15 16  1  1
 17 15  1  0
 17 18  2  0
 19 20  1  0
 20 22  1  0
 20 21  2  0
 22 23  1  0
 24 23  1  6
 24 26  1  0
 24 25  1  0
 25 17  1  0
 26 27  1  0
 28 26  2  0
M  END
$$$$
