RTQ.pdb
     RDKit          3D

 28 27  0  0  1  0  0  0  0  0999 V2000
    8.8585  -15.1271   15.4576 N   0  0  0  0  0  0  0  0  0  0  0  0
    9.3790  -14.1214   16.3306 C   0  0  0  0  0  0  0  0  0  0  0  0
   10.5922  -14.3175   16.7646 N   0  0  0  0  0  0  0  0  0  0  0  0
    8.6407  -12.9793   16.7110 N   0  0  0  0  0  0  0  0  0  0  0  0
    8.4007  -12.7436   18.1150 C   0  0  0  0  0  0  0  0  0  0  0  0
    7.2039  -13.4666   18.6292 C   0  0  0  0  0  0  0  0  0  0  0  0
    7.4579  -13.9704   20.0102 C   0  0  0  0  0  0  0  0  0  0  0  0
    8.8121  -14.6164   20.1739 C   0  0  2  0  0  0  0  0  0  0  0  0
    9.0203  -15.4719   19.0268 N   0  0  0  0  0  0  0  0  0  0  0  0
    8.7241  -15.4106   21.4370 C   0  0  0  0  0  0  0  0  0  0  0  0
    8.2415  -14.8308   22.4419 O   0  0  0  0  0  0  0  0  0  0  0  0
   11.0426  -13.6350   17.4083 C   0  0  0  0  0  0  0  0  0  0  0  0
    8.1780  -19.5011   21.5882 C   0  0  2  0  0  0  0  0  0  0  0  0
    9.2576  -18.9780   22.5043 O   0  0  0  0  0  0  0  0  0  0  0  0
   10.4942  -19.2616   21.9400 C   0  0  2  0  0  0  0  0  0  0  0  0
    9.0969  -17.5066   22.7990 N   0  0  0  0  0  0  0  0  0  0  0  0
    9.1569  -16.7606   21.5318 C   0  0  0  0  0  0  0  0  0  0  0  0
   10.0720  -16.9770   23.7674 O   0  0  0  0  0  0  0  0  0  0  0  0
   11.2404  -16.6282   23.4000 N   0  0  0  0  0  0  0  0  0  0  0  0
    9.0206  -13.9070   29.0331 C   0  0  0  0  0  0  0  0  0  0  0  0
   10.3885  -14.2133   29.2475 O   0  0  0  0  0  0  0  0  0  0  0  0
   10.9469  -13.7865   30.2901 C   0  0  0  0  0  0  0  0  0  0  0  0
   11.0836  -15.0249   28.2212 C   0  0  0  0  0  0  0  0  0  0  0  0
   10.1108  -15.4591   27.1466 C   0  0  1  0  0  0  0  0  0  0  0  0
   10.7821  -16.3301   26.1068 N   0  0  0  0  0  0  0  0  0  0  0  0
    9.8013  -16.8148   25.1474 C   0  0  0  0  0  0  0  0  0  0  0  0
   11.3665  -17.4953   26.8631 O   0  0  0  0  0  0  0  0  0  0  0  0
   12.6205  -17.4543   27.4044 O   0  0  0  0  0  0  0  0  0  0  0  0
  2  4  1  0
  2  1  1  0
  3  2  2  0
  5  4  1  0
  6  5  1  0
  7  8  1  0
  7  6  1  0
  8  9  1  6
  8 10  1  0
 10 11  2  0
 13 12  1  1
 13 15  1  0
 14 13  1  0
 16 10  1  0
 15 16  1  1
 17 15  1  0
 17 18  2  0
 19 20  1  0
 20 22  1  0
 20 21  2  0
 22 23  1  0
 24 23  1  6
 24 26  1  0
 24 25  1  0
 25 17  1  0
 26 27  1  0
 28 26  2  0
M  END
$$$$
