RTQ.pdb
     RDKit          3D

 28 27  0  0  1  0  0  0  0  0999 V2000
    7.2709  -14.1114   14.6176 N   0  0  0  0  0  0  0  0  0  0  0  0
    8.4405  -14.8433   14.2425 C   0  0  0  0  0  0  0  0  0  0  0  0
    8.3146  -15.6248   13.2070 N   0  0  0  0  0  0  0  0  0  0  0  0
    9.6654  -14.7400   14.9374 N   0  0  0  0  0  0  0  0  0  0  0  0
    9.6662  -14.1635   16.2611 C   0  0  0  0  0  0  0  0  0  0  0  0
    8.4018  -14.4187   17.0066 C   0  0  0  0  0  0  0  0  0  0  0  0
    8.4339  -13.7309   18.3300 C   0  0  0  0  0  0  0  0  0  0  0  0
    9.4815  -14.2808   19.2671 C   0  0  2  0  0  0  0  0  0  0  0  0
    9.6429  -15.6833   18.9538 N   0  0  0  0  0  0  0  0  0  0  0  0
    8.9258  -14.0899   20.6413 C   0  0  0  0  0  0  0  0  0  0  0  0
    8.7053  -12.9083   21.0075 O   0  0  0  0  0  0  0  0  0  0  0  0
    9.1262  -16.1710   12.8524 C   0  0  0  0  0  0  0  0  0  0  0  0
    5.7188  -14.9562   21.9804 C   0  0  2  0  0  0  0  0  0  0  0  0
    6.7115  -15.6154   22.9069 O   0  0  0  0  0  0  0  0  0  0  0  0
    6.7780  -16.9672   22.5968 C   0  0  2  0  0  0  0  0  0  0  0  0
    8.0690  -14.9580   22.8548 N   0  0  0  0  0  0  0  0  0  0  0  0
    8.6480  -15.1723   21.5189 C   0  0  0  0  0  0  0  0  0  0  0  0
    8.9959  -15.4074   23.9075 O   0  0  0  0  0  0  0  0  0  0  0  0
   10.0198  -16.1102   23.6257 N   0  0  0  0  0  0  0  0  0  0  0  0
   10.6562  -13.0334   28.8989 C   0  0  0  0  0  0  0  0  0  0  0  0
   10.9887  -14.3343   29.3552 O   0  0  0  0  0  0  0  0  0  0  0  0
   11.8783  -14.4567   30.2353 C   0  0  0  0  0  0  0  0  0  0  0  0
   10.2615  -15.4810   28.7625 C   0  0  0  0  0  0  0  0  0  0  0  0
    9.3394  -15.0061   27.6606 C   0  0  2  0  0  0  0  0  0  0  0  0
    9.7067  -15.6168   26.3255 N   0  0  0  0  0  0  0  0  0  0  0  0
    8.8326  -15.1049   25.2808 C   0  0  0  0  0  0  0  0  0  0  0  0
    9.4928  -17.1005   26.4802 O   0  0  0  0  0  0  0  0  0  0  0  0
   10.4766  -17.9325   26.9351 O   0  0  0  0  0  0  0  0  0  0  0  0
  2  4  1  0
  2  1  1  0
  3  2  2  0
  5  4  1  0
  6  5  1  0
  7  8  1  0
  7  6  1  0
  8  9  1  6
  8 10  1  0
 10 11  2  0
 13 12  1  1
 13 15  1  0
 14 13  1  0
 16 10  1  0
 15 16  1  1
 17 15  1  0
 17 18  2  0
 19 20  1  0
 20 22  1  0
 20 21  2  0
 22 23  1  0
 24 23  1  6
 24 26  1  0
 24 25  1  0
 25 17  1  0
 26 27  1  0
 28 26  2  0
M  END
$$$$
