RTQ.pdb
     RDKit          3D

 28 27  0  0  1  0  0  0  0  0999 V2000
    7.4920  -14.8737   14.2556 N   0  0  0  0  0  0  0  0  0  0  0  0
    7.9736  -13.5275   14.2418 C   0  0  0  0  0  0  0  0  0  0  0  0
    7.9591  -12.9301   13.0835 N   0  0  0  0  0  0  0  0  0  0  0  0
    8.4400  -12.8682   15.4002 N   0  0  0  0  0  0  0  0  0  0  0  0
    8.3034  -13.5278   16.6771 C   0  0  0  0  0  0  0  0  0  0  0  0
    6.9938  -14.2201   16.8361 C   0  0  0  0  0  0  0  0  0  0  0  0
    7.0507  -15.1783   17.9781 C   0  0  0  0  0  0  0  0  0  0  0  0
    7.2903  -14.5109   19.3104 C   0  0  2  0  0  0  0  0  0  0  0  0
    8.2278  -13.4328   19.0872 N   0  0  0  0  0  0  0  0  0  0  0  0
    7.8767  -15.5703   20.1864 C   0  0  0  0  0  0  0  0  0  0  0  0
    7.2218  -16.6356   20.3083 O   0  0  0  0  0  0  0  0  0  0  0  0
    8.2563  -11.9369   12.9947 C   0  0  0  0  0  0  0  0  0  0  0  0
   10.5724  -17.6730   19.6371 C   0  0  2  0  0  0  0  0  0  0  0  0
   10.9178  -17.0299   20.9584 O   0  0  0  0  0  0  0  0  0  0  0  0
   11.8645  -16.0390   20.7355 C   0  0  2  0  0  0  0  0  0  0  0  0
    9.7001  -16.4955   21.6720 N   0  0  0  0  0  0  0  0  0  0  0  0
    9.1153  -15.4128   20.8648 C   0  0  0  0  0  0  0  0  0  0  0  0
    9.9603  -16.0427   23.0491 O   0  0  0  0  0  0  0  0  0  0  0  0
   10.4131  -14.8755   23.2828 N   0  0  0  0  0  0  0  0  0  0  0  0
    9.4560  -19.5857   28.2600 C   0  0  0  0  0  0  0  0  0  0  0  0
   10.2764  -18.5389   28.7521 O   0  0  0  0  0  0  0  0  0  0  0  0
   10.6889  -18.6014   29.9383 C   0  0  0  0  0  0  0  0  0  0  0  0
   10.6011  -17.4248   27.8311 C   0  0  0  0  0  0  0  0  0  0  0  0
    9.9612  -17.6564   26.4795 C   0  0  1  0  0  0  0  0  0  0  0  0
   10.3271  -16.5658   25.4960 N   0  0  0  0  0  0  0  0  0  0  0  0
    9.7353  -16.8419   24.1957 C   0  0  0  0  0  0  0  0  0  0  0  0
   11.8296  -16.6014   25.3843 O   0  0  0  0  0  0  0  0  0  0  0  0
   12.6365  -15.8667   26.2066 O   0  0  0  0  0  0  0  0  0  0  0  0
  2  4  1  0
  2  1  1  0
  3  2  2  0
  5  4  1  0
  6  5  1  0
  7  8  1  0
  7  6  1  0
  8  9  1  6
  8 10  1  0
 10 11  2  0
 13 12  1  1
 13 15  1  0
 14 13  1  0
 16 10  1  0
 15 16  1  1
 17 15  1  0
 17 18  2  0
 19 20  1  0
 20 22  1  0
 20 21  2  0
 22 23  1  0
 24 23  1  1
 24 26  1  0
 24 25  1  0
 25 17  1  0
 26 27  1  0
 28 26  2  0
M  END
$$$$
