RTQ.pdb
     RDKit          3D

 28 27  0  0  1  0  0  0  0  0999 V2000
   15.7686  -13.3827   17.1235 N   0  0  0  0  0  0  0  0  0  0  0  0
   16.4567  -14.2305   18.0466 C   0  0  0  0  0  0  0  0  0  0  0  0
   17.5588  -14.7715   17.6089 N   0  0  0  0  0  0  0  0  0  0  0  0
   15.9881  -14.4792   19.3552 N   0  0  0  0  0  0  0  0  0  0  0  0
   14.5657  -14.4508   19.6005 C   0  0  0  0  0  0  0  0  0  0  0  0
   13.7722  -15.0402   18.4857 C   0  0  0  0  0  0  0  0  0  0  0  0
   12.5646  -15.7337   19.0208 C   0  0  0  0  0  0  0  0  0  0  0  0
   11.2702  -15.0402   18.6723 C   0  0  2  0  0  0  0  0  0  0  0  0
   11.6057  -13.8840   17.8712 N   0  0  0  0  0  0  0  0  0  0  0  0
   10.6680  -14.6405   19.9805 C   0  0  0  0  0  0  0  0  0  0  0  0
   11.1109  -13.5933   20.5152 O   0  0  0  0  0  0  0  0  0  0  0  0
   18.1206  -15.3997   18.2193 C   0  0  0  0  0  0  0  0  0  0  0  0
    7.2113  -13.8189   20.8534 C   0  0  2  0  0  0  0  0  0  0  0  0
    7.6248  -14.8671   21.8578 O   0  0  0  0  0  0  0  0  0  0  0  0
    7.0012  -16.0641   21.5322 C   0  0  2  0  0  0  0  0  0  0  0  0
    9.1238  -15.0182   21.9452 N   0  0  0  0  0  0  0  0  0  0  0  0
    9.6407  -15.3873   20.6177 C   0  0  0  0  0  0  0  0  0  0  0  0
    9.5732  -15.9767   22.9693 O   0  0  0  0  0  0  0  0  0  0  0  0
   10.6432  -16.6498   22.8152 N   0  0  0  0  0  0  0  0  0  0  0  0
    9.3960  -12.8208   27.6803 C   0  0  0  0  0  0  0  0  0  0  0  0
   10.0314  -13.9099   28.3292 O   0  0  0  0  0  0  0  0  0  0  0  0
   10.4891  -13.7392   29.4879 C   0  0  0  0  0  0  0  0  0  0  0  0
   10.1185  -15.1947   27.5967 C   0  0  0  0  0  0  0  0  0  0  0  0
    9.4905  -15.0624   26.2263 C   0  0  1  0  0  0  0  0  0  0  0  0
    9.5301  -16.3709   25.4669 N   0  0  0  0  0  0  0  0  0  0  0  0
    8.8752  -16.2233   24.1759 C   0  0  0  0  0  0  0  0  0  0  0  0
    8.7654  -17.3582   26.3106 O   0  0  0  0  0  0  0  0  0  0  0  0
    7.4488  -17.6427   26.0814 O   0  0  0  0  0  0  0  0  0  0  0  0
  2  4  1  0
  2  1  1  0
  3  2  2  0
  5  4  1  0
  6  5  1  0
  7  8  1  0
  7  6  1  0
  8  9  1  6
  8 10  1  0
 10 11  2  0
 13 12  1  1
 13 15  1  0
 14 13  1  0
 16 10  1  0
 15 16  1  1
 17 15  1  0
 17 18  2  0
 19 20  1  0
 20 22  1  0
 20 21  2  0
 22 23  1  0
 24 23  1  6
 24 26  1  0
 24 25  1  0
 25 17  1  0
 26 27  1  0
 28 26  2  0
M  END
$$$$
