PVT.pdb
     RDKit          3D

 22 22  0  0  1  0  0  0  0  0999 V2000
    7.0389  -14.6565   21.0137 N   0  0  0  0  0  0  0  0  0  0  0  0
    6.9544  -14.4252   19.5830 C   0  0  0  0  0  0  0  0  0  0  0  0
    7.4110  -12.9696   19.4964 C   0  0  0  0  0  0  0  0  0  0  0  0
    8.3695  -12.8136   20.6604 C   0  0  0  0  0  0  0  0  0  0  0  0
    8.3506  -14.1729   21.3088 C   0  0  1  0  0  0  0  0  0  0  0  0
    8.6596  -14.1256   22.7521 C   0  0  0  0  0  0  0  0  0  0  0  0
    9.8818  -14.1505   23.0706 O   0  0  0  0  0  0  0  0  0  0  0  0
    5.7665  -13.4615   25.9950 C   0  0  0  0  0  0  0  0  0  0  0  0
    7.2226  -13.1404   25.9960 C   0  0  2  0  0  0  0  0  0  0  0  0
    7.4296  -11.7026   25.6120 C   0  0  0  0  0  0  0  0  0  0  0  0
    8.0519  -14.0641   25.1374 C   0  0  2  0  0  0  0  0  0  0  0  0
    7.6659  -14.0555   23.7636 N   0  0  0  0  0  0  0  0  0  0  0  0
    8.0594  -15.4554   25.7082 C   0  0  0  0  0  0  0  0  0  0  0  0
    6.9726  -16.0817   25.7981 O   0  0  0  0  0  0  0  0  0  0  0  0
    9.2898  -18.4952   24.3383 C   0  0  0  0  0  0  0  0  0  0  0  0
   10.0212  -18.3561   25.6419 C   0  0  1  0  0  0  0  0  0  0  0  0
   11.3243  -17.9010   25.4976 O   0  0  0  0  0  0  0  0  0  0  0  0
    9.2733  -17.4632   26.6114 C   0  0  2  0  0  0  0  0  0  0  0  0
    9.2367  -16.0937   26.1500 N   0  0  0  0  0  0  0  0  0  0  0  0
    9.8715  -17.5738   27.9658 C   0  0  0  0  0  0  0  0  0  0  0  0
   10.3636  -16.5403   28.4834 O   0  0  0  0  0  0  0  0  0  0  0  0
    9.9226  -18.7489   28.6996 O   0  0  0  0  0  0  0  0  0  0  0  0
  1  5  1  0
  2  1  1  0
  3  4  1  0
  3  2  1  0
  4  5  1  0
  6  7  2  0
  5  6  1  1
  9  8  1  6
  9 11  1  0
 10  9  1  0
 11 12  1  6
 11 13  1  0
 12  6  1  0
 13 19  1  0
 14 13  2  0
 16 17  1  0
 16 15  1  6
 18 16  1  0
 18 19  1  6
 20 18  1  0
 20 22  1  0
 21 20  2  0
M  END
$$$$
