PVT.pdb
     RDKit          3D

 22 22  0  0  1  0  0  0  0  0999 V2000
    7.0648  -15.9990   21.5639 N   0  0  0  0  0  0  0  0  0  0  0  0
    6.8196  -15.9298   20.1348 C   0  0  0  0  0  0  0  0  0  0  0  0
    6.7339  -14.4183   19.9274 C   0  0  0  0  0  0  0  0  0  0  0  0
    7.6457  -13.8471   20.9952 C   0  0  0  0  0  0  0  0  0  0  0  0
    8.1407  -15.0716   21.7189 C   0  0  1  0  0  0  0  0  0  0  0  0
    8.4995  -14.8020   23.1259 C   0  0  0  0  0  0  0  0  0  0  0  0
    9.7299  -14.6733   23.3817 O   0  0  0  0  0  0  0  0  0  0  0  0
    6.6655  -12.2265   25.4043 C   0  0  0  0  0  0  0  0  0  0  0  0
    7.0490  -13.4202   26.2115 C   0  0  2  0  0  0  0  0  0  0  0  0
    7.6268  -12.9835   27.5278 C   0  0  0  0  0  0  0  0  0  0  0  0
    7.9746  -14.3713   25.4926 C   0  0  2  0  0  0  0  0  0  0  0  0
    7.5437  -14.6858   24.1691 N   0  0  0  0  0  0  0  0  0  0  0  0
    8.2071  -15.6090   26.3147 C   0  0  0  0  0  0  0  0  0  0  0  0
    7.2188  -16.3105   26.6504 O   0  0  0  0  0  0  0  0  0  0  0  0
    9.9438  -18.6463   25.4104 C   0  0  0  0  0  0  0  0  0  0  0  0
   10.6104  -18.1975   26.6784 C   0  0  1  0  0  0  0  0  0  0  0  0
   11.8584  -17.6261   26.4734 O   0  0  0  0  0  0  0  0  0  0  0  0
    9.7347  -17.2420   27.4638 C   0  0  2  0  0  0  0  0  0  0  0  0
    9.4905  -16.0213   26.7288 N   0  0  0  0  0  0  0  0  0  0  0  0
   10.3417  -16.9746   28.7921 C   0  0  0  0  0  0  0  0  0  0  0  0
   10.6783  -15.7953   29.0642 O   0  0  0  0  0  0  0  0  0  0  0  0
   10.5623  -17.9464   29.7560 O   0  0  0  0  0  0  0  0  0  0  0  0
  1  5  1  0
  2  1  1  0
  3  4  1  0
  3  2  1  0
  4  5  1  0
  6  7  2  0
  5  6  1  1
  9  8  1  6
  9 11  1  0
 10  9  1  0
 11 12  1  6
 11 13  1  0
 12  6  1  0
 13 19  1  0
 14 13  2  0
 16 17  1  0
 16 15  1  6
 18 16  1  0
 18 19  1  6
 20 18  1  0
 20 22  1  0
 21 20  2  0
M  END
$$$$
