PVT.pdb
     RDKit          3D

 22 22  0  0  1  0  0  0  0  0999 V2000
    6.9922  -14.6097   20.8346 N   0  0  0  0  0  0  0  0  0  0  0  0
    6.8204  -14.2584   19.4366 C   0  0  0  0  0  0  0  0  0  0  0  0
    7.1759  -12.7726   19.4644 C   0  0  0  0  0  0  0  0  0  0  0  0
    8.1798  -12.6544   20.5941 C   0  0  0  0  0  0  0  0  0  0  0  0
    8.2827  -14.0639   21.1145 C   0  0  1  0  0  0  0  0  0  0  0  0
    8.6606  -14.1239   22.5409 C   0  0  0  0  0  0  0  0  0  0  0  0
    9.8966  -14.1002   22.8006 O   0  0  0  0  0  0  0  0  0  0  0  0
    5.9306  -13.7339   25.9708 C   0  0  0  0  0  0  0  0  0  0  0  0
    7.3722  -13.3645   25.8770 C   0  0  2  0  0  0  0  0  0  0  0  0
    7.5056  -11.9161   25.5005 C   0  0  0  0  0  0  0  0  0  0  0  0
    8.1700  -14.2496   24.9504 C   0  0  2  0  0  0  0  0  0  0  0  0
    7.7166  -14.2047   23.5981 N   0  0  0  0  0  0  0  0  0  0  0  0
    8.2236  -15.6574   25.4766 C   0  0  0  0  0  0  0  0  0  0  0  0
    7.1535  -16.3103   25.5767 O   0  0  0  0  0  0  0  0  0  0  0  0
    9.5572  -18.6868   24.0592 C   0  0  0  0  0  0  0  0  0  0  0  0
   10.2769  -18.5231   25.3664 C   0  0  1  0  0  0  0  0  0  0  0  0
   11.5671  -18.0306   25.2281 O   0  0  0  0  0  0  0  0  0  0  0  0
    9.4980  -17.6498   26.3293 C   0  0  2  0  0  0  0  0  0  0  0  0
    9.4265  -16.2825   25.8653 N   0  0  0  0  0  0  0  0  0  0  0  0
   10.0898  -17.7415   27.6879 C   0  0  0  0  0  0  0  0  0  0  0  0
   10.6231  -16.7129   28.1736 O   0  0  0  0  0  0  0  0  0  0  0  0
   10.0922  -18.8937   28.4588 O   0  0  0  0  0  0  0  0  0  0  0  0
  1  5  1  0
  2  1  1  0
  3  4  1  0
  3  2  1  0
  4  5  1  0
  6  7  2  0
  5  6  1  1
  9  8  1  6
  9 11  1  0
 10  9  1  0
 11 12  1  6
 11 13  1  0
 12  6  1  0
 13 19  1  0
 14 13  2  0
 16 17  1  0
 16 15  1  6
 18 16  1  0
 18 19  1  6
 20 18  1  0
 20 22  1  0
 21 20  2  0
M  END
$$$$
