PVT.pdb
     RDKit          3D

 22 22  0  0  1  0  0  0  0  0999 V2000
    8.2530  -14.8080   20.3886 N   0  0  0  0  0  0  0  0  0  0  0  0
    7.4796  -15.2435   19.2399 C   0  0  0  0  0  0  0  0  0  0  0  0
    6.7880  -16.4821   19.8078 C   0  0  0  0  0  0  0  0  0  0  0  0
    6.6332  -16.1742   21.2840 C   0  0  0  0  0  0  0  0  0  0  0  0
    7.2663  -14.8146   21.4221 C   0  0  1  0  0  0  0  0  0  0  0  0
    7.8129  -14.5695   22.7720 C   0  0  0  0  0  0  0  0  0  0  0  0
    9.0413  -14.8127   22.9382 O   0  0  0  0  0  0  0  0  0  0  0  0
    6.5612  -11.6862   25.5311 C   0  0  0  0  0  0  0  0  0  0  0  0
    6.8267  -13.0509   26.0704 C   0  0  2  0  0  0  0  0  0  0  0  0
    7.4709  -12.9496   27.4239 C   0  0  0  0  0  0  0  0  0  0  0  0
    7.6315  -13.9279   25.1422 C   0  0  2  0  0  0  0  0  0  0  0  0
    7.0340  -14.0859   23.8560 N   0  0  0  0  0  0  0  0  0  0  0  0
    7.9283  -15.2531   25.7883 C   0  0  0  0  0  0  0  0  0  0  0  0
    6.9805  -16.0517   26.0011 O   0  0  0  0  0  0  0  0  0  0  0  0
   11.7900  -16.7664   25.5082 C   0  0  0  0  0  0  0  0  0  0  0  0
   10.5772  -17.6310   25.6959 C   0  0  1  0  0  0  0  0  0  0  0  0
   10.8742  -18.9049   26.1594 O   0  0  0  0  0  0  0  0  0  0  0  0
    9.5606  -16.9790   26.6114 C   0  0  2  0  0  0  0  0  0  0  0  0
    9.2289  -15.6433   26.1689 N   0  0  0  0  0  0  0  0  0  0  0  0
   10.0589  -16.9895   28.0099 C   0  0  0  0  0  0  0  0  0  0  0  0
   10.2517  -15.8865   28.5795 O   0  0  0  0  0  0  0  0  0  0  0  0
   10.3264  -18.1427   28.7314 O   0  0  0  0  0  0  0  0  0  0  0  0
  1  5  1  0
  2  1  1  0
  3  4  1  0
  3  2  1  0
  4  5  1  0
  6  7  2  0
  5  6  1  1
  9  8  1  6
  9 11  1  0
 10  9  1  0
 11 12  1  6
 11 13  1  0
 12  6  1  0
 13 19  1  0
 14 13  2  0
 16 17  1  0
 16 15  1  1
 18 16  1  0
 18 19  1  6
 20 18  1  0
 20 22  1  0
 21 20  2  0
M  END
$$$$
