PVT.pdb
     RDKit          3D

 22 22  0  0  1  0  0  0  0  0999 V2000
    7.5640  -15.0004   18.7060 N   0  0  0  0  0  0  0  0  0  0  0  0
    7.8987  -14.1226   17.5993 C   0  0  0  0  0  0  0  0  0  0  0  0
    7.8335  -12.7569   18.2816 C   0  0  0  0  0  0  0  0  0  0  0  0
    8.2241  -13.0430   19.7181 C   0  0  0  0  0  0  0  0  0  0  0  0
    8.4488  -14.5322   19.7256 C   0  0  1  0  0  0  0  0  0  0  0  0
    8.2119  -15.1426   21.0493 C   0  0  0  0  0  0  0  0  0  0  0  0
    7.0091  -15.3726   21.3596 O   0  0  0  0  0  0  0  0  0  0  0  0
    9.7879  -18.2914   22.7039 C   0  0  0  0  0  0  0  0  0  0  0  0
    9.8073  -17.1473   23.6600 C   0  0  2  0  0  0  0  0  0  0  0  0
    9.4641  -17.6290   25.0412 C   0  0  0  0  0  0  0  0  0  0  0  0
    8.9294  -15.9913   23.2464 C   0  0  2  0  0  0  0  0  0  0  0  0
    9.2524  -15.4705   21.9578 N   0  0  0  0  0  0  0  0  0  0  0  0
    8.9322  -14.9188   24.3006 C   0  0  0  0  0  0  0  0  0  0  0  0
    9.9460  -14.1840   24.4179 O   0  0  0  0  0  0  0  0  0  0  0  0
    6.3836  -11.9219   27.2725 C   0  0  0  0  0  0  0  0  0  0  0  0
    6.4104  -13.0769   26.3140 C   0  0  1  0  0  0  0  0  0  0  0  0
    5.8773  -12.7733   25.0690 O   0  0  0  0  0  0  0  0  0  0  0  0
    7.8096  -13.6346   26.1476 C   0  0  2  0  0  0  0  0  0  0  0  0
    7.8432  -14.6982   25.1690 N   0  0  0  0  0  0  0  0  0  0  0  0
    8.3376  -14.0775   27.4627 C   0  0  0  0  0  0  0  0  0  0  0  0
    8.3099  -15.3046   27.7306 O   0  0  0  0  0  0  0  0  0  0  0  0
    8.8617  -13.2210   28.4185 O   0  0  0  0  0  0  0  0  0  0  0  0
  1  5  1  0
  2  1  1  0
  3  4  1  0
  3  2  1  0
  4  5  1  0
  6  7  2  0
  5  6  1  1
  9  8  1  6
  9 11  1  0
 10  9  1  0
 11 12  1  6
 11 13  1  0
 12  6  1  0
 13 19  1  0
 14 13  2  0
 16 17  1  0
 16 15  1  1
 18 16  1  0
 18 19  1  6
 20 18  1  0
 20 22  1  0
 21 20  2  0
M  END
$$$$
