PVT.pdb
     RDKit          3D

 22 22  0  0  1  0  0  0  0  0999 V2000
    7.0306  -14.7188   20.8889 N   0  0  0  0  0  0  0  0  0  0  0  0
    6.9647  -14.5107   19.4537 C   0  0  0  0  0  0  0  0  0  0  0  0
    7.2661  -13.0155   19.3626 C   0  0  0  0  0  0  0  0  0  0  0  0
    8.1675  -12.7477   20.5516 C   0  0  0  0  0  0  0  0  0  0  0  0
    8.2740  -14.0953   21.2156 C   0  0  1  0  0  0  0  0  0  0  0  0
    8.5330  -14.0023   22.6666 C   0  0  0  0  0  0  0  0  0  0  0  0
    9.7406  -13.8897   23.0201 O   0  0  0  0  0  0  0  0  0  0  0  0
    6.5325  -11.8162   25.2255 C   0  0  0  0  0  0  0  0  0  0  0  0
    6.8700  -13.1328   25.8390 C   0  0  2  0  0  0  0  0  0  0  0  0
    7.3544  -12.9318   27.2469 C   0  0  0  0  0  0  0  0  0  0  0  0
    7.8494  -13.9493   25.0314 C   0  0  2  0  0  0  0  0  0  0  0  0
    7.5081  -14.0338   23.6484 N   0  0  0  0  0  0  0  0  0  0  0  0
    8.0401  -15.3090   25.6451 C   0  0  0  0  0  0  0  0  0  0  0  0
    7.0321  -16.0356   25.8386 O   0  0  0  0  0  0  0  0  0  0  0  0
    9.7431  -18.2303   24.3470 C   0  0  0  0  0  0  0  0  0  0  0  0
   10.3845  -17.9809   25.6811 C   0  0  1  0  0  0  0  0  0  0  0  0
   11.6479  -17.4139   25.5886 O   0  0  0  0  0  0  0  0  0  0  0  0
    9.5065  -17.1276   26.5741 C   0  0  2  0  0  0  0  0  0  0  0  0
    9.3053  -15.8093   26.0158 N   0  0  0  0  0  0  0  0  0  0  0  0
   10.0828  -17.0661   27.9410 C   0  0  0  0  0  0  0  0  0  0  0  0
   10.4345  -15.9456   28.3870 O   0  0  0  0  0  0  0  0  0  0  0  0
   10.2587  -18.1701   28.7610 O   0  0  0  0  0  0  0  0  0  0  0  0
  1  5  1  0
  2  1  1  0
  3  4  1  0
  3  2  1  0
  4  5  1  0
  6  7  2  0
  5  6  1  1
  9  8  1  6
  9 11  1  0
 10  9  1  0
 11 12  1  6
 11 13  1  0
 12  6  1  0
 13 19  1  0
 14 13  2  0
 16 17  1  0
 16 15  1  6
 18 16  1  0
 18 19  1  6
 20 18  1  0
 20 22  1  0
 21 20  2  0
M  END
$$$$
