PVT.pdb
     RDKit          3D

 22 22  0  0  1  0  0  0  0  0999 V2000
    7.4778  -14.7758   18.7654 N   0  0  0  0  0  0  0  0  0  0  0  0
    7.8034  -13.8735   17.6758 C   0  0  0  0  0  0  0  0  0  0  0  0
    7.6620  -12.5187   18.3680 C   0  0  0  0  0  0  0  0  0  0  0  0
    8.0267  -12.8021   19.8118 C   0  0  0  0  0  0  0  0  0  0  0  0
    8.3146  -14.2804   19.8122 C   0  0  1  0  0  0  0  0  0  0  0  0
    8.0694  -14.9135   21.1238 C   0  0  0  0  0  0  0  0  0  0  0  0
    6.8730  -15.2192   21.3900 O   0  0  0  0  0  0  0  0  0  0  0  0
    9.3672  -18.0984   22.4619 C   0  0  0  0  0  0  0  0  0  0  0  0
    9.5293  -17.0898   23.5481 C   0  0  2  0  0  0  0  0  0  0  0  0
    9.1674  -17.7011   24.8720 C   0  0  0  0  0  0  0  0  0  0  0  0
    8.7703  -15.8073   23.3083 C   0  0  2  0  0  0  0  0  0  0  0  0
    9.0956  -15.1829   22.0671 N   0  0  0  0  0  0  0  0  0  0  0  0
    8.9378  -14.8663   24.4694 C   0  0  0  0  0  0  0  0  0  0  0  0
   10.0455  -14.2937   24.6331 O   0  0  0  0  0  0  0  0  0  0  0  0
    6.4230  -11.9014   25.6018 C   0  0  0  0  0  0  0  0  0  0  0  0
    6.7091  -12.8981   26.6873 C   0  0  1  0  0  0  0  0  0  0  0  0
    5.6903  -13.8228   26.8699 O   0  0  0  0  0  0  0  0  0  0  0  0
    8.0192  -13.6224   26.4517 C   0  0  2  0  0  0  0  0  0  0  0  0
    7.9032  -14.5950   25.3884 N   0  0  0  0  0  0  0  0  0  0  0  0
    8.4903  -14.2408   27.7166 C   0  0  0  0  0  0  0  0  0  0  0  0
    8.5561  -15.4939   27.7761 O   0  0  0  0  0  0  0  0  0  0  0  0
    8.8640  -13.5218   28.8415 O   0  0  0  0  0  0  0  0  0  0  0  0
  1  5  1  0
  2  1  1  0
  3  4  1  0
  3  2  1  0
  4  5  1  0
  6  7  2  0
  5  6  1  1
  9  8  1  6
  9 11  1  0
 10  9  1  0
 11 12  1  6
 11 13  1  0
 12  6  1  0
 13 19  1  0
 14 13  2  0
 16 17  1  0
 16 15  1  6
 18 16  1  0
 18 19  1  6
 20 18  1  0
 20 22  1  0
 21 20  2  0
M  END
$$$$
