PVT.pdb
     RDKit          3D

 22 22  0  0  1  0  0  0  0  0999 V2000
    6.9955  -15.2149   21.2977 N   0  0  0  0  0  0  0  0  0  0  0  0
    6.8926  -15.1895   19.8499 C   0  0  0  0  0  0  0  0  0  0  0  0
    7.2753  -13.7395   19.5567 C   0  0  0  0  0  0  0  0  0  0  0  0
    8.2304  -13.3763   20.6763 C   0  0  0  0  0  0  0  0  0  0  0  0
    8.2828  -14.6312   21.5074 C   0  0  1  0  0  0  0  0  0  0  0  0
    8.5960  -14.3683   22.9264 C   0  0  0  0  0  0  0  0  0  0  0  0
    9.8145  -14.2034   23.2161 O   0  0  0  0  0  0  0  0  0  0  0  0
    6.4609  -11.9780   25.1887 C   0  0  0  0  0  0  0  0  0  0  0  0
    6.9781  -13.1164   26.0012 C   0  0  2  0  0  0  0  0  0  0  0  0
    7.5179  -12.6084   27.3081 C   0  0  0  0  0  0  0  0  0  0  0  0
    7.9940  -13.9687   25.2802 C   0  0  2  0  0  0  0  0  0  0  0  0
    7.6102  -14.2962   23.9455 N   0  0  0  0  0  0  0  0  0  0  0  0
    8.3246  -15.1955   26.0849 C   0  0  0  0  0  0  0  0  0  0  0  0
    7.3962  -15.9811   26.4050 O   0  0  0  0  0  0  0  0  0  0  0  0
   10.5789  -18.0409   25.2376 C   0  0  0  0  0  0  0  0  0  0  0  0
   11.0493  -17.5048   26.5586 C   0  0  1  0  0  0  0  0  0  0  0  0
   12.2116  -16.7520   26.4663 O   0  0  0  0  0  0  0  0  0  0  0  0
    9.9710  -16.6956   27.2508 C   0  0  2  0  0  0  0  0  0  0  0  0
    9.6360  -15.5069   26.4993 N   0  0  0  0  0  0  0  0  0  0  0  0
   10.3926  -16.3719   28.6371 C   0  0  0  0  0  0  0  0  0  0  0  0
   10.5538  -15.1638   28.9415 O   0  0  0  0  0  0  0  0  0  0  0  0
   10.6208  -17.3205   29.6220 O   0  0  0  0  0  0  0  0  0  0  0  0
  1  5  1  0
  2  1  1  0
  3  4  1  0
  3  2  1  0
  4  5  1  0
  6  7  2  0
  5  6  1  1
  9  8  1  6
  9 11  1  0
 10  9  1  0
 11 12  1  6
 11 13  1  0
 12  6  1  0
 13 19  1  0
 14 13  2  0
 16 17  1  0
 16 15  1  6
 18 16  1  0
 18 19  1  6
 20 18  1  0
 20 22  1  0
 21 20  2  0
M  END
$$$$
