PVT.pdb
     RDKit          3D

 22 22  0  0  1  0  0  0  0  0999 V2000
    6.9368  -14.6879   20.8901 N   0  0  0  0  0  0  0  0  0  0  0  0
    6.9116  -14.4436   19.4593 C   0  0  0  0  0  0  0  0  0  0  0  0
    7.4457  -13.0133   19.3992 C   0  0  0  0  0  0  0  0  0  0  0  0
    8.3722  -12.9147   20.5949 C   0  0  0  0  0  0  0  0  0  0  0  0
    8.2615  -14.2751   21.2316 C   0  0  1  0  0  0  0  0  0  0  0  0
    8.5248  -14.2530   22.6845 C   0  0  0  0  0  0  0  0  0  0  0  0
    9.7370  -14.2415   23.0401 O   0  0  0  0  0  0  0  0  0  0  0  0
    6.5308  -11.9442   25.1218 C   0  0  0  0  0  0  0  0  0  0  0  0
    6.8624  -13.2272   25.8055 C   0  0  2  0  0  0  0  0  0  0  0  0
    7.3473  -12.9528   27.2008 C   0  0  0  0  0  0  0  0  0  0  0  0
    7.8384  -14.0904   25.0435 C   0  0  2  0  0  0  0  0  0  0  0  0
    7.4991  -14.2445   23.6661 N   0  0  0  0  0  0  0  0  0  0  0  0
    8.0198  -15.4174   25.7274 C   0  0  0  0  0  0  0  0  0  0  0  0
    7.0125  -16.1456   25.9187 O   0  0  0  0  0  0  0  0  0  0  0  0
    9.6117  -18.4697   24.6934 C   0  0  0  0  0  0  0  0  0  0  0  0
   10.3083  -18.0958   25.9695 C   0  0  1  0  0  0  0  0  0  0  0  0
   11.5638  -17.5391   25.7701 O   0  0  0  0  0  0  0  0  0  0  0  0
    9.4651  -17.1632   26.8155 C   0  0  2  0  0  0  0  0  0  0  0  0
    9.2755  -15.8853   26.1668 N   0  0  0  0  0  0  0  0  0  0  0  0
   10.0719  -17.0139   28.1623 C   0  0  0  0  0  0  0  0  0  0  0  0
   10.4810  -15.8770   28.5063 O   0  0  0  0  0  0  0  0  0  0  0  0
   10.2170  -18.0524   29.0692 O   0  0  0  0  0  0  0  0  0  0  0  0
  1  5  1  0
  2  1  1  0
  3  4  1  0
  3  2  1  0
  4  5  1  0
  6  7  2  0
  5  6  1  1
  9  8  1  6
  9 11  1  0
 10  9  1  0
 11 12  1  6
 11 13  1  0
 12  6  1  0
 13 19  1  0
 14 13  2  0
 16 17  1  0
 16 15  1  6
 18 16  1  0
 18 19  1  6
 20 18  1  0
 20 22  1  0
 21 20  2  0
M  END
$$$$
