PVT.pdb
     RDKit          3D

 22 22  0  0  1  0  0  0  0  0999 V2000
    7.9438  -16.0472   15.7758 N   0  0  0  0  0  0  0  0  0  0  0  0
    7.7163  -15.9010   14.3495 C   0  0  0  0  0  0  0  0  0  0  0  0
    7.5516  -14.3862   14.2351 C   0  0  0  0  0  0  0  0  0  0  0  0
    8.4150  -13.8357   15.3528 C   0  0  0  0  0  0  0  0  0  0  0  0
    8.9652  -15.0753   16.0077 C   0  0  1  0  0  0  0  0  0  0  0  0
    9.2880  -14.8763   17.4350 C   0  0  0  0  0  0  0  0  0  0  0  0
   10.4917  -14.6108   17.7116 O   0  0  0  0  0  0  0  0  0  0  0  0
    7.0635  -12.6623   19.8116 C   0  0  0  0  0  0  0  0  0  0  0  0
    7.5748  -13.8635   20.5321 C   0  0  2  0  0  0  0  0  0  0  0  0
    7.9918  -13.4854   21.9251 C   0  0  0  0  0  0  0  0  0  0  0  0
    8.6814  -14.5869   19.8037 C   0  0  2  0  0  0  0  0  0  0  0  0
    8.3266  -14.9693   18.4755 N   0  0  0  0  0  0  0  0  0  0  0  0
    9.1721  -15.7569   20.6111 C   0  0  0  0  0  0  0  0  0  0  0  0
    8.3777  -16.6994   20.8607 O   0  0  0  0  0  0  0  0  0  0  0  0
   11.4635  -18.3219   19.7621 C   0  0  0  0  0  0  0  0  0  0  0  0
   12.0408  -17.7384   21.0190 C   0  0  1  0  0  0  0  0  0  0  0  0
   13.1316  -16.9107   20.7927 O   0  0  0  0  0  0  0  0  0  0  0  0
   10.9941  -16.9943   21.8235 C   0  0  2  0  0  0  0  0  0  0  0  0
   10.4903  -15.8461   21.1040 N   0  0  0  0  0  0  0  0  0  0  0  0
   11.5480  -16.6164   23.1481 C   0  0  0  0  0  0  0  0  0  0  0  0
   11.7058  -15.3956   23.3990 O   0  0  0  0  0  0  0  0  0  0  0  0
   11.9039  -17.5274   24.1307 O   0  0  0  0  0  0  0  0  0  0  0  0
  1  5  1  0
  2  1  1  0
  3  4  1  0
  3  2  1  0
  4  5  1  0
  6  7  2  0
  5  6  1  1
  9  8  1  6
  9 11  1  0
 10  9  1  0
 11 12  1  6
 11 13  1  0
 12  6  1  0
 13 19  1  0
 14 13  2  0
 16 17  1  0
 16 15  1  6
 18 16  1  0
 18 19  1  6
 20 18  1  0
 20 22  1  0
 21 20  2  0
M  END
$$$$
