PVT.pdb
     RDKit          3D

 22 22  0  0  1  0  0  0  0  0999 V2000
    8.3886  -14.6688   20.3753 N   0  0  0  0  0  0  0  0  0  0  0  0
    7.6274  -14.9695   19.1764 C   0  0  0  0  0  0  0  0  0  0  0  0
    6.7680  -16.1357   19.6625 C   0  0  0  0  0  0  0  0  0  0  0  0
    6.5775  -15.8624   21.1413 C   0  0  0  0  0  0  0  0  0  0  0  0
    7.3580  -14.5934   21.3621 C   0  0  1  0  0  0  0  0  0  0  0  0
    7.8619  -14.4615   22.7440 C   0  0  0  0  0  0  0  0  0  0  0  0
    9.0753  -14.7569   22.9348 O   0  0  0  0  0  0  0  0  0  0  0  0
    6.5223  -11.7168   25.5232 C   0  0  0  0  0  0  0  0  0  0  0  0
    6.8312  -13.0664   26.0769 C   0  0  2  0  0  0  0  0  0  0  0  0
    7.5140  -12.9290   27.4082 C   0  0  0  0  0  0  0  0  0  0  0  0
    7.6248  -13.9436   25.1394 C   0  0  2  0  0  0  0  0  0  0  0  0
    7.0592  -14.0288   23.8321 N   0  0  0  0  0  0  0  0  0  0  0  0
    7.8457  -15.3030   25.7436 C   0  0  0  0  0  0  0  0  0  0  0  0
    6.8517  -16.0451   25.9507 O   0  0  0  0  0  0  0  0  0  0  0  0
    9.6407  -18.1576   24.3930 C   0  0  0  0  0  0  0  0  0  0  0  0
   10.2572  -17.9281   25.7424 C   0  0  1  0  0  0  0  0  0  0  0  0
   11.5146  -17.3437   25.6823 O   0  0  0  0  0  0  0  0  0  0  0  0
    9.3541  -17.1044   26.6382 C   0  0  2  0  0  0  0  0  0  0  0  0
    9.1242  -15.7863   26.0907 N   0  0  0  0  0  0  0  0  0  0  0  0
    9.9215  -17.0416   28.0087 C   0  0  0  0  0  0  0  0  0  0  0  0
   10.2339  -15.9160   28.4708 O   0  0  0  0  0  0  0  0  0  0  0  0
   10.1298  -18.1497   28.8155 O   0  0  0  0  0  0  0  0  0  0  0  0
  1  5  1  0
  2  1  1  0
  3  4  1  0
  3  2  1  0
  4  5  1  0
  6  7  2  0
  5  6  1  1
  9  8  1  6
  9 11  1  0
 10  9  1  0
 11 12  1  6
 11 13  1  0
 12  6  1  0
 13 19  1  0
 14 13  2  0
 16 17  1  0
 16 15  1  6
 18 16  1  0
 18 19  1  6
 20 18  1  0
 20 22  1  0
 21 20  2  0
M  END
$$$$
