PVT.pdb
     RDKit          3D

 22 22  0  0  1  0  0  0  0  0999 V2000
    6.9348  -14.9102   21.1459 N   0  0  0  0  0  0  0  0  0  0  0  0
    6.8342  -14.7006   19.7129 C   0  0  0  0  0  0  0  0  0  0  0  0
    7.2995  -13.2497   19.5979 C   0  0  0  0  0  0  0  0  0  0  0  0
    8.2733  -13.0823   20.7475 C   0  0  0  0  0  0  0  0  0  0  0  0
    8.2533  -14.4311   21.4173 C   0  0  1  0  0  0  0  0  0  0  0  0
    8.5804  -14.3634   22.8559 C   0  0  0  0  0  0  0  0  0  0  0  0
    9.8069  -14.3337   23.1568 O   0  0  0  0  0  0  0  0  0  0  0  0
    6.5654  -11.9956   25.2995 C   0  0  0  0  0  0  0  0  0  0  0  0
    6.9773  -13.2496   25.9932 C   0  0  2  0  0  0  0  0  0  0  0  0
    7.4644  -12.9315   27.3784 C   0  0  0  0  0  0  0  0  0  0  0  0
    7.9900  -14.0661   25.2277 C   0  0  2  0  0  0  0  0  0  0  0  0
    7.5990  -14.3316   23.8813 N   0  0  0  0  0  0  0  0  0  0  0  0
    8.3262  -15.3287   25.9724 C   0  0  0  0  0  0  0  0  0  0  0  0
    7.4088  -16.1534   26.2164 O   0  0  0  0  0  0  0  0  0  0  0  0
   10.4104  -18.1677   25.0585 C   0  0  0  0  0  0  0  0  0  0  0  0
   10.9735  -17.6782   26.3611 C   0  0  1  0  0  0  0  0  0  0  0  0
   12.1584  -16.9698   26.2185 O   0  0  0  0  0  0  0  0  0  0  0  0
    9.9682  -16.8423   27.1273 C   0  0  2  0  0  0  0  0  0  0  0  0
    9.6313  -15.6318   26.4123 N   0  0  0  0  0  0  0  0  0  0  0  0
   10.4834  -16.5536   28.4895 C   0  0  0  0  0  0  0  0  0  0  0  0
   10.6993  -15.3559   28.8009 O   0  0  0  0  0  0  0  0  0  0  0  0
   10.7428  -17.5246   29.4445 O   0  0  0  0  0  0  0  0  0  0  0  0
  1  5  1  0
  2  1  1  0
  3  4  1  0
  3  2  1  0
  4  5  1  0
  6  7  2  0
  5  6  1  1
  9  8  1  6
  9 11  1  0
 10  9  1  0
 11 12  1  6
 11 13  1  0
 12  6  1  0
 13 19  1  0
 14 13  2  0
 16 17  1  0
 16 15  1  6
 18 16  1  0
 18 19  1  6
 20 18  1  0
 20 22  1  0
 21 20  2  0
M  END
$$$$
