PVT.pdb
     RDKit          3D

 22 22  0  0  1  0  0  0  0  0999 V2000
    8.2960  -14.7020   20.3117 N   0  0  0  0  0  0  0  0  0  0  0  0
    7.5448  -15.1255   19.1439 C   0  0  0  0  0  0  0  0  0  0  0  0
    6.8737  -16.3920   19.6734 C   0  0  0  0  0  0  0  0  0  0  0  0
    6.6962  -16.1238   21.1548 C   0  0  0  0  0  0  0  0  0  0  0  0
    7.2984  -14.7549   21.3333 C   0  0  1  0  0  0  0  0  0  0  0  0
    7.8246  -14.5315   22.6949 C   0  0  0  0  0  0  0  0  0  0  0  0
    9.0562  -14.7520   22.8692 O   0  0  0  0  0  0  0  0  0  0  0  0
    6.4942  -11.7741   25.4587 C   0  0  0  0  0  0  0  0  0  0  0  0
    6.8022  -13.1197   26.0228 C   0  0  2  0  0  0  0  0  0  0  0  0
    7.4919  -12.9725   27.3494 C   0  0  0  0  0  0  0  0  0  0  0  0
    7.5887  -14.0074   25.0891 C   0  0  2  0  0  0  0  0  0  0  0  0
    7.0236  -14.0920   23.7815 N   0  0  0  0  0  0  0  0  0  0  0  0
    7.7966  -15.3666   25.6983 C   0  0  0  0  0  0  0  0  0  0  0  0
    6.7997  -16.1124   25.8756 O   0  0  0  0  0  0  0  0  0  0  0  0
    9.4373  -18.3913   24.5295 C   0  0  0  0  0  0  0  0  0  0  0  0
   10.1369  -18.0299   25.8075 C   0  0  1  0  0  0  0  0  0  0  0  0
   11.3743  -17.4334   25.6095 O   0  0  0  0  0  0  0  0  0  0  0  0
    9.2774  -17.1425   26.6852 C   0  0  2  0  0  0  0  0  0  0  0  0
    9.0661  -15.8458   26.0820 N   0  0  0  0  0  0  0  0  0  0  0  0
    9.8807  -17.0309   28.0371 C   0  0  0  0  0  0  0  0  0  0  0  0
   10.3233  -15.9122   28.3990 O   0  0  0  0  0  0  0  0  0  0  0  0
    9.9878  -18.0858   28.9303 O   0  0  0  0  0  0  0  0  0  0  0  0
  1  5  1  0
  2  1  1  0
  3  4  1  0
  3  2  1  0
  4  5  1  0
  6  7  2  0
  5  6  1  1
  9  8  1  6
  9 11  1  0
 10  9  1  0
 11 12  1  6
 11 13  1  0
 12  6  1  0
 13 19  1  0
 14 13  2  0
 16 17  1  0
 16 15  1  6
 18 16  1  0
 18 19  1  6
 20 18  1  0
 20 22  1  0
 21 20  2  0
M  END
$$$$
