PVT.pdb
     RDKit          3D

 22 22  0  0  1  0  0  0  0  0999 V2000
    8.5778  -14.9938   20.5887 N   0  0  0  0  0  0  0  0  0  0  0  0
    7.8817  -15.4915   19.4160 C   0  0  0  0  0  0  0  0  0  0  0  0
    7.2546  -16.7697   19.9709 C   0  0  0  0  0  0  0  0  0  0  0  0
    7.0213  -16.4602   21.4364 C   0  0  0  0  0  0  0  0  0  0  0  0
    7.5540  -15.0592   21.5833 C   0  0  1  0  0  0  0  0  0  0  0  0
    8.0291  -14.7652   22.9503 C   0  0  0  0  0  0  0  0  0  0  0  0
    9.2531  -14.9751   23.1818 O   0  0  0  0  0  0  0  0  0  0  0  0
    6.4642  -11.8640   25.4114 C   0  0  0  0  0  0  0  0  0  0  0  0
    6.8787  -13.1088   26.1200 C   0  0  2  0  0  0  0  0  0  0  0  0
    7.5619  -12.7588   27.4116 C   0  0  0  0  0  0  0  0  0  0  0  0
    7.7267  -14.0345   25.2822 C   0  0  2  0  0  0  0  0  0  0  0  0
    7.1882  -14.2709   23.9820 N   0  0  0  0  0  0  0  0  0  0  0  0
    7.9976  -15.3179   26.0178 C   0  0  0  0  0  0  0  0  0  0  0  0
    7.0327  -16.0754   26.2948 O   0  0  0  0  0  0  0  0  0  0  0  0
    9.8850  -18.2077   24.8711 C   0  0  0  0  0  0  0  0  0  0  0  0
   10.5192  -17.8177   26.1747 C   0  0  1  0  0  0  0  0  0  0  0  0
   11.7258  -17.1490   26.0230 O   0  0  0  0  0  0  0  0  0  0  0  0
    9.5805  -16.9893   27.0286 C   0  0  2  0  0  0  0  0  0  0  0  0
    9.2921  -15.7130   26.4138 N   0  0  0  0  0  0  0  0  0  0  0  0
   10.1449  -16.8300   28.3926 C   0  0  0  0  0  0  0  0  0  0  0  0
   10.4609  -15.6751   28.7730 O   0  0  0  0  0  0  0  0  0  0  0  0
   10.3466  -17.8777   29.2778 O   0  0  0  0  0  0  0  0  0  0  0  0
  1  5  1  0
  2  1  1  0
  3  4  1  0
  3  2  1  0
  4  5  1  0
  6  7  2  0
  5  6  1  1
  9  8  1  6
  9 11  1  0
 10  9  1  0
 11 12  1  6
 11 13  1  0
 12  6  1  0
 13 19  1  0
 14 13  2  0
 16 17  1  0
 16 15  1  6
 18 16  1  0
 18 19  1  6
 20 18  1  0
 20 22  1  0
 21 20  2  0
M  END
$$$$
