NDM.pdb
     RDKit          3D

 25 24  0  0  1  0  0  0  0  0999 V2000
   17.6609  -14.7442  -16.5965 N   0  0  0  0  0  0  0  0  0  0  0  0
   17.8078  -14.0962  -17.8505 C   0  0  0  0  0  0  0  0  0  0  0  0
   18.1073  -14.7712  -18.8596 O   0  0  0  0  0  0  0  0  0  0  0  0
   17.6107  -12.6551  -17.9595 C   0  0  0  0  0  0  0  0  0  0  0  0
   17.2643  -12.0857  -16.5832 C   0  0  2  0  0  0  0  0  0  0  0  0
   15.8208  -12.1313  -16.4865 N   0  0  0  0  0  0  0  0  0  0  0  0
   17.7172  -10.6908  -16.5929 C   0  0  0  0  0  0  0  0  0  0  0  0
   18.9228  -10.4311  -16.8353 O   0  0  0  0  0  0  0  0  0  0  0  0
   16.8462   -9.5837  -16.3364 N   0  0  0  0  0  0  0  0  0  0  0  0
   17.3553   -8.2421  -16.4167 C   0  0  1  0  0  0  0  0  0  0  0  0
   16.2229   -7.2177  -16.2539 C   0  0  0  0  0  0  0  0  0  0  0  0
   16.7366   -5.8424  -16.4235 C   0  0  0  0  0  0  0  0  0  0  0  0
   16.8366   -5.0225  -15.4853 O   0  0  0  0  0  0  0  0  0  0  0  0
   18.4092   -7.9897  -15.3770 C   0  0  0  0  0  0  0  0  0  0  0  0
   18.4134   -8.6902  -14.3335 O   0  0  0  0  0  0  0  0  0  0  0  0
   17.1281   -5.4397  -17.6890 O   0  0  0  0  0  0  0  0  0  0  0  0
   22.3879  -11.4629  -14.0072 C   0  0  0  0  0  0  0  0  0  0  0  0
   23.4513  -10.0890  -14.4708 S   0  0  0  0  0  0  0  0  0  0  0  0
   22.6937   -8.4995  -14.3549 C   0  0  0  0  0  0  0  0  0  0  0  0
   21.3601   -8.2888  -14.9248 C   0  0  0  0  0  0  0  0  0  0  0  0
   20.6630   -6.9976  -14.7537 C   0  0  2  0  0  0  0  0  0  0  0  0
   19.3940   -6.9980  -15.5252 N   0  0  0  0  0  0  0  0  0  0  0  0
   21.3802   -5.7743  -15.1205 C   0  0  0  0  0  0  0  0  0  0  0  0
   21.1948   -5.3012  -16.2991 O   0  0  0  0  0  0  0  0  0  0  0  0
   22.2439   -5.0522  -14.3398 O   0  0  0  0  0  0  0  0  0  0  0  0
  2  1  1  0
  2  3  2  0
  4  2  1  0
  5  4  1  0
  5  6  1  6
  7  5  1  0
  7  8  2  0
  9  7  1  0
 10  9  1  0
 10 11  1  1
 12 13  2  0
 12 11  1  0
 14 10  1  0
 14 22  1  0
 15 14  2  0
 16 12  1  0
 18 17  1  0
 19 18  1  0
 20 19  1  0
 21 20  1  6
 21 22  1  0
 21 23  1  0
 23 24  2  0
 23 25  1  0
M  END
$$$$
