NDM.pdb
     RDKit          3D

 25 24  0  0  1  0  0  0  0  0999 V2000
   19.6899  -17.1627  -16.1272 N   0  0  0  0  0  0  0  0  0  0  0  0
   19.1180  -16.0411  -16.7822 C   0  0  0  0  0  0  0  0  0  0  0  0
   17.9203  -16.0829  -17.1392 O   0  0  0  0  0  0  0  0  0  0  0  0
   19.9218  -14.8507  -17.0359 C   0  0  0  0  0  0  0  0  0  0  0  0
   19.6780  -14.3703  -18.4670 C   0  0  2  0  0  0  0  0  0  0  0  0
   20.4838  -15.2232  -19.3148 N   0  0  0  0  0  0  0  0  0  0  0  0
   20.1807  -12.9939  -18.5267 C   0  0  0  0  0  0  0  0  0  0  0  0
   21.4026  -12.7877  -18.7367 O   0  0  0  0  0  0  0  0  0  0  0  0
   19.3416  -11.8464  -18.3556 N   0  0  0  0  0  0  0  0  0  0  0  0
   19.9224  -10.5318  -18.3539 C   0  0  1  0  0  0  0  0  0  0  0  0
   18.8440   -9.4581  -18.5597 C   0  0  0  0  0  0  0  0  0  0  0  0
   19.4458   -8.1083  -18.5554 C   0  0  0  0  0  0  0  0  0  0  0  0
   19.2004   -7.2460  -17.6843 O   0  0  0  0  0  0  0  0  0  0  0  0
   20.6614  -10.2577  -17.0755 C   0  0  0  0  0  0  0  0  0  0  0  0
   20.1017  -10.5221  -15.9816 O   0  0  0  0  0  0  0  0  0  0  0  0
   20.3285   -7.7803  -19.5704 O   0  0  0  0  0  0  0  0  0  0  0  0
   26.9499  -11.4602  -16.5226 C   0  0  0  0  0  0  0  0  0  0  0  0
   26.6091  -10.7005  -14.9288 S   0  0  0  0  0  0  0  0  0  0  0  0
   25.0240   -9.9358  -14.8012 C   0  0  0  0  0  0  0  0  0  0  0  0
   24.0643  -10.0689  -15.9008 C   0  0  0  0  0  0  0  0  0  0  0  0
   22.7139   -9.4788  -15.7979 C   0  0  2  0  0  0  0  0  0  0  0  0
   21.9578   -9.7155  -17.0540 N   0  0  0  0  0  0  0  0  0  0  0  0
   22.6089   -8.0475  -15.5047 C   0  0  0  0  0  0  0  0  0  0  0  0
   22.6493   -7.2287  -16.4922 O   0  0  0  0  0  0  0  0  0  0  0  0
   22.4654   -7.4599  -14.2755 O   0  0  0  0  0  0  0  0  0  0  0  0
  2  1  1  0
  2  3  2  0
  4  2  1  0
  5  4  1  0
  5  6  1  6
  7  5  1  0
  7  8  2  0
  9  7  1  0
 10  9  1  0
 10 11  1  1
 12 13  2  0
 12 11  1  0
 14 10  1  0
 14 22  1  0
 15 14  2  0
 16 12  1  0
 18 17  1  0
 19 18  1  0
 20 19  1  0
 21 20  1  6
 21 22  1  0
 21 23  1  0
 23 24  2  0
 23 25  1  0
M  END
$$$$
