NDM.pdb
     RDKit          3D

 25 24  0  0  1  0  0  0  0  0999 V2000
   25.1144  -16.8785  -18.3850 N   0  0  0  0  0  0  0  0  0  0  0  0
   25.3865  -16.1325  -17.2087 C   0  0  0  0  0  0  0  0  0  0  0  0
   26.3350  -15.3177  -17.2035 O   0  0  0  0  0  0  0  0  0  0  0  0
   24.5657  -16.3161  -16.0171 C   0  0  0  0  0  0  0  0  0  0  0  0
   25.4674  -16.6442  -14.8264 C   0  0  2  0  0  0  0  0  0  0  0  0
   26.7800  -16.1408  -15.1718 N   0  0  0  0  0  0  0  0  0  0  0  0
   25.5055  -18.1073  -14.7343 C   0  0  0  0  0  0  0  0  0  0  0  0
   24.4515  -18.7408  -14.4742 O   0  0  0  0  0  0  0  0  0  0  0  0
   26.7001  -18.8727  -14.9277 N   0  0  0  0  0  0  0  0  0  0  0  0
   26.6917  -20.2860  -14.6674 C   0  0  1  0  0  0  0  0  0  0  0  0
   27.8094  -20.9917  -15.4491 C   0  0  0  0  0  0  0  0  0  0  0  0
   27.7176  -22.4571  -15.2801 C   0  0  0  0  0  0  0  0  0  0  0  0
   26.8115  -23.0214  -14.6296 O   0  0  0  0  0  0  0  0  0  0  0  0
   26.8475  -20.5773  -13.2023 C   0  0  0  0  0  0  0  0  0  0  0  0
   27.9982  -20.5553  -12.6974 O   0  0  0  0  0  0  0  0  0  0  0  0
   28.6868  -23.2480  -15.8734 O   0  0  0  0  0  0  0  0  0  0  0  0
   26.8660  -18.6208   -6.6647 C   0  0  0  0  0  0  0  0  0  0  0  0
   27.8739  -19.3842   -7.9433 S   0  0  0  0  0  0  0  0  0  0  0  0
   27.0827  -20.6953   -8.8200 C   0  0  0  0  0  0  0  0  0  0  0  0
   26.9569  -20.6199  -10.2781 C   0  0  0  0  0  0  0  0  0  0  0  0
   25.9077  -21.3834  -10.9843 C   0  0  2  0  0  0  0  0  0  0  0  0
   25.7539  -20.8745  -12.3711 N   0  0  0  0  0  0  0  0  0  0  0  0
   24.5670  -21.4173  -10.3955 C   0  0  0  0  0  0  0  0  0  0  0  0
   23.6432  -20.7347  -10.9681 O   0  0  0  0  0  0  0  0  0  0  0  0
   24.1660  -22.1083   -9.2825 O   0  0  0  0  0  0  0  0  0  0  0  0
  2  1  1  0
  2  3  2  0
  4  2  1  0
  5  4  1  0
  5  6  1  6
  7  5  1  0
  7  8  2  0
  9  7  1  0
 10  9  1  0
 10 11  1  6
 12 13  2  0
 12 11  1  0
 14 10  1  0
 14 22  1  0
 15 14  2  0
 16 12  1  0
 18 17  1  0
 19 18  1  0
 20 19  1  0
 21 20  1  1
 21 22  1  0
 21 23  1  0
 23 24  2  0
 23 25  1  0
M  END
$$$$
