NDM.pdb
     RDKit          3D

 25 24  0  0  1  0  0  0  0  0999 V2000
   21.6506  -10.1092  -20.7157 N   0  0  0  0  0  0  0  0  0  0  0  0
   22.2712  -10.8335  -19.6648 C   0  0  0  0  0  0  0  0  0  0  0  0
   22.7920  -11.9440  -19.9079 O   0  0  0  0  0  0  0  0  0  0  0  0
   22.3005  -10.2855  -18.3134 C   0  0  0  0  0  0  0  0  0  0  0  0
   23.0604   -8.9585  -18.3212 C   0  0  2  0  0  0  0  0  0  0  0  0
   24.4637   -9.3050  -18.3999 N   0  0  0  0  0  0  0  0  0  0  0  0
   22.7788   -8.3193  -17.0316 C   0  0  0  0  0  0  0  0  0  0  0  0
   22.9667   -8.9602  -15.9668 O   0  0  0  0  0  0  0  0  0  0  0  0
   22.2914   -6.9782  -16.9129 N   0  0  0  0  0  0  0  0  0  0  0  0
   22.0218   -6.4297  -15.6122 C   0  0  1  0  0  0  0  0  0  0  0  0
   22.1283   -4.8979  -15.6329 C   0  0  0  0  0  0  0  0  0  0  0  0
   21.7909   -4.3347  -14.3088 C   0  0  0  0  0  0  0  0  0  0  0  0
   22.1570   -4.8452  -13.2281 O   0  0  0  0  0  0  0  0  0  0  0  0
   20.6609   -6.8283  -15.1175 C   0  0  0  0  0  0  0  0  0  0  0  0
   19.7005   -6.8447  -15.9281 O   0  0  0  0  0  0  0  0  0  0  0  0
   21.0283   -3.1801  -14.2619 O   0  0  0  0  0  0  0  0  0  0  0  0
   15.9750  -10.8741  -10.6354 C   0  0  0  0  0  0  0  0  0  0  0  0
   17.3674  -10.3711  -11.6560 S   0  0  0  0  0  0  0  0  0  0  0  0
   18.0116   -8.7705  -11.2859 C   0  0  0  0  0  0  0  0  0  0  0  0
   19.2011   -8.2868  -11.9921 C   0  0  0  0  0  0  0  0  0  0  0  0
   19.0746   -7.5692  -13.2771 C   0  0  2  0  0  0  0  0  0  0  0  0
   20.4181   -7.1846  -13.7799 N   0  0  0  0  0  0  0  0  0  0  0  0
   18.2484   -6.3602  -13.3118 C   0  0  0  0  0  0  0  0  0  0  0  0
   18.8128   -5.2403  -13.0384 O   0  0  0  0  0  0  0  0  0  0  0  0
   16.9143   -6.2743  -13.6111 O   0  0  0  0  0  0  0  0  0  0  0  0
  2  1  1  0
  2  3  2  0
  4  2  1  0
  5  4  1  0
  5  6  1  1
  7  5  1  0
  7  8  2  0
  9  7  1  0
 10  9  1  0
 10 11  1  6
 12 13  2  0
 12 11  1  0
 14 10  1  0
 14 22  1  0
 15 14  2  0
 16 12  1  0
 18 17  1  0
 19 18  1  0
 20 19  1  0
 21 20  1  1
 21 22  1  0
 21 23  1  0
 23 24  2  0
 23 25  1  0
M  END
$$$$
