LPG.pdb
     RDKit          3D

 20 20  0  0  1  0  0  0  0  0999 V2000
    7.8310  -12.1797   27.6056 C   0  0  0  0  0  0  0  0  0  0  0  0
    6.8768  -13.1942   26.9675 C   0  0  1  0  0  0  0  0  0  0  0  0
    5.7282  -12.4956   26.2699 C   0  0  0  0  0  0  0  0  0  0  0  0
    7.6503  -14.0293   25.9747 C   0  0  0  0  0  0  0  0  0  0  0  0
    6.7490  -15.1337   25.4249 C   0  0  2  0  0  0  0  0  0  0  0  0
    6.2953  -16.0350   26.4297 N   0  0  0  0  0  0  0  0  0  0  0  0
    7.4748  -15.8263   24.3524 C   0  0  0  0  0  0  0  0  0  0  0  0
    7.8815  -17.0307   24.5330 O   0  0  0  0  0  0  0  0  0  0  0  0
    7.7575  -15.2011   23.0810 N   0  0  0  0  0  0  0  0  0  0  0  0
    7.3709  -13.8878   22.6831 C   0  0  0  0  0  0  0  0  0  0  0  0
    7.7954  -13.7104   21.2549 C   0  0  0  0  0  0  0  0  0  0  0  0
    8.0137  -15.1442   20.7719 C   0  0  0  0  0  0  0  0  0  0  0  0
    8.5032  -15.8387   22.0152 C   0  0  1  0  0  0  0  0  0  0  0  0
    9.9620  -15.6139   22.2315 C   0  0  0  0  0  0  0  0  0  0  0  0
   10.3551  -14.5732   22.8098 O   0  0  0  0  0  0  0  0  0  0  0  0
   10.9428  -16.5363   21.8074 N   0  0  0  0  0  0  0  0  0  0  0  0
   12.3530  -16.2963   21.9927 C   0  0  0  0  0  0  0  0  0  0  0  0
   12.7866  -16.6938   23.3554 C   0  0  0  0  0  0  0  0  0  0  0  0
   13.9443  -16.4658   23.7466 O   0  0  0  0  0  0  0  0  0  0  0  0
   11.8826  -17.3255   24.1928 O   0  0  0  0  0  0  0  0  0  0  0  0
  2  1  1  6
  3  2  1  0
  4  2  1  0
  5  7  1  0
  5  4  1  0
  5  6  1  1
  7  8  2  0
  9 10  1  0
  9  7  1  0
 11 10  1  0
 12 13  1  0
 12 11  1  0
 13  9  1  0
 14 16  1  0
 13 14  1  1
 15 14  2  0
 17 16  1  0
 18 20  1  0
 18 17  1  0
 19 18  2  0
M  END
$$$$
