LPG.pdb
     RDKit          3D

 20 20  0  0  1  0  0  0  0  0999 V2000
    6.0921  -12.5423   26.0348 C   0  0  0  0  0  0  0  0  0  0  0  0
    7.3321  -13.4262   26.2011 C   0  0  1  0  0  0  0  0  0  0  0  0
    8.3554  -12.7632   27.0996 C   0  0  0  0  0  0  0  0  0  0  0  0
    6.9084  -14.7496   26.7931 C   0  0  0  0  0  0  0  0  0  0  0  0
    6.3190  -15.6343   25.6958 C   0  0  2  0  0  0  0  0  0  0  0  0
    5.5834  -16.7413   26.2071 N   0  0  0  0  0  0  0  0  0  0  0  0
    7.4131  -16.0615   24.8142 C   0  0  0  0  0  0  0  0  0  0  0  0
    8.1101  -17.0958   25.1191 O   0  0  0  0  0  0  0  0  0  0  0  0
    7.7465  -15.3564   23.5980 N   0  0  0  0  0  0  0  0  0  0  0  0
    7.2476  -14.0821   23.1989 C   0  0  0  0  0  0  0  0  0  0  0  0
    7.7908  -13.7985   21.8292 C   0  0  0  0  0  0  0  0  0  0  0  0
    8.2276  -15.1763   21.3316 C   0  0  0  0  0  0  0  0  0  0  0  0
    8.6679  -15.8590   22.5995 C   0  0  1  0  0  0  0  0  0  0  0  0
   10.0595  -15.4748   22.9753 C   0  0  0  0  0  0  0  0  0  0  0  0
   10.2884  -14.3344   23.4433 O   0  0  0  0  0  0  0  0  0  0  0  0
   11.1552  -16.3523   22.8263 N   0  0  0  0  0  0  0  0  0  0  0  0
   12.4665  -16.0362   23.3373 C   0  0  0  0  0  0  0  0  0  0  0  0
   13.5280  -16.5642   22.4443 C   0  0  0  0  0  0  0  0  0  0  0  0
   13.5522  -17.7655   22.1258 O   0  0  0  0  0  0  0  0  0  0  0  0
   14.4980  -15.6994   21.9661 O   0  0  0  0  0  0  0  0  0  0  0  0
  2  1  1  1
  3  2  1  0
  4  2  1  0
  5  7  1  0
  5  4  1  0
  5  6  1  1
  7  8  2  0
  9 10  1  0
  9  7  1  0
 11 10  1  0
 12 13  1  0
 12 11  1  0
 13  9  1  0
 14 16  1  0
 13 14  1  1
 15 14  2  0
 17 16  1  0
 18 20  1  0
 18 17  1  0
 19 18  2  0
M  END
$$$$
