LPG.pdb
     RDKit          3D

 20 20  0  0  1  0  0  0  0  0999 V2000
    7.2195  -11.8543   25.8244 C   0  0  0  0  0  0  0  0  0  0  0  0
    7.5424  -13.3271   26.0949 C   0  0  1  0  0  0  0  0  0  0  0  0
    7.7409  -13.5768   27.5755 C   0  0  0  0  0  0  0  0  0  0  0  0
    6.4049  -14.1759   25.5780 C   0  0  0  0  0  0  0  0  0  0  0  0
    6.7410  -15.6535   25.7730 C   0  0  2  0  0  0  0  0  0  0  0  0
    7.4552  -15.9084   26.9784 N   0  0  0  0  0  0  0  0  0  0  0  0
    7.4772  -16.1163   24.5896 C   0  0  0  0  0  0  0  0  0  0  0  0
    7.9835  -17.2960   24.5753 O   0  0  0  0  0  0  0  0  0  0  0  0
    7.6612  -15.2877   23.4204 N   0  0  0  0  0  0  0  0  0  0  0  0
    7.3832  -13.8928   23.3237 C   0  0  0  0  0  0  0  0  0  0  0  0
    7.6332  -13.4848   21.9015 C   0  0  0  0  0  0  0  0  0  0  0  0
    7.6150  -14.8135   21.1458 C   0  0  0  0  0  0  0  0  0  0  0  0
    8.1791  -15.7749   22.1583 C   0  0  1  0  0  0  0  0  0  0  0  0
    9.6700  -15.7300   22.1871 C   0  0  0  0  0  0  0  0  0  0  0  0
   10.3252  -16.0692   21.1734 O   0  0  0  0  0  0  0  0  0  0  0  0
   10.3946  -15.3151   23.3253 N   0  0  0  0  0  0  0  0  0  0  0  0
   11.8286  -15.1608   23.3077 C   0  0  0  0  0  0  0  0  0  0  0  0
   12.5036  -16.3991   23.7702 C   0  0  0  0  0  0  0  0  0  0  0  0
   12.1827  -17.5085   23.3103 O   0  0  0  0  0  0  0  0  0  0  0  0
   13.5014  -16.3061   24.7258 O   0  0  0  0  0  0  0  0  0  0  0  0
  2  1  1  1
  3  2  1  0
  4  2  1  0
  5  7  1  0
  5  4  1  0
  5  6  1  1
  7  8  2  0
  9 10  1  0
  9  7  1  0
 11 10  1  0
 12 13  1  0
 12 11  1  0
 13  9  1  0
 14 16  1  0
 13 14  1  1
 15 14  2  0
 17 16  1  0
 18 20  1  0
 18 17  1  0
 19 18  2  0
M  END
$$$$
