LPG.pdb
     RDKit          3D

 20 20  0  0  1  0  0  0  0  0999 V2000
    7.6643  -12.0841   27.5609 C   0  0  0  0  0  0  0  0  0  0  0  0
    6.7047  -13.0556   26.8664 C   0  0  1  0  0  0  0  0  0  0  0  0
    5.8922  -12.3487   25.8015 C   0  0  0  0  0  0  0  0  0  0  0  0
    7.5106  -14.1707   26.2432 C   0  0  0  0  0  0  0  0  0  0  0  0
    6.5691  -15.1588   25.5565 C   0  0  2  0  0  0  0  0  0  0  0  0
    5.8945  -16.0149   26.4729 N   0  0  0  0  0  0  0  0  0  0  0  0
    7.3435  -15.9163   24.5648 C   0  0  0  0  0  0  0  0  0  0  0  0
    7.6859  -17.1283   24.8144 O   0  0  0  0  0  0  0  0  0  0  0  0
    7.7451  -15.3476   23.2988 N   0  0  0  0  0  0  0  0  0  0  0  0
    7.4298  -14.0410   22.8239 C   0  0  0  0  0  0  0  0  0  0  0  0
    7.9723  -13.9294   21.4293 C   0  0  0  0  0  0  0  0  0  0  0  0
    8.1869  -15.3858   21.0175 C   0  0  0  0  0  0  0  0  0  0  0  0
    8.5550  -16.0446   22.3207 C   0  0  1  0  0  0  0  0  0  0  0  0
    9.9977  -15.8496   22.6464 C   0  0  0  0  0  0  0  0  0  0  0  0
   10.3814  -14.7752   23.1662 O   0  0  0  0  0  0  0  0  0  0  0  0
   10.9731  -16.8379   22.3922 N   0  0  0  0  0  0  0  0  0  0  0  0
   12.2417  -16.8583   23.0783 C   0  0  0  0  0  0  0  0  0  0  0  0
   13.3332  -16.3778   22.1946 C   0  0  0  0  0  0  0  0  0  0  0  0
   14.5043  -16.3151   22.6065 O   0  0  0  0  0  0  0  0  0  0  0  0
   13.0321  -15.9975   20.8976 O   0  0  0  0  0  0  0  0  0  0  0  0
  2  1  1  6
  3  2  1  0
  4  2  1  0
  5  7  1  0
  5  4  1  0
  5  6  1  1
  7  8  2  0
  9 10  1  0
  9  7  1  0
 11 10  1  0
 12 13  1  0
 12 11  1  0
 13  9  1  0
 14 16  1  0
 13 14  1  1
 15 14  2  0
 17 16  1  0
 18 20  1  0
 18 17  1  0
 19 18  2  0
M  END
$$$$
