LPG.pdb
     RDKit          3D

 20 20  0  0  1  0  0  0  0  0999 V2000
    7.6114  -12.0829   27.5445 C   0  0  0  0  0  0  0  0  0  0  0  0
    6.7361  -13.2088   26.9849 C   0  0  1  0  0  0  0  0  0  0  0  0
    5.5486  -12.6494   26.2294 C   0  0  0  0  0  0  0  0  0  0  0  0
    7.5752  -14.0635   26.0647 C   0  0  0  0  0  0  0  0  0  0  0  0
    6.7504  -15.2554   25.5817 C   0  0  2  0  0  0  0  0  0  0  0  0
    6.3613  -16.1285   26.6373 N   0  0  0  0  0  0  0  0  0  0  0  0
    7.5198  -15.9554   24.5450 C   0  0  0  0  0  0  0  0  0  0  0  0
    8.0579  -17.0909   24.8085 O   0  0  0  0  0  0  0  0  0  0  0  0
    7.7021  -15.4127   23.2184 N   0  0  0  0  0  0  0  0  0  0  0  0
    7.1399  -14.2017   22.7187 C   0  0  0  0  0  0  0  0  0  0  0  0
    7.5204  -14.0964   21.2710 C   0  0  0  0  0  0  0  0  0  0  0  0
    7.9214  -15.5261   20.9076 C   0  0  0  0  0  0  0  0  0  0  0  0
    8.5133  -16.0382   22.1942 C   0  0  1  0  0  0  0  0  0  0  0  0
    9.9318  -15.6057   22.3566 C   0  0  0  0  0  0  0  0  0  0  0  0
   10.2227  -14.3870   22.3118 O   0  0  0  0  0  0  0  0  0  0  0  0
   10.9855  -16.5222   22.5627 N   0  0  0  0  0  0  0  0  0  0  0  0
   12.3325  -16.0916   22.8463 C   0  0  0  0  0  0  0  0  0  0  0  0
   13.2505  -17.2524   22.9589 C   0  0  0  0  0  0  0  0  0  0  0  0
   12.8068  -18.3994   23.1397 O   0  0  0  0  0  0  0  0  0  0  0  0
   14.6159  -17.0438   22.8600 O   0  0  0  0  0  0  0  0  0  0  0  0
  2  1  1  6
  3  2  1  0
  4  2  1  0
  5  7  1  0
  5  4  1  0
  5  6  1  1
  7  8  2  0
  9 10  1  0
  9  7  1  0
 11 10  1  0
 12 13  1  0
 12 11  1  0
 13  9  1  0
 14 16  1  0
 13 14  1  1
 15 14  2  0
 17 16  1  0
 18 20  1  0
 18 17  1  0
 19 18  2  0
M  END
$$$$
