LPG.pdb
     RDKit          3D

 20 20  0  0  1  0  0  0  0  0999 V2000
    7.9174  -12.2427   27.5427 C   0  0  0  0  0  0  0  0  0  0  0  0
    6.9034  -13.2026   26.9125 C   0  0  1  0  0  0  0  0  0  0  0  0
    5.7670  -12.4418   26.2614 C   0  0  0  0  0  0  0  0  0  0  0  0
    7.6127  -14.0491   25.8821 C   0  0  0  0  0  0  0  0  0  0  0  0
    6.6613  -15.1267   25.3643 C   0  0  2  0  0  0  0  0  0  0  0  0
    6.2243  -16.0209   26.3828 N   0  0  0  0  0  0  0  0  0  0  0  0
    7.3255  -15.8328   24.2610 C   0  0  0  0  0  0  0  0  0  0  0  0
    7.5947  -17.0830   24.3751 O   0  0  0  0  0  0  0  0  0  0  0  0
    7.6968  -15.1710   23.0316 N   0  0  0  0  0  0  0  0  0  0  0  0
    7.5532  -13.7818   22.7456 C   0  0  0  0  0  0  0  0  0  0  0  0
    7.9782  -13.5723   21.3219 C   0  0  0  0  0  0  0  0  0  0  0  0
    7.9186  -14.9789   20.7262 C   0  0  0  0  0  0  0  0  0  0  0  0
    8.2928  -15.8477   21.8979 C   0  0  1  0  0  0  0  0  0  0  0  0
    9.7715  -15.9120   22.0839 C   0  0  0  0  0  0  0  0  0  0  0  0
   10.3548  -15.0344   22.7631 O   0  0  0  0  0  0  0  0  0  0  0  0
   10.5633  -16.9356   21.5198 N   0  0  0  0  0  0  0  0  0  0  0  0
   11.6387  -17.5631   22.2479 C   0  0  0  0  0  0  0  0  0  0  0  0
   12.9247  -17.4300   21.5189 C   0  0  0  0  0  0  0  0  0  0  0  0
   13.0321  -17.8165   20.3423 O   0  0  0  0  0  0  0  0  0  0  0  0
   14.0114  -16.8672   22.1667 O   0  0  0  0  0  0  0  0  0  0  0  0
  2  1  1  6
  3  2  1  0
  4  2  1  0
  5  7  1  0
  5  4  1  0
  5  6  1  1
  7  8  2  0
  9 10  1  0
  9  7  1  0
 11 10  1  0
 12 13  1  0
 12 11  1  0
 13  9  1  0
 14 16  1  0
 13 14  1  1
 15 14  2  0
 17 16  1  0
 18 20  1  0
 18 17  1  0
 19 18  2  0
M  END
$$$$
