LPG.pdb
     RDKit          3D

 20 20  0  0  1  0  0  0  0  0999 V2000
    7.4556  -11.9959   27.5394 C   0  0  0  0  0  0  0  0  0  0  0  0
    6.6145  -13.1193   26.9251 C   0  0  1  0  0  0  0  0  0  0  0  0
    5.5054  -12.5571   26.0605 C   0  0  0  0  0  0  0  0  0  0  0  0
    7.5165  -14.0020   26.0953 C   0  0  0  0  0  0  0  0  0  0  0  0
    6.7184  -15.1918   25.5645 C   0  0  2  0  0  0  0  0  0  0  0  0
    6.2547  -16.0570   26.5961 N   0  0  0  0  0  0  0  0  0  0  0  0
    7.5509  -15.9017   24.5847 C   0  0  0  0  0  0  0  0  0  0  0  0
    7.9443  -17.0988   24.8312 O   0  0  0  0  0  0  0  0  0  0  0  0
    7.9549  -15.3017   23.3340 N   0  0  0  0  0  0  0  0  0  0  0  0
    7.7010  -13.9609   22.9217 C   0  0  0  0  0  0  0  0  0  0  0  0
    8.2179  -13.8188   21.5202 C   0  0  0  0  0  0  0  0  0  0  0  0
    8.3436  -15.2657   21.0431 C   0  0  0  0  0  0  0  0  0  0  0  0
    8.7038  -15.9985   22.3084 C   0  0  1  0  0  0  0  0  0  0  0  0
   10.1618  -15.8953   22.6067 C   0  0  0  0  0  0  0  0  0  0  0  0
   10.6071  -14.8892   23.2077 O   0  0  0  0  0  0  0  0  0  0  0  0
   11.0846  -16.8976   22.2370 N   0  0  0  0  0  0  0  0  0  0  0  0
   12.3539  -17.0556   22.9037 C   0  0  0  0  0  0  0  0  0  0  0  0
   13.4518  -16.4491   22.1101 C   0  0  0  0  0  0  0  0  0  0  0  0
   13.2720  -16.1155   20.9263 O   0  0  0  0  0  0  0  0  0  0  0  0
   14.6871  -16.2572   22.7056 O   0  0  0  0  0  0  0  0  0  0  0  0
  2  1  1  6
  3  2  1  0
  4  2  1  0
  5  7  1  0
  5  4  1  0
  5  6  1  1
  7  8  2  0
  9 10  1  0
  9  7  1  0
 11 10  1  0
 12 13  1  0
 12 11  1  0
 13  9  1  0
 14 16  1  0
 13 14  1  1
 15 14  2  0
 17 16  1  0
 18 20  1  0
 18 17  1  0
 19 18  2  0
M  END
$$$$
