LPG.pdb
     RDKit          3D

 20 20  0  0  1  0  0  0  0  0999 V2000
    6.5903  -13.0472   26.3390 C   0  0  0  0  0  0  0  0  0  0  0  0
    7.8588  -13.8947   26.4780 C   0  0  1  0  0  0  0  0  0  0  0  0
    8.8564  -13.2317   27.4049 C   0  0  0  0  0  0  0  0  0  0  0  0
    7.4779  -15.2526   27.0185 C   0  0  0  0  0  0  0  0  0  0  0  0
    6.7076  -16.0290   25.9516 C   0  0  2  0  0  0  0  0  0  0  0  0
    6.0723  -17.1969   26.4618 N   0  0  0  0  0  0  0  0  0  0  0  0
    7.6326  -16.3413   24.8545 C   0  0  0  0  0  0  0  0  0  0  0  0
    8.4259  -17.3456   24.9563 O   0  0  0  0  0  0  0  0  0  0  0  0
    7.6912  -15.5537   23.6446 N   0  0  0  0  0  0  0  0  0  0  0  0
    7.0163  -14.3205   23.4082 C   0  0  0  0  0  0  0  0  0  0  0  0
    7.2944  -13.9239   21.9881 C   0  0  0  0  0  0  0  0  0  0  0  0
    7.7682  -15.2273   21.3450 C   0  0  0  0  0  0  0  0  0  0  0  0
    8.4756  -15.9162   22.4819 C   0  0  1  0  0  0  0  0  0  0  0  0
    9.8686  -15.4094   22.6497 C   0  0  0  0  0  0  0  0  0  0  0  0
   10.2172  -14.8868   23.7347 O   0  0  0  0  0  0  0  0  0  0  0  0
   10.8345  -15.4916   21.6235 N   0  0  0  0  0  0  0  0  0  0  0  0
   11.6170  -16.6824   21.3999 C   0  0  0  0  0  0  0  0  0  0  0  0
   12.7127  -16.7948   22.3948 C   0  0  0  0  0  0  0  0  0  0  0  0
   13.8596  -16.3982   22.1258 O   0  0  0  0  0  0  0  0  0  0  0  0
   12.4429  -17.3496   23.6345 O   0  0  0  0  0  0  0  0  0  0  0  0
  2  1  1  1
  3  2  1  0
  4  2  1  0
  5  7  1  0
  5  4  1  0
  5  6  1  1
  7  8  2  0
  9 10  1  0
  9  7  1  0
 11 10  1  0
 12 13  1  0
 12 11  1  0
 13  9  1  0
 14 16  1  0
 13 14  1  1
 15 14  2  0
 17 16  1  0
 18 20  1  0
 18 17  1  0
 19 18  2  0
M  END
$$$$
