LPG.pdb
     RDKit          3D

 20 20  0  0  1  0  0  0  0  0999 V2000
    8.0259  -12.1162   27.4683 C   0  0  0  0  0  0  0  0  0  0  0  0
    7.0665  -13.1771   26.9198 C   0  0  1  0  0  0  0  0  0  0  0  0
    5.9238  -12.5356   26.1604 C   0  0  0  0  0  0  0  0  0  0  0  0
    7.8364  -14.1014   26.0065 C   0  0  0  0  0  0  0  0  0  0  0  0
    6.9302  -15.2465   25.5571 C   0  0  2  0  0  0  0  0  0  0  0  0
    6.5434  -16.1039   26.6263 N   0  0  0  0  0  0  0  0  0  0  0  0
    7.6155  -15.9797   24.4849 C   0  0  0  0  0  0  0  0  0  0  0  0
    8.0861  -17.1519   24.7147 O   0  0  0  0  0  0  0  0  0  0  0  0
    7.7875  -15.4302   23.1598 N   0  0  0  0  0  0  0  0  0  0  0  0
    7.3320  -14.1565   22.7100 C   0  0  0  0  0  0  0  0  0  0  0  0
    7.6487  -14.0600   21.2464 C   0  0  0  0  0  0  0  0  0  0  0  0
    7.8779  -15.5154   20.8392 C   0  0  0  0  0  0  0  0  0  0  0  0
    8.4760  -16.1145   22.0846 C   0  0  1  0  0  0  0  0  0  0  0  0
    9.9385  -15.8364   22.1801 C   0  0  0  0  0  0  0  0  0  0  0  0
   10.3395  -14.6704   22.4069 O   0  0  0  0  0  0  0  0  0  0  0  0
   10.9143  -16.8445   22.0241 N   0  0  0  0  0  0  0  0  0  0  0  0
   12.3141  -16.6027   22.2738 C   0  0  0  0  0  0  0  0  0  0  0  0
   13.0957  -17.8617   22.1898 C   0  0  0  0  0  0  0  0  0  0  0  0
   13.7194  -18.1557   21.1556 O   0  0  0  0  0  0  0  0  0  0  0  0
   13.1234  -18.7118   23.2826 O   0  0  0  0  0  0  0  0  0  0  0  0
  2  1  1  6
  3  2  1  0
  4  2  1  0
  5  7  1  0
  5  4  1  0
  5  6  1  1
  7  8  2  0
  9 10  1  0
  9  7  1  0
 11 10  1  0
 12 13  1  0
 12 11  1  0
 13  9  1  0
 14 16  1  0
 13 14  1  1
 15 14  2  0
 17 16  1  0
 18 20  1  0
 18 17  1  0
 19 18  2  0
M  END
$$$$
