VTK.pdb
     RDKit          3D

 24 23  0  0  1  0  0  0  0  0999 V2000
   17.7002  -12.7662  -20.3779 C   0  0  0  0  0  0  0  0  0  0  0  0
   18.9936  -12.8700  -19.6006 C   0  0  2  0  0  0  0  0  0  0  0  0
   19.8105  -14.0288  -20.1437 C   0  0  0  0  0  0  0  0  0  0  0  0
   18.6417  -13.0682  -18.1425 C   0  0  2  0  0  0  0  0  0  0  0  0
   17.9163  -14.3125  -18.0224 N   0  0  0  0  0  0  0  0  0  0  0  0
   17.8539  -11.9128  -17.6642 C   0  0  0  0  0  0  0  0  0  0  0  0
   16.6328  -11.8827  -17.9980 O   0  0  0  0  0  0  0  0  0  0  0  0
   16.5809  -10.9653  -14.5916 C   0  0  0  0  0  0  0  0  0  0  0  0
   17.4787   -9.8250  -14.9500 C   0  0  1  0  0  0  0  0  0  0  0  0
   18.7245   -9.8731  -14.3634 O   0  0  0  0  0  0  0  0  0  0  0  0
   17.5969   -9.7856  -16.4766 C   0  0  2  0  0  0  0  0  0  0  0  0
   18.4158  -10.8786  -16.8707 N   0  0  0  0  0  0  0  0  0  0  0  0
   18.1506   -8.4643  -16.8674 C   0  0  0  0  0  0  0  0  0  0  0  0
   19.3326   -8.2731  -17.1990 O   0  0  0  0  0  0  0  0  0  0  0  0
   17.2738   -7.3473  -16.8620 N   0  0  0  0  0  0  0  0  0  0  0  0
   17.7478   -5.9944  -17.2775 C   0  0  1  0  0  0  0  0  0  0  0  0
   16.5076   -5.1745  -17.4989 C   0  0  0  0  0  0  0  0  0  0  0  0
   16.8518   -3.7621  -17.8527 C   0  0  0  0  0  0  0  0  0  0  0  0
   15.5864   -2.9819  -18.1071 C   0  0  0  0  0  0  0  0  0  0  0  0
   15.8896   -1.5568  -18.5371 C   0  0  0  0  0  0  0  0  0  0  0  0
   14.7453   -0.8910  -19.0769 N   0  0  0  0  0  0  0  0  0  0  0  0
   18.4895   -5.4484  -16.1234 C   0  0  0  0  0  0  0  0  0  0  0  0
   19.6008   -4.6307  -16.2693 O   0  0  0  0  0  0  0  0  0  0  0  0
   18.1356   -5.7084  -14.9541 O   0  0  0  0  0  0  0  0  0  0  0  0
  2  1  1  6
  2  4  1  0
  3  2  1  0
  4  5  1  6
  6  7  2  0
  6  4  1  0
  9  8  1  6
 10  9  1  0
 11  9  1  0
 11 12  1  1
 12  6  1  0
 13 11  1  0
 14 13  2  0
 15 13  1  0
 16 15  1  0
 16 17  1  1
 17 18  1  0
 19 18  1  0
 20 19  1  0
 21 20  1  0
 22 23  1  0
 22 16  1  0
 24 22  2  0
M  END
$$$$
