VTK.pdb
     RDKit          3D

 24 23  0  0  1  0  0  0  0  0999 V2000
   24.3908  -19.2821  -15.8972 C   0  0  0  0  0  0  0  0  0  0  0  0
   23.3425  -19.4612  -14.8216 C   0  0  2  0  0  0  0  0  0  0  0  0
   23.7816  -20.5647  -13.8757 C   0  0  0  0  0  0  0  0  0  0  0  0
   22.0338  -19.7961  -15.5031 C   0  0  2  0  0  0  0  0  0  0  0  0
   21.6991  -18.7051  -16.3898 N   0  0  0  0  0  0  0  0  0  0  0  0
   20.9912  -20.0270  -14.4814 C   0  0  0  0  0  0  0  0  0  0  0  0
   20.7201  -19.0532  -13.7187 O   0  0  0  0  0  0  0  0  0  0  0  0
   17.6812  -19.9378  -14.2647 C   0  0  0  0  0  0  0  0  0  0  0  0
   17.9704  -21.3663  -13.9327 C   0  0  1  0  0  0  0  0  0  0  0  0
   17.8811  -22.2304  -15.0023 O   0  0  0  0  0  0  0  0  0  0  0  0
   19.3638  -21.4257  -13.2996 C   0  0  2  0  0  0  0  0  0  0  0  0
   20.3153  -21.2677  -14.3437 N   0  0  0  0  0  0  0  0  0  0  0  0
   19.4926  -22.7162  -12.5763 C   0  0  0  0  0  0  0  0  0  0  0  0
   20.1463  -23.6875  -12.9921 O   0  0  0  0  0  0  0  0  0  0  0  0
   18.8263  -22.8496  -11.3293 N   0  0  0  0  0  0  0  0  0  0  0  0
   19.0157  -24.0630  -10.4811 C   0  0  1  0  0  0  0  0  0  0  0  0
   18.4894  -23.6998   -9.1208 C   0  0  0  0  0  0  0  0  0  0  0  0
   18.5745  -24.8621   -8.1824 C   0  0  0  0  0  0  0  0  0  0  0  0
   18.1176  -24.4377   -6.8092 C   0  0  0  0  0  0  0  0  0  0  0  0
   18.2680  -25.5641   -5.8011 C   0  0  0  0  0  0  0  0  0  0  0  0
   17.8414  -25.1875   -4.4895 N   0  0  0  0  0  0  0  0  0  0  0  0
   18.1571  -25.1109  -11.0685 C   0  0  0  0  0  0  0  0  0  0  0  0
   18.5249  -26.4484  -11.0967 O   0  0  0  0  0  0  0  0  0  0  0  0
   17.0495  -24.8243  -11.5696 O   0  0  0  0  0  0  0  0  0  0  0  0
  2  1  1  6
  2  4  1  0
  3  2  1  0
  4  5  1  6
  6  7  2  0
  6  4  1  0
  9  8  1  6
 10  9  1  0
 11  9  1  0
 11 12  1  6
 12  6  1  0
 13 11  1  0
 14 13  2  0
 15 13  1  0
 16 15  1  0
 16 17  1  1
 17 18  1  0
 19 18  1  0
 20 19  1  0
 21 20  1  0
 22 23  1  0
 22 16  1  0
 24 22  2  0
M  END
$$$$
