VTK.pdb
     RDKit          3D

 24 23  0  0  1  0  0  0  0  0999 V2000
   19.7043  -16.1130  -17.5978 C   0  0  0  0  0  0  0  0  0  0  0  0
   19.2224  -14.7040  -17.8630 C   0  0  2  0  0  0  0  0  0  0  0  0
   20.3519  -13.8980  -18.4792 C   0  0  0  0  0  0  0  0  0  0  0  0
   18.7689  -14.1151  -16.5451 C   0  0  2  0  0  0  0  0  0  0  0  0
   17.8220  -15.0295  -15.9486 N   0  0  0  0  0  0  0  0  0  0  0  0
   18.1848  -12.7776  -16.7780 C   0  0  0  0  0  0  0  0  0  0  0  0
   17.2371  -12.7115  -17.6153 O   0  0  0  0  0  0  0  0  0  0  0  0
   16.2572  -10.9039  -14.6071 C   0  0  0  0  0  0  0  0  0  0  0  0
   17.3798   -9.9724  -14.9342 C   0  0  1  0  0  0  0  0  0  0  0  0
   18.3737   -9.9195  -13.9814 O   0  0  0  0  0  0  0  0  0  0  0  0
   17.9501  -10.3877  -16.2936 C   0  0  2  0  0  0  0  0  0  0  0  0
   18.6459  -11.6135  -16.1094 N   0  0  0  0  0  0  0  0  0  0  0  0
   18.8159   -9.2886  -16.7914 C   0  0  0  0  0  0  0  0  0  0  0  0
   20.0576   -9.3056  -16.7522 O   0  0  0  0  0  0  0  0  0  0  0  0
   18.1850   -8.1446  -17.3479 N   0  0  0  0  0  0  0  0  0  0  0  0
   18.9861   -6.9780  -17.8223 C   0  0  1  0  0  0  0  0  0  0  0  0
   18.1547   -6.3128  -18.8834 C   0  0  0  0  0  0  0  0  0  0  0  0
   18.8785   -5.1490  -19.4838 C   0  0  0  0  0  0  0  0  0  0  0  0
   18.0209   -4.5163  -20.5509 C   0  0  0  0  0  0  0  0  0  0  0  0
   18.7099   -3.3165  -21.1782 C   0  0  0  0  0  0  0  0  0  0  0  0
   18.0590   -2.8710  -22.3706 N   0  0  0  0  0  0  0  0  0  0  0  0
   19.1110   -6.0696  -16.6649 C   0  0  0  0  0  0  0  0  0  0  0  0
   20.2455   -5.3046  -16.4354 O   0  0  0  0  0  0  0  0  0  0  0  0
   18.1826   -5.9562  -15.8371 O   0  0  0  0  0  0  0  0  0  0  0  0
  2  1  1  1
  2  4  1  0
  3  2  1  0
  4  5  1  6
  6  7  2  0
  6  4  1  0
  9  8  1  1
 10  9  1  0
 11  9  1  0
 11 12  1  1
 12  6  1  0
 13 11  1  0
 14 13  2  0
 15 13  1  0
 16 15  1  0
 16 17  1  6
 17 18  1  0
 19 18  1  0
 20 19  1  0
 21 20  1  0
 22 23  1  0
 22 16  1  0
 24 22  2  0
M  END
$$$$
