VTK.pdb
     RDKit          3D

 24 23  0  0  1  0  0  0  0  0999 V2000
   13.5887  -10.9089  -15.9628 C   0  0  0  0  0  0  0  0  0  0  0  0
   14.0849  -10.1561  -14.7483 C   0  0  2  0  0  0  0  0  0  0  0  0
   14.3622   -8.7141  -15.1339 C   0  0  0  0  0  0  0  0  0  0  0  0
   15.3329  -10.8524  -14.2512 C   0  0  2  0  0  0  0  0  0  0  0  0
   14.9772  -12.2066  -13.8929 N   0  0  0  0  0  0  0  0  0  0  0  0
   15.8950  -10.1007  -13.1096 C   0  0  0  0  0  0  0  0  0  0  0  0
   15.3277  -10.2642  -11.9894 O   0  0  0  0  0  0  0  0  0  0  0  0
   19.4779   -7.3884  -11.2218 C   0  0  0  0  0  0  0  0  0  0  0  0
   18.9408   -8.0974  -12.4232 C   0  0  1  0  0  0  0  0  0  0  0  0
   19.7345   -9.1265  -12.8810 O   0  0  0  0  0  0  0  0  0  0  0  0
   17.5375   -8.6044  -12.0776 C   0  0  2  0  0  0  0  0  0  0  0  0
   17.0123   -9.2347  -13.2385 N   0  0  0  0  0  0  0  0  0  0  0  0
   16.7252   -7.4501  -11.6161 C   0  0  0  0  0  0  0  0  0  0  0  0
   16.1665   -6.6413  -12.3759 O   0  0  0  0  0  0  0  0  0  0  0  0
   16.5771   -7.2576  -10.2170 N   0  0  0  0  0  0  0  0  0  0  0  0
   15.7975   -6.1053   -9.6767 C   0  0  1  0  0  0  0  0  0  0  0  0
   14.6590   -6.7068   -8.9012 C   0  0  0  0  0  0  0  0  0  0  0  0
   13.8337   -5.6451   -8.2452 C   0  0  0  0  0  0  0  0  0  0  0  0
   12.6884   -6.2834   -7.4999 C   0  0  0  0  0  0  0  0  0  0  0  0
   11.8429   -5.2435   -6.7847 C   0  0  0  0  0  0  0  0  0  0  0  0
   10.8347   -5.8299   -5.9578 N   0  0  0  0  0  0  0  0  0  0  0  0
   16.7003   -5.4017   -8.7438 C   0  0  0  0  0  0  0  0  0  0  0  0
   16.5968   -4.0421   -8.4873 O   0  0  0  0  0  0  0  0  0  0  0  0
   17.6053   -6.0175   -8.1422 O   0  0  0  0  0  0  0  0  0  0  0  0
  2  1  1  6
  2  4  1  0
  3  2  1  0
  4  5  1  1
  6  7  2  0
  6  4  1  0
  9  8  1  1
 10  9  1  0
 11  9  1  0
 11 12  1  6
 12  6  1  0
 13 11  1  0
 14 13  2  0
 15 13  1  0
 16 15  1  0
 16 17  1  1
 17 18  1  0
 19 18  1  0
 20 19  1  0
 21 20  1  0
 22 23  1  0
 22 16  1  0
 24 22  2  0
M  END
$$$$
