VTK.pdb
     RDKit          3D

 24 23  0  0  1  0  0  0  0  0999 V2000
   21.5240  -17.9147  -17.0535 C   0  0  0  0  0  0  0  0  0  0  0  0
   21.3942  -16.7504  -16.0967 C   0  0  2  0  0  0  0  0  0  0  0  0
   20.2390  -17.0117  -15.1467 C   0  0  0  0  0  0  0  0  0  0  0  0
   21.1710  -15.4998  -16.9185 C   0  0  2  0  0  0  0  0  0  0  0  0
   22.0338  -15.5651  -18.0761 N   0  0  0  0  0  0  0  0  0  0  0  0
   21.4405  -14.3086  -16.0861 C   0  0  0  0  0  0  0  0  0  0  0  0
   20.7217  -14.1649  -15.0536 O   0  0  0  0  0  0  0  0  0  0  0  0
   24.6790  -12.8901  -14.6467 C   0  0  0  0  0  0  0  0  0  0  0  0
   24.0473  -11.8431  -15.5066 C   0  0  1  0  0  0  0  0  0  0  0  0
   24.6228  -11.7025  -16.7506 O   0  0  0  0  0  0  0  0  0  0  0  0
   22.5576  -12.1766  -15.6303 C   0  0  2  0  0  0  0  0  0  0  0  0
   22.4475  -13.3614  -16.4079 N   0  0  0  0  0  0  0  0  0  0  0  0
   21.8672  -11.0093  -16.2352 C   0  0  0  0  0  0  0  0  0  0  0  0
   21.6759  -10.8660  -17.4544 O   0  0  0  0  0  0  0  0  0  0  0  0
   21.3950   -9.9911  -15.3652 N   0  0  0  0  0  0  0  0  0  0  0  0
   20.7120   -8.7767  -15.9004 C   0  0  1  0  0  0  0  0  0  0  0  0
   19.2561   -8.9427  -15.5651 C   0  0  0  0  0  0  0  0  0  0  0  0
   18.4587   -7.7653  -16.0305 C   0  0  0  0  0  0  0  0  0  0  0  0
   17.0175   -7.9371  -15.6208 C   0  0  0  0  0  0  0  0  0  0  0  0
   16.1445   -6.8277  -16.1821 C   0  0  0  0  0  0  0  0  0  0  0  0
   14.7528   -7.0491  -15.9409 N   0  0  0  0  0  0  0  0  0  0  0  0
   21.2563   -7.6331  -15.1414 C   0  0  0  0  0  0  0  0  0  0  0  0
   21.2109   -6.3310  -15.6184 O   0  0  0  0  0  0  0  0  0  0  0  0
   21.7862   -7.8013  -14.0229 O   0  0  0  0  0  0  0  0  0  0  0  0
  2  1  1  6
  2  4  1  0
  3  2  1  0
  4  5  1  6
  6  7  2  0
  6  4  1  0
  9  8  1  6
 10  9  1  0
 11  9  1  0
 11 12  1  6
 12  6  1  0
 13 11  1  0
 14 13  2  0
 15 13  1  0
 16 15  1  0
 16 17  1  1
 17 18  1  0
 19 18  1  0
 20 19  1  0
 21 20  1  0
 22 23  1  0
 22 16  1  0
 24 22  2  0
M  END
$$$$
