VTK.pdb
     RDKit          3D

 24 23  0  0  1  0  0  0  0  0999 V2000
   26.5658  -20.4277   -8.6554 C   0  0  0  0  0  0  0  0  0  0  0  0
   25.7289  -20.2616   -9.9044 C   0  0  2  0  0  0  0  0  0  0  0  0
   24.2633  -20.4400   -9.5504 C   0  0  0  0  0  0  0  0  0  0  0  0
   26.1911  -21.2927  -10.9107 C   0  0  2  0  0  0  0  0  0  0  0  0
   27.6192  -21.1467  -11.0772 N   0  0  0  0  0  0  0  0  0  0  0  0
   25.4576  -21.1057  -12.1800 C   0  0  0  0  0  0  0  0  0  0  0  0
   25.7455  -20.0728  -12.8536 O   0  0  0  0  0  0  0  0  0  0  0  0
   23.0361  -22.6514  -15.9698 C   0  0  0  0  0  0  0  0  0  0  0  0
   23.7735  -22.9719  -14.7096 C   0  0  1  0  0  0  0  0  0  0  0  0
   25.0652  -23.4121  -14.9000 O   0  0  0  0  0  0  0  0  0  0  0  0
   23.7490  -21.7228  -13.8236 C   0  0  2  0  0  0  0  0  0  0  0  0
   24.4770  -22.0232  -12.6403 N   0  0  0  0  0  0  0  0  0  0  0  0
   22.3318  -21.3611  -13.5668 C   0  0  0  0  0  0  0  0  0  0  0  0
   21.6350  -21.8623  -12.6686 O   0  0  0  0  0  0  0  0  0  0  0  0
   21.7339  -20.3795  -14.4009 N   0  0  0  0  0  0  0  0  0  0  0  0
   20.3427  -19.9004  -14.1506 C   0  0  1  0  0  0  0  0  0  0  0  0
   20.0956  -18.8116  -15.1570 C   0  0  0  0  0  0  0  0  0  0  0  0
   19.2717  -19.3125  -16.3011 C   0  0  0  0  0  0  0  0  0  0  0  0
   19.7987  -18.7393  -17.5927 C   0  0  0  0  0  0  0  0  0  0  0  0
   18.9236  -19.1297  -18.7715 C   0  0  0  0  0  0  0  0  0  0  0  0
   19.4541  -18.6815  -20.0212 N   0  0  0  0  0  0  0  0  0  0  0  0
   19.4566  -21.0438  -14.4470 C   0  0  0  0  0  0  0  0  0  0  0  0
   19.8488  -22.1031  -15.2526 O   0  0  0  0  0  0  0  0  0  0  0  0
   18.3018  -21.0980  -13.9741 O   0  0  0  0  0  0  0  0  0  0  0  0
  2  1  1  1
  2  4  1  0
  3  2  1  0
  4  5  1  6
  6  7  2  0
  6  4  1  0
  9  8  1  6
 10  9  1  0
 11  9  1  0
 11 12  1  1
 12  6  1  0
 13 11  1  0
 14 13  2  0
 15 13  1  0
 16 15  1  0
 16 17  1  6
 17 18  1  0
 19 18  1  0
 20 19  1  0
 21 20  1  0
 22 23  1  0
 22 16  1  0
 24 22  2  0
M  END
$$$$
