VTK.pdb
     RDKit          3D

 24 23  0  0  1  0  0  0  0  0999 V2000
   27.9998  -17.1730  -18.5327 C   0  0  0  0  0  0  0  0  0  0  0  0
   27.0182  -18.0117  -17.7447 C   0  0  2  0  0  0  0  0  0  0  0  0
   26.2043  -17.1065  -16.8374 C   0  0  0  0  0  0  0  0  0  0  0  0
   27.8106  -19.0300  -16.9545 C   0  0  2  0  0  0  0  0  0  0  0  0
   28.5743  -19.8255  -17.8887 N   0  0  0  0  0  0  0  0  0  0  0  0
   26.8874  -19.8515  -16.1439 C   0  0  0  0  0  0  0  0  0  0  0  0
   26.1493  -20.6640  -16.7752 O   0  0  0  0  0  0  0  0  0  0  0  0
   25.5282  -21.6657  -11.8658 C   0  0  0  0  0  0  0  0  0  0  0  0
   26.5560  -20.9672  -12.6967 C   0  0  1  0  0  0  0  0  0  0  0  0
   27.7051  -21.6956  -12.9148 O   0  0  0  0  0  0  0  0  0  0  0  0
   25.8980  -20.5779  -14.0238 C   0  0  2  0  0  0  0  0  0  0  0  0
   26.8145  -19.7519  -14.7297 N   0  0  0  0  0  0  0  0  0  0  0  0
   24.6085  -19.9047  -13.7250 C   0  0  0  0  0  0  0  0  0  0  0  0
   24.5019  -18.8712  -13.0438 O   0  0  0  0  0  0  0  0  0  0  0  0
   23.4208  -20.4783  -14.2512 N   0  0  0  0  0  0  0  0  0  0  0  0
   22.0937  -19.8283  -14.0416 C   0  0  1  0  0  0  0  0  0  0  0  0
   21.4489  -19.7638  -15.3980 C   0  0  0  0  0  0  0  0  0  0  0  0
   20.0649  -19.2021  -15.3102 C   0  0  0  0  0  0  0  0  0  0  0  0
   19.3827  -19.3271  -16.6494 C   0  0  0  0  0  0  0  0  0  0  0  0
   17.9788  -18.7480  -16.6138 C   0  0  0  0  0  0  0  0  0  0  0  0
   17.8088  -17.6635  -17.5298 N   0  0  0  0  0  0  0  0  0  0  0  0
   21.3201  -20.7455  -13.1810 C   0  0  0  0  0  0  0  0  0  0  0  0
   20.2721  -20.3130  -12.3812 O   0  0  0  0  0  0  0  0  0  0  0  0
   21.5873  -21.9650  -13.1424 O   0  0  0  0  0  0  0  0  0  0  0  0
  2  1  1  1
  2  4  1  0
  3  2  1  0
  4  5  1  6
  6  7  2  0
  6  4  1  0
  9  8  1  1
 10  9  1  0
 11  9  1  0
 11 12  1  1
 12  6  1  0
 13 11  1  0
 14 13  2  0
 15 13  1  0
 16 15  1  0
 16 17  1  6
 17 18  1  0
 19 18  1  0
 20 19  1  0
 21 20  1  0
 22 23  1  0
 22 16  1  0
 24 22  2  0
M  END
$$$$
