VTK.pdb
     RDKit          3D

 24 23  0  0  1  0  0  0  0  0999 V2000
   21.8246  -16.0751  -20.2895 C   0  0  0  0  0  0  0  0  0  0  0  0
   22.5924  -16.5035  -21.5204 C   0  0  2  0  0  0  0  0  0  0  0  0
   21.9954  -17.7920  -22.0575 C   0  0  0  0  0  0  0  0  0  0  0  0
   24.0413  -16.6813  -21.1224 C   0  0  2  0  0  0  0  0  0  0  0  0
   24.1161  -17.7767  -20.1826 N   0  0  0  0  0  0  0  0  0  0  0  0
   24.5541  -15.4182  -20.5516 C   0  0  0  0  0  0  0  0  0  0  0  0
   24.3334  -15.2224  -19.3202 O   0  0  0  0  0  0  0  0  0  0  0  0
   27.9310  -14.1385  -20.3377 C   0  0  0  0  0  0  0  0  0  0  0  0
   27.1677  -13.0609  -21.0382 C   0  0  1  0  0  0  0  0  0  0  0  0
   27.3654  -13.0149  -22.4010 O   0  0  0  0  0  0  0  0  0  0  0  0
   25.6839  -13.2502  -20.7092 C   0  0  2  0  0  0  0  0  0  0  0  0
   25.2601  -14.4594  -21.3246 N   0  0  0  0  0  0  0  0  0  0  0  0
   24.9440  -12.0552  -21.1884 C   0  0  0  0  0  0  0  0  0  0  0  0
   24.3182  -12.0050  -22.2606 O   0  0  0  0  0  0  0  0  0  0  0  0
   24.9515  -10.8951  -20.3694 N   0  0  0  0  0  0  0  0  0  0  0  0
   24.2182   -9.6605  -20.7765 C   0  0  1  0  0  0  0  0  0  0  0  0
   23.0714   -9.5274  -19.8138 C   0  0  0  0  0  0  0  0  0  0  0  0
   22.2615   -8.3040  -20.1070 C   0  0  0  0  0  0  0  0  0  0  0  0
   21.1302   -8.1972  -19.1152 C   0  0  0  0  0  0  0  0  0  0  0  0
   20.2439   -6.9994  -19.4108 C   0  0  0  0  0  0  0  0  0  0  0  0
   19.2298   -6.8092  -18.4210 N   0  0  0  0  0  0  0  0  0  0  0  0
   25.1569   -8.5398  -20.5692 C   0  0  0  0  0  0  0  0  0  0  0  0
   25.0863   -7.3620  -21.2991 O   0  0  0  0  0  0  0  0  0  0  0  0
   26.0640   -8.6146  -19.7137 O   0  0  0  0  0  0  0  0  0  0  0  0
  2  1  1  1
  2  4  1  0
  3  2  1  0
  4  5  1  1
  6  7  2  0
  6  4  1  0
  9  8  1  6
 10  9  1  0
 11  9  1  0
 11 12  1  6
 12  6  1  0
 13 11  1  0
 14 13  2  0
 15 13  1  0
 16 15  1  0
 16 17  1  1
 17 18  1  0
 19 18  1  0
 20 19  1  0
 21 20  1  0
 22 23  1  0
 22 16  1  0
 24 22  2  0
M  END
$$$$
