FHP.pdb
     RDKit          3D

 29 31  0  0  1  0  0  0  0  0999 V2000
   28.6938  -20.6447   -8.6977 N   0  0  0  0  0  0  0  0  0  0  0  0
   27.2619  -20.6993   -8.6225 C   0  0  1  0  0  0  0  0  0  0  0  0
   26.7434  -19.6394   -7.6631 C   0  0  0  0  0  0  0  0  0  0  0  0
   27.5332  -19.5836   -6.4227 C   0  0  0  0  0  0  0  0  0  0  0  0
   27.8937  -20.7567   -5.8083 C   0  0  0  0  0  0  0  0  0  0  0  0
   28.6284  -20.7153   -4.6534 C   0  0  0  0  0  0  0  0  0  0  0  0
   29.0160  -19.5140   -4.0913 C   0  0  0  0  0  0  0  0  0  0  0  0
   28.6525  -18.3557   -4.7099 C   0  0  0  0  0  0  0  0  0  0  0  0
   27.9145  -18.3888   -5.8703 C   0  0  0  0  0  0  0  0  0  0  0  0
   26.6018  -20.4615   -9.9313 C   0  0  0  0  0  0  0  0  0  0  0  0
   26.9968  -19.4835  -10.6109 O   0  0  0  0  0  0  0  0  0  0  0  0
   25.5682  -21.2558  -10.4572 N   0  0  0  0  0  0  0  0  0  0  0  0
   25.0142  -21.0767  -11.8000 C   0  0  1  0  0  0  0  0  0  0  0  0
   25.6379  -22.2143  -12.5993 C   0  0  0  0  0  0  0  0  0  0  0  0
   25.1553  -22.2025  -14.0092 C   0  0  0  0  0  0  0  0  0  0  0  0
   24.2914  -23.1068  -14.5715 C   0  0  0  0  0  0  0  0  0  0  0  0
   24.1004  -22.7646  -15.8482 N   0  0  0  0  0  0  0  0  0  0  0  0
   24.8333  -21.6643  -16.0794 C   0  0  0  0  0  0  0  0  0  0  0  0
   25.4802  -21.3171  -14.9570 N   0  0  0  0  0  0  0  0  0  0  0  0
   23.5492  -21.1453  -11.7291 C   0  0  0  0  0  0  0  0  0  0  0  0
   23.0545  -21.7473  -10.6997 O   0  0  0  0  0  0  0  0  0  0  0  0
   22.6474  -20.6242  -12.6603 N   0  0  0  0  0  0  0  0  0  0  0  0
   22.9976  -20.0311  -13.9254 C   0  0  0  0  0  0  0  0  0  0  0  0
   21.9656  -18.9498  -14.0905 C   0  0  0  0  0  0  0  0  0  0  0  0
   20.9668  -19.1262  -12.9379 C   0  0  0  0  0  0  0  0  0  0  0  0
   21.2194  -20.5933  -12.5902 C   0  0  1  0  0  0  0  0  0  0  0  0
   20.5662  -21.4936  -13.5572 C   0  0  0  0  0  0  0  0  0  0  0  0
   21.2479  -22.0509  -14.4380 O   0  0  0  0  0  0  0  0  0  0  0  0
   19.2151  -21.7120  -13.4827 O   0  0  0  0  0  0  0  0  0  0  0  0
  2  1  1  6
  2 10  1  0
  2  3  1  0
  4  3  1  0
  4  9  1  0
  5  4  2  0
  6  5  1  0
  6  7  2  0
  7  8  1  0
  8  9  2  0
 10 11  2  0
 12 13  1  0
 12 10  1  0
 13 14  1  6
 14 15  1  0
 15 19  1  0
 15 16  2  0
 16 17  1  0
 18 17  1  0
 19 18  2  0
 20 13  1  0
 21 20  2  0
 22 20  1  0
 23 22  1  0
 24 25  1  0
 24 23  1  0
 25 26  1  0
 26 22  1  0
 26 27  1  6
 28 27  2  0
 29 27  1  0
M  END
$$$$
