FHP.pdb
     RDKit          3D

 29 31  0  0  1  0  0  0  0  0999 V2000
   24.3843  -20.0128   -8.9143 N   0  0  0  0  0  0  0  0  0  0  0  0
   25.5688  -20.0775   -9.7215 C   0  0  1  0  0  0  0  0  0  0  0  0
   26.1674  -21.4746   -9.6685 C   0  0  0  0  0  0  0  0  0  0  0  0
   27.5468  -21.5041  -10.1801 C   0  0  0  0  0  0  0  0  0  0  0  0
   28.5855  -21.2845   -9.3104 C   0  0  0  0  0  0  0  0  0  0  0  0
   29.8728  -21.3096   -9.7768 C   0  0  0  0  0  0  0  0  0  0  0  0
   30.1496  -21.5519  -11.1087 C   0  0  0  0  0  0  0  0  0  0  0  0
   29.1106  -21.7685  -11.9631 C   0  0  0  0  0  0  0  0  0  0  0  0
   27.8146  -21.7450  -11.5024 C   0  0  0  0  0  0  0  0  0  0  0  0
   25.3154  -19.7669  -11.1513 C   0  0  0  0  0  0  0  0  0  0  0  0
   24.1697  -20.0078  -11.6029 O   0  0  0  0  0  0  0  0  0  0  0  0
   26.2695  -19.2234  -12.0289 N   0  0  0  0  0  0  0  0  0  0  0  0
   25.9323  -18.6326  -13.3248 C   0  0  1  0  0  0  0  0  0  0  0  0
   27.2109  -17.9113  -13.7329 C   0  0  0  0  0  0  0  0  0  0  0  0
   27.0881  -17.3439  -15.1055 C   0  0  0  0  0  0  0  0  0  0  0  0
   27.7031  -17.8247  -16.2329 C   0  0  0  0  0  0  0  0  0  0  0  0
   27.3501  -17.0523  -17.2635 N   0  0  0  0  0  0  0  0  0  0  0  0
   26.5279  -16.1044  -16.7874 C   0  0  0  0  0  0  0  0  0  0  0  0
   26.3650  -16.2791  -15.4677 N   0  0  0  0  0  0  0  0  0  0  0  0
   25.5405  -19.7008  -14.2531 C   0  0  0  0  0  0  0  0  0  0  0  0
   26.1787  -20.8174  -14.1414 O   0  0  0  0  0  0  0  0  0  0  0  0
   24.5505  -19.6250  -15.2360 N   0  0  0  0  0  0  0  0  0  0  0  0
   23.8036  -18.4436  -15.5844 C   0  0  0  0  0  0  0  0  0  0  0  0
   22.4483  -18.9910  -15.9379 C   0  0  0  0  0  0  0  0  0  0  0  0
   22.5824  -20.5204  -15.9218 C   0  0  0  0  0  0  0  0  0  0  0  0
   24.0928  -20.6563  -16.1147 C   0  0  1  0  0  0  0  0  0  0  0  0
   24.4754  -20.4393  -17.5213 C   0  0  0  0  0  0  0  0  0  0  0  0
   24.7398  -21.4171  -18.2459 O   0  0  0  0  0  0  0  0  0  0  0  0
   24.5387  -19.1656  -18.0236 O   0  0  0  0  0  0  0  0  0  0  0  0
  2  1  1  1
  2 10  1  0
  2  3  1  0
  4  3  1  0
  4  9  1  0
  5  4  2  0
  6  5  1  0
  6  7  2  0
  7  8  1  0
  8  9  2  0
 10 11  2  0
 12 13  1  0
 12 10  1  0
 13 14  1  6
 14 15  1  0
 15 19  1  0
 15 16  2  0
 16 17  1  0
 18 17  1  0
 19 18  2  0
 20 13  1  0
 21 20  2  0
 22 20  1  0
 23 22  1  0
 24 25  1  0
 24 23  1  0
 25 26  1  0
 26 22  1  0
 26 27  1  6
 28 27  2  0
 29 27  1  0
M  END
$$$$
