FHP.pdb
     RDKit          3D

 29 31  0  0  1  0  0  0  0  0999 V2000
   15.4651  -14.2400    5.4493 N   0  0  0  0  0  0  0  0  0  0  0  0
   16.3776  -15.3137    5.1784 C   0  0  1  0  0  0  0  0  0  0  0  0
   17.7939  -14.9108    5.5590 C   0  0  0  0  0  0  0  0  0  0  0  0
   18.3641  -13.9380    4.6136 C   0  0  0  0  0  0  0  0  0  0  0  0
   18.7210  -12.6942    5.0707 C   0  0  0  0  0  0  0  0  0  0  0  0
   19.2523  -11.7817    4.1986 C   0  0  0  0  0  0  0  0  0  0  0  0
   19.4375  -12.0872    2.8638 C   0  0  0  0  0  0  0  0  0  0  0  0
   19.0796  -13.3251    2.4211 C   0  0  0  0  0  0  0  0  0  0  0  0
   18.5452  -14.2473    3.2908 C   0  0  0  0  0  0  0  0  0  0  0  0
   16.0595  -16.5515    5.9345 C   0  0  0  0  0  0  0  0  0  0  0  0
   15.6606  -16.4223    7.1171 O   0  0  0  0  0  0  0  0  0  0  0  0
   16.1750  -17.8528    5.4157 N   0  0  0  0  0  0  0  0  0  0  0  0
   15.8972  -19.0610    6.1937 C   0  0  1  0  0  0  0  0  0  0  0  0
   15.6812  -20.1300    5.1295 C   0  0  0  0  0  0  0  0  0  0  0  0
   15.3688  -21.4472    5.7528 C   0  0  0  0  0  0  0  0  0  0  0  0
   16.2204  -22.1935    6.5263 C   0  0  0  0  0  0  0  0  0  0  0  0
   15.5814  -23.3057    6.8980 N   0  0  0  0  0  0  0  0  0  0  0  0
   14.3506  -23.2547    6.3654 C   0  0  0  0  0  0  0  0  0  0  0  0
   14.2164  -22.1194    5.6640 N   0  0  0  0  0  0  0  0  0  0  0  0
   17.0367  -19.3365    7.0778 C   0  0  0  0  0  0  0  0  0  0  0  0
   18.2044  -19.0386    6.6147 O   0  0  0  0  0  0  0  0  0  0  0  0
   16.9781  -19.8839    8.3619 N   0  0  0  0  0  0  0  0  0  0  0  0
   15.7825  -20.3326    9.0282 C   0  0  0  0  0  0  0  0  0  0  0  0
   16.0488  -19.9924   10.4687 C   0  0  0  0  0  0  0  0  0  0  0  0
   17.5037  -19.5069   10.5361 C   0  0  0  0  0  0  0  0  0  0  0  0
   18.0566  -20.1479    9.2631 C   0  0  1  0  0  0  0  0  0  0  0  0
   18.3188  -21.5852    9.4570 C   0  0  0  0  0  0  0  0  0  0  0  0
   17.5929  -22.4256    8.8932 O   0  0  0  0  0  0  0  0  0  0  0  0
   19.3574  -21.9888   10.2553 O   0  0  0  0  0  0  0  0  0  0  0  0
  2  1  1  1
  2 10  1  0
  2  3  1  0
  4  3  1  0
  4  9  1  0
  5  4  2  0
  6  5  1  0
  6  7  2  0
  7  8  1  0
  8  9  2  0
 10 11  2  0
 12 13  1  0
 12 10  1  0
 13 14  1  6
 14 15  1  0
 15 19  1  0
 15 16  2  0
 16 17  1  0
 18 17  1  0
 19 18  2  0
 20 13  1  0
 21 20  2  0
 22 20  1  0
 23 22  1  0
 24 25  1  0
 24 23  1  0
 25 26  1  0
 26 22  1  0
 26 27  1  1
 28 27  2  0
 29 27  1  0
M  END
$$$$
