FHP.pdb
     RDKit          3D

 29 31  0  0  1  0  0  0  0  0999 V2000
   24.8806   -5.3249  -17.6984 N   0  0  0  0  0  0  0  0  0  0  0  0
   24.0934   -6.5224  -17.7703 C   0  0  1  0  0  0  0  0  0  0  0  0
   24.8922   -7.7102  -17.2566 C   0  0  0  0  0  0  0  0  0  0  0  0
   25.9940   -8.0684  -18.1639 C   0  0  0  0  0  0  0  0  0  0  0  0
   25.7333   -8.8736  -19.2443 C   0  0  0  0  0  0  0  0  0  0  0  0
   26.7520   -9.2129  -20.0942 C   0  0  0  0  0  0  0  0  0  0  0  0
   28.0411   -8.7607  -19.8870 C   0  0  0  0  0  0  0  0  0  0  0  0
   28.2884   -7.9619  -18.8112 C   0  0  0  0  0  0  0  0  0  0  0  0
   27.2705   -7.6166  -17.9527 C   0  0  0  0  0  0  0  0  0  0  0  0
   22.8511   -6.4506  -16.9599 C   0  0  0  0  0  0  0  0  0  0  0  0
   22.9415   -5.9804  -15.8002 O   0  0  0  0  0  0  0  0  0  0  0  0
   21.5859   -6.8728  -17.4038 N   0  0  0  0  0  0  0  0  0  0  0  0
   20.3769   -6.8062  -16.5817 C   0  0  1  0  0  0  0  0  0  0  0  0
   19.3477   -6.1721  -17.5094 C   0  0  0  0  0  0  0  0  0  0  0  0
   18.0151   -6.0859  -16.8479 C   0  0  0  0  0  0  0  0  0  0  0  0
   16.9762   -6.9656  -17.0134 C   0  0  0  0  0  0  0  0  0  0  0  0
   15.9548   -6.5532  -16.2584 N   0  0  0  0  0  0  0  0  0  0  0  0
   16.3494   -5.4341  -15.6314 C   0  0  0  0  0  0  0  0  0  0  0  0
   17.6092   -5.1447  -15.9893 N   0  0  0  0  0  0  0  0  0  0  0  0
   20.0163   -8.1611  -16.1457 C   0  0  0  0  0  0  0  0  0  0  0  0
   20.3369   -9.1229  -16.9451 O   0  0  0  0  0  0  0  0  0  0  0  0
   19.3665   -8.5059  -14.9580 N   0  0  0  0  0  0  0  0  0  0  0  0
   18.9024   -7.5800  -13.9569 C   0  0  0  0  0  0  0  0  0  0  0  0
   19.1133   -8.3344  -12.6731 C   0  0  0  0  0  0  0  0  0  0  0  0
   19.5449   -9.7529  -13.0715 C   0  0  0  0  0  0  0  0  0  0  0  0
   18.9942   -9.8073  -14.4966 C   0  0  1  0  0  0  0  0  0  0  0  0
   17.5382  -10.0354  -14.5004 C   0  0  0  0  0  0  0  0  0  0  0  0
   16.7624   -9.0640  -14.5751 O   0  0  0  0  0  0  0  0  0  0  0  0
   17.0463  -11.3124  -14.4213 O   0  0  0  0  0  0  0  0  0  0  0  0
  2  1  1  1
  2 10  1  0
  2  3  1  0
  4  3  1  0
  4  9  1  0
  5  4  2  0
  6  5  1  0
  6  7  2  0
  7  8  1  0
  8  9  2  0
 10 11  2  0
 12 13  1  0
 12 10  1  0
 13 14  1  6
 14 15  1  0
 15 19  1  0
 15 16  2  0
 16 17  1  0
 18 17  1  0
 19 18  2  0
 20 13  1  0
 21 20  2  0
 22 20  1  0
 23 22  1  0
 24 25  1  0
 24 23  1  0
 25 26  1  0
 26 22  1  0
 26 27  1  1
 28 27  2  0
 29 27  1  0
M  END
$$$$
