FHP.pdb
     RDKit          3D

 29 31  0  0  1  0  0  0  0  0999 V2000
   27.4329  -33.4358   -9.7268 N   0  0  0  0  0  0  0  0  0  0  0  0
   27.3735  -33.0480   -8.3465 C   0  0  1  0  0  0  0  0  0  0  0  0
   25.9777  -33.2858   -7.7916 C   0  0  0  0  0  0  0  0  0  0  0  0
   25.0163  -32.2771   -8.2645 C   0  0  0  0  0  0  0  0  0  0  0  0
   24.0607  -32.6437   -9.1788 C   0  0  0  0  0  0  0  0  0  0  0  0
   23.1616  -31.7122   -9.6252 C   0  0  0  0  0  0  0  0  0  0  0  0
   23.1958  -30.4067   -9.1737 C   0  0  0  0  0  0  0  0  0  0  0  0
   24.1488  -30.0541   -8.2660 C   0  0  0  0  0  0  0  0  0  0  0  0
   25.0556  -30.9839   -7.8125 C   0  0  0  0  0  0  0  0  0  0  0  0
   28.3180  -33.8075   -7.4884 C   0  0  0  0  0  0  0  0  0  0  0  0
   28.6266  -34.9681   -7.8518 O   0  0  0  0  0  0  0  0  0  0  0  0
   28.8867  -33.3148   -6.3012 N   0  0  0  0  0  0  0  0  0  0  0  0
   29.9302  -34.0167   -5.5524 C   0  0  1  0  0  0  0  0  0  0  0  0
   31.0823  -33.0199   -5.5239 C   0  0  0  0  0  0  0  0  0  0  0  0
   32.0607  -33.3047   -6.6114 C   0  0  0  0  0  0  0  0  0  0  0  0
   32.0721  -34.4178   -7.4123 C   0  0  0  0  0  0  0  0  0  0  0  0
   33.0967  -34.3110   -8.2622 N   0  0  0  0  0  0  0  0  0  0  0  0
   33.7152  -33.1499   -7.9963 C   0  0  0  0  0  0  0  0  0  0  0  0
   33.0846  -32.5313   -6.9871 N   0  0  0  0  0  0  0  0  0  0  0  0
   29.4183  -34.3586   -4.2193 C   0  0  0  0  0  0  0  0  0  0  0  0
   28.4844  -33.5986   -3.7536 O   0  0  0  0  0  0  0  0  0  0  0  0
   29.8409  -35.4196   -3.4146 N   0  0  0  0  0  0  0  0  0  0  0  0
   30.8834  -36.3577   -3.7432 C   0  0  0  0  0  0  0  0  0  0  0  0
   30.3930  -37.6393   -3.1278 C   0  0  0  0  0  0  0  0  0  0  0  0
   29.1372  -37.2786   -2.3216 C   0  0  0  0  0  0  0  0  0  0  0  0
   29.3771  -35.7835   -2.1116 C   0  0  1  0  0  0  0  0  0  0  0  0
   30.3696  -35.5438   -1.0488 C   0  0  0  0  0  0  0  0  0  0  0  0
   30.0378  -35.6725    0.1446 O   0  0  0  0  0  0  0  0  0  0  0  0
   31.6496  -35.1808   -1.3784 O   0  0  0  0  0  0  0  0  0  0  0  0
  2  1  1  6
  2 10  1  0
  2  3  1  0
  4  3  1  0
  4  9  1  0
  5  4  2  0
  6  5  1  0
  6  7  2  0
  7  8  1  0
  8  9  2  0
 10 11  2  0
 12 13  1  0
 12 10  1  0
 13 14  1  1
 14 15  1  0
 15 19  1  0
 15 16  2  0
 16 17  1  0
 18 17  1  0
 19 18  2  0
 20 13  1  0
 21 20  2  0
 22 20  1  0
 23 22  1  0
 24 25  1  0
 24 23  1  0
 25 26  1  0
 26 22  1  0
 26 27  1  1
 28 27  2  0
 29 27  1  0
M  END
$$$$
