FHP.pdb
     RDKit          3D

 29 31  0  0  1  0  0  0  0  0999 V2000
   25.8001  -16.5589  -18.2450 N   0  0  0  0  0  0  0  0  0  0  0  0
   25.7414  -17.9385  -17.8546 C   0  0  1  0  0  0  0  0  0  0  0  0
   27.1109  -18.5848  -17.9944 C   0  0  0  0  0  0  0  0  0  0  0  0
   27.4030  -18.9641  -19.3859 C   0  0  0  0  0  0  0  0  0  0  0  0
   28.4576  -18.3692  -20.0319 C   0  0  0  0  0  0  0  0  0  0  0  0
   28.7374  -18.7151  -21.3271 C   0  0  0  0  0  0  0  0  0  0  0  0
   27.9783  -19.6533  -21.9999 C   0  0  0  0  0  0  0  0  0  0  0  0
   26.9337  -20.2375  -21.3487 C   0  0  0  0  0  0  0  0  0  0  0  0
   26.6461  -19.8954  -20.0477 C   0  0  0  0  0  0  0  0  0  0  0  0
   25.3139  -18.1257  -16.4449 C   0  0  0  0  0  0  0  0  0  0  0  0
   25.8536  -17.4013  -15.5741 O   0  0  0  0  0  0  0  0  0  0  0  0
   24.3491  -19.0567  -16.0229 N   0  0  0  0  0  0  0  0  0  0  0  0
   23.9635  -19.2436  -14.6234 C   0  0  1  0  0  0  0  0  0  0  0  0
   22.4713  -19.5424  -14.7001 C   0  0  0  0  0  0  0  0  0  0  0  0
   21.9339  -19.9210  -13.3626 C   0  0  0  0  0  0  0  0  0  0  0  0
   21.4859  -21.1647  -12.9980 C   0  0  0  0  0  0  0  0  0  0  0  0
   21.0840  -21.1081  -11.7258 N   0  0  0  0  0  0  0  0  0  0  0  0
   21.2779  -19.8493  -11.3025 C   0  0  0  0  0  0  0  0  0  0  0  0
   21.7976  -19.1198  -12.3008 N   0  0  0  0  0  0  0  0  0  0  0  0
   24.7520  -20.3414  -14.0497 C   0  0  0  0  0  0  0  0  0  0  0  0
   25.1088  -21.2760  -14.8658 O   0  0  0  0  0  0  0  0  0  0  0  0
   25.1508  -20.4690  -12.7168 N   0  0  0  0  0  0  0  0  0  0  0  0
   24.8679  -19.5283  -11.6632 C   0  0  0  0  0  0  0  0  0  0  0  0
   26.0988  -19.6029  -10.8023 C   0  0  0  0  0  0  0  0  0  0  0  0
   26.9512  -20.7488  -11.3656 C   0  0  0  0  0  0  0  0  0  0  0  0
   25.8742  -21.5412  -12.1066 C   0  0  1  0  0  0  0  0  0  0  0  0
   25.0598  -22.3408  -11.1741 C   0  0  0  0  0  0  0  0  0  0  0  0
   25.5713  -23.3127  -10.5868 O   0  0  0  0  0  0  0  0  0  0  0  0
   23.7467  -22.0120  -10.9588 O   0  0  0  0  0  0  0  0  0  0  0  0
  2  1  1  1
  2 10  1  0
  2  3  1  0
  4  3  1  0
  4  9  1  0
  5  4  2  0
  6  5  1  0
  6  7  2  0
  7  8  1  0
  8  9  2  0
 10 11  2  0
 12 13  1  0
 12 10  1  0
 13 14  1  6
 14 15  1  0
 15 19  1  0
 15 16  2  0
 16 17  1  0
 18 17  1  0
 19 18  2  0
 20 13  1  0
 21 20  2  0
 22 20  1  0
 23 22  1  0
 24 25  1  0
 24 23  1  0
 25 26  1  0
 26 22  1  0
 26 27  1  1
 28 27  2  0
 29 27  1  0
M  END
$$$$
