LRN.pdb
     RDKit          3D

 28 27  0  0  1  0  0  0  0  0999 V2000
    5.1097  -11.8734   27.8025 C   0  0  0  0  0  0  0  0  0  0  0  0
    6.3742  -12.2790   27.1389 C   0  0  2  0  0  0  0  0  0  0  0  0
    7.0747  -11.1063   26.4645 C   0  0  0  0  0  0  0  0  0  0  0  0
    6.2462  -13.4464   26.2548 C   0  0  0  0  0  0  0  0  0  0  0  0
    7.4327  -14.2450   25.8950 C   0  0  2  0  0  0  0  0  0  0  0  0
    8.6477  -13.3849   26.0940 N   0  0  0  0  0  0  0  0  0  0  0  0
    7.5027  -14.9013   24.6000 C   0  0  0  0  0  0  0  0  0  0  0  0
    6.8473  -15.9789   24.3781 O   0  0  0  0  0  0  0  0  0  0  0  0
    9.1209  -12.8055   17.9979 N   0  0  0  0  0  0  0  0  0  0  0  0
    8.4681  -13.7087   17.1288 C   0  0  0  0  0  0  0  0  0  0  0  0
    8.8004  -13.8020   15.8822 N   0  0  0  0  0  0  0  0  0  0  0  0
    7.4101  -14.5614   17.5919 N   0  0  0  0  0  0  0  0  0  0  0  0
    7.1875  -14.7897   19.0137 C   0  0  0  0  0  0  0  0  0  0  0  0
    8.4714  -14.8019   19.7810 C   0  0  0  0  0  0  0  0  0  0  0  0
    8.2791  -14.1670   21.1147 C   0  0  0  0  0  0  0  0  0  0  0  0
    8.2788  -15.1745   22.2281 C   0  0  2  0  0  0  0  0  0  0  0  0
    8.2789  -14.4168   23.5088 N   0  0  0  0  0  0  0  0  0  0  0  0
    9.5435  -15.9288   22.2467 C   0  0  0  0  0  0  0  0  0  0  0  0
   10.5822  -15.3631   22.7449 O   0  0  0  0  0  0  0  0  0  0  0  0
    8.2429  -14.3967   15.2213 N   0  0  0  0  0  0  0  0  0  0  0  0
   13.2305  -19.3389   23.5628 C   0  0  0  0  0  0  0  0  0  0  0  0
   12.0521  -19.8091   22.8797 O   0  0  0  0  0  0  0  0  0  0  0  0
   12.1217  -20.9206   22.3166 C   0  0  0  0  0  0  0  0  0  0  0  0
   10.8491  -18.9851   22.8731 C   0  0  1  0  0  0  0  0  0  0  0  0
   10.9535  -17.9078   21.8066 N   0  0  0  0  0  0  0  0  0  0  0  0
    9.6380  -17.2341   21.7493 C   0  0  0  0  0  0  0  0  0  0  0  0
   11.2143  -18.4520   20.4630 O   0  0  0  0  0  0  0  0  0  0  0  0
   10.2228  -18.7934   19.7450 O   0  0  0  0  0  0  0  0  0  0  0  0
  2  1  1  6
  2  3  1  0
  4  2  1  0
  5  4  1  0
  5  6  1  6
  7  5  1  0
  8  7  2  0
  9 10  1  0
 10 11  2  0
 12 13  1  0
 12 10  1  0
 13 14  1  0
 15 14  1  0
 16 15  1  6
 16 17  1  0
 17  7  1  0
 18 16  1  0
 18 19  2  0
 20 21  1  0
 21 22  2  0
 24 23  1  1
 23 21  1  0
 24 25  1  0
 25 18  1  0
 26 24  1  0
 27 26  2  0
 28 26  1  0
M  END
$$$$
