LRN.pdb
     RDKit          3D

 28 27  0  0  1  0  0  0  0  0999 V2000
    6.4826  -12.7377   27.4551 C   0  0  0  0  0  0  0  0  0  0  0  0
    7.5562  -13.7419   27.6620 C   0  0  2  0  0  0  0  0  0  0  0  0
    8.7147  -13.1884   28.4818 C   0  0  0  0  0  0  0  0  0  0  0  0
    8.0024  -14.4127   26.4324 C   0  0  0  0  0  0  0  0  0  0  0  0
    7.0198  -15.0014   25.5036 C   0  0  2  0  0  0  0  0  0  0  0  0
    6.4027  -16.1938   26.1767 N   0  0  0  0  0  0  0  0  0  0  0  0
    7.4174  -15.3529   24.1504 C   0  0  0  0  0  0  0  0  0  0  0  0
    7.6633  -16.5701   23.8376 O   0  0  0  0  0  0  0  0  0  0  0  0
    8.1418  -12.9039   16.4916 N   0  0  0  0  0  0  0  0  0  0  0  0
    8.4127  -14.2896   16.4323 C   0  0  0  0  0  0  0  0  0  0  0  0
    9.2075  -14.7821   15.5385 N   0  0  0  0  0  0  0  0  0  0  0  0
    7.8190  -15.2092   17.3613 N   0  0  0  0  0  0  0  0  0  0  0  0
    7.3103  -14.7614   18.6512 C   0  0  0  0  0  0  0  0  0  0  0  0
    8.3594  -14.0483   19.4438 C   0  0  0  0  0  0  0  0  0  0  0  0
    7.8461  -13.7279   20.8049 C   0  0  0  0  0  0  0  0  0  0  0  0
    8.0191  -14.8730   21.7607 C   0  0  2  0  0  0  0  0  0  0  0  0
    7.5613  -14.4053   23.0971 N   0  0  0  0  0  0  0  0  0  0  0  0
    9.4467  -15.1823   21.9482 C   0  0  0  0  0  0  0  0  0  0  0  0
   10.1234  -14.4606   22.7658 O   0  0  0  0  0  0  0  0  0  0  0  0
    9.4660  -15.7991   15.5521 N   0  0  0  0  0  0  0  0  0  0  0  0
   14.2193  -14.4319   19.9821 C   0  0  0  0  0  0  0  0  0  0  0  0
   12.8060  -14.5801   19.7437 O   0  0  0  0  0  0  0  0  0  0  0  0
   12.4231  -14.5865   18.5560 C   0  0  0  0  0  0  0  0  0  0  0  0
   11.8969  -14.7141   20.8759 C   0  0  2  0  0  0  0  0  0  0  0  0
   11.5415  -16.1749   21.0970 N   0  0  0  0  0  0  0  0  0  0  0  0
   10.0742  -16.2359   21.2728 C   0  0  0  0  0  0  0  0  0  0  0  0
   12.1424  -16.7343   22.3199 O   0  0  0  0  0  0  0  0  0  0  0  0
   13.4062  -16.8568   22.3722 O   0  0  0  0  0  0  0  0  0  0  0  0
  2  1  1  6
  2  3  1  0
  4  2  1  0
  5  4  1  0
  5  6  1  1
  7  5  1  0
  8  7  2  0
  9 10  1  0
 10 11  2  0
 12 13  1  0
 12 10  1  0
 13 14  1  0
 15 14  1  0
 16 15  1  6
 16 17  1  0
 17  7  1  0
 18 16  1  0
 18 19  2  0
 20 21  1  0
 21 22  2  0
 24 23  1  6
 23 21  1  0
 24 25  1  0
 25 18  1  0
 26 24  1  0
 27 26  2  0
 28 26  1  0
M  END
$$$$
