LRN.pdb
     RDKit          3D

 28 27  0  0  1  0  0  0  0  0999 V2000
    5.4030  -11.8579   27.2867 C   0  0  0  0  0  0  0  0  0  0  0  0
    6.5980  -12.5174   26.7028 C   0  0  2  0  0  0  0  0  0  0  0  0
    7.6293  -11.5113   26.2083 C   0  0  0  0  0  0  0  0  0  0  0  0
    6.2910  -13.5511   25.7037 C   0  0  0  0  0  0  0  0  0  0  0  0
    7.2857  -14.5877   25.3710 C   0  0  2  0  0  0  0  0  0  0  0  0
    8.5719  -14.2340   26.0612 N   0  0  0  0  0  0  0  0  0  0  0  0
    7.5504  -14.9230   23.9817 C   0  0  0  0  0  0  0  0  0  0  0  0
    6.6775  -15.5477   23.2833 O   0  0  0  0  0  0  0  0  0  0  0  0
    9.4798  -14.9728   17.7551 N   0  0  0  0  0  0  0  0  0  0  0  0
    8.3752  -14.3535   17.1277 C   0  0  0  0  0  0  0  0  0  0  0  0
    8.0019  -14.6913   15.9362 N   0  0  0  0  0  0  0  0  0  0  0  0
    7.6201  -13.3248   17.7855 N   0  0  0  0  0  0  0  0  0  0  0  0
    8.0776  -12.7293   19.0341 C   0  0  0  0  0  0  0  0  0  0  0  0
    7.7723  -13.6025   20.2096 C   0  0  0  0  0  0  0  0  0  0  0  0
    8.9860  -13.7656   21.0577 C   0  0  0  0  0  0  0  0  0  0  0  0
    8.9338  -15.0152   21.8887 C   0  0  2  0  0  0  0  0  0  0  0  0
    8.7603  -14.5957   23.3059 N   0  0  0  0  0  0  0  0  0  0  0  0
   10.2328  -15.7086   21.8665 C   0  0  0  0  0  0  0  0  0  0  0  0
   11.1605  -15.2881   22.6475 O   0  0  0  0  0  0  0  0  0  0  0  0
    7.2124  -14.1909   15.4592 N   0  0  0  0  0  0  0  0  0  0  0  0
   11.7507  -20.4771   23.8913 C   0  0  0  0  0  0  0  0  0  0  0  0
   12.1843  -19.3003   23.1818 O   0  0  0  0  0  0  0  0  0  0  0  0
   13.4055  -19.1888   22.9500 C   0  0  0  0  0  0  0  0  0  0  0  0
   11.2000  -18.3061   22.7708 C   0  0  2  0  0  0  0  0  0  0  0  0
   11.5597  -17.7399   21.4073 N   0  0  0  0  0  0  0  0  0  0  0  0
   10.4753  -16.8066   21.0324 C   0  0  0  0  0  0  0  0  0  0  0  0
   11.6210  -18.7690   20.3553 O   0  0  0  0  0  0  0  0  0  0  0  0
   10.5464  -19.0876   19.7564 O   0  0  0  0  0  0  0  0  0  0  0  0
  2  1  1  6
  2  3  1  0
  4  2  1  0
  5  4  1  0
  5  6  1  6
  7  5  1  0
  8  7  2  0
  9 10  1  0
 10 11  2  0
 12 13  1  0
 12 10  1  0
 13 14  1  0
 15 14  1  0
 16 15  1  6
 16 17  1  0
 17  7  1  0
 18 16  1  0
 18 19  2  0
 20 21  1  0
 21 22  2  0
 24 23  1  1
 23 21  1  0
 24 25  1  0
 25 18  1  0
 26 24  1  0
 27 26  2  0
 28 26  1  0
M  END
$$$$
