LRN.pdb
     RDKit          3D

 28 27  0  0  1  0  0  0  0  0999 V2000
    6.6229  -12.4098   26.9825 C   0  0  0  0  0  0  0  0  0  0  0  0
    7.5328  -13.5395   27.2984 C   0  0  2  0  0  0  0  0  0  0  0  0
    8.6656  -13.1259   28.2292 C   0  0  0  0  0  0  0  0  0  0  0  0
    8.0091  -14.2801   26.1213 C   0  0  0  0  0  0  0  0  0  0  0  0
    7.0512  -14.9489   25.2213 C   0  0  2  0  0  0  0  0  0  0  0  0
    6.5796  -16.2045   25.8972 N   0  0  0  0  0  0  0  0  0  0  0  0
    7.4261  -15.2420   23.8479 C   0  0  0  0  0  0  0  0  0  0  0  0
    7.3959  -16.4433   23.4052 O   0  0  0  0  0  0  0  0  0  0  0  0
    7.5195  -15.8072   17.0710 N   0  0  0  0  0  0  0  0  0  0  0  0
    7.8775  -14.6625   16.3235 C   0  0  0  0  0  0  0  0  0  0  0  0
    8.1472  -14.7409   15.0608 N   0  0  0  0  0  0  0  0  0  0  0  0
    7.9561  -13.3648   16.9324 N   0  0  0  0  0  0  0  0  0  0  0  0
    7.5134  -13.1422   18.3027 C   0  0  0  0  0  0  0  0  0  0  0  0
    8.5396  -13.5865   19.2961 C   0  0  0  0  0  0  0  0  0  0  0  0
    8.0406  -13.3691   20.6827 C   0  0  0  0  0  0  0  0  0  0  0  0
    8.0342  -14.6361   21.4887 C   0  0  2  0  0  0  0  0  0  0  0  0
    7.8432  -14.2517   22.9135 N   0  0  0  0  0  0  0  0  0  0  0  0
    9.3583  -15.2798   21.4554 C   0  0  0  0  0  0  0  0  0  0  0  0
    9.6933  -15.9286   20.4000 O   0  0  0  0  0  0  0  0  0  0  0  0
    8.5381  -13.9159   14.5435 N   0  0  0  0  0  0  0  0  0  0  0  0
   13.0961  -13.2815   20.2986 C   0  0  0  0  0  0  0  0  0  0  0  0
   13.2191  -14.5097   21.0422 O   0  0  0  0  0  0  0  0  0  0  0  0
   13.8756  -15.4328   20.5185 C   0  0  0  0  0  0  0  0  0  0  0  0
   12.5851  -14.6238   22.3502 C   0  0  2  0  0  0  0  0  0  0  0  0
   11.6007  -15.7813   22.3601 N   0  0  0  0  0  0  0  0  0  0  0  0
   10.2533  -15.1951   22.5288 C   0  0  0  0  0  0  0  0  0  0  0  0
   11.8098  -16.7045   23.4886 O   0  0  0  0  0  0  0  0  0  0  0  0
   12.5381  -17.7297   23.3053 O   0  0  0  0  0  0  0  0  0  0  0  0
  2  1  1  6
  2  3  1  0
  4  2  1  0
  5  4  1  0
  5  6  1  1
  7  5  1  0
  8  7  2  0
  9 10  1  0
 10 11  2  0
 12 13  1  0
 12 10  1  0
 13 14  1  0
 15 14  1  0
 16 15  1  6
 16 17  1  0
 17  7  1  0
 18 16  1  0
 18 19  2  0
 20 21  1  0
 21 22  2  0
 24 23  1  6
 23 21  1  0
 24 25  1  0
 25 18  1  0
 26 24  1  0
 27 26  2  0
 28 26  1  0
M  END
$$$$
