LRN.pdb
     RDKit          3D

 28 27  0  0  1  0  0  0  0  0999 V2000
    5.5259  -12.5433   26.3169 C   0  0  0  0  0  0  0  0  0  0  0  0
    6.8623  -13.0975   26.6498 C   0  0  2  0  0  0  0  0  0  0  0  0
    7.7701  -12.0634   27.3034 C   0  0  0  0  0  0  0  0  0  0  0  0
    7.5174  -13.8051   25.5402 C   0  0  0  0  0  0  0  0  0  0  0  0
    7.2272  -15.2285   25.2867 C   0  0  2  0  0  0  0  0  0  0  0  0
    7.2837  -15.9540   26.6005 N   0  0  0  0  0  0  0  0  0  0  0  0
    7.9899  -15.9602   24.2888 C   0  0  0  0  0  0  0  0  0  0  0  0
    9.0263  -16.6335   24.6239 O   0  0  0  0  0  0  0  0  0  0  0  0
    8.7671  -15.3276   17.9167 N   0  0  0  0  0  0  0  0  0  0  0  0
    7.9337  -14.2732   17.4796 C   0  0  0  0  0  0  0  0  0  0  0  0
    7.9353  -13.8813   16.2469 N   0  0  0  0  0  0  0  0  0  0  0  0
    7.0497  -13.5934   18.3837 N   0  0  0  0  0  0  0  0  0  0  0  0
    7.0102  -13.9286   19.8012 C   0  0  0  0  0  0  0  0  0  0  0  0
    8.1403  -13.2986   20.5517 C   0  0  0  0  0  0  0  0  0  0  0  0
    8.2174  -13.8584   21.9299 C   0  0  0  0  0  0  0  0  0  0  0  0
    8.5643  -15.3194   21.9303 C   0  0  2  0  0  0  0  0  0  0  0  0
    7.6589  -15.9876   22.9040 N   0  0  0  0  0  0  0  0  0  0  0  0
    9.9149  -15.5326   22.4775 C   0  0  0  0  0  0  0  0  0  0  0  0
   10.9218  -15.1544   21.7774 O   0  0  0  0  0  0  0  0  0  0  0  0
    7.2919  -13.1168   15.9262 N   0  0  0  0  0  0  0  0  0  0  0  0
   13.8303  -15.1643   26.5074 C   0  0  0  0  0  0  0  0  0  0  0  0
   12.9054  -16.2194   26.1792 O   0  0  0  0  0  0  0  0  0  0  0  0
   13.2726  -17.3917   26.3986 C   0  0  0  0  0  0  0  0  0  0  0  0
   11.6033  -15.8833   25.6154 C   0  0  1  0  0  0  0  0  0  0  0  0
   11.5196  -16.3443   24.1698 N   0  0  0  0  0  0  0  0  0  0  0  0
   10.1251  -16.1215   23.7302 C   0  0  0  0  0  0  0  0  0  0  0  0
   11.7945  -17.7823   24.0079 O   0  0  0  0  0  0  0  0  0  0  0  0
   10.8805  -18.5232   23.5275 O   0  0  0  0  0  0  0  0  0  0  0  0
  2  1  1  6
  2  3  1  0
  4  2  1  0
  5  4  1  0
  5  6  1  1
  7  5  1  0
  8  7  2  0
  9 10  1  0
 10 11  2  0
 12 13  1  0
 12 10  1  0
 13 14  1  0
 15 14  1  0
 16 15  1  1
 16 17  1  0
 17  7  1  0
 18 16  1  0
 18 19  2  0
 20 21  1  0
 21 22  2  0
 24 23  1  6
 23 21  1  0
 24 25  1  0
 25 18  1  0
 26 24  1  0
 27 26  2  0
 28 26  1  0
M  END
$$$$
