LRN.pdb
     RDKit          3D

 28 27  0  0  1  0  0  0  0  0999 V2000
    7.2819  -11.0008   26.9653 C   0  0  0  0  0  0  0  0  0  0  0  0
    6.1497  -11.8200   26.4644 C   0  0  2  0  0  0  0  0  0  0  0  0
    4.9413  -11.7629   27.3902 C   0  0  0  0  0  0  0  0  0  0  0  0
    6.5149  -13.1950   26.0942 C   0  0  0  0  0  0  0  0  0  0  0  0
    7.7339  -13.4582   25.3072 C   0  0  2  0  0  0  0  0  0  0  0  0
    7.8488  -12.3886   24.2592 N   0  0  0  0  0  0  0  0  0  0  0  0
    7.9413  -14.7632   24.7015 C   0  0  0  0  0  0  0  0  0  0  0  0
    7.7027  -15.8344   25.3613 O   0  0  0  0  0  0  0  0  0  0  0  0
    7.5450  -13.3462   17.4521 N   0  0  0  0  0  0  0  0  0  0  0  0
    8.7179  -13.5499   18.2137 C   0  0  0  0  0  0  0  0  0  0  0  0
    9.6103  -12.6216   18.3360 N   0  0  0  0  0  0  0  0  0  0  0  0
    8.9685  -14.7942   18.8846 N   0  0  0  0  0  0  0  0  0  0  0  0
    7.8824  -15.7033   19.2266 C   0  0  0  0  0  0  0  0  0  0  0  0
    7.6483  -15.7571   20.7030 C   0  0  0  0  0  0  0  0  0  0  0  0
    8.8675  -16.2550   21.3989 C   0  0  0  0  0  0  0  0  0  0  0  0
    8.6798  -16.3328   22.8867 C   0  0  2  0  0  0  0  0  0  0  0  0
    8.4107  -14.9515   23.3703 N   0  0  0  0  0  0  0  0  0  0  0  0
    9.9377  -16.7164   23.5497 C   0  0  0  0  0  0  0  0  0  0  0  0
   10.5054  -15.8605   24.3193 O   0  0  0  0  0  0  0  0  0  0  0  0
   10.5073  -12.8039   18.8492 N   0  0  0  0  0  0  0  0  0  0  0  0
   12.7507  -19.6686   26.4549 C   0  0  0  0  0  0  0  0  0  0  0  0
   11.4120  -19.2224   26.7468 O   0  0  0  0  0  0  0  0  0  0  0  0
   10.9896  -19.3997   27.9076 C   0  0  0  0  0  0  0  0  0  0  0  0
   10.6195  -18.5942   25.6964 C   0  0  1  0  0  0  0  0  0  0  0  0
   11.4341  -18.4779   24.4190 N   0  0  0  0  0  0  0  0  0  0  0  0
   10.5174  -17.9782   23.3713 C   0  0  0  0  0  0  0  0  0  0  0  0
   11.9551  -19.7730   23.9492 O   0  0  0  0  0  0  0  0  0  0  0  0
   11.2431  -20.4582   23.1500 O   0  0  0  0  0  0  0  0  0  0  0  0
  2  1  1  1
  2  3  1  0
  4  2  1  0
  5  4  1  0
  5  6  1  6
  7  5  1  0
  8  7  2  0
  9 10  1  0
 10 11  2  0
 12 13  1  0
 12 10  1  0
 13 14  1  0
 15 14  1  0
 16 15  1  6
 16 17  1  0
 17  7  1  0
 18 16  1  0
 18 19  2  0
 20 21  1  0
 21 22  2  0
 24 23  1  1
 23 21  1  0
 24 25  1  0
 25 18  1  0
 26 24  1  0
 27 26  2  0
 28 26  1  0
M  END
$$$$
