CTS.pdb
     RDKit          3D

 20 19  0  0  1  0  0  0  0  0999 V2000
   24.8252  -21.2554   -9.0151 N   0  0  0  0  0  0  0  0  0  0  0  0
   25.4563  -20.1805   -9.7826 C   0  0  1  0  0  0  0  0  0  0  0  0
   26.8457  -19.9440   -9.1980 C   0  0  0  0  0  0  0  0  0  0  0  0
   26.7469  -19.0815   -7.6157 S   0  0  0  0  0  0  0  0  0  0  0  0
   25.5568  -20.5434  -11.2013 C   0  0  0  0  0  0  0  0  0  0  0  0
   26.4679  -21.3306  -11.5529 O   0  0  0  0  0  0  0  0  0  0  0  0
   24.2768  -22.9590  -13.0476 C   0  0  0  0  0  0  0  0  0  0  0  0
   23.8434  -21.7289  -13.7905 C   0  0  1  0  0  0  0  0  0  0  0  0
   22.5417  -21.4339  -13.4037 O   0  0  0  0  0  0  0  0  0  0  0  0
   24.7765  -20.5583  -13.5656 C   0  0  2  0  0  0  0  0  0  0  0  0
   24.6887  -20.0630  -12.2143 N   0  0  0  0  0  0  0  0  0  0  0  0
   24.3845  -19.5050  -14.5585 C   0  0  0  0  0  0  0  0  0  0  0  0
   23.6036  -18.5895  -14.2025 O   0  0  0  0  0  0  0  0  0  0  0  0
   26.9486  -18.2577  -17.2078 O   0  0  0  0  0  0  0  0  0  0  0  0
   25.7532  -18.5635  -17.8840 C   0  0  0  0  0  0  0  0  0  0  0  0
   24.6271  -18.5804  -16.8608 C   0  0  2  0  0  0  0  0  0  0  0  0
   24.9061  -19.5702  -15.8744 N   0  0  0  0  0  0  0  0  0  0  0  0
   23.3069  -18.7497  -17.5079 C   0  0  0  0  0  0  0  0  0  0  0  0
   22.6158  -19.7870  -17.4150 O   0  0  0  0  0  0  0  0  0  0  0  0
   22.8096  -17.6950  -18.2606 O   0  0  0  0  0  0  0  0  0  0  0  0
  2  3  1  0
  2  1  1  1
  4  3  1  0
  5  2  1  0
  5  6  2  0
  8  7  1  1
  8 10  1  0
  9  8  1  0
 10 12  1  0
 10 11  1  1
 11  5  1  0
 12 13  2  0
 15 14  1  0
 16 15  1  6
 17 16  1  0
 17 12  1  0
 18 16  1  0
 19 18  2  0
 20 18  1  0
M  END
$$$$
