CTS.pdb
     RDKit          3D

 20 19  0  0  1  0  0  0  0  0999 V2000
   14.2628   -9.0685   -8.8546 N   0  0  0  0  0  0  0  0  0  0  0  0
   14.8711   -7.7854   -9.2104 C   0  0  1  0  0  0  0  0  0  0  0  0
   15.1285   -7.0171   -7.9175 C   0  0  0  0  0  0  0  0  0  0  0  0
   13.5789   -6.5137   -7.1412 S   0  0  0  0  0  0  0  0  0  0  0  0
   16.1287   -7.9897   -9.9391 C   0  0  0  0  0  0  0  0  0  0  0  0
   16.9565   -8.8136   -9.4817 O   0  0  0  0  0  0  0  0  0  0  0  0
   16.5582   -9.6299  -13.0957 C   0  0  0  0  0  0  0  0  0  0  0  0
   17.2459   -8.3032  -13.2365 C   0  0  1  0  0  0  0  0  0  0  0  0
   16.4030   -7.4597  -13.9500 O   0  0  0  0  0  0  0  0  0  0  0  0
   17.6370   -7.7094  -11.9001 C   0  0  2  0  0  0  0  0  0  0  0  0
   16.4792   -7.3155  -11.1364 N   0  0  0  0  0  0  0  0  0  0  0  0
   18.5185   -6.5334  -12.1987 C   0  0  0  0  0  0  0  0  0  0  0  0
   18.0529   -5.3743  -12.0795 O   0  0  0  0  0  0  0  0  0  0  0  0
   22.9854   -5.2237  -13.5606 O   0  0  0  0  0  0  0  0  0  0  0  0
   22.0849   -6.2874  -13.3673 C   0  0  0  0  0  0  0  0  0  0  0  0
   20.7556   -5.7000  -12.9164 C   0  0  2  0  0  0  0  0  0  0  0  0
   19.8558   -6.7611  -12.6082 N   0  0  0  0  0  0  0  0  0  0  0  0
   20.2192   -4.7430  -13.9096 C   0  0  0  0  0  0  0  0  0  0  0  0
   19.5888   -5.0847  -14.9334 O   0  0  0  0  0  0  0  0  0  0  0  0
   20.4292   -3.3887  -13.6898 O   0  0  0  0  0  0  0  0  0  0  0  0
  2  3  1  0
  2  1  1  1
  4  3  1  0
  5  2  1  0
  5  6  2  0
  8  7  1  1
  8 10  1  0
  9  8  1  0
 10 12  1  0
 10 11  1  6
 11  5  1  0
 12 13  2  0
 15 14  1  0
 16 15  1  6
 17 16  1  0
 17 12  1  0
 18 16  1  0
 19 18  2  0
 20 18  1  0
M  END
$$$$
