CTS.pdb
     RDKit          3D

 20 19  0  0  1  0  0  0  0  0999 V2000
   21.5302  -12.8411  -17.8498 N   0  0  0  0  0  0  0  0  0  0  0  0
   20.9526  -12.0682  -16.7490 C   0  0  1  0  0  0  0  0  0  0  0  0
   21.4030  -12.7117  -15.4409 C   0  0  0  0  0  0  0  0  0  0  0  0
   20.5822  -14.2978  -15.1805 S   0  0  0  0  0  0  0  0  0  0  0  0
   21.3951  -10.6699  -16.8063 C   0  0  0  0  0  0  0  0  0  0  0  0
   22.5942  -10.4344  -17.0890 O   0  0  0  0  0  0  0  0  0  0  0  0
   21.0234   -8.2768  -19.2819 C   0  0  0  0  0  0  0  0  0  0  0  0
   20.4658   -7.6189  -18.0534 C   0  0  1  0  0  0  0  0  0  0  0  0
   19.0810   -7.7225  -18.1057 O   0  0  0  0  0  0  0  0  0  0  0  0
   21.0265   -8.2077  -16.7766 C   0  0  2  0  0  0  0  0  0  0  0  0
   20.5555   -9.5535  -16.5623 N   0  0  0  0  0  0  0  0  0  0  0  0
   20.5985   -7.2972  -15.6644 C   0  0  0  0  0  0  0  0  0  0  0  0
   19.6437   -7.6406  -14.9262 O   0  0  0  0  0  0  0  0  0  0  0  0
   23.2150   -5.0358  -13.7703 O   0  0  0  0  0  0  0  0  0  0  0  0
   22.1299   -4.2370  -14.1757 C   0  0  0  0  0  0  0  0  0  0  0  0
   20.9448   -5.1546  -14.4382 C   0  0  2  0  0  0  0  0  0  0  0  0
   21.2836   -6.0713  -15.4752 N   0  0  0  0  0  0  0  0  0  0  0  0
   19.7112   -4.3845  -14.7128 C   0  0  0  0  0  0  0  0  0  0  0  0
   19.2195   -4.2441  -15.8533 O   0  0  0  0  0  0  0  0  0  0  0  0
   19.0648   -3.7846  -13.6410 O   0  0  0  0  0  0  0  0  0  0  0  0
  2  3  1  0
  2  1  1  6
  4  3  1  0
  5  2  1  0
  5  6  2  0
  8  7  1  6
  8 10  1  0
  9  8  1  0
 10 12  1  0
 10 11  1  1
 11  5  1  0
 12 13  2  0
 15 14  1  0
 16 15  1  6
 17 16  1  0
 17 12  1  0
 18 16  1  0
 19 18  2  0
 20 18  1  0
M  END
$$$$
