CTS.pdb
     RDKit          3D

 20 19  0  0  1  0  0  0  0  0999 V2000
   30.1239  -11.1193  -18.3900 N   0  0  0  0  0  0  0  0  0  0  0  0
   28.9255  -10.2796  -18.3499 C   0  0  1  0  0  0  0  0  0  0  0  0
   29.1378   -9.2151  -17.2777 C   0  0  0  0  0  0  0  0  0  0  0  0
   28.9384   -9.9096  -15.6238 S   0  0  0  0  0  0  0  0  0  0  0  0
   28.6885   -9.6479  -19.6534 C   0  0  0  0  0  0  0  0  0  0  0  0
   29.6806   -9.3329  -20.3532 O   0  0  0  0  0  0  0  0  0  0  0  0
   27.3175  -10.8651  -22.8867 C   0  0  0  0  0  0  0  0  0  0  0  0
   26.4916   -9.6992  -22.4271 C   0  0  1  0  0  0  0  0  0  0  0  0
   25.3404  -10.2007  -21.8318 O   0  0  0  0  0  0  0  0  0  0  0  0
   27.2536   -8.7819  -21.4947 C   0  0  2  0  0  0  0  0  0  0  0  0
   27.4045   -9.3648  -20.1846 N   0  0  0  0  0  0  0  0  0  0  0  0
   26.4800   -7.4986  -21.4342 C   0  0  0  0  0  0  0  0  0  0  0  0
   25.7205   -7.2880  -20.4578 O   0  0  0  0  0  0  0  0  0  0  0  0
   26.7518   -3.1414  -22.9898 O   0  0  0  0  0  0  0  0  0  0  0  0
   26.5461   -4.4110  -23.5604 C   0  0  0  0  0  0  0  0  0  0  0  0
   25.9348   -5.3099  -22.4955 C   0  0  2  0  0  0  0  0  0  0  0  0
   26.6263   -6.5557  -22.4818 N   0  0  0  0  0  0  0  0  0  0  0  0
   24.4727   -5.4499  -22.6760 C   0  0  0  0  0  0  0  0  0  0  0  0
   23.9409   -6.3420  -23.3714 O   0  0  0  0  0  0  0  0  0  0  0  0
   23.6462   -4.5372  -22.0354 O   0  0  0  0  0  0  0  0  0  0  0  0
  2  3  1  0
  2  1  1  6
  4  3  1  0
  5  2  1  0
  5  6  2  0
  8  7  1  1
  8 10  1  0
  9  8  1  0
 10 12  1  0
 10 11  1  1
 11  5  1  0
 12 13  2  0
 15 14  1  0
 16 15  1  6
 17 16  1  0
 17 12  1  0
 18 16  1  0
 19 18  2  0
 20 18  1  0
M  END
$$$$
