CTS.pdb
     RDKit          3D

 20 19  0  0  1  0  0  0  0  0999 V2000
   19.6841  -13.5532  -17.2231 N   0  0  0  0  0  0  0  0  0  0  0  0
   19.7749  -12.1544  -17.6451 C   0  0  1  0  0  0  0  0  0  0  0  0
   18.3745  -11.6947  -18.0394 C   0  0  0  0  0  0  0  0  0  0  0  0
   18.3439   -9.9225  -18.3795 S   0  0  0  0  0  0  0  0  0  0  0  0
   20.2984  -11.3161  -16.5600 C   0  0  0  0  0  0  0  0  0  0  0  0
   19.7443  -11.3794  -15.4365 O   0  0  0  0  0  0  0  0  0  0  0  0
   23.4308  -11.5428  -14.7919 C   0  0  0  0  0  0  0  0  0  0  0  0
   23.3294  -10.1104  -15.2287 C   0  0  1  0  0  0  0  0  0  0  0  0
   24.1792   -9.9346  -16.3141 O   0  0  0  0  0  0  0  0  0  0  0  0
   21.9081   -9.7043  -15.5550 C   0  0  2  0  0  0  0  0  0  0  0  0
   21.3975  -10.4299  -16.6916 N   0  0  0  0  0  0  0  0  0  0  0  0
   21.9374   -8.2283  -15.8194 C   0  0  0  0  0  0  0  0  0  0  0  0
   21.8374   -7.8166  -17.0005 O   0  0  0  0  0  0  0  0  0  0  0  0
   19.7363   -5.6633  -14.4229 O   0  0  0  0  0  0  0  0  0  0  0  0
   20.6915   -5.5091  -15.4445 C   0  0  0  0  0  0  0  0  0  0  0  0
   22.0459   -5.9196  -14.8854 C   0  0  2  0  0  0  0  0  0  0  0  0
   22.0774   -7.3355  -14.7280 N   0  0  0  0  0  0  0  0  0  0  0  0
   22.3679   -5.1818  -13.6436 C   0  0  0  0  0  0  0  0  0  0  0  0
   22.5356   -3.9441  -13.5947 O   0  0  0  0  0  0  0  0  0  0  0  0
   22.4903   -5.9076  -12.4669 O   0  0  0  0  0  0  0  0  0  0  0  0
  2  3  1  0
  2  1  1  1
  4  3  1  0
  5  2  1  0
  5  6  2  0
  8  7  1  6
  8 10  1  0
  9  8  1  0
 10 12  1  0
 10 11  1  6
 11  5  1  0
 12 13  2  0
 15 14  1  0
 16 15  1  1
 17 16  1  0
 17 12  1  0
 18 16  1  0
 19 18  2  0
 20 18  1  0
M  END
$$$$
