CTS.pdb
     RDKit          3D

 20 19  0  0  1  0  0  0  0  0999 V2000
   16.2206  -12.3029  -15.8624 N   0  0  0  0  0  0  0  0  0  0  0  0
   17.5208  -11.9672  -15.2794 C   0  0  1  0  0  0  0  0  0  0  0  0
   18.6002  -12.4007  -16.2669 C   0  0  0  0  0  0  0  0  0  0  0  0
   18.9661  -14.1600  -16.0989 S   0  0  0  0  0  0  0  0  0  0  0  0
   17.6185  -10.5259  -15.0199 C   0  0  0  0  0  0  0  0  0  0  0  0
   17.1579   -9.7328  -15.8755 O   0  0  0  0  0  0  0  0  0  0  0  0
   18.0678   -8.9280  -11.1691 C   0  0  0  0  0  0  0  0  0  0  0  0
   17.5066   -8.1750  -12.3398 C   0  0  1  0  0  0  0  0  0  0  0  0
   17.6058   -6.8173  -12.0606 O   0  0  0  0  0  0  0  0  0  0  0  0
   18.1921   -8.5337  -13.6410 C   0  0  2  0  0  0  0  0  0  0  0  0
   18.2027   -9.9590  -13.8588 N   0  0  0  0  0  0  0  0  0  0  0  0
   19.5853   -7.9857  -13.5529 C   0  0  0  0  0  0  0  0  0  0  0  0
   20.4618   -8.6396  -12.9375 O   0  0  0  0  0  0  0  0  0  0  0  0
   22.8169   -5.2186  -15.6187 O   0  0  0  0  0  0  0  0  0  0  0  0
   21.4935   -5.6964  -15.6032 C   0  0  0  0  0  0  0  0  0  0  0  0
   21.1898   -6.1895  -14.1961 C   0  0  2  0  0  0  0  0  0  0  0  0
   19.8769   -6.7426  -14.1674 N   0  0  0  0  0  0  0  0  0  0  0  0
   21.4028   -5.1260  -13.1893 C   0  0  0  0  0  0  0  0  0  0  0  0
   20.4856   -4.4145  -12.7258 O   0  0  0  0  0  0  0  0  0  0  0  0
   22.6960   -4.9076  -12.7350 O   0  0  0  0  0  0  0  0  0  0  0  0
  2  3  1  0
  2  1  1  6
  4  3  1  0
  5  2  1  0
  5  6  2  0
  8  7  1  1
  8 10  1  0
  9  8  1  0
 10 12  1  0
 10 11  1  1
 11  5  1  0
 12 13  2  0
 15 14  1  0
 16 15  1  6
 17 16  1  0
 17 12  1  0
 18 16  1  0
 19 18  2  0
 20 18  1  0
M  END
$$$$
