CTS.pdb
     RDKit          3D

 20 19  0  0  1  0  0  0  0  0999 V2000
   18.4135  -12.9848  -17.5925 N   0  0  0  0  0  0  0  0  0  0  0  0
   18.6327  -12.2168  -16.3657 C   0  0  1  0  0  0  0  0  0  0  0  0
   19.7389  -12.9083  -15.5744 C   0  0  0  0  0  0  0  0  0  0  0  0
   19.1414  -14.4352  -14.8201 S   0  0  0  0  0  0  0  0  0  0  0  0
   19.0185  -10.8356  -16.6780 C   0  0  0  0  0  0  0  0  0  0  0  0
   19.9056  -10.6449  -17.5441 O   0  0  0  0  0  0  0  0  0  0  0  0
   17.0443   -8.0549  -18.1645 C   0  0  0  0  0  0  0  0  0  0  0  0
   17.6702   -7.5312  -16.9048 C   0  0  1  0  0  0  0  0  0  0  0  0
   16.6822   -7.4759  -15.9291 O   0  0  0  0  0  0  0  0  0  0  0  0
   18.8554   -8.3607  -16.4594 C   0  0  2  0  0  0  0  0  0  0  0  0
   18.4544   -9.6882  -16.0646 N   0  0  0  0  0  0  0  0  0  0  0  0
   19.4878   -7.6208  -15.3184 C   0  0  0  0  0  0  0  0  0  0  0  0
   19.5434   -8.1679  -14.1906 O   0  0  0  0  0  0  0  0  0  0  0  0
   22.6767   -5.7169  -13.1813 O   0  0  0  0  0  0  0  0  0  0  0  0
   21.9194   -6.4698  -14.0974 C   0  0  0  0  0  0  0  0  0  0  0  0
   20.7506   -5.6108  -14.5570 C   0  0  2  0  0  0  0  0  0  0  0  0
   20.0070   -6.3216  -15.5431 N   0  0  0  0  0  0  0  0  0  0  0  0
   21.2015   -4.2756  -15.0086 C   0  0  0  0  0  0  0  0  0  0  0  0
   21.5196   -3.3501  -14.2311 O   0  0  0  0  0  0  0  0  0  0  0  0
   21.2748   -4.0395  -16.3744 O   0  0  0  0  0  0  0  0  0  0  0  0
  2  3  1  0
  2  1  1  6
  4  3  1  0
  5  2  1  0
  5  6  2  0
  8  7  1  6
  8 10  1  0
  9  8  1  0
 10 12  1  0
 10 11  1  1
 11  5  1  0
 12 13  2  0
 15 14  1  0
 16 15  1  6
 17 16  1  0
 17 12  1  0
 18 16  1  0
 19 18  2  0
 20 18  1  0
M  END
$$$$
