CTS.pdb
     RDKit          3D

 20 19  0  0  1  0  0  0  0  0999 V2000
   29.8051  -10.6226  -18.2703 N   0  0  0  0  0  0  0  0  0  0  0  0
   30.9988   -9.8544  -18.6277 C   0  0  1  0  0  0  0  0  0  0  0  0
   30.5947   -8.8291  -19.6829 C   0  0  0  0  0  0  0  0  0  0  0  0
   30.5259   -9.5777  -21.3238 S   0  0  0  0  0  0  0  0  0  0  0  0
   31.5553   -9.1788  -17.4495 C   0  0  0  0  0  0  0  0  0  0  0  0
   30.7918   -8.9361  -16.4844 O   0  0  0  0  0  0  0  0  0  0  0  0
   34.4368  -10.1507  -15.0629 C   0  0  0  0  0  0  0  0  0  0  0  0
   34.6626   -8.7752  -15.6194 C   0  0  1  0  0  0  0  0  0  0  0  0
   35.6193   -8.8729  -16.6225 O   0  0  0  0  0  0  0  0  0  0  0  0
   33.3848   -8.1367  -16.1205 C   0  0  2  0  0  0  0  0  0  0  0  0
   32.9090   -8.7761  -17.3220 N   0  0  0  0  0  0  0  0  0  0  0  0
   33.6979   -6.6899  -16.3607 C   0  0  0  0  0  0  0  0  0  0  0  0
   34.0297   -6.3191  -17.5127 O   0  0  0  0  0  0  0  0  0  0  0  0
   31.7475   -3.6954  -14.6875 O   0  0  0  0  0  0  0  0  0  0  0  0
   33.1157   -3.6104  -14.3702 C   0  0  0  0  0  0  0  0  0  0  0  0
   33.8904   -4.3876  -15.4244 C   0  0  2  0  0  0  0  0  0  0  0  0
   33.6112   -5.7775  -15.2800 N   0  0  0  0  0  0  0  0  0  0  0  0
   35.3351   -4.0697  -15.3820 C   0  0  0  0  0  0  0  0  0  0  0  0
   36.1647   -4.6984  -14.6901 O   0  0  0  0  0  0  0  0  0  0  0  0
   35.7931   -3.0123  -16.1557 O   0  0  0  0  0  0  0  0  0  0  0  0
  2  3  1  0
  2  1  1  1
  4  3  1  0
  5  2  1  0
  5  6  2  0
  8  7  1  6
  8 10  1  0
  9  8  1  0
 10 12  1  0
 10 11  1  6
 11  5  1  0
 12 13  2  0
 15 14  1  0
 16 15  1  1
 17 16  1  0
 17 12  1  0
 18 16  1  0
 19 18  2  0
 20 18  1  0
M  END
$$$$
