CTS.pdb
     RDKit          3D

 20 19  0  0  1  0  0  0  0  0999 V2000
   19.6323  -11.3875  -19.9715 N   0  0  0  0  0  0  0  0  0  0  0  0
   19.3197  -10.0813  -19.3894 C   0  0  1  0  0  0  0  0  0  0  0  0
   17.8864  -10.1339  -18.8688 C   0  0  0  0  0  0  0  0  0  0  0  0
   16.6989   -9.9365  -20.2135 S   0  0  0  0  0  0  0  0  0  0  0  0
   20.2461   -9.7632  -18.2962 C   0  0  0  0  0  0  0  0  0  0  0  0
   20.5612  -10.6764  -17.4962 O   0  0  0  0  0  0  0  0  0  0  0  0
   23.8092   -8.9867  -18.1970 C   0  0  0  0  0  0  0  0  0  0  0  0
   23.1077   -7.8596  -17.4967 C   0  0  1  0  0  0  0  0  0  0  0  0
   23.0428   -6.7858  -18.3763 O   0  0  0  0  0  0  0  0  0  0  0  0
   21.7374   -8.2564  -16.9906 C   0  0  2  0  0  0  0  0  0  0  0  0
   20.8169   -8.4838  -18.0769 N   0  0  0  0  0  0  0  0  0  0  0  0
   21.2706   -7.1390  -16.1060 C   0  0  0  0  0  0  0  0  0  0  0  0
   20.5467   -6.2363  -16.5915 O   0  0  0  0  0  0  0  0  0  0  0  0
   20.5011   -7.7496  -12.2925 O   0  0  0  0  0  0  0  0  0  0  0  0
   21.3589   -6.6405  -12.4111 C   0  0  0  0  0  0  0  0  0  0  0  0
   21.2488   -6.1130  -13.8341 C   0  0  2  0  0  0  0  0  0  0  0  0
   21.6590   -7.1308  -14.7432 N   0  0  0  0  0  0  0  0  0  0  0  0
   21.9874   -4.8416  -14.0014 C   0  0  0  0  0  0  0  0  0  0  0  0
   23.1193   -4.7595  -14.5251 O   0  0  0  0  0  0  0  0  0  0  0  0
   21.3870   -3.6744  -13.5501 O   0  0  0  0  0  0  0  0  0  0  0  0
  2  3  1  0
  2  1  1  1
  4  3  1  0
  5  2  1  0
  5  6  2  0
  8  7  1  6
  8 10  1  0
  9  8  1  0
 10 12  1  0
 10 11  1  6
 11  5  1  0
 12 13  2  0
 15 14  1  0
 16 15  1  1
 17 16  1  0
 17 12  1  0
 18 16  1  0
 19 18  2  0
 20 18  1  0
M  END
$$$$
