WVE.pdb
     RDKit          3D

 31 32  0  0  1  0  0  0  0  0999 V2000
   10.4122  -16.2620   21.9726 N   0  0  0  0  0  0  0  0  0  0  0  0
    9.5423  -15.4616   22.8736 C   0  0  1  0  0  0  0  0  0  0  0  0
    8.1714  -15.9639   22.6470 C   0  0  0  0  0  0  0  0  0  0  0  0
    7.5227  -15.4626   21.4407 C   0  0  0  0  0  0  0  0  0  0  0  0
    6.7995  -16.3120   20.5940 C   0  0  0  0  0  0  0  0  0  0  0  0
    6.3915  -15.5442   19.5775 N   0  0  0  0  0  0  0  0  0  0  0  0
    6.8056  -14.2776   19.7274 C   0  0  0  0  0  0  0  0  0  0  0  0
    6.6393  -13.1253   18.9856 C   0  0  0  0  0  0  0  0  0  0  0  0
    7.1812  -11.9485   19.4249 C   0  0  0  0  0  0  0  0  0  0  0  0
    7.8927  -11.8934   20.5997 C   0  0  0  0  0  0  0  0  0  0  0  0
    8.0728  -13.0247   21.3549 C   0  0  0  0  0  0  0  0  0  0  0  0
    7.5215  -14.2125   20.9018 C   0  0  0  0  0  0  0  0  0  0  0  0
   10.1140  -15.6153   24.2164 C   0  0  0  0  0  0  0  0  0  0  0  0
   11.0056  -16.4802   24.4305 O   0  0  0  0  0  0  0  0  0  0  0  0
    8.4101  -13.6823   27.6126 C   0  0  0  0  0  0  0  0  0  0  0  0
    9.8655  -13.9618   27.5551 C   0  0  1  0  0  0  0  0  0  0  0  0
   10.4290  -14.2396   28.9554 C   0  0  0  0  0  0  0  0  0  0  0  0
   10.3133  -15.0773   26.6796 C   0  0  2  0  0  0  0  0  0  0  0  0
    9.7229  -14.8393   25.3360 N   0  0  0  0  0  0  0  0  0  0  0  0
    9.9416  -16.4339   27.1232 C   0  0  0  0  0  0  0  0  0  0  0  0
    8.7371  -16.7732   27.1033 O   0  0  0  0  0  0  0  0  0  0  0  0
   10.9007  -17.3569   27.5632 N   0  0  0  0  0  0  0  0  0  0  0  0
   10.5436  -18.6736   28.0912 C   0  0  1  0  0  0  0  0  0  0  0  0
   11.2760  -19.7639   27.4137 C   0  0  0  0  0  0  0  0  0  0  0  0
   11.8112  -19.3173   26.0808 C   0  0  0  0  0  0  0  0  0  0  0  0
   12.5885  -20.4219   25.4243 C   0  0  0  0  0  0  0  0  0  0  0  0
   12.6160  -21.5877   25.9284 O   0  0  0  0  0  0  0  0  0  0  0  0
   10.6451  -18.6479   29.5360 C   0  0  0  0  0  0  0  0  0  0  0  0
   11.0655  -17.6762   30.2457 O   0  0  0  0  0  0  0  0  0  0  0  0
   13.2960  -20.2041   24.2547 O   0  0  0  0  0  0  0  0  0  0  0  0
   10.2619  -19.7617   30.2806 O   0  0  0  0  0  0  0  0  0  0  0  0
  2 13  1  0
  2  1  1  6
  3  2  1  0
  4  3  1  0
  4  5  2  0
  6  5  1  0
  7 12  2  0
  7  6  1  0
  8  7  1  0
  9 10  1  0
  9  8  2  0
 10 11  2  0
 11 12  1  0
 12  4  1  0
 13 14  2  0
 16 15  1  1
 16 18  1  0
 16 17  1  0
 18 19  1  6
 19 13  1  0
 20 18  1  0
 21 20  2  0
 22 20  1  0
 23 24  1  6
 23 22  1  0
 25 26  1  0
 25 24  1  0
 26 30  1  0
 27 26  2  0
 28 31  1  0
 28 23  1  0
 29 28  2  0
M  END
$$$$
