WVE.pdb
     RDKit          3D

 31 32  0  0  1  0  0  0  0  0999 V2000
    7.9834  -15.1237   20.5675 N   0  0  0  0  0  0  0  0  0  0  0  0
    7.2304  -15.4393   21.8096 C   0  0  1  0  0  0  0  0  0  0  0  0
    6.9925  -16.8969   21.7672 C   0  0  0  0  0  0  0  0  0  0  0  0
    6.4209  -17.4638   22.9835 C   0  0  0  0  0  0  0  0  0  0  0  0
    5.0486  -17.3834   23.2514 C   0  0  0  0  0  0  0  0  0  0  0  0
    4.8828  -17.9496   24.4518 N   0  0  0  0  0  0  0  0  0  0  0  0
    6.0502  -18.3788   24.9531 C   0  0  0  0  0  0  0  0  0  0  0  0
    6.4074  -19.0281   26.1176 C   0  0  0  0  0  0  0  0  0  0  0  0
    7.7160  -19.3610   26.3379 C   0  0  0  0  0  0  0  0  0  0  0  0
    8.6872  -19.0581   25.4135 C   0  0  0  0  0  0  0  0  0  0  0  0
    8.3582  -18.4124   24.2484 C   0  0  0  0  0  0  0  0  0  0  0  0
    7.0306  -18.0781   24.0341 C   0  0  0  0  0  0  0  0  0  0  0  0
    8.0431  -14.9105   22.9111 C   0  0  0  0  0  0  0  0  0  0  0  0
    9.2900  -15.0947   22.9241 O   0  0  0  0  0  0  0  0  0  0  0  0
    6.1812  -13.3447   26.3708 C   0  0  0  0  0  0  0  0  0  0  0  0
    7.5583  -12.9120   26.0303 C   0  0  1  0  0  0  0  0  0  0  0  0
    8.3829  -12.6502   27.2979 C   0  0  0  0  0  0  0  0  0  0  0  0
    8.3653  -13.8159   25.1682 C   0  0  2  0  0  0  0  0  0  0  0  0
    7.5134  -14.1840   24.0068 N   0  0  0  0  0  0  0  0  0  0  0  0
    8.8495  -15.0536   25.8076 C   0  0  0  0  0  0  0  0  0  0  0  0
    8.0613  -16.0154   25.9491 O   0  0  0  0  0  0  0  0  0  0  0  0
   10.1705  -15.1853   26.2583 N   0  0  0  0  0  0  0  0  0  0  0  0
   10.6989  -16.4392   26.7953 C   0  0  1  0  0  0  0  0  0  0  0  0
   11.9002  -16.8964   26.0657 C   0  0  0  0  0  0  0  0  0  0  0  0
   12.3884  -18.2187   26.5906 C   0  0  0  0  0  0  0  0  0  0  0  0
   13.6108  -18.6677   25.8424 C   0  0  0  0  0  0  0  0  0  0  0  0
   13.6834  -18.5451   24.5800 O   0  0  0  0  0  0  0  0  0  0  0  0
   10.8416  -16.3166   28.2315 C   0  0  0  0  0  0  0  0  0  0  0  0
   10.7778  -15.2375   28.9067 O   0  0  0  0  0  0  0  0  0  0  0  0
   14.6911  -19.2266   26.5030 O   0  0  0  0  0  0  0  0  0  0  0  0
   11.0725  -17.4508   29.0074 O   0  0  0  0  0  0  0  0  0  0  0  0
  2 13  1  0
  2  1  1  6
  3  2  1  0
  4  3  1  0
  4  5  2  0
  6  5  1  0
  7 12  2  0
  7  6  1  0
  8  7  1  0
  9 10  1  0
  9  8  2  0
 10 11  2  0
 11 12  1  0
 12  4  1  0
 13 14  2  0
 16 15  1  1
 16 18  1  0
 16 17  1  0
 18 19  1  6
 19 13  1  0
 20 18  1  0
 21 20  2  0
 22 20  1  0
 23 24  1  6
 23 22  1  0
 25 26  1  0
 25 24  1  0
 26 30  1  0
 27 26  2  0
 28 31  1  0
 28 23  1  0
 29 28  2  0
M  END
$$$$
