WVE.pdb
     RDKit          3D

 31 32  0  0  1  0  0  0  0  0999 V2000
    6.9193  -16.9100   25.4858 N   0  0  0  0  0  0  0  0  0  0  0  0
    7.3936  -15.6908   24.7802 C   0  0  1  0  0  0  0  0  0  0  0  0
    8.5200  -15.1801   25.5885 C   0  0  0  0  0  0  0  0  0  0  0  0
    8.1443  -14.2664   26.6615 C   0  0  0  0  0  0  0  0  0  0  0  0
    8.3164  -14.6114   28.0079 C   0  0  0  0  0  0  0  0  0  0  0  0
    7.8284  -13.5815   28.7082 N   0  0  0  0  0  0  0  0  0  0  0  0
    7.3652  -12.6181   27.8985 C   0  0  0  0  0  0  0  0  0  0  0  0
    6.7949  -11.3803   28.1175 C   0  0  0  0  0  0  0  0  0  0  0  0
    6.4367  -10.5978   27.0540 C   0  0  0  0  0  0  0  0  0  0  0  0
    6.6365  -11.0256   25.7631 C   0  0  0  0  0  0  0  0  0  0  0  0
    7.2009  -12.2521   25.5187 C   0  0  0  0  0  0  0  0  0  0  0  0
    7.5595  -13.0386   26.6018 C   0  0  0  0  0  0  0  0  0  0  0  0
    7.6759  -16.1138   23.4036 C   0  0  0  0  0  0  0  0  0  0  0  0
    7.7688  -17.3393   23.1235 O   0  0  0  0  0  0  0  0  0  0  0  0
    6.4047  -14.2458   20.1018 C   0  0  0  0  0  0  0  0  0  0  0  0
    7.8100  -14.7060   19.9883 C   0  0  1  0  0  0  0  0  0  0  0  0
    8.7841  -13.5213   20.0441 C   0  0  0  0  0  0  0  0  0  0  0  0
    8.2850  -15.7038   20.9834 C   0  0  2  0  0  0  0  0  0  0  0  0
    7.8639  -15.2160   22.3232 N   0  0  0  0  0  0  0  0  0  0  0  0
    9.7392  -15.9482   21.0074 C   0  0  0  0  0  0  0  0  0  0  0  0
   10.5190  -14.9761   21.1228 O   0  0  0  0  0  0  0  0  0  0  0  0
   10.2738  -17.2405   20.9086 N   0  0  0  0  0  0  0  0  0  0  0  0
   11.7107  -17.5064   20.9749 C   0  0  1  0  0  0  0  0  0  0  0  0
   12.0469  -18.5001   22.0160 C   0  0  0  0  0  0  0  0  0  0  0  0
   11.1658  -19.7152   21.9169 C   0  0  0  0  0  0  0  0  0  0  0  0
   11.6142  -20.7755   22.8813 C   0  0  0  0  0  0  0  0  0  0  0  0
   12.6398  -20.6011   23.6105 O   0  0  0  0  0  0  0  0  0  0  0  0
   12.2003  -17.7976   19.6431 C   0  0  0  0  0  0  0  0  0  0  0  0
   11.4933  -17.9254   18.5904 O   0  0  0  0  0  0  0  0  0  0  0  0
   10.9265  -21.9703   23.0044 O   0  0  0  0  0  0  0  0  0  0  0  0
   13.5664  -17.9655   19.4250 O   0  0  0  0  0  0  0  0  0  0  0  0
  2 13  1  0
  2  1  1  1
  3  2  1  0
  4  3  1  0
  4  5  2  0
  6  5  1  0
  7 12  2  0
  7  6  1  0
  8  7  1  0
  9 10  1  0
  9  8  2  0
 10 11  2  0
 11 12  1  0
 12  4  1  0
 13 14  2  0
 16 15  1  1
 16 18  1  0
 16 17  1  0
 18 19  1  1
 19 13  1  0
 20 18  1  0
 21 20  2  0
 22 20  1  0
 23 24  1  1
 23 22  1  0
 25 26  1  0
 25 24  1  0
 26 30  1  0
 27 26  2  0
 28 31  1  0
 28 23  1  0
 29 28  2  0
M  END
$$$$
