WVE.pdb
     RDKit          3D

 31 32  0  0  1  0  0  0  0  0999 V2000
    6.5058  -17.7670   24.4365 N   0  0  0  0  0  0  0  0  0  0  0  0
    6.8754  -16.3386   24.2564 C   0  0  1  0  0  0  0  0  0  0  0  0
    7.5924  -15.9578   25.4909 C   0  0  0  0  0  0  0  0  0  0  0  0
    6.9046  -14.9798   26.3264 C   0  0  0  0  0  0  0  0  0  0  0  0
    5.8689  -15.3574   27.1902 C   0  0  0  0  0  0  0  0  0  0  0  0
    5.4391  -14.2231   27.7537 N   0  0  0  0  0  0  0  0  0  0  0  0
    6.1307  -13.1648   27.3063 C   0  0  0  0  0  0  0  0  0  0  0  0
    6.0896  -11.8127   27.5814 C   0  0  0  0  0  0  0  0  0  0  0  0
    6.9654  -10.9646   26.9608 C   0  0  0  0  0  0  0  0  0  0  0  0
    7.8916  -11.4387   26.0625 C   0  0  0  0  0  0  0  0  0  0  0  0
    7.9523  -12.7782   25.7713 C   0  0  0  0  0  0  0  0  0  0  0  0
    7.0607  -13.6298   26.4037 C   0  0  0  0  0  0  0  0  0  0  0  0
    7.6139  -16.2768   22.9897 C   0  0  0  0  0  0  0  0  0  0  0  0
    8.2246  -17.2931   22.5617 O   0  0  0  0  0  0  0  0  0  0  0  0
    8.9025  -13.5989   18.9356 C   0  0  0  0  0  0  0  0  0  0  0  0
    8.1713  -13.8668   20.1978 C   0  0  1  0  0  0  0  0  0  0  0  0
    6.6563  -13.9153   19.9573 C   0  0  0  0  0  0  0  0  0  0  0  0
    8.5301  -15.1003   20.9469 C   0  0  2  0  0  0  0  0  0  0  0  0
    7.7009  -15.1163   22.1808 N   0  0  0  0  0  0  0  0  0  0  0  0
    9.9479  -15.2315   21.3312 C   0  0  0  0  0  0  0  0  0  0  0  0
   10.3260  -14.7731   22.4326 O   0  0  0  0  0  0  0  0  0  0  0  0
   10.8848  -15.8597   20.4986 N   0  0  0  0  0  0  0  0  0  0  0  0
   12.1819  -16.3293   20.9851 C   0  0  1  0  0  0  0  0  0  0  0  0
   12.0576  -17.1316   22.2201 C   0  0  0  0  0  0  0  0  0  0  0  0
   13.3908  -17.6747   22.6559 C   0  0  0  0  0  0  0  0  0  0  0  0
   13.2552  -18.4508   23.9345 C   0  0  0  0  0  0  0  0  0  0  0  0
   13.3936  -19.7136   23.9477 O   0  0  0  0  0  0  0  0  0  0  0  0
   12.8978  -16.9577   19.8939 C   0  0  0  0  0  0  0  0  0  0  0  0
   14.1563  -17.1484   19.8277 O   0  0  0  0  0  0  0  0  0  0  0  0
   12.9762  -17.8163   25.1325 O   0  0  0  0  0  0  0  0  0  0  0  0
   12.2011  -17.4203   18.7792 O   0  0  0  0  0  0  0  0  0  0  0  0
  2 13  1  0
  2  1  1  1
  3  2  1  0
  4  3  1  0
  4  5  2  0
  6  5  1  0
  7 12  2  0
  7  6  1  0
  8  7  1  0
  9 10  1  0
  9  8  2  0
 10 11  2  0
 11 12  1  0
 12  4  1  0
 13 14  2  0
 16 15  1  6
 16 18  1  0
 16 17  1  0
 18 19  1  1
 19 13  1  0
 20 18  1  0
 21 20  2  0
 22 20  1  0
 23 24  1  1
 23 22  1  0
 25 26  1  0
 25 24  1  0
 26 30  1  0
 27 26  2  0
 28 31  1  0
 28 23  1  0
 29 28  2  0
M  END
$$$$
