WVE.pdb
     RDKit          3D

 31 32  0  0  1  0  0  0  0  0999 V2000
    6.2643  -18.4396   24.6653 N   0  0  0  0  0  0  0  0  0  0  0  0
    6.4143  -16.9927   24.3595 C   0  0  1  0  0  0  0  0  0  0  0  0
    7.2260  -16.4383   25.4625 C   0  0  0  0  0  0  0  0  0  0  0  0
    6.6984  -15.2184   26.0632 C   0  0  0  0  0  0  0  0  0  0  0  0
    5.3608  -15.1228   26.4668 C   0  0  0  0  0  0  0  0  0  0  0  0
    5.2099  -13.8730   26.9187 N   0  0  0  0  0  0  0  0  0  0  0  0
    6.3550  -13.1810   26.8281 C   0  0  0  0  0  0  0  0  0  0  0  0
    6.7215  -11.8942   27.1674 C   0  0  0  0  0  0  0  0  0  0  0  0
    8.0090  -11.4774   26.9667 C   0  0  0  0  0  0  0  0  0  0  0  0
    8.9499  -12.3236   26.4298 C   0  0  0  0  0  0  0  0  0  0  0  0
    8.6108  -13.6072   26.0836 C   0  0  0  0  0  0  0  0  0  0  0  0
    7.3042  -14.0205   26.2893 C   0  0  0  0  0  0  0  0  0  0  0  0
    6.9699  -16.9299   23.0026 C   0  0  0  0  0  0  0  0  0  0  0  0
    6.2450  -17.2008   22.0076 O   0  0  0  0  0  0  0  0  0  0  0  0
    8.0195  -13.8310   20.1642 C   0  0  0  0  0  0  0  0  0  0  0  0
    7.6800  -14.8564   21.1805 C   0  0  1  0  0  0  0  0  0  0  0  0
    6.3506  -15.5461   20.8449 C   0  0  0  0  0  0  0  0  0  0  0  0
    8.6764  -15.9331   21.4245 C   0  0  2  0  0  0  0  0  0  0  0  0
    8.3121  -16.5787   22.7132 N   0  0  0  0  0  0  0  0  0  0  0  0
   10.0854  -15.5033   21.4953 C   0  0  0  0  0  0  0  0  0  0  0  0
   10.3658  -14.4242   22.0639 O   0  0  0  0  0  0  0  0  0  0  0  0
   11.1217  -16.2719   20.9468 N   0  0  0  0  0  0  0  0  0  0  0  0
   12.4519  -16.3473   21.5506 C   0  0  1  0  0  0  0  0  0  0  0  0
   12.3921  -16.6404   22.9979 C   0  0  0  0  0  0  0  0  0  0  0  0
   11.5744  -17.8726   23.2728 C   0  0  0  0  0  0  0  0  0  0  0  0
   11.5869  -18.2014   24.7382 C   0  0  0  0  0  0  0  0  0  0  0  0
   10.5110  -18.4853   25.3512 O   0  0  0  0  0  0  0  0  0  0  0  0
   13.2809  -17.2346   20.7608 C   0  0  0  0  0  0  0  0  0  0  0  0
   14.5150  -17.4868   20.9556 O   0  0  0  0  0  0  0  0  0  0  0  0
   12.7664  -18.2050   25.4624 O   0  0  0  0  0  0  0  0  0  0  0  0
   12.7365  -17.9078   19.6689 O   0  0  0  0  0  0  0  0  0  0  0  0
  2 13  1  0
  2  1  1  1
  3  2  1  0
  4  3  1  0
  4  5  2  0
  6  5  1  0
  7 12  2  0
  7  6  1  0
  8  7  1  0
  9 10  1  0
  9  8  2  0
 10 11  2  0
 11 12  1  0
 12  4  1  0
 13 14  2  0
 16 15  1  6
 16 18  1  0
 16 17  1  0
 18 19  1  1
 19 13  1  0
 20 18  1  0
 21 20  2  0
 22 20  1  0
 23 24  1  1
 23 22  1  0
 25 26  1  0
 25 24  1  0
 26 30  1  0
 27 26  2  0
 28 31  1  0
 28 23  1  0
 29 28  2  0
M  END
$$$$
