WVE.pdb
     RDKit          3D

 31 32  0  0  1  0  0  0  0  0999 V2000
    6.2712  -16.7586   25.2612 N   0  0  0  0  0  0  0  0  0  0  0  0
    7.1147  -15.6517   24.7390 C   0  0  1  0  0  0  0  0  0  0  0  0
    8.2030  -15.4863   25.7245 C   0  0  0  0  0  0  0  0  0  0  0  0
    7.9513  -14.4896   26.7592 C   0  0  0  0  0  0  0  0  0  0  0  0
    8.3884  -14.6783   28.0763 C   0  0  0  0  0  0  0  0  0  0  0  0
    7.9507  -13.6130   28.7566 N   0  0  0  0  0  0  0  0  0  0  0  0
    7.2733  -12.7723   27.9613 C   0  0  0  0  0  0  0  0  0  0  0  0
    6.6519  -11.5569   28.1667 C   0  0  0  0  0  0  0  0  0  0  0  0
    6.0470  -10.9158   27.1204 C   0  0  0  0  0  0  0  0  0  0  0  0
    6.0476  -11.4646   25.8601 C   0  0  0  0  0  0  0  0  0  0  0  0
    6.6577  -12.6718   25.6299 C   0  0  0  0  0  0  0  0  0  0  0  0
    7.2669  -13.3146   26.6956 C   0  0  0  0  0  0  0  0  0  0  0  0
    7.4822  -16.0436   23.3733 C   0  0  0  0  0  0  0  0  0  0  0  0
    7.5312  -17.2623   23.0550 O   0  0  0  0  0  0  0  0  0  0  0  0
    6.3555  -14.2411   19.9830 C   0  0  0  0  0  0  0  0  0  0  0  0
    7.8015  -14.5688   20.0198 C   0  0  1  0  0  0  0  0  0  0  0  0
    8.6453  -13.3111   20.2680 C   0  0  0  0  0  0  0  0  0  0  0  0
    8.2462  -15.5896   21.0055 C   0  0  2  0  0  0  0  0  0  0  0  0
    7.8031  -15.1221   22.3454 N   0  0  0  0  0  0  0  0  0  0  0  0
    9.6970  -15.8496   21.0539 C   0  0  0  0  0  0  0  0  0  0  0  0
   10.4183  -15.1452   21.7955 O   0  0  0  0  0  0  0  0  0  0  0  0
   10.2918  -16.8675   20.2952 N   0  0  0  0  0  0  0  0  0  0  0  0
   11.5839  -17.4581   20.6437 C   0  0  1  0  0  0  0  0  0  0  0  0
   11.5044  -18.9264   20.7927 C   0  0  0  0  0  0  0  0  0  0  0  0
   12.8511  -19.5178   21.1075 C   0  0  0  0  0  0  0  0  0  0  0  0
   12.7397  -20.9976   21.3382 C   0  0  0  0  0  0  0  0  0  0  0  0
   13.1333  -21.8254   20.4585 O   0  0  0  0  0  0  0  0  0  0  0  0
   12.5910  -16.9709   19.7236 C   0  0  0  0  0  0  0  0  0  0  0  0
   13.8245  -16.7841   19.9847 O   0  0  0  0  0  0  0  0  0  0  0  0
   12.2068  -21.5025   22.5116 O   0  0  0  0  0  0  0  0  0  0  0  0
   12.2419  -16.6580   18.4113 O   0  0  0  0  0  0  0  0  0  0  0  0
  2 13  1  0
  2  1  1  1
  3  2  1  0
  4  3  1  0
  4  5  2  0
  6  5  1  0
  7 12  2  0
  7  6  1  0
  8  7  1  0
  9 10  1  0
  9  8  2  0
 10 11  2  0
 11 12  1  0
 12  4  1  0
 13 14  2  0
 16 15  1  1
 16 18  1  0
 16 17  1  0
 18 19  1  1
 19 13  1  0
 20 18  1  0
 21 20  2  0
 22 20  1  0
 23 24  1  6
 23 22  1  0
 25 26  1  0
 25 24  1  0
 26 30  1  0
 27 26  2  0
 28 31  1  0
 28 23  1  0
 29 28  2  0
M  END
$$$$
