WVE.pdb
     RDKit          3D

 31 32  0  0  1  0  0  0  0  0999 V2000
    7.1662  -17.4382   23.4215 N   0  0  0  0  0  0  0  0  0  0  0  0
    7.4959  -15.9937   23.3027 C   0  0  1  0  0  0  0  0  0  0  0  0
    8.1879  -15.6422   24.5599 C   0  0  0  0  0  0  0  0  0  0  0  0
    7.3538  -14.9846   25.5596 C   0  0  0  0  0  0  0  0  0  0  0  0
    6.4201  -15.7021   26.3176 C   0  0  0  0  0  0  0  0  0  0  0  0
    5.8062  -14.7946   27.0849 N   0  0  0  0  0  0  0  0  0  0  0  0
    6.2884  -13.5632   26.8628 C   0  0  0  0  0  0  0  0  0  0  0  0
    6.0122  -12.3200   27.3954 C   0  0  0  0  0  0  0  0  0  0  0  0
    6.7096  -11.2245   26.9652 C   0  0  0  0  0  0  0  0  0  0  0  0
    7.6870  -11.3413   26.0056 C   0  0  0  0  0  0  0  0  0  0  0  0
    7.9800  -12.5657   25.4599 C   0  0  0  0  0  0  0  0  0  0  0  0
    7.2679  -13.6696   25.9008 C   0  0  0  0  0  0  0  0  0  0  0  0
    8.2460  -15.8601   22.0484 C   0  0  0  0  0  0  0  0  0  0  0  0
    8.7829  -16.8708   21.5202 O   0  0  0  0  0  0  0  0  0  0  0  0
    7.2565  -13.0609   19.2385 C   0  0  0  0  0  0  0  0  0  0  0  0
    8.7101  -13.3153   19.3870 C   0  0  1  0  0  0  0  0  0  0  0  0
    9.3937  -12.1743   20.1527 C   0  0  0  0  0  0  0  0  0  0  0  0
    9.1180  -14.5842   20.0464 C   0  0  2  0  0  0  0  0  0  0  0  0
    8.4243  -14.6339   21.3604 N   0  0  0  0  0  0  0  0  0  0  0  0
   10.5653  -14.7572   20.2716 C   0  0  0  0  0  0  0  0  0  0  0  0
   11.1992  -13.8638   20.8769 O   0  0  0  0  0  0  0  0  0  0  0  0
   11.2515  -15.8972   19.8301 N   0  0  0  0  0  0  0  0  0  0  0  0
   12.7106  -15.9980   19.8548 C   0  0  1  0  0  0  0  0  0  0  0  0
   13.1777  -17.3855   19.6523 C   0  0  0  0  0  0  0  0  0  0  0  0
   12.6007  -18.3130   20.6864 C   0  0  0  0  0  0  0  0  0  0  0  0
   12.2777  -19.6484   20.0799 C   0  0  0  0  0  0  0  0  0  0  0  0
   12.3885  -19.8394   18.8288 O   0  0  0  0  0  0  0  0  0  0  0  0
   13.2690  -15.0070   18.9579 C   0  0  0  0  0  0  0  0  0  0  0  0
   12.7118  -14.5358   17.9129 O   0  0  0  0  0  0  0  0  0  0  0  0
   11.8511  -20.7073   20.8624 O   0  0  0  0  0  0  0  0  0  0  0  0
   14.5341  -14.4779   19.2059 O   0  0  0  0  0  0  0  0  0  0  0  0
  2 13  1  0
  2  1  1  1
  3  2  1  0
  4  3  1  0
  4  5  2  0
  6  5  1  0
  7 12  2  0
  7  6  1  0
  8  7  1  0
  9 10  1  0
  9  8  2  0
 10 11  2  0
 11 12  1  0
 12  4  1  0
 13 14  2  0
 16 15  1  1
 16 18  1  0
 16 17  1  0
 18 19  1  1
 19 13  1  0
 20 18  1  0
 21 20  2  0
 22 20  1  0
 23 24  1  6
 23 22  1  0
 25 26  1  0
 25 24  1  0
 26 30  1  0
 27 26  2  0
 28 31  1  0
 28 23  1  0
 29 28  2  0
M  END
$$$$
