TYL.pdb
     RDKit          3D

 28 28  0  0  1  0  0  0  0  0999 V2000
    5.3964  -19.8410   21.3950 C   0  0  0  0  0  0  0  0  0  0  0  0
    6.4556  -18.9431   22.0366 C   0  0  1  0  0  0  0  0  0  0  0  0
    7.3095  -19.7915   22.7434 O   0  0  0  0  0  0  0  0  0  0  0  0
    7.2018  -18.2704   20.9209 C   0  0  2  0  0  0  0  0  0  0  0  0
    7.8095  -19.2891   20.0916 N   0  0  0  0  0  0  0  0  0  0  0  0
    8.2190  -17.3222   21.3558 C   0  0  0  0  0  0  0  0  0  0  0  0
    9.4385  -17.6209   21.2198 O   0  0  0  0  0  0  0  0  0  0  0  0
    7.7174  -13.2278   16.3143 O   0  0  0  0  0  0  0  0  0  0  0  0
    7.9660  -13.3715   17.6729 C   0  0  0  0  0  0  0  0  0  0  0  0
    6.9691  -13.4850   18.6107 C   0  0  0  0  0  0  0  0  0  0  0  0
    7.2726  -13.6253   19.9422 C   0  0  0  0  0  0  0  0  0  0  0  0
    8.5929  -13.6594   20.4059 C   0  0  0  0  0  0  0  0  0  0  0  0
    8.8501  -13.7910   21.8503 C   0  0  0  0  0  0  0  0  0  0  0  0
    9.0343  -15.1840   22.3487 C   0  0  2  0  0  0  0  0  0  0  0  0
    7.9444  -16.0546   21.9361 N   0  0  0  0  0  0  0  0  0  0  0  0
    9.1324  -15.1840   23.8292 C   0  0  0  0  0  0  0  0  0  0  0  0
   10.1885  -14.6516   24.3181 O   0  0  0  0  0  0  0  0  0  0  0  0
    9.5959  -13.5438   19.4512 C   0  0  0  0  0  0  0  0  0  0  0  0
    9.2671  -13.4041   18.1206 C   0  0  0  0  0  0  0  0  0  0  0  0
    8.0398  -12.5121   26.9415 C   0  0  0  0  0  0  0  0  0  0  0  0
    7.0590  -13.4171   26.2041 C   0  0  2  0  0  0  0  0  0  0  0  0
    5.6829  -12.8280   26.3579 C   0  0  0  0  0  0  0  0  0  0  0  0
    7.1451  -14.8313   26.7072 C   0  0  0  0  0  0  0  0  0  0  0  0
    8.2751  -15.6171   26.1384 C   0  0  2  0  0  0  0  0  0  0  0  0
    8.1641  -15.7168   24.6809 N   0  0  0  0  0  0  0  0  0  0  0  0
    8.2733  -16.9860   26.7054 C   0  0  0  0  0  0  0  0  0  0  0  0
    8.0455  -17.9796   25.9255 O   0  0  0  0  0  0  0  0  0  0  0  0
    8.4982  -17.3149   28.0139 O   0  0  0  0  0  0  0  0  0  0  0  0
  2  1  1  6
  2  3  1  0
  4  2  1  0
  4  5  1  1
  6  7  2  0
  6  4  1  0
  9  8  1  0
 10  9  2  0
 11 10  1  0
 12 18  1  0
 12 11  2  0
 14 13  1  1
 13 12  1  0
 14 15  1  0
 15  6  1  0
 16 14  1  0
 17 16  2  0
 18 19  2  0
 19  9  1  0
 21 20  1  1
 21 22  1  0
 24 23  1  1
 23 21  1  0
 24 25  1  0
 25 16  1  0
 26 28  1  0
 26 24  1  0
 27 26  2  0
M  END
$$$$
