TYL.pdb
     RDKit          3D

 28 28  0  0  1  0  0  0  0  0999 V2000
    6.8824  -20.7222   22.2332 C   0  0  0  0  0  0  0  0  0  0  0  0
    7.8628  -19.6602   22.7336 C   0  0  1  0  0  0  0  0  0  0  0  0
    9.0398  -20.3375   23.0569 O   0  0  0  0  0  0  0  0  0  0  0  0
    8.1078  -18.7114   21.5961 C   0  0  2  0  0  0  0  0  0  0  0  0
    8.6566  -19.4565   20.4833 N   0  0  0  0  0  0  0  0  0  0  0  0
    8.9849  -17.5930   21.9164 C   0  0  0  0  0  0  0  0  0  0  0  0
   10.1942  -17.6347   21.5548 O   0  0  0  0  0  0  0  0  0  0  0  0
    7.3070  -13.4234   17.0744 O   0  0  0  0  0  0  0  0  0  0  0  0
    7.7230  -13.5626   18.3919 C   0  0  0  0  0  0  0  0  0  0  0  0
    9.0438  -13.6583   18.7560 C   0  0  0  0  0  0  0  0  0  0  0  0
    9.3987  -13.7947   20.0752 C   0  0  0  0  0  0  0  0  0  0  0  0
    8.4480  -13.8424   21.1014 C   0  0  0  0  0  0  0  0  0  0  0  0
    8.8944  -14.0112   22.4950 C   0  0  0  0  0  0  0  0  0  0  0  0
    9.5130  -15.3283   22.8193 C   0  0  2  0  0  0  0  0  0  0  0  0
    8.5807  -16.4272   22.6213 N   0  0  0  0  0  0  0  0  0  0  0  0
    9.9892  -15.3325   24.2246 C   0  0  0  0  0  0  0  0  0  0  0  0
   10.8458  -14.4305   24.5258 O   0  0  0  0  0  0  0  0  0  0  0  0
    7.1139  -13.7451   20.7252 C   0  0  0  0  0  0  0  0  0  0  0  0
    6.7818  -13.6087   19.3951 C   0  0  0  0  0  0  0  0  0  0  0  0
   10.5882  -13.5490   28.2618 C   0  0  0  0  0  0  0  0  0  0  0  0
    9.4622  -13.5848   27.2344 C   0  0  2  0  0  0  0  0  0  0  0  0
    8.4574  -12.5311   27.6147 C   0  0  0  0  0  0  0  0  0  0  0  0
    8.8572  -14.9582   27.1428 C   0  0  0  0  0  0  0  0  0  0  0  0
    9.7835  -16.0032   26.6252 C   0  0  2  0  0  0  0  0  0  0  0  0
    9.5632  -16.2389   25.1961 N   0  0  0  0  0  0  0  0  0  0  0  0
    9.5644  -17.2760   27.3514 C   0  0  0  0  0  0  0  0  0  0  0  0
    8.6620  -18.0842   26.9273 O   0  0  0  0  0  0  0  0  0  0  0  0
   10.2450  -17.6964   28.4610 O   0  0  0  0  0  0  0  0  0  0  0  0
  2  1  1  6
  2  3  1  0
  4  2  1  0
  4  5  1  6
  6  7  2  0
  6  4  1  0
  9  8  1  0
 10  9  2  0
 11 10  1  0
 12 18  1  0
 12 11  2  0
 14 13  1  1
 13 12  1  0
 14 15  1  0
 15  6  1  0
 16 14  1  0
 17 16  2  0
 18 19  2  0
 19  9  1  0
 21 20  1  1
 21 22  1  0
 24 23  1  1
 23 21  1  0
 24 25  1  0
 25 16  1  0
 26 28  1  0
 26 24  1  0
 27 26  2  0
M  END
$$$$
