TYL.pdb
     RDKit          3D

 28 28  0  0  1  0  0  0  0  0999 V2000
    6.2571  -20.5589   26.3644 C   0  0  0  0  0  0  0  0  0  0  0  0
    6.7814  -19.3073   25.6587 C   0  0  1  0  0  0  0  0  0  0  0  0
    7.9484  -18.9405   26.3311 O   0  0  0  0  0  0  0  0  0  0  0  0
    7.1001  -19.6962   24.2440 C   0  0  2  0  0  0  0  0  0  0  0  0
    8.0047  -20.8257   24.2682 N   0  0  0  0  0  0  0  0  0  0  0  0
    7.6720  -18.6282   23.4347 C   0  0  0  0  0  0  0  0  0  0  0  0
    8.9194  -18.6034   23.2392 O   0  0  0  0  0  0  0  0  0  0  0  0
    8.9229  -11.6705   18.0414 O   0  0  0  0  0  0  0  0  0  0  0  0
    8.3493  -12.6108   18.8872 C   0  0  0  0  0  0  0  0  0  0  0  0
    7.7087  -12.2778   20.0555 C   0  0  0  0  0  0  0  0  0  0  0  0
    7.1591  -13.2496   20.8545 C   0  0  0  0  0  0  0  0  0  0  0  0
    7.2220  -14.6086   20.5251 C   0  0  0  0  0  0  0  0  0  0  0  0
    6.6302  -15.6029   21.4367 C   0  0  0  0  0  0  0  0  0  0  0  0
    7.5972  -16.5127   22.1149 C   0  0  2  0  0  0  0  0  0  0  0  0
    6.9214  -17.5837   22.8307 N   0  0  0  0  0  0  0  0  0  0  0  0
    8.4402  -15.7417   23.0618 C   0  0  0  0  0  0  0  0  0  0  0  0
    9.3387  -15.0003   22.5319 O   0  0  0  0  0  0  0  0  0  0  0  0
    7.8718  -14.9375   19.3418 C   0  0  0  0  0  0  0  0  0  0  0  0
    8.4157  -13.9450   18.5561 C   0  0  0  0  0  0  0  0  0  0  0  0
    8.1795  -13.1887   27.9167 C   0  0  0  0  0  0  0  0  0  0  0  0
    7.7074  -12.6833   26.5579 C   0  0  2  0  0  0  0  0  0  0  0  0
    6.4896  -11.8282   26.7816 C   0  0  0  0  0  0  0  0  0  0  0  0
    7.4496  -13.8262   25.6156 C   0  0  0  0  0  0  0  0  0  0  0  0
    8.6535  -14.6434   25.2985 C   0  0  2  0  0  0  0  0  0  0  0  0
    8.3044  -15.7854   24.4497 N   0  0  0  0  0  0  0  0  0  0  0  0
    9.2598  -15.1550   26.5500 C   0  0  0  0  0  0  0  0  0  0  0  0
    9.7851  -14.3197   27.3708 O   0  0  0  0  0  0  0  0  0  0  0  0
    9.3193  -16.4654   26.9377 O   0  0  0  0  0  0  0  0  0  0  0  0
  2  1  1  1
  2  3  1  0
  4  2  1  0
  4  5  1  1
  6  7  2  0
  6  4  1  0
  9  8  1  0
 10  9  2  0
 11 10  1  0
 12 18  1  0
 12 11  2  0
 14 13  1  1
 13 12  1  0
 14 15  1  0
 15  6  1  0
 16 14  1  0
 17 16  2  0
 18 19  2  0
 19  9  1  0
 21 20  1  1
 21 22  1  0
 24 23  1  1
 23 21  1  0
 24 25  1  0
 25 16  1  0
 26 28  1  0
 26 24  1  0
 27 26  2  0
M  END
$$$$
