TYL.pdb
     RDKit          3D

 28 28  0  0  1  0  0  0  0  0999 V2000
    8.7756  -14.2811   20.8345 C   0  0  0  0  0  0  0  0  0  0  0  0
    7.5894  -14.7900   20.0139 C   0  0  1  0  0  0  0  0  0  0  0  0
    7.9345  -14.6056   18.6739 O   0  0  0  0  0  0  0  0  0  0  0  0
    7.4387  -16.2537   20.3125 C   0  0  2  0  0  0  0  0  0  0  0  0
    6.2901  -16.7566   19.5895 N   0  0  0  0  0  0  0  0  0  0  0  0
    7.3053  -16.5743   21.7274 C   0  0  0  0  0  0  0  0  0  0  0  0
    6.1761  -16.4609   22.2814 O   0  0  0  0  0  0  0  0  0  0  0  0
    8.1138  -19.7209   29.9495 O   0  0  0  0  0  0  0  0  0  0  0  0
    8.2352  -19.4295   28.5973 C   0  0  0  0  0  0  0  0  0  0  0  0
    7.1621  -19.3745   27.7419 C   0  0  0  0  0  0  0  0  0  0  0  0
    7.3403  -19.0814   26.4125 C   0  0  0  0  0  0  0  0  0  0  0  0
    8.6048  -18.8274   25.8686 C   0  0  0  0  0  0  0  0  0  0  0  0
    8.7296  -18.5396   24.4293 C   0  0  0  0  0  0  0  0  0  0  0  0
    8.1488  -17.2428   23.9778 C   0  0  2  0  0  0  0  0  0  0  0  0
    8.3702  -17.0161   22.5581 N   0  0  0  0  0  0  0  0  0  0  0  0
    8.7400  -16.1249   24.7540 C   0  0  0  0  0  0  0  0  0  0  0  0
    9.9316  -15.7894   24.4292 O   0  0  0  0  0  0  0  0  0  0  0  0
    9.6854  -18.8851   26.7401 C   0  0  0  0  0  0  0  0  0  0  0  0
    9.4822  -19.1811   28.0703 C   0  0  0  0  0  0  0  0  0  0  0  0
    7.1694  -11.9470   25.2272 C   0  0  0  0  0  0  0  0  0  0  0  0
    6.5788  -12.9325   26.2294 C   0  0  2  0  0  0  0  0  0  0  0  0
    5.4775  -12.2281   26.9746 C   0  0  0  0  0  0  0  0  0  0  0  0
    7.6417  -13.4776   27.1424 C   0  0  0  0  0  0  0  0  0  0  0  0
    8.6815  -14.2928   26.4554 C   0  0  2  0  0  0  0  0  0  0  0  0
    8.0829  -15.4482   25.7822 N   0  0  0  0  0  0  0  0  0  0  0  0
    9.6712  -14.7840   27.4427 C   0  0  0  0  0  0  0  0  0  0  0  0
   10.3913  -13.9305   28.0756 O   0  0  0  0  0  0  0  0  0  0  0  0
    9.9056  -16.0928   27.7638 O   0  0  0  0  0  0  0  0  0  0  0  0
  2  1  1  1
  2  3  1  0
  4  2  1  0
  4  5  1  6
  6  7  2  0
  6  4  1  0
  9  8  1  0
 10  9  2  0
 11 10  1  0
 12 18  1  0
 12 11  2  0
 14 13  1  1
 13 12  1  0
 14 15  1  0
 15  6  1  0
 16 14  1  0
 17 16  2  0
 18 19  2  0
 19  9  1  0
 21 20  1  6
 21 22  1  0
 24 23  1  1
 23 21  1  0
 24 25  1  0
 25 16  1  0
 26 28  1  0
 26 24  1  0
 27 26  2  0
M  END
$$$$
