TYL.pdb
     RDKit          3D

 28 28  0  0  1  0  0  0  0  0999 V2000
    8.8684  -13.7599   20.6497 C   0  0  0  0  0  0  0  0  0  0  0  0
    7.6885  -14.2773   19.8254 C   0  0  1  0  0  0  0  0  0  0  0  0
    7.9911  -13.9959   18.4921 O   0  0  0  0  0  0  0  0  0  0  0  0
    7.6165  -15.7620   20.0371 C   0  0  2  0  0  0  0  0  0  0  0  0
    6.5710  -16.2987   19.1924 N   0  0  0  0  0  0  0  0  0  0  0  0
    7.3876  -16.1682   21.4174 C   0  0  0  0  0  0  0  0  0  0  0  0
    6.2288  -16.0599   21.9078 O   0  0  0  0  0  0  0  0  0  0  0  0
    7.7934  -19.8851   29.4505 O   0  0  0  0  0  0  0  0  0  0  0  0
    8.0071  -19.5230   28.1270 C   0  0  0  0  0  0  0  0  0  0  0  0
    9.2554  -19.2856   27.6059 C   0  0  0  0  0  0  0  0  0  0  0  0
    9.4085  -18.9302   26.2886 C   0  0  0  0  0  0  0  0  0  0  0  0
    8.3177  -18.7936   25.4221 C   0  0  0  0  0  0  0  0  0  0  0  0
    8.5490  -18.3889   24.0248 C   0  0  0  0  0  0  0  0  0  0  0  0
    8.0662  -17.0265   23.6592 C   0  0  2  0  0  0  0  0  0  0  0  0
    8.3880  -16.6905   22.2809 N   0  0  0  0  0  0  0  0  0  0  0  0
    8.6650  -16.0162   24.5660 C   0  0  0  0  0  0  0  0  0  0  0  0
    9.8852  -15.7098   24.3313 O   0  0  0  0  0  0  0  0  0  0  0  0
    7.0581  -19.0353   25.9567 C   0  0  0  0  0  0  0  0  0  0  0  0
    6.9291  -19.3908   27.2816 C   0  0  0  0  0  0  0  0  0  0  0  0
    7.5814  -11.6457   25.5887 C   0  0  0  0  0  0  0  0  0  0  0  0
    6.7387  -12.7111   26.2809 C   0  0  2  0  0  0  0  0  0  0  0  0
    5.6333  -12.0127   27.0257 C   0  0  0  0  0  0  0  0  0  0  0  0
    7.5856  -13.5746   27.1740 C   0  0  0  0  0  0  0  0  0  0  0  0
    8.6129  -14.3784   26.4554 C   0  0  2  0  0  0  0  0  0  0  0  0
    7.9861  -15.4076   25.6222 N   0  0  0  0  0  0  0  0  0  0  0  0
    9.5069  -15.0435   27.4320 C   0  0  0  0  0  0  0  0  0  0  0  0
    9.2683  -16.2608   27.7618 O   0  0  0  0  0  0  0  0  0  0  0  0
   10.5965  -14.4808   28.0381 O   0  0  0  0  0  0  0  0  0  0  0  0
  2  1  1  1
  2  3  1  0
  4  2  1  0
  4  5  1  6
  6  7  2  0
  6  4  1  0
  9  8  1  0
 10  9  2  0
 11 10  1  0
 12 18  1  0
 12 11  2  0
 14 13  1  1
 13 12  1  0
 14 15  1  0
 15  6  1  0
 16 14  1  0
 17 16  2  0
 18 19  2  0
 19  9  1  0
 21 20  1  1
 21 22  1  0
 24 23  1  1
 23 21  1  0
 24 25  1  0
 25 16  1  0
 26 28  1  0
 26 24  1  0
 27 26  2  0
M  END
$$$$
