TYL.pdb
     RDKit          3D

 28 28  0  0  1  0  0  0  0  0999 V2000
    6.0662  -20.4751   27.1019 C   0  0  0  0  0  0  0  0  0  0  0  0
    6.6570  -19.2740   26.3616 C   0  0  1  0  0  0  0  0  0  0  0  0
    7.9217  -19.0601   26.9124 O   0  0  0  0  0  0  0  0  0  0  0  0
    6.7810  -19.6608   24.9162 C   0  0  2  0  0  0  0  0  0  0  0  0
    7.5311  -20.8956   24.8313 N   0  0  0  0  0  0  0  0  0  0  0  0
    7.4019  -18.6515   24.0686 C   0  0  0  0  0  0  0  0  0  0  0  0
    8.5960  -18.8137   23.6907 O   0  0  0  0  0  0  0  0  0  0  0  0
    9.1762  -11.9792   18.5311 O   0  0  0  0  0  0  0  0  0  0  0  0
    8.5567  -12.8678   19.3999 C   0  0  0  0  0  0  0  0  0  0  0  0
    8.3233  -14.1844   19.0867 C   0  0  0  0  0  0  0  0  0  0  0  0
    7.7063  -15.0194   19.9850 C   0  0  0  0  0  0  0  0  0  0  0  0
    7.2897  -14.5792   21.2467 C   0  0  0  0  0  0  0  0  0  0  0  0
    6.6144  -15.5212   22.1558 C   0  0  0  0  0  0  0  0  0  0  0  0
    7.5096  -16.4457   22.9086 C   0  0  2  0  0  0  0  0  0  0  0  0
    6.7571  -17.4674   23.6198 N   0  0  0  0  0  0  0  0  0  0  0  0
    8.3343  -15.6784   23.8743 C   0  0  0  0  0  0  0  0  0  0  0  0
    9.2841  -14.9852   23.3692 O   0  0  0  0  0  0  0  0  0  0  0  0
    7.5291  -13.2460   21.5562 C   0  0  0  0  0  0  0  0  0  0  0  0
    8.1500  -12.4269   20.6387 C   0  0  0  0  0  0  0  0  0  0  0  0
    7.7002  -11.9026   25.8050 C   0  0  0  0  0  0  0  0  0  0  0  0
    7.0222  -13.1583   26.3417 C   0  0  2  0  0  0  0  0  0  0  0  0
    5.8836  -12.7258   27.2254 C   0  0  0  0  0  0  0  0  0  0  0  0
    8.0075  -14.0423   27.0547 C   0  0  0  0  0  0  0  0  0  0  0  0
    8.9046  -14.8146   26.1510 C   0  0  2  0  0  0  0  0  0  0  0  0
    8.1307  -15.6772   25.2547 N   0  0  0  0  0  0  0  0  0  0  0  0
    9.8162  -15.6651   26.9517 C   0  0  0  0  0  0  0  0  0  0  0  0
    9.6780  -16.9402   26.9016 O   0  0  0  0  0  0  0  0  0  0  0  0
   10.8240  -15.2219   27.7635 O   0  0  0  0  0  0  0  0  0  0  0  0
  2  1  1  1
  2  3  1  0
  4  2  1  0
  4  5  1  1
  6  7  2  0
  6  4  1  0
  9  8  1  0
 10  9  2  0
 11 10  1  0
 12 18  1  0
 12 11  2  0
 14 13  1  1
 13 12  1  0
 14 15  1  0
 15  6  1  0
 16 14  1  0
 17 16  2  0
 18 19  2  0
 19  9  1  0
 21 20  1  1
 21 22  1  0
 24 23  1  1
 23 21  1  0
 24 25  1  0
 25 16  1  0
 26 28  1  0
 26 24  1  0
 27 26  2  0
M  END
$$$$
