TYL.pdb
     RDKit          3D

 28 28  0  0  1  0  0  0  0  0999 V2000
    9.4431  -13.3058   19.5705 C   0  0  0  0  0  0  0  0  0  0  0  0
    8.2686  -13.7764   18.7111 C   0  0  1  0  0  0  0  0  0  0  0  0
    8.5932  -13.4480   17.3937 O   0  0  0  0  0  0  0  0  0  0  0  0
    8.1757  -15.2670   18.8646 C   0  0  2  0  0  0  0  0  0  0  0  0
    7.1553  -15.7612   17.9650 N   0  0  0  0  0  0  0  0  0  0  0  0
    7.8951  -15.7216   20.2201 C   0  0  0  0  0  0  0  0  0  0  0  0
    6.7559  -15.5039   20.7199 O   0  0  0  0  0  0  0  0  0  0  0  0
    8.0699  -19.8828   28.0768 O   0  0  0  0  0  0  0  0  0  0  0  0
    8.3161  -19.4366   26.7851 C   0  0  0  0  0  0  0  0  0  0  0  0
    7.4036  -19.5496   25.7650 C   0  0  0  0  0  0  0  0  0  0  0  0
    7.7003  -19.0906   24.5056 C   0  0  0  0  0  0  0  0  0  0  0  0
    8.9289  -18.4931   24.2007 C   0  0  0  0  0  0  0  0  0  0  0  0
    9.1923  -18.0406   22.8238 C   0  0  0  0  0  0  0  0  0  0  0  0
    8.4407  -16.8291   22.3877 C   0  0  2  0  0  0  0  0  0  0  0  0
    8.8230  -16.4084   21.0487 N   0  0  0  0  0  0  0  0  0  0  0  0
    8.6759  -15.7163   23.3405 C   0  0  0  0  0  0  0  0  0  0  0  0
    9.7881  -15.0966   23.2105 O   0  0  0  0  0  0  0  0  0  0  0  0
    9.8469  -18.3824   25.2378 C   0  0  0  0  0  0  0  0  0  0  0  0
    9.5267  -18.8502   26.4935 C   0  0  0  0  0  0  0  0  0  0  0  0
    7.2168  -12.4316   27.5441 C   0  0  0  0  0  0  0  0  0  0  0  0
    6.8819  -12.0850   26.0976 C   0  0  2  0  0  0  0  0  0  0  0  0
    5.6323  -11.2467   26.1017 C   0  0  0  0  0  0  0  0  0  0  0  0
    6.7455  -13.3271   25.2615 C   0  0  0  0  0  0  0  0  0  0  0  0
    7.9931  -14.1330   25.1520 C   0  0  2  0  0  0  0  0  0  0  0  0
    7.7758  -15.3286   24.3337 N   0  0  0  0  0  0  0  0  0  0  0  0
    8.4380  -14.5593   26.4995 C   0  0  0  0  0  0  0  0  0  0  0  0
    7.7336  -15.4190   27.1416 O   0  0  0  0  0  0  0  0  0  0  0  0
    9.5573  -14.1218   27.1529 O   0  0  0  0  0  0  0  0  0  0  0  0
  2  1  1  1
  2  3  1  0
  4  2  1  0
  4  5  1  6
  6  7  2  0
  6  4  1  0
  9  8  1  0
 10  9  2  0
 11 10  1  0
 12 18  1  0
 12 11  2  0
 14 13  1  1
 13 12  1  0
 14 15  1  0
 15  6  1  0
 16 14  1  0
 17 16  2  0
 18 19  2  0
 19  9  1  0
 21 20  1  1
 21 22  1  0
 24 23  1  1
 23 21  1  0
 24 25  1  0
 25 16  1  0
 26 28  1  0
 26 24  1  0
 27 26  2  0
M  END
$$$$
