TYL.pdb
     RDKit          3D

 28 28  0  0  1  0  0  0  0  0999 V2000
    8.6974  -12.6077   20.6461 C   0  0  0  0  0  0  0  0  0  0  0  0
    7.9080  -13.4567   19.6484 C   0  0  1  0  0  0  0  0  0  0  0  0
    8.0435  -12.8288   18.4090 O   0  0  0  0  0  0  0  0  0  0  0  0
    8.5506  -14.8132   19.6140 C   0  0  2  0  0  0  0  0  0  0  0  0
    7.8656  -15.6239   18.6300 N   0  0  0  0  0  0  0  0  0  0  0  0
    8.5696  -15.5088   20.8939 C   0  0  0  0  0  0  0  0  0  0  0  0
    7.5577  -16.1765   21.2478 O   0  0  0  0  0  0  0  0  0  0  0  0
   10.1051  -21.7510   19.5389 O   0  0  0  0  0  0  0  0  0  0  0  0
   10.2662  -20.6539   20.3749 C   0  0  0  0  0  0  0  0  0  0  0  0
   11.1017  -19.6038   20.0827 C   0  0  0  0  0  0  0  0  0  0  0  0
   11.2225  -18.5435   20.9464 C   0  0  0  0  0  0  0  0  0  0  0  0
   10.5117  -18.4787   22.1505 C   0  0  0  0  0  0  0  0  0  0  0  0
   10.7026  -17.3224   23.0430 C   0  0  0  0  0  0  0  0  0  0  0  0
    9.6184  -16.2995   23.0148 C   0  0  2  0  0  0  0  0  0  0  0  0
    9.6627  -15.4977   21.8018 N   0  0  0  0  0  0  0  0  0  0  0  0
    9.7288  -15.4108   24.1979 C   0  0  0  0  0  0  0  0  0  0  0  0
   10.7609  -14.6550   24.2332 O   0  0  0  0  0  0  0  0  0  0  0  0
    9.6686  -19.5448   22.4392 C   0  0  0  0  0  0  0  0  0  0  0  0
    9.5637  -20.5980   21.5571 C   0  0  0  0  0  0  0  0  0  0  0  0
    7.8572  -11.8332   26.0352 C   0  0  0  0  0  0  0  0  0  0  0  0
    7.0383  -13.1086   26.2006 C   0  0  2  0  0  0  0  0  0  0  0  0
    5.6988  -12.7259   26.7696 C   0  0  0  0  0  0  0  0  0  0  0  0
    7.7658  -14.1119   27.0518 C   0  0  0  0  0  0  0  0  0  0  0  0
    9.0421  -14.6047   26.4636 C   0  0  2  0  0  0  0  0  0  0  0  0
    8.7957  -15.3624   25.2341 N   0  0  0  0  0  0  0  0  0  0  0  0
    9.7350  -15.4884   27.4303 C   0  0  0  0  0  0  0  0  0  0  0  0
    9.6898  -16.7587   27.2515 O   0  0  0  0  0  0  0  0  0  0  0  0
   10.4428  -15.0816   28.5278 O   0  0  0  0  0  0  0  0  0  0  0  0
  2  1  1  1
  2  3  1  0
  4  2  1  0
  4  5  1  6
  6  7  2  0
  6  4  1  0
  9  8  1  0
 10  9  2  0
 11 10  1  0
 12 18  1  0
 12 11  2  0
 14 13  1  6
 13 12  1  0
 14 15  1  0
 15  6  1  0
 16 14  1  0
 17 16  2  0
 18 19  2  0
 19  9  1  0
 21 20  1  1
 21 22  1  0
 24 23  1  1
 23 21  1  0
 24 25  1  0
 25 16  1  0
 26 28  1  0
 26 24  1  0
 27 26  2  0
M  END
$$$$
