FMD.pdb
     RDKit          3D

 28 28  0  0  1  0  0  0  0  0999 V2000
   17.2618  -18.0908    1.9899 N   0  0  0  0  0  0  0  0  0  0  0  0
   17.5455  -18.7409    3.2767 C   0  0  1  0  0  0  0  0  0  0  0  0
   17.9658  -20.1634    2.9116 C   0  0  0  0  0  0  0  0  0  0  0  0
   16.7555  -20.8496    2.3876 C   0  0  0  0  0  0  0  0  0  0  0  0
   16.5111  -20.9943    1.0299 C   0  0  0  0  0  0  0  0  0  0  0  0
   15.3828  -21.6364    0.5669 C   0  0  0  0  0  0  0  0  0  0  0  0
   14.4718  -22.1491    1.4577 C   0  0  0  0  0  0  0  0  0  0  0  0
   14.6939  -22.0171    2.7961 C   0  0  0  0  0  0  0  0  0  0  0  0
   15.8270  -21.3722    3.2576 C   0  0  0  0  0  0  0  0  0  0  0  0
   18.6215  -18.0306    3.9911 C   0  0  0  0  0  0  0  0  0  0  0  0
   19.6808  -17.7582    3.3863 O   0  0  0  0  0  0  0  0  0  0  0  0
   18.1726  -11.8811    3.9798 C   0  0  0  0  0  0  0  0  0  0  0  0
   18.1708  -13.0155    5.3678 S   0  0  0  0  0  0  0  0  0  0  0  0
   18.9597  -14.6224    4.9117 C   0  0  0  0  0  0  0  0  0  0  0  0
   18.8138  -15.4858    6.1281 C   0  0  0  0  0  0  0  0  0  0  0  0
   19.4468  -16.8332    6.0730 C   0  0  2  0  0  0  0  0  0  0  0  0
   18.4578  -17.6656    5.3318 N   0  0  0  0  0  0  0  0  0  0  0  0
   19.5146  -17.4412    7.4143 C   0  0  0  0  0  0  0  0  0  0  0  0
   18.4511  -17.9231    7.9648 O   0  0  0  0  0  0  0  0  0  0  0  0
   20.6832  -17.5707    8.2129 N   0  0  0  0  0  0  0  0  0  0  0  0
   20.6265  -18.2660    9.5147 C   0  0  1  0  0  0  0  0  0  0  0  0
   21.8564  -19.1193    9.6730 C   0  0  0  0  0  0  0  0  0  0  0  0
   21.6021  -20.3467   10.4129 C   0  0  0  0  0  0  0  0  0  0  0  0
   20.4869  -20.6494   10.8601 O   0  0  0  0  0  0  0  0  0  0  0  0
   20.5036  -17.1880   10.5163 C   0  0  0  0  0  0  0  0  0  0  0  0
   20.7283  -16.0040   10.1917 O   0  0  0  0  0  0  0  0  0  0  0  0
   22.6596  -21.2376   10.6377 O   0  0  0  0  0  0  0  0  0  0  0  0
   20.1435  -17.3920   11.8421 O   0  0  0  0  0  0  0  0  0  0  0  0
  2  3  1  0
  2  1  1  6
  4  5  2  0
  4  3  1  0
  6  5  1  0
  7  6  2  0
  8  7  1  0
  8  9  2  0
  9  4  1  0
 10  2  1  0
 11 10  2  0
 13 12  1  0
 14 13  1  0
 15 14  1  0
 16 15  1  1
 16 17  1  0
 17 10  1  0
 18 16  1  0
 18 20  1  0
 19 18  2  0
 21 22  1  1
 21 20  1  0
 21 25  1  0
 23 24  2  0
 23 22  1  0
 25 28  1  0
 26 25  2  0
 27 23  1  0
M  END
$$$$
