FMD.pdb
     RDKit          3D

 28 28  0  0  1  0  0  0  0  0999 V2000
   27.9153  -19.4181   -8.7037 N   0  0  0  0  0  0  0  0  0  0  0  0
   26.8829  -20.4430   -8.9097 C   0  0  1  0  0  0  0  0  0  0  0  0
   26.1026  -20.4811   -7.5970 C   0  0  0  0  0  0  0  0  0  0  0  0
   27.0922  -20.3028   -6.5019 C   0  0  0  0  0  0  0  0  0  0  0  0
   28.2612  -19.5745   -6.6665 C   0  0  0  0  0  0  0  0  0  0  0  0
   29.1635  -19.4205   -5.6360 C   0  0  0  0  0  0  0  0  0  0  0  0
   28.9128  -19.9951   -4.4140 C   0  0  0  0  0  0  0  0  0  0  0  0
   27.7695  -20.7147   -4.2322 C   0  0  0  0  0  0  0  0  0  0  0  0
   26.8660  -20.8675   -5.2682 C   0  0  0  0  0  0  0  0  0  0  0  0
   26.0106  -20.0812  -10.0415 C   0  0  0  0  0  0  0  0  0  0  0  0
   25.4704  -18.9544  -10.0612 O   0  0  0  0  0  0  0  0  0  0  0  0
   27.8154  -20.1192  -15.6714 C   0  0  0  0  0  0  0  0  0  0  0  0
   28.7242  -21.3072  -14.6834 S   0  0  0  0  0  0  0  0  0  0  0  0
   27.9693  -21.4911  -13.0074 C   0  0  0  0  0  0  0  0  0  0  0  0
   26.4918  -21.5516  -13.2514 C   0  0  0  0  0  0  0  0  0  0  0  0
   25.6493  -20.5748  -12.5063 C   0  0  2  0  0  0  0  0  0  0  0  0
   25.7907  -20.9901  -11.0822 N   0  0  0  0  0  0  0  0  0  0  0  0
   24.2198  -20.7685  -12.8107 C   0  0  0  0  0  0  0  0  0  0  0  0
   23.7172  -20.2964  -13.9020 O   0  0  0  0  0  0  0  0  0  0  0  0
   23.2805  -21.4595  -11.9982 N   0  0  0  0  0  0  0  0  0  0  0  0
   21.8537  -21.5046  -12.3772 C   0  0  1  0  0  0  0  0  0  0  0  0
   21.3821  -22.9339  -12.3565 C   0  0  0  0  0  0  0  0  0  0  0  0
   21.2414  -23.5025  -13.6890 C   0  0  0  0  0  0  0  0  0  0  0  0
   20.8695  -24.6667  -13.8929 O   0  0  0  0  0  0  0  0  0  0  0  0
   21.1739  -20.6277  -11.4029 C   0  0  0  0  0  0  0  0  0  0  0  0
   21.6934  -20.4087  -10.2894 O   0  0  0  0  0  0  0  0  0  0  0  0
   21.5373  -22.7068  -14.8034 O   0  0  0  0  0  0  0  0  0  0  0  0
   19.9559  -20.0014  -11.6339 O   0  0  0  0  0  0  0  0  0  0  0  0
  2  3  1  0
  2  1  1  1
  4  5  2  0
  4  3  1  0
  6  5  1  0
  7  6  2  0
  8  7  1  0
  8  9  2  0
  9  4  1  0
 10  2  1  0
 11 10  2  0
 13 12  1  0
 14 13  1  0
 15 14  1  0
 16 15  1  6
 16 17  1  0
 17 10  1  0
 18 16  1  0
 18 20  1  0
 19 18  2  0
 21 22  1  1
 21 20  1  0
 21 25  1  0
 23 24  2  0
 23 22  1  0
 25 28  1  0
 26 25  2  0
 27 23  1  0
M  END
$$$$
