FMD.pdb
     RDKit          3D

 28 28  0  0  1  0  0  0  0  0999 V2000
   20.7505   -9.8625  -21.0699 N   0  0  0  0  0  0  0  0  0  0  0  0
   20.4598   -8.4689  -20.7064 C   0  0  1  0  0  0  0  0  0  0  0  0
   19.0016   -8.4798  -20.2511 C   0  0  0  0  0  0  0  0  0  0  0  0
   18.1659   -8.4363  -21.4800 C   0  0  0  0  0  0  0  0  0  0  0  0
   18.0360   -7.2910  -22.2516 C   0  0  0  0  0  0  0  0  0  0  0  0
   17.2573   -7.2746  -23.3887 C   0  0  0  0  0  0  0  0  0  0  0  0
   16.5894   -8.4097  -23.7784 C   0  0  0  0  0  0  0  0  0  0  0  0
   16.7042   -9.5454  -23.0334 C   0  0  0  0  0  0  0  0  0  0  0  0
   17.4864   -9.5587  -21.8929 C   0  0  0  0  0  0  0  0  0  0  0  0
   21.3552   -8.0164  -19.6265 C   0  0  0  0  0  0  0  0  0  0  0  0
   21.7792   -8.8478  -18.7952 O   0  0  0  0  0  0  0  0  0  0  0  0
   25.8758   -3.0095  -20.2309 C   0  0  0  0  0  0  0  0  0  0  0  0
   24.4983   -2.5775  -19.1681 S   0  0  0  0  0  0  0  0  0  0  0  0
   23.9822   -4.0180  -18.1332 C   0  0  0  0  0  0  0  0  0  0  0  0
   23.1611   -4.8777  -19.0460 C   0  0  0  0  0  0  0  0  0  0  0  0
   22.6376   -6.1506  -18.4762 C   0  0  2  0  0  0  0  0  0  0  0  0
   21.7261   -6.6706  -19.5341 N   0  0  0  0  0  0  0  0  0  0  0  0
   21.7587   -5.8915  -17.3213 C   0  0  0  0  0  0  0  0  0  0  0  0
   20.6378   -5.2718  -17.4829 O   0  0  0  0  0  0  0  0  0  0  0  0
   22.0150   -6.2726  -15.9763 N   0  0  0  0  0  0  0  0  0  0  0  0
   21.0200   -6.0011  -14.9191 C   0  0  1  0  0  0  0  0  0  0  0  0
   20.5136   -7.3080  -14.3701 C   0  0  0  0  0  0  0  0  0  0  0  0
   19.6850   -7.1407  -13.1852 C   0  0  0  0  0  0  0  0  0  0  0  0
   18.7869   -6.2913  -13.1010 O   0  0  0  0  0  0  0  0  0  0  0  0
   21.7323   -5.1645  -13.9327 C   0  0  0  0  0  0  0  0  0  0  0  0
   22.9782   -5.0940  -13.9557 O   0  0  0  0  0  0  0  0  0  0  0  0
   19.9023   -7.9732  -12.0795 O   0  0  0  0  0  0  0  0  0  0  0  0
   21.1041   -4.4196  -12.9429 O   0  0  0  0  0  0  0  0  0  0  0  0
  2  3  1  0
  2  1  1  1
  4  5  2  0
  4  3  1  0
  6  5  1  0
  7  6  2  0
  8  7  1  0
  8  9  2  0
  9  4  1  0
 10  2  1  0
 11 10  2  0
 13 12  1  0
 14 13  1  0
 15 14  1  0
 16 15  1  6
 16 17  1  0
 17 10  1  0
 18 16  1  0
 18 20  1  0
 19 18  2  0
 21 22  1  1
 21 20  1  0
 21 25  1  0
 23 24  2  0
 23 22  1  0
 25 28  1  0
 26 25  2  0
 27 23  1  0
M  END
$$$$
