FMD.pdb
     RDKit          3D

 28 28  0  0  1  0  0  0  0  0999 V2000
   27.9909  -21.0155  -15.3519 N   0  0  0  0  0  0  0  0  0  0  0  0
   27.3365  -20.1472  -14.3636 C   0  0  1  0  0  0  0  0  0  0  0  0
   26.4398  -19.2245  -15.1870 C   0  0  0  0  0  0  0  0  0  0  0  0
   27.3281  -18.2193  -15.8280 C   0  0  0  0  0  0  0  0  0  0  0  0
   27.8530  -18.3936  -17.1001 C   0  0  0  0  0  0  0  0  0  0  0  0
   28.6730  -17.4469  -17.6755 C   0  0  0  0  0  0  0  0  0  0  0  0
   28.9858  -16.3010  -16.9859 C   0  0  0  0  0  0  0  0  0  0  0  0
   28.4800  -16.1112  -15.7345 C   0  0  0  0  0  0  0  0  0  0  0  0
   27.6574  -17.0630  -15.1598 C   0  0  0  0  0  0  0  0  0  0  0  0
   26.5491  -20.9484  -13.4093 C   0  0  0  0  0  0  0  0  0  0  0  0
   26.2322  -22.1195  -13.7096 O   0  0  0  0  0  0  0  0  0  0  0  0
   26.7382  -18.8438   -7.3315 C   0  0  0  0  0  0  0  0  0  0  0  0
   26.4007  -20.6015   -7.2316 S   0  0  0  0  0  0  0  0  0  0  0  0
   25.2880  -21.1420   -8.6036 C   0  0  0  0  0  0  0  0  0  0  0  0
   25.9435  -20.6418   -9.8552 C   0  0  0  0  0  0  0  0  0  0  0  0
   25.4247  -21.1797  -11.1440 C   0  0  2  0  0  0  0  0  0  0  0  0
   26.1612  -20.4029  -12.1807 N   0  0  0  0  0  0  0  0  0  0  0  0
   24.0101  -20.8135  -11.3391 C   0  0  0  0  0  0  0  0  0  0  0  0
   23.1165  -21.1928  -10.4882 O   0  0  0  0  0  0  0  0  0  0  0  0
   23.4889  -20.0421  -12.4131 N   0  0  0  0  0  0  0  0  0  0  0  0
   22.1944  -20.3965  -13.0296 C   0  0  1  0  0  0  0  0  0  0  0  0
   22.2437  -21.8275  -13.4938 C   0  0  0  0  0  0  0  0  0  0  0  0
   20.9485  -22.3241  -13.9348 C   0  0  0  0  0  0  0  0  0  0  0  0
   19.9210  -21.6317  -13.9328 O   0  0  0  0  0  0  0  0  0  0  0  0
   21.1893  -20.1337  -11.9803 C   0  0  0  0  0  0  0  0  0  0  0  0
   20.3267  -19.2475  -12.1482 O   0  0  0  0  0  0  0  0  0  0  0  0
   20.8440  -23.6464  -14.3858 O   0  0  0  0  0  0  0  0  0  0  0  0
   21.1223  -20.8199  -10.7745 O   0  0  0  0  0  0  0  0  0  0  0  0
  2  3  1  0
  2  1  1  6
  4  5  2  0
  4  3  1  0
  6  5  1  0
  7  6  2  0
  8  7  1  0
  8  9  2  0
  9  4  1  0
 10  2  1  0
 11 10  2  0
 13 12  1  0
 14 13  1  0
 15 14  1  0
 16 15  1  1
 16 17  1  0
 17 10  1  0
 18 16  1  0
 18 20  1  0
 19 18  2  0
 21 22  1  1
 21 20  1  0
 21 25  1  0
 23 24  2  0
 23 22  1  0
 25 28  1  0
 26 25  2  0
 27 23  1  0
M  END
$$$$
