FMD.pdb
     RDKit          3D

 28 28  0  0  1  0  0  0  0  0999 V2000
   22.6918   -5.2691  -18.7132 N   0  0  0  0  0  0  0  0  0  0  0  0
   23.1137   -5.9731  -17.4945 C   0  0  1  0  0  0  0  0  0  0  0  0
   22.2174   -5.4150  -16.3906 C   0  0  0  0  0  0  0  0  0  0  0  0
   22.5772   -3.9818  -16.2264 C   0  0  0  0  0  0  0  0  0  0  0  0
   23.8573   -3.5701  -15.8858 C   0  0  0  0  0  0  0  0  0  0  0  0
   24.1686   -2.2352  -15.7412 C   0  0  0  0  0  0  0  0  0  0  0  0
   23.2003   -1.2807  -15.9353 C   0  0  0  0  0  0  0  0  0  0  0  0
   21.9362   -1.6651  -16.2705 C   0  0  0  0  0  0  0  0  0  0  0  0
   21.6269   -3.0053  -16.4149 C   0  0  0  0  0  0  0  0  0  0  0  0
   22.9338   -7.4281  -17.6468 C   0  0  0  0  0  0  0  0  0  0  0  0
   22.1872   -7.8605  -18.5510 O   0  0  0  0  0  0  0  0  0  0  0  0
   27.6377  -11.1370  -15.7640 C   0  0  0  0  0  0  0  0  0  0  0  0
   26.2940  -12.1007  -15.0720 S   0  0  0  0  0  0  0  0  0  0  0  0
   24.7235  -11.8110  -16.0006 C   0  0  0  0  0  0  0  0  0  0  0  0
   24.6030  -10.3207  -16.1044 C   0  0  0  0  0  0  0  0  0  0  0  0
   23.4456   -9.7948  -16.8811 C   0  0  2  0  0  0  0  0  0  0  0  0
   23.5923   -8.3148  -16.7880 N   0  0  0  0  0  0  0  0  0  0  0  0
   22.1727  -10.0868  -16.1971 C   0  0  0  0  0  0  0  0  0  0  0  0
   21.7256  -11.2966  -16.1432 O   0  0  0  0  0  0  0  0  0  0  0  0
   21.3379   -9.1370  -15.5482 N   0  0  0  0  0  0  0  0  0  0  0  0
   20.0657   -9.5593  -14.9280 C   0  0  1  0  0  0  0  0  0  0  0  0
   19.9647   -8.9600  -13.5509 C   0  0  0  0  0  0  0  0  0  0  0  0
   18.8260   -9.4634  -12.7969 C   0  0  0  0  0  0  0  0  0  0  0  0
   18.0446  -10.3171  -13.2393 O   0  0  0  0  0  0  0  0  0  0  0  0
   19.0177   -9.1067  -15.8645 C   0  0  0  0  0  0  0  0  0  0  0  0
   18.9726   -7.9121  -16.2230 O   0  0  0  0  0  0  0  0  0  0  0  0
   18.5901   -8.9677  -11.5080 O   0  0  0  0  0  0  0  0  0  0  0  0
   18.0399   -9.9347  -16.4007 O   0  0  0  0  0  0  0  0  0  0  0  0
  2  3  1  0
  2  1  1  6
  4  5  2  0
  4  3  1  0
  6  5  1  0
  7  6  2  0
  8  7  1  0
  8  9  2  0
  9  4  1  0
 10  2  1  0
 11 10  2  0
 13 12  1  0
 14 13  1  0
 15 14  1  0
 16 15  1  1
 16 17  1  0
 17 10  1  0
 18 16  1  0
 18 20  1  0
 19 18  2  0
 21 22  1  1
 21 20  1  0
 21 25  1  0
 23 24  2  0
 23 22  1  0
 25 28  1  0
 26 25  2  0
 27 23  1  0
M  END
$$$$
