FMD.pdb
     RDKit          3D

 28 28  0  0  1  0  0  0  0  0999 V2000
   15.1631  -14.8786    4.6485 N   0  0  0  0  0  0  0  0  0  0  0  0
   16.1846  -15.8797    4.3120 C   0  0  1  0  0  0  0  0  0  0  0  0
   17.3994  -15.4971    5.1553 C   0  0  0  0  0  0  0  0  0  0  0  0
   18.0951  -14.3979    4.4355 C   0  0  0  0  0  0  0  0  0  0  0  0
   18.2540  -13.1333    4.9829 C   0  0  0  0  0  0  0  0  0  0  0  0
   18.9047  -12.1298    4.2979 C   0  0  0  0  0  0  0  0  0  0  0  0
   19.4121  -12.3729    3.0449 C   0  0  0  0  0  0  0  0  0  0  0  0
   19.2662  -13.6092    2.4897 C   0  0  0  0  0  0  0  0  0  0  0  0
   18.6127  -14.6141    3.1796 C   0  0  0  0  0  0  0  0  0  0  0  0
   15.7100  -17.2361    4.6399 C   0  0  0  0  0  0  0  0  0  0  0  0
   14.5729  -17.3824    5.1376 O   0  0  0  0  0  0  0  0  0  0  0  0
   15.8334  -23.4161    1.7511 C   0  0  0  0  0  0  0  0  0  0  0  0
   15.1592  -21.8117    1.3212 S   0  0  0  0  0  0  0  0  0  0  0  0
   14.7747  -20.8267    2.8359 C   0  0  0  0  0  0  0  0  0  0  0  0
   16.1093  -20.4269    3.3885 C   0  0  0  0  0  0  0  0  0  0  0  0
   16.1088  -19.7431    4.7119 C   0  0  2  0  0  0  0  0  0  0  0  0
   16.5243  -18.3473    4.3961 N   0  0  0  0  0  0  0  0  0  0  0  0
   17.1824  -20.2645    5.5774 C   0  0  0  0  0  0  0  0  0  0  0  0
   18.3950  -19.8458    5.4339 O   0  0  0  0  0  0  0  0  0  0  0  0
   17.0255  -21.2243    6.6139 N   0  0  0  0  0  0  0  0  0  0  0  0
   18.1872  -21.6522    7.4194 C   0  0  1  0  0  0  0  0  0  0  0  0
   17.8831  -21.4373    8.8779 C   0  0  0  0  0  0  0  0  0  0  0  0
   18.2734  -20.1164    9.3485 C   0  0  0  0  0  0  0  0  0  0  0  0
   19.3001  -19.5372    8.9668 O   0  0  0  0  0  0  0  0  0  0  0  0
   18.4079  -23.0642    7.0478 C   0  0  0  0  0  0  0  0  0  0  0  0
   17.4985  -23.7145    6.4931 O   0  0  0  0  0  0  0  0  0  0  0  0
   17.4586  -19.4566   10.2777 O   0  0  0  0  0  0  0  0  0  0  0  0
   19.5918  -23.7545    7.2733 O   0  0  0  0  0  0  0  0  0  0  0  0
  2  3  1  0
  2  1  1  1
  4  5  2  0
  4  3  1  0
  6  5  1  0
  7  6  2  0
  8  7  1  0
  8  9  2  0
  9  4  1  0
 10  2  1  0
 11 10  2  0
 13 12  1  0
 14 13  1  0
 15 14  1  0
 16 15  1  6
 16 17  1  0
 17 10  1  0
 18 16  1  0
 18 20  1  0
 19 18  2  0
 21 22  1  1
 21 20  1  0
 21 25  1  0
 23 24  2  0
 23 22  1  0
 25 28  1  0
 26 25  2  0
 27 23  1  0
M  END
$$$$
