FMD.pdb
     RDKit          3D

 28 28  0  0  1  0  0  0  0  0999 V2000
   22.4024  -10.2263  -13.8239 N   0  0  0  0  0  0  0  0  0  0  0  0
   22.2461   -9.6050  -15.1462 C   0  0  1  0  0  0  0  0  0  0  0  0
   23.1082  -10.4521  -16.0804 C   0  0  0  0  0  0  0  0  0  0  0  0
   24.5258  -10.1255  -15.7734 C   0  0  0  0  0  0  0  0  0  0  0  0
   25.2794  -10.8590  -14.8689 C   0  0  0  0  0  0  0  0  0  0  0  0
   26.5932  -10.5392  -14.6016 C   0  0  0  0  0  0  0  0  0  0  0  0
   27.1821   -9.4735  -15.2372 C   0  0  0  0  0  0  0  0  0  0  0  0
   26.4582   -8.7403  -16.1295 C   0  0  0  0  0  0  0  0  0  0  0  0
   25.1401   -9.0637  -16.3957 C   0  0  0  0  0  0  0  0  0  0  0  0
   20.8322   -9.6183  -15.5623 C   0  0  0  0  0  0  0  0  0  0  0  0
   20.1839  -10.6845  -15.4910 O   0  0  0  0  0  0  0  0  0  0  0  0
   13.9069   -8.1397  -14.5849 C   0  0  0  0  0  0  0  0  0  0  0  0
   15.6599   -8.3832  -14.3004 S   0  0  0  0  0  0  0  0  0  0  0  0
   16.5059   -8.9666  -15.8355 C   0  0  0  0  0  0  0  0  0  0  0  0
   17.9704   -8.8796  -15.5289 C   0  0  0  0  0  0  0  0  0  0  0  0
   18.8609   -8.4300  -16.6353 C   0  0  2  0  0  0  0  0  0  0  0  0
   20.2231   -8.4495  -16.0315 N   0  0  0  0  0  0  0  0  0  0  0  0
   18.6201   -7.0137  -16.9661 C   0  0  0  0  0  0  0  0  0  0  0  0
   17.6353   -6.6829  -17.7323 O   0  0  0  0  0  0  0  0  0  0  0  0
   19.3868   -5.9084  -16.5074 N   0  0  0  0  0  0  0  0  0  0  0  0
   19.0217   -4.5313  -16.8970 C   0  0  1  0  0  0  0  0  0  0  0  0
   18.5943   -3.7683  -15.6719 C   0  0  0  0  0  0  0  0  0  0  0  0
   18.2830   -2.3745  -15.9535 C   0  0  0  0  0  0  0  0  0  0  0  0
   18.2303   -1.9107  -17.1012 O   0  0  0  0  0  0  0  0  0  0  0  0
   20.2266   -3.9912  -17.5580 C   0  0  0  0  0  0  0  0  0  0  0  0
   20.9784   -3.2068  -16.9440 O   0  0  0  0  0  0  0  0  0  0  0  0
   18.0285   -1.5047  -14.8852 O   0  0  0  0  0  0  0  0  0  0  0  0
   20.6069   -4.2977  -18.8582 O   0  0  0  0  0  0  0  0  0  0  0  0
  2  3  1  0
  2  1  1  1
  4  5  2  0
  4  3  1  0
  6  5  1  0
  7  6  2  0
  8  7  1  0
  8  9  2  0
  9  4  1  0
 10  2  1  0
 11 10  2  0
 13 12  1  0
 14 13  1  0
 15 14  1  0
 16 15  1  1
 16 17  1  0
 17 10  1  0
 18 16  1  0
 18 20  1  0
 19 18  2  0
 21 22  1  1
 21 20  1  0
 21 25  1  0
 23 24  2  0
 23 22  1  0
 25 28  1  0
 26 25  2  0
 27 23  1  0
M  END
$$$$
