FMD.pdb
     RDKit          3D

 28 28  0  0  1  0  0  0  0  0999 V2000
   28.7083  -20.1524  -15.6212 N   0  0  0  0  0  0  0  0  0  0  0  0
   27.7522  -19.4694  -14.7390 C   0  0  1  0  0  0  0  0  0  0  0  0
   26.7846  -18.7609  -15.6852 C   0  0  0  0  0  0  0  0  0  0  0  0
   27.4424  -17.4958  -16.1066 C   0  0  0  0  0  0  0  0  0  0  0  0
   27.3949  -16.3410  -15.3396 C   0  0  0  0  0  0  0  0  0  0  0  0
   28.0142  -15.1798  -15.7493 C   0  0  0  0  0  0  0  0  0  0  0  0
   28.6969  -15.1508  -16.9407 C   0  0  0  0  0  0  0  0  0  0  0  0
   28.7551  -16.2754  -17.7088 C   0  0  0  0  0  0  0  0  0  0  0  0
   28.1326  -17.4390  -17.2950 C   0  0  0  0  0  0  0  0  0  0  0  0
   27.0493  -20.4420  -13.8831 C   0  0  0  0  0  0  0  0  0  0  0  0
   26.8512  -21.6002  -14.3089 O   0  0  0  0  0  0  0  0  0  0  0  0
   27.7222  -20.5459   -7.6666 C   0  0  0  0  0  0  0  0  0  0  0  0
   25.9396  -20.3602   -7.7009 S   0  0  0  0  0  0  0  0  0  0  0  0
   25.2303  -21.0557   -9.2584 C   0  0  0  0  0  0  0  0  0  0  0  0
   26.0564  -20.4634  -10.3598 C   0  0  0  0  0  0  0  0  0  0  0  0
   25.7972  -20.9680  -11.7372 C   0  0  2  0  0  0  0  0  0  0  0  0
   26.6091  -20.0717  -12.6078 N   0  0  0  0  0  0  0  0  0  0  0  0
   24.4018  -20.7146  -12.1398 C   0  0  0  0  0  0  0  0  0  0  0  0
   24.0158  -19.5177  -12.4310 O   0  0  0  0  0  0  0  0  0  0  0  0
   23.3770  -21.6924  -12.2568 N   0  0  0  0  0  0  0  0  0  0  0  0
   22.0435  -21.3208  -12.7714 C   0  0  1  0  0  0  0  0  0  0  0  0
   21.4389  -22.5048  -13.4773 C   0  0  0  0  0  0  0  0  0  0  0  0
   20.0700  -22.2665  -13.9110 C   0  0  0  0  0  0  0  0  0  0  0  0
   19.4676  -21.2046  -13.6997 O   0  0  0  0  0  0  0  0  0  0  0  0
   21.2891  -20.8731  -11.5836 C   0  0  0  0  0  0  0  0  0  0  0  0
   20.4703  -19.9359  -11.6792 O   0  0  0  0  0  0  0  0  0  0  0  0
   19.3890  -23.2775  -14.6015 O   0  0  0  0  0  0  0  0  0  0  0  0
   21.4210  -21.4322  -10.3190 O   0  0  0  0  0  0  0  0  0  0  0  0
  2  3  1  0
  2  1  1  6
  4  5  2  0
  4  3  1  0
  6  5  1  0
  7  6  2  0
  8  7  1  0
  8  9  2  0
  9  4  1  0
 10  2  1  0
 11 10  2  0
 13 12  1  0
 14 13  1  0
 15 14  1  0
 16 15  1  1
 16 17  1  0
 17 10  1  0
 18 16  1  0
 18 20  1  0
 19 18  2  0
 21 22  1  1
 21 20  1  0
 21 25  1  0
 23 24  2  0
 23 22  1  0
 25 28  1  0
 26 25  2  0
 27 23  1  0
M  END
$$$$
