FMD.pdb
     RDKit          3D

 28 28  0  0  1  0  0  0  0  0999 V2000
   28.1360  -20.6330  -16.0208 N   0  0  0  0  0  0  0  0  0  0  0  0
   27.4355  -19.7934  -15.0393 C   0  0  1  0  0  0  0  0  0  0  0  0
   26.4600  -18.9573  -15.8657 C   0  0  0  0  0  0  0  0  0  0  0  0
   27.1992  -17.7464  -16.3101 C   0  0  0  0  0  0  0  0  0  0  0  0
   27.7605  -17.6391  -17.5741 C   0  0  0  0  0  0  0  0  0  0  0  0
   28.4398  -16.5055  -17.9653 C   0  0  0  0  0  0  0  0  0  0  0  0
   28.5719  -15.4510  -17.0951 C   0  0  0  0  0  0  0  0  0  0  0  0
   28.0274  -15.5371  -15.8484 C   0  0  0  0  0  0  0  0  0  0  0  0
   27.3463  -16.6760  -15.4588 C   0  0  0  0  0  0  0  0  0  0  0  0
   26.7247  -20.6288  -14.0546 C   0  0  0  0  0  0  0  0  0  0  0  0
   26.3283  -21.7657  -14.3901 O   0  0  0  0  0  0  0  0  0  0  0  0
   25.7036  -20.8475   -6.2654 C   0  0  0  0  0  0  0  0  0  0  0  0
   26.2733  -20.1300   -7.8062 S   0  0  0  0  0  0  0  0  0  0  0  0
   25.3589  -20.8395   -9.2460 C   0  0  0  0  0  0  0  0  0  0  0  0
   26.1297  -20.3960  -10.4525 C   0  0  0  0  0  0  0  0  0  0  0  0
   25.6277  -20.8601  -11.7760 C   0  0  2  0  0  0  0  0  0  0  0  0
   26.4969  -20.1536  -12.7587 N   0  0  0  0  0  0  0  0  0  0  0  0
   24.2721  -20.3435  -12.0387 C   0  0  0  0  0  0  0  0  0  0  0  0
   24.1077  -19.2833  -12.7566 O   0  0  0  0  0  0  0  0  0  0  0  0
   23.0573  -20.9143  -11.5714 N   0  0  0  0  0  0  0  0  0  0  0  0
   21.8043  -20.7333  -12.3321 C   0  0  1  0  0  0  0  0  0  0  0  0
   22.0104  -21.2115  -13.7444 C   0  0  0  0  0  0  0  0  0  0  0  0
   20.7873  -21.1899  -14.5332 C   0  0  0  0  0  0  0  0  0  0  0  0
   19.9631  -20.2663  -14.4800 O   0  0  0  0  0  0  0  0  0  0  0  0
   20.7881  -21.4932  -11.5770 C   0  0  0  0  0  0  0  0  0  0  0  0
   21.0808  -22.5948  -11.0685 O   0  0  0  0  0  0  0  0  0  0  0  0
   20.5163  -22.2580  -15.3983 O   0  0  0  0  0  0  0  0  0  0  0  0
   19.4819  -21.0650  -11.3779 O   0  0  0  0  0  0  0  0  0  0  0  0
  2  3  1  0
  2  1  1  6
  4  5  2  0
  4  3  1  0
  6  5  1  0
  7  6  2  0
  8  7  1  0
  8  9  2  0
  9  4  1  0
 10  2  1  0
 11 10  2  0
 13 12  1  0
 14 13  1  0
 15 14  1  0
 16 15  1  1
 16 17  1  0
 17 10  1  0
 18 16  1  0
 18 20  1  0
 19 18  2  0
 21 22  1  6
 21 20  1  0
 21 25  1  0
 23 24  2  0
 23 22  1  0
 25 28  1  0
 26 25  2  0
 27 23  1  0
M  END
$$$$
