LQW.pdb
     RDKit          3D

 32 33  0  0  1  0  0  0  0  0999 V2000
   16.1288  -24.2355  -14.6633 C   0  0  0  0  0  0  0  0  0  0  0  0
   17.0063  -23.0795  -14.2796 C   0  0  1  0  0  0  0  0  0  0  0  0
   16.3895  -22.4195  -13.0428 C   0  0  0  0  0  0  0  0  0  0  0  0
   18.4294  -23.4379  -14.0443 C   0  0  0  0  0  0  0  0  0  0  0  0
   19.3957  -22.3237  -13.9085 C   0  0  2  0  0  0  0  0  0  0  0  0
   19.0624  -21.3181  -14.9081 N   0  0  0  0  0  0  0  0  0  0  0  0
   20.8237  -22.6679  -13.9633 C   0  0  0  0  0  0  0  0  0  0  0  0
   21.3050  -23.4295  -13.0558 O   0  0  0  0  0  0  0  0  0  0  0  0
   25.2934  -25.0983  -15.4049 N   0  0  0  0  0  0  0  0  0  0  0  0
   24.0294  -25.7160  -15.5063 C   0  0  0  0  0  0  0  0  0  0  0  0
   23.9142  -26.9133  -15.1622 O   0  0  0  0  0  0  0  0  0  0  0  0
   22.8311  -24.9439  -16.0230 C   0  0  0  0  0  0  0  0  0  0  0  0
   23.2785  -23.5352  -16.2299 C   0  0  0  0  0  0  0  0  0  0  0  0
   23.1366  -22.6242  -15.0293 C   0  0  2  0  0  0  0  0  0  0  0  0
   21.7116  -22.2270  -14.9412 N   0  0  0  0  0  0  0  0  0  0  0  0
   23.9948  -21.4278  -15.0701 C   0  0  0  0  0  0  0  0  0  0  0  0
   23.4466  -20.2923  -15.0731 O   0  0  0  0  0  0  0  0  0  0  0  0
   25.4019  -21.5190  -15.1013 N   0  0  0  0  0  0  0  0  0  0  0  0
   26.3615  -20.4716  -15.0464 C   0  0  1  0  0  0  0  0  0  0  0  0
   26.1565  -19.4901  -13.9517 C   0  0  0  0  0  0  0  0  0  0  0  0
   26.4649  -20.0572  -12.6167 C   0  0  0  0  0  0  0  0  0  0  0  0
   27.7011  -20.5377  -12.1840 C   0  0  0  0  0  0  0  0  0  0  0  0
   27.5136  -20.9557  -10.9258 N   0  0  0  0  0  0  0  0  0  0  0  0
   26.2561  -20.7743  -10.5377 C   0  0  0  0  0  0  0  0  0  0  0  0
   25.5379  -21.0243   -9.3674 C   0  0  0  0  0  0  0  0  0  0  0  0
   24.1952  -20.7194   -9.2577 C   0  0  0  0  0  0  0  0  0  0  0  0
   23.5170  -20.1533  -10.3109 C   0  0  0  0  0  0  0  0  0  0  0  0
   24.2313  -19.9073  -11.4680 C   0  0  0  0  0  0  0  0  0  0  0  0
   25.5741  -20.2141  -11.5729 C   0  0  0  0  0  0  0  0  0  0  0  0
   27.7816  -20.8859  -15.2506 C   0  0  0  0  0  0  0  0  0  0  0  0
   28.6940  -19.9983  -15.3940 O   0  0  0  0  0  0  0  0  0  0  0  0
   28.2397  -22.1830  -15.3090 O   0  0  0  0  0  0  0  0  0  0  0  0
  2  1  1  1
  3  2  1  0
  4  5  1  0
  4  2  1  0
  5  6  1  6
  7  5  1  0
  7  8  2  0
  9 10  1  0
 10 12  1  0
 11 10  2  0
 12 13  1  0
 14 13  1  6
 14 15  1  0
 15  7  1  0
 16 14  1  0
 17 16  2  0
 18 16  1  0
 19 20  1  1
 19 18  1  0
 20 21  1  0
 21 22  2  0
 21 29  1  0
 22 23  1  0
 23 24  1  0
 24 25  2  0
 25 26  1  0
 27 26  2  0
 28 27  1  0
 29 28  2  0
 29 24  1  0
 30 19  1  0
 31 30  2  0
 32 30  1  0
M  END
$$$$
