LQW.pdb
     RDKit          3D

 32 33  0  0  1  0  0  0  0  0999 V2000
   29.5334  -16.0421  -17.1822 C   0  0  0  0  0  0  0  0  0  0  0  0
   28.5613  -17.1833  -17.1025 C   0  0  1  0  0  0  0  0  0  0  0  0
   29.3693  -18.4840  -17.1336 C   0  0  0  0  0  0  0  0  0  0  0  0
   27.6564  -17.1406  -15.9242 C   0  0  0  0  0  0  0  0  0  0  0  0
   26.8080  -18.3292  -15.6775 C   0  0  2  0  0  0  0  0  0  0  0  0
   25.9042  -18.4767  -16.8102 N   0  0  0  0  0  0  0  0  0  0  0  0
   26.0707  -18.3709  -14.4064 C   0  0  0  0  0  0  0  0  0  0  0  0
   25.1717  -17.4874  -14.1911 O   0  0  0  0  0  0  0  0  0  0  0  0
   21.3921  -19.5345  -12.8455 N   0  0  0  0  0  0  0  0  0  0  0  0
   22.1168  -20.6530  -13.3075 C   0  0  0  0  0  0  0  0  0  0  0  0
   21.5015  -21.5670  -13.9002 O   0  0  0  0  0  0  0  0  0  0  0  0
   23.6145  -20.7471  -13.0904 C   0  0  0  0  0  0  0  0  0  0  0  0
   24.0463  -19.4566  -12.4776 C   0  0  0  0  0  0  0  0  0  0  0  0
   25.5158  -19.3623  -12.1267 C   0  0  2  0  0  0  0  0  0  0  0  0
   26.2725  -19.3118  -13.3999 N   0  0  0  0  0  0  0  0  0  0  0  0
   26.0114  -20.4655  -11.2860 C   0  0  0  0  0  0  0  0  0  0  0  0
   26.3770  -21.5339  -11.8469 O   0  0  0  0  0  0  0  0  0  0  0  0
   26.0907  -20.3567   -9.8820 N   0  0  0  0  0  0  0  0  0  0  0  0
   26.2679  -21.3879   -8.9196 C   0  0  1  0  0  0  0  0  0  0  0  0
   27.5660  -21.3579   -8.2002 C   0  0  0  0  0  0  0  0  0  0  0  0
   27.6573  -20.2298   -7.2422 C   0  0  0  0  0  0  0  0  0  0  0  0
   27.0292  -18.9894   -7.3577 C   0  0  0  0  0  0  0  0  0  0  0  0
   27.3976  -18.2884   -6.2779 N   0  0  0  0  0  0  0  0  0  0  0  0
   28.2075  -18.9935   -5.4960 C   0  0  0  0  0  0  0  0  0  0  0  0
   28.8670  -18.7579   -4.2887 C   0  0  0  0  0  0  0  0  0  0  0  0
   29.6701  -19.7143   -3.6987 C   0  0  0  0  0  0  0  0  0  0  0  0
   29.8465  -20.9427   -4.2900 C   0  0  0  0  0  0  0  0  0  0  0  0
   29.1920  -21.1724   -5.4852 C   0  0  0  0  0  0  0  0  0  0  0  0
   28.3899  -20.2126   -6.0714 C   0  0  0  0  0  0  0  0  0  0  0  0
   25.0850  -21.6730   -8.0539 C   0  0  0  0  0  0  0  0  0  0  0  0
   24.0619  -20.9031   -8.0925 O   0  0  0  0  0  0  0  0  0  0  0  0
   24.9698  -22.7233   -7.1712 O   0  0  0  0  0  0  0  0  0  0  0  0
  2  1  1  1
  3  2  1  0
  4  5  1  0
  4  2  1  0
  5  6  1  6
  7  5  1  0
  7  8  2  0
  9 10  1  0
 10 12  1  0
 11 10  2  0
 12 13  1  0
 14 13  1  6
 14 15  1  0
 15  7  1  0
 16 14  1  0
 17 16  2  0
 18 16  1  0
 19 20  1  1
 19 18  1  0
 20 21  1  0
 21 22  2  0
 21 29  1  0
 22 23  1  0
 23 24  1  0
 24 25  2  0
 25 26  1  0
 27 26  2  0
 28 27  1  0
 29 28  2  0
 29 24  1  0
 30 19  1  0
 31 30  2  0
 32 30  1  0
M  END
$$$$
