LQW.pdb
     RDKit          3D

 32 33  0  0  1  0  0  0  0  0999 V2000
   20.0937  -24.5483    3.3419 C   0  0  0  0  0  0  0  0  0  0  0  0
   18.5941  -24.5865    3.3995 C   0  0  1  0  0  0  0  0  0  0  0  0
   18.1954  -25.7048    4.3670 C   0  0  0  0  0  0  0  0  0  0  0  0
   17.9591  -23.2969    3.7774 C   0  0  0  0  0  0  0  0  0  0  0  0
   16.4792  -23.2404    3.7645 C   0  0  2  0  0  0  0  0  0  0  0  0
   16.0248  -23.7116    2.4632 N   0  0  0  0  0  0  0  0  0  0  0  0
   15.8571  -21.9528    4.1051 C   0  0  0  0  0  0  0  0  0  0  0  0
   14.7224  -21.6661    3.5902 O   0  0  0  0  0  0  0  0  0  0  0  0
   11.6883  -21.0414    6.1527 N   0  0  0  0  0  0  0  0  0  0  0  0
   12.2779  -19.8523    6.6303 C   0  0  0  0  0  0  0  0  0  0  0  0
   11.6551  -18.7753    6.4978 O   0  0  0  0  0  0  0  0  0  0  0  0
   13.6417  -19.8776    7.2924 C   0  0  0  0  0  0  0  0  0  0  0  0
   14.5231  -20.7274    6.4390 C   0  0  0  0  0  0  0  0  0  0  0  0
   15.6339  -19.9942    5.7180 C   0  0  2  0  0  0  0  0  0  0  0  0
   16.4107  -21.0031    4.9598 N   0  0  0  0  0  0  0  0  0  0  0  0
   16.5275  -19.2255    6.6014 C   0  0  0  0  0  0  0  0  0  0  0  0
   17.3421  -19.8543    7.3301 O   0  0  0  0  0  0  0  0  0  0  0  0
   16.4983  -17.8162    6.6496 N   0  0  0  0  0  0  0  0  0  0  0  0
   17.4690  -16.9253    7.1832 C   0  0  1  0  0  0  0  0  0  0  0  0
   18.7398  -16.8517    6.4194 C   0  0  0  0  0  0  0  0  0  0  0  0
   18.6318  -15.9846    5.2214 C   0  0  0  0  0  0  0  0  0  0  0  0
   17.7305  -14.9363    5.0335 C   0  0  0  0  0  0  0  0  0  0  0  0
   17.9871  -14.4443    3.8149 N   0  0  0  0  0  0  0  0  0  0  0  0
   18.9786  -15.1033    3.2255 C   0  0  0  0  0  0  0  0  0  0  0  0
   19.6295  -15.0137    1.9942 C   0  0  0  0  0  0  0  0  0  0  0  0
   20.6593  -15.8677    1.6508 C   0  0  0  0  0  0  0  0  0  0  0  0
   21.0799  -16.8441    2.5223 C   0  0  0  0  0  0  0  0  0  0  0  0
   20.4331  -16.9298    3.7406 C   0  0  0  0  0  0  0  0  0  0  0  0
   19.4035  -16.0734    4.0794 C   0  0  0  0  0  0  0  0  0  0  0  0
   16.9473  -15.6056    7.6484 C   0  0  0  0  0  0  0  0  0  0  0  0
   17.6940  -14.8295    8.3419 O   0  0  0  0  0  0  0  0  0  0  0  0
   15.6865  -15.1089    7.4048 O   0  0  0  0  0  0  0  0  0  0  0  0
  2  1  1  1
  3  2  1  0
  4  5  1  0
  4  2  1  0
  5  6  1  6
  7  5  1  0
  7  8  2  0
  9 10  1  0
 10 12  1  0
 11 10  2  0
 12 13  1  0
 14 13  1  1
 14 15  1  0
 15  7  1  0
 16 14  1  0
 17 16  2  0
 18 16  1  0
 19 20  1  6
 19 18  1  0
 20 21  1  0
 21 22  2  0
 21 29  1  0
 22 23  1  0
 23 24  1  0
 24 25  2  0
 25 26  1  0
 27 26  2  0
 28 27  1  0
 29 28  2  0
 29 24  1  0
 30 19  1  0
 31 30  2  0
 32 30  1  0
M  END
$$$$
