LQW.pdb
     RDKit          3D

 32 33  0  0  1  0  0  0  0  0999 V2000
   27.8119  -19.1613  -20.8237 C   0  0  0  0  0  0  0  0  0  0  0  0
   27.1783  -18.4849  -19.6429 C   0  0  1  0  0  0  0  0  0  0  0  0
   26.7638  -17.0773  -20.0819 C   0  0  0  0  0  0  0  0  0  0  0  0
   26.0316  -19.2232  -19.0520 C   0  0  0  0  0  0  0  0  0  0  0  0
   25.4430  -18.6778  -17.8072 C   0  0  2  0  0  0  0  0  0  0  0  0
   26.4970  -17.9822  -17.0813 N   0  0  0  0  0  0  0  0  0  0  0  0
   24.7370  -19.6245  -16.9319 C   0  0  0  0  0  0  0  0  0  0  0  0
   23.8669  -20.4051  -17.4502 O   0  0  0  0  0  0  0  0  0  0  0  0
   26.2217  -23.5100  -13.8463 N   0  0  0  0  0  0  0  0  0  0  0  0
   25.2759  -23.3614  -12.8104 C   0  0  0  0  0  0  0  0  0  0  0  0
   24.9782  -24.3602  -12.1182 O   0  0  0  0  0  0  0  0  0  0  0  0
   24.6310  -22.0162  -12.5396 C   0  0  0  0  0  0  0  0  0  0  0  0
   25.1753  -21.0624  -13.5503 C   0  0  0  0  0  0  0  0  0  0  0  0
   24.2341  -20.7047  -14.6806 C   0  0  2  0  0  0  0  0  0  0  0  0
   24.9430  -19.7454  -15.5600 N   0  0  0  0  0  0  0  0  0  0  0  0
   22.9478  -20.1359  -14.2429 C   0  0  0  0  0  0  0  0  0  0  0  0
   22.9571  -19.0627  -13.5809 O   0  0  0  0  0  0  0  0  0  0  0  0
   21.7166  -20.7533  -14.5462 N   0  0  0  0  0  0  0  0  0  0  0  0
   20.3999  -20.2634  -14.3293 C   0  0  1  0  0  0  0  0  0  0  0  0
   20.1646  -18.8719  -14.7897 C   0  0  0  0  0  0  0  0  0  0  0  0
   19.7880  -18.8047  -16.2223 C   0  0  0  0  0  0  0  0  0  0  0  0
   18.8636  -19.6192  -16.8769 C   0  0  0  0  0  0  0  0  0  0  0  0
   18.8502  -19.2097  -18.1517 N   0  0  0  0  0  0  0  0  0  0  0  0
   19.6945  -18.2026  -18.3457 C   0  0  0  0  0  0  0  0  0  0  0  0
   20.0675  -17.4238  -19.4421 C   0  0  0  0  0  0  0  0  0  0  0  0
   21.0052  -16.4154  -19.3340 C   0  0  0  0  0  0  0  0  0  0  0  0
   21.6071  -16.1448  -18.1281 C   0  0  0  0  0  0  0  0  0  0  0  0
   21.2353  -16.9180  -17.0447 C   0  0  0  0  0  0  0  0  0  0  0  0
   20.2970  -17.9255  -17.1580 C   0  0  0  0  0  0  0  0  0  0  0  0
   19.2957  -21.2173  -14.6474 C   0  0  0  0  0  0  0  0  0  0  0  0
   19.4976  -22.1816  -15.4662 O   0  0  0  0  0  0  0  0  0  0  0  0
   18.0191  -21.1686  -14.1342 O   0  0  0  0  0  0  0  0  0  0  0  0
  2  1  1  6
  3  2  1  0
  4  5  1  0
  4  2  1  0
  5  6  1  1
  7  5  1  0
  7  8  2  0
  9 10  1  0
 10 12  1  0
 11 10  2  0
 12 13  1  0
 14 13  1  1
 14 15  1  0
 15  7  1  0
 16 14  1  0
 17 16  2  0
 18 16  1  0
 19 20  1  6
 19 18  1  0
 20 21  1  0
 21 22  2  0
 21 29  1  0
 22 23  1  0
 23 24  1  0
 24 25  2  0
 25 26  1  0
 27 26  2  0
 28 27  1  0
 29 28  2  0
 29 24  1  0
 30 19  1  0
 31 30  2  0
 32 30  1  0
M  END
$$$$
