LQW.pdb
     RDKit          3D

 32 33  0  0  1  0  0  0  0  0999 V2000
   22.9762  -18.0784  -21.1840 C   0  0  0  0  0  0  0  0  0  0  0  0
   23.6476  -18.9981  -20.2058 C   0  0  1  0  0  0  0  0  0  0  0  0
   25.1538  -18.9454  -20.4780 C   0  0  0  0  0  0  0  0  0  0  0  0
   23.3484  -18.7052  -18.7797 C   0  0  0  0  0  0  0  0  0  0  0  0
   24.0749  -19.4945  -17.7585 C   0  0  2  0  0  0  0  0  0  0  0  0
   23.8444  -20.9056  -18.0363 N   0  0  0  0  0  0  0  0  0  0  0  0
   23.7947  -19.1824  -16.3496 C   0  0  0  0  0  0  0  0  0  0  0  0
   23.8919  -17.9681  -15.9608 O   0  0  0  0  0  0  0  0  0  0  0  0
   20.4681  -22.8602  -12.4430 N   0  0  0  0  0  0  0  0  0  0  0  0
   20.4153  -21.5563  -11.9078 C   0  0  0  0  0  0  0  0  0  0  0  0
   19.4038  -21.2124  -11.2567 O   0  0  0  0  0  0  0  0  0  0  0  0
   21.5630  -20.5878  -12.1171 C   0  0  0  0  0  0  0  0  0  0  0  0
   21.9744  -20.7045  -13.5469 C   0  0  0  0  0  0  0  0  0  0  0  0
   23.1057  -19.7943  -13.9751 C   0  0  2  0  0  0  0  0  0  0  0  0
   23.4231  -20.1167  -15.3862 N   0  0  0  0  0  0  0  0  0  0  0  0
   24.3182  -19.9012  -13.1456 C   0  0  0  0  0  0  0  0  0  0  0  0
   24.4298  -19.1477  -12.1408 O   0  0  0  0  0  0  0  0  0  0  0  0
   25.3467  -20.8198  -13.4416 N   0  0  0  0  0  0  0  0  0  0  0  0
   26.6297  -20.9406  -12.8416 C   0  0  1  0  0  0  0  0  0  0  0  0
   26.6728  -21.7772  -11.6161 C   0  0  0  0  0  0  0  0  0  0  0  0
   26.4100  -20.9934  -10.3851 C   0  0  0  0  0  0  0  0  0  0  0  0
   25.1689  -20.5366   -9.9406 C   0  0  0  0  0  0  0  0  0  0  0  0
   25.4069  -19.8750   -8.8010 N   0  0  0  0  0  0  0  0  0  0  0  0
   26.7003  -19.8819   -8.4981 C   0  0  0  0  0  0  0  0  0  0  0  0
   27.4745  -19.3604   -7.4606 C   0  0  0  0  0  0  0  0  0  0  0  0
   28.8440  -19.5343   -7.4152 C   0  0  0  0  0  0  0  0  0  0  0  0
   29.4942  -20.2353   -8.4029 C   0  0  0  0  0  0  0  0  0  0  0  0
   28.7245  -20.7502   -9.4286 C   0  0  0  0  0  0  0  0  0  0  0  0
   27.3550  -20.5735   -9.4696 C   0  0  0  0  0  0  0  0  0  0  0  0
   27.7652  -21.1637  -13.7856 C   0  0  0  0  0  0  0  0  0  0  0  0
   27.5467  -21.2345  -15.0458 O   0  0  0  0  0  0  0  0  0  0  0  0
   29.0872  -21.3136  -13.4311 O   0  0  0  0  0  0  0  0  0  0  0  0
  2  1  1  6
  3  2  1  0
  4  5  1  0
  4  2  1  0
  5  6  1  1
  7  5  1  0
  7  8  2  0
  9 10  1  0
 10 12  1  0
 11 10  2  0
 12 13  1  0
 14 13  1  1
 14 15  1  0
 15  7  1  0
 16 14  1  0
 17 16  2  0
 18 16  1  0
 19 20  1  1
 19 18  1  0
 20 21  1  0
 21 22  2  0
 21 29  1  0
 22 23  1  0
 23 24  1  0
 24 25  2  0
 25 26  1  0
 27 26  2  0
 28 27  1  0
 29 28  2  0
 29 24  1  0
 30 19  1  0
 31 30  2  0
 32 30  1  0
M  END
$$$$
