LQW.pdb
     RDKit          3D

 32 33  0  0  1  0  0  0  0  0999 V2000
   28.2455  -17.9645  -18.0082 C   0  0  0  0  0  0  0  0  0  0  0  0
   28.4315  -19.0800  -17.0210 C   0  0  1  0  0  0  0  0  0  0  0  0
   29.3048  -18.5492  -15.8803 C   0  0  0  0  0  0  0  0  0  0  0  0
   27.1656  -19.6617  -16.5030 C   0  0  0  0  0  0  0  0  0  0  0  0
   27.2731  -20.6526  -15.4076 C   0  0  2  0  0  0  0  0  0  0  0  0
   28.0420  -21.7860  -15.9034 N   0  0  0  0  0  0  0  0  0  0  0  0
   26.0182  -21.0991  -14.7856 C   0  0  0  0  0  0  0  0  0  0  0  0
   25.3480  -22.0262  -15.3569 O   0  0  0  0  0  0  0  0  0  0  0  0
   24.5067  -20.7569   -8.7885 N   0  0  0  0  0  0  0  0  0  0  0  0
   25.7497  -20.8442   -9.4495 C   0  0  0  0  0  0  0  0  0  0  0  0
   26.7982  -20.8187   -8.7674 O   0  0  0  0  0  0  0  0  0  0  0  0
   25.8153  -20.9668  -10.9593 C   0  0  0  0  0  0  0  0  0  0  0  0
   24.4129  -20.8848  -11.4630 C   0  0  0  0  0  0  0  0  0  0  0  0
   24.2460  -21.0671  -12.9565 C   0  0  2  0  0  0  0  0  0  0  0  0
   25.4906  -20.5880  -13.6026 N   0  0  0  0  0  0  0  0  0  0  0  0
   23.0790  -20.3721  -13.5264 C   0  0  0  0  0  0  0  0  0  0  0  0
   23.0757  -19.1113  -13.5406 O   0  0  0  0  0  0  0  0  0  0  0  0
   21.9767  -21.0749  -14.0560 N   0  0  0  0  0  0  0  0  0  0  0  0
   20.7302  -20.5622  -14.5078 C   0  0  1  0  0  0  0  0  0  0  0  0
   20.6190  -20.3893  -15.9779 C   0  0  0  0  0  0  0  0  0  0  0  0
   21.5922  -19.4042  -16.5081 C   0  0  0  0  0  0  0  0  0  0  0  0
   22.8292  -19.6881  -17.0877 C   0  0  0  0  0  0  0  0  0  0  0  0
   23.3648  -18.5041  -17.4104 N   0  0  0  0  0  0  0  0  0  0  0  0
   22.5595  -17.5014  -17.0777 C   0  0  0  0  0  0  0  0  0  0  0  0
   22.6190  -16.1108  -17.1807 C   0  0  0  0  0  0  0  0  0  0  0  0
   21.5939  -15.3024  -16.7299 C   0  0  0  0  0  0  0  0  0  0  0  0
   20.4696  -15.8497  -16.1588 C   0  0  0  0  0  0  0  0  0  0  0  0
   20.4141  -17.2269  -16.0584 C   0  0  0  0  0  0  0  0  0  0  0  0
   21.4421  -18.0312  -16.5108 C   0  0  0  0  0  0  0  0  0  0  0  0
   19.5187  -21.1455  -13.8581 C   0  0  0  0  0  0  0  0  0  0  0  0
   19.6432  -22.0848  -12.9960 O   0  0  0  0  0  0  0  0  0  0  0  0
   18.2169  -20.7681  -14.0998 O   0  0  0  0  0  0  0  0  0  0  0  0
  2  1  1  6
  3  2  1  0
  4  5  1  0
  4  2  1  0
  5  6  1  6
  7  5  1  0
  7  8  2  0
  9 10  1  0
 10 12  1  0
 11 10  2  0
 12 13  1  0
 14 13  1  1
 14 15  1  0
 15  7  1  0
 16 14  1  0
 17 16  2  0
 18 16  1  0
 19 20  1  6
 19 18  1  0
 20 21  1  0
 21 22  2  0
 21 29  1  0
 22 23  1  0
 23 24  1  0
 24 25  2  0
 25 26  1  0
 27 26  2  0
 28 27  1  0
 29 28  2  0
 29 24  1  0
 30 19  1  0
 31 30  2  0
 32 30  1  0
M  END
$$$$
