QRC.pdb
     RDKit          3D

 27 26  0  0  1  0  0  0  0  0999 V2000
   28.6390  -24.0573  -18.1237 N   0  0  0  0  0  0  0  0  0  0  0  0
   28.4948  -23.3316  -16.9129 C   0  0  0  0  0  0  0  0  0  0  0  0
   27.7302  -23.8090  -16.0371 O   0  0  0  0  0  0  0  0  0  0  0  0
   29.2458  -22.0635  -16.7483 C   0  0  0  0  0  0  0  0  0  0  0  0
   28.4409  -21.0578  -15.9545 C   0  0  0  0  0  0  0  0  0  0  0  0
   27.2459  -20.5623  -16.7203 C   0  0  2  0  0  0  0  0  0  0  0  0
   27.6602  -19.6640  -17.7714 N   0  0  0  0  0  0  0  0  0  0  0  0
   26.2221  -19.9428  -15.8322 C   0  0  0  0  0  0  0  0  0  0  0  0
   26.2855  -18.7096  -15.5923 O   0  0  0  0  0  0  0  0  0  0  0  0
   19.5809  -19.6663  -17.3482 N   0  0  0  0  0  0  0  0  0  0  0  0
   19.8499  -20.9296  -16.7531 C   0  0  0  0  0  0  0  0  0  0  0  0
   19.6661  -21.9886  -17.4297 N   0  0  0  0  0  0  0  0  0  0  0  0
   20.3203  -21.0100  -15.3998 N   0  0  0  0  0  0  0  0  0  0  0  0
   20.3498  -19.8563  -14.5136 C   0  0  0  0  0  0  0  0  0  0  0  0
   21.7416  -19.7790  -13.9255 C   0  0  0  0  0  0  0  0  0  0  0  0
   22.8122  -20.1580  -14.9205 C   0  0  0  0  0  0  0  0  0  0  0  0
   24.1718  -20.1494  -14.3312 C   0  0  2  0  0  0  0  0  0  0  0  0
   25.1731  -20.6730  -15.2381 N   0  0  0  0  0  0  0  0  0  0  0  0
   24.3165  -20.8588  -13.0609 C   0  0  0  0  0  0  0  0  0  0  0  0
   23.9518  -22.0562  -12.9982 O   0  0  0  0  0  0  0  0  0  0  0  0
   19.8193  -22.9222  -17.0105 N   0  0  0  0  0  0  0  0  0  0  0  0
   24.8435  -20.2948  -11.8732 C   0  0  1  0  0  0  0  0  0  0  0  0
   24.7345  -20.8933  -10.5820 C   0  0  0  0  0  0  0  0  0  0  0  0
   25.5696  -20.1546   -9.5399 S   0  0  0  0  0  0  0  0  0  0  0  0
   26.4450  -21.3284   -8.4857 C   0  0  0  0  0  0  0  0  0  0  0  0
   23.3113  -20.9536  -10.1648 O   0  0  0  0  0  0  0  0  0  0  0  0
   22.7870  -22.0107   -9.4399 O   0  0  0  0  0  0  0  0  0  0  0  0
  2  1  1  0
  3  2  2  0
  4  2  1  0
  5  4  1  0
  6  8  1  0
  6  5  1  0
  6  7  1  6
  8  9  2  0
 11 12  2  0
 11 10  1  0
 13 11  1  0
 14 13  1  0
 15 14  1  0
 16 15  1  0
 17 16  1  6
 18 17  1  0
 18  8  1  0
 19 17  1  0
 20 19  2  0
 21 19  1  0
 22 23  1  1
 22 21  1  0
 23 24  1  0
 25 26  1  0
 25 22  1  0
 27 25  2  0
M  END
$$$$
