QRC.pdb
     RDKit          3D

 27 26  0  0  1  0  0  0  0  0999 V2000
   26.1676  -13.3831  -16.3604 N   0  0  0  0  0  0  0  0  0  0  0  0
   25.0081  -14.1614  -16.1084 C   0  0  0  0  0  0  0  0  0  0  0  0
   23.8934  -13.6468  -16.3772 O   0  0  0  0  0  0  0  0  0  0  0  0
   25.1726  -15.5245  -15.5480 C   0  0  0  0  0  0  0  0  0  0  0  0
   26.6339  -15.8403  -15.3152 C   0  0  0  0  0  0  0  0  0  0  0  0
   26.9571  -17.2746  -15.6288 C   0  0  2  0  0  0  0  0  0  0  0  0
   26.7978  -17.5281  -17.0409 N   0  0  0  0  0  0  0  0  0  0  0  0
   26.1645  -18.2270  -14.8010 C   0  0  0  0  0  0  0  0  0  0  0  0
   24.9904  -17.9199  -14.4699 O   0  0  0  0  0  0  0  0  0  0  0  0
   22.3895  -24.2117  -14.8585 N   0  0  0  0  0  0  0  0  0  0  0  0
   23.0102  -25.1777  -14.0195 C   0  0  0  0  0  0  0  0  0  0  0  0
   22.2923  -26.0438  -13.4299 N   0  0  0  0  0  0  0  0  0  0  0  0
   24.4333  -25.1733  -13.8355 N   0  0  0  0  0  0  0  0  0  0  0  0
   25.3054  -24.2269  -14.5145 C   0  0  0  0  0  0  0  0  0  0  0  0
   25.1712  -22.9010  -13.7983 C   0  0  0  0  0  0  0  0  0  0  0  0
   25.9630  -21.8010  -14.4637 C   0  0  0  0  0  0  0  0  0  0  0  0
   25.9037  -20.5210  -13.7196 C   0  0  2  0  0  0  0  0  0  0  0  0
   26.6654  -19.4694  -14.3626 N   0  0  0  0  0  0  0  0  0  0  0  0
   26.3301  -20.5798  -12.3222 C   0  0  0  0  0  0  0  0  0  0  0  0
   27.5577  -20.5966  -12.0703 O   0  0  0  0  0  0  0  0  0  0  0  0
   22.7145  -26.7422  -12.7937 N   0  0  0  0  0  0  0  0  0  0  0  0
   25.4551  -20.6210  -11.2090 C   0  0  2  0  0  0  0  0  0  0  0  0
   25.8860  -20.6972   -9.8504 C   0  0  0  0  0  0  0  0  0  0  0  0
   26.7947  -19.5299   -9.4752 S   0  0  0  0  0  0  0  0  0  0  0  0
   26.9974  -19.4387   -7.6847 C   0  0  0  0  0  0  0  0  0  0  0  0
   24.7119  -20.7583   -8.9442 O   0  0  0  0  0  0  0  0  0  0  0  0
   24.8175  -21.0804   -7.6015 O   0  0  0  0  0  0  0  0  0  0  0  0
  2  1  1  0
  3  2  2  0
  4  2  1  0
  5  4  1  0
  6  8  1  0
  6  5  1  0
  6  7  1  6
  8  9  2  0
 11 12  2  0
 11 10  1  0
 13 11  1  0
 14 13  1  0
 15 14  1  0
 16 15  1  0
 17 16  1  6
 18 17  1  0
 18  8  1  0
 19 17  1  0
 20 19  2  0
 21 19  1  0
 22 23  1  1
 22 21  1  0
 23 24  1  0
 25 26  1  0
 25 22  1  0
 27 25  2  0
M  END
$$$$
