QRC.pdb
     RDKit          3D

 27 26  0  0  1  0  0  0  0  0999 V2000
   29.3429  -24.3334  -18.0853 N   0  0  0  0  0  0  0  0  0  0  0  0
   29.4997  -23.3084  -19.0540 C   0  0  0  0  0  0  0  0  0  0  0  0
   29.9001  -23.6454  -20.1966 O   0  0  0  0  0  0  0  0  0  0  0  0
   29.1860  -21.9108  -18.6699 C   0  0  0  0  0  0  0  0  0  0  0  0
   28.7813  -21.8283  -17.2143 C   0  0  0  0  0  0  0  0  0  0  0  0
   27.7085  -20.8003  -16.9854 C   0  0  2  0  0  0  0  0  0  0  0  0
   28.2965  -19.5340  -16.6191 N   0  0  0  0  0  0  0  0  0  0  0  0
   26.6964  -21.2512  -15.9889 C   0  0  0  0  0  0  0  0  0  0  0  0
   25.8788  -22.1511  -16.3112 O   0  0  0  0  0  0  0  0  0  0  0  0
   22.7252  -19.7425  -10.0575 N   0  0  0  0  0  0  0  0  0  0  0  0
   23.0789  -20.6747   -9.0435 C   0  0  0  0  0  0  0  0  0  0  0  0
   22.1996  -21.0482   -8.2066 N   0  0  0  0  0  0  0  0  0  0  0  0
   24.4170  -21.1865   -8.9615 N   0  0  0  0  0  0  0  0  0  0  0  0
   25.4726  -20.7608   -9.8680 C   0  0  0  0  0  0  0  0  0  0  0  0
   25.0109  -21.0782  -11.2733 C   0  0  0  0  0  0  0  0  0  0  0  0
   26.0437  -20.7228  -12.3159 C   0  0  0  0  0  0  0  0  0  0  0  0
   25.6068  -21.0548  -13.6924 C   0  0  2  0  0  0  0  0  0  0  0  0
   26.6039  -20.7169  -14.6878 N   0  0  0  0  0  0  0  0  0  0  0  0
   24.3421  -20.4568  -14.1177 C   0  0  0  0  0  0  0  0  0  0  0  0
   24.2345  -19.2082  -14.1026 O   0  0  0  0  0  0  0  0  0  0  0  0
   22.4358  -21.7047   -7.4425 N   0  0  0  0  0  0  0  0  0  0  0  0
   23.2073  -21.1845  -14.5525 C   0  0  2  0  0  0  0  0  0  0  0  0
   21.9522  -20.5924  -14.8863 C   0  0  0  0  0  0  0  0  0  0  0  0
   21.9232  -20.0951  -16.3288 S   0  0  0  0  0  0  0  0  0  0  0  0
   23.0802  -21.0366  -17.3439 C   0  0  0  0  0  0  0  0  0  0  0  0
   20.8508  -21.5573  -14.6433 O   0  0  0  0  0  0  0  0  0  0  0  0
   19.5142  -21.2007  -14.7079 O   0  0  0  0  0  0  0  0  0  0  0  0
  2  1  1  0
  3  2  2  0
  4  2  1  0
  5  4  1  0
  6  8  1  0
  6  5  1  0
  6  7  1  1
  8  9  2  0
 11 12  2  0
 11 10  1  0
 13 11  1  0
 14 13  1  0
 15 14  1  0
 16 15  1  0
 17 16  1  1
 18 17  1  0
 18  8  1  0
 19 17  1  0
 20 19  2  0
 21 19  1  0
 22 23  1  6
 22 21  1  0
 23 24  1  0
 25 26  1  0
 25 22  1  0
 27 25  2  0
M  END
$$$$
