QRC.pdb
     RDKit          3D

 27 26  0  0  1  0  0  0  0  0999 V2000
   23.6515  -20.7735  -10.9198 N   0  0  0  0  0  0  0  0  0  0  0  0
   24.3676  -21.0522   -9.7268 C   0  0  0  0  0  0  0  0  0  0  0  0
   23.7395  -21.6021   -8.7874 O   0  0  0  0  0  0  0  0  0  0  0  0
   25.8023  -20.6838   -9.6543 C   0  0  0  0  0  0  0  0  0  0  0  0
   26.2259  -19.9156  -10.8871 C   0  0  0  0  0  0  0  0  0  0  0  0
   26.2599  -20.7884  -12.1107 C   0  0  2  0  0  0  0  0  0  0  0  0
   27.2139  -21.8577  -11.9383 N   0  0  0  0  0  0  0  0  0  0  0  0
   26.5183  -20.0090  -13.3542 C   0  0  0  0  0  0  0  0  0  0  0  0
   27.6998  -19.6847  -13.6390 O   0  0  0  0  0  0  0  0  0  0  0  0
   27.5324  -18.6795  -20.3915 N   0  0  0  0  0  0  0  0  0  0  0  0
   27.5598  -20.0827  -20.1622 C   0  0  0  0  0  0  0  0  0  0  0  0
   28.5833  -20.7505  -20.5079 N   0  0  0  0  0  0  0  0  0  0  0  0
   26.4412  -20.7409  -19.5502 N   0  0  0  0  0  0  0  0  0  0  0  0
   25.2323  -20.0293  -19.1637 C   0  0  0  0  0  0  0  0  0  0  0  0
   25.5915  -19.1388  -17.9945 C   0  0  0  0  0  0  0  0  0  0  0  0
   25.4465  -19.8414  -16.6659 C   0  0  0  0  0  0  0  0  0  0  0  0
   25.6808  -18.9412  -15.5125 C   0  0  2  0  0  0  0  0  0  0  0  0
   25.4973  -19.6098  -14.2403 N   0  0  0  0  0  0  0  0  0  0  0  0
   24.8756  -17.7210  -15.4869 C   0  0  0  0  0  0  0  0  0  0  0  0
   23.6842  -17.7969  -15.1052 O   0  0  0  0  0  0  0  0  0  0  0  0
   28.6223  -21.7754  -20.3707 N   0  0  0  0  0  0  0  0  0  0  0  0
   25.3381  -16.4368  -15.8654 C   0  0  2  0  0  0  0  0  0  0  0  0
   24.5487  -15.2490  -15.8081 C   0  0  0  0  0  0  0  0  0  0  0  0
   25.4029  -13.9910  -15.9371 S   0  0  0  0  0  0  0  0  0  0  0  0
   26.8781  -14.1219  -14.9065 C   0  0  0  0  0  0  0  0  0  0  0  0
   23.5012  -15.2800  -16.8593 O   0  0  0  0  0  0  0  0  0  0  0  0
   22.3637  -14.4917  -16.8074 O   0  0  0  0  0  0  0  0  0  0  0  0
  2  1  1  0
  3  2  2  0
  4  2  1  0
  5  4  1  0
  6  8  1  0
  6  5  1  0
  6  7  1  1
  8  9  2  0
 11 12  2  0
 11 10  1  0
 13 11  1  0
 14 13  1  0
 15 14  1  0
 16 15  1  0
 17 16  1  6
 18 17  1  0
 18  8  1  0
 19 17  1  0
 20 19  2  0
 21 19  1  0
 22 23  1  1
 22 21  1  0
 23 24  1  0
 25 26  1  0
 25 22  1  0
 27 25  2  0
M  END
$$$$
