QRC.pdb
     RDKit          3D

 27 26  0  0  1  0  0  0  0  0999 V2000
   24.3330  -18.1922  -21.7493 N   0  0  0  0  0  0  0  0  0  0  0  0
   23.8443  -16.8643  -21.8559 C   0  0  0  0  0  0  0  0  0  0  0  0
   23.6711  -16.4001  -23.0110 O   0  0  0  0  0  0  0  0  0  0  0  0
   23.5673  -16.1049  -20.6127 C   0  0  0  0  0  0  0  0  0  0  0  0
   23.8759  -16.9400  -19.3893 C   0  0  0  0  0  0  0  0  0  0  0  0
   22.9098  -16.6754  -18.2682 C   0  0  2  0  0  0  0  0  0  0  0  0
   23.4440  -15.6802  -17.3695 N   0  0  0  0  0  0  0  0  0  0  0  0
   22.5226  -17.9218  -17.5493 C   0  0  0  0  0  0  0  0  0  0  0  0
   21.6091  -18.6441  -18.0248 O   0  0  0  0  0  0  0  0  0  0  0  0
   28.0805  -21.0630  -12.1764 N   0  0  0  0  0  0  0  0  0  0  0  0
   26.6807  -21.3137  -12.1892 C   0  0  0  0  0  0  0  0  0  0  0  0
   26.1902  -22.1504  -11.3692 N   0  0  0  0  0  0  0  0  0  0  0  0
   25.8290  -20.6323  -13.1216 N   0  0  0  0  0  0  0  0  0  0  0  0
   26.2284  -19.4030  -13.7897 C   0  0  0  0  0  0  0  0  0  0  0  0
   25.0480  -18.9373  -14.6135 C   0  0  0  0  0  0  0  0  0  0  0  0
   24.0375  -20.0343  -14.8486 C   0  0  0  0  0  0  0  0  0  0  0  0
   22.8734  -19.5806  -15.6453 C   0  0  2  0  0  0  0  0  0  0  0  0
   23.1318  -18.3409  -16.3493 N   0  0  0  0  0  0  0  0  0  0  0  0
   21.6246  -19.4119  -14.9036 C   0  0  0  0  0  0  0  0  0  0  0  0
   21.5163  -18.4341  -14.1269 O   0  0  0  0  0  0  0  0  0  0  0  0
   25.1702  -22.3190  -11.3259 N   0  0  0  0  0  0  0  0  0  0  0  0
   20.5070  -20.2777  -14.9906 C   0  0  2  0  0  0  0  0  0  0  0  0
   19.2947  -20.1014  -14.2581 C   0  0  0  0  0  0  0  0  0  0  0  0
   18.0675  -20.4461  -15.0972 S   0  0  0  0  0  0  0  0  0  0  0  0
   18.0455  -19.4687  -16.6136 C   0  0  0  0  0  0  0  0  0  0  0  0
   19.3246  -20.9143  -13.0165 O   0  0  0  0  0  0  0  0  0  0  0  0
   18.5822  -20.5931  -11.8924 O   0  0  0  0  0  0  0  0  0  0  0  0
  2  1  1  0
  3  2  2  0
  4  2  1  0
  5  4  1  0
  6  8  1  0
  6  5  1  0
  6  7  1  1
  8  9  2  0
 11 12  2  0
 11 10  1  0
 13 11  1  0
 14 13  1  0
 15 14  1  0
 16 15  1  0
 17 16  1  1
 18 17  1  0
 18  8  1  0
 19 17  1  0
 20 19  2  0
 21 19  1  0
 22 23  1  6
 22 21  1  0
 23 24  1  0
 25 26  1  0
 25 22  1  0
 27 25  2  0
M  END
$$$$
