QRC.pdb
     RDKit          3D

 27 26  0  0  1  0  0  0  0  0999 V2000
   21.0901  -19.9406  -10.5062 N   0  0  0  0  0  0  0  0  0  0  0  0
   21.6214  -19.6798   -9.2165 C   0  0  0  0  0  0  0  0  0  0  0  0
   20.8064  -19.5356   -8.2708 O   0  0  0  0  0  0  0  0  0  0  0  0
   23.0932  -19.5927   -9.0562 C   0  0  0  0  0  0  0  0  0  0  0  0
   23.7864  -19.6338  -10.4005 C   0  0  0  0  0  0  0  0  0  0  0  0
   23.7747  -21.0131  -10.9984 C   0  0  2  0  0  0  0  0  0  0  0  0
   24.4825  -21.9367  -10.1443 N   0  0  0  0  0  0  0  0  0  0  0  0
   24.3023  -21.0300  -12.3919 C   0  0  0  0  0  0  0  0  0  0  0  0
   25.5168  -21.2958  -12.5834 O   0  0  0  0  0  0  0  0  0  0  0  0
   22.6565  -24.9191  -18.0865 N   0  0  0  0  0  0  0  0  0  0  0  0
   21.5173  -24.3679  -17.4379 C   0  0  0  0  0  0  0  0  0  0  0  0
   20.6289  -25.1464  -16.9712 N   0  0  0  0  0  0  0  0  0  0  0  0
   21.3684  -22.9461  -17.3144 N   0  0  0  0  0  0  0  0  0  0  0  0
   22.1409  -22.0077  -18.1144 C   0  0  0  0  0  0  0  0  0  0  0  0
   23.2437  -21.4680  -17.2305 C   0  0  0  0  0  0  0  0  0  0  0  0
   22.8466  -21.4183  -15.7746 C   0  0  0  0  0  0  0  0  0  0  0  0
   23.9157  -20.8708  -14.9068 C   0  0  2  0  0  0  0  0  0  0  0  0
   23.5043  -20.7602  -13.5220 N   0  0  0  0  0  0  0  0  0  0  0  0
   24.4561  -19.5730  -15.3090 C   0  0  0  0  0  0  0  0  0  0  0  0
   23.8781  -18.5341  -14.9122 O   0  0  0  0  0  0  0  0  0  0  0  0
   19.7756  -24.7722  -16.5209 N   0  0  0  0  0  0  0  0  0  0  0  0
   25.5990  -19.3888  -16.1252 C   0  0  2  0  0  0  0  0  0  0  0  0
   26.1550  -18.1161  -16.4543 C   0  0  0  0  0  0  0  0  0  0  0  0
   27.6731  -18.1008  -16.2990 S   0  0  0  0  0  0  0  0  0  0  0  0
   28.3480  -16.5222  -16.8538 C   0  0  0  0  0  0  0  0  0  0  0  0
   25.7664  -17.7295  -17.8337 O   0  0  0  0  0  0  0  0  0  0  0  0
   25.5500  -16.4146  -18.2107 O   0  0  0  0  0  0  0  0  0  0  0  0
  2  1  1  0
  3  2  2  0
  4  2  1  0
  5  4  1  0
  6  8  1  0
  6  5  1  0
  6  7  1  1
  8  9  2  0
 11 12  2  0
 11 10  1  0
 13 11  1  0
 14 13  1  0
 15 14  1  0
 16 15  1  0
 17 16  1  6
 18 17  1  0
 18  8  1  0
 19 17  1  0
 20 19  2  0
 21 19  1  0
 22 23  1  6
 22 21  1  0
 23 24  1  0
 25 26  1  0
 25 22  1  0
 27 25  2  0
M  END
$$$$
