QRC.pdb
     RDKit          3D

 27 26  0  0  1  0  0  0  0  0999 V2000
   25.6943  -13.9990  -20.9480 N   0  0  0  0  0  0  0  0  0  0  0  0
   25.3316  -12.9099  -20.1136 C   0  0  0  0  0  0  0  0  0  0  0  0
   25.6958  -11.7604  -20.4679 O   0  0  0  0  0  0  0  0  0  0  0  0
   24.5512  -13.1842  -18.8828 C   0  0  0  0  0  0  0  0  0  0  0  0
   24.2199  -14.6563  -18.7699 C   0  0  0  0  0  0  0  0  0  0  0  0
   23.4142  -14.9594  -17.5374 C   0  0  2  0  0  0  0  0  0  0  0  0
   24.0961  -14.4765  -16.3604 N   0  0  0  0  0  0  0  0  0  0  0  0
   23.0723  -16.4056  -17.4267 C   0  0  0  0  0  0  0  0  0  0  0  0
   22.4293  -16.9556  -18.3575 O   0  0  0  0  0  0  0  0  0  0  0  0
   25.0376  -24.3290  -15.7430 N   0  0  0  0  0  0  0  0  0  0  0  0
   25.8069  -23.3978  -16.4936 C   0  0  0  0  0  0  0  0  0  0  0  0
   26.3783  -23.7796  -17.5617 N   0  0  0  0  0  0  0  0  0  0  0  0
   25.9414  -22.0403  -16.0483 N   0  0  0  0  0  0  0  0  0  0  0  0
   25.2907  -21.5453  -14.8447 C   0  0  0  0  0  0  0  0  0  0  0  0
   24.0616  -20.7797  -15.2828 C   0  0  0  0  0  0  0  0  0  0  0  0
   24.3724  -19.3496  -15.6543 C   0  0  0  0  0  0  0  0  0  0  0  0
   23.1899  -18.6214  -16.1713 C   0  0  2  0  0  0  0  0  0  0  0  0
   23.4345  -17.2012  -16.3209 N   0  0  0  0  0  0  0  0  0  0  0  0
   21.9609  -18.7754  -15.3942 C   0  0  0  0  0  0  0  0  0  0  0  0
   21.9499  -18.3789  -14.2053 O   0  0  0  0  0  0  0  0  0  0  0  0
   26.9295  -23.1189  -18.1366 N   0  0  0  0  0  0  0  0  0  0  0  0
   20.7601  -19.3468  -15.8819 C   0  0  2  0  0  0  0  0  0  0  0  0
   19.5767  -19.5177  -15.1023 C   0  0  0  0  0  0  0  0  0  0  0  0
   18.3154  -19.2280  -15.9112 S   0  0  0  0  0  0  0  0  0  0  0  0
   16.8555  -19.3103  -14.8543 C   0  0  0  0  0  0  0  0  0  0  0  0
   19.5312  -20.8888  -14.5356 O   0  0  0  0  0  0  0  0  0  0  0  0
   19.1184  -21.1509  -13.2400 O   0  0  0  0  0  0  0  0  0  0  0  0
  2  1  1  0
  3  2  2  0
  4  2  1  0
  5  4  1  0
  6  8  1  0
  6  5  1  0
  6  7  1  1
  8  9  2  0
 11 12  2  0
 11 10  1  0
 13 11  1  0
 14 13  1  0
 15 14  1  0
 16 15  1  0
 17 16  1  1
 18 17  1  0
 18  8  1  0
 19 17  1  0
 20 19  2  0
 21 19  1  0
 22 23  1  6
 22 21  1  0
 23 24  1  0
 25 26  1  0
 25 22  1  0
 27 25  2  0
M  END
$$$$
