QRC.pdb
     RDKit          3D

 27 26  0  0  1  0  0  0  0  0999 V2000
   15.2208  -30.8065   -4.6721 N   0  0  0  0  0  0  0  0  0  0  0  0
   15.8059  -31.6394   -3.6834 C   0  0  0  0  0  0  0  0  0  0  0  0
   15.6245  -32.8787   -3.7865 O   0  0  0  0  0  0  0  0  0  0  0  0
   16.5909  -31.0094   -2.5944 C   0  0  0  0  0  0  0  0  0  0  0  0
   16.5651  -29.5012   -2.7125 C   0  0  0  0  0  0  0  0  0  0  0  0
   17.8262  -28.9627   -3.3289 C   0  0  2  0  0  0  0  0  0  0  0  0
   18.9285  -29.0850   -2.4051 N   0  0  0  0  0  0  0  0  0  0  0  0
   17.6644  -27.5645   -3.8180 C   0  0  0  0  0  0  0  0  0  0  0  0
   17.9632  -26.6105   -3.0545 O   0  0  0  0  0  0  0  0  0  0  0  0
   18.1757  -22.4813  -10.0603 N   0  0  0  0  0  0  0  0  0  0  0  0
   18.5282  -23.8590  -10.0557 C   0  0  0  0  0  0  0  0  0  0  0  0
   19.6994  -24.2034  -10.4061 N   0  0  0  0  0  0  0  0  0  0  0  0
   17.5704  -24.8529   -9.6635 N   0  0  0  0  0  0  0  0  0  0  0  0
   16.2641  -24.5081   -9.1233 C   0  0  0  0  0  0  0  0  0  0  0  0
   16.3825  -24.5336   -7.6152 C   0  0  0  0  0  0  0  0  0  0  0  0
   16.7948  -25.8878   -7.0898 C   0  0  0  0  0  0  0  0  0  0  0  0
   16.9041  -25.9208   -5.6124 C   0  0  2  0  0  0  0  0  0  0  0  0
   17.1880  -27.2484   -5.1064 N   0  0  0  0  0  0  0  0  0  0  0  0
   15.7464  -25.4102   -4.8796 C   0  0  0  0  0  0  0  0  0  0  0  0
   14.6677  -26.0451   -4.9455 O   0  0  0  0  0  0  0  0  0  0  0  0
   19.9720  -25.2008  -10.4466 N   0  0  0  0  0  0  0  0  0  0  0  0
   15.7420  -24.2359   -4.0876 C   0  0  2  0  0  0  0  0  0  0  0  0
   14.5853  -23.7081   -3.4390 C   0  0  0  0  0  0  0  0  0  0  0  0
   14.9522  -22.8380   -2.2401 S   0  0  0  0  0  0  0  0  0  0  0  0
   13.6035  -22.8139   -1.0419 C   0  0  0  0  0  0  0  0  0  0  0  0
   13.7602  -22.9434   -4.4073 O   0  0  0  0  0  0  0  0  0  0  0  0
   12.3936  -22.7752   -4.2589 O   0  0  0  0  0  0  0  0  0  0  0  0
  2  1  1  0
  3  2  2  0
  4  2  1  0
  5  4  1  0
  6  8  1  0
  6  5  1  0
  6  7  1  1
  8  9  2  0
 11 12  2  0
 11 10  1  0
 13 11  1  0
 14 13  1  0
 15 14  1  0
 16 15  1  0
 17 16  1  6
 18 17  1  0
 18  8  1  0
 19 17  1  0
 20 19  2  0
 21 19  1  0
 22 23  1  1
 22 21  1  0
 23 24  1  0
 25 26  1  0
 25 22  1  0
 27 25  2  0
M  END
$$$$
