QRC.pdb
     RDKit          3D

 27 26  0  0  1  0  0  0  0  0999 V2000
   13.2656  -13.2514  -17.0243 N   0  0  0  0  0  0  0  0  0  0  0  0
   14.4945  -12.5436  -17.0736 C   0  0  0  0  0  0  0  0  0  0  0  0
   14.4420  -11.2879  -17.0733 O   0  0  0  0  0  0  0  0  0  0  0  0
   15.7599  -13.3154  -17.1222 C   0  0  0  0  0  0  0  0  0  0  0  0
   16.8103  -12.6875  -16.2323 C   0  0  0  0  0  0  0  0  0  0  0  0
   18.1230  -13.4160  -16.3100 C   0  0  2  0  0  0  0  0  0  0  0  0
   18.0653  -14.6379  -15.5437 N   0  0  0  0  0  0  0  0  0  0  0  0
   19.2710  -12.5583  -15.9012 C   0  0  0  0  0  0  0  0  0  0  0  0
   19.4726  -12.3478  -14.6775 O   0  0  0  0  0  0  0  0  0  0  0  0
   27.1319  -10.1884  -19.8094 N   0  0  0  0  0  0  0  0  0  0  0  0
   26.9126   -9.4025  -18.6446 C   0  0  0  0  0  0  0  0  0  0  0  0
   27.7784   -8.5377  -18.3046 N   0  0  0  0  0  0  0  0  0  0  0  0
   25.7274   -9.5859  -17.8568 N   0  0  0  0  0  0  0  0  0  0  0  0
   24.6714  -10.5112  -18.2387 C   0  0  0  0  0  0  0  0  0  0  0  0
   23.5943  -10.4230  -17.1799 C   0  0  0  0  0  0  0  0  0  0  0  0
   22.3906  -11.2741  -17.5065 C   0  0  0  0  0  0  0  0  0  0  0  0
   21.3107  -11.1507  -16.4994 C   0  0  2  0  0  0  0  0  0  0  0  0
   20.1545  -11.9615  -16.8232 N   0  0  0  0  0  0  0  0  0  0  0  0
   20.8357   -9.7919  -16.2425 C   0  0  0  0  0  0  0  0  0  0  0  0
   20.1883   -9.2037  -17.1401 O   0  0  0  0  0  0  0  0  0  0  0  0
   27.7048   -8.0359  -17.4026 N   0  0  0  0  0  0  0  0  0  0  0  0
   21.0508   -9.0716  -15.0421 C   0  0  2  0  0  0  0  0  0  0  0  0
   20.6216   -7.7280  -14.8230 C   0  0  0  0  0  0  0  0  0  0  0  0
   19.9935   -7.5490  -13.4437 S   0  0  0  0  0  0  0  0  0  0  0  0
   18.5777   -8.6501  -13.2476 C   0  0  0  0  0  0  0  0  0  0  0  0
   21.7588   -6.7916  -15.0054 O   0  0  0  0  0  0  0  0  0  0  0  0
   23.0164   -7.2094  -15.4076 O   0  0  0  0  0  0  0  0  0  0  0  0
  2  1  1  0
  3  2  2  0
  4  2  1  0
  5  4  1  0
  6  8  1  0
  6  5  1  0
  6  7  1  1
  8  9  2  0
 11 12  2  0
 11 10  1  0
 13 11  1  0
 14 13  1  0
 15 14  1  0
 16 15  1  0
 17 16  1  6
 18 17  1  0
 18  8  1  0
 19 17  1  0
 20 19  2  0
 21 19  1  0
 22 23  1  1
 22 21  1  0
 23 24  1  0
 25 26  1  0
 25 22  1  0
 27 25  2  0
M  END
$$$$
