DMG.pdb
     RDKit          3D

 21 20  0  0  1  0  0  0  0  0999 V2000
    8.7802  -14.9135   19.9873 N   0  0  0  0  0  0  0  0  0  0  0  0
    8.8381  -16.1103   20.7960 C   0  0  1  0  0  0  0  0  0  0  0  0
   10.0736  -16.9101   20.4182 C   0  0  0  0  0  0  0  0  0  0  0  0
   10.0347  -17.2877   18.9944 C   0  0  0  0  0  0  0  0  0  0  0  0
    9.0052  -17.8424   18.5323 O   0  0  0  0  0  0  0  0  0  0  0  0
    8.9165  -15.7306   22.2241 C   0  0  0  0  0  0  0  0  0  0  0  0
    9.9869  -15.2162   22.6400 O   0  0  0  0  0  0  0  0  0  0  0  0
   11.1155  -17.0317   18.1912 O   0  0  0  0  0  0  0  0  0  0  0  0
    7.4694  -10.9992   26.4931 C   0  0  0  0  0  0  0  0  0  0  0  0
    7.4919  -12.7954   26.3728 S   0  0  0  0  0  0  0  0  0  0  0  0
    6.6530  -13.3306   24.8197 C   0  0  0  0  0  0  0  0  0  0  0  0
    6.6329  -14.8194   24.8645 C   0  0  0  0  0  0  0  0  0  0  0  0
    7.9271  -15.5011   24.5328 C   0  0  2  0  0  0  0  0  0  0  0  0
    7.8286  -15.9319   23.1130 N   0  0  0  0  0  0  0  0  0  0  0  0
    8.2675  -16.6521   25.3743 C   0  0  0  0  0  0  0  0  0  0  0  0
    7.3694  -17.5638   25.5146 O   0  0  0  0  0  0  0  0  0  0  0  0
    9.4750  -16.8785   26.0510 N   0  0  0  0  0  0  0  0  0  0  0  0
    9.7005  -18.0743   26.8144 C   0  0  0  0  0  0  0  0  0  0  0  0
   11.0533  -18.0852   27.4375 C   0  0  0  0  0  0  0  0  0  0  0  0
   11.3719  -18.9566   28.2886 O   0  0  0  0  0  0  0  0  0  0  0  0
   11.9724  -17.1170   27.0708 O   0  0  0  0  0  0  0  0  0  0  0  0
  2  1  1  6
  3  2  1  0
  4  3  1  0
  4  5  2  0
  6  2  1  0
  7  6  2  0
  8  4  1  0
  9 10  1  0
 11 12  1  0
 11 10  1  0
 13 12  1  1
 13 15  1  0
 13 14  1  0
 14  6  1  0
 15 17  1  0
 16 15  2  0
 17 18  1  0
 19 21  1  0
 19 18  1  0
 20 19  2  0
M  END
$$$$
