DMG.pdb
     RDKit          3D

 21 20  0  0  1  0  0  0  0  0999 V2000
    6.8228  -15.4956   20.6683 N   0  0  0  0  0  0  0  0  0  0  0  0
    8.1835  -15.0140   20.5881 C   0  0  1  0  0  0  0  0  0  0  0  0
    8.2150  -13.7391   19.7619 C   0  0  0  0  0  0  0  0  0  0  0  0
    7.9738  -14.0345   18.3386 C   0  0  0  0  0  0  0  0  0  0  0  0
    7.7915  -15.2255   17.9790 O   0  0  0  0  0  0  0  0  0  0  0  0
    8.6806  -14.7277   21.9521 C   0  0  0  0  0  0  0  0  0  0  0  0
    9.8202  -14.2069   22.0677 O   0  0  0  0  0  0  0  0  0  0  0  0
    7.9501  -13.0132   17.4247 O   0  0  0  0  0  0  0  0  0  0  0  0
    6.5487  -10.5402   26.8867 C   0  0  0  0  0  0  0  0  0  0  0  0
    7.0287  -12.2751   26.9255 S   0  0  0  0  0  0  0  0  0  0  0  0
    6.9908  -12.9747   25.2192 C   0  0  0  0  0  0  0  0  0  0  0  0
    7.3872  -14.4036   25.3602 C   0  0  0  0  0  0  0  0  0  0  0  0
    8.4977  -14.8656   24.4640 C   0  0  2  0  0  0  0  0  0  0  0  0
    7.9106  -15.0236   23.1070 N   0  0  0  0  0  0  0  0  0  0  0  0
    9.1541  -16.1134   24.8650 C   0  0  0  0  0  0  0  0  0  0  0  0
    8.5090  -17.2088   24.6615 O   0  0  0  0  0  0  0  0  0  0  0  0
   10.4210  -16.2535   25.4503 N   0  0  0  0  0  0  0  0  0  0  0  0
   11.0054  -17.5442   25.6870 C   0  0  0  0  0  0  0  0  0  0  0  0
   10.7728  -18.0085   27.0831 C   0  0  0  0  0  0  0  0  0  0  0  0
    9.8755  -17.4931   27.8003 O   0  0  0  0  0  0  0  0  0  0  0  0
   11.5609  -19.0247   27.5958 O   0  0  0  0  0  0  0  0  0  0  0  0
  2  1  1  1
  3  2  1  0
  4  3  1  0
  4  5  2  0
  6  2  1  0
  7  6  2  0
  8  4  1  0
  9 10  1  0
 11 12  1  0
 11 10  1  0
 13 12  1  1
 13 15  1  0
 13 14  1  0
 14  6  1  0
 15 17  1  0
 16 15  2  0
 17 18  1  0
 19 21  1  0
 19 18  1  0
 20 19  2  0
M  END
$$$$
