DMG.pdb
     RDKit          3D

 21 20  0  0  1  0  0  0  0  0999 V2000
   11.0273  -19.5157   18.9971 N   0  0  0  0  0  0  0  0  0  0  0  0
   10.0601  -18.4526   18.8416 C   0  0  1  0  0  0  0  0  0  0  0  0
    8.6725  -18.9897   19.1499 C   0  0  0  0  0  0  0  0  0  0  0  0
    7.8456  -19.0272   17.9309 C   0  0  0  0  0  0  0  0  0  0  0  0
    7.0998  -18.0512   17.6623 O   0  0  0  0  0  0  0  0  0  0  0  0
   10.3833  -17.3577   19.7831 C   0  0  0  0  0  0  0  0  0  0  0  0
   11.4322  -16.6936   19.5781 O   0  0  0  0  0  0  0  0  0  0  0  0
    7.8971  -20.1202   17.1053 O   0  0  0  0  0  0  0  0  0  0  0  0
    6.8302  -11.6567   19.9503 C   0  0  0  0  0  0  0  0  0  0  0  0
    6.9558  -13.0881   21.0351 S   0  0  0  0  0  0  0  0  0  0  0  0
    8.6044  -13.8893   20.8282 C   0  0  0  0  0  0  0  0  0  0  0  0
    8.6202  -15.0321   21.7836 C   0  0  0  0  0  0  0  0  0  0  0  0
    9.8534  -15.8856   21.7614 C   0  0  2  0  0  0  0  0  0  0  0  0
    9.5483  -17.0503   20.8887 N   0  0  0  0  0  0  0  0  0  0  0  0
   10.3168  -16.3582   23.0694 C   0  0  0  0  0  0  0  0  0  0  0  0
   11.0885  -15.5742   23.7381 O   0  0  0  0  0  0  0  0  0  0  0  0
   10.0107  -17.5808   23.6849 N   0  0  0  0  0  0  0  0  0  0  0  0
   10.9551  -18.6624   23.7277 C   0  0  0  0  0  0  0  0  0  0  0  0
   12.1345  -18.3331   24.5757 C   0  0  0  0  0  0  0  0  0  0  0  0
   12.0618  -18.3605   25.8323 O   0  0  0  0  0  0  0  0  0  0  0  0
   13.3292  -17.9909   23.9654 O   0  0  0  0  0  0  0  0  0  0  0  0
  2  1  1  1
  3  2  1  0
  4  3  1  0
  4  5  2  0
  6  2  1  0
  7  6  2  0
  8  4  1  0
  9 10  1  0
 11 12  1  0
 11 10  1  0
 13 12  1  1
 13 15  1  0
 13 14  1  0
 14  6  1  0
 15 17  1  0
 16 15  2  0
 17 18  1  0
 19 21  1  0
 19 18  1  0
 20 19  2  0
M  END
$$$$
