DMG.pdb
     RDKit          3D

 21 20  0  0  1  0  0  0  0  0999 V2000
    9.1845  -16.7889   21.0477 N   0  0  0  0  0  0  0  0  0  0  0  0
   10.4968  -16.6047   21.6255 C   0  0  1  0  0  0  0  0  0  0  0  0
   11.2813  -15.6154   20.7800 C   0  0  0  0  0  0  0  0  0  0  0  0
   11.7127  -16.2376   19.5159 C   0  0  0  0  0  0  0  0  0  0  0  0
   11.5855  -17.4795   19.3658 O   0  0  0  0  0  0  0  0  0  0  0  0
   10.3546  -16.0726   22.9989 C   0  0  0  0  0  0  0  0  0  0  0  0
   11.3891  -15.6525   23.5790 O   0  0  0  0  0  0  0  0  0  0  0  0
   12.2457  -15.4604   18.5205 O   0  0  0  0  0  0  0  0  0  0  0  0
    6.2509  -11.7462   26.9376 C   0  0  0  0  0  0  0  0  0  0  0  0
    7.6870  -12.7794   26.6035 S   0  0  0  0  0  0  0  0  0  0  0  0
    7.4573  -13.6759   25.0079 C   0  0  0  0  0  0  0  0  0  0  0  0
    7.6404  -15.1195   25.3264 C   0  0  0  0  0  0  0  0  0  0  0  0
    9.0171  -15.6697   25.0991 C   0  0  2  0  0  0  0  0  0  0  0  0
    9.0986  -16.0285   23.6583 N   0  0  0  0  0  0  0  0  0  0  0  0
    9.3747  -16.8323   25.9172 C   0  0  0  0  0  0  0  0  0  0  0  0
    8.6342  -17.8795   25.8061 O   0  0  0  0  0  0  0  0  0  0  0  0
   10.4455  -16.9372   26.8169 N   0  0  0  0  0  0  0  0  0  0  0  0
   10.8358  -18.1985   27.3831 C   0  0  0  0  0  0  0  0  0  0  0  0
   10.4760  -18.2918   28.8254 C   0  0  0  0  0  0  0  0  0  0  0  0
    9.6851  -19.1776   29.2439 O   0  0  0  0  0  0  0  0  0  0  0  0
   11.0236  -17.3852   29.7170 O   0  0  0  0  0  0  0  0  0  0  0  0
  2  1  1  6
  3  2  1  0
  4  3  1  0
  4  5  2  0
  6  2  1  0
  7  6  2  0
  8  4  1  0
  9 10  1  0
 11 12  1  0
 11 10  1  0
 13 12  1  1
 13 15  1  0
 13 14  1  0
 14  6  1  0
 15 17  1  0
 16 15  2  0
 17 18  1  0
 19 21  1  0
 19 18  1  0
 20 19  2  0
M  END
$$$$
