DMG.pdb
     RDKit          3D

 21 20  0  0  1  0  0  0  0  0999 V2000
    7.6332  -14.5107   19.5650 N   0  0  0  0  0  0  0  0  0  0  0  0
    7.3423  -15.4174   20.6528 C   0  0  1  0  0  0  0  0  0  0  0  0
    7.7725  -16.8215   20.2625 C   0  0  0  0  0  0  0  0  0  0  0  0
    7.0201  -17.2885   19.0847 C   0  0  0  0  0  0  0  0  0  0  0  0
    7.6469  -17.6351   18.0512 O   0  0  0  0  0  0  0  0  0  0  0  0
    8.0904  -14.9912   21.8563 C   0  0  0  0  0  0  0  0  0  0  0  0
    9.3193  -14.7511   21.7329 O   0  0  0  0  0  0  0  0  0  0  0  0
    5.6510  -17.3406   19.1267 O   0  0  0  0  0  0  0  0  0  0  0  0
    7.1965  -11.4991   27.5321 C   0  0  0  0  0  0  0  0  0  0  0  0
    6.0334  -11.7434   26.1797 S   0  0  0  0  0  0  0  0  0  0  0  0
    6.8845  -12.5565   24.7595 C   0  0  0  0  0  0  0  0  0  0  0  0
    7.4174  -13.8420   25.2910 C   0  0  0  0  0  0  0  0  0  0  0  0
    8.2705  -14.6363   24.3470 C   0  0  2  0  0  0  0  0  0  0  0  0
    7.4589  -14.8513   23.1196 N   0  0  0  0  0  0  0  0  0  0  0  0
    8.7428  -15.9267   24.8574 C   0  0  0  0  0  0  0  0  0  0  0  0
    7.9075  -16.6309   25.5384 O   0  0  0  0  0  0  0  0  0  0  0  0
   10.0154  -16.4907   24.6853 N   0  0  0  0  0  0  0  0  0  0  0  0
   10.9313  -16.6376   25.7822 C   0  0  0  0  0  0  0  0  0  0  0  0
   12.2089  -17.2724   25.3541 C   0  0  0  0  0  0  0  0  0  0  0  0
   12.9708  -16.7091   24.5251 O   0  0  0  0  0  0  0  0  0  0  0  0
   12.5592  -18.5042   25.8803 O   0  0  0  0  0  0  0  0  0  0  0  0
  2  1  1  6
  3  2  1  0
  4  3  1  0
  4  5  2  0
  6  2  1  0
  7  6  2  0
  8  4  1  0
  9 10  1  0
 11 12  1  0
 11 10  1  0
 13 12  1  1
 13 15  1  0
 13 14  1  0
 14  6  1  0
 15 17  1  0
 16 15  2  0
 17 18  1  0
 19 21  1  0
 19 18  1  0
 20 19  2  0
M  END
$$$$
