DMG.pdb
     RDKit          3D

 21 20  0  0  1  0  0  0  0  0999 V2000
    7.2595  -16.7737   19.4573 N   0  0  0  0  0  0  0  0  0  0  0  0
    7.0520  -16.9966   20.8705 C   0  0  1  0  0  0  0  0  0  0  0  0
    7.4265  -18.4293   21.2113 C   0  0  0  0  0  0  0  0  0  0  0  0
    6.4893  -19.3766   20.5821 C   0  0  0  0  0  0  0  0  0  0  0  0
    6.8911  -20.1070   19.6409 O   0  0  0  0  0  0  0  0  0  0  0  0
    7.9085  -16.0685   21.6416 C   0  0  0  0  0  0  0  0  0  0  0  0
    9.0703  -15.8442   21.2137 O   0  0  0  0  0  0  0  0  0  0  0  0
    5.1950  -19.4522   21.0270 O   0  0  0  0  0  0  0  0  0  0  0  0
    6.0215  -12.9267   27.4403 C   0  0  0  0  0  0  0  0  0  0  0  0
    6.8198  -11.8279   26.2584 S   0  0  0  0  0  0  0  0  0  0  0  0
    8.1564  -12.7321   25.3649 C   0  0  0  0  0  0  0  0  0  0  0  0
    7.4607  -13.6518   24.4220 C   0  0  0  0  0  0  0  0  0  0  0  0
    8.3480  -14.5327   23.5935 C   0  0  2  0  0  0  0  0  0  0  0  0
    7.4516  -15.4403   22.8294 N   0  0  0  0  0  0  0  0  0  0  0  0
    9.3279  -15.3244   24.3430 C   0  0  0  0  0  0  0  0  0  0  0  0
    8.8850  -16.0359   25.3202 O   0  0  0  0  0  0  0  0  0  0  0  0
   10.7096  -15.3987   24.1139 N   0  0  0  0  0  0  0  0  0  0  0  0
   11.5857  -16.1095   25.0032 C   0  0  0  0  0  0  0  0  0  0  0  0
   12.9903  -16.1153   24.5075 C   0  0  0  0  0  0  0  0  0  0  0  0
   13.2880  -15.6248   23.3868 O   0  0  0  0  0  0  0  0  0  0  0  0
   13.9818  -16.6720   25.2973 O   0  0  0  0  0  0  0  0  0  0  0  0
  2  1  1  6
  3  2  1  0
  4  3  1  0
  4  5  2  0
  6  2  1  0
  7  6  2  0
  8  4  1  0
  9 10  1  0
 11 12  1  0
 11 10  1  0
 13 12  1  1
 13 15  1  0
 13 14  1  0
 14  6  1  0
 15 17  1  0
 16 15  2  0
 17 18  1  0
 19 21  1  0
 19 18  1  0
 20 19  2  0
M  END
$$$$
