DMG.pdb
     RDKit          3D

 21 20  0  0  1  0  0  0  0  0999 V2000
    7.7603  -17.1910   20.8117 N   0  0  0  0  0  0  0  0  0  0  0  0
    9.1353  -16.7449   20.7956 C   0  0  1  0  0  0  0  0  0  0  0  0
    9.3775  -15.9151   19.5459 C   0  0  0  0  0  0  0  0  0  0  0  0
    9.5137  -16.7827   18.3626 C   0  0  0  0  0  0  0  0  0  0  0  0
    8.6770  -17.7019   18.1733 O   0  0  0  0  0  0  0  0  0  0  0  0
    9.3930  -15.9153   21.9935 C   0  0  0  0  0  0  0  0  0  0  0  0
   10.5115  -15.3469   22.0882 O   0  0  0  0  0  0  0  0  0  0  0  0
   10.5460  -16.5801   17.4838 O   0  0  0  0  0  0  0  0  0  0  0  0
    6.4178  -11.3338   27.5255 C   0  0  0  0  0  0  0  0  0  0  0  0
    6.2533  -12.4760   26.1436 S   0  0  0  0  0  0  0  0  0  0  0  0
    7.8073  -13.4499   25.9463 C   0  0  0  0  0  0  0  0  0  0  0  0
    7.6541  -14.1996   24.6682 C   0  0  0  0  0  0  0  0  0  0  0  0
    8.7864  -15.1145   24.3071 C   0  0  2  0  0  0  0  0  0  0  0  0
    8.4210  -15.7531   23.0148 N   0  0  0  0  0  0  0  0  0  0  0  0
    9.1010  -16.1495   25.2963 C   0  0  0  0  0  0  0  0  0  0  0  0
    8.1442  -16.9349   25.6501 O   0  0  0  0  0  0  0  0  0  0  0  0
   10.3406  -16.3872   25.9080 N   0  0  0  0  0  0  0  0  0  0  0  0
   10.4606  -16.5645   27.3284 C   0  0  0  0  0  0  0  0  0  0  0  0
   10.6028  -18.0009   27.6960 C   0  0  0  0  0  0  0  0  0  0  0  0
   10.0411  -18.9046   27.0228 O   0  0  0  0  0  0  0  0  0  0  0  0
   11.3669  -18.3422   28.7989 O   0  0  0  0  0  0  0  0  0  0  0  0
  2  1  1  1
  3  2  1  0
  4  3  1  0
  4  5  2  0
  6  2  1  0
  7  6  2  0
  8  4  1  0
  9 10  1  0
 11 12  1  0
 11 10  1  0
 13 12  1  1
 13 15  1  0
 13 14  1  0
 14  6  1  0
 15 17  1  0
 16 15  2  0
 17 18  1  0
 19 21  1  0
 19 18  1  0
 20 19  2  0
M  END
$$$$
