DMG.pdb
     RDKit          3D

 21 20  0  0  1  0  0  0  0  0999 V2000
    7.5456  -16.0193   20.0697 N   0  0  0  0  0  0  0  0  0  0  0  0
    8.4506  -16.6626   20.9955 C   0  0  1  0  0  0  0  0  0  0  0  0
    9.7774  -16.9199   20.3009 C   0  0  0  0  0  0  0  0  0  0  0  0
    9.5882  -17.7763   19.1168 C   0  0  0  0  0  0  0  0  0  0  0  0
    8.7223  -18.6875   19.1478 O   0  0  0  0  0  0  0  0  0  0  0  0
    8.6695  -15.7755   22.1594 C   0  0  0  0  0  0  0  0  0  0  0  0
    9.7359  -15.1091   22.2012 O   0  0  0  0  0  0  0  0  0  0  0  0
   10.3539  -17.5723   17.9983 O   0  0  0  0  0  0  0  0  0  0  0  0
    6.7802  -10.9721   27.1230 C   0  0  0  0  0  0  0  0  0  0  0  0
    6.8914  -12.1368   25.7545 S   0  0  0  0  0  0  0  0  0  0  0  0
    6.7815  -13.8646   26.3908 C   0  0  0  0  0  0  0  0  0  0  0  0
    6.7372  -14.7368   25.1840 C   0  0  0  0  0  0  0  0  0  0  0  0
    8.0208  -14.8585   24.4178 C   0  0  2  0  0  0  0  0  0  0  0  0
    7.7175  -15.6656   23.2063 N   0  0  0  0  0  0  0  0  0  0  0  0
    9.1363  -15.4673   25.1486 C   0  0  0  0  0  0  0  0  0  0  0  0
    9.8406  -14.6928   25.8979 O   0  0  0  0  0  0  0  0  0  0  0  0
    9.5282  -16.8138   25.1269 N   0  0  0  0  0  0  0  0  0  0  0  0
   10.6904  -17.2739   25.8350 C   0  0  0  0  0  0  0  0  0  0  0  0
   10.3371  -17.8478   27.1632 C   0  0  0  0  0  0  0  0  0  0  0  0
    9.1449  -17.8698   27.5675 O   0  0  0  0  0  0  0  0  0  0  0  0
   11.3419  -18.3642   27.9635 O   0  0  0  0  0  0  0  0  0  0  0  0
  2  1  1  6
  3  2  1  0
  4  3  1  0
  4  5  2  0
  6  2  1  0
  7  6  2  0
  8  4  1  0
  9 10  1  0
 11 12  1  0
 11 10  1  0
 13 12  1  1
 13 15  1  0
 13 14  1  0
 14  6  1  0
 15 17  1  0
 16 15  2  0
 17 18  1  0
 19 21  1  0
 19 18  1  0
 20 19  2  0
M  END
$$$$
