DMG.pdb
     RDKit          3D

 21 20  0  0  1  0  0  0  0  0999 V2000
   10.6361  -15.6413   20.5033 N   0  0  0  0  0  0  0  0  0  0  0  0
    9.4108  -16.0952   21.1218 C   0  0  1  0  0  0  0  0  0  0  0  0
    9.3861  -17.6145   21.1271 C   0  0  0  0  0  0  0  0  0  0  0  0
    9.4932  -18.1422   19.7554 C   0  0  0  0  0  0  0  0  0  0  0  0
    8.6833  -19.0231   19.3694 O   0  0  0  0  0  0  0  0  0  0  0  0
    9.3543  -15.5982   22.5144 C   0  0  0  0  0  0  0  0  0  0  0  0
   10.4403  -15.3241   23.0877 O   0  0  0  0  0  0  0  0  0  0  0  0
   10.4696  -17.6697   18.9174 O   0  0  0  0  0  0  0  0  0  0  0  0
    8.6243  -12.1813   27.3843 C   0  0  0  0  0  0  0  0  0  0  0  0
    7.1380  -12.1661   26.3683 S   0  0  0  0  0  0  0  0  0  0  0  0
    6.4654  -13.8769   26.2151 C   0  0  0  0  0  0  0  0  0  0  0  0
    6.7646  -14.3045   24.8199 C   0  0  0  0  0  0  0  0  0  0  0  0
    8.1039  -14.9446   24.6052 C   0  0  2  0  0  0  0  0  0  0  0  0
    8.1229  -15.4287   23.1993 N   0  0  0  0  0  0  0  0  0  0  0  0
    8.4269  -16.0505   25.5114 C   0  0  0  0  0  0  0  0  0  0  0  0
    7.5820  -17.0193   25.5812 O   0  0  0  0  0  0  0  0  0  0  0  0
    9.5660  -16.1775   26.3199 N   0  0  0  0  0  0  0  0  0  0  0  0
   10.2246  -17.4408   26.5042 C   0  0  0  0  0  0  0  0  0  0  0  0
   10.1200  -17.9185   27.9111 C   0  0  0  0  0  0  0  0  0  0  0  0
   10.6842  -18.9811   28.2823 O   0  0  0  0  0  0  0  0  0  0  0  0
    9.3874  -17.1769   28.8222 O   0  0  0  0  0  0  0  0  0  0  0  0
  2  1  1  1
  3  2  1  0
  4  3  1  0
  4  5  2  0
  6  2  1  0
  7  6  2  0
  8  4  1  0
  9 10  1  0
 11 12  1  0
 11 10  1  0
 13 12  1  1
 13 15  1  0
 13 14  1  0
 14  6  1  0
 15 17  1  0
 16 15  2  0
 17 18  1  0
 19 21  1  0
 19 18  1  0
 20 19  2  0
M  END
$$$$
