HVW.pdb
     RDKit          3D

 32 34  0  0  1  0  0  0  0  0999 V2000
   28.9939  -18.4247  -18.5590 N   0  0  0  0  0  0  0  0  0  0  0  0
   29.6604  -18.0399  -17.3466 C   0  0  1  0  0  0  0  0  0  0  0  0
   30.5064  -16.8041  -17.5825 C   0  0  0  0  0  0  0  0  0  0  0  0
   31.5711  -17.0883  -18.6024 C   0  0  0  0  0  0  0  0  0  0  0  0
   31.6935  -16.4960  -19.8391 C   0  0  0  0  0  0  0  0  0  0  0  0
   32.7675  -17.0218  -20.4512 N   0  0  0  0  0  0  0  0  0  0  0  0
   33.3002  -17.9167  -19.6198 C   0  0  0  0  0  0  0  0  0  0  0  0
   32.5784  -17.9637  -18.4923 N   0  0  0  0  0  0  0  0  0  0  0  0
   28.6422  -17.7371  -16.2592 C   0  0  0  0  0  0  0  0  0  0  0  0
   28.1556  -16.5959  -16.1710 O   0  0  0  0  0  0  0  0  0  0  0  0
   25.4368  -19.6437  -16.0355 C   0  0  0  0  0  0  0  0  0  0  0  0
   25.8199  -18.5968  -15.0192 C   0  0  2  0  0  0  0  0  0  0  0  0
   25.8986  -17.2624  -15.7306 C   0  0  0  0  0  0  0  0  0  0  0  0
   27.2012  -18.9255  -14.4978 C   0  0  2  0  0  0  0  0  0  0  0  0
   28.2896  -18.7748  -15.3884 N   0  0  0  0  0  0  0  0  0  0  0  0
   27.1893  -20.2092  -13.7727 C   0  0  0  0  0  0  0  0  0  0  0  0
   27.5174  -21.3211  -14.2597 O   0  0  0  0  0  0  0  0  0  0  0  0
   26.7829  -20.2814  -12.3861 N   0  0  0  0  0  0  0  0  0  0  0  0
   26.3888  -21.5501  -11.7719 C   0  0  1  0  0  0  0  0  0  0  0  0
   27.1297  -21.7780  -10.5101 C   0  0  0  0  0  0  0  0  0  0  0  0
   26.7137  -20.9195   -9.4066 C   0  0  0  0  0  0  0  0  0  0  0  0
   25.5139  -20.2034   -9.3153 C   0  0  0  0  0  0  0  0  0  0  0  0
   25.5036  -19.5020   -8.1779 N   0  0  0  0  0  0  0  0  0  0  0  0
   26.6378  -19.7048   -7.4875 C   0  0  0  0  0  0  0  0  0  0  0  0
   27.0976  -19.2386   -6.2715 C   0  0  0  0  0  0  0  0  0  0  0  0
   28.3162  -19.6354   -5.7784 C   0  0  0  0  0  0  0  0  0  0  0  0
   29.1061  -20.5200   -6.5086 C   0  0  0  0  0  0  0  0  0  0  0  0
   28.6186  -20.9621   -7.7129 C   0  0  0  0  0  0  0  0  0  0  0  0
   27.4022  -20.5969   -8.2581 C   0  0  0  0  0  0  0  0  0  0  0  0
   24.9436  -21.5739  -11.6190 C   0  0  0  0  0  0  0  0  0  0  0  0
   24.0768  -20.4964  -11.7352 O   0  0  0  0  0  0  0  0  0  0  0  0
   24.3817  -22.6933  -11.3406 O   0  0  0  0  0  0  0  0  0  0  0  0
  2  1  1  6
  2  3  1  0
  3  4  1  0
  4  5  2  0
  6  5  1  0
  7  6  1  0
  8  7  2  0
  8  4  1  0
  9  2  1  0
 10  9  2  0
 12 14  1  0
 12 11  1  6
 13 12  1  0
 14 15  1  6
 15  9  1  0
 16 18  1  0
 16 14  1  0
 17 16  2  0
 19 30  1  0
 19 18  1  0
 19 20  1  1
 21 22  2  0
 21 20  1  0
 23 22  1  0
 24 29  2  0
 24 23  1  0
 25 24  1  0
 26 27  1  0
 26 25  2  0
 27 28  2  0
 28 29  1  0
 29 21  1  0
 30 31  1  0
 32 30  2  0
M  END
$$$$
