HVW.pdb
     RDKit          3D

 32 34  0  0  1  0  0  0  0  0999 V2000
   27.4568  -21.9909  -16.5371 N   0  0  0  0  0  0  0  0  0  0  0  0
   28.3276  -20.9655  -16.0348 C   0  0  1  0  0  0  0  0  0  0  0  0
   28.7186  -20.0163  -17.1504 C   0  0  0  0  0  0  0  0  0  0  0  0
   29.2618  -20.7837  -18.3212 C   0  0  0  0  0  0  0  0  0  0  0  0
   28.7292  -20.8188  -19.5901 C   0  0  0  0  0  0  0  0  0  0  0  0
   29.4997  -21.6184  -20.3461 N   0  0  0  0  0  0  0  0  0  0  0  0
   30.4852  -22.0693  -19.5706 C   0  0  0  0  0  0  0  0  0  0  0  0
   30.3481  -21.5664  -18.3368 N   0  0  0  0  0  0  0  0  0  0  0  0
   27.6320  -20.1743  -14.9387 C   0  0  0  0  0  0  0  0  0  0  0  0
   27.7202  -18.9339  -14.9234 O   0  0  0  0  0  0  0  0  0  0  0  0
   24.0058  -19.7212  -11.8811 C   0  0  0  0  0  0  0  0  0  0  0  0
   24.6528  -20.1638  -13.1699 C   0  0  2  0  0  0  0  0  0  0  0  0
   23.9918  -21.4549  -13.6047 C   0  0  0  0  0  0  0  0  0  0  0  0
   26.1096  -20.4607  -12.8914 C   0  0  2  0  0  0  0  0  0  0  0  0
   26.9089  -20.8893  -13.9768 N   0  0  0  0  0  0  0  0  0  0  0  0
   26.2470  -21.2877  -11.6785 C   0  0  0  0  0  0  0  0  0  0  0  0
   26.3689  -22.5390  -11.6631 O   0  0  0  0  0  0  0  0  0  0  0  0
   26.2539  -20.6887  -10.3616 N   0  0  0  0  0  0  0  0  0  0  0  0
   26.2631  -21.5100   -9.1503 C   0  0  1  0  0  0  0  0  0  0  0  0
   27.5650  -21.4060   -8.4523 C   0  0  0  0  0  0  0  0  0  0  0  0
   27.6490  -20.3041   -7.5001 C   0  0  0  0  0  0  0  0  0  0  0  0
   27.0443  -19.0474   -7.6255 C   0  0  0  0  0  0  0  0  0  0  0  0
   27.3771  -18.2904   -6.5758 N   0  0  0  0  0  0  0  0  0  0  0  0
   28.1791  -18.9692   -5.7391 C   0  0  0  0  0  0  0  0  0  0  0  0
   28.7693  -18.6498   -4.5319 C   0  0  0  0  0  0  0  0  0  0  0  0
   29.5422  -19.5646   -3.8602 C   0  0  0  0  0  0  0  0  0  0  0  0
   29.7392  -20.8346   -4.3968 C   0  0  0  0  0  0  0  0  0  0  0  0
   29.1389  -21.1173   -5.5981 C   0  0  0  0  0  0  0  0  0  0  0  0
   28.3525  -20.2377   -6.3178 C   0  0  0  0  0  0  0  0  0  0  0  0
   25.1219  -21.1504   -8.3250 C   0  0  0  0  0  0  0  0  0  0  0  0
   24.7550  -21.7253   -7.1165 O   0  0  0  0  0  0  0  0  0  0  0  0
   24.3502  -20.2105   -8.7339 O   0  0  0  0  0  0  0  0  0  0  0  0
  2  1  1  6
  2  3  1  0
  3  4  1  0
  4  5  2  0
  6  5  1  0
  7  6  1  0
  8  7  2  0
  8  4  1  0
  9  2  1  0
 10  9  2  0
 12 14  1  0
 12 11  1  1
 13 12  1  0
 14 15  1  6
 15  9  1  0
 16 18  1  0
 16 14  1  0
 17 16  2  0
 19 30  1  0
 19 18  1  0
 19 20  1  1
 21 22  2  0
 21 20  1  0
 23 22  1  0
 24 29  2  0
 24 23  1  0
 25 24  1  0
 26 27  1  0
 26 25  2  0
 27 28  2  0
 28 29  1  0
 29 21  1  0
 30 31  1  0
 32 30  2  0
M  END
$$$$
