HVW.pdb
     RDKit          3D

 32 34  0  0  1  0  0  0  0  0999 V2000
   27.9559  -19.2197  -15.9617 N   0  0  0  0  0  0  0  0  0  0  0  0
   26.9998  -18.8175  -14.9686 C   0  0  1  0  0  0  0  0  0  0  0  0
   26.1352  -17.6906  -15.4987 C   0  0  0  0  0  0  0  0  0  0  0  0
   26.9637  -16.4579  -15.7200 C   0  0  0  0  0  0  0  0  0  0  0  0
   27.2750  -15.5054  -14.7761 C   0  0  0  0  0  0  0  0  0  0  0  0
   28.0276  -14.5616  -15.3655 N   0  0  0  0  0  0  0  0  0  0  0  0
   28.1816  -14.9155  -16.6411 C   0  0  0  0  0  0  0  0  0  0  0  0
   27.5373  -16.0683  -16.8654 N   0  0  0  0  0  0  0  0  0  0  0  0
   26.1049  -19.9881  -14.5945 C   0  0  0  0  0  0  0  0  0  0  0  0
   25.8071  -20.8355  -15.4546 O   0  0  0  0  0  0  0  0  0  0  0  0
   24.7651  -20.0975  -10.3449 C   0  0  0  0  0  0  0  0  0  0  0  0
   25.1086  -21.3115  -11.1718 C   0  0  2  0  0  0  0  0  0  0  0  0
   26.5981  -21.5544  -11.0479 C   0  0  0  0  0  0  0  0  0  0  0  0
   24.8099  -20.9979  -12.6211 C   0  0  2  0  0  0  0  0  0  0  0  0
   25.6468  -20.0630  -13.2740 N   0  0  0  0  0  0  0  0  0  0  0  0
   23.3686  -20.7522  -12.8115 C   0  0  0  0  0  0  0  0  0  0  0  0
   22.7980  -19.6396  -12.6784 O   0  0  0  0  0  0  0  0  0  0  0  0
   22.4701  -21.8231  -13.1842 N   0  0  0  0  0  0  0  0  0  0  0  0
   21.0334  -21.5928  -13.3425 C   0  0  1  0  0  0  0  0  0  0  0  0
   20.4269  -22.6240  -14.2153 C   0  0  0  0  0  0  0  0  0  0  0  0
   19.0058  -22.4267  -14.4790 C   0  0  0  0  0  0  0  0  0  0  0  0
   18.4476  -21.5715  -15.4370 C   0  0  0  0  0  0  0  0  0  0  0  0
   17.1149  -21.6313  -15.3594 N   0  0  0  0  0  0  0  0  0  0  0  0
   16.7357  -22.4863  -14.3955 C   0  0  0  0  0  0  0  0  0  0  0  0
   15.5014  -22.9074  -13.9407 C   0  0  0  0  0  0  0  0  0  0  0  0
   15.3992  -23.8325  -12.9311 C   0  0  0  0  0  0  0  0  0  0  0  0
   16.5513  -24.3586  -12.3519 C   0  0  0  0  0  0  0  0  0  0  0  0
   17.7605  -23.9170  -12.8276 C   0  0  0  0  0  0  0  0  0  0  0  0
   17.9237  -22.9891  -13.8389 C   0  0  0  0  0  0  0  0  0  0  0  0
   20.4207  -21.4993  -12.0278 C   0  0  0  0  0  0  0  0  0  0  0  0
   19.3776  -20.6641  -11.6535 O   0  0  0  0  0  0  0  0  0  0  0  0
   20.8748  -22.2510  -11.0923 O   0  0  0  0  0  0  0  0  0  0  0  0
  2  1  1  6
  2  3  1  0
  3  4  1  0
  4  5  2  0
  6  5  1  0
  7  6  1  0
  8  7  2  0
  8  4  1  0
  9  2  1  0
 10  9  2  0
 12 14  1  0
 12 11  1  1
 13 12  1  0
 14 15  1  1
 15  9  1  0
 16 18  1  0
 16 14  1  0
 17 16  2  0
 19 30  1  0
 19 18  1  0
 19 20  1  6
 21 22  2  0
 21 20  1  0
 23 22  1  0
 24 29  2  0
 24 23  1  0
 25 24  1  0
 26 27  1  0
 26 25  2  0
 27 28  2  0
 28 29  1  0
 29 21  1  0
 30 31  1  0
 32 30  2  0
M  END
$$$$
