HVW.pdb
     RDKit          3D

 32 34  0  0  1  0  0  0  0  0999 V2000
   23.7938  -16.9631  -16.5131 N   0  0  0  0  0  0  0  0  0  0  0  0
   24.2684  -16.9112  -15.1587 C   0  0  1  0  0  0  0  0  0  0  0  0
   23.1639  -16.4396  -14.2335 C   0  0  0  0  0  0  0  0  0  0  0  0
   22.6739  -15.0843  -14.6552 C   0  0  0  0  0  0  0  0  0  0  0  0
   21.4333  -14.7920  -15.1754 C   0  0  0  0  0  0  0  0  0  0  0  0
   21.3850  -13.4737  -15.4287 N   0  0  0  0  0  0  0  0  0  0  0  0
   22.5622  -12.9580  -15.0762 C   0  0  0  0  0  0  0  0  0  0  0  0
   23.3526  -13.9311  -14.6045 N   0  0  0  0  0  0  0  0  0  0  0  0
   24.7303  -18.2881  -14.7095 C   0  0  0  0  0  0  0  0  0  0  0  0
   23.8976  -19.2005  -14.5644 O   0  0  0  0  0  0  0  0  0  0  0  0
   28.7574  -21.1079  -14.0744 C   0  0  0  0  0  0  0  0  0  0  0  0
   28.2057  -19.8152  -14.6223 C   0  0  2  0  0  0  0  0  0  0  0  0
   29.0989  -18.6882  -14.1478 C   0  0  0  0  0  0  0  0  0  0  0  0
   26.8314  -19.5973  -14.0294 C   0  0  2  0  0  0  0  0  0  0  0  0
   26.0977  -18.4729  -14.4744 N   0  0  0  0  0  0  0  0  0  0  0  0
   26.8695  -19.7502  -12.5634 C   0  0  0  0  0  0  0  0  0  0  0  0
   27.4364  -18.9607  -11.7657 O   0  0  0  0  0  0  0  0  0  0  0  0
   26.2253  -20.8694  -11.9111 N   0  0  0  0  0  0  0  0  0  0  0  0
   26.3792  -21.1067  -10.4750 C   0  0  1  0  0  0  0  0  0  0  0  0
   25.8346  -19.9740   -9.6918 C   0  0  0  0  0  0  0  0  0  0  0  0
   25.9372  -20.1398   -8.2462 C   0  0  0  0  0  0  0  0  0  0  0  0
   24.9786  -20.7168   -7.4042 C   0  0  0  0  0  0  0  0  0  0  0  0
   25.4089  -20.6590   -6.1403 N   0  0  0  0  0  0  0  0  0  0  0  0
   26.6150  -20.0713   -6.0783 C   0  0  0  0  0  0  0  0  0  0  0  0
   27.4766  -19.7947   -5.0348 C   0  0  0  0  0  0  0  0  0  0  0  0
   28.6892  -19.1917   -5.2616 C   0  0  0  0  0  0  0  0  0  0  0  0
   29.0633  -18.8506   -6.5591 C   0  0  0  0  0  0  0  0  0  0  0  0
   28.1826  -19.1391   -7.5713 C   0  0  0  0  0  0  0  0  0  0  0  0
   26.9510  -19.7431   -7.4024 C   0  0  0  0  0  0  0  0  0  0  0  0
   25.7883  -22.3920  -10.1410 C   0  0  0  0  0  0  0  0  0  0  0  0
   26.2071  -23.2677   -9.1493 O   0  0  0  0  0  0  0  0  0  0  0  0
   24.7755  -22.7888  -10.8215 O   0  0  0  0  0  0  0  0  0  0  0  0
  2  1  1  6
  2  3  1  0
  3  4  1  0
  4  5  2  0
  6  5  1  0
  7  6  1  0
  8  7  2  0
  8  4  1  0
  9  2  1  0
 10  9  2  0
 12 14  1  0
 12 11  1  1
 13 12  1  0
 14 15  1  1
 15  9  1  0
 16 18  1  0
 16 14  1  0
 17 16  2  0
 19 30  1  0
 19 18  1  0
 19 20  1  1
 21 22  2  0
 21 20  1  0
 23 22  1  0
 24 29  2  0
 24 23  1  0
 25 24  1  0
 26 27  1  0
 26 25  2  0
 27 28  2  0
 28 29  1  0
 29 21  1  0
 30 31  1  0
 32 30  2  0
M  END
$$$$
