HVW.pdb
     RDKit          3D

 32 34  0  0  1  0  0  0  0  0999 V2000
   19.2447  -23.7012  -14.6824 N   0  0  0  0  0  0  0  0  0  0  0  0
   18.9996  -25.0230  -14.1772 C   0  0  1  0  0  0  0  0  0  0  0  0
   19.4822  -26.0620  -15.1702 C   0  0  0  0  0  0  0  0  0  0  0  0
   18.6269  -26.0402  -16.4043 C   0  0  0  0  0  0  0  0  0  0  0  0
   19.0653  -25.8563  -17.6962 C   0  0  0  0  0  0  0  0  0  0  0  0
   17.9980  -25.8980  -18.5109 N   0  0  0  0  0  0  0  0  0  0  0  0
   16.9241  -26.1023  -17.7487 C   0  0  0  0  0  0  0  0  0  0  0  0
   17.2976  -26.1901  -16.4653 N   0  0  0  0  0  0  0  0  0  0  0  0
   19.7302  -25.2270  -12.8598 C   0  0  0  0  0  0  0  0  0  0  0  0
   20.8691  -24.7516  -12.7066 O   0  0  0  0  0  0  0  0  0  0  0  0
   18.1185  -25.6415   -8.5214 C   0  0  0  0  0  0  0  0  0  0  0  0
   19.1528  -25.1320   -9.4942 C   0  0  2  0  0  0  0  0  0  0  0  0
   18.5601  -23.9472  -10.2276 C   0  0  0  0  0  0  0  0  0  0  0  0
   19.4223  -26.2184  -10.5116 C   0  0  2  0  0  0  0  0  0  0  0  0
   19.0772  -25.9542  -11.8576 N   0  0  0  0  0  0  0  0  0  0  0  0
   18.9501  -27.5233  -10.0135 C   0  0  0  0  0  0  0  0  0  0  0  0
   17.8415  -28.0480  -10.2905 O   0  0  0  0  0  0  0  0  0  0  0  0
   19.7683  -28.3285   -9.1331 N   0  0  0  0  0  0  0  0  0  0  0  0
   19.3097  -29.6292   -8.6433 C   0  0  1  0  0  0  0  0  0  0  0  0
   20.4112  -30.3597   -7.9754 C   0  0  0  0  0  0  0  0  0  0  0  0
   21.5695  -30.6077   -8.8266 C   0  0  0  0  0  0  0  0  0  0  0  0
   21.8002  -30.0664  -10.0972 C   0  0  0  0  0  0  0  0  0  0  0  0
   22.9467  -30.5519  -10.5826 N   0  0  0  0  0  0  0  0  0  0  0  0
   23.5107  -31.3979   -9.7050 C   0  0  0  0  0  0  0  0  0  0  0  0
   24.6815  -32.1304   -9.7204 C   0  0  0  0  0  0  0  0  0  0  0  0
   25.0364  -32.9165   -8.6519 C   0  0  0  0  0  0  0  0  0  0  0  0
   24.2097  -32.9819   -7.5330 C   0  0  0  0  0  0  0  0  0  0  0  0
   23.0540  -32.2421   -7.5523 C   0  0  0  0  0  0  0  0  0  0  0  0
   22.6463  -31.4356   -8.5980 C   0  0  0  0  0  0  0  0  0  0  0  0
   18.1388  -29.4338   -7.8045 C   0  0  0  0  0  0  0  0  0  0  0  0
   17.0617  -30.2977   -7.6651 O   0  0  0  0  0  0  0  0  0  0  0  0
   18.0611  -28.3556   -7.1134 O   0  0  0  0  0  0  0  0  0  0  0  0
  2  1  1  6
  2  3  1  0
  3  4  1  0
  4  5  2  0
  6  5  1  0
  7  6  1  0
  8  7  2  0
  8  4  1  0
  9  2  1  0
 10  9  2  0
 12 14  1  0
 12 11  1  1
 13 12  1  0
 14 15  1  6
 15  9  1  0
 16 18  1  0
 16 14  1  0
 17 16  2  0
 19 30  1  0
 19 18  1  0
 19 20  1  1
 21 22  2  0
 21 20  1  0
 23 22  1  0
 24 29  2  0
 24 23  1  0
 25 24  1  0
 26 27  1  0
 26 25  2  0
 27 28  2  0
 28 29  1  0
 29 21  1  0
 30 31  1  0
 32 30  2  0
M  END
$$$$
