WRN.pdb
     RDKit          3D

 34 35  0  0  1  0  0  0  0  0999 V2000
   23.4430  -18.3483  -18.8703 N   0  0  0  0  0  0  0  0  0  0  0  0
   23.9758  -18.0610  -17.5675 C   0  0  1  0  0  0  0  0  0  0  0  0
   23.6374  -16.6474  -17.1678 C   0  0  0  0  0  0  0  0  0  0  0  0
   24.4130  -15.6539  -17.9424 C   0  0  0  0  0  0  0  0  0  0  0  0
   23.9281  -14.6883  -18.7951 C   0  0  0  0  0  0  0  0  0  0  0  0
   24.9770  -14.0086  -19.2825 N   0  0  0  0  0  0  0  0  0  0  0  0
   26.1227  -14.5053  -18.7711 C   0  0  0  0  0  0  0  0  0  0  0  0
   27.4637  -14.2033  -18.9166 C   0  0  0  0  0  0  0  0  0  0  0  0
   28.4158  -14.9325  -18.2252 C   0  0  0  0  0  0  0  0  0  0  0  0
   28.0809  -15.9673  -17.3807 C   0  0  0  0  0  0  0  0  0  0  0  0
   26.7539  -16.2646  -17.2381 C   0  0  0  0  0  0  0  0  0  0  0  0
   25.7779  -15.5397  -17.9278 C   0  0  0  0  0  0  0  0  0  0  0  0
   23.4252  -18.9999  -16.5592 C   0  0  0  0  0  0  0  0  0  0  0  0
   22.4201  -19.6872  -16.8497 O   0  0  0  0  0  0  0  0  0  0  0  0
   27.5295  -21.9502   -9.4735 N   0  0  0  0  0  0  0  0  0  0  0  0
   27.6144  -21.5683  -10.8319 C   0  0  0  0  0  0  0  0  0  0  0  0
   28.7825  -21.4892  -11.3853 N   0  0  0  0  0  0  0  0  0  0  0  0
   26.4741  -21.2691  -11.6107 N   0  0  0  0  0  0  0  0  0  0  0  0
   25.1406  -21.6141  -11.1011 C   0  0  0  0  0  0  0  0  0  0  0  0
   24.0830  -21.3469  -12.1638 C   0  0  0  0  0  0  0  0  0  0  0  0
   24.5770  -20.4016  -13.2129 C   0  0  0  0  0  0  0  0  0  0  0  0
   23.6122  -20.0700  -14.2904 C   0  0  2  0  0  0  0  0  0  0  0  0
   24.0224  -19.1293  -15.2709 N   0  0  0  0  0  0  0  0  0  0  0  0
   22.2080  -19.8922  -13.7960 C   0  0  0  0  0  0  0  0  0  0  0  0
   22.0170  -18.9086  -13.0431 O   0  0  0  0  0  0  0  0  0  0  0  0
   28.9200  -21.1572  -12.3662 N   0  0  0  0  0  0  0  0  0  0  0  0
   16.5989  -19.7950  -14.5160 C   0  0  0  0  0  0  0  0  0  0  0  0
   17.3948  -20.9418  -14.3629 O   0  0  0  0  0  0  0  0  0  0  0  0
   16.8146  -21.9899  -13.9284 C   0  0  0  0  0  0  0  0  0  0  0  0
   18.8150  -21.0291  -14.6592 C   0  0  1  0  0  0  0  0  0  0  0  0
   19.7582  -20.5194  -13.6344 N   0  0  0  0  0  0  0  0  0  0  0  0
   21.1290  -20.7366  -14.1130 C   0  0  0  0  0  0  0  0  0  0  0  0
   19.6284  -21.1933  -12.3082 O   0  0  0  0  0  0  0  0  0  0  0  0
   18.7432  -20.8021  -11.3308 O   0  0  0  0  0  0  0  0  0  0  0  0
  2  1  1  6
  2  3  1  0
  4  5  2  0
  4  3  1  0
  6  5  1  0
  7 12  2  0
  7  6  1  0
  8  7  1  0
  9 10  1  0
  9  8  2  0
 10 11  2  0
 11 12  1  0
 12  4  1  0
 13  2  1  0
 13 14  2  0
 16 15  1  0
 16 17  2  0
 18 16  1  0
 18 19  1  0
 19 20  1  0
 20 21  1  0
 22 21  1  1
 22 23  1  0
 22 24  1  0
 23 13  1  0
 24 25  2  0
 24 31  1  0
 27 26  1  0
 28 27  2  0
 29 27  1  0
 30 29  1  6
 31 30  1  0
 32 33  1  0
 32 30  1  0
 34 32  2  0
M  END
$$$$
