WRN.pdb
     RDKit          3D

 34 35  0  0  1  0  0  0  0  0999 V2000
   26.9793  -18.8411  -11.8668 N   0  0  0  0  0  0  0  0  0  0  0  0
   27.1645  -20.2203  -12.2230 C   0  0  1  0  0  0  0  0  0  0  0  0
   26.2150  -21.0913  -11.4404 C   0  0  0  0  0  0  0  0  0  0  0  0
   26.2547  -20.7893   -9.9927 C   0  0  0  0  0  0  0  0  0  0  0  0
   25.1897  -20.5467   -9.1550 C   0  0  0  0  0  0  0  0  0  0  0  0
   25.6787  -20.3195   -7.9266 N   0  0  0  0  0  0  0  0  0  0  0  0
   27.0251  -20.4078   -7.9458 C   0  0  0  0  0  0  0  0  0  0  0  0
   28.0220  -20.2714   -6.9980 C   0  0  0  0  0  0  0  0  0  0  0  0
   29.3482  -20.4307   -7.3613 C   0  0  0  0  0  0  0  0  0  0  0  0
   29.7281  -20.7253   -8.6516 C   0  0  0  0  0  0  0  0  0  0  0  0
   28.7406  -20.8600   -9.5878 C   0  0  0  0  0  0  0  0  0  0  0  0
   27.3959  -20.7028   -9.2402 C   0  0  0  0  0  0  0  0  0  0  0  0
   26.9298  -20.4212  -13.6743 C   0  0  0  0  0  0  0  0  0  0  0  0
   25.9315  -19.8895  -14.2104 O   0  0  0  0  0  0  0  0  0  0  0  0
   30.7496  -25.9132  -15.5054 N   0  0  0  0  0  0  0  0  0  0  0  0
   30.1251  -25.6820  -16.7523 C   0  0  0  0  0  0  0  0  0  0  0  0
   29.4910  -26.6567  -17.3221 N   0  0  0  0  0  0  0  0  0  0  0  0
   30.1655  -24.4281  -17.4024 N   0  0  0  0  0  0  0  0  0  0  0  0
   30.8500  -23.3010  -16.7559 C   0  0  0  0  0  0  0  0  0  0  0  0
   29.8332  -22.3031  -16.2180 C   0  0  0  0  0  0  0  0  0  0  0  0
   28.4537  -22.8811  -16.1823 C   0  0  0  0  0  0  0  0  0  0  0  0
   27.4159  -22.0381  -15.5388 C   0  0  2  0  0  0  0  0  0  0  0  0
   27.8213  -21.2073  -14.4619 N   0  0  0  0  0  0  0  0  0  0  0  0
   26.1164  -22.7551  -15.3261 C   0  0  0  0  0  0  0  0  0  0  0  0
   25.5802  -22.5881  -14.2057 O   0  0  0  0  0  0  0  0  0  0  0  0
   29.0590  -26.5706  -18.2693 N   0  0  0  0  0  0  0  0  0  0  0  0
   21.2853  -24.6014  -15.4533 C   0  0  0  0  0  0  0  0  0  0  0  0
   22.0625  -23.6651  -14.7526 O   0  0  0  0  0  0  0  0  0  0  0  0
   21.4906  -23.0422  -13.7993 C   0  0  0  0  0  0  0  0  0  0  0  0
   23.4559  -23.3530  -15.0239 C   0  0  1  0  0  0  0  0  0  0  0  0
   24.1172  -24.0892  -16.1286 N   0  0  0  0  0  0  0  0  0  0  0  0
   25.4859  -23.5791  -16.2755 C   0  0  0  0  0  0  0  0  0  0  0  0
   23.4328  -23.9386  -17.4472 O   0  0  0  0  0  0  0  0  0  0  0  0
   23.8884  -23.1287  -18.4613 O   0  0  0  0  0  0  0  0  0  0  0  0
  2  1  1  1
  2  3  1  0
  4  5  2  0
  4  3  1  0
  6  5  1  0
  7 12  2  0
  7  6  1  0
  8  7  1  0
  9 10  1  0
  9  8  2  0
 10 11  2  0
 11 12  1  0
 12  4  1  0
 13  2  1  0
 13 14  2  0
 16 15  1  0
 16 17  2  0
 18 16  1  0
 18 19  1  0
 19 20  1  0
 20 21  1  0
 22 21  1  1
 22 23  1  0
 22 24  1  0
 23 13  1  0
 24 25  2  0
 24 31  1  0
 27 26  1  0
 28 27  2  0
 29 27  1  0
 30 29  1  1
 31 30  1  0
 32 33  1  0
 32 30  1  0
 34 32  2  0
M  END
$$$$
