WRN.pdb
     RDKit          3D

 34 35  0  0  1  0  0  0  0  0999 V2000
   27.7829  -21.1602  -16.7900 N   0  0  0  0  0  0  0  0  0  0  0  0
   27.3436  -20.2734  -15.7488 C   0  0  1  0  0  0  0  0  0  0  0  0
   26.2560  -19.3654  -16.2640 C   0  0  0  0  0  0  0  0  0  0  0  0
   26.8020  -18.2534  -17.0726 C   0  0  0  0  0  0  0  0  0  0  0  0
   27.0278  -18.2332  -18.4303 C   0  0  0  0  0  0  0  0  0  0  0  0
   27.5283  -17.0287  -18.7440 N   0  0  0  0  0  0  0  0  0  0  0  0
   27.6323  -16.2718  -17.6318 C   0  0  0  0  0  0  0  0  0  0  0  0
   28.0696  -14.9875  -17.3671 C   0  0  0  0  0  0  0  0  0  0  0  0
   28.0431  -14.5011  -16.0713 C   0  0  0  0  0  0  0  0  0  0  0  0
   27.5913  -15.2545  -15.0110 C   0  0  0  0  0  0  0  0  0  0  0  0
   27.1591  -16.5247  -15.2747 C   0  0  0  0  0  0  0  0  0  0  0  0
   27.1782  -17.0335  -16.5764 C   0  0  0  0  0  0  0  0  0  0  0  0
   26.8302  -21.0431  -14.5889 C   0  0  0  0  0  0  0  0  0  0  0  0
   26.0088  -21.9672  -14.7850 O   0  0  0  0  0  0  0  0  0  0  0  0
   25.7088  -20.5939   -4.6949 N   0  0  0  0  0  0  0  0  0  0  0  0
   26.5101  -20.4199   -5.8464 C   0  0  0  0  0  0  0  0  0  0  0  0
   27.6967  -19.9194   -5.7104 N   0  0  0  0  0  0  0  0  0  0  0  0
   26.0671  -20.7707   -7.1414 N   0  0  0  0  0  0  0  0  0  0  0  0
   26.9354  -20.5107   -8.2970 C   0  0  0  0  0  0  0  0  0  0  0  0
   26.2347  -20.9164   -9.5868 C   0  0  0  0  0  0  0  0  0  0  0  0
   27.1004  -20.6854  -10.7849 C   0  0  0  0  0  0  0  0  0  0  0  0
   26.4794  -20.9854  -12.0988 C   0  0  2  0  0  0  0  0  0  0  0  0
   27.2575  -20.7462  -13.2615 N   0  0  0  0  0  0  0  0  0  0  0  0
   25.0505  -20.5417  -12.1953 C   0  0  0  0  0  0  0  0  0  0  0  0
   24.8741  -19.3238  -12.4325 O   0  0  0  0  0  0  0  0  0  0  0  0
   28.3402  -19.7675   -6.5191 N   0  0  0  0  0  0  0  0  0  0  0  0
   19.7412  -20.7398  -13.2068 C   0  0  0  0  0  0  0  0  0  0  0  0
   20.6181  -21.6891  -13.7561 O   0  0  0  0  0  0  0  0  0  0  0  0
   20.1457  -22.4511  -14.6617 C   0  0  0  0  0  0  0  0  0  0  0  0
   22.0101  -21.8698  -13.3791 C   0  0  1  0  0  0  0  0  0  0  0  0
   22.5567  -20.9684  -12.3358 N   0  0  0  0  0  0  0  0  0  0  0  0
   23.9335  -21.3814  -12.0373 C   0  0  0  0  0  0  0  0  0  0  0  0
   21.7881  -20.9926  -11.0559 O   0  0  0  0  0  0  0  0  0  0  0  0
   22.3119  -21.4043   -9.8526 O   0  0  0  0  0  0  0  0  0  0  0  0
  2  1  1  6
  2  3  1  0
  4  5  2  0
  4  3  1  0
  6  5  1  0
  7 12  2  0
  7  6  1  0
  8  7  1  0
  9 10  1  0
  9  8  2  0
 10 11  2  0
 11 12  1  0
 12  4  1  0
 13  2  1  0
 13 14  2  0
 16 15  1  0
 16 17  2  0
 18 16  1  0
 18 19  1  0
 19 20  1  0
 20 21  1  0
 22 21  1  1
 22 23  1  0
 22 24  1  0
 23 13  1  0
 24 25  2  0
 24 31  1  0
 27 26  1  0
 28 27  2  0
 29 27  1  0
 30 29  1  6
 31 30  1  0
 32 33  1  0
 32 30  1  0
 34 32  2  0
M  END
$$$$
