WRN.pdb
     RDKit          3D

 34 35  0  0  1  0  0  0  0  0999 V2000
   19.3838  -19.3822  -20.3100 N   0  0  0  0  0  0  0  0  0  0  0  0
   20.2208  -19.0645  -19.1866 C   0  0  1  0  0  0  0  0  0  0  0  0
   19.5024  -18.1238  -18.2529 C   0  0  0  0  0  0  0  0  0  0  0  0
   19.1837  -16.8349  -18.9053 C   0  0  0  0  0  0  0  0  0  0  0  0
   17.9741  -16.4317  -19.4239 C   0  0  0  0  0  0  0  0  0  0  0  0
   18.1326  -15.1945  -19.9179 N   0  0  0  0  0  0  0  0  0  0  0  0
   19.4059  -14.7873  -19.7342 C   0  0  0  0  0  0  0  0  0  0  0  0
   20.1120  -13.6376  -20.0348 C   0  0  0  0  0  0  0  0  0  0  0  0
   21.4511  -13.5403  -19.6975 C   0  0  0  0  0  0  0  0  0  0  0  0
   22.1265  -14.5585  -19.0626 C   0  0  0  0  0  0  0  0  0  0  0  0
   21.4264  -15.6950  -18.7660 C   0  0  0  0  0  0  0  0  0  0  0  0
   20.0738  -15.8120  -19.0985 C   0  0  0  0  0  0  0  0  0  0  0  0
   20.5944  -20.2962  -18.4485 C   0  0  0  0  0  0  0  0  0  0  0  0
   19.7886  -21.2534  -18.4109 O   0  0  0  0  0  0  0  0  0  0  0  0
   26.4853  -25.5993  -16.1661 N   0  0  0  0  0  0  0  0  0  0  0  0
   26.6686  -24.5463  -17.0912 C   0  0  0  0  0  0  0  0  0  0  0  0
   27.2613  -24.7994  -18.2144 N   0  0  0  0  0  0  0  0  0  0  0  0
   26.2304  -23.2270  -16.8386 N   0  0  0  0  0  0  0  0  0  0  0  0
   25.5384  -22.9244  -15.5790 C   0  0  0  0  0  0  0  0  0  0  0  0
   24.0359  -22.8339  -15.8097 C   0  0  0  0  0  0  0  0  0  0  0  0
   23.6739  -21.6509  -16.6510 C   0  0  0  0  0  0  0  0  0  0  0  0
   22.2315  -21.4967  -16.9632 C   0  0  2  0  0  0  0  0  0  0  0  0
   21.8520  -20.4037  -17.7853 N   0  0  0  0  0  0  0  0  0  0  0  0
   21.3395  -21.7355  -15.7821 C   0  0  0  0  0  0  0  0  0  0  0  0
   21.6050  -22.7505  -15.0965 O   0  0  0  0  0  0  0  0  0  0  0  0
   27.3923  -24.0772  -18.9576 N   0  0  0  0  0  0  0  0  0  0  0  0
   18.2227  -21.3368  -11.5347 C   0  0  0  0  0  0  0  0  0  0  0  0
   19.6069  -21.2091  -11.7331 O   0  0  0  0  0  0  0  0  0  0  0  0
   20.3379  -21.1932  -10.6894 C   0  0  0  0  0  0  0  0  0  0  0  0
   20.2678  -21.0961  -13.0227 C   0  0  1  0  0  0  0  0  0  0  0  0
   19.4154  -21.1666  -14.2344 N   0  0  0  0  0  0  0  0  0  0  0  0
   20.2567  -20.9181  -15.4116 C   0  0  0  0  0  0  0  0  0  0  0  0
   18.3066  -20.1666  -14.2498 O   0  0  0  0  0  0  0  0  0  0  0  0
   18.1965  -19.1554  -15.1757 O   0  0  0  0  0  0  0  0  0  0  0  0
  2  1  1  6
  2  3  1  0
  4  5  2  0
  4  3  1  0
  6  5  1  0
  7 12  2  0
  7  6  1  0
  8  7  1  0
  9 10  1  0
  9  8  2  0
 10 11  2  0
 11 12  1  0
 12  4  1  0
 13  2  1  0
 13 14  2  0
 16 15  1  0
 16 17  2  0
 18 16  1  0
 18 19  1  0
 19 20  1  0
 20 21  1  0
 22 21  1  1
 22 23  1  0
 22 24  1  0
 23 13  1  0
 24 25  2  0
 24 31  1  0
 27 26  1  0
 28 27  2  0
 29 27  1  0
 30 29  1  6
 31 30  1  0
 32 33  1  0
 32 30  1  0
 34 32  2  0
M  END
$$$$
