WRN.pdb
     RDKit          3D

 34 35  0  0  1  0  0  0  0  0999 V2000
   21.5942  -18.7626  -16.5702 N   0  0  0  0  0  0  0  0  0  0  0  0
   22.9371  -18.5869  -16.0914 C   0  0  1  0  0  0  0  0  0  0  0  0
   23.0839  -17.2356  -15.4394 C   0  0  0  0  0  0  0  0  0  0  0  0
   24.0231  -16.3645  -16.1795 C   0  0  0  0  0  0  0  0  0  0  0  0
   23.7225  -15.2508  -16.9304 C   0  0  0  0  0  0  0  0  0  0  0  0
   24.8727  -14.7666  -17.4228 N   0  0  0  0  0  0  0  0  0  0  0  0
   25.9052  -15.5329  -17.0132 C   0  0  0  0  0  0  0  0  0  0  0  0
   27.2733  -15.5066  -17.2091 C   0  0  0  0  0  0  0  0  0  0  0  0
   28.0741  -16.4740  -16.6268 C   0  0  0  0  0  0  0  0  0  0  0  0
   27.5591  -17.4833  -15.8444 C   0  0  0  0  0  0  0  0  0  0  0  0
   26.2056  -17.5078  -15.6517 C   0  0  0  0  0  0  0  0  0  0  0  0
   25.3805  -16.5396  -16.2313 C   0  0  0  0  0  0  0  0  0  0  0  0
   23.2845  -19.6442  -15.1101 C   0  0  0  0  0  0  0  0  0  0  0  0
   22.3932  -20.0910  -14.3531 O   0  0  0  0  0  0  0  0  0  0  0  0
   24.9672  -25.6602  -17.7779 N   0  0  0  0  0  0  0  0  0  0  0  0
   25.8093  -25.9558  -16.6817 C   0  0  0  0  0  0  0  0  0  0  0  0
   26.8354  -26.7224  -16.8727 N   0  0  0  0  0  0  0  0  0  0  0  0
   25.5755  -25.4475  -15.3842 N   0  0  0  0  0  0  0  0  0  0  0  0
   24.4801  -24.4933  -15.1688 C   0  0  0  0  0  0  0  0  0  0  0  0
   24.8858  -23.1058  -15.6475 C   0  0  0  0  0  0  0  0  0  0  0  0
   25.6649  -22.3655  -14.6067 C   0  0  0  0  0  0  0  0  0  0  0  0
   25.0293  -21.1332  -14.0780 C   0  0  2  0  0  0  0  0  0  0  0  0
   24.6123  -20.1555  -15.0185 N   0  0  0  0  0  0  0  0  0  0  0  0
   25.7160  -20.5855  -12.8629 C   0  0  0  0  0  0  0  0  0  0  0  0
   26.8369  -20.0612  -13.0617 O   0  0  0  0  0  0  0  0  0  0  0  0
   27.4718  -27.0155  -16.0980 N   0  0  0  0  0  0  0  0  0  0  0  0
   26.9469  -19.5439   -7.6641 C   0  0  0  0  0  0  0  0  0  0  0  0
   25.6930  -20.1404   -7.8734 O   0  0  0  0  0  0  0  0  0  0  0  0
   25.0124  -20.4266   -6.8347 C   0  0  0  0  0  0  0  0  0  0  0  0
   25.1131  -20.4534   -9.1689 C   0  0  1  0  0  0  0  0  0  0  0  0
   25.9505  -20.2085  -10.3682 N   0  0  0  0  0  0  0  0  0  0  0  0
   25.1967  -20.6263  -11.5567 C   0  0  0  0  0  0  0  0  0  0  0  0
   27.2424  -20.9572  -10.3637 O   0  0  0  0  0  0  0  0  0  0  0  0
   28.4426  -20.4165   -9.9646 O   0  0  0  0  0  0  0  0  0  0  0  0
  2  1  1  1
  2  3  1  0
  4  5  2  0
  4  3  1  0
  6  5  1  0
  7 12  2  0
  7  6  1  0
  8  7  1  0
  9 10  1  0
  9  8  2  0
 10 11  2  0
 11 12  1  0
 12  4  1  0
 13  2  1  0
 13 14  2  0
 16 15  1  0
 16 17  2  0
 18 16  1  0
 18 19  1  0
 19 20  1  0
 20 21  1  0
 22 21  1  6
 22 23  1  0
 22 24  1  0
 23 13  1  0
 24 25  2  0
 24 31  1  0
 27 26  1  0
 28 27  2  0
 29 27  1  0
 30 29  1  6
 31 30  1  0
 32 33  1  0
 32 30  1  0
 34 32  2  0
M  END
$$$$
