WRN.pdb
     RDKit          3D

 34 35  0  0  1  0  0  0  0  0999 V2000
   25.1922  -19.1985  -20.3818 N   0  0  0  0  0  0  0  0  0  0  0  0
   25.1046  -18.3997  -19.1911 C   0  0  1  0  0  0  0  0  0  0  0  0
   23.9931  -17.3899  -19.3234 C   0  0  0  0  0  0  0  0  0  0  0  0
   24.4605  -16.1329  -19.9479 C   0  0  0  0  0  0  0  0  0  0  0  0
   25.6798  -15.5155  -19.7840 C   0  0  0  0  0  0  0  0  0  0  0  0
   25.6793  -14.4033  -20.5342 N   0  0  0  0  0  0  0  0  0  0  0  0
   24.4986  -14.2840  -21.1763 C   0  0  0  0  0  0  0  0  0  0  0  0
   23.9579  -13.3634  -22.0544 C   0  0  0  0  0  0  0  0  0  0  0  0
   22.6753  -13.5440  -22.5428 C   0  0  0  0  0  0  0  0  0  0  0  0
   21.8965  -14.6222  -22.1863 C   0  0  0  0  0  0  0  0  0  0  0  0
   22.4329  -15.5318  -21.3177 C   0  0  0  0  0  0  0  0  0  0  0  0
   23.7262  -15.3667  -20.8138 C   0  0  0  0  0  0  0  0  0  0  0  0
   24.8506  -19.2550  -18.0056 C   0  0  0  0  0  0  0  0  0  0  0  0
   24.2619  -20.3492  -18.1573 O   0  0  0  0  0  0  0  0  0  0  0  0
   26.9704  -19.8158   -9.9249 N   0  0  0  0  0  0  0  0  0  0  0  0
   25.8831  -20.7092  -10.0586 C   0  0  0  0  0  0  0  0  0  0  0  0
   25.0611  -20.8436   -9.0670 N   0  0  0  0  0  0  0  0  0  0  0  0
   25.6575  -21.4625  -11.2325 N   0  0  0  0  0  0  0  0  0  0  0  0
   26.2254  -21.0023  -12.5063 C   0  0  0  0  0  0  0  0  0  0  0  0
   25.4376  -19.8120  -13.0372 C   0  0  0  0  0  0  0  0  0  0  0  0
   25.9440  -19.3618  -14.3710 C   0  0  0  0  0  0  0  0  0  0  0  0
   25.0375  -19.6013  -15.5212 C   0  0  2  0  0  0  0  0  0  0  0  0
   25.2658  -18.8495  -16.7033 N   0  0  0  0  0  0  0  0  0  0  0  0
   23.5972  -19.7299  -15.1253 C   0  0  0  0  0  0  0  0  0  0  0  0
   23.0477  -18.6778  -14.7230 O   0  0  0  0  0  0  0  0  0  0  0  0
   24.2178  -21.4583   -9.1135 N   0  0  0  0  0  0  0  0  0  0  0  0
   18.8961  -22.4650  -14.6403 C   0  0  0  0  0  0  0  0  0  0  0  0
   20.0760  -23.0829  -14.1954 O   0  0  0  0  0  0  0  0  0  0  0  0
   19.9991  -24.3189  -13.8947 C   0  0  0  0  0  0  0  0  0  0  0  0
   21.3676  -22.4318  -14.0531 C   0  0  2  0  0  0  0  0  0  0  0  0
   21.5055  -21.0620  -14.6047 N   0  0  0  0  0  0  0  0  0  0  0  0
   22.8516  -20.9214  -15.1733 C   0  0  0  0  0  0  0  0  0  0  0  0
   21.3270  -19.9827  -13.5883 O   0  0  0  0  0  0  0  0  0  0  0  0
   22.3412  -19.1618  -13.1530 O   0  0  0  0  0  0  0  0  0  0  0  0
  2  1  1  6
  2  3  1  0
  4  5  2  0
  4  3  1  0
  6  5  1  0
  7 12  2  0
  7  6  1  0
  8  7  1  0
  9 10  1  0
  9  8  2  0
 10 11  2  0
 11 12  1  0
 12  4  1  0
 13  2  1  0
 13 14  2  0
 16 15  1  0
 16 17  2  0
 18 16  1  0
 18 19  1  0
 19 20  1  0
 20 21  1  0
 22 21  1  1
 22 23  1  0
 22 24  1  0
 23 13  1  0
 24 25  2  0
 24 31  1  0
 27 26  1  0
 28 27  2  0
 29 27  1  0
 30 29  1  6
 31 30  1  0
 32 33  1  0
 32 30  1  0
 34 32  2  0
M  END
$$$$
