WRN.pdb
     RDKit          3D

 34 35  0  0  1  0  0  0  0  0999 V2000
   26.7465  -18.4941   -8.1937 N   0  0  0  0  0  0  0  0  0  0  0  0
   27.3398  -19.6951   -8.7126 C   0  0  1  0  0  0  0  0  0  0  0  0
   27.3851  -20.7564   -7.6429 C   0  0  0  0  0  0  0  0  0  0  0  0
   28.3158  -20.3993   -6.5498 C   0  0  0  0  0  0  0  0  0  0  0  0
   29.6813  -20.2434   -6.6256 C   0  0  0  0  0  0  0  0  0  0  0  0
   30.1246  -19.9186   -5.4018 N   0  0  0  0  0  0  0  0  0  0  0  0
   29.0883  -19.8602   -4.5395 C   0  0  0  0  0  0  0  0  0  0  0  0
   28.9593  -19.5806   -3.1919 C   0  0  0  0  0  0  0  0  0  0  0  0
   27.7099  -19.6078   -2.5964 C   0  0  0  0  0  0  0  0  0  0  0  0
   26.5649  -19.9071   -3.3003 C   0  0  0  0  0  0  0  0  0  0  0  0
   26.6944  -20.1835   -4.6332 C   0  0  0  0  0  0  0  0  0  0  0  0
   27.9474  -20.1610   -5.2523 C   0  0  0  0  0  0  0  0  0  0  0  0
   26.5653  -20.2016   -9.8724 C   0  0  0  0  0  0  0  0  0  0  0  0
   25.3177  -20.1005   -9.8642 O   0  0  0  0  0  0  0  0  0  0  0  0
   28.4076  -18.3805  -17.3587 N   0  0  0  0  0  0  0  0  0  0  0  0
   27.7396  -19.6248  -17.4199 C   0  0  0  0  0  0  0  0  0  0  0  0
   28.0020  -20.4255  -18.4032 N   0  0  0  0  0  0  0  0  0  0  0  0
   26.7957  -20.0300  -16.4496 N   0  0  0  0  0  0  0  0  0  0  0  0
   26.8559  -19.4555  -15.0993 C   0  0  0  0  0  0  0  0  0  0  0  0
   28.0652  -19.9961  -14.3481 C   0  0  0  0  0  0  0  0  0  0  0  0
   27.6880  -21.0980  -13.4090 C   0  0  0  0  0  0  0  0  0  0  0  0
   26.7439  -20.7291  -12.3253 C   0  0  2  0  0  0  0  0  0  0  0  0
   27.2195  -20.7985  -10.9898 N   0  0  0  0  0  0  0  0  0  0  0  0
   25.3622  -21.2739  -12.5305 C   0  0  0  0  0  0  0  0  0  0  0  0
   25.1815  -22.4549  -12.1518 O   0  0  0  0  0  0  0  0  0  0  0  0
   27.4922  -21.3256  -18.5483 N   0  0  0  0  0  0  0  0  0  0  0  0
   20.0459  -21.7230  -13.0902 C   0  0  0  0  0  0  0  0  0  0  0  0
   20.6448  -20.7541  -12.2690 O   0  0  0  0  0  0  0  0  0  0  0  0
   19.8919  -20.1777  -11.4176 C   0  0  0  0  0  0  0  0  0  0  0  0
   22.0433  -20.3604  -12.3104 C   0  0  2  0  0  0  0  0  0  0  0  0
   22.9340  -21.1035  -13.2346 N   0  0  0  0  0  0  0  0  0  0  0  0
   24.2935  -20.5642  -13.1065 C   0  0  0  0  0  0  0  0  0  0  0  0
   22.5367  -20.9965  -14.6700 O   0  0  0  0  0  0  0  0  0  0  0  0
   23.3016  -20.3845  -15.6355 O   0  0  0  0  0  0  0  0  0  0  0  0
  2  1  1  1
  2  3  1  0
  4  5  2  0
  4  3  1  0
  6  5  1  0
  7 12  2  0
  7  6  1  0
  8  7  1  0
  9 10  1  0
  9  8  2  0
 10 11  2  0
 11 12  1  0
 12  4  1  0
 13  2  1  0
 13 14  2  0
 16 15  1  0
 16 17  2  0
 18 16  1  0
 18 19  1  0
 19 20  1  0
 20 21  1  0
 22 21  1  6
 22 23  1  0
 22 24  1  0
 23 13  1  0
 24 25  2  0
 24 31  1  0
 27 26  1  0
 28 27  2  0
 29 27  1  0
 30 29  1  1
 31 30  1  0
 32 33  1  0
 32 30  1  0
 34 32  2  0
M  END
$$$$
