ACM.pdb
     RDKit          3D

 20 19  0  0  1  0  0  0  0  0999 V2000
   11.7602  -17.9380   19.8913 C   0  0  0  0  0  0  0  0  0  0  0  0
   10.4811  -18.6416   19.4996 C   0  0  2  0  0  0  0  0  0  0  0  0
   10.1466  -18.2944   18.1322 N   0  0  0  0  0  0  0  0  0  0  0  0
    9.3995  -18.1845   20.4221 C   0  0  0  0  0  0  0  0  0  0  0  0
    8.7575  -17.1293   20.2091 O   0  0  0  0  0  0  0  0  0  0  0  0
    9.0568  -18.9300   21.5788 N   0  0  0  0  0  0  0  0  0  0  0  0
    7.9674  -18.5389   22.4505 C   0  0  1  0  0  0  0  0  0  0  0  0
    7.4869  -19.7679   23.1645 C   0  0  0  0  0  0  0  0  0  0  0  0
    6.1477  -19.3125   24.3257 S   0  0  0  0  0  0  0  0  0  0  0  0
    8.4573  -17.4958   23.3911 C   0  0  0  0  0  0  0  0  0  0  0  0
    9.6728  -17.4428   23.6973 O   0  0  0  0  0  0  0  0  0  0  0  0
    6.8547  -11.3412   28.0666 C   0  0  0  0  0  0  0  0  0  0  0  0
    6.2166  -12.5279   26.8421 S   0  0  0  0  0  0  0  0  0  0  0  0
    7.5876  -13.6909   26.4051 C   0  0  0  0  0  0  0  0  0  0  0  0
    7.0711  -14.6191   25.3470 C   0  0  0  0  0  0  0  0  0  0  0  0
    8.1368  -15.5591   24.8921 C   0  0  2  0  0  0  0  0  0  0  0  0
    7.5751  -16.5486   23.9569 N   0  0  0  0  0  0  0  0  0  0  0  0
    8.7474  -16.3147   25.9918 C   0  0  0  0  0  0  0  0  0  0  0  0
    9.8675  -16.0048   26.4379 O   0  0  0  0  0  0  0  0  0  0  0  0
    8.0792  -17.3909   26.5513 O   0  0  0  0  0  0  0  0  0  0  0  0
  2  1  1  1
  2  3  1  0
  4  2  1  0
  4  5  2  0
  6  4  1  0
  7  6  1  0
  7 10  1  0
  7  8  1  1
  9  8  1  0
 10 17  1  0
 11 10  2  0
 13 12  1  0
 13 14  1  0
 14 15  1  0
 16 15  1  1
 16 18  1  0
 17 16  1  0
 18 19  2  0
 18 20  1  0
M  END
$$$$
