ACM.pdb
     RDKit          3D

 20 19  0  0  1  0  0  0  0  0999 V2000
    7.4621  -13.1204   17.7027 C   0  0  0  0  0  0  0  0  0  0  0  0
    8.6671  -13.5026   18.5314 C   0  0  2  0  0  0  0  0  0  0  0  0
    9.5592  -14.3148   17.7273 N   0  0  0  0  0  0  0  0  0  0  0  0
    8.1893  -14.2831   19.7114 C   0  0  0  0  0  0  0  0  0  0  0  0
    7.3753  -13.7992   20.5325 O   0  0  0  0  0  0  0  0  0  0  0  0
    8.6405  -15.6065   19.9483 N   0  0  0  0  0  0  0  0  0  0  0  0
    8.1284  -16.4092   21.0406 C   0  0  1  0  0  0  0  0  0  0  0  0
    8.5425  -17.8309   20.7989 C   0  0  0  0  0  0  0  0  0  0  0  0
    8.4490  -18.7671   22.3686 S   0  0  0  0  0  0  0  0  0  0  0  0
    8.6661  -15.8753   22.3207 C   0  0  0  0  0  0  0  0  0  0  0  0
    9.8815  -15.5807   22.4205 O   0  0  0  0  0  0  0  0  0  0  0  0
    6.7610  -11.0163   28.0828 C   0  0  0  0  0  0  0  0  0  0  0  0
    6.1904  -12.1615   26.7876 S   0  0  0  0  0  0  0  0  0  0  0  0
    7.6475  -13.1465   26.2133 C   0  0  0  0  0  0  0  0  0  0  0  0
    7.2068  -13.9551   25.0300 C   0  0  0  0  0  0  0  0  0  0  0  0
    8.3167  -14.8149   24.5251 C   0  0  2  0  0  0  0  0  0  0  0  0
    7.8301  -15.6885   23.4439 N   0  0  0  0  0  0  0  0  0  0  0  0
    8.8818  -15.6923   25.5567 C   0  0  0  0  0  0  0  0  0  0  0  0
    8.4776  -16.8615   25.6951 O   0  0  0  0  0  0  0  0  0  0  0  0
    9.8799  -15.2260   26.3958 O   0  0  0  0  0  0  0  0  0  0  0  0
  2  1  1  6
  2  3  1  0
  4  2  1  0
  4  5  2  0
  6  4  1  0
  7  6  1  0
  7 10  1  0
  7  8  1  6
  9  8  1  0
 10 17  1  0
 11 10  2  0
 13 12  1  0
 13 14  1  0
 14 15  1  0
 16 15  1  1
 16 18  1  0
 17 16  1  0
 18 19  2  0
 18 20  1  0
M  END
$$$$
