ACM.pdb
     RDKit          3D

 20 19  0  0  1  0  0  0  0  0999 V2000
    7.7643  -12.7290   18.6159 C   0  0  0  0  0  0  0  0  0  0  0  0
    8.9289  -13.2185   19.4460 C   0  0  2  0  0  0  0  0  0  0  0  0
    9.7296  -14.1297   18.6517 N   0  0  0  0  0  0  0  0  0  0  0  0
    8.3808  -13.9279   20.6403 C   0  0  0  0  0  0  0  0  0  0  0  0
    7.5886  -13.3650   21.4318 O   0  0  0  0  0  0  0  0  0  0  0  0
    8.7377  -15.2705   20.9250 N   0  0  0  0  0  0  0  0  0  0  0  0
    8.1754  -15.9937   22.0477 C   0  0  1  0  0  0  0  0  0  0  0  0
    8.3434  -17.4604   21.7795 C   0  0  0  0  0  0  0  0  0  0  0  0
   10.1250  -17.8787   21.7790 S   0  0  0  0  0  0  0  0  0  0  0  0
    8.8707  -15.5647   23.2908 C   0  0  0  0  0  0  0  0  0  0  0  0
   10.0750  -15.2150   23.2516 O   0  0  0  0  0  0  0  0  0  0  0  0
    5.2283  -12.1409   26.5323 C   0  0  0  0  0  0  0  0  0  0  0  0
    6.9418  -11.7751   27.0268 S   0  0  0  0  0  0  0  0  0  0  0  0
    8.0709  -12.7893   25.9686 C   0  0  0  0  0  0  0  0  0  0  0  0
    8.1025  -14.1744   26.5418 C   0  0  0  0  0  0  0  0  0  0  0  0
    8.9514  -15.0784   25.7122 C   0  0  2  0  0  0  0  0  0  0  0  0
    8.1991  -15.5403   24.5333 N   0  0  0  0  0  0  0  0  0  0  0  0
    9.3899  -16.2795   26.4322 C   0  0  0  0  0  0  0  0  0  0  0  0
    8.8922  -17.3931   26.1835 O   0  0  0  0  0  0  0  0  0  0  0  0
   10.3709  -16.1877   27.4053 O   0  0  0  0  0  0  0  0  0  0  0  0
  2  1  1  6
  2  3  1  0
  4  2  1  0
  4  5  2  0
  6  4  1  0
  7  6  1  0
  7 10  1  0
  7  8  1  6
  9  8  1  0
 10 17  1  0
 11 10  2  0
 13 12  1  0
 13 14  1  0
 14 15  1  0
 16 15  1  1
 16 18  1  0
 17 16  1  0
 18 19  2  0
 18 20  1  0
M  END
$$$$
