ACM.pdb
     RDKit          3D

 20 19  0  0  1  0  0  0  0  0999 V2000
    7.8363  -12.7953   18.3087 C   0  0  0  0  0  0  0  0  0  0  0  0
    8.8057  -13.5893   19.1539 C   0  0  2  0  0  0  0  0  0  0  0  0
    9.2813  -14.7267   18.3908 N   0  0  0  0  0  0  0  0  0  0  0  0
    8.0815  -14.0583   20.3727 C   0  0  0  0  0  0  0  0  0  0  0  0
    7.5611  -13.2513   21.1782 O   0  0  0  0  0  0  0  0  0  0  0  0
    7.9548  -15.4400   20.6657 N   0  0  0  0  0  0  0  0  0  0  0  0
    7.2752  -15.9145   21.8542 C   0  0  1  0  0  0  0  0  0  0  0  0
    6.9411  -17.3621   21.6449 C   0  0  0  0  0  0  0  0  0  0  0  0
    6.2629  -18.0603   23.1947 S   0  0  0  0  0  0  0  0  0  0  0  0
    8.1626  -15.7049   23.0295 C   0  0  0  0  0  0  0  0  0  0  0  0
    9.4018  -15.8681   22.9216 O   0  0  0  0  0  0  0  0  0  0  0  0
    5.5867  -12.3408   27.4405 C   0  0  0  0  0  0  0  0  0  0  0  0
    7.2562  -11.6633   27.1792 S   0  0  0  0  0  0  0  0  0  0  0  0
    8.1130  -12.7218   25.9266 C   0  0  0  0  0  0  0  0  0  0  0  0
    7.9923  -14.1454   26.3814 C   0  0  0  0  0  0  0  0  0  0  0  0
    8.5880  -15.0795   25.3820 C   0  0  2  0  0  0  0  0  0  0  0  0
    7.6373  -15.3207   24.2834 N   0  0  0  0  0  0  0  0  0  0  0  0
    8.9239  -16.3914   25.9472 C   0  0  0  0  0  0  0  0  0  0  0  0
    8.0866  -17.3122   25.9711 O   0  0  0  0  0  0  0  0  0  0  0  0
   10.1872  -16.6227   26.4651 O   0  0  0  0  0  0  0  0  0  0  0  0
  2  1  1  6
  2  3  1  0
  4  2  1  0
  4  5  2  0
  6  4  1  0
  7  6  1  0
  7 10  1  0
  7  8  1  6
  9  8  1  0
 10 17  1  0
 11 10  2  0
 13 12  1  0
 13 14  1  0
 14 15  1  0
 16 15  1  1
 16 18  1  0
 17 16  1  0
 18 19  2  0
 18 20  1  0
M  END
$$$$
