ACM.pdb
     RDKit          3D

 20 19  0  0  1  0  0  0  0  0999 V2000
    7.6075  -12.7250   18.3633 C   0  0  0  0  0  0  0  0  0  0  0  0
    8.7118  -13.3289   19.2003 C   0  0  2  0  0  0  0  0  0  0  0  0
    9.4389  -14.2965   18.4020 N   0  0  0  0  0  0  0  0  0  0  0  0
    8.0858  -14.0036   20.3762 C   0  0  0  0  0  0  0  0  0  0  0  0
    7.3900  -13.3691   21.2034 O   0  0  0  0  0  0  0  0  0  0  0  0
    8.2557  -15.3932   20.6022 N   0  0  0  0  0  0  0  0  0  0  0  0
    7.6881  -16.0592   21.7571 C   0  0  1  0  0  0  0  0  0  0  0  0
    7.7723  -17.5386   21.5214 C   0  0  0  0  0  0  0  0  0  0  0  0
    9.5297  -18.0451   21.4552 S   0  0  0  0  0  0  0  0  0  0  0  0
    8.4390  -15.6380   22.9702 C   0  0  0  0  0  0  0  0  0  0  0  0
    9.6364  -15.2753   22.8769 O   0  0  0  0  0  0  0  0  0  0  0  0
    6.1151  -10.8916   26.2551 C   0  0  0  0  0  0  0  0  0  0  0  0
    6.6348  -12.2781   27.3144 S   0  0  0  0  0  0  0  0  0  0  0  0
    8.0889  -13.0952   26.5139 C   0  0  0  0  0  0  0  0  0  0  0  0
    7.7891  -14.5616   26.4245 C   0  0  0  0  0  0  0  0  0  0  0  0
    8.6462  -15.2221   25.3972 C   0  0  2  0  0  0  0  0  0  0  0  0
    7.8285  -15.6357   24.2441 N   0  0  0  0  0  0  0  0  0  0  0  0
    9.3174  -16.4284   25.8949 C   0  0  0  0  0  0  0  0  0  0  0  0
    8.8826  -17.5624   25.6220 O   0  0  0  0  0  0  0  0  0  0  0  0
   10.4522  -16.3186   26.6810 O   0  0  0  0  0  0  0  0  0  0  0  0
  2  1  1  6
  2  3  1  0
  4  2  1  0
  4  5  2  0
  6  4  1  0
  7  6  1  0
  7 10  1  0
  7  8  1  6
  9  8  1  0
 10 17  1  0
 11 10  2  0
 13 12  1  0
 13 14  1  0
 14 15  1  0
 16 15  1  1
 16 18  1  0
 17 16  1  0
 18 19  2  0
 18 20  1  0
M  END
$$$$
