ACM.pdb
     RDKit          3D

 20 19  0  0  1  0  0  0  0  0999 V2000
    7.5171  -17.9272   22.4406 C   0  0  0  0  0  0  0  0  0  0  0  0
    7.0463  -16.6823   21.7242 C   0  0  2  0  0  0  0  0  0  0  0  0
    7.4535  -16.7505   20.3343 N   0  0  0  0  0  0  0  0  0  0  0  0
    7.6777  -15.5010   22.3843 C   0  0  0  0  0  0  0  0  0  0  0  0
    8.8099  -15.0856   22.0430 O   0  0  0  0  0  0  0  0  0  0  0  0
    7.0173  -14.8020   23.4266 N   0  0  0  0  0  0  0  0  0  0  0  0
    7.6050  -13.6428   24.0673 C   0  0  1  0  0  0  0  0  0  0  0  0
    6.5236  -12.9489   24.8420 C   0  0  0  0  0  0  0  0  0  0  0  0
    6.1973  -13.8696   26.3896 S   0  0  0  0  0  0  0  0  0  0  0  0
    8.7231  -14.0926   24.9392 C   0  0  0  0  0  0  0  0  0  0  0  0
    9.3145  -13.2716   25.6809 O   0  0  0  0  0  0  0  0  0  0  0  0
   11.7528  -13.5112   28.8250 C   0  0  0  0  0  0  0  0  0  0  0  0
   10.2848  -14.5010   29.2489 S   0  0  0  0  0  0  0  0  0  0  0  0
   10.4324  -16.1364   28.3964 C   0  0  0  0  0  0  0  0  0  0  0  0
    9.4540  -16.1423   27.2602 C   0  0  0  0  0  0  0  0  0  0  0  0
   10.1336  -15.8424   25.9663 C   0  0  2  0  0  0  0  0  0  0  0  0
    9.1423  -15.4415   24.9535 N   0  0  0  0  0  0  0  0  0  0  0  0
   10.8599  -16.9926   25.4160 C   0  0  0  0  0  0  0  0  0  0  0  0
   10.4377  -17.5968   24.4128 O   0  0  0  0  0  0  0  0  0  0  0  0
   12.0337  -17.4235   26.0113 O   0  0  0  0  0  0  0  0  0  0  0  0
  2  1  1  1
  2  3  1  0
  4  2  1  0
  4  5  2  0
  6  4  1  0
  7  6  1  0
  7 10  1  0
  7  8  1  1
  9  8  1  0
 10 17  1  0
 11 10  2  0
 13 12  1  0
 13 14  1  0
 14 15  1  0
 16 15  1  1
 16 18  1  0
 17 16  1  0
 18 19  2  0
 18 20  1  0
M  END
$$$$
