ACM.pdb
     RDKit          3D

 20 19  0  0  1  0  0  0  0  0999 V2000
    8.1050  -12.4247   19.1533 C   0  0  0  0  0  0  0  0  0  0  0  0
    8.5496  -13.7871   18.6728 C   0  0  2  0  0  0  0  0  0  0  0  0
    7.8356  -14.1186   17.4552 N   0  0  0  0  0  0  0  0  0  0  0  0
    8.2300  -14.7818   19.7397 C   0  0  0  0  0  0  0  0  0  0  0  0
    7.0993  -15.3163   19.8213 O   0  0  0  0  0  0  0  0  0  0  0  0
    9.1976  -15.1603   20.7048 N   0  0  0  0  0  0  0  0  0  0  0  0
    8.8887  -16.0752   21.7852 C   0  0  1  0  0  0  0  0  0  0  0  0
    9.7228  -17.3079   21.5955 C   0  0  0  0  0  0  0  0  0  0  0  0
   11.4901  -16.8398   21.5118 S   0  0  0  0  0  0  0  0  0  0  0  0
    9.1683  -15.3991   23.0803 C   0  0  0  0  0  0  0  0  0  0  0  0
   10.1340  -14.6047   23.1819 O   0  0  0  0  0  0  0  0  0  0  0  0
    6.3206  -11.1073   25.8976 C   0  0  0  0  0  0  0  0  0  0  0  0
    6.4859  -12.0896   27.4215 S   0  0  0  0  0  0  0  0  0  0  0  0
    7.8189  -13.3439   27.1512 C   0  0  0  0  0  0  0  0  0  0  0  0
    7.5940  -13.9567   25.8013 C   0  0  0  0  0  0  0  0  0  0  0  0
    8.6915  -14.9060   25.4543 C   0  0  2  0  0  0  0  0  0  0  0  0
    8.3615  -15.6323   24.2162 N   0  0  0  0  0  0  0  0  0  0  0  0
    8.9269  -15.9190   26.4896 C   0  0  0  0  0  0  0  0  0  0  0  0
    9.3568  -15.5991   27.6132 O   0  0  0  0  0  0  0  0  0  0  0  0
    8.6713  -17.2544   26.2267 O   0  0  0  0  0  0  0  0  0  0  0  0
  2  1  1  1
  2  3  1  0
  4  2  1  0
  4  5  2  0
  6  4  1  0
  7  6  1  0
  7 10  1  0
  7  8  1  6
  9  8  1  0
 10 17  1  0
 11 10  2  0
 13 12  1  0
 13 14  1  0
 14 15  1  0
 16 15  1  1
 16 18  1  0
 17 16  1  0
 18 19  2  0
 18 20  1  0
M  END
$$$$
