WNP.pdb
     RDKit          3D

 30 32  0  0  1  0  0  0  0  0999 V2000
    5.8370  -17.5244   23.6706 N   0  0  0  0  0  0  0  0  0  0  0  0
    6.6218  -16.3327   23.5143 C   0  0  1  0  0  0  0  0  0  0  0  0
    7.4184  -16.0131   24.7522 C   0  0  0  0  0  0  0  0  0  0  0  0
    6.7375  -15.0730   25.6675 C   0  0  0  0  0  0  0  0  0  0  0  0
    5.6332  -15.3462   26.4828 C   0  0  0  0  0  0  0  0  0  0  0  0
    5.2884  -14.2328   27.1475 N   0  0  0  0  0  0  0  0  0  0  0  0
    6.1158  -13.2248   26.8123 C   0  0  0  0  0  0  0  0  0  0  0  0
    6.1420  -11.9164   27.2468 C   0  0  0  0  0  0  0  0  0  0  0  0
    7.1184  -11.0897   26.7368 C   0  0  0  0  0  0  0  0  0  0  0  0
    8.0286  -11.5592   25.8295 C   0  0  0  0  0  0  0  0  0  0  0  0
    7.9753  -12.8793   25.4127 C   0  0  0  0  0  0  0  0  0  0  0  0
    7.0232  -13.7442   25.8884 C   0  0  0  0  0  0  0  0  0  0  0  0
    7.6043  -16.5375   22.4150 C   0  0  0  0  0  0  0  0  0  0  0  0
    8.0425  -17.7053   22.2360 O   0  0  0  0  0  0  0  0  0  0  0  0
    7.1184  -13.2062   19.1960 N   0  0  0  0  0  0  0  0  0  0  0  0
    7.9619  -14.3129   18.9002 C   0  0  0  0  0  0  0  0  0  0  0  0
    7.6632  -15.0470   17.9499 O   0  0  0  0  0  0  0  0  0  0  0  0
    9.1380  -14.5057   19.7526 C   0  0  0  0  0  0  0  0  0  0  0  0
    9.0686  -15.7738   20.5978 C   0  0  2  0  0  0  0  0  0  0  0  0
    8.0414  -15.4714   21.5902 N   0  0  0  0  0  0  0  0  0  0  0  0
   10.3415  -16.1075   21.2147 C   0  0  0  0  0  0  0  0  0  0  0  0
   10.6518  -15.4741   22.2699 O   0  0  0  0  0  0  0  0  0  0  0  0
   11.2119  -17.0694   20.7130 N   0  0  0  0  0  0  0  0  0  0  0  0
   10.9455  -17.8176   19.4755 C   0  0  0  0  0  0  0  0  0  0  0  0
   11.6130  -19.1407   19.7111 C   0  0  0  0  0  0  0  0  0  0  0  0
   12.6787  -18.9213   20.7279 C   0  0  0  0  0  0  0  0  0  0  0  0
   12.4893  -17.4900   21.2212 C   0  0  1  0  0  0  0  0  0  0  0  0
   13.5745  -16.6578   20.5804 C   0  0  0  0  0  0  0  0  0  0  0  0
   14.6853  -16.6345   21.1434 O   0  0  0  0  0  0  0  0  0  0  0  0
   13.3370  -15.9523   19.4153 O   0  0  0  0  0  0  0  0  0  0  0  0
  2  1  1  1
  2  3  1  0
  4  3  1  0
  4  5  2  0
  6  5  1  0
  7 12  2  0
  7  6  1  0
  8  7  1  0
  9 10  1  0
  9  8  2  0
 10 11  2  0
 11 12  1  0
 12  4  1  0
 13  2  1  0
 13 20  1  0
 14 13  2  0
 16 15  1  0
 17 16  2  0
 18 16  1  0
 19 20  1  0
 19 18  1  6
 21 19  1  0
 22 21  2  0
 23 21  1  0
 24 23  1  0
 25 26  1  0
 25 24  1  0
 26 27  1  0
 27 23  1  0
 27 28  1  6
 28 29  2  0
 28 30  1  0
M  END
$$$$
