WNP.pdb
     RDKit          3D

 30 32  0  0  1  0  0  0  0  0999 V2000
    5.7767  -18.2217   24.3175 N   0  0  0  0  0  0  0  0  0  0  0  0
    6.1776  -16.8530   24.1553 C   0  0  1  0  0  0  0  0  0  0  0  0
    7.1390  -16.4138   25.2285 C   0  0  0  0  0  0  0  0  0  0  0  0
    6.7525  -15.1479   25.8869 C   0  0  0  0  0  0  0  0  0  0  0  0
    5.4828  -14.8032   26.3643 C   0  0  0  0  0  0  0  0  0  0  0  0
    5.5237  -13.5621   26.8725 N   0  0  0  0  0  0  0  0  0  0  0  0
    6.7679  -13.0606   26.7563 C   0  0  0  0  0  0  0  0  0  0  0  0
    7.2710  -11.8364   27.1432 C   0  0  0  0  0  0  0  0  0  0  0  0
    8.6045  -11.5863   26.9067 C   0  0  0  0  0  0  0  0  0  0  0  0
    9.3971  -12.5269   26.3073 C   0  0  0  0  0  0  0  0  0  0  0  0
    8.8611  -13.7475   25.9302 C   0  0  0  0  0  0  0  0  0  0  0  0
    7.5397  -14.0472   26.1417 C   0  0  0  0  0  0  0  0  0  0  0  0
    6.8901  -16.7049   22.8567 C   0  0  0  0  0  0  0  0  0  0  0  0
    7.4591  -17.7257   22.3853 O   0  0  0  0  0  0  0  0  0  0  0  0
    7.3928  -13.8050   17.9640 N   0  0  0  0  0  0  0  0  0  0  0  0
    8.1822  -13.7403   19.1458 C   0  0  0  0  0  0  0  0  0  0  0  0
    9.3842  -13.4668   19.0400 O   0  0  0  0  0  0  0  0  0  0  0  0
    7.5061  -14.0054   20.4184 C   0  0  0  0  0  0  0  0  0  0  0  0
    7.6945  -15.4356   20.9147 C   0  0  2  0  0  0  0  0  0  0  0  0
    6.9369  -15.4707   22.1622 N   0  0  0  0  0  0  0  0  0  0  0  0
    9.0919  -15.7807   21.1154 C   0  0  0  0  0  0  0  0  0  0  0  0
    9.6334  -15.3808   22.1914 O   0  0  0  0  0  0  0  0  0  0  0  0
    9.8427  -16.5147   20.2032 N   0  0  0  0  0  0  0  0  0  0  0  0
    9.3169  -16.9407   18.8977 C   0  0  0  0  0  0  0  0  0  0  0  0
   10.0419  -18.2261   18.6264 C   0  0  0  0  0  0  0  0  0  0  0  0
   11.3054  -18.1937   19.4139 C   0  0  0  0  0  0  0  0  0  0  0  0
   11.2085  -16.9538   20.2977 C   0  0  1  0  0  0  0  0  0  0  0  0
   12.1077  -15.9066   19.6849 C   0  0  0  0  0  0  0  0  0  0  0  0
   11.5613  -14.9779   19.0601 O   0  0  0  0  0  0  0  0  0  0  0  0
   13.4820  -15.9825   19.8162 O   0  0  0  0  0  0  0  0  0  0  0  0
  2  1  1  1
  2  3  1  0
  4  3  1  0
  4  5  2  0
  6  5  1  0
  7 12  2  0
  7  6  1  0
  8  7  1  0
  9 10  1  0
  9  8  2  0
 10 11  2  0
 11 12  1  0
 12  4  1  0
 13  2  1  0
 13 20  1  0
 14 13  2  0
 16 15  1  0
 17 16  2  0
 18 16  1  0
 19 20  1  0
 19 18  1  1
 21 19  1  0
 22 21  2  0
 23 21  1  0
 24 23  1  0
 25 26  1  0
 25 24  1  0
 26 27  1  0
 27 23  1  0
 27 28  1  6
 28 29  2  0
 28 30  1  0
M  END
$$$$
