WNP.pdb
     RDKit          3D

 30 32  0  0  1  0  0  0  0  0999 V2000
    6.5736  -17.1091   23.4548 N   0  0  0  0  0  0  0  0  0  0  0  0
    7.7853  -16.3456   23.5515 C   0  0  1  0  0  0  0  0  0  0  0  0
    8.1324  -16.0129   24.9790 C   0  0  0  0  0  0  0  0  0  0  0  0
    7.1916  -15.0635   25.6105 C   0  0  0  0  0  0  0  0  0  0  0  0
    5.9287  -15.3578   26.1372 C   0  0  0  0  0  0  0  0  0  0  0  0
    5.3685  -14.2293   26.5988 N   0  0  0  0  0  0  0  0  0  0  0  0
    6.2033  -13.1909   26.4040 C   0  0  0  0  0  0  0  0  0  0  0  0
    6.0509  -11.8579   26.7223 C   0  0  0  0  0  0  0  0  0  0  0  0
    7.0837  -11.0014   26.4120 C   0  0  0  0  0  0  0  0  0  0  0  0
    8.2202  -11.4658   25.8079 C   0  0  0  0  0  0  0  0  0  0  0  0
    8.3424  -12.8112   25.5008 C   0  0  0  0  0  0  0  0  0  0  0  0
    7.3438  -13.7064   25.7874 C   0  0  0  0  0  0  0  0  0  0  0  0
    8.9142  -17.1539   23.0146 C   0  0  0  0  0  0  0  0  0  0  0  0
    8.9021  -18.3933   23.2414 O   0  0  0  0  0  0  0  0  0  0  0  0
   13.4275  -17.8167   19.6719 N   0  0  0  0  0  0  0  0  0  0  0  0
   13.3576  -17.1000   20.8989 C   0  0  0  0  0  0  0  0  0  0  0  0
   14.3700  -17.0407   21.6078 O   0  0  0  0  0  0  0  0  0  0  0  0
   12.0760  -16.4761   21.2384 C   0  0  0  0  0  0  0  0  0  0  0  0
   11.1863  -17.3604   22.1066 C   0  0  2  0  0  0  0  0  0  0  0  0
    9.9709  -16.5689   22.2736 N   0  0  0  0  0  0  0  0  0  0  0  0
   11.7993  -17.6940   23.3814 C   0  0  0  0  0  0  0  0  0  0  0  0
   11.9371  -16.7489   24.2172 O   0  0  0  0  0  0  0  0  0  0  0  0
   12.2286  -18.9734   23.7182 N   0  0  0  0  0  0  0  0  0  0  0  0
   12.0662  -20.1298   22.8246 C   0  0  0  0  0  0  0  0  0  0  0  0
   11.9180  -21.2877   23.7673 C   0  0  0  0  0  0  0  0  0  0  0  0
   12.5616  -20.8950   25.0515 C   0  0  0  0  0  0  0  0  0  0  0  0
   12.9135  -19.4180   24.9015 C   0  0  1  0  0  0  0  0  0  0  0  0
   14.4037  -19.3436   24.6673 C   0  0  0  0  0  0  0  0  0  0  0  0
   15.1450  -19.4413   25.6635 O   0  0  0  0  0  0  0  0  0  0  0  0
   14.9173  -19.1736   23.3949 O   0  0  0  0  0  0  0  0  0  0  0  0
  2  1  1  1
  2  3  1  0
  4  3  1  0
  4  5  2  0
  6  5  1  0
  7 12  2  0
  7  6  1  0
  8  7  1  0
  9 10  1  0
  9  8  2  0
 10 11  2  0
 11 12  1  0
 12  4  1  0
 13  2  1  0
 13 20  1  0
 14 13  2  0
 16 15  1  0
 17 16  2  0
 18 16  1  0
 19 20  1  0
 19 18  1  6
 21 19  1  0
 22 21  2  0
 23 21  1  0
 24 23  1  0
 25 26  1  0
 25 24  1  0
 26 27  1  0
 27 23  1  0
 27 28  1  6
 28 29  2  0
 28 30  1  0
M  END
$$$$
