WNP.pdb
     RDKit          3D

 30 32  0  0  1  0  0  0  0  0999 V2000
    6.9350  -17.1146   21.0265 N   0  0  0  0  0  0  0  0  0  0  0  0
    7.5580  -16.0684   21.7867 C   0  0  1  0  0  0  0  0  0  0  0  0
    6.6794  -14.8502   21.8992 C   0  0  0  0  0  0  0  0  0  0  0  0
    7.2371  -13.7974   22.7743 C   0  0  0  0  0  0  0  0  0  0  0  0
    8.3509  -12.9911   22.5130 C   0  0  0  0  0  0  0  0  0  0  0  0
    8.5597  -12.1742   23.5568 N   0  0  0  0  0  0  0  0  0  0  0  0
    7.6321  -12.3987   24.5066 C   0  0  0  0  0  0  0  0  0  0  0  0
    7.4547  -11.7957   25.7339 C   0  0  0  0  0  0  0  0  0  0  0  0
    6.4019  -12.2221   26.5128 C   0  0  0  0  0  0  0  0  0  0  0  0
    5.5643  -13.2119   26.0757 C   0  0  0  0  0  0  0  0  0  0  0  0
    5.7697  -13.7980   24.8374 C   0  0  0  0  0  0  0  0  0  0  0  0
    6.8031  -13.4114   24.0229 C   0  0  0  0  0  0  0  0  0  0  0  0
    7.7981  -16.5517   23.1741 C   0  0  0  0  0  0  0  0  0  0  0  0
    6.8591  -17.1664   23.7470 O   0  0  0  0  0  0  0  0  0  0  0  0
   11.2703  -19.5195   25.0981 N   0  0  0  0  0  0  0  0  0  0  0  0
   10.2609  -18.8544   24.3480 C   0  0  0  0  0  0  0  0  0  0  0  0
   10.4010  -18.7588   23.1223 O   0  0  0  0  0  0  0  0  0  0  0  0
    9.1142  -18.3243   25.0902 C   0  0  0  0  0  0  0  0  0  0  0  0
    9.1309  -16.8045   25.2209 C   0  0  2  0  0  0  0  0  0  0  0  0
    9.0299  -16.3383   23.8410 N   0  0  0  0  0  0  0  0  0  0  0  0
   10.3300  -16.3107   25.8769 C   0  0  0  0  0  0  0  0  0  0  0  0
   11.3869  -16.2560   25.1763 O   0  0  0  0  0  0  0  0  0  0  0  0
   10.3682  -15.9027   27.2061 N   0  0  0  0  0  0  0  0  0  0  0  0
    9.1888  -15.9337   28.0838 C   0  0  0  0  0  0  0  0  0  0  0  0
    9.4242  -14.7960   29.0334 C   0  0  0  0  0  0  0  0  0  0  0  0
   10.8925  -14.5506   29.0711 C   0  0  0  0  0  0  0  0  0  0  0  0
   11.4866  -15.4360   27.9797 C   0  0  1  0  0  0  0  0  0  0  0  0
   12.1336  -16.6118   28.6723 C   0  0  0  0  0  0  0  0  0  0  0  0
   11.5028  -17.6858   28.6857 O   0  0  0  0  0  0  0  0  0  0  0  0
   13.3767  -16.4933   29.2658 O   0  0  0  0  0  0  0  0  0  0  0  0
  2  1  1  6
  2  3  1  0
  4  3  1  0
  4  5  2  0
  6  5  1  0
  7 12  2  0
  7  6  1  0
  8  7  1  0
  9 10  1  0
  9  8  2  0
 10 11  2  0
 11 12  1  0
 12  4  1  0
 13  2  1  0
 13 20  1  0
 14 13  2  0
 16 15  1  0
 17 16  2  0
 18 16  1  0
 19 20  1  0
 19 18  1  6
 21 19  1  0
 22 21  2  0
 23 21  1  0
 24 23  1  0
 25 26  1  0
 25 24  1  0
 26 27  1  0
 27 23  1  0
 27 28  1  1
 28 29  2  0
 28 30  1  0
M  END
$$$$
