WNP.pdb
     RDKit          3D

 30 32  0  0  1  0  0  0  0  0999 V2000
    6.2707  -18.5285   24.6130 N   0  0  0  0  0  0  0  0  0  0  0  0
    6.7370  -17.1884   24.3957 C   0  0  1  0  0  0  0  0  0  0  0  0
    7.4218  -16.6231   25.6124 C   0  0  0  0  0  0  0  0  0  0  0  0
    6.8023  -15.3785   26.1150 C   0  0  0  0  0  0  0  0  0  0  0  0
    5.4517  -15.1772   26.4218 C   0  0  0  0  0  0  0  0  0  0  0  0
    5.2740  -13.9094   26.8237 N   0  0  0  0  0  0  0  0  0  0  0  0
    6.4492  -13.2526   26.7998 C   0  0  0  0  0  0  0  0  0  0  0  0
    6.7432  -11.9472   27.1327 C   0  0  0  0  0  0  0  0  0  0  0  0
    8.0525  -11.5351   27.0206 C   0  0  0  0  0  0  0  0  0  0  0  0
    9.0235  -12.3988   26.5925 C   0  0  0  0  0  0  0  0  0  0  0  0
    8.6956  -13.7044   26.2654 C   0  0  0  0  0  0  0  0  0  0  0  0
    7.4074  -14.1656   26.3582 C   0  0  0  0  0  0  0  0  0  0  0  0
    7.7466  -17.1957   23.3019 C   0  0  0  0  0  0  0  0  0  0  0  0
    8.3900  -18.2621   23.1107 O   0  0  0  0  0  0  0  0  0  0  0  0
    6.7635  -13.8082   20.2496 N   0  0  0  0  0  0  0  0  0  0  0  0
    7.7464  -14.7720   19.8908 C   0  0  0  0  0  0  0  0  0  0  0  0
    7.5393  -15.4888   18.9037 O   0  0  0  0  0  0  0  0  0  0  0  0
    8.9478  -14.8470   20.7263 C   0  0  0  0  0  0  0  0  0  0  0  0
    9.0585  -16.1528   21.5071 C   0  0  2  0  0  0  0  0  0  0  0  0
    7.9882  -16.0559   22.4954 N   0  0  0  0  0  0  0  0  0  0  0  0
   10.3606  -16.3265   22.1288 C   0  0  0  0  0  0  0  0  0  0  0  0
   10.5926  -15.6471   23.1754 O   0  0  0  0  0  0  0  0  0  0  0  0
   11.3390  -17.1859   21.6401 N   0  0  0  0  0  0  0  0  0  0  0  0
   11.1507  -18.0039   20.4327 C   0  0  0  0  0  0  0  0  0  0  0  0
   11.9860  -19.2221   20.6965 C   0  0  0  0  0  0  0  0  0  0  0  0
   13.0312  -18.8339   21.6837 C   0  0  0  0  0  0  0  0  0  0  0  0
   12.6679  -17.4225   22.1352 C   0  0  1  0  0  0  0  0  0  0  0  0
   13.6268  -16.4809   21.4461 C   0  0  0  0  0  0  0  0  0  0  0  0
   14.7346  -16.2972   21.9850 O   0  0  0  0  0  0  0  0  0  0  0  0
   13.2817  -15.8515   20.2644 O   0  0  0  0  0  0  0  0  0  0  0  0
  2  1  1  1
  2  3  1  0
  4  3  1  0
  4  5  2  0
  6  5  1  0
  7 12  2  0
  7  6  1  0
  8  7  1  0
  9 10  1  0
  9  8  2  0
 10 11  2  0
 11 12  1  0
 12  4  1  0
 13  2  1  0
 13 20  1  0
 14 13  2  0
 16 15  1  0
 17 16  2  0
 18 16  1  0
 19 20  1  0
 19 18  1  1
 21 19  1  0
 22 21  2  0
 23 21  1  0
 24 23  1  0
 25 26  1  0
 25 24  1  0
 26 27  1  0
 27 23  1  0
 27 28  1  6
 28 29  2  0
 28 30  1  0
M  END
$$$$
