WNP.pdb
     RDKit          3D

 30 32  0  0  1  0  0  0  0  0999 V2000
    6.3495  -17.4676   21.6928 N   0  0  0  0  0  0  0  0  0  0  0  0
    7.0591  -16.4013   22.3409 C   0  0  1  0  0  0  0  0  0  0  0  0
    6.3502  -15.0801   22.1969 C   0  0  0  0  0  0  0  0  0  0  0  0
    7.0981  -13.9419   22.7717 C   0  0  0  0  0  0  0  0  0  0  0  0
    8.2516  -13.3455   22.2496 C   0  0  0  0  0  0  0  0  0  0  0  0
    8.6489  -12.3598   23.0686 N   0  0  0  0  0  0  0  0  0  0  0  0
    7.8097  -12.2701   24.1178 C   0  0  0  0  0  0  0  0  0  0  0  0
    7.8233  -11.4081   25.1939 C   0  0  0  0  0  0  0  0  0  0  0  0
    6.8223  -11.5351   26.1312 C   0  0  0  0  0  0  0  0  0  0  0  0
    5.8501  -12.4877   25.9917 C   0  0  0  0  0  0  0  0  0  0  0  0
    5.8646  -13.3390   24.8988 C   0  0  0  0  0  0  0  0  0  0  0  0
    6.8388  -13.2557   23.9372 C   0  0  0  0  0  0  0  0  0  0  0  0
    7.1397  -16.6863   23.7997 C   0  0  0  0  0  0  0  0  0  0  0  0
    6.0579  -16.8850   24.4146 O   0  0  0  0  0  0  0  0  0  0  0  0
    8.6376  -20.2863   27.3957 N   0  0  0  0  0  0  0  0  0  0  0  0
    7.7718  -19.1760   27.1924 C   0  0  0  0  0  0  0  0  0  0  0  0
    7.0525  -18.8074   28.1292 O   0  0  0  0  0  0  0  0  0  0  0  0
    7.7948  -18.5414   25.8719 C   0  0  0  0  0  0  0  0  0  0  0  0
    8.3423  -17.1177   25.8967 C   0  0  2  0  0  0  0  0  0  0  0  0
    8.3774  -16.7367   24.4877 N   0  0  0  0  0  0  0  0  0  0  0  0
    9.6533  -17.0312   26.5178 C   0  0  0  0  0  0  0  0  0  0  0  0
   10.6089  -17.6214   25.9267 O   0  0  0  0  0  0  0  0  0  0  0  0
    9.9010  -16.3440   27.7015 N   0  0  0  0  0  0  0  0  0  0  0  0
    8.8275  -15.8132   28.5547 C   0  0  0  0  0  0  0  0  0  0  0  0
    9.4451  -14.6012   29.1879 C   0  0  0  0  0  0  0  0  0  0  0  0
   10.9211  -14.7976   29.1676 C   0  0  0  0  0  0  0  0  0  0  0  0
   11.1582  -16.0549   28.3363 C   0  0  1  0  0  0  0  0  0  0  0  0
   11.4896  -17.1653   29.3049 C   0  0  0  0  0  0  0  0  0  0  0  0
   10.6496  -18.0748   29.4418 O   0  0  0  0  0  0  0  0  0  0  0  0
   12.6800  -17.1655   30.0083 O   0  0  0  0  0  0  0  0  0  0  0  0
  2  1  1  6
  2  3  1  0
  4  3  1  0
  4  5  2  0
  6  5  1  0
  7 12  2  0
  7  6  1  0
  8  7  1  0
  9 10  1  0
  9  8  2  0
 10 11  2  0
 11 12  1  0
 12  4  1  0
 13  2  1  0
 13 20  1  0
 14 13  2  0
 16 15  1  0
 17 16  2  0
 18 16  1  0
 19 20  1  0
 19 18  1  6
 21 19  1  0
 22 21  2  0
 23 21  1  0
 24 23  1  0
 25 26  1  0
 25 24  1  0
 26 27  1  0
 27 23  1  0
 27 28  1  1
 28 29  2  0
 28 30  1  0
M  END
$$$$
