WNP.pdb
     RDKit          3D

 30 32  0  0  1  0  0  0  0  0999 V2000
    6.2986  -18.0494   24.5521 N   0  0  0  0  0  0  0  0  0  0  0  0
    6.9870  -16.8235   24.2628 C   0  0  1  0  0  0  0  0  0  0  0  0
    7.5235  -16.1680   25.5083 C   0  0  0  0  0  0  0  0  0  0  0  0
    6.7062  -15.0285   25.9760 C   0  0  0  0  0  0  0  0  0  0  0  0
    5.4503  -15.0920   26.5904 C   0  0  0  0  0  0  0  0  0  0  0  0
    5.0191  -13.8471   26.8444 N   0  0  0  0  0  0  0  0  0  0  0  0
    5.9336  -12.9516   26.4265 C   0  0  0  0  0  0  0  0  0  0  0  0
    5.9193  -11.5742   26.4873 C   0  0  0  0  0  0  0  0  0  0  0  0
    7.0084  -10.8976   25.9845 C   0  0  0  0  0  0  0  0  0  0  0  0
    8.0658  -11.5775   25.4442 C   0  0  0  0  0  0  0  0  0  0  0  0
    8.0496  -12.9620   25.3976 C   0  0  0  0  0  0  0  0  0  0  0  0
    6.9898  -13.6841   25.8835 C   0  0  0  0  0  0  0  0  0  0  0  0
    8.1603  -17.1170   23.3951 C   0  0  0  0  0  0  0  0  0  0  0  0
    8.8023  -18.1770   23.6233 O   0  0  0  0  0  0  0  0  0  0  0  0
    8.6254  -17.6558   19.3291 N   0  0  0  0  0  0  0  0  0  0  0  0
    9.0169  -16.2924   19.2206 C   0  0  0  0  0  0  0  0  0  0  0  0
    8.7640  -15.6860   18.1720 O   0  0  0  0  0  0  0  0  0  0  0  0
    9.6995  -15.6975   20.3725 C   0  0  0  0  0  0  0  0  0  0  0  0
    9.7460  -16.6188   21.5876 C   0  0  2  0  0  0  0  0  0  0  0  0
    8.5549  -16.2492   22.3468 N   0  0  0  0  0  0  0  0  0  0  0  0
   10.9616  -16.4580   22.3677 C   0  0  0  0  0  0  0  0  0  0  0  0
   11.0591  -15.4044   23.0685 O   0  0  0  0  0  0  0  0  0  0  0  0
   11.9963  -17.3874   22.3816 N   0  0  0  0  0  0  0  0  0  0  0  0
   11.9541  -18.6392   21.6112 C   0  0  0  0  0  0  0  0  0  0  0  0
   12.7636  -19.5926   22.4401 C   0  0  0  0  0  0  0  0  0  0  0  0
   13.6858  -18.7754   23.2764 C   0  0  0  0  0  0  0  0  0  0  0  0
   13.2618  -17.3256   23.0613 C   0  0  1  0  0  0  0  0  0  0  0  0
   14.2855  -16.7005   22.1437 C   0  0  0  0  0  0  0  0  0  0  0  0
   15.3814  -16.3813   22.6422 O   0  0  0  0  0  0  0  0  0  0  0  0
   14.0101  -16.4938   20.8047 O   0  0  0  0  0  0  0  0  0  0  0  0
  2  1  1  1
  2  3  1  0
  4  3  1  0
  4  5  2  0
  6  5  1  0
  7 12  2  0
  7  6  1  0
  8  7  1  0
  9 10  1  0
  9  8  2  0
 10 11  2  0
 11 12  1  0
 12  4  1  0
 13  2  1  0
 13 20  1  0
 14 13  2  0
 16 15  1  0
 17 16  2  0
 18 16  1  0
 19 20  1  0
 19 18  1  6
 21 19  1  0
 22 21  2  0
 23 21  1  0
 24 23  1  0
 25 26  1  0
 25 24  1  0
 26 27  1  0
 27 23  1  0
 27 28  1  6
 28 29  2  0
 28 30  1  0
M  END
$$$$
