WNP.pdb
     RDKit          3D

 30 32  0  0  1  0  0  0  0  0999 V2000
    6.1871  -17.2335   24.6878 N   0  0  0  0  0  0  0  0  0  0  0  0
    6.9887  -16.1386   24.2198 C   0  0  1  0  0  0  0  0  0  0  0  0
    8.1427  -15.8468   25.1428 C   0  0  0  0  0  0  0  0  0  0  0  0
    7.7910  -14.9503   26.2644 C   0  0  0  0  0  0  0  0  0  0  0  0
    7.7274  -15.2880   27.6212 C   0  0  0  0  0  0  0  0  0  0  0  0
    7.3481  -14.2118   28.3271 N   0  0  0  0  0  0  0  0  0  0  0  0
    7.1554  -13.1666   27.5004 C   0  0  0  0  0  0  0  0  0  0  0  0
    6.7716  -11.8723   27.7808 C   0  0  0  0  0  0  0  0  0  0  0  0
    6.6588  -10.9931   26.7268 C   0  0  0  0  0  0  0  0  0  0  0  0
    6.9209  -11.3986   25.4465 C   0  0  0  0  0  0  0  0  0  0  0  0
    7.3044  -12.7065   25.1978 C   0  0  0  0  0  0  0  0  0  0  0  0
    7.4310  -13.6222   26.2107 C   0  0  0  0  0  0  0  0  0  0  0  0
    7.5771  -16.4953   22.8998 C   0  0  0  0  0  0  0  0  0  0  0  0
    7.6067  -17.7155   22.5863 O   0  0  0  0  0  0  0  0  0  0  0  0
    6.5675  -15.2305   19.4885 N   0  0  0  0  0  0  0  0  0  0  0  0
    7.6795  -14.3600   19.3163 C   0  0  0  0  0  0  0  0  0  0  0  0
    7.5307  -13.3380   18.6348 O   0  0  0  0  0  0  0  0  0  0  0  0
    8.9359  -14.7413   19.9666 C   0  0  0  0  0  0  0  0  0  0  0  0
    8.8100  -15.9872   20.8379 C   0  0  2  0  0  0  0  0  0  0  0  0
    8.0888  -15.5134   22.0156 N   0  0  0  0  0  0  0  0  0  0  0  0
   10.0988  -16.5634   21.1830 C   0  0  0  0  0  0  0  0  0  0  0  0
   10.6601  -16.1269   22.2343 O   0  0  0  0  0  0  0  0  0  0  0  0
   10.7274  -17.5504   20.4310 N   0  0  0  0  0  0  0  0  0  0  0  0
   10.1653  -18.0778   19.1787 C   0  0  0  0  0  0  0  0  0  0  0  0
   10.6539  -19.4959   19.1409 C   0  0  0  0  0  0  0  0  0  0  0  0
   11.8834  -19.5605   19.9787 C   0  0  0  0  0  0  0  0  0  0  0  0
   11.9894  -18.1997   20.6606 C   0  0  1  0  0  0  0  0  0  0  0  0
   13.0767  -17.4338   19.9449 C   0  0  0  0  0  0  0  0  0  0  0  0
   12.7253  -16.6491   19.0437 O   0  0  0  0  0  0  0  0  0  0  0  0
   14.4069  -17.6022   20.2821 O   0  0  0  0  0  0  0  0  0  0  0  0
  2  1  1  1
  2  3  1  0
  4  3  1  0
  4  5  2  0
  6  5  1  0
  7 12  2  0
  7  6  1  0
  8  7  1  0
  9 10  1  0
  9  8  2  0
 10 11  2  0
 11 12  1  0
 12  4  1  0
 13  2  1  0
 13 20  1  0
 14 13  2  0
 16 15  1  0
 17 16  2  0
 18 16  1  0
 19 20  1  0
 19 18  1  6
 21 19  1  0
 22 21  2  0
 23 21  1  0
 24 23  1  0
 25 26  1  0
 25 24  1  0
 26 27  1  0
 27 23  1  0
 27 28  1  6
 28 29  2  0
 28 30  1  0
M  END
$$$$
