WNP.pdb
     RDKit          3D

 30 32  0  0  1  0  0  0  0  0999 V2000
    6.3912  -18.5970   25.2588 N   0  0  0  0  0  0  0  0  0  0  0  0
    6.5992  -17.2313   24.8691 C   0  0  1  0  0  0  0  0  0  0  0  0
    7.3916  -16.4642   25.8951 C   0  0  0  0  0  0  0  0  0  0  0  0
    6.7118  -15.2426   26.3752 C   0  0  0  0  0  0  0  0  0  0  0  0
    5.3602  -15.1119   26.7146 C   0  0  0  0  0  0  0  0  0  0  0  0
    5.1171  -13.8441   27.0806 N   0  0  0  0  0  0  0  0  0  0  0  0
    6.2492  -13.1196   27.0014 C   0  0  0  0  0  0  0  0  0  0  0  0
    6.4725  -11.7884   27.2834 C   0  0  0  0  0  0  0  0  0  0  0  0
    7.7509  -11.3029   27.1202 C   0  0  0  0  0  0  0  0  0  0  0  0
    8.7605  -12.1212   26.6919 C   0  0  0  0  0  0  0  0  0  0  0  0
    8.5035  -13.4544   26.4166 C   0  0  0  0  0  0  0  0  0  0  0  0
    7.2486  -13.9882   26.5617 C   0  0  0  0  0  0  0  0  0  0  0  0
    7.3893  -17.1998   23.6079 C   0  0  0  0  0  0  0  0  0  0  0  0
    8.1049  -18.2030   23.3442 O   0  0  0  0  0  0  0  0  0  0  0  0
    9.3887  -15.8509   19.1063 N   0  0  0  0  0  0  0  0  0  0  0  0
    8.3280  -14.9362   19.3558 C   0  0  0  0  0  0  0  0  0  0  0  0
    8.0330  -14.1182   18.4756 O   0  0  0  0  0  0  0  0  0  0  0  0
    7.6533  -15.0304   20.6530 C   0  0  0  0  0  0  0  0  0  0  0  0
    8.1783  -16.1670   21.5246 C   0  0  2  0  0  0  0  0  0  0  0  0
    7.3503  -16.0924   22.7248 N   0  0  0  0  0  0  0  0  0  0  0  0
    9.5931  -16.0334   21.8290 C   0  0  0  0  0  0  0  0  0  0  0  0
    9.9453  -15.0036   22.4820 O   0  0  0  0  0  0  0  0  0  0  0  0
   10.5542  -16.9637   21.4475 N   0  0  0  0  0  0  0  0  0  0  0  0
   10.2675  -18.0748   20.5280 C   0  0  0  0  0  0  0  0  0  0  0  0
   11.2037  -19.1575   20.9782 C   0  0  0  0  0  0  0  0  0  0  0  0
   12.3381  -18.4951   21.6797 C   0  0  0  0  0  0  0  0  0  0  0  0
   11.9469  -17.0252   21.7995 C   0  0  1  0  0  0  0  0  0  0  0  0
   12.7512  -16.2715   20.7671 C   0  0  0  0  0  0  0  0  0  0  0  0
   12.1912  -16.0079   19.6862 O   0  0  0  0  0  0  0  0  0  0  0  0
   14.0568  -15.8924   21.0189 O   0  0  0  0  0  0  0  0  0  0  0  0
  2  1  1  1
  2  3  1  0
  4  3  1  0
  4  5  2  0
  6  5  1  0
  7 12  2  0
  7  6  1  0
  8  7  1  0
  9 10  1  0
  9  8  2  0
 10 11  2  0
 11 12  1  0
 12  4  1  0
 13  2  1  0
 13 20  1  0
 14 13  2  0
 16 15  1  0
 17 16  2  0
 18 16  1  0
 19 20  1  0
 19 18  1  6
 21 19  1  0
 22 21  2  0
 23 21  1  0
 24 23  1  0
 25 26  1  0
 25 24  1  0
 26 27  1  0
 27 23  1  0
 27 28  1  6
 28 29  2  0
 28 30  1  0
M  END
$$$$
