WNP.pdb
     RDKit          3D

 30 32  0  0  1  0  0  0  0  0999 V2000
    5.7967  -18.2810   21.4700 N   0  0  0  0  0  0  0  0  0  0  0  0
    6.6339  -17.2148   21.9419 C   0  0  1  0  0  0  0  0  0  0  0  0
    6.0423  -15.8601   21.6527 C   0  0  0  0  0  0  0  0  0  0  0  0
    6.5801  -15.2287   20.4291 C   0  0  0  0  0  0  0  0  0  0  0  0
    6.4810  -15.7145   19.1203 C   0  0  0  0  0  0  0  0  0  0  0  0
    7.1158  -14.8751   18.2880 N   0  0  0  0  0  0  0  0  0  0  0  0
    7.6359  -13.8465   18.9841 C   0  0  0  0  0  0  0  0  0  0  0  0
    8.3571  -12.7549   18.5487 C   0  0  0  0  0  0  0  0  0  0  0  0
    8.7644  -11.8369   19.4911 C   0  0  0  0  0  0  0  0  0  0  0  0
    8.4590  -12.0096   20.8136 C   0  0  0  0  0  0  0  0  0  0  0  0
    7.7328  -13.1176   21.2190 C   0  0  0  0  0  0  0  0  0  0  0  0
    7.3039  -14.0620   20.3220 C   0  0  0  0  0  0  0  0  0  0  0  0
    6.7649  -17.3169   23.4211 C   0  0  0  0  0  0  0  0  0  0  0  0
    5.7152  -17.1979   24.1080 O   0  0  0  0  0  0  0  0  0  0  0  0
    9.3935  -19.4846   27.9623 N   0  0  0  0  0  0  0  0  0  0  0  0
    8.1775  -18.9400   27.4636 C   0  0  0  0  0  0  0  0  0  0  0  0
    7.3113  -18.5872   28.2736 O   0  0  0  0  0  0  0  0  0  0  0  0
    8.0371  -18.8351   26.0089 C   0  0  0  0  0  0  0  0  0  0  0  0
    8.0650  -17.3962   25.5028 C   0  0  2  0  0  0  0  0  0  0  0  0
    8.0145  -17.5400   24.0508 N   0  0  0  0  0  0  0  0  0  0  0  0
    9.2465  -16.6707   25.9382 C   0  0  0  0  0  0  0  0  0  0  0  0
   10.3623  -17.0589   25.4743 O   0  0  0  0  0  0  0  0  0  0  0  0
    9.2086  -15.5939   26.8178 N   0  0  0  0  0  0  0  0  0  0  0  0
    7.9627  -15.1067   27.4282 C   0  0  0  0  0  0  0  0  0  0  0  0
    8.2101  -13.6385   27.6143 C   0  0  0  0  0  0  0  0  0  0  0  0
    9.6853  -13.4450   27.6758 C   0  0  0  0  0  0  0  0  0  0  0  0
   10.2937  -14.7999   27.3268 C   0  0  1  0  0  0  0  0  0  0  0  0
   10.7855  -15.4062   28.6197 C   0  0  0  0  0  0  0  0  0  0  0  0
   11.7849  -14.8868   29.1514 O   0  0  0  0  0  0  0  0  0  0  0  0
   10.1466  -16.4944   29.1846 O   0  0  0  0  0  0  0  0  0  0  0  0
  2  1  1  1
  2  3  1  0
  4  3  1  0
  4  5  2  0
  6  5  1  0
  7 12  2  0
  7  6  1  0
  8  7  1  0
  9 10  1  0
  9  8  2  0
 10 11  2  0
 11 12  1  0
 12  4  1  0
 13  2  1  0
 13 20  1  0
 14 13  2  0
 16 15  1  0
 17 16  2  0
 18 16  1  0
 19 20  1  0
 19 18  1  1
 21 19  1  0
 22 21  2  0
 23 21  1  0
 24 23  1  0
 25 26  1  0
 25 24  1  0
 26 27  1  0
 27 23  1  0
 27 28  1  1
 28 29  2  0
 28 30  1  0
M  END
$$$$
