ECF.pdb
     RDKit          3D

 27 27  0  0  1  0  0  0  0  0999 V2000
    8.9152  -18.6944   18.9776 N   0  0  0  0  0  0  0  0  0  0  0  0
    9.5122  -18.4666   20.2944 C   0  0  1  0  0  0  0  0  0  0  0  0
   10.9485  -18.8698   20.1875 C   0  0  0  0  0  0  0  0  0  0  0  0
   11.3009  -19.5982   18.9163 C   0  0  0  0  0  0  0  0  0  0  0  0
   12.7291  -19.9759   18.8959 C   0  0  0  0  0  0  0  0  0  0  0  0
   13.1583  -20.9933   19.4907 O   0  0  0  0  0  0  0  0  0  0  0  0
    9.4257  -16.9957   20.5472 C   0  0  0  0  0  0  0  0  0  0  0  0
   10.3214  -16.2311   20.1290 O   0  0  0  0  0  0  0  0  0  0  0  0
   13.6296  -19.1898   18.2019 O   0  0  0  0  0  0  0  0  0  0  0  0
    8.3552  -16.4067   21.2527 N   0  0  0  0  0  0  0  0  0  0  0  0
    8.4408  -15.0718   21.7209 C   0  0  1  0  0  0  0  0  0  0  0  0
    7.1392  -14.3130   21.6850 C   0  0  0  0  0  0  0  0  0  0  0  0
    5.7703  -15.2296   22.4077 S   0  0  0  0  0  0  0  0  0  0  0  0
    8.9615  -14.9420   23.1048 C   0  0  0  0  0  0  0  0  0  0  0  0
    9.4667  -13.8282   23.4112 O   0  0  0  0  0  0  0  0  0  0  0  0
    8.9079  -15.9910   24.0520 N   0  0  0  0  0  0  0  0  0  0  0  0
    9.5118  -15.7545   25.3590 C   0  0  1  0  0  0  0  0  0  0  0  0
    8.3822  -15.6984   26.3599 C   0  0  0  0  0  0  0  0  0  0  0  0
    7.6882  -14.3840   26.3217 C   0  0  0  0  0  0  0  0  0  0  0  0
    8.2404  -13.2424   26.8590 C   0  0  0  0  0  0  0  0  0  0  0  0
    7.5915  -12.0411   26.8142 C   0  0  0  0  0  0  0  0  0  0  0  0
    6.3422  -11.9654   26.2119 C   0  0  0  0  0  0  0  0  0  0  0  0
    5.7795  -13.0905   25.6733 C   0  0  0  0  0  0  0  0  0  0  0  0
    6.4459  -14.2894   25.7274 C   0  0  0  0  0  0  0  0  0  0  0  0
   10.5339  -16.7664   25.6701 C   0  0  0  0  0  0  0  0  0  0  0  0
   10.6371  -17.8218   25.0002 O   0  0  0  0  0  0  0  0  0  0  0  0
   11.4310  -16.5749   26.7369 O   0  0  0  0  0  0  0  0  0  0  0  0
  2  1  1  6
  3  2  1  0
  4  3  1  0
  5  4  1  0
  5  6  2  0
  7  2  1  0
  7  8  2  0
  9  5  1  0
 10  7  1  0
 11 10  1  0
 11 12  1  1
 12 13  1  0
 14 11  1  0
 15 14  2  0
 16 14  1  0
 17 16  1  0
 17 18  1  1
 18 19  1  0
 19 20  2  0
 20 21  1  0
 22 21  2  0
 23 22  1  0
 24 19  1  0
 24 23  2  0
 25 27  1  0
 25 17  1  0
 26 25  2  0
M  END
$$$$
