ECF.pdb
     RDKit          3D

 27 27  0  0  1  0  0  0  0  0999 V2000
    6.5165  -19.5054   18.4203 N   0  0  0  0  0  0  0  0  0  0  0  0
    7.4002  -19.7095   19.5691 C   0  0  1  0  0  0  0  0  0  0  0  0
    8.8004  -19.5938   19.0564 C   0  0  0  0  0  0  0  0  0  0  0  0
    8.9645  -18.6516   17.8919 C   0  0  0  0  0  0  0  0  0  0  0  0
   10.3584  -18.6454   17.4024 C   0  0  0  0  0  0  0  0  0  0  0  0
   11.2467  -19.3707   17.9102 O   0  0  0  0  0  0  0  0  0  0  0  0
    7.1233  -18.5880   20.5180 C   0  0  0  0  0  0  0  0  0  0  0  0
    6.6542  -17.5087   20.0974 O   0  0  0  0  0  0  0  0  0  0  0  0
   10.7055  -17.8174   16.3515 O   0  0  0  0  0  0  0  0  0  0  0  0
    7.3696  -18.6855   21.9038 N   0  0  0  0  0  0  0  0  0  0  0  0
    7.0068  -17.6339   22.7818 C   0  0  1  0  0  0  0  0  0  0  0  0
    5.7679  -17.9010   23.5972 C   0  0  0  0  0  0  0  0  0  0  0  0
    6.1218  -18.6757   25.1817 S   0  0  0  0  0  0  0  0  0  0  0  0
    8.0672  -17.2509   23.7472 C   0  0  0  0  0  0  0  0  0  0  0  0
    8.8686  -18.1619   24.0900 O   0  0  0  0  0  0  0  0  0  0  0  0
    8.1990  -15.9439   24.2716 N   0  0  0  0  0  0  0  0  0  0  0  0
    9.4204  -15.6287   25.0050 C   0  0  1  0  0  0  0  0  0  0  0  0
    9.6580  -14.1460   24.8439 C   0  0  0  0  0  0  0  0  0  0  0  0
    8.5193  -13.3528   25.3778 C   0  0  0  0  0  0  0  0  0  0  0  0
    7.3655  -13.1408   24.6562 C   0  0  0  0  0  0  0  0  0  0  0  0
    6.3265  -12.4116   25.1610 C   0  0  0  0  0  0  0  0  0  0  0  0
    6.4332  -11.8683   26.4349 C   0  0  0  0  0  0  0  0  0  0  0  0
    7.5729  -12.0696   27.1650 C   0  0  0  0  0  0  0  0  0  0  0  0
    8.6071  -12.8051   26.6417 C   0  0  0  0  0  0  0  0  0  0  0  0
    9.3352  -16.0697   26.4063 C   0  0  0  0  0  0  0  0  0  0  0  0
   10.3181  -15.9863   27.1810 O   0  0  0  0  0  0  0  0  0  0  0  0
    8.1376  -16.6012   26.9191 O   0  0  0  0  0  0  0  0  0  0  0  0
  2  1  1  6
  3  2  1  0
  4  3  1  0
  5  4  1  0
  5  6  2  0
  7  2  1  0
  7  8  2  0
  9  5  1  0
 10  7  1  0
 11 10  1  0
 11 12  1  1
 12 13  1  0
 14 11  1  0
 15 14  2  0
 16 14  1  0
 17 16  1  0
 17 18  1  1
 18 19  1  0
 19 20  2  0
 20 21  1  0
 22 21  2  0
 23 22  1  0
 24 19  1  0
 24 23  2  0
 25 27  1  0
 25 17  1  0
 26 25  2  0
M  END
$$$$
