ECF.pdb
     RDKit          3D

 27 27  0  0  1  0  0  0  0  0999 V2000
    7.5682  -18.3948   20.2055 N   0  0  0  0  0  0  0  0  0  0  0  0
    8.7461  -18.3038   21.0695 C   0  0  1  0  0  0  0  0  0  0  0  0
    9.6796  -17.3337   20.4179 C   0  0  0  0  0  0  0  0  0  0  0  0
   10.4082  -17.8774   19.2161 C   0  0  0  0  0  0  0  0  0  0  0  0
   11.4479  -16.9363   18.7513 C   0  0  0  0  0  0  0  0  0  0  0  0
   11.2527  -16.1444   17.7985 O   0  0  0  0  0  0  0  0  0  0  0  0
    8.2718  -17.7408   22.3706 C   0  0  0  0  0  0  0  0  0  0  0  0
    7.7031  -16.6286   22.4054 O   0  0  0  0  0  0  0  0  0  0  0  0
   12.6789  -16.9198   19.3798 O   0  0  0  0  0  0  0  0  0  0  0  0
    8.4357  -18.4179   23.5975 N   0  0  0  0  0  0  0  0  0  0  0  0
    7.8742  -17.9026   24.7923 C   0  0  1  0  0  0  0  0  0  0  0  0
    7.2396  -18.9402   25.6821 C   0  0  0  0  0  0  0  0  0  0  0  0
    6.1165  -20.0330   24.7985 S   0  0  0  0  0  0  0  0  0  0  0  0
    8.8314  -17.1523   25.6431 C   0  0  0  0  0  0  0  0  0  0  0  0
   10.0559  -17.3481   25.4156 O   0  0  0  0  0  0  0  0  0  0  0  0
    8.4241  -16.2584   26.6609 N   0  0  0  0  0  0  0  0  0  0  0  0
    9.4667  -15.6005   27.4411 C   0  0  1  0  0  0  0  0  0  0  0  0
    8.8398  -14.3772   28.0667 C   0  0  0  0  0  0  0  0  0  0  0  0
    8.0914  -13.5768   27.0617 C   0  0  0  0  0  0  0  0  0  0  0  0
    8.7250  -12.8303   26.0931 C   0  0  0  0  0  0  0  0  0  0  0  0
    8.0237  -12.1016   25.1748 C   0  0  0  0  0  0  0  0  0  0  0  0
    6.6353  -12.1117   25.2160 C   0  0  0  0  0  0  0  0  0  0  0  0
    5.9903  -12.8483   26.1721 C   0  0  0  0  0  0  0  0  0  0  0  0
    6.7113  -13.5745   27.0871 C   0  0  0  0  0  0  0  0  0  0  0  0
   10.0732  -16.5229   28.4141 C   0  0  0  0  0  0  0  0  0  0  0  0
    9.6264  -17.6824   28.5853 O   0  0  0  0  0  0  0  0  0  0  0  0
   11.1809  -16.1252   29.1850 O   0  0  0  0  0  0  0  0  0  0  0  0
  2  1  1  6
  3  2  1  0
  4  3  1  0
  5  4  1  0
  5  6  2  0
  7  2  1  0
  7  8  2  0
  9  5  1  0
 10  7  1  0
 11 10  1  0
 11 12  1  1
 12 13  1  0
 14 11  1  0
 15 14  2  0
 16 14  1  0
 17 16  1  0
 17 18  1  1
 18 19  1  0
 19 20  2  0
 20 21  1  0
 22 21  2  0
 23 22  1  0
 24 19  1  0
 24 23  2  0
 25 27  1  0
 25 17  1  0
 26 25  2  0
M  END
$$$$
