ECF.pdb
     RDKit          3D

 27 27  0  0  1  0  0  0  0  0999 V2000
    8.3364  -19.4701   19.0347 N   0  0  0  0  0  0  0  0  0  0  0  0
    9.5339  -18.9887   19.7248 C   0  0  1  0  0  0  0  0  0  0  0  0
   10.3678  -18.2920   18.6971 C   0  0  0  0  0  0  0  0  0  0  0  0
   11.3012  -19.1945   17.9323 C   0  0  0  0  0  0  0  0  0  0  0  0
   12.1430  -18.4216   16.9959 C   0  0  0  0  0  0  0  0  0  0  0  0
   13.3862  -18.3324   17.1350 O   0  0  0  0  0  0  0  0  0  0  0  0
    9.0647  -17.9972   20.7406 C   0  0  0  0  0  0  0  0  0  0  0  0
    9.2797  -16.7772   20.5758 O   0  0  0  0  0  0  0  0  0  0  0  0
   11.5514  -17.7720   15.9288 O   0  0  0  0  0  0  0  0  0  0  0  0
    8.3710  -18.3757   21.9094 N   0  0  0  0  0  0  0  0  0  0  0  0
    7.8541  -17.3983   22.7960 C   0  0  1  0  0  0  0  0  0  0  0  0
    6.4841  -17.7115   23.3402 C   0  0  0  0  0  0  0  0  0  0  0  0
    6.4230  -19.2685   24.2391 S   0  0  0  0  0  0  0  0  0  0  0  0
    8.7171  -17.1225   23.9716 C   0  0  0  0  0  0  0  0  0  0  0  0
    9.5107  -18.0412   24.3120 O   0  0  0  0  0  0  0  0  0  0  0  0
    8.6763  -15.9056   24.6915 N   0  0  0  0  0  0  0  0  0  0  0  0
    9.5503  -15.7764   25.8526 C   0  0  1  0  0  0  0  0  0  0  0  0
    9.8634  -14.3066   26.0039 C   0  0  0  0  0  0  0  0  0  0  0  0
    8.6236  -13.4859   26.0134 C   0  0  0  0  0  0  0  0  0  0  0  0
    7.8387  -13.3225   24.8935 C   0  0  0  0  0  0  0  0  0  0  0  0
    6.7008  -12.5670   24.9182 C   0  0  0  0  0  0  0  0  0  0  0  0
    6.3226  -11.9462   26.1018 C   0  0  0  0  0  0  0  0  0  0  0  0
    7.0916  -12.0984   27.2234 C   0  0  0  0  0  0  0  0  0  0  0  0
    8.2320  -12.8612   27.1803 C   0  0  0  0  0  0  0  0  0  0  0  0
    8.9474  -16.3834   27.0498 C   0  0  0  0  0  0  0  0  0  0  0  0
    7.7483  -16.7513   27.0655 O   0  0  0  0  0  0  0  0  0  0  0  0
    9.7071  -16.5695   28.2193 O   0  0  0  0  0  0  0  0  0  0  0  0
  2  1  1  6
  3  2  1  0
  4  3  1  0
  5  4  1  0
  5  6  2  0
  7  2  1  0
  7  8  2  0
  9  5  1  0
 10  7  1  0
 11 10  1  0
 11 12  1  1
 12 13  1  0
 14 11  1  0
 15 14  2  0
 16 14  1  0
 17 16  1  0
 17 18  1  1
 18 19  1  0
 19 20  2  0
 20 21  1  0
 22 21  2  0
 23 22  1  0
 24 19  1  0
 24 23  2  0
 25 27  1  0
 25 17  1  0
 26 25  2  0
M  END
$$$$
