ECF.pdb
     RDKit          3D

 27 27  0  0  1  0  0  0  0  0999 V2000
    4.7213  -17.7530   21.3232 N   0  0  0  0  0  0  0  0  0  0  0  0
    6.0813  -18.1683   21.6696 C   0  0  1  0  0  0  0  0  0  0  0  0
    7.0063  -17.3364   20.8394 C   0  0  0  0  0  0  0  0  0  0  0  0
    6.9070  -15.8534   21.0878 C   0  0  0  0  0  0  0  0  0  0  0  0
    7.8377  -15.1032   20.2196 C   0  0  0  0  0  0  0  0  0  0  0  0
    7.7237  -15.0940   18.9706 O   0  0  0  0  0  0  0  0  0  0  0  0
    6.2696  -17.8312   23.1139 C   0  0  0  0  0  0  0  0  0  0  0  0
    5.4687  -17.0651   23.6913 O   0  0  0  0  0  0  0  0  0  0  0  0
    8.8709  -14.3852   20.7919 O   0  0  0  0  0  0  0  0  0  0  0  0
    7.3338  -18.3474   23.8831 N   0  0  0  0  0  0  0  0  0  0  0  0
    7.3828  -18.1432   25.2847 C   0  0  1  0  0  0  0  0  0  0  0  0
    7.5116  -19.4070   26.0954 C   0  0  0  0  0  0  0  0  0  0  0  0
    7.4248  -19.1173   27.8688 S   0  0  0  0  0  0  0  0  0  0  0  0
    8.4768  -17.2461   25.7335 C   0  0  0  0  0  0  0  0  0  0  0  0
    9.5769  -17.3574   25.1275 O   0  0  0  0  0  0  0  0  0  0  0  0
    8.3253  -16.3066   26.7799 N   0  0  0  0  0  0  0  0  0  0  0  0
    9.5174  -15.5949   27.2285 C   0  0  1  0  0  0  0  0  0  0  0  0
    9.0436  -14.3367   27.9166 C   0  0  0  0  0  0  0  0  0  0  0  0
    8.1758  -13.5239   27.0239 C   0  0  0  0  0  0  0  0  0  0  0  0
    6.8010  -13.5936   27.0683 C   0  0  0  0  0  0  0  0  0  0  0  0
    6.0166  -12.8387   26.2431 C   0  0  0  0  0  0  0  0  0  0  0  0
    6.6179  -11.9773   25.3344 C   0  0  0  0  0  0  0  0  0  0  0  0
    7.9827  -11.8962   25.2775 C   0  0  0  0  0  0  0  0  0  0  0  0
    8.7553  -12.6624   26.1144 C   0  0  0  0  0  0  0  0  0  0  0  0
   10.3692  -16.4499   28.0704 C   0  0  0  0  0  0  0  0  0  0  0  0
   11.4174  -16.0112   28.6016 O   0  0  0  0  0  0  0  0  0  0  0  0
   10.0270  -17.7943   28.3045 O   0  0  0  0  0  0  0  0  0  0  0  0
  2  1  1  6
  3  2  1  0
  4  3  1  0
  5  4  1  0
  5  6  2  0
  7  2  1  0
  7  8  2  0
  9  5  1  0
 10  7  1  0
 11 10  1  0
 11 12  1  1
 12 13  1  0
 14 11  1  0
 15 14  2  0
 16 14  1  0
 17 16  1  0
 17 18  1  1
 18 19  1  0
 19 20  2  0
 20 21  1  0
 22 21  2  0
 23 22  1  0
 24 19  1  0
 24 23  2  0
 25 27  1  0
 25 17  1  0
 26 25  2  0
M  END
$$$$
