ECF.pdb
     RDKit          3D

 27 27  0  0  1  0  0  0  0  0999 V2000
    9.8291  -14.0042   19.7831 N   0  0  0  0  0  0  0  0  0  0  0  0
    8.4060  -13.8336   20.0794 C   0  0  1  0  0  0  0  0  0  0  0  0
    7.6598  -14.2870   18.8651 C   0  0  0  0  0  0  0  0  0  0  0  0
    8.5118  -14.4543   17.6334 C   0  0  0  0  0  0  0  0  0  0  0  0
    7.7375  -15.0512   16.5258 C   0  0  0  0  0  0  0  0  0  0  0  0
    6.5897  -14.6478   16.2213 O   0  0  0  0  0  0  0  0  0  0  0  0
    8.1009  -14.7487   21.2215 C   0  0  0  0  0  0  0  0  0  0  0  0
    6.9181  -14.9394   21.5770 O   0  0  0  0  0  0  0  0  0  0  0  0
    8.2865  -16.0882   15.7951 O   0  0  0  0  0  0  0  0  0  0  0  0
    9.1060  -15.4295   21.9405 N   0  0  0  0  0  0  0  0  0  0  0  0
    8.7777  -16.2490   23.0491 C   0  0  1  0  0  0  0  0  0  0  0  0
    9.1360  -17.7028   22.8785 C   0  0  0  0  0  0  0  0  0  0  0  0
   10.8632  -17.9556   22.4439 S   0  0  0  0  0  0  0  0  0  0  0  0
    9.3886  -15.8163   24.3308 C   0  0  0  0  0  0  0  0  0  0  0  0
   10.5564  -15.3457   24.2642 O   0  0  0  0  0  0  0  0  0  0  0  0
    8.7230  -15.9124   25.5752 N   0  0  0  0  0  0  0  0  0  0  0  0
    9.4682  -15.5374   26.7721 C   0  0  1  0  0  0  0  0  0  0  0  0
    8.5586  -14.6581   27.5971 C   0  0  0  0  0  0  0  0  0  0  0  0
    7.8891  -13.6303   26.7567 C   0  0  0  0  0  0  0  0  0  0  0  0
    6.5394  -13.3705   26.8448 C   0  0  0  0  0  0  0  0  0  0  0  0
    5.9386  -12.4212   26.0675 C   0  0  0  0  0  0  0  0  0  0  0  0
    6.7060  -11.6973   25.1639 C   0  0  0  0  0  0  0  0  0  0  0  0
    8.0484  -11.9433   25.0641 C   0  0  0  0  0  0  0  0  0  0  0  0
    8.6353  -12.9010   25.8531 C   0  0  0  0  0  0  0  0  0  0  0  0
    9.9636  -16.7223   27.4905 C   0  0  0  0  0  0  0  0  0  0  0  0
    9.6273  -17.8823   27.1524 O   0  0  0  0  0  0  0  0  0  0  0  0
   10.8362  -16.5840   28.5855 O   0  0  0  0  0  0  0  0  0  0  0  0
  2  1  1  6
  3  2  1  0
  4  3  1  0
  5  4  1  0
  5  6  2  0
  7  2  1  0
  7  8  2  0
  9  5  1  0
 10  7  1  0
 11 10  1  0
 11 12  1  6
 12 13  1  0
 14 11  1  0
 15 14  2  0
 16 14  1  0
 17 16  1  0
 17 18  1  1
 18 19  1  0
 19 20  2  0
 20 21  1  0
 22 21  2  0
 23 22  1  0
 24 19  1  0
 24 23  2  0
 25 27  1  0
 25 17  1  0
 26 25  2  0
M  END
$$$$
