PKC.pdb
     RDKit          3D

 23 23  0  0  1  0  0  0  0  0999 V2000
   20.1238  -12.6040  -16.0032 N   0  0  0  0  0  0  0  0  0  0  0  0
   20.4450  -13.9116  -16.5502 C   0  0  0  0  0  0  0  0  0  0  0  0
   20.2025  -13.7901  -18.0405 C   0  0  0  0  0  0  0  0  0  0  0  0
   20.0372  -12.2988  -18.2702 C   0  0  0  0  0  0  0  0  0  0  0  0
   20.6830  -11.7351  -17.0200 C   0  0  1  0  0  0  0  0  0  0  0  0
   20.3464  -10.3164  -16.8041 C   0  0  0  0  0  0  0  0  0  0  0  0
   20.9935   -9.4641  -17.4661 O   0  0  0  0  0  0  0  0  0  0  0  0
   19.3556   -9.8482  -15.9129 N   0  0  0  0  0  0  0  0  0  0  0  0
   19.0237   -8.4408  -15.8306 C   0  0  1  0  0  0  0  0  0  0  0  0
   17.5837   -8.2358  -15.4005 C   0  0  0  0  0  0  0  0  0  0  0  0
   16.7171   -8.9094  -16.4435 C   0  0  0  0  0  0  0  0  0  0  0  0
   15.2510   -8.7342  -16.1810 C   0  0  0  0  0  0  0  0  0  0  0  0
   14.4515   -9.5007  -17.1879 C   0  0  0  0  0  0  0  0  0  0  0  0
   13.0355   -9.2469  -16.8881 N   0  0  0  0  0  0  0  0  0  0  0  0
   19.9736   -7.7156  -14.9522 C   0  0  0  0  0  0  0  0  0  0  0  0
   20.3527   -8.1358  -13.8299 O   0  0  0  0  0  0  0  0  0  0  0  0
   20.5152   -6.4663  -15.3602 N   0  0  0  0  0  0  0  0  0  0  0  0
   21.3948   -5.6714  -14.5764 C   0  0  1  0  0  0  0  0  0  0  0  0
   22.6468   -5.3982  -15.4189 C   0  0  0  0  0  0  0  0  0  0  0  0
   23.7367   -4.2270  -14.5955 S   0  0  0  0  0  0  0  0  0  0  0  0
   20.8572   -4.4156  -14.0944 C   0  0  0  0  0  0  0  0  0  0  0  0
   19.9224   -3.7222  -14.8365 O   0  0  0  0  0  0  0  0  0  0  0  0
   21.2216   -3.9295  -13.0028 O   0  0  0  0  0  0  0  0  0  0  0  0
  1  5  1  0
  1  2  1  0
  2  3  1  0
  4  3  1  0
  5  4  1  0
  6  8  1  0
  5  6  1  1
  7  6  2  0
  9  8  1  0
  9 10  1  1
 10 11  1  0
 11 12  1  0
 13 12  1  0
 14 13  1  0
 15  9  1  0
 16 15  2  0
 17 15  1  0
 18 17  1  0
 18 21  1  0
 18 19  1  6
 20 19  1  0
 21 22  1  0
 23 21  2  0
M  END
$$$$
