PKC.pdb
     RDKit          3D

 23 23  0  0  1  0  0  0  0  0999 V2000
   26.1034  -12.4743  -17.3735 N   0  0  0  0  0  0  0  0  0  0  0  0
   27.2755  -13.1466  -16.8384 C   0  0  0  0  0  0  0  0  0  0  0  0
   27.7438  -12.2767  -15.6901 C   0  0  0  0  0  0  0  0  0  0  0  0
   26.6001  -11.3031  -15.4704 C   0  0  0  0  0  0  0  0  0  0  0  0
   25.4589  -12.0308  -16.1530 C   0  0  1  0  0  0  0  0  0  0  0  0
   24.3033  -11.1518  -16.4066 C   0  0  0  0  0  0  0  0  0  0  0  0
   24.3842  -10.3619  -17.3828 O   0  0  0  0  0  0  0  0  0  0  0  0
   23.1190  -11.1328  -15.6371 N   0  0  0  0  0  0  0  0  0  0  0  0
   22.0869  -10.1441  -15.8709 C   0  0  1  0  0  0  0  0  0  0  0  0
   20.7144  -10.6808  -15.5119 C   0  0  0  0  0  0  0  0  0  0  0  0
   20.4017  -11.7788  -16.5064 C   0  0  0  0  0  0  0  0  0  0  0  0
   19.0351  -12.3651  -16.3131 C   0  0  0  0  0  0  0  0  0  0  0  0
   18.7712  -13.4113  -17.3505 C   0  0  0  0  0  0  0  0  0  0  0  0
   17.4749  -14.0195  -17.0202 N   0  0  0  0  0  0  0  0  0  0  0  0
   22.3886   -8.8755  -15.1643 C   0  0  0  0  0  0  0  0  0  0  0  0
   23.3316   -8.7353  -14.3451 O   0  0  0  0  0  0  0  0  0  0  0  0
   21.5920   -7.7208  -15.3940 N   0  0  0  0  0  0  0  0  0  0  0  0
   21.9213   -6.4103  -14.9537 C   0  0  1  0  0  0  0  0  0  0  0  0
   23.1593   -5.9561  -15.7367 C   0  0  0  0  0  0  0  0  0  0  0  0
   23.6135   -4.2693  -15.3054 S   0  0  0  0  0  0  0  0  0  0  0  0
   20.8776   -5.4145  -15.0859 C   0  0  0  0  0  0  0  0  0  0  0  0
   20.7204   -4.4323  -14.1290 O   0  0  0  0  0  0  0  0  0  0  0  0
   20.0975   -5.4171  -16.0617 O   0  0  0  0  0  0  0  0  0  0  0  0
  1  5  1  0
  1  2  1  0
  2  3  1  0
  4  3  1  0
  5  4  1  0
  6  8  1  0
  5  6  1  6
  7  6  2  0
  9  8  1  0
  9 10  1  1
 10 11  1  0
 11 12  1  0
 13 12  1  0
 14 13  1  0
 15  9  1  0
 16 15  2  0
 17 15  1  0
 18 17  1  0
 18 21  1  0
 18 19  1  6
 20 19  1  0
 21 22  1  0
 23 21  2  0
M  END
$$$$
