PKC.pdb
     RDKit          3D

 23 23  0  0  1  0  0  0  0  0999 V2000
   23.6352  -12.6140  -15.0744 N   0  0  0  0  0  0  0  0  0  0  0  0
   24.5380  -13.6982  -15.4227 C   0  0  0  0  0  0  0  0  0  0  0  0
   24.2721  -13.9828  -16.8866 C   0  0  0  0  0  0  0  0  0  0  0  0
   23.4226  -12.8114  -17.3450 C   0  0  0  0  0  0  0  0  0  0  0  0
   23.7209  -11.7908  -16.2646 C   0  0  1  0  0  0  0  0  0  0  0  0
   22.7531  -10.6791  -16.2587 C   0  0  0  0  0  0  0  0  0  0  0  0
   22.9894   -9.7061  -17.0208 O   0  0  0  0  0  0  0  0  0  0  0  0
   21.5867  -10.6282  -15.4637 N   0  0  0  0  0  0  0  0  0  0  0  0
   20.6320   -9.5475  -15.5987 C   0  0  1  0  0  0  0  0  0  0  0  0
   19.2207  -10.0147  -15.2978 C   0  0  0  0  0  0  0  0  0  0  0  0
   18.6315  -10.4940  -16.6076 C   0  0  0  0  0  0  0  0  0  0  0  0
   17.2258  -10.9957  -16.4626 C   0  0  0  0  0  0  0  0  0  0  0  0
   16.6728  -11.3749  -17.8009 C   0  0  0  0  0  0  0  0  0  0  0  0
   15.3905  -12.0491  -17.5550 N   0  0  0  0  0  0  0  0  0  0  0  0
   21.0195   -8.3818  -14.7676 C   0  0  0  0  0  0  0  0  0  0  0  0
   21.4096   -8.4680  -13.5759 O   0  0  0  0  0  0  0  0  0  0  0  0
   20.9630   -7.0677  -15.3065 N   0  0  0  0  0  0  0  0  0  0  0  0
   21.1853   -5.8779  -14.5618 C   0  0  1  0  0  0  0  0  0  0  0  0
   22.6246   -5.4234  -14.8338 C   0  0  0  0  0  0  0  0  0  0  0  0
   23.0105   -3.9202  -13.9231 S   0  0  0  0  0  0  0  0  0  0  0  0
   20.2771   -4.7816  -14.8296 C   0  0  0  0  0  0  0  0  0  0  0  0
   19.7970   -4.0008  -13.7975 O   0  0  0  0  0  0  0  0  0  0  0  0
   19.9063   -4.5147  -15.9923 O   0  0  0  0  0  0  0  0  0  0  0  0
  1  5  1  0
  1  2  1  0
  2  3  1  0
  4  3  1  0
  5  4  1  0
  6  8  1  0
  5  6  1  1
  7  6  2  0
  9  8  1  0
  9 10  1  1
 10 11  1  0
 11 12  1  0
 13 12  1  0
 14 13  1  0
 15  9  1  0
 16 15  2  0
 17 15  1  0
 18 17  1  0
 18 21  1  0
 18 19  1  6
 20 19  1  0
 21 22  1  0
 23 21  2  0
M  END
$$$$
