PKC.pdb
     RDKit          3D

 23 23  0  0  1  0  0  0  0  0999 V2000
   30.8239  -22.2191  -12.7160 N   0  0  0  0  0  0  0  0  0  0  0  0
   31.9081  -22.6560  -11.8525 C   0  0  0  0  0  0  0  0  0  0  0  0
   32.1014  -21.5314  -10.8563 C   0  0  0  0  0  0  0  0  0  0  0  0
   30.8851  -20.6452  -11.0549 C   0  0  0  0  0  0  0  0  0  0  0  0
   29.9360  -21.6000  -11.7517 C   0  0  1  0  0  0  0  0  0  0  0  0
   28.8031  -20.9030  -12.3867 C   0  0  0  0  0  0  0  0  0  0  0  0
   27.9967  -20.3051  -11.6280 O   0  0  0  0  0  0  0  0  0  0  0  0
   28.5594  -20.8585  -13.7773 N   0  0  0  0  0  0  0  0  0  0  0  0
   27.4162  -20.1522  -14.3175 C   0  0  1  0  0  0  0  0  0  0  0  0
   27.5176  -20.0048  -15.8237 C   0  0  0  0  0  0  0  0  0  0  0  0
   26.3699  -19.1153  -16.2529 C   0  0  0  0  0  0  0  0  0  0  0  0
   26.3529  -18.8625  -17.7310 C   0  0  0  0  0  0  0  0  0  0  0  0
   25.1909  -17.9908  -18.0919 C   0  0  0  0  0  0  0  0  0  0  0  0
   25.2587  -17.7719  -19.5434 N   0  0  0  0  0  0  0  0  0  0  0  0
   26.1445  -20.7961  -13.9076 C   0  0  0  0  0  0  0  0  0  0  0  0
   25.8449  -21.9883  -14.1697 O   0  0  0  0  0  0  0  0  0  0  0  0
   25.1745  -20.0618  -13.1724 N   0  0  0  0  0  0  0  0  0  0  0  0
   24.0282  -20.6299  -12.5537 C   0  0  1  0  0  0  0  0  0  0  0  0
   24.0110  -20.1629  -11.0930 C   0  0  0  0  0  0  0  0  0  0  0  0
   24.5492  -21.4772   -9.9881 S   0  0  0  0  0  0  0  0  0  0  0  0
   22.7544  -20.3218  -13.1710 C   0  0  0  0  0  0  0  0  0  0  0  0
   21.6879  -21.1893  -13.0486 O   0  0  0  0  0  0  0  0  0  0  0  0
   22.5874  -19.2711  -13.8258 O   0  0  0  0  0  0  0  0  0  0  0  0
  1  5  1  0
  1  2  1  0
  2  3  1  0
  4  3  1  0
  5  4  1  0
  6  8  1  0
  5  6  1  6
  7  6  2  0
  9  8  1  0
  9 10  1  6
 10 11  1  0
 11 12  1  0
 13 12  1  0
 14 13  1  0
 15  9  1  0
 16 15  2  0
 17 15  1  0
 18 17  1  0
 18 21  1  0
 18 19  1  1
 20 19  1  0
 21 22  1  0
 23 21  2  0
M  END
$$$$
