PKC.pdb
     RDKit          3D

 23 23  0  0  1  0  0  0  0  0999 V2000
   22.9839  -11.0014  -14.9013 N   0  0  0  0  0  0  0  0  0  0  0  0
   24.1481  -11.8709  -14.9289 C   0  0  0  0  0  0  0  0  0  0  0  0
   24.5567  -11.9428  -16.3858 C   0  0  0  0  0  0  0  0  0  0  0  0
   23.7472  -10.8463  -17.0539 C   0  0  0  0  0  0  0  0  0  0  0  0
   23.3742   -9.9878  -15.8615 C   0  0  1  0  0  0  0  0  0  0  0  0
   22.2842   -9.0439  -16.1673 C   0  0  0  0  0  0  0  0  0  0  0  0
   22.5556   -8.0774  -16.9260 O   0  0  0  0  0  0  0  0  0  0  0  0
   20.9651   -9.1460  -15.6727 N   0  0  0  0  0  0  0  0  0  0  0  0
   19.9469   -8.1855  -16.0445 C   0  0  1  0  0  0  0  0  0  0  0  0
   18.5995   -8.8543  -16.2391 C   0  0  0  0  0  0  0  0  0  0  0  0
   17.6796   -7.8142  -16.8429 C   0  0  0  0  0  0  0  0  0  0  0  0
   16.2718   -8.3061  -17.0008 C   0  0  0  0  0  0  0  0  0  0  0  0
   15.4319   -7.2612  -17.6666 C   0  0  0  0  0  0  0  0  0  0  0  0
   14.0561   -7.7766  -17.6948 N   0  0  0  0  0  0  0  0  0  0  0  0
   19.8773   -7.0715  -15.0678 C   0  0  0  0  0  0  0  0  0  0  0  0
   19.4322   -7.1901  -13.8983 O   0  0  0  0  0  0  0  0  0  0  0  0
   20.3290   -5.7731  -15.4291 N   0  0  0  0  0  0  0  0  0  0  0  0
   20.2399   -4.6249  -14.5963 C   0  0  1  0  0  0  0  0  0  0  0  0
   21.6669   -4.1205  -14.3487 C   0  0  0  0  0  0  0  0  0  0  0  0
   22.6142   -5.3089  -13.3854 S   0  0  0  0  0  0  0  0  0  0  0  0
   19.4266   -3.5367  -15.0991 C   0  0  0  0  0  0  0  0  0  0  0  0
   18.8961   -2.6005  -14.2348 O   0  0  0  0  0  0  0  0  0  0  0  0
   19.1849   -3.4166  -16.3189 O   0  0  0  0  0  0  0  0  0  0  0  0
  1  5  1  0
  1  2  1  0
  2  3  1  0
  4  3  1  0
  5  4  1  0
  6  8  1  0
  5  6  1  6
  7  6  2  0
  9  8  1  0
  9 10  1  1
 10 11  1  0
 11 12  1  0
 13 12  1  0
 14 13  1  0
 15  9  1  0
 16 15  2  0
 17 15  1  0
 18 17  1  0
 18 21  1  0
 18 19  1  6
 20 19  1  0
 21 22  1  0
 23 21  2  0
M  END
$$$$
