PKC.pdb
     RDKit          3D

 23 23  0  0  1  0  0  0  0  0999 V2000
   28.5326  -18.9323  -17.0634 N   0  0  0  0  0  0  0  0  0  0  0  0
   29.1773  -17.7875  -17.6845 C   0  0  0  0  0  0  0  0  0  0  0  0
   28.0580  -16.8086  -17.9736 C   0  0  0  0  0  0  0  0  0  0  0  0
   26.8705  -17.3650  -17.2092 C   0  0  0  0  0  0  0  0  0  0  0  0
   27.5618  -18.2734  -16.2118 C   0  0  1  0  0  0  0  0  0  0  0  0
   26.6297  -19.2198  -15.5732 C   0  0  0  0  0  0  0  0  0  0  0  0
   25.7456  -18.7368  -14.8192 O   0  0  0  0  0  0  0  0  0  0  0  0
   26.6576  -20.6214  -15.7460 N   0  0  0  0  0  0  0  0  0  0  0  0
   25.6690  -21.4753  -15.1206 C   0  0  1  0  0  0  0  0  0  0  0  0
   25.6602  -22.8591  -15.7417 C   0  0  0  0  0  0  0  0  0  0  0  0
   24.4556  -23.5824  -15.1778 C   0  0  0  0  0  0  0  0  0  0  0  0
   24.3694  -25.0087  -15.6330 C   0  0  0  0  0  0  0  0  0  0  0  0
   23.1024  -25.6327  -15.1373 C   0  0  0  0  0  0  0  0  0  0  0  0
   23.1106  -27.0299  -15.5926 N   0  0  0  0  0  0  0  0  0  0  0  0
   25.8582  -21.5284  -13.6505 C   0  0  0  0  0  0  0  0  0  0  0  0
   26.9376  -21.8506  -13.0928 O   0  0  0  0  0  0  0  0  0  0  0  0
   24.7839  -21.2041  -12.7780 N   0  0  0  0  0  0  0  0  0  0  0  0
   24.8742  -21.1748  -11.3600 C   0  0  1  0  0  0  0  0  0  0  0  0
   25.9144  -20.1124  -10.9841 C   0  0  0  0  0  0  0  0  0  0  0  0
   26.0737  -19.9679   -9.1977 S   0  0  0  0  0  0  0  0  0  0  0  0
   23.6395  -20.9101  -10.6500 C   0  0  0  0  0  0  0  0  0  0  0  0
   23.5019  -21.2701   -9.3247 O   0  0  0  0  0  0  0  0  0  0  0  0
   22.6733  -20.3533  -11.2130 O   0  0  0  0  0  0  0  0  0  0  0  0
  1  5  1  0
  1  2  1  0
  2  3  1  0
  4  3  1  0
  5  4  1  0
  6  8  1  0
  5  6  1  6
  7  6  2  0
  9  8  1  0
  9 10  1  6
 10 11  1  0
 11 12  1  0
 13 12  1  0
 14 13  1  0
 15  9  1  0
 16 15  2  0
 17 15  1  0
 18 17  1  0
 18 21  1  0
 18 19  1  6
 20 19  1  0
 21 22  1  0
 23 21  2  0
M  END
$$$$
