PKC.pdb
     RDKit          3D

 23 23  0  0  1  0  0  0  0  0999 V2000
   28.0722  -19.7384  -18.0710 N   0  0  0  0  0  0  0  0  0  0  0  0
   29.2440  -19.3915  -18.8575 C   0  0  0  0  0  0  0  0  0  0  0  0
   29.4374  -17.9037  -18.6487 C   0  0  0  0  0  0  0  0  0  0  0  0
   28.5083  -17.5658  -17.4969 C   0  0  0  0  0  0  0  0  0  0  0  0
   28.2892  -18.9349  -16.8840 C   0  0  1  0  0  0  0  0  0  0  0  0
   27.1401  -18.9605  -15.9614 C   0  0  0  0  0  0  0  0  0  0  0  0
   27.2159  -18.2472  -14.9276 O   0  0  0  0  0  0  0  0  0  0  0  0
   25.9671  -19.7236  -16.1536 N   0  0  0  0  0  0  0  0  0  0  0  0
   24.8427  -19.6143  -15.2473 C   0  0  1  0  0  0  0  0  0  0  0  0
   23.5291  -19.8683  -15.9617 C   0  0  0  0  0  0  0  0  0  0  0  0
   22.4285  -19.6203  -14.9518 C   0  0  0  0  0  0  0  0  0  0  0  0
   21.0596  -19.8634  -15.5138 C   0  0  0  0  0  0  0  0  0  0  0  0
   20.0190  -19.5938  -14.4721 C   0  0  0  0  0  0  0  0  0  0  0  0
   18.7196  -19.9216  -15.0750 N   0  0  0  0  0  0  0  0  0  0  0  0
   25.0141  -20.4996  -14.0699 C   0  0  0  0  0  0  0  0  0  0  0  0
   25.1939  -21.7413  -14.1455 O   0  0  0  0  0  0  0  0  0  0  0  0
   24.9806  -19.9583  -12.7559 N   0  0  0  0  0  0  0  0  0  0  0  0
   25.0146  -20.7292  -11.5625 C   0  0  1  0  0  0  0  0  0  0  0  0
   26.0927  -20.1272  -10.6529 C   0  0  0  0  0  0  0  0  0  0  0  0
   26.1265  -20.9551   -9.0557 S   0  0  0  0  0  0  0  0  0  0  0  0
   23.7676  -20.8237  -10.8313 C   0  0  0  0  0  0  0  0  0  0  0  0
   23.5168  -21.9040  -10.0096 O   0  0  0  0  0  0  0  0  0  0  0  0
   22.8921  -19.9374  -10.9234 O   0  0  0  0  0  0  0  0  0  0  0  0
  1  5  1  0
  1  2  1  0
  2  3  1  0
  4  3  1  0
  5  4  1  0
  6  8  1  0
  5  6  1  1
  7  6  2  0
  9  8  1  0
  9 10  1  6
 10 11  1  0
 11 12  1  0
 13 12  1  0
 14 13  1  0
 15  9  1  0
 16 15  2  0
 17 15  1  0
 18 17  1  0
 18 21  1  0
 18 19  1  1
 20 19  1  0
 21 22  1  0
 23 21  2  0
M  END
$$$$
