PKC.pdb
     RDKit          3D

 23 23  0  0  1  0  0  0  0  0999 V2000
   21.4849  -11.6974  -18.3320 N   0  0  0  0  0  0  0  0  0  0  0  0
   21.9111  -12.7118  -19.2814 C   0  0  0  0  0  0  0  0  0  0  0  0
   21.7535  -12.0718  -20.6453 C   0  0  0  0  0  0  0  0  0  0  0  0
   21.5197  -10.6029  -20.3423 C   0  0  0  0  0  0  0  0  0  0  0  0
   22.0557  -10.5053  -18.9277 C   0  0  1  0  0  0  0  0  0  0  0  0
   21.6282   -9.2691  -18.2485 C   0  0  0  0  0  0  0  0  0  0  0  0
   22.1383   -8.1890  -18.6441 O   0  0  0  0  0  0  0  0  0  0  0  0
   20.6926   -9.2104  -17.1919 N   0  0  0  0  0  0  0  0  0  0  0  0
   20.2263   -7.9422  -16.6708 C   0  0  1  0  0  0  0  0  0  0  0  0
   18.8327   -8.0632  -16.0843 C   0  0  0  0  0  0  0  0  0  0  0  0
   17.8909   -8.3060  -17.2447 C   0  0  0  0  0  0  0  0  0  0  0  0
   16.4535   -8.3703  -16.8220 C   0  0  0  0  0  0  0  0  0  0  0  0
   15.5833   -8.6848  -17.9985 C   0  0  0  0  0  0  0  0  0  0  0  0
   14.1919   -8.5796  -17.5379 N   0  0  0  0  0  0  0  0  0  0  0  0
   21.1904   -7.3746  -15.6972 C   0  0  0  0  0  0  0  0  0  0  0  0
   21.7519   -8.0439  -14.7936 O   0  0  0  0  0  0  0  0  0  0  0  0
   21.5321   -5.9957  -15.7486 N   0  0  0  0  0  0  0  0  0  0  0  0
   22.4322   -5.3518  -14.8570 C   0  0  1  0  0  0  0  0  0  0  0  0
   22.9519   -4.0892  -15.5554 C   0  0  0  0  0  0  0  0  0  0  0  0
   23.7711   -4.4983  -17.1043 S   0  0  0  0  0  0  0  0  0  0  0  0
   21.8957   -4.9961  -13.5593 C   0  0  0  0  0  0  0  0  0  0  0  0
   22.7387   -4.6442  -12.5246 O   0  0  0  0  0  0  0  0  0  0  0  0
   20.6654   -4.9981  -13.3425 O   0  0  0  0  0  0  0  0  0  0  0  0
  1  5  1  0
  1  2  1  0
  2  3  1  0
  4  3  1  0
  5  4  1  0
  6  8  1  0
  5  6  1  1
  7  6  2  0
  9  8  1  0
  9 10  1  1
 10 11  1  0
 11 12  1  0
 13 12  1  0
 14 13  1  0
 15  9  1  0
 16 15  2  0
 17 15  1  0
 18 17  1  0
 18 21  1  0
 18 19  1  6
 20 19  1  0
 21 22  1  0
 23 21  2  0
M  END
$$$$
