PKC.pdb
     RDKit          3D

 23 23  0  0  1  0  0  0  0  0999 V2000
   42.0517  -11.7760  -10.0456 N   0  0  0  0  0  0  0  0  0  0  0  0
   42.2257  -13.0691  -10.6856 C   0  0  0  0  0  0  0  0  0  0  0  0
   42.2814  -14.0707   -9.5506 C   0  0  0  0  0  0  0  0  0  0  0  0
   41.8305  -13.2811   -8.3351 C   0  0  0  0  0  0  0  0  0  0  0  0
   41.1176  -12.1145   -8.9898 C   0  0  1  0  0  0  0  0  0  0  0  0
   40.8878  -10.9992   -8.0540 C   0  0  0  0  0  0  0  0  0  0  0  0
   40.0529  -11.1849   -7.1311 O   0  0  0  0  0  0  0  0  0  0  0  0
   41.5337   -9.7447   -8.1187 N   0  0  0  0  0  0  0  0  0  0  0  0
   41.1252   -8.6447   -7.2699 C   0  0  1  0  0  0  0  0  0  0  0  0
   42.3237   -7.9114   -6.6987 C   0  0  0  0  0  0  0  0  0  0  0  0
   42.9336   -8.8209   -5.6530 C   0  0  0  0  0  0  0  0  0  0  0  0
   44.1900   -8.2595   -5.0571 C   0  0  0  0  0  0  0  0  0  0  0  0
   44.7823   -9.2352   -4.0887 C   0  0  0  0  0  0  0  0  0  0  0  0
   46.0067   -8.6185   -3.5597 N   0  0  0  0  0  0  0  0  0  0  0  0
   40.2034   -7.7286   -7.9846 C   0  0  0  0  0  0  0  0  0  0  0  0
   40.3556   -7.3716   -9.1801 O   0  0  0  0  0  0  0  0  0  0  0  0
   39.0653   -7.1959   -7.3201 N   0  0  0  0  0  0  0  0  0  0  0  0
   38.1144   -6.3246   -7.9171 C   0  0  1  0  0  0  0  0  0  0  0  0
   36.7399   -6.9965   -7.8110 C   0  0  0  0  0  0  0  0  0  0  0  0
   36.3678   -7.4410   -6.1076 S   0  0  0  0  0  0  0  0  0  0  0  0
   38.0399   -4.9888   -7.3614 C   0  0  0  0  0  0  0  0  0  0  0  0
   37.2560   -4.0232   -7.9600 O   0  0  0  0  0  0  0  0  0  0  0  0
   38.6777   -4.6766   -6.3336 O   0  0  0  0  0  0  0  0  0  0  0  0
  1  5  1  0
  1  2  1  0
  2  3  1  0
  4  3  1  0
  5  4  1  0
  6  8  1  0
  5  6  1  1
  7  6  2  0
  9  8  1  0
  9 10  1  6
 10 11  1  0
 11 12  1  0
 13 12  1  0
 14 13  1  0
 15  9  1  0
 16 15  2  0
 17 15  1  0
 18 17  1  0
 18 21  1  0
 18 19  1  1
 20 19  1  0
 21 22  1  0
 23 21  2  0
M  END
$$$$
