PKC.pdb
     RDKit          3D

 23 23  0  0  1  0  0  0  0  0999 V2000
   26.1935  -11.4353  -17.6305 N   0  0  0  0  0  0  0  0  0  0  0  0
   27.3599  -12.1021  -17.0765 C   0  0  0  0  0  0  0  0  0  0  0  0
   27.5925  -11.4452  -15.7315 C   0  0  0  0  0  0  0  0  0  0  0  0
   26.3324  -10.6339  -15.4907 C   0  0  0  0  0  0  0  0  0  0  0  0
   25.3652  -11.3013  -16.4483 C   0  0  1  0  0  0  0  0  0  0  0  0
   24.1595  -10.4879  -16.6874 C   0  0  0  0  0  0  0  0  0  0  0  0
   24.2626   -9.5297  -17.4964 O   0  0  0  0  0  0  0  0  0  0  0  0
   22.9044  -10.7058  -16.0770 N   0  0  0  0  0  0  0  0  0  0  0  0
   21.7917   -9.8074  -16.3057 C   0  0  1  0  0  0  0  0  0  0  0  0
   20.4642  -10.5347  -16.2101 C   0  0  0  0  0  0  0  0  0  0  0  0
   19.4101   -9.5910  -16.7494 C   0  0  0  0  0  0  0  0  0  0  0  0
   18.0269  -10.1664  -16.6825 C   0  0  0  0  0  0  0  0  0  0  0  0
   17.0644   -9.2817  -17.4113 C   0  0  0  0  0  0  0  0  0  0  0  0
   16.7056   -8.1946  -16.4901 N   0  0  0  0  0  0  0  0  0  0  0  0
   21.8502   -8.6377  -15.3956 C   0  0  0  0  0  0  0  0  0  0  0  0
   22.3987   -8.6548  -14.2649 O   0  0  0  0  0  0  0  0  0  0  0  0
   21.2649   -7.4009  -15.7806 N   0  0  0  0  0  0  0  0  0  0  0  0
   21.4344   -6.1741  -15.0834 C   0  0  1  0  0  0  0  0  0  0  0  0
   22.9394   -5.8897  -15.0056 C   0  0  0  0  0  0  0  0  0  0  0  0
   23.2612   -4.3456  -14.1397 S   0  0  0  0  0  0  0  0  0  0  0  0
   20.7571   -5.0242  -15.6468 C   0  0  0  0  0  0  0  0  0  0  0  0
   20.3506   -3.9834  -14.8364 O   0  0  0  0  0  0  0  0  0  0  0  0
   20.5241   -4.9434  -16.8714 O   0  0  0  0  0  0  0  0  0  0  0  0
  1  5  1  0
  1  2  1  0
  2  3  1  0
  4  3  1  0
  5  4  1  0
  6  8  1  0
  5  6  1  6
  7  6  2  0
  9  8  1  0
  9 10  1  1
 10 11  1  0
 11 12  1  0
 13 12  1  0
 14 13  1  0
 15  9  1  0
 16 15  2  0
 17 15  1  0
 18 17  1  0
 18 21  1  0
 18 19  1  6
 20 19  1  0
 21 22  1  0
 23 21  2  0
M  END
$$$$
