PKC.pdb
     RDKit          3D

 23 23  0  0  1  0  0  0  0  0999 V2000
   29.8938  -21.4188  -12.2264 N   0  0  0  0  0  0  0  0  0  0  0  0
   30.7970  -22.0459  -11.2762 C   0  0  0  0  0  0  0  0  0  0  0  0
   30.5353  -21.3475   -9.9577 C   0  0  0  0  0  0  0  0  0  0  0  0
   29.2633  -20.5560  -10.2020 C   0  0  0  0  0  0  0  0  0  0  0  0
   28.7013  -21.2695  -11.4157 C   0  0  1  0  0  0  0  0  0  0  0  0
   27.6490  -20.4881  -12.0899 C   0  0  0  0  0  0  0  0  0  0  0  0
   26.5999  -20.2512  -11.4366 O   0  0  0  0  0  0  0  0  0  0  0  0
   27.7333  -19.9891  -13.4087 N   0  0  0  0  0  0  0  0  0  0  0  0
   26.6054  -19.3334  -14.0374 C   0  0  1  0  0  0  0  0  0  0  0  0
   27.0044  -18.6794  -15.3465 C   0  0  0  0  0  0  0  0  0  0  0  0
   25.8013  -17.8958  -15.8269 C   0  0  0  0  0  0  0  0  0  0  0  0
   26.0531  -17.1811  -17.1211 C   0  0  0  0  0  0  0  0  0  0  0  0
   24.8666  -16.3457  -17.4883 C   0  0  0  0  0  0  0  0  0  0  0  0
   25.2012  -15.6622  -18.7453 N   0  0  0  0  0  0  0  0  0  0  0  0
   25.4677  -20.2692  -14.2092 C   0  0  0  0  0  0  0  0  0  0  0  0
   25.5604  -21.3924  -14.7659 O   0  0  0  0  0  0  0  0  0  0  0  0
   24.1749  -19.9200  -13.7323 N   0  0  0  0  0  0  0  0  0  0  0  0
   23.0178  -20.7351  -13.8613 C   0  0  1  0  0  0  0  0  0  0  0  0
   22.8163  -21.4675  -12.5290 C   0  0  0  0  0  0  0  0  0  0  0  0
   22.1484  -20.3604  -11.2776 S   0  0  0  0  0  0  0  0  0  0  0  0
   21.7941  -20.0487  -14.2215 C   0  0  0  0  0  0  0  0  0  0  0  0
   20.6335  -20.7593  -14.4523 O   0  0  0  0  0  0  0  0  0  0  0  0
   21.7556  -18.8050  -14.3323 O   0  0  0  0  0  0  0  0  0  0  0  0
  1  5  1  0
  1  2  1  0
  2  3  1  0
  4  3  1  0
  5  4  1  0
  6  8  1  0
  5  6  1  6
  7  6  2  0
  9  8  1  0
  9 10  1  6
 10 11  1  0
 11 12  1  0
 13 12  1  0
 14 13  1  0
 15  9  1  0
 16 15  2  0
 17 15  1  0
 18 17  1  0
 18 21  1  0
 18 19  1  1
 20 19  1  0
 21 22  1  0
 23 21  2  0
M  END
$$$$
