PKC.pdb
     RDKit          3D

 23 23  0  0  1  0  0  0  0  0999 V2000
   28.2576  -22.6556  -16.2729 N   0  0  0  0  0  0  0  0  0  0  0  0
   29.5155  -22.6374  -17.0005 C   0  0  0  0  0  0  0  0  0  0  0  0
   29.1283  -22.6387  -18.4650 C   0  0  0  0  0  0  0  0  0  0  0  0
   27.6371  -22.3557  -18.4558 C   0  0  0  0  0  0  0  0  0  0  0  0
   27.4609  -21.7502  -17.0773 C   0  0  1  0  0  0  0  0  0  0  0  0
   26.0486  -21.7089  -16.6577 C   0  0  0  0  0  0  0  0  0  0  0  0
   25.2842  -20.9307  -17.2849 O   0  0  0  0  0  0  0  0  0  0  0  0
   25.4952  -22.4757  -15.6084 N   0  0  0  0  0  0  0  0  0  0  0  0
   24.0777  -22.4347  -15.3146 C   0  0  1  0  0  0  0  0  0  0  0  0
   23.6825  -23.5273  -14.3395 C   0  0  0  0  0  0  0  0  0  0  0  0
   23.2285  -24.7093  -15.1696 C   0  0  0  0  0  0  0  0  0  0  0  0
   22.6537  -25.8165  -14.3374 C   0  0  0  0  0  0  0  0  0  0  0  0
   22.1031  -26.8928  -15.2200 C   0  0  0  0  0  0  0  0  0  0  0  0
   21.6568  -27.9792  -14.3370 N   0  0  0  0  0  0  0  0  0  0  0  0
   23.6665  -21.0915  -14.8389 C   0  0  0  0  0  0  0  0  0  0  0  0
   24.1901  -20.5029  -13.8595 O   0  0  0  0  0  0  0  0  0  0  0  0
   22.6222  -20.3872  -15.4976 N   0  0  0  0  0  0  0  0  0  0  0  0
   22.0593  -19.1640  -15.0428 C   0  0  1  0  0  0  0  0  0  0  0  0
   21.8468  -18.2678  -16.2690 C   0  0  0  0  0  0  0  0  0  0  0  0
   21.0330  -16.7295  -15.8117 S   0  0  0  0  0  0  0  0  0  0  0  0
   20.8169  -19.2715  -14.3057 C   0  0  0  0  0  0  0  0  0  0  0  0
   19.7864  -20.0583  -14.7795 O   0  0  0  0  0  0  0  0  0  0  0  0
   20.6451  -18.6602  -13.2299 O   0  0  0  0  0  0  0  0  0  0  0  0
  1  5  1  0
  1  2  1  0
  2  3  1  0
  4  3  1  0
  5  4  1  0
  6  8  1  0
  5  6  1  1
  7  6  2  0
  9  8  1  0
  9 10  1  1
 10 11  1  0
 11 12  1  0
 13 12  1  0
 14 13  1  0
 15  9  1  0
 16 15  2  0
 17 15  1  0
 18 17  1  0
 18 21  1  0
 18 19  1  6
 20 19  1  0
 21 22  1  0
 23 21  2  0
M  END
$$$$
