HHC.pdb
     RDKit          3D

 27 28  0  0  1  0  0  0  0  0999 V2000
   24.9967  -11.7205  -17.9196 N   0  0  0  0  0  0  0  0  0  0  0  0
   24.8320  -11.3321  -16.5412 C   0  0  1  0  0  0  0  0  0  0  0  0
   26.1495  -10.6670  -16.1214 C   0  0  0  0  0  0  0  0  0  0  0  0
   27.2588  -11.6385  -16.1763 C   0  0  0  0  0  0  0  0  0  0  0  0
   28.5185  -11.4829  -16.7405 C   0  0  0  0  0  0  0  0  0  0  0  0
   29.2331  -12.6125  -16.5751 N   0  0  0  0  0  0  0  0  0  0  0  0
   28.4304  -13.4655  -15.9150 C   0  0  0  0  0  0  0  0  0  0  0  0
   27.2445  -12.8846  -15.6738 N   0  0  0  0  0  0  0  0  0  0  0  0
   23.7562  -10.2870  -16.4084 C   0  0  0  0  0  0  0  0  0  0  0  0
   23.6978   -9.3640  -17.2611 O   0  0  0  0  0  0  0  0  0  0  0  0
   22.8439  -10.3772  -15.3263 N   0  0  0  0  0  0  0  0  0  0  0  0
   21.7457   -9.4535  -15.2699 C   0  0  1  0  0  0  0  0  0  0  0  0
   20.6349  -10.1182  -14.5050 C   0  0  0  0  0  0  0  0  0  0  0  0
   19.8697  -10.9969  -15.3877 C   0  0  0  0  0  0  0  0  0  0  0  0
   20.0723  -11.1447  -16.7422 C   0  0  0  0  0  0  0  0  0  0  0  0
   19.1794  -12.0344  -17.2081 N   0  0  0  0  0  0  0  0  0  0  0  0
   18.4380  -12.4346  -16.1813 C   0  0  0  0  0  0  0  0  0  0  0  0
   18.8505  -11.8091  -15.0705 N   0  0  0  0  0  0  0  0  0  0  0  0
   22.1371   -8.1252  -14.7585 C   0  0  0  0  0  0  0  0  0  0  0  0
   22.7059   -8.0337  -13.6439 O   0  0  0  0  0  0  0  0  0  0  0  0
   21.9044   -6.9146  -15.4666 N   0  0  0  0  0  0  0  0  0  0  0  0
   22.2729   -5.6114  -14.9768 C   0  0  1  0  0  0  0  0  0  0  0  0
   22.8178   -4.7173  -16.0952 C   0  0  0  0  0  0  0  0  0  0  0  0
   23.2746   -3.1211  -15.4178 S   0  0  0  0  0  0  0  0  0  0  0  0
   21.2090   -4.9446  -14.2293 C   0  0  0  0  0  0  0  0  0  0  0  0
   20.0146   -5.0613  -14.5749 O   0  0  0  0  0  0  0  0  0  0  0  0
   21.5093   -4.1727  -13.1260 O   0  0  0  0  0  0  0  0  0  0  0  0
  2  1  1  6
  2  3  1  0
  2  9  1  0
  4  5  2  0
  4  3  1  0
  6  5  1  0
  7  8  2  0
  7  6  1  0
  8  4  1  0
  9 11  1  0
 10  9  2  0
 11 12  1  0
 12 13  1  1
 13 14  1  0
 14 15  2  0
 15 16  1  0
 17 16  1  0
 18 14  1  0
 18 17  2  0
 19 12  1  0
 19 20  2  0
 21 19  1  0
 22 25  1  0
 22 21  1  0
 22 23  1  6
 24 23  1  0
 25 27  1  0
 26 25  2  0
M  END
$$$$
