HHC.pdb
     RDKit          3D

 27 28  0  0  1  0  0  0  0  0999 V2000
   22.5711  -13.9370  -16.9409 N   0  0  0  0  0  0  0  0  0  0  0  0
   22.0372  -12.7934  -17.6372 C   0  0  1  0  0  0  0  0  0  0  0  0
   20.5106  -12.9451  -17.6064 C   0  0  0  0  0  0  0  0  0  0  0  0
   20.0929  -14.1224  -18.3919 C   0  0  0  0  0  0  0  0  0  0  0  0
   20.5114  -14.5108  -19.6581 C   0  0  0  0  0  0  0  0  0  0  0  0
   19.8850  -15.6487  -20.0145 N   0  0  0  0  0  0  0  0  0  0  0  0
   19.0836  -15.9690  -18.9836 C   0  0  0  0  0  0  0  0  0  0  0  0
   19.2056  -15.0553  -18.0078 N   0  0  0  0  0  0  0  0  0  0  0  0
   22.3623  -11.5220  -16.8989 C   0  0  0  0  0  0  0  0  0  0  0  0
   21.8898  -11.3520  -15.7454 O   0  0  0  0  0  0  0  0  0  0  0  0
   23.1905  -10.5577  -17.5277 N   0  0  0  0  0  0  0  0  0  0  0  0
   23.5177   -9.3562  -16.8121 C   0  0  1  0  0  0  0  0  0  0  0  0
   24.9469   -9.0153  -17.1312 C   0  0  0  0  0  0  0  0  0  0  0  0
   25.8401  -10.0515  -16.6164 C   0  0  0  0  0  0  0  0  0  0  0  0
   25.5372  -10.9419  -15.6097 C   0  0  0  0  0  0  0  0  0  0  0  0
   26.6030  -11.7371  -15.4147 N   0  0  0  0  0  0  0  0  0  0  0  0
   27.5469  -11.3606  -16.2700 C   0  0  0  0  0  0  0  0  0  0  0  0
   27.0919  -10.3366  -17.0046 N   0  0  0  0  0  0  0  0  0  0  0  0
   22.5550   -8.2633  -17.0524 C   0  0  0  0  0  0  0  0  0  0  0  0
   21.9386   -8.2099  -18.1440 O   0  0  0  0  0  0  0  0  0  0  0  0
   22.2759   -7.2435  -16.1021 N   0  0  0  0  0  0  0  0  0  0  0  0
   21.2631   -6.2347  -16.2772 C   0  0  1  0  0  0  0  0  0  0  0  0
   19.8783   -6.8520  -16.4969 C   0  0  0  0  0  0  0  0  0  0  0  0
   18.6380   -5.5570  -16.4981 S   0  0  0  0  0  0  0  0  0  0  0  0
   21.2406   -5.2364  -15.2104 C   0  0  0  0  0  0  0  0  0  0  0  0
   21.4616   -5.5620  -14.0251 O   0  0  0  0  0  0  0  0  0  0  0  0
   20.9738   -3.9137  -15.4976 O   0  0  0  0  0  0  0  0  0  0  0  0
  2  1  1  1
  2  3  1  0
  2  9  1  0
  4  5  2  0
  4  3  1  0
  6  5  1  0
  7  8  2  0
  7  6  1  0
  8  4  1  0
  9 11  1  0
 10  9  2  0
 11 12  1  0
 12 13  1  6
 13 14  1  0
 14 15  2  0
 15 16  1  0
 17 16  1  0
 18 14  1  0
 18 17  2  0
 19 12  1  0
 19 20  2  0
 21 19  1  0
 22 25  1  0
 22 21  1  0
 22 23  1  1
 24 23  1  0
 25 27  1  0
 26 25  2  0
M  END
$$$$
