HHC.pdb
     RDKit          3D

 27 28  0  0  1  0  0  0  0  0999 V2000
   17.0623  -11.8971  -12.9960 N   0  0  0  0  0  0  0  0  0  0  0  0
   17.3381  -10.5323  -13.3692 C   0  0  1  0  0  0  0  0  0  0  0  0
   16.8557  -10.3765  -14.8173 C   0  0  0  0  0  0  0  0  0  0  0  0
   17.6050  -11.2802  -15.7113 C   0  0  0  0  0  0  0  0  0  0  0  0
   18.6797  -10.9829  -16.5396 C   0  0  0  0  0  0  0  0  0  0  0  0
   19.0730  -12.0947  -17.1903 N   0  0  0  0  0  0  0  0  0  0  0  0
   18.2542  -13.0766  -16.7744 C   0  0  0  0  0  0  0  0  0  0  0  0
   17.3717  -12.5917  -15.8867 N   0  0  0  0  0  0  0  0  0  0  0  0
   16.5247   -9.5784  -12.5353 C   0  0  0  0  0  0  0  0  0  0  0  0
   16.4042   -8.3867  -12.9198 O   0  0  0  0  0  0  0  0  0  0  0  0
   15.9209  -10.0543  -11.3435 N   0  0  0  0  0  0  0  0  0  0  0  0
   15.0415   -9.1807  -10.6181 C   0  0  1  0  0  0  0  0  0  0  0  0
   14.1097  -10.0438   -9.8135 C   0  0  0  0  0  0  0  0  0  0  0  0
   13.1297   -9.2141   -9.1151 C   0  0  0  0  0  0  0  0  0  0  0  0
   13.0375   -7.8421   -9.1987 C   0  0  0  0  0  0  0  0  0  0  0  0
   12.0192   -7.4392   -8.4196 N   0  0  0  0  0  0  0  0  0  0  0  0
   11.4868   -8.5213   -7.8630 C   0  0  0  0  0  0  0  0  0  0  0  0
   12.1555   -9.6049   -8.2801 N   0  0  0  0  0  0  0  0  0  0  0  0
   15.7634   -8.1577   -9.8362 C   0  0  0  0  0  0  0  0  0  0  0  0
   16.8223   -8.4679   -9.2389 O   0  0  0  0  0  0  0  0  0  0  0  0
   15.3237   -6.8112   -9.7148 N   0  0  0  0  0  0  0  0  0  0  0  0
   16.0827   -5.7710   -9.0698 C   0  0  1  0  0  0  0  0  0  0  0  0
   17.4679   -5.6029   -9.7024 C   0  0  0  0  0  0  0  0  0  0  0  0
   18.3100   -4.2148   -8.9415 S   0  0  0  0  0  0  0  0  0  0  0  0
   15.3745   -4.4957   -8.9863 C   0  0  0  0  0  0  0  0  0  0  0  0
   14.5728   -4.1495   -9.8791 O   0  0  0  0  0  0  0  0  0  0  0  0
   15.5817   -3.6511   -7.9152 O   0  0  0  0  0  0  0  0  0  0  0  0
  2  1  1  1
  2  3  1  0
  2  9  1  0
  4  5  2  0
  4  3  1  0
  6  5  1  0
  7  8  2  0
  7  6  1  0
  8  4  1  0
  9 11  1  0
 10  9  2  0
 11 12  1  0
 12 13  1  1
 13 14  1  0
 14 15  2  0
 15 16  1  0
 17 16  1  0
 18 14  1  0
 18 17  2  0
 19 12  1  0
 19 20  2  0
 21 19  1  0
 22 25  1  0
 22 21  1  0
 22 23  1  6
 24 23  1  0
 25 27  1  0
 26 25  2  0
M  END
$$$$
