HHC.pdb
     RDKit          3D

 27 28  0  0  1  0  0  0  0  0999 V2000
   20.5585  -12.7999  -17.9484 N   0  0  0  0  0  0  0  0  0  0  0  0
   19.9518  -11.4924  -17.9605 C   0  0  1  0  0  0  0  0  0  0  0  0
   18.7454  -11.5692  -17.0155 C   0  0  0  0  0  0  0  0  0  0  0  0
   17.6627  -12.3660  -17.6240 C   0  0  0  0  0  0  0  0  0  0  0  0
   17.2855  -12.4368  -18.9589 C   0  0  0  0  0  0  0  0  0  0  0  0
   16.2470  -13.2838  -19.0934 N   0  0  0  0  0  0  0  0  0  0  0  0
   15.9769  -13.7381  -17.8571 C   0  0  0  0  0  0  0  0  0  0  0  0
   16.8245  -13.1895  -16.9724 N   0  0  0  0  0  0  0  0  0  0  0  0
   20.8902  -10.4656  -17.3845 C   0  0  0  0  0  0  0  0  0  0  0  0
   21.4421  -10.7001  -16.2786 O   0  0  0  0  0  0  0  0  0  0  0  0
   21.1214   -9.2674  -18.1072 N   0  0  0  0  0  0  0  0  0  0  0  0
   22.0667   -8.3190  -17.5879 C   0  0  1  0  0  0  0  0  0  0  0  0
   22.8531   -7.7817  -18.7513 C   0  0  0  0  0  0  0  0  0  0  0  0
   23.7400   -8.8157  -19.2816 C   0  0  0  0  0  0  0  0  0  0  0  0
   24.5485   -9.6397  -18.5300 C   0  0  0  0  0  0  0  0  0  0  0  0
   25.2129  -10.4559  -19.3657 N   0  0  0  0  0  0  0  0  0  0  0  0
   24.8358  -10.1566  -20.6036 C   0  0  0  0  0  0  0  0  0  0  0  0
   23.9406   -9.1606  -20.5622 N   0  0  0  0  0  0  0  0  0  0  0  0
   21.4390   -7.2870  -16.7393 C   0  0  0  0  0  0  0  0  0  0  0  0
   20.5066   -6.5871  -17.2029 O   0  0  0  0  0  0  0  0  0  0  0  0
   21.8340   -7.0307  -15.3979 N   0  0  0  0  0  0  0  0  0  0  0  0
   21.2468   -6.0124  -14.5659 C   0  0  1  0  0  0  0  0  0  0  0  0
   20.5203   -6.6141  -13.3588 C   0  0  0  0  0  0  0  0  0  0  0  0
   21.6659   -7.6110  -12.4053 S   0  0  0  0  0  0  0  0  0  0  0  0
   22.1899   -4.9731  -14.1590 C   0  0  0  0  0  0  0  0  0  0  0  0
   23.4152   -5.1072  -14.3597 O   0  0  0  0  0  0  0  0  0  0  0  0
   21.7391   -3.8232  -13.5445 O   0  0  0  0  0  0  0  0  0  0  0  0
  2  1  1  1
  2  3  1  0
  2  9  1  0
  4  5  2  0
  4  3  1  0
  6  5  1  0
  7  8  2  0
  7  6  1  0
  8  4  1  0
  9 11  1  0
 10  9  2  0
 11 12  1  0
 12 13  1  6
 13 14  1  0
 14 15  2  0
 15 16  1  0
 17 16  1  0
 18 14  1  0
 18 17  2  0
 19 12  1  0
 19 20  2  0
 21 19  1  0
 22 25  1  0
 22 21  1  0
 22 23  1  1
 24 23  1  0
 25 27  1  0
 26 25  2  0
M  END
$$$$
