HHC.pdb
     RDKit          3D

 27 28  0  0  1  0  0  0  0  0999 V2000
   26.0038  -20.2669  -15.9764 N   0  0  0  0  0  0  0  0  0  0  0  0
   26.8537  -19.6000  -15.0220 C   0  0  1  0  0  0  0  0  0  0  0  0
   27.0208  -18.1608  -15.5270 C   0  0  0  0  0  0  0  0  0  0  0  0
   27.6743  -18.1504  -16.8500 C   0  0  0  0  0  0  0  0  0  0  0  0
   27.2026  -17.6204  -18.0442 C   0  0  0  0  0  0  0  0  0  0  0  0
   28.1091  -17.8210  -19.0198 N   0  0  0  0  0  0  0  0  0  0  0  0
   29.1366  -18.4691  -18.4435 C   0  0  0  0  0  0  0  0  0  0  0  0
   28.8793  -18.6686  -17.1411 N   0  0  0  0  0  0  0  0  0  0  0  0
   26.1790  -19.5134  -13.6788 C   0  0  0  0  0  0  0  0  0  0  0  0
   26.0155  -18.3822  -13.1533 O   0  0  0  0  0  0  0  0  0  0  0  0
   25.7499  -20.7098  -13.0497 N   0  0  0  0  0  0  0  0  0  0  0  0
   25.0411  -20.6193  -11.8038 C   0  0  1  0  0  0  0  0  0  0  0  0
   23.8501  -21.5325  -11.8942 C   0  0  0  0  0  0  0  0  0  0  0  0
   22.8301  -20.9474  -12.7626 C   0  0  0  0  0  0  0  0  0  0  0  0
   22.9398  -19.7478  -13.4309 C   0  0  0  0  0  0  0  0  0  0  0  0
   21.8068  -19.5459  -14.1248 N   0  0  0  0  0  0  0  0  0  0  0  0
   21.0087  -20.5840  -13.9015 C   0  0  0  0  0  0  0  0  0  0  0  0
   21.6226  -21.4410  -13.0745 N   0  0  0  0  0  0  0  0  0  0  0  0
   25.9074  -20.8506  -10.6312 C   0  0  0  0  0  0  0  0  0  0  0  0
   26.4390  -21.9750  -10.4661 O   0  0  0  0  0  0  0  0  0  0  0  0
   26.1836  -19.8556   -9.6541 N   0  0  0  0  0  0  0  0  0  0  0  0
   26.4786  -20.1419   -8.2739 C   0  0  1  0  0  0  0  0  0  0  0  0
   26.8733  -18.8780   -7.5032 C   0  0  0  0  0  0  0  0  0  0  0  0
   27.2674  -19.3082   -5.8077 S   0  0  0  0  0  0  0  0  0  0  0  0
   25.4175  -20.8767   -7.5888 C   0  0  0  0  0  0  0  0  0  0  0  0
   24.2156  -20.6219   -7.8128 O   0  0  0  0  0  0  0  0  0  0  0  0
   25.7288  -21.8671   -6.6803 O   0  0  0  0  0  0  0  0  0  0  0  0
  2  1  1  6
  2  3  1  0
  2  9  1  0
  4  5  2  0
  4  3  1  0
  6  5  1  0
  7  8  2  0
  7  6  1  0
  8  4  1  0
  9 11  1  0
 10  9  2  0
 11 12  1  0
 12 13  1  6
 13 14  1  0
 14 15  2  0
 15 16  1  0
 17 16  1  0
 18 14  1  0
 18 17  2  0
 19 12  1  0
 19 20  2  0
 21 19  1  0
 22 25  1  0
 22 21  1  0
 22 23  1  1
 24 23  1  0
 25 27  1  0
 26 25  2  0
M  END
$$$$
