HHC.pdb
     RDKit          3D

 27 28  0  0  1  0  0  0  0  0999 V2000
   18.8940  -13.8299  -18.0986 N   0  0  0  0  0  0  0  0  0  0  0  0
   19.2106  -12.9605  -16.9934 C   0  0  1  0  0  0  0  0  0  0  0  0
   20.5196  -13.4888  -16.3919 C   0  0  0  0  0  0  0  0  0  0  0  0
   20.3293  -14.8508  -15.8568 C   0  0  0  0  0  0  0  0  0  0  0  0
   20.8612  -16.0461  -16.3232 C   0  0  0  0  0  0  0  0  0  0  0  0
   20.4393  -17.0641  -15.5488 N   0  0  0  0  0  0  0  0  0  0  0  0
   19.6524  -16.5127  -14.6083 C   0  0  0  0  0  0  0  0  0  0  0  0
   19.5839  -15.1844  -14.7898 N   0  0  0  0  0  0  0  0  0  0  0  0
   19.4888  -11.5628  -17.4791 C   0  0  0  0  0  0  0  0  0  0  0  0
   19.6585  -11.3706  -18.7108 O   0  0  0  0  0  0  0  0  0  0  0  0
   19.5504  -10.5085  -16.5326 N   0  0  0  0  0  0  0  0  0  0  0  0
   19.6330   -9.1562  -17.0092 C   0  0  1  0  0  0  0  0  0  0  0  0
   18.4017   -8.8905  -17.8303 C   0  0  0  0  0  0  0  0  0  0  0  0
   18.4230   -7.5221  -18.3438 C   0  0  0  0  0  0  0  0  0  0  0  0
   17.6543   -6.4792  -17.8755 C   0  0  0  0  0  0  0  0  0  0  0  0
   17.9498   -5.3817  -18.5927 N   0  0  0  0  0  0  0  0  0  0  0  0
   18.8744   -5.7213  -19.4839 C   0  0  0  0  0  0  0  0  0  0  0  0
   19.1681   -7.0206  -19.3399 N   0  0  0  0  0  0  0  0  0  0  0  0
   19.8761   -8.1796  -15.9294 C   0  0  0  0  0  0  0  0  0  0  0  0
   19.2534   -8.2871  -14.8454 O   0  0  0  0  0  0  0  0  0  0  0  0
   20.7933   -7.0994  -16.0433 N   0  0  0  0  0  0  0  0  0  0  0  0
   21.1515   -6.2285  -14.9537 C   0  0  1  0  0  0  0  0  0  0  0  0
   22.6633   -5.9885  -14.8915 C   0  0  0  0  0  0  0  0  0  0  0  0
   23.0510   -4.9724  -13.4659 S   0  0  0  0  0  0  0  0  0  0  0  0
   20.4092   -4.9699  -14.9419 C   0  0  0  0  0  0  0  0  0  0  0  0
   20.2670   -4.3014  -15.9872 O   0  0  0  0  0  0  0  0  0  0  0  0
   19.8519   -4.4992  -13.7710 O   0  0  0  0  0  0  0  0  0  0  0  0
  2  1  1  6
  2  3  1  0
  2  9  1  0
  4  5  2  0
  4  3  1  0
  6  5  1  0
  7  8  2  0
  7  6  1  0
  8  4  1  0
  9 11  1  0
 10  9  2  0
 11 12  1  0
 12 13  1  1
 13 14  1  0
 14 15  2  0
 15 16  1  0
 17 16  1  0
 18 14  1  0
 18 17  2  0
 19 12  1  0
 19 20  2  0
 21 19  1  0
 22 25  1  0
 22 21  1  0
 22 23  1  6
 24 23  1  0
 25 27  1  0
 26 25  2  0
M  END
$$$$
