HHC.pdb
     RDKit          3D

 27 28  0  0  1  0  0  0  0  0999 V2000
   24.2484  -12.2080  -17.5588 N   0  0  0  0  0  0  0  0  0  0  0  0
   24.3006  -11.5340  -16.2857 C   0  0  1  0  0  0  0  0  0  0  0  0
   25.6882  -10.8849  -16.1993 C   0  0  0  0  0  0  0  0  0  0  0  0
   26.7413  -11.9183  -16.1801 C   0  0  0  0  0  0  0  0  0  0  0  0
   27.0140  -12.8580  -15.1942 C   0  0  0  0  0  0  0  0  0  0  0  0
   28.0618  -13.6174  -15.5676 N   0  0  0  0  0  0  0  0  0  0  0  0
   28.4410  -13.1586  -16.7732 C   0  0  0  0  0  0  0  0  0  0  0  0
   27.6508  -12.1388  -17.1442 N   0  0  0  0  0  0  0  0  0  0  0  0
   23.2939  -10.4155  -16.2347 C   0  0  0  0  0  0  0  0  0  0  0  0
   23.0165   -9.7994  -17.2959 O   0  0  0  0  0  0  0  0  0  0  0  0
   22.6913  -10.0928  -14.9921 N   0  0  0  0  0  0  0  0  0  0  0  0
   21.6410   -9.1134  -14.9674 C   0  0  1  0  0  0  0  0  0  0  0  0
   20.6034   -9.5882  -13.9884 C   0  0  0  0  0  0  0  0  0  0  0  0
   19.7218  -10.5670  -14.6222 C   0  0  0  0  0  0  0  0  0  0  0  0
   19.8067  -10.9926  -15.9297 C   0  0  0  0  0  0  0  0  0  0  0  0
   18.8308  -11.8910  -16.1454 N   0  0  0  0  0  0  0  0  0  0  0  0
   18.1528  -12.0275  -15.0114 C   0  0  0  0  0  0  0  0  0  0  0  0
   18.6874  -11.2264  -14.0800 N   0  0  0  0  0  0  0  0  0  0  0  0
   22.1368   -7.7444  -14.7244 C   0  0  0  0  0  0  0  0  0  0  0  0
   22.8873   -7.5226  -13.7436 O   0  0  0  0  0  0  0  0  0  0  0  0
   21.8095   -6.6354  -15.5514 N   0  0  0  0  0  0  0  0  0  0  0  0
   22.3578   -5.3146  -15.3819 C   0  0  1  0  0  0  0  0  0  0  0  0
   22.4841   -4.5760  -16.7181 C   0  0  0  0  0  0  0  0  0  0  0  0
   23.3095   -5.6306  -17.9104 S   0  0  0  0  0  0  0  0  0  0  0  0
   21.6482   -4.5091  -14.3905 C   0  0  0  0  0  0  0  0  0  0  0  0
   20.5282   -4.8604  -13.9640 O   0  0  0  0  0  0  0  0  0  0  0  0
   22.2071   -3.3435  -13.9087 O   0  0  0  0  0  0  0  0  0  0  0  0
  2  1  1  6
  2  3  1  0
  2  9  1  0
  4  5  2  0
  4  3  1  0
  6  5  1  0
  7  8  2  0
  7  6  1  0
  8  4  1  0
  9 11  1  0
 10  9  2  0
 11 12  1  0
 12 13  1  1
 13 14  1  0
 14 15  2  0
 15 16  1  0
 17 16  1  0
 18 14  1  0
 18 17  2  0
 19 12  1  0
 19 20  2  0
 21 19  1  0
 22 25  1  0
 22 21  1  0
 22 23  1  6
 24 23  1  0
 25 27  1  0
 26 25  2  0
M  END
$$$$
