HHC.pdb
     RDKit          3D

 27 28  0  0  1  0  0  0  0  0999 V2000
   23.5446  -14.1974  -20.4568 N   0  0  0  0  0  0  0  0  0  0  0  0
   23.4393  -14.8963  -19.2005 C   0  0  1  0  0  0  0  0  0  0  0  0
   24.8349  -15.4610  -18.9042 C   0  0  0  0  0  0  0  0  0  0  0  0
   25.2273  -16.4371  -19.9389 C   0  0  0  0  0  0  0  0  0  0  0  0
   26.1246  -16.2741  -20.9867 C   0  0  0  0  0  0  0  0  0  0  0  0
   26.1967  -17.4116  -21.7042 N   0  0  0  0  0  0  0  0  0  0  0  0
   25.3546  -18.2769  -21.1128 C   0  0  0  0  0  0  0  0  0  0  0  0
   24.7708  -17.6956  -20.0528 N   0  0  0  0  0  0  0  0  0  0  0  0
   23.1122  -13.9390  -18.0853 C   0  0  0  0  0  0  0  0  0  0  0  0
   24.0126  -13.1688  -17.6628 O   0  0  0  0  0  0  0  0  0  0  0  0
   21.7999  -13.9368  -17.5476 N   0  0  0  0  0  0  0  0  0  0  0  0
   21.1721  -12.6768  -17.2632 C   0  0  1  0  0  0  0  0  0  0  0  0
   21.2856  -11.8265  -18.4980 C   0  0  0  0  0  0  0  0  0  0  0  0
   22.3437  -10.8319  -18.3305 C   0  0  0  0  0  0  0  0  0  0  0  0
   22.3438   -9.8111  -17.4055 C   0  0  0  0  0  0  0  0  0  0  0  0
   23.4785   -9.1066  -17.5544 N   0  0  0  0  0  0  0  0  0  0  0  0
   24.1712   -9.6646  -18.5409 C   0  0  0  0  0  0  0  0  0  0  0  0
   23.4889  -10.7141  -19.0186 N   0  0  0  0  0  0  0  0  0  0  0  0
   19.7996  -12.8232  -16.7399 C   0  0  0  0  0  0  0  0  0  0  0  0
   19.1270  -11.7989  -16.4703 O   0  0  0  0  0  0  0  0  0  0  0  0
   19.1774  -14.0819  -16.5169 N   0  0  0  0  0  0  0  0  0  0  0  0
   17.8451  -14.2404  -15.9936 C   0  0  1  0  0  0  0  0  0  0  0  0
   17.6544  -13.4713  -14.6824 C   0  0  0  0  0  0  0  0  0  0  0  0
   16.0354  -13.8358  -14.0035 S   0  0  0  0  0  0  0  0  0  0  0  0
   16.7953  -13.9210  -16.9585 C   0  0  0  0  0  0  0  0  0  0  0  0
   16.9783  -13.0549  -17.8394 O   0  0  0  0  0  0  0  0  0  0  0  0
   15.5811  -14.5743  -16.9108 O   0  0  0  0  0  0  0  0  0  0  0  0
  2  1  1  6
  2  3  1  0
  2  9  1  0
  4  5  2  0
  4  3  1  0
  6  5  1  0
  7  8  2  0
  7  6  1  0
  8  4  1  0
  9 11  1  0
 10  9  2  0
 11 12  1  0
 12 13  1  6
 13 14  1  0
 14 15  2  0
 15 16  1  0
 17 16  1  0
 18 14  1  0
 18 17  2  0
 19 12  1  0
 19 20  2  0
 21 19  1  0
 22 25  1  0
 22 21  1  0
 22 23  1  1
 24 23  1  0
 25 27  1  0
 26 25  2  0
M  END
$$$$
