HHC.pdb
     RDKit          3D

 27 28  0  0  1  0  0  0  0  0999 V2000
   15.7816  -12.1246  -16.7510 N   0  0  0  0  0  0  0  0  0  0  0  0
   16.2976  -11.4995  -15.5590 C   0  0  1  0  0  0  0  0  0  0  0  0
   17.3911  -12.4329  -15.0227 C   0  0  0  0  0  0  0  0  0  0  0  0
   16.8011  -13.6981  -14.5447 C   0  0  0  0  0  0  0  0  0  0  0  0
   15.5897  -13.8972  -13.8950 C   0  0  0  0  0  0  0  0  0  0  0  0
   15.4262  -15.2076  -13.6298 N   0  0  0  0  0  0  0  0  0  0  0  0
   16.5225  -15.8219  -14.1079 C   0  0  0  0  0  0  0  0  0  0  0  0
   17.3501  -14.9193  -14.6578 N   0  0  0  0  0  0  0  0  0  0  0  0
   16.9669  -10.1923  -15.8913 C   0  0  0  0  0  0  0  0  0  0  0  0
   17.6902  -10.1244  -16.9183 O   0  0  0  0  0  0  0  0  0  0  0  0
   16.7601   -9.0803  -15.0357 N   0  0  0  0  0  0  0  0  0  0  0  0
   17.4672   -7.8598  -15.3061 C   0  0  1  0  0  0  0  0  0  0  0  0
   16.5117   -6.7226  -15.0723 C   0  0  0  0  0  0  0  0  0  0  0  0
   17.1705   -5.4461  -15.3429 C   0  0  0  0  0  0  0  0  0  0  0  0
   17.5764   -4.5369  -14.3909 C   0  0  0  0  0  0  0  0  0  0  0  0
   18.1386   -3.4903  -15.0192 N   0  0  0  0  0  0  0  0  0  0  0  0
   18.0888   -3.7314  -16.3244 C   0  0  0  0  0  0  0  0  0  0  0  0
   17.5020   -4.9182  -16.5305 N   0  0  0  0  0  0  0  0  0  0  0  0
   18.7405   -7.7568  -14.5664 C   0  0  0  0  0  0  0  0  0  0  0  0
   18.7901   -8.1176  -13.3657 O   0  0  0  0  0  0  0  0  0  0  0  0
   19.9425   -7.2629  -15.1429 N   0  0  0  0  0  0  0  0  0  0  0  0
   21.2066   -7.2171  -14.4544 C   0  0  1  0  0  0  0  0  0  0  0  0
   22.2367   -8.1529  -15.0949 C   0  0  0  0  0  0  0  0  0  0  0  0
   23.7924   -8.0260  -14.2123 S   0  0  0  0  0  0  0  0  0  0  0  0
   21.7380   -5.8652  -14.2956 C   0  0  0  0  0  0  0  0  0  0  0  0
   21.6431   -5.0282  -15.2176 O   0  0  0  0  0  0  0  0  0  0  0  0
   22.3551   -5.4915  -13.1197 O   0  0  0  0  0  0  0  0  0  0  0  0
  2  1  1  6
  2  3  1  0
  2  9  1  0
  4  5  2  0
  4  3  1  0
  6  5  1  0
  7  8  2  0
  7  6  1  0
  8  4  1  0
  9 11  1  0
 10  9  2  0
 11 12  1  0
 12 13  1  1
 13 14  1  0
 14 15  2  0
 15 16  1  0
 17 16  1  0
 18 14  1  0
 18 17  2  0
 19 12  1  0
 19 20  2  0
 21 19  1  0
 22 25  1  0
 22 21  1  0
 22 23  1  6
 24 23  1  0
 25 27  1  0
 26 25  2  0
M  END
$$$$
