HHC.pdb
     RDKit          3D

 27 28  0  0  1  0  0  0  0  0999 V2000
   14.1129  -22.3004   -3.7291 N   0  0  0  0  0  0  0  0  0  0  0  0
   13.7154  -23.0051   -2.5361 C   0  0  1  0  0  0  0  0  0  0  0  0
   14.7093  -24.1619   -2.3685 C   0  0  0  0  0  0  0  0  0  0  0  0
   14.5281  -25.1580   -3.4420 C   0  0  0  0  0  0  0  0  0  0  0  0
   13.5928  -26.1817   -3.5239 C   0  0  0  0  0  0  0  0  0  0  0  0
   13.7679  -26.8664   -4.6704 N   0  0  0  0  0  0  0  0  0  0  0  0
   14.8007  -26.2785   -5.2992 C   0  0  0  0  0  0  0  0  0  0  0  0
   15.2597  -25.2526   -4.5650 N   0  0  0  0  0  0  0  0  0  0  0  0
   13.8650  -22.1247   -1.3239 C   0  0  0  0  0  0  0  0  0  0  0  0
   15.0057  -21.6812   -1.0327 O   0  0  0  0  0  0  0  0  0  0  0  0
   12.7153  -21.8242   -0.5497 N   0  0  0  0  0  0  0  0  0  0  0  0
   12.8544  -20.9543    0.5846 C   0  0  1  0  0  0  0  0  0  0  0  0
   11.4978  -20.3779    0.8809 C   0  0  0  0  0  0  0  0  0  0  0  0
   11.2219  -19.2524   -0.0102 C   0  0  0  0  0  0  0  0  0  0  0  0
   12.1264  -18.6744   -0.8736 C   0  0  0  0  0  0  0  0  0  0  0  0
   11.5095  -17.6723   -1.5227 N   0  0  0  0  0  0  0  0  0  0  0  0
   10.2572  -17.6200   -1.0831 C   0  0  0  0  0  0  0  0  0  0  0  0
   10.0733  -18.5769   -0.1635 N   0  0  0  0  0  0  0  0  0  0  0  0
   13.5106  -21.6083    1.7339 C   0  0  0  0  0  0  0  0  0  0  0  0
   13.4937  -22.8594    1.8270 O   0  0  0  0  0  0  0  0  0  0  0  0
   14.1761  -20.8925    2.7661 N   0  0  0  0  0  0  0  0  0  0  0  0
   14.8579  -21.5180    3.8697 C   0  0  1  0  0  0  0  0  0  0  0  0
   16.3684  -21.6048    3.6288 C   0  0  0  0  0  0  0  0  0  0  0  0
   17.0137  -19.9701    3.2735 S   0  0  0  0  0  0  0  0  0  0  0  0
   14.5567  -20.9105    5.1641 C   0  0  0  0  0  0  0  0  0  0  0  0
   13.9876  -19.8009    5.2329 O   0  0  0  0  0  0  0  0  0  0  0  0
   14.8980  -21.5561    6.3345 O   0  0  0  0  0  0  0  0  0  0  0  0
  2  1  1  6
  2  3  1  0
  2  9  1  0
  4  5  2  0
  4  3  1  0
  6  5  1  0
  7  8  2  0
  7  6  1  0
  8  4  1  0
  9 11  1  0
 10  9  2  0
 11 12  1  0
 12 13  1  1
 13 14  1  0
 14 15  2  0
 15 16  1  0
 17 16  1  0
 18 14  1  0
 18 17  2  0
 19 12  1  0
 19 20  2  0
 21 19  1  0
 22 25  1  0
 22 21  1  0
 22 23  1  6
 24 23  1  0
 25 27  1  0
 26 25  2  0
M  END
$$$$
