HHC.pdb
     RDKit          3D

 27 28  0  0  1  0  0  0  0  0999 V2000
   16.4183  -21.4564  -14.7496 N   0  0  0  0  0  0  0  0  0  0  0  0
   16.5384  -20.8384  -13.4529 C   0  0  1  0  0  0  0  0  0  0  0  0
   15.1330  -20.8540  -12.8373 C   0  0  0  0  0  0  0  0  0  0  0  0
   14.3205  -19.7467  -13.3770 C   0  0  0  0  0  0  0  0  0  0  0  0
   14.7464  -18.5145  -13.8561 C   0  0  0  0  0  0  0  0  0  0  0  0
   13.6835  -17.7910  -14.2574 N   0  0  0  0  0  0  0  0  0  0  0  0
   12.6047  -18.5612  -14.0322 C   0  0  0  0  0  0  0  0  0  0  0  0
   12.9830  -19.7358  -13.5038 N   0  0  0  0  0  0  0  0  0  0  0  0
   17.4171  -21.6631  -12.5503 C   0  0  0  0  0  0  0  0  0  0  0  0
   17.3683  -22.9173  -12.6358 O   0  0  0  0  0  0  0  0  0  0  0  0
   18.2712  -20.9993  -11.6332 N   0  0  0  0  0  0  0  0  0  0  0  0
   19.1594  -21.7853  -10.8232 C   0  0  1  0  0  0  0  0  0  0  0  0
   20.4376  -21.0086  -10.6698 C   0  0  0  0  0  0  0  0  0  0  0  0
   21.2112  -21.0599  -11.9091 C   0  0  0  0  0  0  0  0  0  0  0  0
   20.8482  -21.7377  -13.0521 C   0  0  0  0  0  0  0  0  0  0  0  0
   21.8070  -21.5524  -13.9754 N   0  0  0  0  0  0  0  0  0  0  0  0
   22.7439  -20.7831  -13.4326 C   0  0  0  0  0  0  0  0  0  0  0  0
   22.3901  -20.4788  -12.1766 N   0  0  0  0  0  0  0  0  0  0  0  0
   18.5462  -22.2199   -9.5527 C   0  0  0  0  0  0  0  0  0  0  0  0
   17.6715  -21.5026   -9.0100 O   0  0  0  0  0  0  0  0  0  0  0  0
   18.8927  -23.4289   -8.8900 N   0  0  0  0  0  0  0  0  0  0  0  0
   18.2869  -23.8771   -7.6627 C   0  0  1  0  0  0  0  0  0  0  0  0
   16.7675  -24.0191   -7.7980 C   0  0  0  0  0  0  0  0  0  0  0  0
   16.0862  -24.6558   -6.2664 S   0  0  0  0  0  0  0  0  0  0  0  0
   18.8915  -25.0919   -7.1209 C   0  0  0  0  0  0  0  0  0  0  0  0
   19.3463  -25.9734   -7.8798 O   0  0  0  0  0  0  0  0  0  0  0  0
   18.9695  -25.2844   -5.7571 O   0  0  0  0  0  0  0  0  0  0  0  0
  2  1  1  6
  2  3  1  0
  2  9  1  0
  4  5  2  0
  4  3  1  0
  6  5  1  0
  7  8  2  0
  7  6  1  0
  8  4  1  0
  9 11  1  0
 10  9  2  0
 11 12  1  0
 12 13  1  1
 13 14  1  0
 14 15  2  0
 15 16  1  0
 17 16  1  0
 18 14  1  0
 18 17  2  0
 19 12  1  0
 19 20  2  0
 21 19  1  0
 22 25  1  0
 22 21  1  0
 22 23  1  6
 24 23  1  0
 25 27  1  0
 26 25  2  0
M  END
$$$$
