HHC.pdb
     RDKit          3D

 27 28  0  0  1  0  0  0  0  0999 V2000
   23.1776  -13.1083  -17.4126 N   0  0  0  0  0  0  0  0  0  0  0  0
   23.4175  -12.3491  -16.2110 C   0  0  1  0  0  0  0  0  0  0  0  0
   24.8950  -11.9369  -16.2505 C   0  0  0  0  0  0  0  0  0  0  0  0
   25.7652  -13.1256  -16.1647 C   0  0  0  0  0  0  0  0  0  0  0  0
   26.5634  -13.6870  -17.1531 C   0  0  0  0  0  0  0  0  0  0  0  0
   27.2000  -14.7682  -16.6634 N   0  0  0  0  0  0  0  0  0  0  0  0
   26.8050  -14.8826  -15.3833 C   0  0  0  0  0  0  0  0  0  0  0  0
   25.9438  -13.8985  -15.0802 N   0  0  0  0  0  0  0  0  0  0  0  0
   22.6115  -11.0774  -16.2159 C   0  0  0  0  0  0  0  0  0  0  0  0
   22.5818  -10.3814  -17.2634 O   0  0  0  0  0  0  0  0  0  0  0  0
   21.9120  -10.7056  -15.0395 N   0  0  0  0  0  0  0  0  0  0  0  0
   21.0886   -9.5292  -15.0681 C   0  0  1  0  0  0  0  0  0  0  0  0
   19.9030   -9.7858  -14.1797 C   0  0  0  0  0  0  0  0  0  0  0  0
   18.8969  -10.5693  -14.8944 C   0  0  0  0  0  0  0  0  0  0  0  0
   18.9697  -10.9511  -16.2160 C   0  0  0  0  0  0  0  0  0  0  0  0
   17.8646  -11.6556  -16.5134 N   0  0  0  0  0  0  0  0  0  0  0  0
   17.1194  -11.7162  -15.4155 C   0  0  0  0  0  0  0  0  0  0  0  0
   17.7391  -11.0585  -14.4263 N   0  0  0  0  0  0  0  0  0  0  0  0
   21.8370   -8.2956  -14.7562 C   0  0  0  0  0  0  0  0  0  0  0  0
   22.6049   -8.2713  -13.7643 O   0  0  0  0  0  0  0  0  0  0  0  0
   21.7397   -7.1054  -15.5275 N   0  0  0  0  0  0  0  0  0  0  0  0
   22.4500   -5.8895  -15.2254 C   0  0  1  0  0  0  0  0  0  0  0  0
   23.0561   -5.2583  -16.4829 C   0  0  0  0  0  0  0  0  0  0  0  0
   23.8490   -3.7085  -16.0532 S   0  0  0  0  0  0  0  0  0  0  0  0
   21.6585   -4.9216  -14.4694 C   0  0  0  0  0  0  0  0  0  0  0  0
   20.4336   -4.7950  -14.6776 O   0  0  0  0  0  0  0  0  0  0  0  0
   22.2548   -4.1296  -13.5100 O   0  0  0  0  0  0  0  0  0  0  0  0
  2  1  1  6
  2  3  1  0
  2  9  1  0
  4  5  2  0
  4  3  1  0
  6  5  1  0
  7  8  2  0
  7  6  1  0
  8  4  1  0
  9 11  1  0
 10  9  2  0
 11 12  1  0
 12 13  1  1
 13 14  1  0
 14 15  2  0
 15 16  1  0
 17 16  1  0
 18 14  1  0
 18 17  2  0
 19 12  1  0
 19 20  2  0
 21 19  1  0
 22 25  1  0
 22 21  1  0
 22 23  1  6
 24 23  1  0
 25 27  1  0
 26 25  2  0
M  END
$$$$
