MSG.pdb
     RDKit          3D

 19 18  0  0  1  0  0  0  0  0999 V2000
    7.9523  -11.8005   26.6554 C   0  0  0  0  0  0  0  0  0  0  0  0
    6.3206  -12.3151   27.3043 S   0  0  0  0  0  0  0  0  0  0  0  0
    6.0240  -13.9957   26.6319 C   0  0  0  0  0  0  0  0  0  0  0  0
    7.2141  -14.5018   25.8919 C   0  0  0  0  0  0  0  0  0  0  0  0
    6.9267  -15.8281   25.2840 C   0  0  2  0  0  0  0  0  0  0  0  0
    6.6438  -16.7835   26.3530 N   0  0  0  0  0  0  0  0  0  0  0  0
    7.9618  -16.3712   24.4041 C   0  0  0  0  0  0  0  0  0  0  0  0
    8.7512  -17.3108   24.6654 O   0  0  0  0  0  0  0  0  0  0  0  0
    8.5808  -14.3323   20.8517 O   0  0  0  0  0  0  0  0  0  0  0  0
    8.8438  -15.6941   20.8314 C   0  0  0  0  0  0  0  0  0  0  0  0
    9.1812  -16.1914   22.2333 C   0  0  2  0  0  0  0  0  0  0  0  0
    8.1186  -15.7933   23.0995 N   0  0  0  0  0  0  0  0  0  0  0  0
   10.4319  -15.4582   22.6392 C   0  0  0  0  0  0  0  0  0  0  0  0
   10.3672  -14.3521   23.2063 O   0  0  0  0  0  0  0  0  0  0  0  0
   11.7266  -15.9990   22.3913 N   0  0  0  0  0  0  0  0  0  0  0  0
   12.9404  -15.4224   22.9005 C   0  0  0  0  0  0  0  0  0  0  0  0
   14.1338  -16.2220   22.5761 C   0  0  0  0  0  0  0  0  0  0  0  0
   15.3775  -15.6428   22.3810 O   0  0  0  0  0  0  0  0  0  0  0  0
   14.0107  -17.4688   22.4749 O   0  0  0  0  0  0  0  0  0  0  0  0
  2  1  1  0
  3  2  1  0
  4  5  1  0
  4  3  1  0
  5  6  1  1
  7  8  2  0
  7  5  1  0
 10  9  1  0
 11 10  1  6
 11 12  1  0
 12  7  1  0
 13 14  2  0
 13 11  1  0
 15 13  1  0
 16 17  1  0
 16 15  1  0
 17 18  1  0
 19 17  2  0
M  END
$$$$
