MSG.pdb
     RDKit          3D

 19 18  0  0  1  0  0  0  0  0999 V2000
    7.2191  -11.1008   25.9956 C   0  0  0  0  0  0  0  0  0  0  0  0
    6.3552  -12.0897   27.2701 S   0  0  0  0  0  0  0  0  0  0  0  0
    5.9982  -13.7096   26.4871 C   0  0  0  0  0  0  0  0  0  0  0  0
    7.2347  -14.3276   25.9311 C   0  0  0  0  0  0  0  0  0  0  0  0
    6.9136  -15.5983   25.2286 C   0  0  2  0  0  0  0  0  0  0  0  0
    6.3988  -16.5572   26.2038 N   0  0  0  0  0  0  0  0  0  0  0  0
    8.0063  -16.2096   24.4717 C   0  0  0  0  0  0  0  0  0  0  0  0
    8.8319  -17.0540   24.8955 O   0  0  0  0  0  0  0  0  0  0  0  0
    8.7372  -14.5797   20.7696 O   0  0  0  0  0  0  0  0  0  0  0  0
    9.0218  -15.9336   20.8716 C   0  0  0  0  0  0  0  0  0  0  0  0
    9.2778  -16.3149   22.3260 C   0  0  2  0  0  0  0  0  0  0  0  0
    8.1815  -15.8271   23.0992 N   0  0  0  0  0  0  0  0  0  0  0  0
   10.5214  -15.5703   22.7330 C   0  0  0  0  0  0  0  0  0  0  0  0
   10.4466  -14.4571   23.2846 O   0  0  0  0  0  0  0  0  0  0  0  0
   11.8208  -16.1082   22.5038 N   0  0  0  0  0  0  0  0  0  0  0  0
   13.0334  -15.4717   22.9393 C   0  0  0  0  0  0  0  0  0  0  0  0
   14.2441  -16.1875   22.5027 C   0  0  0  0  0  0  0  0  0  0  0  0
   14.1812  -17.3857   21.8092 O   0  0  0  0  0  0  0  0  0  0  0  0
   15.3657  -15.6881   22.7721 O   0  0  0  0  0  0  0  0  0  0  0  0
  2  1  1  0
  3  2  1  0
  4  5  1  0
  4  3  1  0
  5  6  1  1
  7  8  2  0
  7  5  1  0
 10  9  1  0
 11 10  1  6
 11 12  1  0
 12  7  1  0
 13 14  2  0
 13 11  1  0
 15 13  1  0
 16 17  1  0
 16 15  1  0
 17 18  1  0
 19 17  2  0
M  END
$$$$
