MSG.pdb
     RDKit          3D

 19 18  0  0  1  0  0  0  0  0999 V2000
    3.7668  -18.6387   22.6042 C   0  0  0  0  0  0  0  0  0  0  0  0
    3.6194  -18.6090   20.7804 S   0  0  0  0  0  0  0  0  0  0  0  0
    4.6815  -17.2238   20.2168 C   0  0  0  0  0  0  0  0  0  0  0  0
    5.5720  -16.7432   21.3104 C   0  0  0  0  0  0  0  0  0  0  0  0
    6.2719  -15.4956   20.9044 C   0  0  2  0  0  0  0  0  0  0  0  0
    6.7596  -15.6544   19.5361 N   0  0  0  0  0  0  0  0  0  0  0  0
    7.3709  -15.0635   21.7682 C   0  0  0  0  0  0  0  0  0  0  0  0
    8.5975  -15.1362   21.5144 O   0  0  0  0  0  0  0  0  0  0  0  0
    6.3133  -13.9115   25.6089 O   0  0  0  0  0  0  0  0  0  0  0  0
    7.4422  -13.3073   25.0753 C   0  0  0  0  0  0  0  0  0  0  0  0
    8.0650  -14.1964   24.0038 C   0  0  2  0  0  0  0  0  0  0  0  0
    7.0494  -14.4927   23.0454 N   0  0  0  0  0  0  0  0  0  0  0  0
    8.4524  -15.4722   24.7030 C   0  0  0  0  0  0  0  0  0  0  0  0
    7.5859  -16.2872   25.0695 O   0  0  0  0  0  0  0  0  0  0  0  0
    9.8151  -15.7920   24.9693 N   0  0  0  0  0  0  0  0  0  0  0  0
   10.2341  -16.9910   25.6416 C   0  0  0  0  0  0  0  0  0  0  0  0
   11.6965  -17.0841   25.7874 C   0  0  0  0  0  0  0  0  0  0  0  0
   12.3018  -18.1055   26.5020 O   0  0  0  0  0  0  0  0  0  0  0  0
   12.4104  -16.2045   25.2427 O   0  0  0  0  0  0  0  0  0  0  0  0
  2  1  1  0
  3  2  1  0
  4  5  1  0
  4  3  1  0
  5  6  1  6
  7  8  2  0
  7  5  1  0
 10  9  1  0
 11 10  1  1
 11 12  1  0
 12  7  1  0
 13 14  2  0
 13 11  1  0
 15 13  1  0
 16 17  1  0
 16 15  1  0
 17 18  1  0
 19 17  2  0
M  END
$$$$
