MSG.pdb
     RDKit          3D

 19 18  0  0  1  0  0  0  0  0999 V2000
    7.4618  -11.3603   25.9831 C   0  0  0  0  0  0  0  0  0  0  0  0
    6.0550  -12.1038   26.8868 S   0  0  0  0  0  0  0  0  0  0  0  0
    5.7189  -13.7045   26.0566 C   0  0  0  0  0  0  0  0  0  0  0  0
    6.9807  -14.4461   25.7771 C   0  0  0  0  0  0  0  0  0  0  0  0
    6.6992  -15.6827   25.0006 C   0  0  2  0  0  0  0  0  0  0  0  0
    5.8351  -16.5512   25.7972 N   0  0  0  0  0  0  0  0  0  0  0  0
    7.8672  -16.4381   24.5470 C   0  0  0  0  0  0  0  0  0  0  0  0
    8.3993  -17.4158   25.1259 O   0  0  0  0  0  0  0  0  0  0  0  0
   10.3879  -15.0033   21.4087 O   0  0  0  0  0  0  0  0  0  0  0  0
    9.8271  -16.2708   21.3529 C   0  0  0  0  0  0  0  0  0  0  0  0
    9.5718  -16.8017   22.7599 C   0  0  2  0  0  0  0  0  0  0  0  0
    8.4946  -16.0480   23.3163 N   0  0  0  0  0  0  0  0  0  0  0  0
   10.8217  -16.5039   23.5443 C   0  0  0  0  0  0  0  0  0  0  0  0
   11.1188  -15.3348   23.8514 O   0  0  0  0  0  0  0  0  0  0  0  0
   11.7049  -17.5414   23.9615 N   0  0  0  0  0  0  0  0  0  0  0  0
   12.8474  -17.3222   24.8051 C   0  0  0  0  0  0  0  0  0  0  0  0
   13.5528  -18.5685   25.1483 C   0  0  0  0  0  0  0  0  0  0  0  0
   12.9777  -19.5442   25.9469 O   0  0  0  0  0  0  0  0  0  0  0  0
   14.7131  -18.7442   24.6978 O   0  0  0  0  0  0  0  0  0  0  0  0
  2  1  1  0
  3  2  1  0
  4  5  1  0
  4  3  1  0
  5  6  1  1
  7  8  2  0
  7  5  1  0
 10  9  1  0
 11 10  1  6
 11 12  1  0
 12  7  1  0
 13 14  2  0
 13 11  1  0
 15 13  1  0
 16 17  1  0
 16 15  1  0
 17 18  1  0
 19 17  2  0
M  END
$$$$
