MSG.pdb
     RDKit          3D

 19 18  0  0  1  0  0  0  0  0999 V2000
    5.4274  -11.1324   26.9362 C   0  0  0  0  0  0  0  0  0  0  0  0
    6.8907  -12.2283   26.8555 S   0  0  0  0  0  0  0  0  0  0  0  0
    6.4487  -13.5645   25.6793 C   0  0  0  0  0  0  0  0  0  0  0  0
    7.5353  -14.5790   25.5776 C   0  0  0  0  0  0  0  0  0  0  0  0
    7.1257  -15.6959   24.6854 C   0  0  2  0  0  0  0  0  0  0  0  0
    5.8989  -16.2912   25.2106 N   0  0  0  0  0  0  0  0  0  0  0  0
    8.1229  -16.7440   24.4664 C   0  0  0  0  0  0  0  0  0  0  0  0
    8.1724  -17.8624   25.0329 O   0  0  0  0  0  0  0  0  0  0  0  0
   11.5537  -15.7633   22.3626 O   0  0  0  0  0  0  0  0  0  0  0  0
   10.9794  -16.9843   22.0410 C   0  0  0  0  0  0  0  0  0  0  0  0
   10.1402  -17.5003   23.2055 C   0  0  2  0  0  0  0  0  0  0  0  0
    9.1670  -16.5018   23.5116 N   0  0  0  0  0  0  0  0  0  0  0  0
   11.0857  -17.6225   24.3707 C   0  0  0  0  0  0  0  0  0  0  0  0
   11.2394  -16.6800   25.1690 O   0  0  0  0  0  0  0  0  0  0  0  0
   11.8345  -18.8126   24.6014 N   0  0  0  0  0  0  0  0  0  0  0  0
   12.7408  -18.9811   25.7038 C   0  0  0  0  0  0  0  0  0  0  0  0
   12.1023  -19.5938   26.8809 C   0  0  0  0  0  0  0  0  0  0  0  0
   12.1261  -18.9914   28.1287 O   0  0  0  0  0  0  0  0  0  0  0  0
   11.5194  -20.6986   26.7398 O   0  0  0  0  0  0  0  0  0  0  0  0
  2  1  1  0
  3  2  1  0
  4  5  1  0
  4  3  1  0
  5  6  1  1
  7  8  2  0
  7  5  1  0
 10  9  1  0
 11 10  1  6
 11 12  1  0
 12  7  1  0
 13 14  2  0
 13 11  1  0
 15 13  1  0
 16 17  1  0
 16 15  1  0
 17 18  1  0
 19 17  2  0
M  END
$$$$
