PHF.pdb
     RDKit          3D

 29 31  0  0  1  0  0  0  0  0999 V2000
   24.0054  -12.0641  -18.5706 N   0  0  0  0  0  0  0  0  0  0  0  0
   23.1750  -12.4040  -19.7104 C   0  0  0  0  0  0  0  0  0  0  0  0
   23.7040  -11.6514  -20.8881 C   0  0  0  0  0  0  0  0  0  0  0  0
   24.8598  -10.8543  -20.3260 C   0  0  0  0  0  0  0  0  0  0  0  0
   24.5513  -10.7500  -18.8483 C   0  0  1  0  0  0  0  0  0  0  0  0
   23.5260   -9.7383  -18.5535 C   0  0  0  0  0  0  0  0  0  0  0  0
   23.7431   -8.5160  -18.8182 O   0  0  0  0  0  0  0  0  0  0  0  0
   22.2677  -10.0186  -17.9773 N   0  0  0  0  0  0  0  0  0  0  0  0
   21.2716   -8.9936  -17.6489 C   0  0  1  0  0  0  0  0  0  0  0  0
   19.9717   -9.7403  -17.5500 C   0  0  0  0  0  0  0  0  0  0  0  0
   18.8151   -8.9216  -17.2128 C   0  0  0  0  0  0  0  0  0  0  0  0
   18.8845   -7.5615  -16.9346 C   0  0  0  0  0  0  0  0  0  0  0  0
   17.6320   -7.1758  -16.6756 N   0  0  0  0  0  0  0  0  0  0  0  0
   16.8078   -8.2461  -16.7855 C   0  0  0  0  0  0  0  0  0  0  0  0
   17.5435   -9.3281  -17.1188 N   0  0  0  0  0  0  0  0  0  0  0  0
   21.5869   -8.4419  -16.2856 C   0  0  0  0  0  0  0  0  0  0  0  0
   21.9650   -9.1316  -15.3141 O   0  0  0  0  0  0  0  0  0  0  0  0
   21.4695   -7.0342  -15.9997 N   0  0  0  0  0  0  0  0  0  0  0  0
   21.8134   -6.4718  -14.7066 C   0  0  1  0  0  0  0  0  0  0  0  0
   23.3070   -6.2726  -14.5651 C   0  0  0  0  0  0  0  0  0  0  0  0
   23.8737   -5.4064  -15.6256 C   0  0  0  0  0  0  0  0  0  0  0  0
   23.7980   -4.0333  -15.5930 C   0  0  0  0  0  0  0  0  0  0  0  0
   24.3286   -3.2260  -16.5934 C   0  0  0  0  0  0  0  0  0  0  0  0
   24.9573   -3.8085  -17.6648 C   0  0  0  0  0  0  0  0  0  0  0  0
   25.0570   -5.1758  -17.7401 C   0  0  0  0  0  0  0  0  0  0  0  0
   24.5240   -5.9549  -16.7377 C   0  0  0  0  0  0  0  0  0  0  0  0
   21.1663   -5.1493  -14.5398 C   0  0  0  0  0  0  0  0  0  0  0  0
   20.5404   -4.6139  -15.4779 O   0  0  0  0  0  0  0  0  0  0  0  0
   21.2330   -4.4593  -13.3356 O   0  0  0  0  0  0  0  0  0  0  0  0
  1  5  1  0
  2  1  1  0
  2  3  1  0
  3  4  1  0
  5  6  1  6
  5  4  1  0
  6  7  2  0
  8  9  1  0
  8  6  1  0
 10 11  1  0
  9 10  1  1
 11 12  2  0
 13 12  1  0
 14 13  1  0
 15 14  2  0
 15 11  1  0
 16  9  1  0
 17 16  2  0
 18 16  1  0
 19 18  1  0
 19 27  1  0
 19 20  1  6
 21 22  2  0
 21 20  1  0
 23 22  1  0
 24 23  2  0
 25 24  1  0
 25 26  2  0
 26 21  1  0
 27 29  1  0
 28 27  2  0
M  END
$$$$
