PHF.pdb
     RDKit          3D

 29 31  0  0  1  0  0  0  0  0999 V2000
   27.7715  -20.1491  -15.4404 N   0  0  0  0  0  0  0  0  0  0  0  0
   26.7438  -19.4902  -16.2240 C   0  0  0  0  0  0  0  0  0  0  0  0
   26.9852  -18.0185  -16.1292 C   0  0  0  0  0  0  0  0  0  0  0  0
   28.1915  -17.9015  -15.2246 C   0  0  0  0  0  0  0  0  0  0  0  0
   28.1856  -19.1914  -14.4338 C   0  0  1  0  0  0  0  0  0  0  0  0
   27.1943  -19.1859  -13.3479 C   0  0  0  0  0  0  0  0  0  0  0  0
   26.9844  -18.1252  -12.6829 O   0  0  0  0  0  0  0  0  0  0  0  0
   26.4225  -20.3040  -12.9633 N   0  0  0  0  0  0  0  0  0  0  0  0
   25.4582  -20.2917  -11.8585 C   0  0  1  0  0  0  0  0  0  0  0  0
   24.4422  -21.3359  -12.2249 C   0  0  0  0  0  0  0  0  0  0  0  0
   23.4011  -20.8882  -13.1398 C   0  0  0  0  0  0  0  0  0  0  0  0
   23.2815  -19.5805  -13.5958 C   0  0  0  0  0  0  0  0  0  0  0  0
   22.2188  -19.5701  -14.4051 N   0  0  0  0  0  0  0  0  0  0  0  0
   21.6904  -20.8170  -14.4577 C   0  0  0  0  0  0  0  0  0  0  0  0
   22.4251  -21.6332  -13.6723 N   0  0  0  0  0  0  0  0  0  0  0  0
   26.1582  -20.7529  -10.6097 C   0  0  0  0  0  0  0  0  0  0  0  0
   26.8081  -21.8165  -10.5155 O   0  0  0  0  0  0  0  0  0  0  0  0
   26.1241  -19.9731   -9.3981 N   0  0  0  0  0  0  0  0  0  0  0  0
   26.8387  -20.3685   -8.1982 C   0  0  1  0  0  0  0  0  0  0  0  0
   27.4245  -19.1726   -7.4790 C   0  0  0  0  0  0  0  0  0  0  0  0
   28.1029  -19.5395   -6.2136 C   0  0  0  0  0  0  0  0  0  0  0  0
   29.3110  -20.1959   -6.1729 C   0  0  0  0  0  0  0  0  0  0  0  0
   29.9408  -20.5409   -4.9818 C   0  0  0  0  0  0  0  0  0  0  0  0
   29.3448  -20.2196   -3.7885 C   0  0  0  0  0  0  0  0  0  0  0  0
   28.1384  -19.5641   -3.7799 C   0  0  0  0  0  0  0  0  0  0  0  0
   27.5336  -19.2328   -4.9717 C   0  0  0  0  0  0  0  0  0  0  0  0
   25.9166  -21.0495   -7.2594 C   0  0  0  0  0  0  0  0  0  0  0  0
   24.6825  -20.8730   -7.3245 O   0  0  0  0  0  0  0  0  0  0  0  0
   26.3918  -21.9072   -6.2750 O   0  0  0  0  0  0  0  0  0  0  0  0
  1  5  1  0
  2  1  1  0
  2  3  1  0
  3  4  1  0
  5  6  1  1
  5  4  1  0
  6  7  2  0
  8  9  1  0
  8  6  1  0
 10 11  1  0
  9 10  1  6
 11 12  2  0
 13 12  1  0
 14 13  1  0
 15 14  2  0
 15 11  1  0
 16  9  1  0
 17 16  2  0
 18 16  1  0
 19 18  1  0
 19 27  1  0
 19 20  1  1
 21 22  2  0
 21 20  1  0
 23 22  1  0
 24 23  2  0
 25 24  1  0
 25 26  2  0
 26 21  1  0
 27 29  1  0
 28 27  2  0
M  END
$$$$
