PHF.pdb
     RDKit          3D

 29 31  0  0  1  0  0  0  0  0999 V2000
   25.2674  -13.4951  -17.6588 N   0  0  0  0  0  0  0  0  0  0  0  0
   24.5993  -14.6343  -18.2590 C   0  0  0  0  0  0  0  0  0  0  0  0
   24.6709  -14.4633  -19.7418 C   0  0  0  0  0  0  0  0  0  0  0  0
   25.3949  -13.1482  -19.9255 C   0  0  0  0  0  0  0  0  0  0  0  0
   25.1653  -12.4159  -18.6216 C   0  0  1  0  0  0  0  0  0  0  0  0
   23.8216  -11.8257  -18.5319 C   0  0  0  0  0  0  0  0  0  0  0  0
   23.3621  -11.1396  -19.4959 O   0  0  0  0  0  0  0  0  0  0  0  0
   22.9609  -11.9606  -17.4207 N   0  0  0  0  0  0  0  0  0  0  0  0
   21.6244  -11.3620  -17.3437 C   0  0  1  0  0  0  0  0  0  0  0  0
   20.7790  -12.3989  -16.6601 C   0  0  0  0  0  0  0  0  0  0  0  0
   20.3291  -13.4886  -17.5154 C   0  0  0  0  0  0  0  0  0  0  0  0
   20.6948  -13.6269  -18.8494 C   0  0  0  0  0  0  0  0  0  0  0  0
   20.0873  -14.7347  -19.2832 N   0  0  0  0  0  0  0  0  0  0  0  0
   19.3693  -15.2724  -18.2673 C   0  0  0  0  0  0  0  0  0  0  0  0
   19.5205  -14.4981  -17.1715 N   0  0  0  0  0  0  0  0  0  0  0  0
   21.6916  -10.1599  -16.4422 C   0  0  0  0  0  0  0  0  0  0  0  0
   22.5046  -10.0258  -15.5023 O   0  0  0  0  0  0  0  0  0  0  0  0
   20.7923   -9.0459  -16.6079 N   0  0  0  0  0  0  0  0  0  0  0  0
   20.9077   -7.8298  -15.8240 C   0  0  1  0  0  0  0  0  0  0  0  0
   22.2270   -7.1305  -16.0712 C   0  0  0  0  0  0  0  0  0  0  0  0
   22.3171   -5.8175  -15.3901 C   0  0  0  0  0  0  0  0  0  0  0  0
   22.2386   -4.6182  -16.0591 C   0  0  0  0  0  0  0  0  0  0  0  0
   22.3277   -3.3891  -15.4145 C   0  0  0  0  0  0  0  0  0  0  0  0
   22.5012   -3.3545  -14.0539 C   0  0  0  0  0  0  0  0  0  0  0  0
   22.5849   -4.5266  -13.3439 C   0  0  0  0  0  0  0  0  0  0  0  0
   22.4941   -5.7318  -14.0037 C   0  0  0  0  0  0  0  0  0  0  0  0
   19.8244   -6.8865  -16.1878 C   0  0  0  0  0  0  0  0  0  0  0  0
   19.4917   -6.7139  -17.3785 O   0  0  0  0  0  0  0  0  0  0  0  0
   19.1419   -6.1620  -15.2185 O   0  0  0  0  0  0  0  0  0  0  0  0
  1  5  1  0
  2  1  1  0
  2  3  1  0
  3  4  1  0
  5  6  1  6
  5  4  1  0
  6  7  2  0
  8  9  1  0
  8  6  1  0
 10 11  1  0
  9 10  1  1
 11 12  2  0
 13 12  1  0
 14 13  1  0
 15 14  2  0
 15 11  1  0
 16  9  1  0
 17 16  2  0
 18 16  1  0
 19 18  1  0
 19 27  1  0
 19 20  1  6
 21 22  2  0
 21 20  1  0
 23 22  1  0
 24 23  2  0
 25 24  1  0
 25 26  2  0
 26 21  1  0
 27 29  1  0
 28 27  2  0
M  END
$$$$
