PHF.pdb
     RDKit          3D

 29 31  0  0  1  0  0  0  0  0999 V2000
   37.0615  -19.2008  -19.3391 N   0  0  0  0  0  0  0  0  0  0  0  0
   35.8040  -19.7943  -19.7524 C   0  0  0  0  0  0  0  0  0  0  0  0
   35.5186  -19.3149  -21.1387 C   0  0  0  0  0  0  0  0  0  0  0  0
   36.6796  -18.3996  -21.4574 C   0  0  0  0  0  0  0  0  0  0  0  0
   37.1968  -17.9745  -20.1005 C   0  0  1  0  0  0  0  0  0  0  0  0
   36.3648  -16.9348  -19.4771 C   0  0  0  0  0  0  0  0  0  0  0  0
   35.2998  -17.2540  -18.8645 O   0  0  0  0  0  0  0  0  0  0  0  0
   36.6586  -15.5539  -19.5008 N   0  0  0  0  0  0  0  0  0  0  0  0
   35.8349  -14.5308  -18.8485 C   0  0  1  0  0  0  0  0  0  0  0  0
   36.6818  -13.2900  -18.8637 C   0  0  0  0  0  0  0  0  0  0  0  0
   36.0698  -12.1189  -18.2510 C   0  0  0  0  0  0  0  0  0  0  0  0
   35.5790  -12.0933  -16.9507 C   0  0  0  0  0  0  0  0  0  0  0  0
   35.1039  -10.8591  -16.7623 N   0  0  0  0  0  0  0  0  0  0  0  0
   35.2867  -10.1369  -17.8945 C   0  0  0  0  0  0  0  0  0  0  0  0
   35.8860  -10.9201  -18.8168 N   0  0  0  0  0  0  0  0  0  0  0  0
   34.6280  -14.2713  -19.7077 C   0  0  0  0  0  0  0  0  0  0  0  0
   34.6167  -14.3557  -20.9548 O   0  0  0  0  0  0  0  0  0  0  0  0
   33.3621  -13.8949  -19.1304 N   0  0  0  0  0  0  0  0  0  0  0  0
   32.1870  -13.6277  -19.9393 C   0  0  1  0  0  0  0  0  0  0  0  0
   30.9853  -14.4073  -19.4508 C   0  0  0  0  0  0  0  0  0  0  0  0
   30.7044  -14.1874  -18.0124 C   0  0  0  0  0  0  0  0  0  0  0  0
   31.1972  -15.0009  -17.0188 C   0  0  0  0  0  0  0  0  0  0  0  0
   30.9268  -14.7914  -15.6708 C   0  0  0  0  0  0  0  0  0  0  0  0
   30.1368  -13.7327  -15.3001 C   0  0  0  0  0  0  0  0  0  0  0  0
   29.6226  -12.8935  -16.2574 C   0  0  0  0  0  0  0  0  0  0  0  0
   29.9038  -13.1208  -17.5860 C   0  0  0  0  0  0  0  0  0  0  0  0
   31.8439  -12.1876  -19.8761 C   0  0  0  0  0  0  0  0  0  0  0  0
   30.9786  -11.6964  -20.6299 O   0  0  0  0  0  0  0  0  0  0  0  0
   32.4720  -11.3343  -18.9772 O   0  0  0  0  0  0  0  0  0  0  0  0
  1  5  1  0
  2  1  1  0
  2  3  1  0
  3  4  1  0
  5  6  1  1
  5  4  1  0
  6  7  2  0
  8  9  1  0
  8  6  1  0
 10 11  1  0
  9 10  1  6
 11 12  2  0
 13 12  1  0
 14 13  1  0
 15 14  2  0
 15 11  1  0
 16  9  1  0
 17 16  2  0
 18 16  1  0
 19 18  1  0
 19 27  1  0
 19 20  1  1
 21 22  2  0
 21 20  1  0
 23 22  1  0
 24 23  2  0
 25 24  1  0
 25 26  2  0
 26 21  1  0
 27 29  1  0
 28 27  2  0
M  END
$$$$
