PHF.pdb
     RDKit          3D

 29 31  0  0  1  0  0  0  0  0999 V2000
   27.8335  -20.9106  -15.1150 N   0  0  0  0  0  0  0  0  0  0  0  0
   26.8755  -20.2818  -16.0045 C   0  0  0  0  0  0  0  0  0  0  0  0
   27.2834  -18.8527  -16.1612 C   0  0  0  0  0  0  0  0  0  0  0  0
   28.5085  -18.7219  -15.2841 C   0  0  0  0  0  0  0  0  0  0  0  0
   28.3681  -19.8492  -14.2847 C   0  0  1  0  0  0  0  0  0  0  0  0
   27.4000  -19.5460  -13.2205 C   0  0  0  0  0  0  0  0  0  0  0  0
   27.3448  -18.3792  -12.7236 O   0  0  0  0  0  0  0  0  0  0  0  0
   26.4875  -20.4779  -12.6796 N   0  0  0  0  0  0  0  0  0  0  0  0
   25.6090  -20.1959  -11.5396 C   0  0  1  0  0  0  0  0  0  0  0  0
   24.2387  -20.6026  -12.0020 C   0  0  0  0  0  0  0  0  0  0  0  0
   23.6632  -19.7586  -13.0403 C   0  0  0  0  0  0  0  0  0  0  0  0
   23.5624  -20.1339  -14.3749 C   0  0  0  0  0  0  0  0  0  0  0  0
   22.9871  -19.1046  -15.0028 N   0  0  0  0  0  0  0  0  0  0  0  0
   22.7357  -18.1222  -14.1036 C   0  0  0  0  0  0  0  0  0  0  0  0
   23.1558  -18.5297  -12.8868 N   0  0  0  0  0  0  0  0  0  0  0  0
   25.9962  -21.1025  -10.4037 C   0  0  0  0  0  0  0  0  0  0  0  0
   26.2047  -22.3297  -10.5183 O   0  0  0  0  0  0  0  0  0  0  0  0
   26.1572  -20.5994   -9.0627 N   0  0  0  0  0  0  0  0  0  0  0  0
   26.4931  -21.4607   -7.9438 C   0  0  1  0  0  0  0  0  0  0  0  0
   27.9328  -21.2797   -7.5138 C   0  0  0  0  0  0  0  0  0  0  0  0
   28.0904  -20.2595   -6.4506 C   0  0  0  0  0  0  0  0  0  0  0  0
   28.0899  -18.9072   -6.7022 C   0  0  0  0  0  0  0  0  0  0  0  0
   28.2420  -17.9548   -5.7003 C   0  0  0  0  0  0  0  0  0  0  0  0
   28.4000  -18.3653   -4.4007 C   0  0  0  0  0  0  0  0  0  0  0  0
   28.4067  -19.7053   -4.1016 C   0  0  0  0  0  0  0  0  0  0  0  0
   28.2545  -20.6301   -5.1103 C   0  0  0  0  0  0  0  0  0  0  0  0
   25.6333  -21.1402   -6.7804 C   0  0  0  0  0  0  0  0  0  0  0  0
   24.8324  -20.1832   -6.8137 O   0  0  0  0  0  0  0  0  0  0  0  0
   25.6878  -21.8920   -5.6132 O   0  0  0  0  0  0  0  0  0  0  0  0
  1  5  1  0
  2  1  1  0
  2  3  1  0
  3  4  1  0
  5  6  1  1
  5  4  1  0
  6  7  2  0
  8  9  1  0
  8  6  1  0
 10 11  1  0
  9 10  1  6
 11 12  2  0
 13 12  1  0
 14 13  1  0
 15 14  2  0
 15 11  1  0
 16  9  1  0
 17 16  2  0
 18 16  1  0
 19 18  1  0
 19 27  1  0
 19 20  1  1
 21 22  2  0
 21 20  1  0
 23 22  1  0
 24 23  2  0
 25 24  1  0
 25 26  2  0
 26 21  1  0
 27 29  1  0
 28 27  2  0
M  END
$$$$
