PHF.pdb
     RDKit          3D

 29 31  0  0  1  0  0  0  0  0999 V2000
   28.2803  -18.3089  -18.3152 N   0  0  0  0  0  0  0  0  0  0  0  0
   27.6259  -17.1597  -18.9114 C   0  0  0  0  0  0  0  0  0  0  0  0
   28.2816  -15.9360  -18.3584 C   0  0  0  0  0  0  0  0  0  0  0  0
   29.3197  -16.4764  -17.4005 C   0  0  0  0  0  0  0  0  0  0  0  0
   28.8094  -17.8555  -17.0438 C   0  0  1  0  0  0  0  0  0  0  0  0
   27.7164  -17.8188  -16.0610 C   0  0  0  0  0  0  0  0  0  0  0  0
   27.8790  -17.2270  -14.9499 O   0  0  0  0  0  0  0  0  0  0  0  0
   26.4481  -18.4090  -16.2525 N   0  0  0  0  0  0  0  0  0  0  0  0
   25.3534  -18.3296  -15.2798 C   0  0  1  0  0  0  0  0  0  0  0  0
   24.1579  -17.9015  -16.0825 C   0  0  0  0  0  0  0  0  0  0  0  0
   24.1686  -16.5086  -16.5085 C   0  0  0  0  0  0  0  0  0  0  0  0
   23.6760  -15.4605  -15.7396 C   0  0  0  0  0  0  0  0  0  0  0  0
   23.8624  -14.3544  -16.4651 N   0  0  0  0  0  0  0  0  0  0  0  0
   24.4473  -14.6897  -17.6408 C   0  0  0  0  0  0  0  0  0  0  0  0
   24.6364  -16.0263  -17.6659 N   0  0  0  0  0  0  0  0  0  0  0  0
   25.0806  -19.7126  -14.7552 C   0  0  0  0  0  0  0  0  0  0  0  0
   25.1625  -20.7565  -15.4379 O   0  0  0  0  0  0  0  0  0  0  0  0
   24.6931  -19.9329  -13.3846 N   0  0  0  0  0  0  0  0  0  0  0  0
   24.4539  -21.2599  -12.8475 C   0  0  1  0  0  0  0  0  0  0  0  0
   25.6381  -21.7593  -12.0483 C   0  0  0  0  0  0  0  0  0  0  0  0
   25.9375  -20.9080  -10.8729 C   0  0  0  0  0  0  0  0  0  0  0  0
   26.6287  -19.7221  -10.9619 C   0  0  0  0  0  0  0  0  0  0  0  0
   26.9097  -18.9294   -9.8543 C   0  0  0  0  0  0  0  0  0  0  0  0
   26.4864  -19.3334   -8.6134 C   0  0  0  0  0  0  0  0  0  0  0  0
   25.7927  -20.5103   -8.4758 C   0  0  0  0  0  0  0  0  0  0  0  0
   25.5261  -21.2787   -9.5868 C   0  0  0  0  0  0  0  0  0  0  0  0
   23.2796  -21.2379  -11.9441 C   0  0  0  0  0  0  0  0  0  0  0  0
   22.8217  -20.1621  -11.5067 O   0  0  0  0  0  0  0  0  0  0  0  0
   22.6477  -22.4117  -11.5524 O   0  0  0  0  0  0  0  0  0  0  0  0
  1  5  1  0
  2  1  1  0
  2  3  1  0
  3  4  1  0
  5  6  1  1
  5  4  1  0
  6  7  2  0
  8  9  1  0
  8  6  1  0
 10 11  1  0
  9 10  1  6
 11 12  2  0
 13 12  1  0
 14 13  1  0
 15 14  2  0
 15 11  1  0
 16  9  1  0
 17 16  2  0
 18 16  1  0
 19 18  1  0
 19 27  1  0
 19 20  1  1
 21 22  2  0
 21 20  1  0
 23 22  1  0
 24 23  2  0
 25 24  1  0
 25 26  2  0
 26 21  1  0
 27 29  1  0
 28 27  2  0
M  END
$$$$
