PPE.pdb
     RDKit          3D

 24 25  0  0  1  0  0  0  0  0999 V2000
   18.4713  -12.5524  -17.2841 N   0  0  0  0  0  0  0  0  0  0  0  0
   17.8462  -12.3431  -18.5502 C   0  0  0  0  0  0  0  0  0  0  0  0
   18.8086  -11.6467  -19.4511 C   0  0  0  0  0  0  0  0  0  0  0  0
   20.0462  -11.4209  -18.6522 C   0  0  0  0  0  0  0  0  0  0  0  0
   19.8162  -12.1182  -17.3448 C   0  0  1  0  0  0  0  0  0  0  0  0
   20.2747  -11.2515  -16.2451 C   0  0  0  0  0  0  0  0  0  0  0  0
   19.3574  -10.8284  -15.4550 O   0  0  0  0  0  0  0  0  0  0  0  0
   21.5927  -10.8471  -15.9779 N   0  0  0  0  0  0  0  0  0  0  0  0
   22.7508  -11.2050  -16.7355 C   0  0  0  0  0  0  0  0  0  0  0  0
   23.9017  -10.9375  -15.8256 C   0  0  0  0  0  0  0  0  0  0  0  0
   23.3214  -10.5837  -14.4786 C   0  0  0  0  0  0  0  0  0  0  0  0
   21.9853  -10.0007  -14.8909 C   0  0  1  0  0  0  0  0  0  0  0  0
   22.1493   -8.5796  -15.2817 C   0  0  0  0  0  0  0  0  0  0  0  0
   22.4725   -8.3434  -16.4720 O   0  0  0  0  0  0  0  0  0  0  0  0
   21.9710   -7.4703  -14.4208 N   0  0  0  0  0  0  0  0  0  0  0  0
   21.6212   -6.1344  -14.9077 C   0  0  1  0  0  0  0  0  0  0  0  0
   20.1471   -5.9675  -15.0418 C   0  0  0  0  0  0  0  0  0  0  0  0
   19.7729   -4.5787  -15.4643 C   0  0  0  0  0  0  0  0  0  0  0  0
   18.3300   -4.4161  -15.6311 C   0  0  0  0  0  0  0  0  0  0  0  0
   17.8997   -3.2372  -15.8710 O   0  0  0  0  0  0  0  0  0  0  0  0
   22.1829   -5.1728  -13.9391 C   0  0  0  0  0  0  0  0  0  0  0  0
   22.5523   -3.8711  -14.3346 O   0  0  0  0  0  0  0  0  0  0  0  0
   17.3610   -5.3955  -15.5583 O   0  0  0  0  0  0  0  0  0  0  0  0
   22.3790   -5.4107  -12.7167 O   0  0  0  0  0  0  0  0  0  0  0  0
  1  2  1  0
  3  2  1  0
  4  5  1  0
  4  3  1  0
  5  6  1  1
  5  1  1  0
  6  7  2  0
  8 12  1  0
  8  6  1  0
  9  8  1  0
 10  9  1  0
 10 11  1  0
 11 12  1  0
 12 13  1  6
 13 15  1  0
 13 14  2  0
 15 16  1  0
 16 21  1  0
 16 17  1  1
 18 17  1  0
 19 20  2  0
 19 18  1  0
 21 24  2  0
 21 22  1  0
 23 19  1  0
M  END
$$$$
