PPE.pdb
     RDKit          3D

 24 25  0  0  1  0  0  0  0  0999 V2000
   25.8752  -19.7834  -10.5618 N   0  0  0  0  0  0  0  0  0  0  0  0
   25.4755  -21.0356  -10.0049 C   0  0  0  0  0  0  0  0  0  0  0  0
   25.7290  -22.1093  -11.0077 C   0  0  0  0  0  0  0  0  0  0  0  0
   26.2816  -21.4353  -12.2166 C   0  0  0  0  0  0  0  0  0  0  0  0
   26.4626  -19.9977  -11.8307 C   0  0  1  0  0  0  0  0  0  0  0  0
   25.9853  -19.1369  -12.9269 C   0  0  0  0  0  0  0  0  0  0  0  0
   24.9696  -18.4036  -12.6524 O   0  0  0  0  0  0  0  0  0  0  0  0
   26.5199  -19.0390  -14.2218 N   0  0  0  0  0  0  0  0  0  0  0  0
   27.5898  -19.8260  -14.7502 C   0  0  0  0  0  0  0  0  0  0  0  0
   28.0806  -19.0609  -15.9324 C   0  0  0  0  0  0  0  0  0  0  0  0
   27.3541  -17.7386  -15.9302 C   0  0  0  0  0  0  0  0  0  0  0  0
   26.0687  -18.1237  -15.2272 C   0  0  1  0  0  0  0  0  0  0  0  0
   25.1226  -18.7318  -16.1939 C   0  0  0  0  0  0  0  0  0  0  0  0
   25.4958  -19.7740  -16.7867 O   0  0  0  0  0  0  0  0  0  0  0  0
   23.8349  -18.2310  -16.5010 N   0  0  0  0  0  0  0  0  0  0  0  0
   22.6059  -18.9810  -16.2340 C   0  0  1  0  0  0  0  0  0  0  0  0
   22.5554  -19.4698  -14.8279 C   0  0  0  0  0  0  0  0  0  0  0  0
   23.0139  -20.8921  -14.7083 C   0  0  0  0  0  0  0  0  0  0  0  0
   22.0323  -21.8404  -15.2310 C   0  0  0  0  0  0  0  0  0  0  0  0
   22.3475  -22.4820  -16.2900 O   0  0  0  0  0  0  0  0  0  0  0  0
   21.4837  -18.0673  -16.5237 C   0  0  0  0  0  0  0  0  0  0  0  0
   20.1554  -18.5368  -16.5742 O   0  0  0  0  0  0  0  0  0  0  0  0
   20.7870  -22.1305  -14.7129 O   0  0  0  0  0  0  0  0  0  0  0  0
   21.5977  -16.8313  -16.7449 O   0  0  0  0  0  0  0  0  0  0  0  0
  1  2  1  0
  3  2  1  0
  4  5  1  0
  4  3  1  0
  5  6  1  6
  5  1  1  0
  6  7  2  0
  8 12  1  0
  8  6  1  0
  9  8  1  0
 10  9  1  0
 10 11  1  0
 11 12  1  0
 12 13  1  6
 13 15  1  0
 13 14  2  0
 15 16  1  0
 16 21  1  0
 16 17  1  1
 18 17  1  0
 19 20  2  0
 19 18  1  0
 21 24  2  0
 21 22  1  0
 23 19  1  0
M  END
$$$$
