PPE.pdb
     RDKit          3D

 24 25  0  0  1  0  0  0  0  0999 V2000
   28.2409  -20.8848  -14.7842 N   0  0  0  0  0  0  0  0  0  0  0  0
   28.5230  -19.8142  -15.6852 C   0  0  0  0  0  0  0  0  0  0  0  0
   28.0947  -18.5323  -15.0559 C   0  0  0  0  0  0  0  0  0  0  0  0
   27.5119  -18.8869  -13.7310 C   0  0  0  0  0  0  0  0  0  0  0  0
   27.7437  -20.3594  -13.5685 C   0  0  1  0  0  0  0  0  0  0  0  0
   26.5224  -20.9873  -13.0348 C   0  0  0  0  0  0  0  0  0  0  0  0
   26.0745  -21.9844  -13.7055 O   0  0  0  0  0  0  0  0  0  0  0  0
   25.8091  -20.6112  -11.8851 N   0  0  0  0  0  0  0  0  0  0  0  0
   26.1498  -19.5439  -10.9973 C   0  0  0  0  0  0  0  0  0  0  0  0
   25.4009  -19.8366   -9.7413 C   0  0  0  0  0  0  0  0  0  0  0  0
   24.7731  -21.1977   -9.9132 C   0  0  0  0  0  0  0  0  0  0  0  0
   24.6130  -21.2467  -11.4188 C   0  0  1  0  0  0  0  0  0  0  0  0
   23.3747  -20.5373  -11.8221 C   0  0  0  0  0  0  0  0  0  0  0  0
   23.2759  -19.3262  -11.5053 O   0  0  0  0  0  0  0  0  0  0  0  0
   22.2971  -21.1164  -12.5341 N   0  0  0  0  0  0  0  0  0  0  0  0
   21.2313  -20.3216  -13.1477 C   0  0  1  0  0  0  0  0  0  0  0  0
   21.0765  -20.6354  -14.5955 C   0  0  0  0  0  0  0  0  0  0  0  0
   22.3313  -20.3628  -15.3691 C   0  0  0  0  0  0  0  0  0  0  0  0
   22.0591  -19.8847  -16.7232 C   0  0  0  0  0  0  0  0  0  0  0  0
   20.8631  -20.0073  -17.1557 O   0  0  0  0  0  0  0  0  0  0  0  0
   19.9960  -20.6245  -12.3991 C   0  0  0  0  0  0  0  0  0  0  0  0
   19.9352  -21.7092  -11.5007 O   0  0  0  0  0  0  0  0  0  0  0  0
   22.9505  -19.3096  -17.6053 O   0  0  0  0  0  0  0  0  0  0  0  0
   18.9210  -19.9715  -12.4857 O   0  0  0  0  0  0  0  0  0  0  0  0
  1  2  1  0
  3  2  1  0
  4  5  1  0
  4  3  1  0
  5  6  1  6
  5  1  1  0
  6  7  2  0
  8 12  1  0
  8  6  1  0
  9  8  1  0
 10  9  1  0
 10 11  1  0
 11 12  1  0
 12 13  1  1
 13 15  1  0
 13 14  2  0
 15 16  1  0
 16 21  1  0
 16 17  1  6
 18 17  1  0
 19 20  2  0
 19 18  1  0
 21 24  2  0
 21 22  1  0
 23 19  1  0
M  END
$$$$
