PPE.pdb
     RDKit          3D

 24 25  0  0  1  0  0  0  0  0999 V2000
   19.7325  -12.2943  -16.3279 N   0  0  0  0  0  0  0  0  0  0  0  0
   18.4436  -12.7364  -16.7533 C   0  0  0  0  0  0  0  0  0  0  0  0
   17.7836  -11.6337  -17.5091 C   0  0  0  0  0  0  0  0  0  0  0  0
   18.7343  -10.4861  -17.4968 C   0  0  0  0  0  0  0  0  0  0  0  0
   19.9834  -11.0030  -16.8481 C   0  0  1  0  0  0  0  0  0  0  0  0
   20.4862   -9.9992  -15.8940 C   0  0  0  0  0  0  0  0  0  0  0  0
   20.4247  -10.3320  -14.6571 O   0  0  0  0  0  0  0  0  0  0  0  0
   21.0170   -8.7345  -16.1956 N   0  0  0  0  0  0  0  0  0  0  0  0
   21.2018   -8.1920  -17.5052 C   0  0  0  0  0  0  0  0  0  0  0  0
   22.1842   -7.0844  -17.3259 C   0  0  0  0  0  0  0  0  0  0  0  0
   22.6639   -7.1520  -15.8970 C   0  0  0  0  0  0  0  0  0  0  0  0
   21.4602   -7.7794  -15.2244 C   0  0  1  0  0  0  0  0  0  0  0  0
   20.4485   -6.7390  -14.9188 C   0  0  0  0  0  0  0  0  0  0  0  0
   19.6265   -6.4518  -15.8236 O   0  0  0  0  0  0  0  0  0  0  0  0
   20.3365   -6.0451  -13.6901 N   0  0  0  0  0  0  0  0  0  0  0  0
   19.1039   -5.3805  -13.2621 C   0  0  1  0  0  0  0  0  0  0  0  0
   18.7657   -5.7081  -11.8490 C   0  0  0  0  0  0  0  0  0  0  0  0
   17.5879   -4.9236  -11.3545 C   0  0  0  0  0  0  0  0  0  0  0  0
   17.3052   -5.1722   -9.9423 C   0  0  0  0  0  0  0  0  0  0  0  0
   16.3126   -4.5531   -9.4283 O   0  0  0  0  0  0  0  0  0  0  0  0
   19.3239   -3.9317  -13.4379 C   0  0  0  0  0  0  0  0  0  0  0  0
   18.2587   -3.0662  -13.7596 O   0  0  0  0  0  0  0  0  0  0  0  0
   17.9911   -6.0057   -9.0831 O   0  0  0  0  0  0  0  0  0  0  0  0
   20.4373   -3.3514  -13.3228 O   0  0  0  0  0  0  0  0  0  0  0  0
  1  2  1  0
  3  2  1  0
  4  5  1  0
  4  3  1  0
  5  6  1  1
  5  1  1  0
  6  7  2  0
  8 12  1  0
  8  6  1  0
  9  8  1  0
 10  9  1  0
 10 11  1  0
 11 12  1  0
 12 13  1  6
 13 15  1  0
 13 14  2  0
 15 16  1  0
 16 21  1  0
 16 17  1  1
 18 17  1  0
 19 20  2  0
 19 18  1  0
 21 24  2  0
 21 22  1  0
 23 19  1  0
M  END
$$$$
