PPE.pdb
     RDKit          3D

 24 25  0  0  1  0  0  0  0  0999 V2000
   19.4537  -10.4331  -15.9536 N   0  0  0  0  0  0  0  0  0  0  0  0
   19.6137  -11.0965  -17.2073 C   0  0  0  0  0  0  0  0  0  0  0  0
   20.7275  -10.4463  -17.9553 C   0  0  0  0  0  0  0  0  0  0  0  0
   21.2189   -9.3325  -17.0959 C   0  0  0  0  0  0  0  0  0  0  0  0
   20.4634   -9.4533  -15.8063 C   0  0  1  0  0  0  0  0  0  0  0  0
   20.0199   -8.1157  -15.3762 C   0  0  0  0  0  0  0  0  0  0  0  0
   18.7544   -7.9124  -15.4182 O   0  0  0  0  0  0  0  0  0  0  0  0
   20.8286   -7.0569  -14.9324 N   0  0  0  0  0  0  0  0  0  0  0  0
   22.2557   -7.0675  -14.8504 C   0  0  0  0  0  0  0  0  0  0  0  0
   22.5943   -5.9513  -13.9212 C   0  0  0  0  0  0  0  0  0  0  0  0
   21.2911   -5.4385  -13.3600 C   0  0  0  0  0  0  0  0  0  0  0  0
   20.3418   -5.7849  -14.4886 C   0  0  1  0  0  0  0  0  0  0  0  0
   20.3940   -4.7371  -15.5368 C   0  0  0  0  0  0  0  0  0  0  0  0
   21.1035   -4.9679  -16.5468 O   0  0  0  0  0  0  0  0  0  0  0  0
   19.7088   -3.4994  -15.4887 N   0  0  0  0  0  0  0  0  0  0  0  0
   18.9640   -2.9585  -16.6275 C   0  0  1  0  0  0  0  0  0  0  0  0
   17.9817   -3.9439  -17.1591 C   0  0  0  0  0  0  0  0  0  0  0  0
   17.1188   -3.3561  -18.2348 C   0  0  0  0  0  0  0  0  0  0  0  0
   16.5994   -4.3705  -19.1500 C   0  0  0  0  0  0  0  0  0  0  0  0
   15.7588   -3.9851  -20.0316 O   0  0  0  0  0  0  0  0  0  0  0  0
   18.2900   -1.7363  -16.1475 C   0  0  0  0  0  0  0  0  0  0  0  0
   18.0312   -0.6571  -17.0168 O   0  0  0  0  0  0  0  0  0  0  0  0
   16.9101   -5.7144  -19.1771 O   0  0  0  0  0  0  0  0  0  0  0  0
   17.8968   -1.5459  -14.9649 O   0  0  0  0  0  0  0  0  0  0  0  0
  1  2  1  0
  3  2  1  0
  4  5  1  0
  4  3  1  0
  5  6  1  6
  5  1  1  0
  6  7  2  0
  8 12  1  0
  8  6  1  0
  9  8  1  0
 10  9  1  0
 10 11  1  0
 11 12  1  0
 12 13  1  6
 13 15  1  0
 13 14  2  0
 15 16  1  0
 16 21  1  0
 16 17  1  1
 18 17  1  0
 19 20  2  0
 19 18  1  0
 21 24  2  0
 21 22  1  0
 23 19  1  0
M  END
$$$$
