PPE.pdb
     RDKit          3D

 24 25  0  0  1  0  0  0  0  0999 V2000
   21.0763  -13.4591  -17.7821 N   0  0  0  0  0  0  0  0  0  0  0  0
   20.4904  -13.4599  -19.0838 C   0  0  0  0  0  0  0  0  0  0  0  0
   21.2883  -12.5646  -19.9695 C   0  0  0  0  0  0  0  0  0  0  0  0
   22.3781  -11.9985  -19.1253 C   0  0  0  0  0  0  0  0  0  0  0  0
   22.2638  -12.6907  -17.8000 C   0  0  1  0  0  0  0  0  0  0  0  0
   22.4194  -11.7006  -16.7201 C   0  0  0  0  0  0  0  0  0  0  0  0
   21.3542  -11.4316  -16.0585 O   0  0  0  0  0  0  0  0  0  0  0  0
   23.5961  -11.0311  -16.3472 N   0  0  0  0  0  0  0  0  0  0  0  0
   24.8729  -11.1636  -16.9763 C   0  0  0  0  0  0  0  0  0  0  0  0
   25.8492  -10.6476  -15.9740 C   0  0  0  0  0  0  0  0  0  0  0  0
   25.0769  -10.3887  -14.7040 C   0  0  0  0  0  0  0  0  0  0  0  0
   23.7000  -10.0985  -15.2649 C   0  0  1  0  0  0  0  0  0  0  0  0
   23.6154   -8.6828  -15.6985 C   0  0  0  0  0  0  0  0  0  0  0  0
   24.0617   -8.4021  -16.8382 O   0  0  0  0  0  0  0  0  0  0  0  0
   23.0727   -7.6248  -14.9306 N   0  0  0  0  0  0  0  0  0  0  0  0
   22.7056   -6.3303  -15.5084 C   0  0  1  0  0  0  0  0  0  0  0  0
   21.4393   -6.4162  -16.2879 C   0  0  0  0  0  0  0  0  0  0  0  0
   20.2814   -6.8447  -15.4376 C   0  0  0  0  0  0  0  0  0  0  0  0
   19.0090   -6.7793  -16.1538 C   0  0  0  0  0  0  0  0  0  0  0  0
   19.0367   -6.3399  -17.3533 O   0  0  0  0  0  0  0  0  0  0  0  0
   22.5771   -5.3871  -14.3805 C   0  0  0  0  0  0  0  0  0  0  0  0
   22.4979   -3.9966  -14.5983 O   0  0  0  0  0  0  0  0  0  0  0  0
   17.7623   -7.1384  -15.6846 O   0  0  0  0  0  0  0  0  0  0  0  0
   22.5277   -5.7178  -13.1649 O   0  0  0  0  0  0  0  0  0  0  0  0
  1  2  1  0
  3  2  1  0
  4  5  1  0
  4  3  1  0
  5  6  1  1
  5  1  1  0
  6  7  2  0
  8 12  1  0
  8  6  1  0
  9  8  1  0
 10  9  1  0
 10 11  1  0
 11 12  1  0
 12 13  1  6
 13 15  1  0
 13 14  2  0
 15 16  1  0
 16 21  1  0
 16 17  1  1
 18 17  1  0
 19 20  2  0
 19 18  1  0
 21 24  2  0
 21 22  1  0
 23 19  1  0
M  END
$$$$
