PPE.pdb
     RDKit          3D

 24 25  0  0  1  0  0  0  0  0999 V2000
   28.7022  -21.1286  -13.9359 N   0  0  0  0  0  0  0  0  0  0  0  0
   29.0441  -20.2106  -14.9742 C   0  0  0  0  0  0  0  0  0  0  0  0
   28.4859  -18.8709  -14.6330 C   0  0  0  0  0  0  0  0  0  0  0  0
   27.7624  -19.0324  -13.3401 C   0  0  0  0  0  0  0  0  0  0  0  0
   28.0379  -20.4377  -12.8955 C   0  0  1  0  0  0  0  0  0  0  0  0
   26.7898  -21.0437  -12.3998 C   0  0  0  0  0  0  0  0  0  0  0  0
   26.3762  -22.0687  -13.0501 O   0  0  0  0  0  0  0  0  0  0  0  0
   26.0183  -20.6200  -11.3056 N   0  0  0  0  0  0  0  0  0  0  0  0
   26.3239  -19.5278  -10.4354 C   0  0  0  0  0  0  0  0  0  0  0  0
   25.5009  -19.7685   -9.2152 C   0  0  0  0  0  0  0  0  0  0  0  0
   24.8639  -21.1264   -9.3778 C   0  0  0  0  0  0  0  0  0  0  0  0
   24.7885  -21.2241  -10.8876 C   0  0  1  0  0  0  0  0  0  0  0  0
   23.5855  -20.5128  -11.3840 C   0  0  0  0  0  0  0  0  0  0  0  0
   23.6309  -19.2583  -11.4163 O   0  0  0  0  0  0  0  0  0  0  0  0
   22.3923  -21.1350  -11.8229 N   0  0  0  0  0  0  0  0  0  0  0  0
   21.5868  -20.6170  -12.9306 C   0  0  1  0  0  0  0  0  0  0  0  0
   21.5606  -21.5638  -14.0802 C   0  0  0  0  0  0  0  0  0  0  0  0
   20.7451  -21.0401  -15.2238 C   0  0  0  0  0  0  0  0  0  0  0  0
   21.1740  -21.5849  -16.5104 C   0  0  0  0  0  0  0  0  0  0  0  0
   20.9867  -22.8335  -16.7067 O   0  0  0  0  0  0  0  0  0  0  0  0
   20.2310  -20.3883  -12.3943 C   0  0  0  0  0  0  0  0  0  0  0  0
   19.2740  -19.6514  -13.1212 O   0  0  0  0  0  0  0  0  0  0  0  0
   21.7669  -20.9050  -17.5542 O   0  0  0  0  0  0  0  0  0  0  0  0
   19.8138  -20.8109  -11.2821 O   0  0  0  0  0  0  0  0  0  0  0  0
  1  2  1  0
  3  2  1  0
  4  5  1  0
  4  3  1  0
  5  6  1  6
  5  1  1  0
  6  7  2  0
  8 12  1  0
  8  6  1  0
  9  8  1  0
 10  9  1  0
 10 11  1  0
 11 12  1  0
 12 13  1  6
 13 15  1  0
 13 14  2  0
 15 16  1  0
 16 21  1  0
 16 17  1  6
 18 17  1  0
 19 20  2  0
 19 18  1  0
 21 24  2  0
 21 22  1  0
 23 19  1  0
M  END
$$$$
