HLF.pdb
     RDKit          3D

 30 31  0  0  1  0  0  0  0  0999 V2000
    9.8425  -16.6590   19.9693 N   0  0  0  0  0  0  0  0  0  0  0  0
    9.1224  -17.3280   21.0115 C   0  0  1  0  0  0  0  0  0  0  0  0
    9.4244  -18.8214   21.0385 C   0  0  0  0  0  0  0  0  0  0  0  0
    8.8004  -19.4244   19.8426 C   0  0  0  0  0  0  0  0  0  0  0  0
    7.5331  -19.9298   19.7577 C   0  0  0  0  0  0  0  0  0  0  0  0
    7.3647  -20.3821   18.4920 N   0  0  0  0  0  0  0  0  0  0  0  0
    8.4968  -20.1640   17.8073 C   0  0  0  0  0  0  0  0  0  0  0  0
    9.3806  -19.5708   18.6501 N   0  0  0  0  0  0  0  0  0  0  0  0
    9.4751  -16.7201   22.3081 C   0  0  0  0  0  0  0  0  0  0  0  0
   10.6546  -16.3885   22.5337 O   0  0  0  0  0  0  0  0  0  0  0  0
    8.1001  -13.1129   24.7015 C   0  0  0  0  0  0  0  0  0  0  0  0
    7.0631  -14.2502   24.7645 C   0  0  2  0  0  0  0  0  0  0  0  0
    5.9200  -13.6796   25.5827 C   0  0  0  0  0  0  0  0  0  0  0  0
    7.7062  -15.4616   25.3699 C   0  0  0  0  0  0  0  0  0  0  0  0
    8.8234  -15.9860   24.5645 C   0  0  2  0  0  0  0  0  0  0  0  0
    8.4859  -16.5162   23.2850 N   0  0  0  0  0  0  0  0  0  0  0  0
    9.5862  -17.0704   25.3002 C   0  0  0  0  0  0  0  0  0  0  0  0
    9.5874  -18.2565   24.9005 O   0  0  0  0  0  0  0  0  0  0  0  0
   10.3255  -16.7665   26.4699 N   0  0  0  0  0  0  0  0  0  0  0  0
   11.1363  -17.7364   27.2043 C   0  0  1  0  0  0  0  0  0  0  0  0
   11.8171  -17.0595   28.3409 C   0  0  0  0  0  0  0  0  0  0  0  0
   11.4019  -15.7003   28.6468 C   0  0  0  0  0  0  0  0  0  0  0  0
   11.3507  -14.7340   27.6530 C   0  0  0  0  0  0  0  0  0  0  0  0
   10.9468  -13.4348   27.9828 C   0  0  0  0  0  0  0  0  0  0  0  0
   10.5968  -13.0807   29.2693 C   0  0  0  0  0  0  0  0  0  0  0  0
   10.6468  -14.0456   30.2683 C   0  0  0  0  0  0  0  0  0  0  0  0
   11.0490  -15.3219   29.9147 C   0  0  0  0  0  0  0  0  0  0  0  0
   10.3087  -18.8696   27.6770 C   0  0  0  0  0  0  0  0  0  0  0  0
    9.0656  -18.8824   27.5581 O   0  0  0  0  0  0  0  0  0  0  0  0
   10.9663  -19.9386   28.2688 O   0  0  0  0  0  0  0  0  0  0  0  0
  2  1  1  6
  2  9  1  0
  2  3  1  0
  3  4  1  0
  4  8  1  0
  4  5  2  0
  5  6  1  0
  7  6  1  0
  8  7  2  0
  9 10  2  0
 12 11  1  1
 12 13  1  0
 12 14  1  0
 15 14  1  1
 16 15  1  0
 16  9  1  0
 17 15  1  0
 17 18  2  0
 19 17  1  0
 20 19  1  0
 20 28  1  0
 20 21  1  1
 22 21  1  0
 23 22  2  0
 24 23  1  0
 25 24  2  0
 25 26  1  0
 26 27  2  0
 27 22  1  0
 28 30  1  0
 29 28  2  0
M  END
$$$$
