HLF.pdb
     RDKit          3D

 30 31  0  0  1  0  0  0  0  0999 V2000
   11.7853  -17.7108   18.2265 N   0  0  0  0  0  0  0  0  0  0  0  0
   10.8440  -18.2050   19.1867 C   0  0  1  0  0  0  0  0  0  0  0  0
   11.2622  -19.5610   19.7421 C   0  0  0  0  0  0  0  0  0  0  0  0
   10.8705  -20.5877   18.7543 C   0  0  0  0  0  0  0  0  0  0  0  0
    9.7530  -20.5700   17.9672 C   0  0  0  0  0  0  0  0  0  0  0  0
    9.7766  -21.6931   17.2103 N   0  0  0  0  0  0  0  0  0  0  0  0
   10.8794  -22.3913   17.5179 C   0  0  0  0  0  0  0  0  0  0  0  0
   11.5513  -21.7004   18.4743 N   0  0  0  0  0  0  0  0  0  0  0  0
   10.7183  -17.2288   20.2850 C   0  0  0  0  0  0  0  0  0  0  0  0
   11.7413  -16.7011   20.7617 O   0  0  0  0  0  0  0  0  0  0  0  0
    8.6565  -13.2156   20.8285 C   0  0  0  0  0  0  0  0  0  0  0  0
    7.6824  -14.4089   20.8290 C   0  0  2  0  0  0  0  0  0  0  0  0
    6.3047  -13.7771   20.8963 C   0  0  0  0  0  0  0  0  0  0  0  0
    8.0062  -15.3004   21.9901 C   0  0  0  0  0  0  0  0  0  0  0  0
    9.3162  -15.9630   21.8620 C   0  0  2  0  0  0  0  0  0  0  0  0
    9.4510  -16.8954   20.7922 N   0  0  0  0  0  0  0  0  0  0  0  0
    9.7020  -16.6956   23.1323 C   0  0  0  0  0  0  0  0  0  0  0  0
    9.3876  -17.8927   23.3192 O   0  0  0  0  0  0  0  0  0  0  0  0
   10.4364  -16.0387   24.1502 N   0  0  0  0  0  0  0  0  0  0  0  0
   10.8559  -16.6718   25.3994 C   0  0  1  0  0  0  0  0  0  0  0  0
   11.5369  -15.6699   26.2631 C   0  0  0  0  0  0  0  0  0  0  0  0
   10.6904  -14.7381   26.9901 C   0  0  0  0  0  0  0  0  0  0  0  0
    9.7510  -13.9652   26.3236 C   0  0  0  0  0  0  0  0  0  0  0  0
    8.9527  -13.0777   27.0550 C   0  0  0  0  0  0  0  0  0  0  0  0
    9.0695  -12.9443   28.4230 C   0  0  0  0  0  0  0  0  0  0  0  0
   10.0094  -13.7166   29.0950 C   0  0  0  0  0  0  0  0  0  0  0  0
   10.7850  -14.5860   28.3478 C   0  0  0  0  0  0  0  0  0  0  0  0
    9.7017  -17.2816   26.0985 C   0  0  0  0  0  0  0  0  0  0  0  0
    9.8379  -17.9880   27.1192 O   0  0  0  0  0  0  0  0  0  0  0  0
    8.4386  -17.0418   25.5765 O   0  0  0  0  0  0  0  0  0  0  0  0
  2  1  1  6
  2  9  1  0
  2  3  1  0
  3  4  1  0
  4  8  1  0
  4  5  2  0
  5  6  1  0
  7  6  1  0
  8  7  2  0
  9 10  2  0
 12 11  1  1
 12 13  1  0
 12 14  1  0
 15 14  1  1
 16 15  1  0
 16  9  1  0
 17 15  1  0
 17 18  2  0
 19 17  1  0
 20 19  1  0
 20 28  1  0
 20 21  1  1
 22 21  1  0
 23 22  2  0
 24 23  1  0
 25 24  2  0
 25 26  1  0
 26 27  2  0
 27 22  1  0
 28 30  1  0
 29 28  2  0
M  END
$$$$
