HLF.pdb
     RDKit          3D

 30 31  0  0  1  0  0  0  0  0999 V2000
   10.5009  -19.6937   19.0158 N   0  0  0  0  0  0  0  0  0  0  0  0
    9.6763  -19.3599   20.1387 C   0  0  1  0  0  0  0  0  0  0  0  0
    9.9391  -20.2784   21.3258 C   0  0  0  0  0  0  0  0  0  0  0  0
    9.3266  -21.5880   21.0207 C   0  0  0  0  0  0  0  0  0  0  0  0
    8.5610  -21.8897   19.9292 C   0  0  0  0  0  0  0  0  0  0  0  0
    8.2031  -23.1917   20.0368 N   0  0  0  0  0  0  0  0  0  0  0  0
    8.7318  -23.6873   21.1650 C   0  0  0  0  0  0  0  0  0  0  0  0
    9.4259  -22.6885   21.7684 N   0  0  0  0  0  0  0  0  0  0  0  0
    9.9282  -17.9582   20.5220 C   0  0  0  0  0  0  0  0  0  0  0  0
   11.0331  -17.4393   20.2727 O   0  0  0  0  0  0  0  0  0  0  0  0
    6.3605  -13.0408   20.8941 C   0  0  0  0  0  0  0  0  0  0  0  0
    7.7874  -13.6189   20.8439 C   0  0  2  0  0  0  0  0  0  0  0  0
    8.4240  -12.9598   19.6347 C   0  0  0  0  0  0  0  0  0  0  0  0
    7.7038  -15.1132   20.7554 C   0  0  0  0  0  0  0  0  0  0  0  0
    8.9552  -15.7860   21.1464 C   0  0  2  0  0  0  0  0  0  0  0  0
    8.9273  -17.2111   21.1658 N   0  0  0  0  0  0  0  0  0  0  0  0
    9.4298  -15.3389   22.5152 C   0  0  0  0  0  0  0  0  0  0  0  0
    9.6561  -14.1342   22.7688 O   0  0  0  0  0  0  0  0  0  0  0  0
    9.6307  -16.2817   23.5535 N   0  0  0  0  0  0  0  0  0  0  0  0
    9.8340  -15.9269   24.9572 C   0  0  1  0  0  0  0  0  0  0  0  0
    9.8820  -14.4464   25.0962 C   0  0  0  0  0  0  0  0  0  0  0  0
    8.7210  -13.7987   25.6845 C   0  0  0  0  0  0  0  0  0  0  0  0
    8.7615  -13.3149   26.9838 C   0  0  0  0  0  0  0  0  0  0  0  0
    7.6250  -12.6970   27.5190 C   0  0  0  0  0  0  0  0  0  0  0  0
    6.4599  -12.5527   26.7947 C   0  0  0  0  0  0  0  0  0  0  0  0
    6.4147  -13.0361   25.4925 C   0  0  0  0  0  0  0  0  0  0  0  0
    7.5523  -13.6421   24.9881 C   0  0  0  0  0  0  0  0  0  0  0  0
    8.7724  -16.5084   25.8101 C   0  0  0  0  0  0  0  0  0  0  0  0
    8.7986  -16.4263   27.0559 O   0  0  0  0  0  0  0  0  0  0  0  0
    7.7265  -17.1612   25.1734 O   0  0  0  0  0  0  0  0  0  0  0  0
  2  1  1  6
  2  9  1  0
  2  3  1  0
  3  4  1  0
  4  8  1  0
  4  5  2  0
  5  6  1  0
  7  6  1  0
  8  7  2  0
  9 10  2  0
 12 11  1  6
 12 13  1  0
 12 14  1  0
 15 14  1  1
 16 15  1  0
 16  9  1  0
 17 15  1  0
 17 18  2  0
 19 17  1  0
 20 19  1  0
 20 28  1  0
 20 21  1  6
 22 21  1  0
 23 22  2  0
 24 23  1  0
 25 24  2  0
 25 26  1  0
 26 27  2  0
 27 22  1  0
 28 30  1  0
 29 28  2  0
M  END
$$$$
