HLF.pdb
     RDKit          3D

 30 31  0  0  1  0  0  0  0  0999 V2000
    8.3499  -19.9947   19.6771 N   0  0  0  0  0  0  0  0  0  0  0  0
    7.7199  -19.0561   20.5570 C   0  0  1  0  0  0  0  0  0  0  0  0
    7.2111  -19.7260   21.8276 C   0  0  0  0  0  0  0  0  0  0  0  0
    5.9362  -20.3966   21.4985 C   0  0  0  0  0  0  0  0  0  0  0  0
    5.3360  -20.4383   20.2710 C   0  0  0  0  0  0  0  0  0  0  0  0
    4.1917  -21.1503   20.4071 N   0  0  0  0  0  0  0  0  0  0  0  0
    4.0825  -21.5414   21.6851 C   0  0  0  0  0  0  0  0  0  0  0  0
    5.1662  -21.0711   22.3542 N   0  0  0  0  0  0  0  0  0  0  0  0
    8.6844  -17.9944   20.9000 C   0  0  0  0  0  0  0  0  0  0  0  0
    9.9067  -18.2219   20.8199 O   0  0  0  0  0  0  0  0  0  0  0  0
    6.3981  -13.8687   21.0630 C   0  0  0  0  0  0  0  0  0  0  0  0
    7.7958  -13.5807   21.6428 C   0  0  2  0  0  0  0  0  0  0  0  0
    7.9614  -12.0783   21.5113 C   0  0  0  0  0  0  0  0  0  0  0  0
    8.8116  -14.3790   20.8824 C   0  0  0  0  0  0  0  0  0  0  0  0
    9.1425  -15.6605   21.5306 C   0  0  2  0  0  0  0  0  0  0  0  0
    8.2276  -16.7323   21.3156 N   0  0  0  0  0  0  0  0  0  0  0  0
    9.2935  -15.5085   23.0316 C   0  0  0  0  0  0  0  0  0  0  0  0
   10.1021  -14.6929   23.5292 O   0  0  0  0  0  0  0  0  0  0  0  0
    8.5154  -16.2924   23.9188 N   0  0  0  0  0  0  0  0  0  0  0  0
    8.6385  -16.2510   25.3750 C   0  0  1  0  0  0  0  0  0  0  0  0
    7.3532  -15.7984   25.9722 C   0  0  0  0  0  0  0  0  0  0  0  0
    7.1955  -14.3714   26.2009 C   0  0  0  0  0  0  0  0  0  0  0  0
    8.2468  -13.6117   26.6925 C   0  0  0  0  0  0  0  0  0  0  0  0
    8.0600  -12.2401   26.9014 C   0  0  0  0  0  0  0  0  0  0  0  0
    6.8597  -11.6151   26.6342 C   0  0  0  0  0  0  0  0  0  0  0  0
    5.8035  -12.3724   26.1417 C   0  0  0  0  0  0  0  0  0  0  0  0
    6.0154  -13.7258   25.9442 C   0  0  0  0  0  0  0  0  0  0  0  0
    9.0396  -17.5718   25.9110 C   0  0  0  0  0  0  0  0  0  0  0  0
    9.1828  -17.7793   27.1341 O   0  0  0  0  0  0  0  0  0  0  0  0
    9.2572  -18.5933   24.9974 O   0  0  0  0  0  0  0  0  0  0  0  0
  2  1  1  6
  2  9  1  0
  2  3  1  0
  3  4  1  0
  4  8  1  0
  4  5  2  0
  5  6  1  0
  7  6  1  0
  8  7  2  0
  9 10  2  0
 12 11  1  6
 12 13  1  0
 12 14  1  0
 15 14  1  1
 16 15  1  0
 16  9  1  0
 17 15  1  0
 17 18  2  0
 19 17  1  0
 20 19  1  0
 20 28  1  0
 20 21  1  1
 22 21  1  0
 23 22  2  0
 24 23  1  0
 25 24  2  0
 25 26  1  0
 26 27  2  0
 27 22  1  0
 28 30  1  0
 29 28  2  0
M  END
$$$$
