HLF.pdb
     RDKit          3D

 30 31  0  0  1  0  0  0  0  0999 V2000
    9.4777  -19.2376   19.4721 N   0  0  0  0  0  0  0  0  0  0  0  0
    8.6134  -18.6095   20.4264 C   0  0  1  0  0  0  0  0  0  0  0  0
    8.3846  -19.4912   21.6481 C   0  0  0  0  0  0  0  0  0  0  0  0
    7.6462  -20.6904   21.2007 C   0  0  0  0  0  0  0  0  0  0  0  0
    7.2560  -20.9710   19.9210 C   0  0  0  0  0  0  0  0  0  0  0  0
    6.6102  -22.1614   19.9496 N   0  0  0  0  0  0  0  0  0  0  0  0
    6.5989  -22.6099   21.2132 C   0  0  0  0  0  0  0  0  0  0  0  0
    7.2421  -21.6938   21.9816 N   0  0  0  0  0  0  0  0  0  0  0  0
    9.2045  -17.3228   20.8386 C   0  0  0  0  0  0  0  0  0  0  0  0
   10.4189  -17.1143   20.6541 O   0  0  0  0  0  0  0  0  0  0  0  0
    9.1625  -13.1667   19.4030 C   0  0  0  0  0  0  0  0  0  0  0  0
    7.8403  -13.6433   20.0335 C   0  0  2  0  0  0  0  0  0  0  0  0
    6.8538  -12.5287   19.7398 C   0  0  0  0  0  0  0  0  0  0  0  0
    8.0620  -13.8976   21.4942 C   0  0  0  0  0  0  0  0  0  0  0  0
    8.9385  -15.0537   21.7528 C   0  0  2  0  0  0  0  0  0  0  0  0
    8.4025  -16.3363   21.4371 N   0  0  0  0  0  0  0  0  0  0  0  0
    9.3824  -15.1095   23.2016 C   0  0  0  0  0  0  0  0  0  0  0  0
   10.1284  -14.2323   23.6922 O   0  0  0  0  0  0  0  0  0  0  0  0
    8.9598  -16.1654   24.0463 N   0  0  0  0  0  0  0  0  0  0  0  0
    9.1514  -16.1848   25.4956 C   0  0  1  0  0  0  0  0  0  0  0  0
    7.8432  -15.9834   26.1750 C   0  0  0  0  0  0  0  0  0  0  0  0
    7.3335  -14.6235   26.2403 C   0  0  0  0  0  0  0  0  0  0  0  0
    6.0800  -14.3111   25.7352 C   0  0  0  0  0  0  0  0  0  0  0  0
    5.6206  -12.9910   25.8142 C   0  0  0  0  0  0  0  0  0  0  0  0
    6.3762  -11.9849   26.3796 C   0  0  0  0  0  0  0  0  0  0  0  0
    7.6328  -12.2933   26.8869 C   0  0  0  0  0  0  0  0  0  0  0  0
    8.0622  -13.6059   26.7962 C   0  0  0  0  0  0  0  0  0  0  0  0
    9.7884  -17.4492   25.9294 C   0  0  0  0  0  0  0  0  0  0  0  0
   10.1151  -17.6580   27.1164 O   0  0  0  0  0  0  0  0  0  0  0  0
   10.0175  -18.4151   24.9599 O   0  0  0  0  0  0  0  0  0  0  0  0
  2  1  1  6
  2  9  1  0
  2  3  1  0
  3  4  1  0
  4  8  1  0
  4  5  2  0
  5  6  1  0
  7  6  1  0
  8  7  2  0
  9 10  2  0
 12 11  1  1
 12 13  1  0
 12 14  1  0
 15 14  1  1
 16 15  1  0
 16  9  1  0
 17 15  1  0
 17 18  2  0
 19 17  1  0
 20 19  1  0
 20 28  1  0
 20 21  1  1
 22 21  1  0
 23 22  2  0
 24 23  1  0
 25 24  2  0
 25 26  1  0
 26 27  2  0
 27 22  1  0
 28 30  1  0
 29 28  2  0
M  END
$$$$
