HLF.pdb
     RDKit          3D

 30 31  0  0  1  0  0  0  0  0999 V2000
   11.2942  -19.6377   20.1625 N   0  0  0  0  0  0  0  0  0  0  0  0
   10.0903  -19.1840   20.7927 C   0  0  1  0  0  0  0  0  0  0  0  0
    9.8675  -19.8615   22.1394 C   0  0  0  0  0  0  0  0  0  0  0  0
    9.5693  -21.2850   21.8787 C   0  0  0  0  0  0  0  0  0  0  0  0
    9.4817  -21.8830   20.6526 C   0  0  0  0  0  0  0  0  0  0  0  0
    9.1926  -23.1897   20.8624 N   0  0  0  0  0  0  0  0  0  0  0  0
    9.1027  -23.3995   22.1838 C   0  0  0  0  0  0  0  0  0  0  0  0
    9.3372  -22.2157   22.8060 N   0  0  0  0  0  0  0  0  0  0  0  0
   10.1610  -17.7218   20.9710 C   0  0  0  0  0  0  0  0  0  0  0  0
   11.2593  -17.1411   20.8775 O   0  0  0  0  0  0  0  0  0  0  0  0
    6.5375  -12.7665   20.6374 C   0  0  0  0  0  0  0  0  0  0  0  0
    7.9275  -13.3733   20.9064 C   0  0  2  0  0  0  0  0  0  0  0  0
    8.8387  -12.7036   19.8949 C   0  0  0  0  0  0  0  0  0  0  0  0
    7.8433  -14.8634   20.7645 C   0  0  0  0  0  0  0  0  0  0  0  0
    9.0271  -15.5622   21.2955 C   0  0  2  0  0  0  0  0  0  0  0  0
    8.9955  -16.9864   21.2456 N   0  0  0  0  0  0  0  0  0  0  0  0
    9.3055  -15.1808   22.7363 C   0  0  0  0  0  0  0  0  0  0  0  0
    9.3864  -13.9837   23.0930 O   0  0  0  0  0  0  0  0  0  0  0  0
    9.4822  -16.1786   23.7263 N   0  0  0  0  0  0  0  0  0  0  0  0
    9.2114  -15.9809   25.1494 C   0  0  1  0  0  0  0  0  0  0  0  0
    7.7706  -15.6655   25.3445 C   0  0  0  0  0  0  0  0  0  0  0  0
    7.4427  -14.3272   25.8081 C   0  0  0  0  0  0  0  0  0  0  0  0
    6.1276  -13.8869   25.8301 C   0  0  0  0  0  0  0  0  0  0  0  0
    5.8477  -12.5918   26.2823 C   0  0  0  0  0  0  0  0  0  0  0  0
    6.8404  -11.7340   26.7083 C   0  0  0  0  0  0  0  0  0  0  0  0
    8.1596  -12.1709   26.6879 C   0  0  0  0  0  0  0  0  0  0  0  0
    8.4081  -13.4555   26.2366 C   0  0  0  0  0  0  0  0  0  0  0  0
    9.6076  -17.1720   25.9350 C   0  0  0  0  0  0  0  0  0  0  0  0
    9.4630  -17.2316   27.1739 O   0  0  0  0  0  0  0  0  0  0  0  0
   10.1560  -18.2417   25.2418 O   0  0  0  0  0  0  0  0  0  0  0  0
  2  1  1  1
  2  9  1  0
  2  3  1  0
  3  4  1  0
  4  8  1  0
  4  5  2  0
  5  6  1  0
  7  6  1  0
  8  7  2  0
  9 10  2  0
 12 11  1  6
 12 13  1  0
 12 14  1  0
 15 14  1  1
 16 15  1  0
 16  9  1  0
 17 15  1  0
 17 18  2  0
 19 17  1  0
 20 19  1  0
 20 28  1  0
 20 21  1  6
 22 21  1  0
 23 22  2  0
 24 23  1  0
 25 24  2  0
 25 26  1  0
 26 27  2  0
 27 22  1  0
 28 30  1  0
 29 28  2  0
M  END
$$$$
