HLF.pdb
     RDKit          3D

 30 31  0  0  1  0  0  0  0  0999 V2000
    7.6324  -18.0322   20.7195 N   0  0  0  0  0  0  0  0  0  0  0  0
    8.8667  -17.3779   20.4022 C   0  0  1  0  0  0  0  0  0  0  0  0
    8.8286  -16.7390   19.0193 C   0  0  0  0  0  0  0  0  0  0  0  0
    8.7903  -17.8308   18.0244 C   0  0  0  0  0  0  0  0  0  0  0  0
    9.2494  -19.1060   18.2030 C   0  0  0  0  0  0  0  0  0  0  0  0
    9.0233  -19.7798   17.0497 N   0  0  0  0  0  0  0  0  0  0  0  0
    8.4391  -18.9463   16.1767 C   0  0  0  0  0  0  0  0  0  0  0  0
    8.2981  -17.7420   16.7875 N   0  0  0  0  0  0  0  0  0  0  0  0
    9.1441  -16.3505   21.4233 C   0  0  0  0  0  0  0  0  0  0  0  0
   10.1518  -15.6264   21.3121 O   0  0  0  0  0  0  0  0  0  0  0  0
    6.6072  -13.6601   26.4127 C   0  0  0  0  0  0  0  0  0  0  0  0
    7.8210  -13.9017   25.4955 C   0  0  2  0  0  0  0  0  0  0  0  0
    8.1184  -12.5428   24.8899 C   0  0  0  0  0  0  0  0  0  0  0  0
    7.4688  -14.9575   24.4910 C   0  0  0  0  0  0  0  0  0  0  0  0
    8.5546  -15.2276   23.5320 C   0  0  2  0  0  0  0  0  0  0  0  0
    8.2766  -16.1889   22.5168 N   0  0  0  0  0  0  0  0  0  0  0  0
    9.8212  -15.6825   24.2304 C   0  0  0  0  0  0  0  0  0  0  0  0
   10.9434  -15.2282   23.9130 O   0  0  0  0  0  0  0  0  0  0  0  0
    9.7671  -16.6421   25.2712 N   0  0  0  0  0  0  0  0  0  0  0  0
   10.9442  -17.2173   25.9202 C   0  0  1  0  0  0  0  0  0  0  0  0
   11.7786  -16.1287   26.4967 C   0  0  0  0  0  0  0  0  0  0  0  0
   11.1584  -15.2808   27.5016 C   0  0  0  0  0  0  0  0  0  0  0  0
   10.7977  -13.9751   27.2030 C   0  0  0  0  0  0  0  0  0  0  0  0
   10.2030  -13.1863   28.1949 C   0  0  0  0  0  0  0  0  0  0  0  0
    9.9629  -13.6653   29.4660 C   0  0  0  0  0  0  0  0  0  0  0  0
   10.3228  -14.9729   29.7698 C   0  0  0  0  0  0  0  0  0  0  0  0
   10.9085  -15.7308   28.7707 C   0  0  0  0  0  0  0  0  0  0  0  0
   10.5514  -18.1957   26.9600 C   0  0  0  0  0  0  0  0  0  0  0  0
   11.3926  -18.8125   27.6466 O   0  0  0  0  0  0  0  0  0  0  0  0
    9.1947  -18.4130   27.1535 O   0  0  0  0  0  0  0  0  0  0  0  0
  2  1  1  1
  2  9  1  0
  2  3  1  0
  3  4  1  0
  4  8  1  0
  4  5  2  0
  5  6  1  0
  7  6  1  0
  8  7  2  0
  9 10  2  0
 12 11  1  1
 12 13  1  0
 12 14  1  0
 15 14  1  1
 16 15  1  0
 16  9  1  0
 17 15  1  0
 17 18  2  0
 19 17  1  0
 20 19  1  0
 20 28  1  0
 20 21  1  1
 22 21  1  0
 23 22  2  0
 24 23  1  0
 25 24  2  0
 25 26  1  0
 26 27  2  0
 27 22  1  0
 28 30  1  0
 29 28  2  0
M  END
$$$$
