HLF.pdb
     RDKit          3D

 30 31  0  0  1  0  0  0  0  0999 V2000
    9.2085  -19.1361   19.6133 N   0  0  0  0  0  0  0  0  0  0  0  0
    8.2861  -18.5004   20.5061 C   0  0  1  0  0  0  0  0  0  0  0  0
    7.9016  -19.4120   21.6651 C   0  0  0  0  0  0  0  0  0  0  0  0
    7.0740  -20.5062   21.1163 C   0  0  0  0  0  0  0  0  0  0  0  0
    6.7352  -20.6859   19.8042 C   0  0  0  0  0  0  0  0  0  0  0  0
    5.9718  -21.8029   19.7355 N   0  0  0  0  0  0  0  0  0  0  0  0
    5.8390  -22.3050   20.9718 C   0  0  0  0  0  0  0  0  0  0  0  0
    6.5242  -21.4969   21.8208 N   0  0  0  0  0  0  0  0  0  0  0  0
    8.8927  -17.2592   21.0225 C   0  0  0  0  0  0  0  0  0  0  0  0
   10.1282  -17.1078   20.9696 O   0  0  0  0  0  0  0  0  0  0  0  0
    8.9404  -13.2387   19.5864 C   0  0  0  0  0  0  0  0  0  0  0  0
    7.6107  -13.5899   20.2803 C   0  0  2  0  0  0  0  0  0  0  0  0
    6.6991  -12.4162   19.9750 C   0  0  0  0  0  0  0  0  0  0  0  0
    7.8667  -13.8043   21.7418 C   0  0  0  0  0  0  0  0  0  0  0  0
    8.6481  -15.0226   22.0189 C   0  0  2  0  0  0  0  0  0  0  0  0
    8.0816  -16.2521   21.5722 N   0  0  0  0  0  0  0  0  0  0  0  0
    8.9317  -15.1838   23.4996 C   0  0  0  0  0  0  0  0  0  0  0  0
    9.3712  -14.2362   24.1893 O   0  0  0  0  0  0  0  0  0  0  0  0
    8.7036  -16.4226   24.1480 N   0  0  0  0  0  0  0  0  0  0  0  0
    8.4578  -16.5663   25.5820 C   0  0  1  0  0  0  0  0  0  0  0  0
    7.1781  -15.8966   25.9389 C   0  0  0  0  0  0  0  0  0  0  0  0
    7.2328  -14.4716   26.2215 C   0  0  0  0  0  0  0  0  0  0  0  0
    8.3195  -13.9216   26.8852 C   0  0  0  0  0  0  0  0  0  0  0  0
    8.3392  -12.5455   27.1414 C   0  0  0  0  0  0  0  0  0  0  0  0
    7.3091  -11.7135   26.7548 C   0  0  0  0  0  0  0  0  0  0  0  0
    6.2181  -12.2602   26.0896 C   0  0  0  0  0  0  0  0  0  0  0  0
    6.2245  -13.6231   25.8489 C   0  0  0  0  0  0  0  0  0  0  0  0
    8.4411  -17.9934   25.9767 C   0  0  0  0  0  0  0  0  0  0  0  0
    8.5422  -18.9170   25.1424 O   0  0  0  0  0  0  0  0  0  0  0  0
    8.3063  -18.2816   27.3274 O   0  0  0  0  0  0  0  0  0  0  0  0
  2  1  1  6
  2  9  1  0
  2  3  1  0
  3  4  1  0
  4  8  1  0
  4  5  2  0
  5  6  1  0
  7  6  1  0
  8  7  2  0
  9 10  2  0
 12 11  1  6
 12 13  1  0
 12 14  1  0
 15 14  1  1
 16 15  1  0
 16  9  1  0
 17 15  1  0
 17 18  2  0
 19 17  1  0
 20 19  1  0
 20 28  1  0
 20 21  1  6
 22 21  1  0
 23 22  2  0
 24 23  1  0
 25 24  2  0
 25 26  1  0
 26 27  2  0
 27 22  1  0
 28 30  1  0
 29 28  2  0
M  END
$$$$
