IMY.pdb
     RDKit          3D

 29 29  0  0  1  0  0  0  0  0999 V2000
   27.7421  -17.6295  -17.9147 C   0  0  0  0  0  0  0  0  0  0  0  0
   28.2102  -18.8120  -17.1409 C   0  0  0  0  0  0  0  0  0  0  0  0
   27.2811  -19.3266  -16.0995 C   0  0  2  0  0  0  0  0  0  0  0  0
   26.8581  -18.2301  -15.1344 C   0  0  0  0  0  0  0  0  0  0  0  0
   27.7149  -20.5564  -15.3810 C   0  0  2  0  0  0  0  0  0  0  0  0
   28.0312  -21.5960  -16.3114 N   0  0  0  0  0  0  0  0  0  0  0  0
   26.7521  -21.0023  -14.3347 C   0  0  0  0  0  0  0  0  0  0  0  0
   25.7253  -21.6435  -14.7034 O   0  0  0  0  0  0  0  0  0  0  0  0
   25.2372  -21.0789   -6.5387 C   0  0  0  0  0  0  0  0  0  0  0  0
   26.4338  -20.6435   -7.8264 S   0  0  0  0  0  0  0  0  0  0  0  0
   25.7249  -21.0095   -9.4350 C   0  0  0  0  0  0  0  0  0  0  0  0
   26.6189  -20.6800  -10.5858 C   0  0  0  0  0  0  0  0  0  0  0  0
   26.0350  -21.0785  -11.9235 C   0  0  2  0  0  0  0  0  0  0  0  0
   26.9700  -20.7223  -12.9732 N   0  0  0  0  0  0  0  0  0  0  0  0
   24.7978  -20.2717  -12.1214 C   0  0  0  0  0  0  0  0  0  0  0  0
   24.8458  -19.0315  -12.0802 O   0  0  0  0  0  0  0  0  0  0  0  0
   22.9431  -21.4660  -18.8026 O   0  0  0  0  0  0  0  0  0  0  0  0
   22.8012  -20.9140  -17.5374 C   0  0  0  0  0  0  0  0  0  0  0  0
   21.6910  -21.1014  -16.7424 C   0  0  0  0  0  0  0  0  0  0  0  0
   21.5474  -20.5556  -15.4881 C   0  0  0  0  0  0  0  0  0  0  0  0
   22.5678  -19.7546  -14.9490 C   0  0  0  0  0  0  0  0  0  0  0  0
   22.4280  -19.1402  -13.6168 C   0  0  0  0  0  0  0  0  0  0  0  0
   22.3086  -20.1744  -12.5508 C   0  0  2  0  0  0  0  0  0  0  0  0
   23.5473  -20.9136  -12.3597 N   0  0  0  0  0  0  0  0  0  0  0  0
   21.1622  -21.1120  -12.7303 C   0  0  0  0  0  0  0  0  0  0  0  0
   21.2788  -22.4848  -12.7958 O   0  0  0  0  0  0  0  0  0  0  0  0
   23.6725  -19.5740  -15.7519 C   0  0  0  0  0  0  0  0  0  0  0  0
   23.8146  -20.1212  -17.0071 C   0  0  0  0  0  0  0  0  0  0  0  0
   19.9934  -20.6269  -12.8326 O   0  0  0  0  0  0  0  0  0  0  0  0
  2  1  1  0
  3  2  1  0
  3  4  1  1
  5  3  1  0
  5  6  1  6
  7  5  1  0
  7  8  2  0
  9 10  1  0
 10 11  1  0
 11 12  1  0
 13 12  1  1
 13 14  1  0
 14  7  1  0
 15 13  1  0
 16 15  2  0
 18 28  2  0
 18 17  1  0
 19 18  1  0
 20 21  1  0
 20 19  2  0
 21 27  2  0
 22 21  1  0
 23 22  1  6
 23 24  1  0
 24 15  1  0
 25 26  1  0
 25 23  1  0
 27 28  1  0
 29 25  2  0
M  END
$$$$
