IMY.pdb
     RDKit          3D

 29 29  0  0  1  0  0  0  0  0999 V2000
   25.6666  -15.4569  -20.9510 C   0  0  0  0  0  0  0  0  0  0  0  0
   25.3925  -14.3442  -21.9013 C   0  0  0  0  0  0  0  0  0  0  0  0
   25.3042  -12.9817  -21.3112 C   0  0  2  0  0  0  0  0  0  0  0  0
   24.3047  -12.9305  -20.1661 C   0  0  0  0  0  0  0  0  0  0  0  0
   25.1014  -11.8615  -22.2706 C   0  0  2  0  0  0  0  0  0  0  0  0
   26.0965  -11.8940  -23.2979 N   0  0  0  0  0  0  0  0  0  0  0  0
   25.0055  -10.5277  -21.6130 C   0  0  0  0  0  0  0  0  0  0  0  0
   26.0808   -9.9198  -21.3377 O   0  0  0  0  0  0  0  0  0  0  0  0
   23.1050   -5.0592  -23.8648 C   0  0  0  0  0  0  0  0  0  0  0  0
   22.0135   -5.2122  -22.4279 S   0  0  0  0  0  0  0  0  0  0  0  0
   22.7641   -6.3260  -21.2362 C   0  0  0  0  0  0  0  0  0  0  0  0
   22.9844   -7.7117  -21.7496 C   0  0  0  0  0  0  0  0  0  0  0  0
   23.6093   -8.6318  -20.7240 C   0  0  2  0  0  0  0  0  0  0  0  0
   23.7593   -9.9532  -21.3025 N   0  0  0  0  0  0  0  0  0  0  0  0
   22.6520   -8.7377  -19.5868 C   0  0  0  0  0  0  0  0  0  0  0  0
   21.6177   -9.4155  -19.7000 O   0  0  0  0  0  0  0  0  0  0  0  0
   18.9227   -8.5007  -11.6455 O   0  0  0  0  0  0  0  0  0  0  0  0
   19.8364   -8.4908  -12.6899 C   0  0  0  0  0  0  0  0  0  0  0  0
   20.6309   -7.4079  -12.9994 C   0  0  0  0  0  0  0  0  0  0  0  0
   21.5373   -7.3952  -14.0339 C   0  0  0  0  0  0  0  0  0  0  0  0
   21.6932   -8.5307  -14.8461 C   0  0  0  0  0  0  0  0  0  0  0  0
   22.6413   -8.5338  -15.9743 C   0  0  0  0  0  0  0  0  0  0  0  0
   21.9863   -8.0882  -17.2363 C   0  0  2  0  0  0  0  0  0  0  0  0
   22.9126   -8.0630  -18.3582 N   0  0  0  0  0  0  0  0  0  0  0  0
   21.2619   -6.7887  -17.1266 C   0  0  0  0  0  0  0  0  0  0  0  0
   21.8639   -5.5500  -17.2028 O   0  0  0  0  0  0  0  0  0  0  0  0
   20.8944   -9.6069  -14.5277 C   0  0  0  0  0  0  0  0  0  0  0  0
   19.9878   -9.6180  -13.4918 C   0  0  0  0  0  0  0  0  0  0  0  0
   20.0048   -6.8092  -16.9495 O   0  0  0  0  0  0  0  0  0  0  0  0
  2  1  1  0
  3  2  1  0
  3  4  1  1
  5  3  1  0
  5  6  1  6
  7  5  1  0
  7  8  2  0
  9 10  1  0
 10 11  1  0
 11 12  1  0
 13 12  1  6
 13 14  1  0
 14  7  1  0
 15 13  1  0
 16 15  2  0
 18 28  2  0
 18 17  1  0
 19 18  1  0
 20 21  1  0
 20 19  2  0
 21 27  2  0
 22 21  1  0
 23 22  1  1
 23 24  1  0
 24 15  1  0
 25 26  1  0
 25 23  1  0
 27 28  1  0
 29 25  2  0
M  END
$$$$
