IMY.pdb
     RDKit          3D

 29 29  0  0  1  0  0  0  0  0999 V2000
   19.9889  -11.7415  -23.6585 C   0  0  0  0  0  0  0  0  0  0  0  0
   21.0293  -12.4461  -22.8602 C   0  0  0  0  0  0  0  0  0  0  0  0
   21.2358  -11.9571  -21.4707 C   0  0  2  0  0  0  0  0  0  0  0  0
   21.5456  -10.4685  -21.4406 C   0  0  0  0  0  0  0  0  0  0  0  0
   22.1902  -12.7359  -20.6345 C   0  0  2  0  0  0  0  0  0  0  0  0
   21.8699  -14.1297  -20.6735 N   0  0  0  0  0  0  0  0  0  0  0  0
   22.3167  -12.2196  -19.2424 C   0  0  0  0  0  0  0  0  0  0  0  0
   21.4631  -12.5954  -18.3871 O   0  0  0  0  0  0  0  0  0  0  0  0
   28.0791  -10.4017  -16.3297 C   0  0  0  0  0  0  0  0  0  0  0  0
   26.8282  -10.8052  -15.0839 S   0  0  0  0  0  0  0  0  0  0  0  0
   25.2016  -10.4166  -15.7374 C   0  0  0  0  0  0  0  0  0  0  0  0
   24.9302  -10.9986  -17.0864 C   0  0  0  0  0  0  0  0  0  0  0  0
   23.5047  -10.7879  -17.5475 C   0  0  2  0  0  0  0  0  0  0  0  0
   23.3519  -11.3383  -18.8805 N   0  0  0  0  0  0  0  0  0  0  0  0
   23.2830   -9.3167  -17.6331 C   0  0  0  0  0  0  0  0  0  0  0  0
   23.9004   -8.6382  -18.4702 O   0  0  0  0  0  0  0  0  0  0  0  0
   16.0255   -9.2884  -16.8425 O   0  0  0  0  0  0  0  0  0  0  0  0
   17.2632   -8.7243  -17.1172 C   0  0  0  0  0  0  0  0  0  0  0  0
   18.1851   -9.2855  -17.9745 C   0  0  0  0  0  0  0  0  0  0  0  0
   19.4125   -8.7287  -18.2488 C   0  0  0  0  0  0  0  0  0  0  0  0
   19.7874   -7.5191  -17.6408 C   0  0  0  0  0  0  0  0  0  0  0  0
   21.1059   -6.9143  -17.9010 C   0  0  0  0  0  0  0  0  0  0  0  0
   22.0791   -7.2470  -16.8228 C   0  0  2  0  0  0  0  0  0  0  0  0
   22.3613   -8.6729  -16.7565 N   0  0  0  0  0  0  0  0  0  0  0  0
   21.7061   -6.7244  -15.4762 C   0  0  0  0  0  0  0  0  0  0  0  0
   21.4618   -5.3966  -15.1938 O   0  0  0  0  0  0  0  0  0  0  0  0
   18.8587   -6.9672  -16.7861 C   0  0  0  0  0  0  0  0  0  0  0  0
   17.6305   -7.5257  -16.5129 C   0  0  0  0  0  0  0  0  0  0  0  0
   21.6042   -7.5469  -14.5143 O   0  0  0  0  0  0  0  0  0  0  0  0
  2  1  1  0
  3  2  1  0
  3  4  1  6
  5  3  1  0
  5  6  1  1
  7  5  1  0
  7  8  2  0
  9 10  1  0
 10 11  1  0
 11 12  1  0
 13 12  1  6
 13 14  1  0
 14  7  1  0
 15 13  1  0
 16 15  2  0
 18 28  2  0
 18 17  1  0
 19 18  1  0
 20 21  1  0
 20 19  2  0
 21 27  2  0
 22 21  1  0
 23 22  1  6
 23 24  1  0
 24 15  1  0
 25 26  1  0
 25 23  1  0
 27 28  1  0
 29 25  2  0
M  END
$$$$
