IMY.pdb
     RDKit          3D

 29 29  0  0  1  0  0  0  0  0999 V2000
   30.2468  -20.8029  -18.1124 C   0  0  0  0  0  0  0  0  0  0  0  0
   29.2066  -20.0070  -17.4048 C   0  0  0  0  0  0  0  0  0  0  0  0
   28.4036  -20.7328  -16.3846 C   0  0  2  0  0  0  0  0  0  0  0  0
   27.9033  -22.0687  -16.9115 C   0  0  0  0  0  0  0  0  0  0  0  0
   27.3154  -19.9558  -15.7297 C   0  0  2  0  0  0  0  0  0  0  0  0
   27.8229  -18.7254  -15.2052 N   0  0  0  0  0  0  0  0  0  0  0  0
   26.5574  -20.7385  -14.7131 C   0  0  0  0  0  0  0  0  0  0  0  0
   25.8248  -21.6883  -15.1164 O   0  0  0  0  0  0  0  0  0  0  0  0
   26.1636  -19.1576   -7.8917 C   0  0  0  0  0  0  0  0  0  0  0  0
   26.2329  -20.9394   -8.2080 S   0  0  0  0  0  0  0  0  0  0  0  0
   25.5633  -21.2727   -9.8402 C   0  0  0  0  0  0  0  0  0  0  0  0
   26.4077  -20.7635  -10.9627 C   0  0  0  0  0  0  0  0  0  0  0  0
   25.8337  -21.0779  -12.3267 C   0  0  2  0  0  0  0  0  0  0  0  0
   26.6468  -20.4366  -13.3419 N   0  0  0  0  0  0  0  0  0  0  0  0
   24.4733  -20.4719  -12.3818 C   0  0  0  0  0  0  0  0  0  0  0  0
   24.3390  -19.2492  -12.5527 O   0  0  0  0  0  0  0  0  0  0  0  0
   16.9162  -19.1308  -16.2344 O   0  0  0  0  0  0  0  0  0  0  0  0
   18.1680  -19.4443  -15.7243 C   0  0  0  0  0  0  0  0  0  0  0  0
   18.9628  -18.5461  -15.0451 C   0  0  0  0  0  0  0  0  0  0  0  0
   20.2039  -18.8539  -14.5383 C   0  0  0  0  0  0  0  0  0  0  0  0
   20.7287  -20.1468  -14.7007 C   0  0  0  0  0  0  0  0  0  0  0  0
   22.0654  -20.4946  -14.1867 C   0  0  0  0  0  0  0  0  0  0  0  0
   22.0091  -20.8958  -12.7528 C   0  0  2  0  0  0  0  0  0  0  0  0
   23.3129  -21.2877  -12.2391 N   0  0  0  0  0  0  0  0  0  0  0  0
   20.9904  -21.9420  -12.4472 C   0  0  0  0  0  0  0  0  0  0  0  0
   19.6938  -21.6794  -12.0567 O   0  0  0  0  0  0  0  0  0  0  0  0
   19.9261  -21.0361  -15.3808 C   0  0  0  0  0  0  0  0  0  0  0  0
   18.6840  -20.7264  -15.8872 C   0  0  0  0  0  0  0  0  0  0  0  0
   21.3265  -23.1623  -12.5482 O   0  0  0  0  0  0  0  0  0  0  0  0
  2  1  1  0
  3  2  1  0
  3  4  1  6
  5  3  1  0
  5  6  1  1
  7  5  1  0
  7  8  2  0
  9 10  1  0
 10 11  1  0
 11 12  1  0
 13 12  1  1
 13 14  1  0
 14  7  1  0
 15 13  1  0
 16 15  2  0
 18 28  2  0
 18 17  1  0
 19 18  1  0
 20 21  1  0
 20 19  2  0
 21 27  2  0
 22 21  1  0
 23 22  1  6
 23 24  1  0
 24 15  1  0
 25 26  1  0
 25 23  1  0
 27 28  1  0
 29 25  2  0
M  END
$$$$
