IMY.pdb
     RDKit          3D

 29 29  0  0  1  0  0  0  0  0999 V2000
   27.5527  -17.0336  -16.5510 C   0  0  0  0  0  0  0  0  0  0  0  0
   28.0874  -18.2606  -15.8992 C   0  0  0  0  0  0  0  0  0  0  0  0
   27.1745  -18.9528  -14.9504 C   0  0  2  0  0  0  0  0  0  0  0  0
   26.5965  -17.9897  -13.9252 C   0  0  0  0  0  0  0  0  0  0  0  0
   27.7054  -20.1872  -14.3095 C   0  0  2  0  0  0  0  0  0  0  0  0
   28.2633  -21.0634  -15.2932 N   0  0  0  0  0  0  0  0  0  0  0  0
   26.7146  -20.8729  -13.4327 C   0  0  0  0  0  0  0  0  0  0  0  0
   25.8439  -21.6105  -13.9798 O   0  0  0  0  0  0  0  0  0  0  0  0
   26.2638  -20.4483   -6.2646 C   0  0  0  0  0  0  0  0  0  0  0  0
   27.3680  -19.9099   -7.5951 S   0  0  0  0  0  0  0  0  0  0  0  0
   26.4869  -19.9886   -9.1576 C   0  0  0  0  0  0  0  0  0  0  0  0
   26.3931  -21.3623   -9.7375 C   0  0  0  0  0  0  0  0  0  0  0  0
   25.8168  -21.3776  -11.1363 C   0  0  2  0  0  0  0  0  0  0  0  0
   26.7383  -20.7101  -12.0354 N   0  0  0  0  0  0  0  0  0  0  0  0
   24.5568  -20.5826  -11.1017 C   0  0  0  0  0  0  0  0  0  0  0  0
   24.5728  -19.4000  -10.7230 O   0  0  0  0  0  0  0  0  0  0  0  0
   22.8398  -20.5101  -18.0158 O   0  0  0  0  0  0  0  0  0  0  0  0
   22.6835  -20.1950  -16.6735 C   0  0  0  0  0  0  0  0  0  0  0  0
   21.4574  -20.0585  -16.0586 C   0  0  0  0  0  0  0  0  0  0  0  0
   21.2994  -19.7464  -14.7285 C   0  0  0  0  0  0  0  0  0  0  0  0
   22.4267  -19.5469  -13.9144 C   0  0  0  0  0  0  0  0  0  0  0  0
   22.2833  -19.1894  -12.4919 C   0  0  0  0  0  0  0  0  0  0  0  0
   22.0945  -20.3997  -11.6434 C   0  0  2  0  0  0  0  0  0  0  0  0
   23.3210  -21.1699  -11.5022 N   0  0  0  0  0  0  0  0  0  0  0  0
   20.9698  -21.2810  -12.0723 C   0  0  0  0  0  0  0  0  0  0  0  0
   19.6465  -20.8942  -12.1143 O   0  0  0  0  0  0  0  0  0  0  0  0
   23.6466  -19.6857  -14.5391 C   0  0  0  0  0  0  0  0  0  0  0  0
   23.8030  -19.9984  -15.8706 C   0  0  0  0  0  0  0  0  0  0  0  0
   21.2340  -22.4720  -12.4242 O   0  0  0  0  0  0  0  0  0  0  0  0
  2  1  1  0
  3  2  1  0
  3  4  1  1
  5  3  1  0
  5  6  1  6
  7  5  1  0
  7  8  2  0
  9 10  1  0
 10 11  1  0
 11 12  1  0
 13 12  1  1
 13 14  1  0
 14  7  1  0
 15 13  1  0
 16 15  2  0
 18 28  2  0
 18 17  1  0
 19 18  1  0
 20 21  1  0
 20 19  2  0
 21 27  2  0
 22 21  1  0
 23 22  1  6
 23 24  1  0
 24 15  1  0
 25 26  1  0
 25 23  1  0
 27 28  1  0
 29 25  2  0
M  END
$$$$
