IMY.pdb
     RDKit          3D

 29 29  0  0  1  0  0  0  0  0999 V2000
   30.0881  -18.3192  -16.7841 C   0  0  0  0  0  0  0  0  0  0  0  0
   28.7121  -18.0227  -16.2995 C   0  0  0  0  0  0  0  0  0  0  0  0
   28.0694  -19.0706  -15.4620 C   0  0  2  0  0  0  0  0  0  0  0  0
   28.2831  -20.4604  -16.0415 C   0  0  0  0  0  0  0  0  0  0  0  0
   26.6449  -18.8385  -15.0968 C   0  0  2  0  0  0  0  0  0  0  0  0
   26.4808  -17.5419  -14.5151 N   0  0  0  0  0  0  0  0  0  0  0  0
   26.0662  -19.9197  -14.2503 C   0  0  0  0  0  0  0  0  0  0  0  0
   26.0903  -21.1038  -14.6963 O   0  0  0  0  0  0  0  0  0  0  0  0
   26.6135  -18.9135   -8.1347 C   0  0  0  0  0  0  0  0  0  0  0  0
   26.5599  -20.6982   -8.4376 S   0  0  0  0  0  0  0  0  0  0  0  0
   26.2772  -20.9889  -10.1867 C   0  0  0  0  0  0  0  0  0  0  0  0
   25.0469  -20.3332  -10.7239 C   0  0  0  0  0  0  0  0  0  0  0  0
   24.8088  -20.6285  -12.1886 C   0  0  2  0  0  0  0  0  0  0  0  0
   25.5062  -19.6413  -12.9900 N   0  0  0  0  0  0  0  0  0  0  0  0
   23.3482  -20.4692  -12.4377 C   0  0  0  0  0  0  0  0  0  0  0  0
   22.7690  -19.4189  -12.1158 O   0  0  0  0  0  0  0  0  0  0  0  0
   22.2965  -16.4340  -17.2466 O   0  0  0  0  0  0  0  0  0  0  0  0
   21.9463  -17.6419  -16.6602 C   0  0  0  0  0  0  0  0  0  0  0  0
   20.7551  -17.8536  -15.9999 C   0  0  0  0  0  0  0  0  0  0  0  0
   20.4052  -19.0496  -15.4178 C   0  0  0  0  0  0  0  0  0  0  0  0
   21.2842  -20.1438  -15.4767 C   0  0  0  0  0  0  0  0  0  0  0  0
   20.9419  -21.4287  -14.8412 C   0  0  0  0  0  0  0  0  0  0  0  0
   21.1881  -21.3914  -13.3721 C   0  0  2  0  0  0  0  0  0  0  0  0
   22.6007  -21.5190  -13.0472 N   0  0  0  0  0  0  0  0  0  0  0  0
   20.3806  -22.3713  -12.5890 C   0  0  0  0  0  0  0  0  0  0  0  0
   19.1327  -22.1111  -12.0622 O   0  0  0  0  0  0  0  0  0  0  0  0
   22.4715  -19.9212  -16.1388 C   0  0  0  0  0  0  0  0  0  0  0  0
   22.8199  -18.7235  -16.7211 C   0  0  0  0  0  0  0  0  0  0  0  0
   20.8633  -23.5277  -12.3845 O   0  0  0  0  0  0  0  0  0  0  0  0
  2  1  1  0
  3  2  1  0
  3  4  1  6
  5  3  1  0
  5  6  1  1
  7  5  1  0
  7  8  2  0
  9 10  1  0
 10 11  1  0
 11 12  1  0
 13 12  1  1
 13 14  1  0
 14  7  1  0
 15 13  1  0
 16 15  2  0
 18 28  2  0
 18 17  1  0
 19 18  1  0
 20 21  1  0
 20 19  2  0
 21 27  2  0
 22 21  1  0
 23 22  1  6
 23 24  1  0
 24 15  1  0
 25 26  1  0
 25 23  1  0
 27 28  1  0
 29 25  2  0
M  END
$$$$
