IMY.pdb
     RDKit          3D

 29 29  0  0  1  0  0  0  0  0999 V2000
   29.1001  -17.5560  -21.5359 C   0  0  0  0  0  0  0  0  0  0  0  0
   28.9006  -18.8255  -20.7845 C   0  0  0  0  0  0  0  0  0  0  0  0
   28.8522  -18.7119  -19.3021 C   0  0  2  0  0  0  0  0  0  0  0  0
   30.2444  -18.7493  -18.6913 C   0  0  0  0  0  0  0  0  0  0  0  0
   27.9179  -19.6359  -18.6021 C   0  0  2  0  0  0  0  0  0  0  0  0
   26.6253  -19.6015  -19.2143 N   0  0  0  0  0  0  0  0  0  0  0  0
   27.8566  -19.4136  -17.1298 C   0  0  0  0  0  0  0  0  0  0  0  0
   28.9207  -19.5579  -16.4601 O   0  0  0  0  0  0  0  0  0  0  0  0
   24.3451  -14.8035  -15.1129 C   0  0  0  0  0  0  0  0  0  0  0  0
   26.1331  -14.6966  -14.8462 S   0  0  0  0  0  0  0  0  0  0  0  0
   26.8600  -16.3217  -15.0799 C   0  0  0  0  0  0  0  0  0  0  0  0
   25.9134  -17.4537  -14.8462 C   0  0  0  0  0  0  0  0  0  0  0  0
   26.5449  -18.8105  -15.0684 C   0  0  2  0  0  0  0  0  0  0  0  0
   26.6543  -19.0542  -16.4938 N   0  0  0  0  0  0  0  0  0  0  0  0
   25.6140  -19.8271  -14.5019 C   0  0  0  0  0  0  0  0  0  0  0  0
   24.6061  -20.1763  -15.1378 O   0  0  0  0  0  0  0  0  0  0  0  0
   27.4967  -19.0411   -7.1987 O   0  0  0  0  0  0  0  0  0  0  0  0
   27.0322  -19.8071   -8.2584 C   0  0  0  0  0  0  0  0  0  0  0  0
   25.7345  -20.2598   -8.3625 C   0  0  0  0  0  0  0  0  0  0  0  0
   25.2712  -21.0191   -9.4116 C   0  0  0  0  0  0  0  0  0  0  0  0
   26.1380  -21.3759  -10.4579 C   0  0  0  0  0  0  0  0  0  0  0  0
   25.6712  -22.2076  -11.5814 C   0  0  0  0  0  0  0  0  0  0  0  0
   24.9811  -21.3865  -12.6158 C   0  0  2  0  0  0  0  0  0  0  0  0
   25.8697  -20.4089  -13.2258 N   0  0  0  0  0  0  0  0  0  0  0  0
   23.7272  -20.7306  -12.1434 C   0  0  0  0  0  0  0  0  0  0  0  0
   23.5920  -19.3772  -11.9147 O   0  0  0  0  0  0  0  0  0  0  0  0
   27.4322  -20.9182  -10.3436 C   0  0  0  0  0  0  0  0  0  0  0  0
   27.8942  -20.1581   -9.2929 C   0  0  0  0  0  0  0  0  0  0  0  0
   22.7069  -21.4562  -11.9319 O   0  0  0  0  0  0  0  0  0  0  0  0
  2  1  1  0
  3  2  1  0
  3  4  1  1
  5  3  1  0
  5  6  1  6
  7  5  1  0
  7  8  2  0
  9 10  1  0
 10 11  1  0
 11 12  1  0
 13 12  1  6
 13 14  1  0
 14  7  1  0
 15 13  1  0
 16 15  2  0
 18 28  2  0
 18 17  1  0
 19 18  1  0
 20 21  1  0
 20 19  2  0
 21 27  2  0
 22 21  1  0
 23 22  1  1
 23 24  1  0
 24 15  1  0
 25 26  1  0
 25 23  1  0
 27 28  1  0
 29 25  2  0
M  END
$$$$
