RQE.pdb
     RDKit          3D

 30 29  0  0  1  0  0  0  0  0999 V2000
   17.3710  -17.7601   13.8097 N   0  0  0  0  0  0  0  0  0  0  0  0
   17.9292  -16.4510   13.7793 C   0  0  0  0  0  0  0  0  0  0  0  0
   18.5016  -16.0411   12.7042 N   0  0  0  0  0  0  0  0  0  0  0  0
   17.8526  -15.6082   14.9215 N   0  0  0  0  0  0  0  0  0  0  0  0
   17.0678  -16.0769   16.0587 C   0  0  0  0  0  0  0  0  0  0  0  0
   15.6152  -15.8074   15.8506 C   0  0  0  0  0  0  0  0  0  0  0  0
   15.0153  -15.1350   17.0371 C   0  0  0  0  0  0  0  0  0  0  0  0
   13.5140  -15.0967   16.9335 C   0  0  2  0  0  0  0  0  0  0  0  0
   13.1889  -14.0995   15.9373 N   0  0  0  0  0  0  0  0  0  0  0  0
   12.9168  -14.6211   18.2360 C   0  0  0  0  0  0  0  0  0  0  0  0
   13.5805  -13.8523   18.9602 O   0  0  0  0  0  0  0  0  0  0  0  0
   18.8697  -15.0960   12.5609 N   0  0  0  0  0  0  0  0  0  0  0  0
    7.0100  -14.3117   19.8697 C   0  0  0  0  0  0  0  0  0  0  0  0
    7.6236  -13.5125   18.8529 O   0  0  0  0  0  0  0  0  0  0  0  0
    6.9014  -12.9033   18.0584 C   0  0  0  0  0  0  0  0  0  0  0  0
    9.1361  -13.4632   18.8144 C   0  0  0  0  0  0  0  0  0  0  0  0
    9.6030  -14.4014   19.8534 C   0  0  2  0  0  0  0  0  0  0  0  0
   11.1045  -14.5668   19.9804 N   0  0  0  0  0  0  0  0  0  0  0  0
   11.6374  -15.0089   18.6725 C   0  0  0  0  0  0  0  0  0  0  0  0
   11.3542  -15.6074   21.0041 O   0  0  0  0  0  0  0  0  0  0  0  0
   11.5078  -16.7876   20.6463 N   0  0  0  0  0  0  0  0  0  0  0  0
   11.4312  -15.3250   22.4052 C   0  0  1  0  0  0  0  0  0  0  0  0
   12.1277  -16.2125   23.3331 C   0  0  0  0  0  0  0  0  0  0  0  0
   13.5775  -16.1136   23.0350 C   0  0  0  0  0  0  0  0  0  0  0  0
   14.5149  -17.0017   23.7416 C   0  0  0  0  0  0  0  0  0  0  0  0
   15.9413  -16.8442   23.4977 O   0  0  0  0  0  0  0  0  0  0  0  0
   16.7801  -16.2052   24.1652 C   0  0  0  0  0  0  0  0  0  0  0  0
   11.6904  -16.1302   24.7133 O   0  0  0  0  0  0  0  0  0  0  0  0
   11.0051  -15.1291   25.0815 O   0  0  0  0  0  0  0  0  0  0  0  0
   16.4392  -17.5079   22.3454 O   0  0  0  0  0  0  0  0  0  0  0  0
  1  2  1  0
  2  3  2  0
  4  5  1  0
  4  2  1  0
  6  5  1  0
  7  6  1  0
  8 10  1  0
  8  7  1  0
  8  9  1  6
 10 11  2  0
 13 15  1  0
 13 12  1  0
 14 13  2  0
 17 16  1  6
 16 15  1  0
 18 17  1  0
 18 10  1  0
 19 20  2  0
 19 17  1  0
 21 19  1  0
 22 27  1  0
 22 21  1  0
 22 23  1  1
 24 25  1  0
 24 23  1  0
 25 26  2  0
 27 30  1  0
 28 27  2  0
 29 25  1  0
M  END
$$$$
