RQE.pdb
     RDKit          3D

 30 29  0  0  1  0  0  0  0  0999 V2000
    7.8562  -13.7755   14.0133 N   0  0  0  0  0  0  0  0  0  0  0  0
    8.3863  -14.4274   15.1624 C   0  0  0  0  0  0  0  0  0  0  0  0
    8.1872  -15.6881   15.3124 N   0  0  0  0  0  0  0  0  0  0  0  0
    9.1273  -13.6945   16.1291 N   0  0  0  0  0  0  0  0  0  0  0  0
    8.4174  -13.2241   17.3138 C   0  0  0  0  0  0  0  0  0  0  0  0
    8.2360  -14.3291   18.2998 C   0  0  0  0  0  0  0  0  0  0  0  0
    7.4343  -13.8801   19.4726 C   0  0  0  0  0  0  0  0  0  0  0  0
    7.3862  -14.9472   20.5333 C   0  0  2  0  0  0  0  0  0  0  0  0
    5.9922  -15.2813   20.7275 N   0  0  0  0  0  0  0  0  0  0  0  0
    7.8883  -14.3958   21.8460 C   0  0  0  0  0  0  0  0  0  0  0  0
    7.7468  -13.1797   22.0845 O   0  0  0  0  0  0  0  0  0  0  0  0
    8.6628  -16.2777   16.0020 N   0  0  0  0  0  0  0  0  0  0  0  0
    6.8758  -12.2727   26.3177 C   0  0  0  0  0  0  0  0  0  0  0  0
    6.3527  -13.5963   26.1647 O   0  0  0  0  0  0  0  0  0  0  0  0
    5.3036  -13.8919   26.7441 C   0  0  0  0  0  0  0  0  0  0  0  0
    7.1265  -14.5618   25.2927 C   0  0  0  0  0  0  0  0  0  0  0  0
    8.3079  -13.8210   24.8098 C   0  0  1  0  0  0  0  0  0  0  0  0
    9.2740  -14.5968   23.9364 N   0  0  0  0  0  0  0  0  0  0  0  0
    8.5128  -15.1973   22.8184 C   0  0  0  0  0  0  0  0  0  0  0  0
    9.8713  -15.6647   24.7705 O   0  0  0  0  0  0  0  0  0  0  0  0
    9.2698  -16.7448   24.8975 N   0  0  0  0  0  0  0  0  0  0  0  0
   11.1237  -15.5207   25.4483 C   0  0  2  0  0  0  0  0  0  0  0  0
   11.8423  -16.6702   25.9924 C   0  0  0  0  0  0  0  0  0  0  0  0
   10.9810  -17.2752   27.0378 C   0  0  0  0  0  0  0  0  0  0  0  0
   10.6428  -16.4836   28.2318 C   0  0  0  0  0  0  0  0  0  0  0  0
   10.7141  -17.1257   29.5361 O   0  0  0  0  0  0  0  0  0  0  0  0
   11.0008  -18.3097   29.8071 C   0  0  0  0  0  0  0  0  0  0  0  0
   12.4592  -17.5368   25.0068 O   0  0  0  0  0  0  0  0  0  0  0  0
   12.2104  -17.3442   23.7786 O   0  0  0  0  0  0  0  0  0  0  0  0
   10.4166  -16.2891   30.6442 O   0  0  0  0  0  0  0  0  0  0  0  0
  1  2  1  0
  2  3  2  0
  4  5  1  0
  4  2  1  0
  6  5  1  0
  7  6  1  0
  8 10  1  0
  8  7  1  0
  8  9  1  1
 10 11  2  0
 13 15  1  0
 13 12  1  0
 14 13  2  0
 17 16  1  6
 16 15  1  0
 18 17  1  0
 18 10  1  0
 19 20  2  0
 19 17  1  0
 21 19  1  0
 22 27  1  0
 22 21  1  0
 22 23  1  1
 24 25  1  0
 24 23  1  0
 25 26  2  0
 27 30  1  0
 28 27  2  0
 29 25  1  0
M  END
$$$$
