RQE.pdb
     RDKit          3D

 30 29  0  0  1  0  0  0  0  0999 V2000
    8.2112  -14.9767   22.5080 N   0  0  0  0  0  0  0  0  0  0  0  0
    7.1987  -15.0458   21.5098 C   0  0  0  0  0  0  0  0  0  0  0  0
    6.4648  -16.0981   21.4366 N   0  0  0  0  0  0  0  0  0  0  0  0
    7.0007  -13.9648   20.6081 N   0  0  0  0  0  0  0  0  0  0  0  0
    7.9414  -12.8510   20.6677 C   0  0  0  0  0  0  0  0  0  0  0  0
    9.0535  -13.0404   19.6913 C   0  0  0  0  0  0  0  0  0  0  0  0
    8.5909  -13.7782   18.4824 C   0  0  0  0  0  0  0  0  0  0  0  0
    9.7107  -13.9429   17.4899 C   0  0  2  0  0  0  0  0  0  0  0  0
    9.1440  -14.5813   16.3221 N   0  0  0  0  0  0  0  0  0  0  0  0
   10.7541  -14.8865   18.0380 C   0  0  0  0  0  0  0  0  0  0  0  0
   11.0590  -15.9000   17.3779 O   0  0  0  0  0  0  0  0  0  0  0  0
    5.7594  -16.2708   20.7141 N   0  0  0  0  0  0  0  0  0  0  0  0
   15.9506  -15.9309   17.7346 C   0  0  0  0  0  0  0  0  0  0  0  0
   15.6274  -14.5606   17.9926 O   0  0  0  0  0  0  0  0  0  0  0  0
   16.4432  -13.6881   17.6809 C   0  0  0  0  0  0  0  0  0  0  0  0
   14.2912  -14.2628   18.6387 C   0  0  0  0  0  0  0  0  0  0  0  0
   13.6110  -15.5635   18.7909 C   0  0  1  0  0  0  0  0  0  0  0  0
   12.4450  -15.6003   19.7590 N   0  0  0  0  0  0  0  0  0  0  0  0
   11.4017  -14.6727   19.2680 C   0  0  0  0  0  0  0  0  0  0  0  0
   12.9443  -15.1453   21.0769 O   0  0  0  0  0  0  0  0  0  0  0  0
   13.9058  -14.3594   21.1243 N   0  0  0  0  0  0  0  0  0  0  0  0
   12.3709  -15.5658   22.3191 C   0  0  2  0  0  0  0  0  0  0  0  0
   13.1722  -16.2021   23.3616 C   0  0  0  0  0  0  0  0  0  0  0  0
   12.3724  -17.3246   23.9103 C   0  0  0  0  0  0  0  0  0  0  0  0
   12.1417  -17.3952   25.3623 C   0  0  0  0  0  0  0  0  0  0  0  0
   11.3278  -18.4826   25.8859 O   0  0  0  0  0  0  0  0  0  0  0  0
   10.7716  -19.4095   25.2624 C   0  0  0  0  0  0  0  0  0  0  0  0
   14.5614  -16.4361   23.0174 O   0  0  0  0  0  0  0  0  0  0  0  0
   15.4677  -15.9154   23.7351 O   0  0  0  0  0  0  0  0  0  0  0  0
   11.1456  -18.4837   27.2941 O   0  0  0  0  0  0  0  0  0  0  0  0
  1  2  1  0
  2  3  2  0
  4  5  1  0
  4  2  1  0
  6  5  1  0
  7  6  1  0
  8 10  1  0
  8  7  1  0
  8  9  1  6
 10 11  2  0
 13 15  1  0
 13 12  1  0
 14 13  2  0
 17 16  1  6
 16 15  1  0
 18 17  1  0
 18 10  1  0
 19 20  2  0
 19 17  1  0
 21 19  1  0
 22 27  1  0
 22 21  1  0
 22 23  1  6
 24 25  1  0
 24 23  1  0
 25 26  2  0
 27 30  1  0
 28 27  2  0
 29 25  1  0
M  END
$$$$
