RQE.pdb
     RDKit          3D

 30 29  0  0  1  0  0  0  0  0999 V2000
    9.4298  -16.7970   15.9788 N   0  0  0  0  0  0  0  0  0  0  0  0
    8.3520  -16.6155   15.0667 C   0  0  0  0  0  0  0  0  0  0  0  0
    8.4334  -17.1328   13.8932 N   0  0  0  0  0  0  0  0  0  0  0  0
    7.2010  -15.8742   15.4496 N   0  0  0  0  0  0  0  0  0  0  0  0
    7.3997  -14.7019   16.2952 C   0  0  0  0  0  0  0  0  0  0  0  0
    8.8118  -14.6208   16.7699 C   0  0  0  0  0  0  0  0  0  0  0  0
    9.0049  -13.4698   17.6960 C   0  0  0  0  0  0  0  0  0  0  0  0
    7.9564  -13.4648   18.7761 C   0  0  2  0  0  0  0  0  0  0  0  0
    7.2562  -12.2033   18.6734 N   0  0  0  0  0  0  0  0  0  0  0  0
    8.6130  -13.4884   20.1354 C   0  0  0  0  0  0  0  0  0  0  0  0
    9.2629  -12.4918   20.5102 O   0  0  0  0  0  0  0  0  0  0  0  0
    7.7251  -17.0343   13.1597 N   0  0  0  0  0  0  0  0  0  0  0  0
    7.4383  -17.3567   25.3209 C   0  0  0  0  0  0  0  0  0  0  0  0
    7.9063  -16.0216   25.5384 O   0  0  0  0  0  0  0  0  0  0  0  0
    7.3939  -15.3510   26.4394 C   0  0  0  0  0  0  0  0  0  0  0  0
    9.0121  -15.5089   24.6407 C   0  0  0  0  0  0  0  0  0  0  0  0
    8.3676  -15.1456   23.3638 C   0  0  1  0  0  0  0  0  0  0  0  0
    9.2863  -14.6345   22.2717 N   0  0  0  0  0  0  0  0  0  0  0  0
    8.5244  -14.5912   21.0037 C   0  0  0  0  0  0  0  0  0  0  0  0
   10.4116  -15.5896   22.1512 O   0  0  0  0  0  0  0  0  0  0  0  0
   10.1793  -16.7631   21.8145 N   0  0  0  0  0  0  0  0  0  0  0  0
   11.7739  -15.2305   22.4034 C   0  0  1  0  0  0  0  0  0  0  0  0
   12.8435  -16.2252   22.4160 C   0  0  0  0  0  0  0  0  0  0  0  0
   13.9956  -15.6445   21.6838 C   0  0  0  0  0  0  0  0  0  0  0  0
   13.8662  -15.3794   20.2418 C   0  0  0  0  0  0  0  0  0  0  0  0
   15.0173  -14.8502   19.5250 O   0  0  0  0  0  0  0  0  0  0  0  0
   15.1077  -14.5338   18.3212 C   0  0  0  0  0  0  0  0  0  0  0  0
   13.0788  -16.8640   23.6964 O   0  0  0  0  0  0  0  0  0  0  0  0
   12.5003  -16.4049   24.7270 O   0  0  0  0  0  0  0  0  0  0  0  0
   16.1911  -14.6725   20.3041 O   0  0  0  0  0  0  0  0  0  0  0  0
  1  2  1  0
  2  3  2  0
  4  5  1  0
  4  2  1  0
  6  5  1  0
  7  6  1  0
  8 10  1  0
  8  7  1  0
  8  9  1  1
 10 11  2  0
 13 15  1  0
 13 12  1  0
 14 13  2  0
 17 16  1  1
 16 15  1  0
 18 17  1  0
 18 10  1  0
 19 20  2  0
 19 17  1  0
 21 19  1  0
 22 27  1  0
 22 21  1  0
 22 23  1  1
 24 25  1  0
 24 23  1  0
 25 26  2  0
 27 30  1  0
 28 27  2  0
 29 25  1  0
M  END
$$$$
