RQE.pdb
     RDKit          3D

 30 29  0  0  1  0  0  0  0  0999 V2000
    8.2496  -12.1790   21.4194 N   0  0  0  0  0  0  0  0  0  0  0  0
    8.0860  -12.7260   20.1154 C   0  0  0  0  0  0  0  0  0  0  0  0
    7.9843  -11.9293   19.1123 N   0  0  0  0  0  0  0  0  0  0  0  0
    8.0382  -14.1340   19.9253 N   0  0  0  0  0  0  0  0  0  0  0  0
    6.8376  -14.8372   20.3646 C   0  0  0  0  0  0  0  0  0  0  0  0
    6.8590  -15.0570   21.8401 C   0  0  0  0  0  0  0  0  0  0  0  0
    8.0110  -15.9122   22.2420 C   0  0  0  0  0  0  0  0  0  0  0  0
    8.0356  -17.1914   21.4488 C   0  0  2  0  0  0  0  0  0  0  0  0
    7.1025  -18.0956   22.0844 N   0  0  0  0  0  0  0  0  0  0  0  0
    9.3983  -17.8342   21.5448 C   0  0  0  0  0  0  0  0  0  0  0  0
    9.5858  -18.7298   22.3926 O   0  0  0  0  0  0  0  0  0  0  0  0
    7.7960  -12.2221   18.1489 N   0  0  0  0  0  0  0  0  0  0  0  0
   13.6486  -20.4000   19.2571 C   0  0  0  0  0  0  0  0  0  0  0  0
   12.5392  -20.2157   18.3716 O   0  0  0  0  0  0  0  0  0  0  0  0
   12.2300  -21.1337   17.6064 C   0  0  0  0  0  0  0  0  0  0  0  0
   11.8060  -18.8926   18.4286 C   0  0  0  0  0  0  0  0  0  0  0  0
   12.4682  -18.1027   19.4847 C   0  0  2  0  0  0  0  0  0  0  0  0
   11.7993  -18.1095   20.8450 N   0  0  0  0  0  0  0  0  0  0  0  0
   10.4730  -17.4658   20.7159 C   0  0  0  0  0  0  0  0  0  0  0  0
   12.6528  -17.3248   21.7664 O   0  0  0  0  0  0  0  0  0  0  0  0
   12.6568  -16.0848   21.6836 N   0  0  0  0  0  0  0  0  0  0  0  0
   13.4857  -17.9244   22.7640 C   0  0  1  0  0  0  0  0  0  0  0  0
   14.2782  -17.1206   23.6913 C   0  0  0  0  0  0  0  0  0  0  0  0
   14.2917  -17.8323   24.9928 C   0  0  0  0  0  0  0  0  0  0  0  0
   13.0334  -17.9746   25.7430 C   0  0  0  0  0  0  0  0  0  0  0  0
   13.0764  -18.5785   27.0667 O   0  0  0  0  0  0  0  0  0  0  0  0
   12.9126  -19.7745   27.3832 C   0  0  0  0  0  0  0  0  0  0  0  0
   15.5281  -16.6141   23.1581 O   0  0  0  0  0  0  0  0  0  0  0  0
   15.9485  -17.0617   22.0489 O   0  0  0  0  0  0  0  0  0  0  0  0
   13.3401  -17.6830   28.1366 O   0  0  0  0  0  0  0  0  0  0  0  0
  1  2  1  0
  2  3  2  0
  4  5  1  0
  4  2  1  0
  6  5  1  0
  7  6  1  0
  8 10  1  0
  8  7  1  0
  8  9  1  1
 10 11  2  0
 13 15  1  0
 13 12  1  0
 14 13  2  0
 17 16  1  6
 16 15  1  0
 18 17  1  0
 18 10  1  0
 19 20  2  0
 19 17  1  0
 21 19  1  0
 22 27  1  0
 22 21  1  0
 22 23  1  1
 24 25  1  0
 24 23  1  0
 25 26  2  0
 27 30  1  0
 28 27  2  0
 29 25  1  0
M  END
$$$$
