RQE.pdb
     RDKit          3D

 30 29  0  0  1  0  0  0  0  0999 V2000
    8.7200  -15.5773   15.3089 N   0  0  0  0  0  0  0  0  0  0  0  0
    8.2130  -14.2689   15.0692 C   0  0  0  0  0  0  0  0  0  0  0  0
    8.5053  -13.6785   13.9659 N   0  0  0  0  0  0  0  0  0  0  0  0
    7.3930  -13.6255   16.0359 N   0  0  0  0  0  0  0  0  0  0  0  0
    7.0676  -14.3661   17.2501 C   0  0  0  0  0  0  0  0  0  0  0  0
    7.9353  -13.9360   18.3850 C   0  0  0  0  0  0  0  0  0  0  0  0
    7.5857  -14.6629   19.6377 C   0  0  0  0  0  0  0  0  0  0  0  0
    8.8253  -15.0859   20.3796 C   0  0  2  0  0  0  0  0  0  0  0  0
    8.6572  -16.4836   20.7122 N   0  0  0  0  0  0  0  0  0  0  0  0
    8.9277  -14.3370   21.6866 C   0  0  0  0  0  0  0  0  0  0  0  0
    8.6007  -13.1338   21.7210 O   0  0  0  0  0  0  0  0  0  0  0  0
    8.1603  -12.7552   13.6868 N   0  0  0  0  0  0  0  0  0  0  0  0
    5.6399  -14.3293   25.4382 C   0  0  0  0  0  0  0  0  0  0  0  0
    6.3752  -13.3612   26.1938 O   0  0  0  0  0  0  0  0  0  0  0  0
    5.8366  -12.8370   27.1731 C   0  0  0  0  0  0  0  0  0  0  0  0
    7.7826  -13.0366   25.7406 C   0  0  0  0  0  0  0  0  0  0  0  0
    7.9769  -13.7514   24.4643 C   0  0  1  0  0  0  0  0  0  0  0  0
    9.3923  -14.1978   24.1554 N   0  0  0  0  0  0  0  0  0  0  0  0
    9.3785  -14.9394   22.8748 C   0  0  0  0  0  0  0  0  0  0  0  0
    9.8275  -15.0932   25.2517 O   0  0  0  0  0  0  0  0  0  0  0  0
    9.7090  -14.7141   26.4294 N   0  0  0  0  0  0  0  0  0  0  0  0
   10.3844  -16.3924   25.0273 C   0  0  1  0  0  0  0  0  0  0  0  0
   11.1279  -17.1021   26.0653 C   0  0  0  0  0  0  0  0  0  0  0  0
   10.1337  -17.7324   26.9681 C   0  0  0  0  0  0  0  0  0  0  0  0
   10.6096  -18.5332   28.1078 C   0  0  0  0  0  0  0  0  0  0  0  0
    9.6251  -19.1439   28.9890 O   0  0  0  0  0  0  0  0  0  0  0  0
    8.3823  -19.1602   28.8764 C   0  0  0  0  0  0  0  0  0  0  0  0
   12.2452  -17.8963   25.5921 O   0  0  0  0  0  0  0  0  0  0  0  0
   13.0008  -18.4594   26.4403 O   0  0  0  0  0  0  0  0  0  0  0  0
   10.1548  -19.8081   30.1268 O   0  0  0  0  0  0  0  0  0  0  0  0
  1  2  1  0
  2  3  2  0
  4  5  1  0
  4  2  1  0
  6  5  1  0
  7  6  1  0
  8 10  1  0
  8  7  1  0
  8  9  1  1
 10 11  2  0
 13 15  1  0
 13 12  1  0
 14 13  2  0
 17 16  1  6
 16 15  1  0
 18 17  1  0
 18 10  1  0
 19 20  2  0
 19 17  1  0
 21 19  1  0
 22 27  1  0
 22 21  1  0
 22 23  1  1
 24 25  1  0
 24 23  1  0
 25 26  2  0
 27 30  1  0
 28 27  2  0
 29 25  1  0
M  END
$$$$
