RQE.pdb
     RDKit          3D

 30 29  0  0  1  0  0  0  0  0999 V2000
    4.0257  -22.7484   16.4453 N   0  0  0  0  0  0  0  0  0  0  0  0
    4.1001  -22.0406   15.2125 C   0  0  0  0  0  0  0  0  0  0  0  0
    3.1427  -22.1621   14.3640 N   0  0  0  0  0  0  0  0  0  0  0  0
    5.2168  -21.2092   14.9251 N   0  0  0  0  0  0  0  0  0  0  0  0
    6.4568  -21.4647   15.6502 C   0  0  0  0  0  0  0  0  0  0  0  0
    6.4047  -20.8737   17.0191 C   0  0  0  0  0  0  0  0  0  0  0  0
    7.6953  -20.2195   17.3744 C   0  0  0  0  0  0  0  0  0  0  0  0
    7.7605  -18.8204   16.8225 C   0  0  2  0  0  0  0  0  0  0  0  0
    8.4231  -18.9074   15.5396 N   0  0  0  0  0  0  0  0  0  0  0  0
    8.6301  -17.9561   17.7034 C   0  0  0  0  0  0  0  0  0  0  0  0
    9.8702  -18.0576   17.6148 O   0  0  0  0  0  0  0  0  0  0  0  0
    3.0760  -21.6500   13.4793 N   0  0  0  0  0  0  0  0  0  0  0  0
    6.6360  -12.9173   20.4057 C   0  0  0  0  0  0  0  0  0  0  0  0
    8.0282  -12.6707   20.6289 O   0  0  0  0  0  0  0  0  0  0  0  0
    8.3858  -11.5366   20.9603 C   0  0  0  0  0  0  0  0  0  0  0  0
    8.9861  -13.8280   20.4428 C   0  0  0  0  0  0  0  0  0  0  0  0
    8.2302  -14.8742   19.7275 C   0  0  2  0  0  0  0  0  0  0  0  0
    8.9822  -16.1553   19.4249 N   0  0  0  0  0  0  0  0  0  0  0  0
    8.1011  -17.0358   18.6259 C   0  0  0  0  0  0  0  0  0  0  0  0
    9.3019  -16.8017   20.7183 O   0  0  0  0  0  0  0  0  0  0  0  0
    8.4199  -17.4479   21.3092 N   0  0  0  0  0  0  0  0  0  0  0  0
   10.5911  -16.7239   21.3351 C   0  0  1  0  0  0  0  0  0  0  0  0
   10.8721  -17.3654   22.6171 C   0  0  0  0  0  0  0  0  0  0  0  0
   12.1577  -18.0920   22.4751 C   0  0  0  0  0  0  0  0  0  0  0  0
   12.3331  -19.0208   21.3467 C   0  0  0  0  0  0  0  0  0  0  0  0
   13.6052  -19.7143   21.2071 O   0  0  0  0  0  0  0  0  0  0  0  0
   13.9692  -20.7874   21.7301 C   0  0  0  0  0  0  0  0  0  0  0  0
   10.6661  -16.5304   23.7847 O   0  0  0  0  0  0  0  0  0  0  0  0
   10.6332  -15.2712   23.6407 O   0  0  0  0  0  0  0  0  0  0  0  0
   14.5549  -19.0811   20.3625 O   0  0  0  0  0  0  0  0  0  0  0  0
  1  2  1  0
  2  3  2  0
  4  5  1  0
  4  2  1  0
  6  5  1  0
  7  6  1  0
  8 10  1  0
  8  7  1  0
  8  9  1  6
 10 11  2  0
 13 15  1  0
 13 12  1  0
 14 13  2  0
 17 16  1  6
 16 15  1  0
 18 17  1  0
 18 10  1  0
 19 20  2  0
 19 17  1  0
 21 19  1  0
 22 27  1  0
 22 21  1  0
 22 23  1  1
 24 25  1  0
 24 23  1  0
 25 26  2  0
 27 30  1  0
 28 27  2  0
 29 25  1  0
M  END
$$$$
