KKH.pdb
     RDKit          3D

 29 29  0  0  1  0  0  0  0  0999 V2000
   14.4705  -23.8060   14.8587 N   0  0  0  0  0  0  0  0  0  0  0  0
   14.4324  -24.2201   16.2458 C   0  0  1  0  0  0  0  0  0  0  0  0
   15.3868  -25.3184   16.5607 C   0  0  0  0  0  0  0  0  0  0  0  0
   16.6830  -25.2845   15.8479 C   0  0  0  0  0  0  0  0  0  0  0  0
   17.8789  -25.7500   16.5933 C   0  0  0  0  0  0  0  0  0  0  0  0
   19.1518  -25.7248   15.8051 C   0  0  0  0  0  0  0  0  0  0  0  0
   20.2277  -26.3094   16.5959 N   0  0  0  0  0  0  0  0  0  0  0  0
   14.6490  -23.0398   17.1377 C   0  0  0  0  0  0  0  0  0  0  0  0
   15.6762  -22.3230   17.0043 O   0  0  0  0  0  0  0  0  0  0  0  0
   13.7647  -22.6364   18.1642 N   0  0  0  0  0  0  0  0  0  0  0  0
   13.9181  -21.4850   18.9684 C   0  0  1  0  0  0  0  0  0  0  0  0
   12.6636  -20.8865   19.5195 C   0  0  0  0  0  0  0  0  0  0  0  0
   11.8305  -20.2234   18.4430 C   0  0  0  0  0  0  0  0  0  0  0  0
   10.5379  -19.6711   19.0339 C   0  0  0  0  0  0  0  0  0  0  0  0
    9.7244  -18.9725   17.9463 C   0  0  0  0  0  0  0  0  0  0  0  0
    8.4290  -18.5911   18.4828 N   0  0  0  0  0  0  0  0  0  0  0  0
   14.8361  -21.8272   20.1199 C   0  0  0  0  0  0  0  0  0  0  0  0
   14.7040  -22.9388   20.6884 O   0  0  0  0  0  0  0  0  0  0  0  0
   15.8230  -20.9410   20.5647 N   0  0  0  0  0  0  0  0  0  0  0  0
   16.7245  -21.3352   21.6774 C   0  0  1  0  0  0  0  0  0  0  0  0
   18.1232  -21.3210   21.2122 C   0  0  0  0  0  0  0  0  0  0  0  0
   18.6162  -22.4358   20.4314 C   0  0  0  0  0  0  0  0  0  0  0  0
   18.1208  -23.6845   20.2079 C   0  0  0  0  0  0  0  0  0  0  0  0
   18.9447  -24.3362   19.3302 N   0  0  0  0  0  0  0  0  0  0  0  0
   19.9300  -23.4828   19.0264 C   0  0  0  0  0  0  0  0  0  0  0  0
   19.7490  -22.3473   19.6732 N   0  0  0  0  0  0  0  0  0  0  0  0
   16.4349  -20.3996   22.8146 C   0  0  0  0  0  0  0  0  0  0  0  0
   16.1889  -19.1645   22.5761 O   0  0  0  0  0  0  0  0  0  0  0  0
   16.4108  -20.7563   24.1303 O   0  0  0  0  0  0  0  0  0  0  0  0
  2  3  1  0
  2  1  1  6
  3  4  1  0
  4  5  1  0
  5  6  1  0
  6  7  1  0
  8  9  2  0
  8  2  1  0
 10  8  1  0
 11 10  1  0
 11 12  1  1
 13 14  1  0
 13 12  1  0
 15 16  1  0
 15 14  1  0
 17 11  1  0
 17 19  1  0
 18 17  2  0
 20 19  1  0
 20 27  1  0
 20 21  1  6
 22 26  1  0
 22 21  1  0
 23 22  2  0
 24 23  1  0
 24 25  1  0
 25 26  2  0
 27 28  2  0
 27 29  1  0
M  END
$$$$
