KKH.pdb
     RDKit          3D

 29 29  0  0  1  0  0  0  0  0999 V2000
   11.0982  -14.5012   18.0847 N   0  0  0  0  0  0  0  0  0  0  0  0
   11.7827  -15.3776   19.0122 C   0  0  1  0  0  0  0  0  0  0  0  0
   13.0764  -14.8263   19.5004 C   0  0  0  0  0  0  0  0  0  0  0  0
   14.2145  -14.8924   18.5571 C   0  0  0  0  0  0  0  0  0  0  0  0
   15.5369  -14.4417   19.0576 C   0  0  0  0  0  0  0  0  0  0  0  0
   16.5981  -14.3396   18.0061 C   0  0  0  0  0  0  0  0  0  0  0  0
   17.7893  -13.7194   18.5729 N   0  0  0  0  0  0  0  0  0  0  0  0
   10.8768  -15.7260   20.1496 C   0  0  0  0  0  0  0  0  0  0  0  0
   10.1042  -14.8575   20.6350 O   0  0  0  0  0  0  0  0  0  0  0  0
   10.8050  -17.0002   20.7574 N   0  0  0  0  0  0  0  0  0  0  0  0
    9.9170  -17.3612   21.7952 C   0  0  1  0  0  0  0  0  0  0  0  0
    9.5221  -18.8016   21.8619 C   0  0  0  0  0  0  0  0  0  0  0  0
    8.6831  -19.1041   23.0855 C   0  0  0  0  0  0  0  0  0  0  0  0
    8.2726  -20.5726   23.1006 C   0  0  0  0  0  0  0  0  0  0  0  0
    7.4558  -20.8726   24.3557 C   0  0  0  0  0  0  0  0  0  0  0  0
    7.0729  -22.2742   24.3586 N   0  0  0  0  0  0  0  0  0  0  0  0
   10.5428  -16.9704   23.1149 C   0  0  0  0  0  0  0  0  0  0  0  0
   11.7598  -17.2154   23.3026 O   0  0  0  0  0  0  0  0  0  0  0  0
    9.8036  -16.3466   24.1256 N   0  0  0  0  0  0  0  0  0  0  0  0
   10.4237  -16.1032   25.4532 C   0  0  1  0  0  0  0  0  0  0  0  0
    9.6644  -15.0650   26.1732 C   0  0  0  0  0  0  0  0  0  0  0  0
    9.9617  -14.8160   27.5678 C   0  0  0  0  0  0  0  0  0  0  0  0
   10.8878  -15.3470   28.4133 C   0  0  0  0  0  0  0  0  0  0  0  0
   10.7968  -14.7129   29.6231 N   0  0  0  0  0  0  0  0  0  0  0  0
    9.8213  -13.8041   29.5050 C   0  0  0  0  0  0  0  0  0  0  0  0
    9.3144  -13.8525   28.2879 N   0  0  0  0  0  0  0  0  0  0  0  0
   10.4798  -17.4317   26.1491 C   0  0  0  0  0  0  0  0  0  0  0  0
    9.4595  -18.2071   26.1243 O   0  0  0  0  0  0  0  0  0  0  0  0
   11.5582  -17.9075   26.8345 O   0  0  0  0  0  0  0  0  0  0  0  0
  2  3  1  0
  2  1  1  6
  3  4  1  0
  4  5  1  0
  5  6  1  0
  6  7  1  0
  8  9  2  0
  8  2  1  0
 10  8  1  0
 11 10  1  0
 11 12  1  1
 13 14  1  0
 13 12  1  0
 15 16  1  0
 15 14  1  0
 17 11  1  0
 17 19  1  0
 18 17  2  0
 20 19  1  0
 20 27  1  0
 20 21  1  1
 22 26  1  0
 22 21  1  0
 23 22  2  0
 24 23  1  0
 24 25  1  0
 25 26  2  0
 27 28  2  0
 27 29  1  0
M  END
$$$$
