KKH.pdb
     RDKit          3D

 29 29  0  0  1  0  0  0  0  0999 V2000
    8.8195  -16.3201   18.9443 N   0  0  0  0  0  0  0  0  0  0  0  0
    9.6433  -15.1314   19.0184 C   0  0  1  0  0  0  0  0  0  0  0  0
    9.3159  -14.1201   17.9763 C   0  0  0  0  0  0  0  0  0  0  0  0
    8.8298  -14.6468   16.6818 C   0  0  0  0  0  0  0  0  0  0  0  0
    7.6748  -15.5778   16.7194 C   0  0  0  0  0  0  0  0  0  0  0  0
    7.2095  -16.0463   15.3755 C   0  0  0  0  0  0  0  0  0  0  0  0
    6.0404  -16.9023   15.5344 N   0  0  0  0  0  0  0  0  0  0  0  0
    9.5677  -14.5419   20.3904 C   0  0  0  0  0  0  0  0  0  0  0  0
   10.3326  -13.5963   20.7183 O   0  0  0  0  0  0  0  0  0  0  0  0
    8.6743  -14.9687   21.3993 N   0  0  0  0  0  0  0  0  0  0  0  0
    8.5480  -14.3838   22.6791 C   0  0  1  0  0  0  0  0  0  0  0  0
    7.1596  -14.2602   23.2200 C   0  0  0  0  0  0  0  0  0  0  0  0
    7.1252  -13.4953   24.5262 C   0  0  0  0  0  0  0  0  0  0  0  0
    5.7054  -13.4503   25.0803 C   0  0  0  0  0  0  0  0  0  0  0  0
    5.6520  -12.5375   26.3036 C   0  0  0  0  0  0  0  0  0  0  0  0
    4.2955  -12.5064   26.8236 N   0  0  0  0  0  0  0  0  0  0  0  0
    9.3763  -15.1889   23.6546 C   0  0  0  0  0  0  0  0  0  0  0  0
    9.7414  -16.3447   23.3273 O   0  0  0  0  0  0  0  0  0  0  0  0
    9.7434  -14.6807   24.9052 N   0  0  0  0  0  0  0  0  0  0  0  0
   10.4143  -15.5626   25.8944 C   0  0  1  0  0  0  0  0  0  0  0  0
   10.6730  -14.8103   27.1354 C   0  0  0  0  0  0  0  0  0  0  0  0
   11.1395  -15.5231   28.3057 C   0  0  0  0  0  0  0  0  0  0  0  0
   11.5111  -16.8191   28.4982 C   0  0  0  0  0  0  0  0  0  0  0  0
   11.9412  -16.9684   29.7892 N   0  0  0  0  0  0  0  0  0  0  0  0
   11.8300  -15.7676   30.3697 C   0  0  0  0  0  0  0  0  0  0  0  0
   11.3547  -14.8964   29.5003 N   0  0  0  0  0  0  0  0  0  0  0  0
    9.5311  -16.7640   26.0647 C   0  0  0  0  0  0  0  0  0  0  0  0
    8.2666  -16.6550   25.8863 O   0  0  0  0  0  0  0  0  0  0  0  0
    9.9673  -18.0094   26.4076 O   0  0  0  0  0  0  0  0  0  0  0  0
  2  3  1  0
  2  1  1  1
  3  4  1  0
  4  5  1  0
  5  6  1  0
  6  7  1  0
  8  9  2  0
  8  2  1  0
 10  8  1  0
 11 10  1  0
 11 12  1  1
 13 14  1  0
 13 12  1  0
 15 16  1  0
 15 14  1  0
 17 11  1  0
 17 19  1  0
 18 17  2  0
 20 19  1  0
 20 27  1  0
 20 21  1  1
 22 26  1  0
 22 21  1  0
 23 22  2  0
 24 23  1  0
 24 25  1  0
 25 26  2  0
 27 28  2  0
 27 29  1  0
M  END
$$$$
