KKH.pdb
     RDKit          3D

 29 29  0  0  1  0  0  0  0  0999 V2000
    8.2354  -13.9481   16.4464 N   0  0  0  0  0  0  0  0  0  0  0  0
    8.3424  -15.3922   16.4384 C   0  0  1  0  0  0  0  0  0  0  0  0
    9.4457  -15.8979   15.5765 C   0  0  0  0  0  0  0  0  0  0  0  0
    9.3064  -15.6543   14.1236 C   0  0  0  0  0  0  0  0  0  0  0  0
   10.3465  -16.2321   13.2366 C   0  0  0  0  0  0  0  0  0  0  0  0
   10.1269  -15.9834   11.7765 C   0  0  0  0  0  0  0  0  0  0  0  0
   11.1879  -16.6216   11.0073 N   0  0  0  0  0  0  0  0  0  0  0  0
    8.4685  -15.9031   17.8379 C   0  0  0  0  0  0  0  0  0  0  0  0
    9.0747  -15.2249   18.7093 O   0  0  0  0  0  0  0  0  0  0  0  0
    7.9448  -17.1347   18.2931 N   0  0  0  0  0  0  0  0  0  0  0  0
    8.0612  -17.6352   19.6091 C   0  0  1  0  0  0  0  0  0  0  0  0
    7.2401  -18.8407   19.9375 C   0  0  0  0  0  0  0  0  0  0  0  0
    5.7613  -18.5956   19.7241 C   0  0  0  0  0  0  0  0  0  0  0  0
    4.9676  -19.8731   19.9749 C   0  0  0  0  0  0  0  0  0  0  0  0
    3.4896  -19.6365   19.6718 C   0  0  0  0  0  0  0  0  0  0  0  0
    2.7463  -20.8626   19.9077 N   0  0  0  0  0  0  0  0  0  0  0  0
    9.5156  -17.9559   19.8697 C   0  0  0  0  0  0  0  0  0  0  0  0
   10.1745  -18.5426   18.9764 O   0  0  0  0  0  0  0  0  0  0  0  0
   10.1411  -17.6172   21.0744 N   0  0  0  0  0  0  0  0  0  0  0  0
   11.5588  -17.1743   21.0730 C   0  0  1  0  0  0  0  0  0  0  0  0
   11.7276  -16.0518   20.1324 C   0  0  0  0  0  0  0  0  0  0  0  0
   13.0234  -15.4166   20.0204 C   0  0  0  0  0  0  0  0  0  0  0  0
   14.1900  -15.5951   20.7000 C   0  0  0  0  0  0  0  0  0  0  0  0
   15.1477  -14.7830   20.1549 N   0  0  0  0  0  0  0  0  0  0  0  0
   14.5599  -14.1203   19.1515 C   0  0  0  0  0  0  0  0  0  0  0  0
   13.2958  -14.4862   19.0581 N   0  0  0  0  0  0  0  0  0  0  0  0
   11.9083  -16.8539   22.4969 C   0  0  0  0  0  0  0  0  0  0  0  0
   13.0986  -16.4811   22.7920 O   0  0  0  0  0  0  0  0  0  0  0  0
   11.0424  -16.9282   23.5474 O   0  0  0  0  0  0  0  0  0  0  0  0
  2  3  1  0
  2  1  1  1
  3  4  1  0
  4  5  1  0
  5  6  1  0
  6  7  1  0
  8  9  2  0
  8  2  1  0
 10  8  1  0
 11 10  1  0
 11 12  1  6
 13 14  1  0
 13 12  1  0
 15 16  1  0
 15 14  1  0
 17 11  1  0
 17 19  1  0
 18 17  2  0
 20 19  1  0
 20 27  1  0
 20 21  1  6
 22 26  1  0
 22 21  1  0
 23 22  2  0
 24 23  1  0
 24 25  1  0
 25 26  2  0
 27 28  2  0
 27 29  1  0
M  END
$$$$
