KKH.pdb
     RDKit          3D

 29 29  0  0  1  0  0  0  0  0999 V2000
    7.2970  -19.7572   18.5166 N   0  0  0  0  0  0  0  0  0  0  0  0
    7.3923  -19.5506   19.9467 C   0  0  1  0  0  0  0  0  0  0  0  0
    7.6384  -20.8050   20.7096 C   0  0  0  0  0  0  0  0  0  0  0  0
    8.0903  -21.9731   19.9216 C   0  0  0  0  0  0  0  0  0  0  0  0
    8.3237  -23.2393   20.6595 C   0  0  0  0  0  0  0  0  0  0  0  0
    8.7355  -24.3937   19.7993 C   0  0  0  0  0  0  0  0  0  0  0  0
    9.0360  -25.5463   20.6396 N   0  0  0  0  0  0  0  0  0  0  0  0
    8.4330  -18.5196   20.2461 C   0  0  0  0  0  0  0  0  0  0  0  0
    9.6551  -18.7922   20.1077 O   0  0  0  0  0  0  0  0  0  0  0  0
    8.1575  -17.2062   20.6903 N   0  0  0  0  0  0  0  0  0  0  0  0
    9.1250  -16.2043   20.9268 C   0  0  1  0  0  0  0  0  0  0  0  0
    8.6640  -14.7887   20.7895 C   0  0  0  0  0  0  0  0  0  0  0  0
    8.3035  -14.4452   19.3596 C   0  0  0  0  0  0  0  0  0  0  0  0
    7.7096  -13.0430   19.2817 C   0  0  0  0  0  0  0  0  0  0  0  0
    7.2302  -12.7582   17.8599 C   0  0  0  0  0  0  0  0  0  0  0  0
    6.4784  -11.5149   17.8442 N   0  0  0  0  0  0  0  0  0  0  0  0
    9.6808  -16.3982   22.3195 C   0  0  0  0  0  0  0  0  0  0  0  0
    8.8806  -16.5838   23.2690 O   0  0  0  0  0  0  0  0  0  0  0  0
   11.0562  -16.3760   22.5742 N   0  0  0  0  0  0  0  0  0  0  0  0
   11.5708  -16.8136   23.8971 C   0  0  1  0  0  0  0  0  0  0  0  0
   11.0505  -18.1562   24.2130 C   0  0  0  0  0  0  0  0  0  0  0  0
   11.5316  -18.8365   25.3966 C   0  0  0  0  0  0  0  0  0  0  0  0
   12.3085  -18.4227   26.4358 C   0  0  0  0  0  0  0  0  0  0  0  0
   12.4152  -19.4434   27.3417 N   0  0  0  0  0  0  0  0  0  0  0  0
   11.7047  -20.4656   26.8501 C   0  0  0  0  0  0  0  0  0  0  0  0
   11.1723  -20.1205   25.6933 N   0  0  0  0  0  0  0  0  0  0  0  0
   13.0672  -16.7246   23.8247 C   0  0  0  0  0  0  0  0  0  0  0  0
   13.6333  -16.4033   22.7207 O   0  0  0  0  0  0  0  0  0  0  0  0
   13.9134  -16.9660   24.8662 O   0  0  0  0  0  0  0  0  0  0  0  0
  2  3  1  0
  2  1  1  6
  3  4  1  0
  4  5  1  0
  5  6  1  0
  6  7  1  0
  8  9  2  0
  8  2  1  0
 10  8  1  0
 11 10  1  0
 11 12  1  1
 13 14  1  0
 13 12  1  0
 15 16  1  0
 15 14  1  0
 17 11  1  0
 17 19  1  0
 18 17  2  0
 20 19  1  0
 20 27  1  0
 20 21  1  6
 22 26  1  0
 22 21  1  0
 23 22  2  0
 24 23  1  0
 24 25  1  0
 25 26  2  0
 27 28  2  0
 27 29  1  0
M  END
$$$$
