KKH.pdb
     RDKit          3D

 29 29  0  0  1  0  0  0  0  0999 V2000
    7.8085  -17.4291   17.6114 N   0  0  0  0  0  0  0  0  0  0  0  0
    7.6101  -18.6504   18.3636 C   0  0  1  0  0  0  0  0  0  0  0  0
    8.7741  -19.5765   18.3037 C   0  0  0  0  0  0  0  0  0  0  0  0
    9.5270  -19.6012   17.0301 C   0  0  0  0  0  0  0  0  0  0  0  0
   10.5515  -20.6626   16.8687 C   0  0  0  0  0  0  0  0  0  0  0  0
   11.2494  -20.6572   15.5440 C   0  0  0  0  0  0  0  0  0  0  0  0
   12.2710  -21.6968   15.5257 N   0  0  0  0  0  0  0  0  0  0  0  0
    7.2457  -18.3267   19.7771 C   0  0  0  0  0  0  0  0  0  0  0  0
    7.8479  -17.4080   20.3937 O   0  0  0  0  0  0  0  0  0  0  0  0
    6.2400  -18.9881   20.5184 N   0  0  0  0  0  0  0  0  0  0  0  0
    5.8740  -18.6857   21.8490 C   0  0  1  0  0  0  0  0  0  0  0  0
    4.5560  -19.2170   22.3136 C   0  0  0  0  0  0  0  0  0  0  0  0
    3.4529  -18.9556   21.3099 C   0  0  0  0  0  0  0  0  0  0  0  0
    2.3474  -19.9964   21.4497 C   0  0  0  0  0  0  0  0  0  0  0  0
    1.1944  -19.6622   20.5055 C   0  0  0  0  0  0  0  0  0  0  0  0
    1.5816  -19.9771   19.1408 N   0  0  0  0  0  0  0  0  0  0  0  0
    6.9553  -19.2041   22.7699 C   0  0  0  0  0  0  0  0  0  0  0  0
    7.8038  -20.0086   22.3128 O   0  0  0  0  0  0  0  0  0  0  0  0
    7.0328  -18.8116   24.1105 N   0  0  0  0  0  0  0  0  0  0  0  0
    8.3598  -18.6259   24.7516 C   0  0  1  0  0  0  0  0  0  0  0  0
    9.1430  -17.6334   23.9936 C   0  0  0  0  0  0  0  0  0  0  0  0
   10.1613  -18.0945   23.0740 C   0  0  0  0  0  0  0  0  0  0  0  0
   10.5817  -19.3427   22.7275 C   0  0  0  0  0  0  0  0  0  0  0  0
   11.5364  -19.2327   21.7526 N   0  0  0  0  0  0  0  0  0  0  0  0
   11.6882  -17.9247   21.5132 C   0  0  0  0  0  0  0  0  0  0  0  0
   10.8769  -17.2338   22.2911 N   0  0  0  0  0  0  0  0  0  0  0  0
    8.0958  -18.2535   26.1812 C   0  0  0  0  0  0  0  0  0  0  0  0
    9.0700  -18.1832   27.0112 O   0  0  0  0  0  0  0  0  0  0  0  0
    6.8659  -17.9743   26.6994 O   0  0  0  0  0  0  0  0  0  0  0  0
  2  3  1  0
  2  1  1  6
  3  4  1  0
  4  5  1  0
  5  6  1  0
  6  7  1  0
  8  9  2  0
  8  2  1  0
 10  8  1  0
 11 10  1  0
 11 12  1  1
 13 14  1  0
 13 12  1  0
 15 16  1  0
 15 14  1  0
 17 11  1  0
 17 19  1  0
 18 17  2  0
 20 19  1  0
 20 27  1  0
 20 21  1  6
 22 26  1  0
 22 21  1  0
 23 22  2  0
 24 23  1  0
 24 25  1  0
 25 26  2  0
 27 28  2  0
 27 29  1  0
M  END
$$$$
