KKH.pdb
     RDKit          3D

 29 29  0  0  1  0  0  0  0  0999 V2000
    8.9723  -15.3829   19.5093 N   0  0  0  0  0  0  0  0  0  0  0  0
    8.5893  -14.4028   20.5041 C   0  0  1  0  0  0  0  0  0  0  0  0
    7.6039  -13.4062   20.0025 C   0  0  0  0  0  0  0  0  0  0  0  0
    7.0222  -13.6740   18.6685 C   0  0  0  0  0  0  0  0  0  0  0  0
    7.8839  -13.4138   17.4887 C   0  0  0  0  0  0  0  0  0  0  0  0
    7.2366  -13.7031   16.1698 C   0  0  0  0  0  0  0  0  0  0  0  0
    8.2044  -13.5080   15.0974 N   0  0  0  0  0  0  0  0  0  0  0  0
    8.0882  -15.0912   21.7332 C   0  0  0  0  0  0  0  0  0  0  0  0
    7.5842  -14.4228   22.6745 O   0  0  0  0  0  0  0  0  0  0  0  0
    8.1303  -16.4883   21.9445 N   0  0  0  0  0  0  0  0  0  0  0  0
    7.8815  -17.1360   23.1752 C   0  0  1  0  0  0  0  0  0  0  0  0
    7.6360  -18.6095   23.1137 C   0  0  0  0  0  0  0  0  0  0  0  0
    6.5023  -18.9573   22.1722 C   0  0  0  0  0  0  0  0  0  0  0  0
    6.3250  -20.4694   22.0870 C   0  0  0  0  0  0  0  0  0  0  0  0
    5.2210  -20.8092   21.0879 C   0  0  0  0  0  0  0  0  0  0  0  0
    5.1042  -22.2528   20.9705 N   0  0  0  0  0  0  0  0  0  0  0  0
    9.0547  -16.8799   24.0939 C   0  0  0  0  0  0  0  0  0  0  0  0
    9.9923  -16.1505   23.6877 O   0  0  0  0  0  0  0  0  0  0  0  0
    9.1205  -17.4324   25.3774 N   0  0  0  0  0  0  0  0  0  0  0  0
    8.9817  -16.5558   26.5684 C   0  0  1  0  0  0  0  0  0  0  0  0
    7.7163  -15.8039   26.4869 C   0  0  0  0  0  0  0  0  0  0  0  0
    7.6938  -14.4176   26.9028 C   0  0  0  0  0  0  0  0  0  0  0  0
    8.6637  -13.5932   27.3869 C   0  0  0  0  0  0  0  0  0  0  0  0
    8.1339  -12.3434   27.5635 N   0  0  0  0  0  0  0  0  0  0  0  0
    6.8518  -12.4158   27.1860 C   0  0  0  0  0  0  0  0  0  0  0  0
    6.5742  -13.6432   26.7899 N   0  0  0  0  0  0  0  0  0  0  0  0
    9.1033  -17.4454   27.7709 C   0  0  0  0  0  0  0  0  0  0  0  0
    9.4822  -16.9526   28.8918 O   0  0  0  0  0  0  0  0  0  0  0  0
    8.8396  -18.7831   27.7805 O   0  0  0  0  0  0  0  0  0  0  0  0
  2  3  1  0
  2  1  1  6
  3  4  1  0
  4  5  1  0
  5  6  1  0
  6  7  1  0
  8  9  2  0
  8  2  1  0
 10  8  1  0
 11 10  1  0
 11 12  1  6
 13 14  1  0
 13 12  1  0
 15 16  1  0
 15 14  1  0
 17 11  1  0
 17 19  1  0
 18 17  2  0
 20 19  1  0
 20 27  1  0
 20 21  1  6
 22 26  1  0
 22 21  1  0
 23 22  2  0
 24 23  1  0
 24 25  1  0
 25 26  2  0
 27 28  2  0
 27 29  1  0
M  END
$$$$
