KKH.pdb
     RDKit          3D

 29 29  0  0  1  0  0  0  0  0999 V2000
   10.0957  -15.4146   18.9498 N   0  0  0  0  0  0  0  0  0  0  0  0
    9.3370  -14.4435   19.7102 C   0  0  1  0  0  0  0  0  0  0  0  0
    8.2396  -13.8091   18.9297 C   0  0  0  0  0  0  0  0  0  0  0  0
    8.0912  -14.2545   17.5265 C   0  0  0  0  0  0  0  0  0  0  0  0
    7.5237  -13.2797   16.5622 C   0  0  0  0  0  0  0  0  0  0  0  0
    7.3327  -13.8145   15.1767 C   0  0  0  0  0  0  0  0  0  0  0  0
    6.8345  -12.7550   14.3084 N   0  0  0  0  0  0  0  0  0  0  0  0
    8.8195  -15.0688   20.9659 C   0  0  0  0  0  0  0  0  0  0  0  0
    8.2379  -14.3644   21.8332 O   0  0  0  0  0  0  0  0  0  0  0  0
    8.9282  -16.4422   21.2825 N   0  0  0  0  0  0  0  0  0  0  0  0
    8.7158  -17.0049   22.5609 C   0  0  1  0  0  0  0  0  0  0  0  0
    8.9118  -18.4824   22.6784 C   0  0  0  0  0  0  0  0  0  0  0  0
    8.1365  -19.2435   21.6238 C   0  0  0  0  0  0  0  0  0  0  0  0
    8.4874  -20.7267   21.6710 C   0  0  0  0  0  0  0  0  0  0  0  0
    7.7239  -21.4778   20.5822 C   0  0  0  0  0  0  0  0  0  0  0  0
    8.0179  -22.8975   20.6787 N   0  0  0  0  0  0  0  0  0  0  0  0
    9.6360  -16.3161   23.5432 C   0  0  0  0  0  0  0  0  0  0  0  0
   10.3221  -15.3420   23.1475 O   0  0  0  0  0  0  0  0  0  0  0  0
    9.7408  -16.7352   24.8738 N   0  0  0  0  0  0  0  0  0  0  0  0
    9.3211  -15.8262   25.9711 C   0  0  1  0  0  0  0  0  0  0  0  0
    7.9318  -15.3868   25.7479 C   0  0  0  0  0  0  0  0  0  0  0  0
    7.5526  -14.0391   26.1157 C   0  0  0  0  0  0  0  0  0  0  0  0
    8.2617  -13.0018   26.6410 C   0  0  0  0  0  0  0  0  0  0  0  0
    7.4415  -11.9101   26.7382 N   0  0  0  0  0  0  0  0  0  0  0  0
    6.2453  -12.2890   26.2724 C   0  0  0  0  0  0  0  0  0  0  0  0
    6.2948  -13.5531   25.8976 N   0  0  0  0  0  0  0  0  0  0  0  0
    9.5415  -16.5737   27.2537 C   0  0  0  0  0  0  0  0  0  0  0  0
    9.0689  -17.7573   27.3901 O   0  0  0  0  0  0  0  0  0  0  0  0
   10.2232  -16.0894   28.3306 O   0  0  0  0  0  0  0  0  0  0  0  0
  2  3  1  0
  2  1  1  6
  3  4  1  0
  4  5  1  0
  5  6  1  0
  6  7  1  0
  8  9  2  0
  8  2  1  0
 10  8  1  0
 11 10  1  0
 11 12  1  6
 13 14  1  0
 13 12  1  0
 15 16  1  0
 15 14  1  0
 17 11  1  0
 17 19  1  0
 18 17  2  0
 20 19  1  0
 20 27  1  0
 20 21  1  6
 22 26  1  0
 22 21  1  0
 23 22  2  0
 24 23  1  0
 24 25  1  0
 25 26  2  0
 27 28  2  0
 27 29  1  0
M  END
$$$$
