KKH.pdb
     RDKit          3D

 29 29  0  0  1  0  0  0  0  0999 V2000
    9.8190  -15.9375   19.2768 N   0  0  0  0  0  0  0  0  0  0  0  0
    8.6410  -16.1721   20.0857 C   0  0  1  0  0  0  0  0  0  0  0  0
    8.2211  -17.5999   20.1174 C   0  0  0  0  0  0  0  0  0  0  0  0
    9.2996  -18.5962   20.3016 C   0  0  0  0  0  0  0  0  0  0  0  0
    8.8992  -20.0234   20.3719 C   0  0  0  0  0  0  0  0  0  0  0  0
   10.0422  -20.9862   20.4658 C   0  0  0  0  0  0  0  0  0  0  0  0
    9.5280  -22.3449   20.5843 N   0  0  0  0  0  0  0  0  0  0  0  0
    8.8540  -15.6377   21.4658 C   0  0  0  0  0  0  0  0  0  0  0  0
   10.0123  -15.5973   21.9594 O   0  0  0  0  0  0  0  0  0  0  0  0
    7.8263  -15.1510   22.3056 N   0  0  0  0  0  0  0  0  0  0  0  0
    8.0177  -14.5810   23.5841 C   0  0  1  0  0  0  0  0  0  0  0  0
    6.9500  -13.6510   24.0643 C   0  0  0  0  0  0  0  0  0  0  0  0
    7.3152  -12.9993   25.3813 C   0  0  0  0  0  0  0  0  0  0  0  0
    6.1882  -12.0884   25.8559 C   0  0  0  0  0  0  0  0  0  0  0  0
    6.5866  -11.4031   27.1613 C   0  0  0  0  0  0  0  0  0  0  0  0
    5.5507  -10.4598   27.5467 N   0  0  0  0  0  0  0  0  0  0  0  0
    8.1689  -15.7018   24.5875 C   0  0  0  0  0  0  0  0  0  0  0  0
    7.4049  -16.6945   24.5043 O   0  0  0  0  0  0  0  0  0  0  0  0
    9.1334  -15.6599   25.5999 N   0  0  0  0  0  0  0  0  0  0  0  0
    9.8497  -16.9009   25.9914 C   0  0  1  0  0  0  0  0  0  0  0  0
   10.4211  -17.5433   24.7939 C   0  0  0  0  0  0  0  0  0  0  0  0
   11.2180  -18.7414   24.9509 C   0  0  0  0  0  0  0  0  0  0  0  0
   11.5194  -19.5019   26.0397 C   0  0  0  0  0  0  0  0  0  0  0  0
   12.2615  -20.5786   25.6350 N   0  0  0  0  0  0  0  0  0  0  0  0
   12.4045  -20.4666   24.3090 C   0  0  0  0  0  0  0  0  0  0  0  0
   11.7892  -19.3788   23.8863 N   0  0  0  0  0  0  0  0  0  0  0  0
   10.8589  -16.5034   27.0286 C   0  0  0  0  0  0  0  0  0  0  0  0
   10.8931  -17.1187   28.1524 O   0  0  0  0  0  0  0  0  0  0  0  0
   11.7775  -15.5068   26.8803 O   0  0  0  0  0  0  0  0  0  0  0  0
  2  3  1  0
  2  1  1  6
  3  4  1  0
  4  5  1  0
  5  6  1  0
  6  7  1  0
  8  9  2  0
  8  2  1  0
 10  8  1  0
 11 10  1  0
 11 12  1  1
 13 14  1  0
 13 12  1  0
 15 16  1  0
 15 14  1  0
 17 11  1  0
 17 19  1  0
 18 17  2  0
 20 19  1  0
 20 27  1  0
 20 21  1  6
 22 26  1  0
 22 21  1  0
 23 22  2  0
 24 23  1  0
 24 25  1  0
 25 26  2  0
 27 28  2  0
 27 29  1  0
M  END
$$$$
