KKH.pdb
     RDKit          3D

 29 29  0  0  1  0  0  0  0  0999 V2000
   10.2615  -16.3989   19.1930 N   0  0  0  0  0  0  0  0  0  0  0  0
    9.0910  -16.5588   20.0304 C   0  0  1  0  0  0  0  0  0  0  0  0
    8.6291  -17.9699   20.1366 C   0  0  0  0  0  0  0  0  0  0  0  0
    9.6834  -19.0080   20.1141 C   0  0  0  0  0  0  0  0  0  0  0  0
    9.2412  -20.4242   20.1477 C   0  0  0  0  0  0  0  0  0  0  0  0
   10.3561  -21.4234   20.1743 C   0  0  0  0  0  0  0  0  0  0  0  0
    9.8064  -22.7646   20.3282 N   0  0  0  0  0  0  0  0  0  0  0  0
    9.3434  -15.9668   21.3800 C   0  0  0  0  0  0  0  0  0  0  0  0
   10.5120  -15.9305   21.8491 O   0  0  0  0  0  0  0  0  0  0  0  0
    8.3438  -15.4184   22.2158 N   0  0  0  0  0  0  0  0  0  0  0  0
    8.5644  -14.8608   23.4950 C   0  0  1  0  0  0  0  0  0  0  0  0
    7.4036  -14.1590   24.1239 C   0  0  0  0  0  0  0  0  0  0  0  0
    7.7663  -13.5477   25.4608 C   0  0  0  0  0  0  0  0  0  0  0  0
    6.5645  -12.8258   26.0604 C   0  0  0  0  0  0  0  0  0  0  0  0
    6.9646  -12.1444   27.3674 C   0  0  0  0  0  0  0  0  0  0  0  0
    5.8058  -11.4802   27.9396 N   0  0  0  0  0  0  0  0  0  0  0  0
    9.0223  -15.9633   24.4226 C   0  0  0  0  0  0  0  0  0  0  0  0
    8.3145  -16.9945   24.5313 O   0  0  0  0  0  0  0  0  0  0  0  0
   10.2081  -15.8631   25.1583 N   0  0  0  0  0  0  0  0  0  0  0  0
   10.5899  -16.9483   26.0979 C   0  0  1  0  0  0  0  0  0  0  0  0
   11.9823  -17.3593   25.8424 C   0  0  0  0  0  0  0  0  0  0  0  0
   12.2689  -18.2013   24.7003 C   0  0  0  0  0  0  0  0  0  0  0  0
   11.4693  -18.7375   23.7371 C   0  0  0  0  0  0  0  0  0  0  0  0
   12.2517  -19.4080   22.8359 N   0  0  0  0  0  0  0  0  0  0  0  0
   13.5159  -19.2744   23.2547 C   0  0  0  0  0  0  0  0  0  0  0  0
   13.5433  -18.5588   24.3627 N   0  0  0  0  0  0  0  0  0  0  0  0
   10.3370  -16.4248   27.4815 C   0  0  0  0  0  0  0  0  0  0  0  0
   10.0843  -15.1803   27.6551 O   0  0  0  0  0  0  0  0  0  0  0  0
   10.3544  -17.1809   28.6159 O   0  0  0  0  0  0  0  0  0  0  0  0
  2  3  1  0
  2  1  1  6
  3  4  1  0
  4  5  1  0
  5  6  1  0
  6  7  1  0
  8  9  2  0
  8  2  1  0
 10  8  1  0
 11 10  1  0
 11 12  1  1
 13 14  1  0
 13 12  1  0
 15 16  1  0
 15 14  1  0
 17 11  1  0
 17 19  1  0
 18 17  2  0
 20 19  1  0
 20 27  1  0
 20 21  1  1
 22 26  1  0
 22 21  1  0
 23 22  2  0
 24 23  1  0
 24 25  1  0
 25 26  2  0
 27 28  2  0
 27 29  1  0
M  END
$$$$
