KKH.pdb
     RDKit          3D

 29 29  0  0  1  0  0  0  0  0999 V2000
    9.2209  -15.8448   18.6389 N   0  0  0  0  0  0  0  0  0  0  0  0
    8.7268  -14.7332   19.4245 C   0  0  1  0  0  0  0  0  0  0  0  0
    7.7857  -13.8543   18.6775 C   0  0  0  0  0  0  0  0  0  0  0  0
    7.5497  -14.2027   17.2589 C   0  0  0  0  0  0  0  0  0  0  0  0
    8.1496  -13.3133   16.2336 C   0  0  0  0  0  0  0  0  0  0  0  0
    7.8330  -13.6916   14.8199 C   0  0  0  0  0  0  0  0  0  0  0  0
    8.4202  -12.7160   13.9098 N   0  0  0  0  0  0  0  0  0  0  0  0
    8.1113  -15.2361   20.6910 C   0  0  0  0  0  0  0  0  0  0  0  0
    7.5729  -14.4326   21.4980 O   0  0  0  0  0  0  0  0  0  0  0  0
    8.0768  -16.5938   21.0828 N   0  0  0  0  0  0  0  0  0  0  0  0
    7.5532  -17.0789   22.3020 C   0  0  1  0  0  0  0  0  0  0  0  0
    7.2036  -18.5320   22.3446 C   0  0  0  0  0  0  0  0  0  0  0  0
    5.9388  -18.8345   21.5692 C   0  0  0  0  0  0  0  0  0  0  0  0
    5.6620  -20.3340   21.5649 C   0  0  0  0  0  0  0  0  0  0  0  0
    4.4301  -20.6341   20.7136 C   0  0  0  0  0  0  0  0  0  0  0  0
    4.2490  -22.0726   20.6172 N   0  0  0  0  0  0  0  0  0  0  0  0
    8.5538  -16.7907   23.3982 C   0  0  0  0  0  0  0  0  0  0  0  0
    9.7722  -16.9931   23.1728 O   0  0  0  0  0  0  0  0  0  0  0  0
    8.1576  -16.3070   24.6497 N   0  0  0  0  0  0  0  0  0  0  0  0
    9.1777  -16.0344   25.6944 C   0  0  1  0  0  0  0  0  0  0  0  0
    8.7060  -14.9537   26.5791 C   0  0  0  0  0  0  0  0  0  0  0  0
    9.4503  -14.6559   27.7843 C   0  0  0  0  0  0  0  0  0  0  0  0
   10.5722  -15.2072   28.3248 C   0  0  0  0  0  0  0  0  0  0  0  0
   10.9092  -14.5078   29.4522 N   0  0  0  0  0  0  0  0  0  0  0  0
    9.9949  -13.5399   29.5882 C   0  0  0  0  0  0  0  0  0  0  0  0
    9.1199  -13.6141   28.6036 N   0  0  0  0  0  0  0  0  0  0  0  0
    9.4395  -17.3396   26.3875 C   0  0  0  0  0  0  0  0  0  0  0  0
   10.3892  -17.4264   27.2439 O   0  0  0  0  0  0  0  0  0  0  0  0
    8.7336  -18.4874   26.1801 O   0  0  0  0  0  0  0  0  0  0  0  0
  2  3  1  0
  2  1  1  6
  3  4  1  0
  4  5  1  0
  5  6  1  0
  6  7  1  0
  8  9  2  0
  8  2  1  0
 10  8  1  0
 11 10  1  0
 11 12  1  6
 13 14  1  0
 13 12  1  0
 15 16  1  0
 15 14  1  0
 17 11  1  0
 17 19  1  0
 18 17  2  0
 20 19  1  0
 20 27  1  0
 20 21  1  1
 22 26  1  0
 22 21  1  0
 23 22  2  0
 24 23  1  0
 24 25  1  0
 25 26  2  0
 27 28  2  0
 27 29  1  0
M  END
$$$$
