MMD.pdb
     RDKit          3D

 25 24  0  0  1  0  0  0  0  0999 V2000
    2.9123  -19.5921   21.5890 C   0  0  0  0  0  0  0  0  0  0  0  0
    4.2940  -18.6196   22.1818 S   0  0  0  0  0  0  0  0  0  0  0  0
    5.8459  -19.0389   21.3564 C   0  0  0  0  0  0  0  0  0  0  0  0
    6.9186  -18.1077   21.8391 C   0  0  0  0  0  0  0  0  0  0  0  0
    6.7575  -16.7019   21.3284 C   0  0  2  0  0  0  0  0  0  0  0  0
    7.0835  -16.6570   19.9302 N   0  0  0  0  0  0  0  0  0  0  0  0
    7.6960  -15.8455   22.1352 C   0  0  0  0  0  0  0  0  0  0  0  0
    8.8631  -15.6372   21.7179 O   0  0  0  0  0  0  0  0  0  0  0  0
    5.4683  -12.5085   27.4170 C   0  0  0  0  0  0  0  0  0  0  0  0
    6.7365  -11.4988   26.6437 S   0  0  0  0  0  0  0  0  0  0  0  0
    8.0599  -12.5370   25.8805 C   0  0  0  0  0  0  0  0  0  0  0  0
    7.3705  -13.4613   24.9562 C   0  0  0  0  0  0  0  0  0  0  0  0
    8.1959  -14.3775   24.1301 C   0  0  2  0  0  0  0  0  0  0  0  0
    7.2846  -15.2663   23.3652 N   0  0  0  0  0  0  0  0  0  0  0  0
    9.1382  -15.2488   24.8465 C   0  0  0  0  0  0  0  0  0  0  0  0
   10.0208  -14.6670   25.5801 O   0  0  0  0  0  0  0  0  0  0  0  0
    9.1574  -16.6647   24.8047 N   0  0  0  0  0  0  0  0  0  0  0  0
   10.1155  -17.4751   25.5322 C   0  0  1  0  0  0  0  0  0  0  0  0
    9.5380  -18.7896   25.9584 C   0  0  0  0  0  0  0  0  0  0  0  0
    9.3799  -18.8150   27.4242 C   0  0  0  0  0  0  0  0  0  0  0  0
    9.7603  -17.8224   28.0964 O   0  0  0  0  0  0  0  0  0  0  0  0
   11.2734  -17.7339   24.6618 C   0  0  0  0  0  0  0  0  0  0  0  0
   12.3894  -18.1527   25.0754 O   0  0  0  0  0  0  0  0  0  0  0  0
    8.8337  -19.8695   28.1392 O   0  0  0  0  0  0  0  0  0  0  0  0
   11.1517  -17.5104   23.2986 O   0  0  0  0  0  0  0  0  0  0  0  0
  1  2  1  0
  3  2  1  0
  4  3  1  0
  5  6  1  6
  5  4  1  0
  7  5  1  0
  8  7  2  0
 10  9  1  0
 10 11  1  0
 13 12  1  1
 12 11  1  0
 13 14  1  0
 14  7  1  0
 15 17  1  0
 15 13  1  0
 16 15  2  0
 18 19  1  6
 18 22  1  0
 18 17  1  0
 20 24  1  0
 20 19  1  0
 21 20  2  0
 22 25  1  0
 23 22  2  0
M  END
$$$$
