MMD.pdb
     RDKit          3D

 25 24  0  0  1  0  0  0  0  0999 V2000
    8.5814  -11.9940   18.1119 C   0  0  0  0  0  0  0  0  0  0  0  0
    7.1278  -13.0331   18.2287 S   0  0  0  0  0  0  0  0  0  0  0  0
    7.4498  -14.5866   19.0940 C   0  0  0  0  0  0  0  0  0  0  0  0
    8.5131  -14.3548   20.1267 C   0  0  0  0  0  0  0  0  0  0  0  0
    8.8509  -15.5891   20.9175 C   0  0  2  0  0  0  0  0  0  0  0  0
    7.7567  -16.5173   20.8523 N   0  0  0  0  0  0  0  0  0  0  0  0
    9.0977  -15.1350   22.3310 C   0  0  0  0  0  0  0  0  0  0  0  0
   10.0446  -14.3453   22.5749 O   0  0  0  0  0  0  0  0  0  0  0  0
    7.1398  -11.5472   28.0204 C   0  0  0  0  0  0  0  0  0  0  0  0
    7.2485  -12.4266   26.4580 S   0  0  0  0  0  0  0  0  0  0  0  0
    6.9138  -14.2308   26.6692 C   0  0  0  0  0  0  0  0  0  0  0  0
    7.0440  -14.8295   25.3244 C   0  0  0  0  0  0  0  0  0  0  0  0
    8.4052  -14.9987   24.7573 C   0  0  2  0  0  0  0  0  0  0  0  0
    8.2762  -15.5850   23.3989 N   0  0  0  0  0  0  0  0  0  0  0  0
    9.3332  -15.8584   25.5056 C   0  0  0  0  0  0  0  0  0  0  0  0
    9.6640  -15.4639   26.6849 O   0  0  0  0  0  0  0  0  0  0  0  0
    9.8888  -17.0785   25.0478 N   0  0  0  0  0  0  0  0  0  0  0  0
   10.8842  -17.8327   25.7857 C   0  0  1  0  0  0  0  0  0  0  0  0
   10.5629  -19.2946   25.8387 C   0  0  0  0  0  0  0  0  0  0  0  0
    9.5057  -19.5386   26.8372 C   0  0  0  0  0  0  0  0  0  0  0  0
    9.1390  -18.5932   27.5813 O   0  0  0  0  0  0  0  0  0  0  0  0
   12.1890  -17.6650   25.1265 C   0  0  0  0  0  0  0  0  0  0  0  0
   13.2821  -18.0709   25.6084 O   0  0  0  0  0  0  0  0  0  0  0  0
    8.8680  -20.7546   27.0278 O   0  0  0  0  0  0  0  0  0  0  0  0
   12.2431  -17.0235   23.8982 O   0  0  0  0  0  0  0  0  0  0  0  0
  1  2  1  0
  3  2  1  0
  4  3  1  0
  5  6  1  1
  5  4  1  0
  7  5  1  0
  8  7  2  0
 10  9  1  0
 10 11  1  0
 13 12  1  1
 12 11  1  0
 13 14  1  0
 14  7  1  0
 15 17  1  0
 15 13  1  0
 16 15  2  0
 18 19  1  6
 18 22  1  0
 18 17  1  0
 20 24  1  0
 20 19  1  0
 21 20  2  0
 22 25  1  0
 23 22  2  0
M  END
$$$$
