MMD.pdb
     RDKit          3D

 25 24  0  0  1  0  0  0  0  0999 V2000
    8.6131  -11.3585   19.6864 C   0  0  0  0  0  0  0  0  0  0  0  0
    7.6801  -12.4530   18.6197 S   0  0  0  0  0  0  0  0  0  0  0  0
    7.7890  -14.1831   19.1304 C   0  0  0  0  0  0  0  0  0  0  0  0
    8.3061  -14.2416   20.5375 C   0  0  0  0  0  0  0  0  0  0  0  0
    8.5745  -15.6433   21.0129 C   0  0  2  0  0  0  0  0  0  0  0  0
    7.3521  -16.3974   21.0039 N   0  0  0  0  0  0  0  0  0  0  0  0
    9.1301  -15.5214   22.4063 C   0  0  0  0  0  0  0  0  0  0  0  0
   10.2746  -15.0314   22.5796 O   0  0  0  0  0  0  0  0  0  0  0  0
    5.9251  -11.4758   26.8316 C   0  0  0  0  0  0  0  0  0  0  0  0
    6.4600  -13.1849   26.9688 S   0  0  0  0  0  0  0  0  0  0  0  0
    7.4141  -13.7198   25.4805 C   0  0  0  0  0  0  0  0  0  0  0  0
    7.7784  -15.1325   25.7160 C   0  0  0  0  0  0  0  0  0  0  0  0
    8.8803  -15.7193   24.9130 C   0  0  2  0  0  0  0  0  0  0  0  0
    8.3811  -15.9520   23.5338 N   0  0  0  0  0  0  0  0  0  0  0  0
    9.4382  -16.9946   25.3847 C   0  0  0  0  0  0  0  0  0  0  0  0
    8.6697  -18.0241   25.3127 O   0  0  0  0  0  0  0  0  0  0  0  0
   10.7415  -17.1904   25.9042 N   0  0  0  0  0  0  0  0  0  0  0  0
   11.2131  -18.4577   26.4290 C   0  0  1  0  0  0  0  0  0  0  0  0
   12.6974  -18.6083   26.2980 C   0  0  0  0  0  0  0  0  0  0  0  0
   13.0086  -19.7202   25.3810 C   0  0  0  0  0  0  0  0  0  0  0  0
   12.0655  -20.4122   24.9186 O   0  0  0  0  0  0  0  0  0  0  0  0
   10.8595  -18.5400   27.8550 C   0  0  0  0  0  0  0  0  0  0  0  0
   10.4749  -19.5960   28.4285 O   0  0  0  0  0  0  0  0  0  0  0  0
   14.2867  -20.0741   24.9775 O   0  0  0  0  0  0  0  0  0  0  0  0
   10.9476  -17.3971   28.6356 O   0  0  0  0  0  0  0  0  0  0  0  0
  1  2  1  0
  3  2  1  0
  4  3  1  0
  5  6  1  1
  5  4  1  0
  7  5  1  0
  8  7  2  0
 10  9  1  0
 10 11  1  0
 13 12  1  1
 12 11  1  0
 13 14  1  0
 14  7  1  0
 15 17  1  0
 15 13  1  0
 16 15  2  0
 18 19  1  1
 18 22  1  0
 18 17  1  0
 20 24  1  0
 20 19  1  0
 21 20  2  0
 22 25  1  0
 23 22  2  0
M  END
$$$$
