MMD.pdb
     RDKit          3D

 25 24  0  0  1  0  0  0  0  0999 V2000
    7.3749  -11.2627   27.1677 C   0  0  0  0  0  0  0  0  0  0  0  0
    7.1055  -12.6284   26.0416 S   0  0  0  0  0  0  0  0  0  0  0  0
    6.7017  -14.1679   26.8977 C   0  0  0  0  0  0  0  0  0  0  0  0
    6.4430  -15.2366   25.8770 C   0  0  0  0  0  0  0  0  0  0  0  0
    7.6931  -15.9426   25.4276 C   0  0  2  0  0  0  0  0  0  0  0  0
    8.8411  -15.1426   25.7520 N   0  0  0  0  0  0  0  0  0  0  0  0
    7.5634  -16.1329   23.9403 C   0  0  0  0  0  0  0  0  0  0  0  0
    6.5857  -16.7730   23.4775 O   0  0  0  0  0  0  0  0  0  0  0  0
    9.1505  -11.8350   19.8733 C   0  0  0  0  0  0  0  0  0  0  0  0
    7.4101  -12.2663   19.9794 S   0  0  0  0  0  0  0  0  0  0  0  0
    7.1463  -13.7785   21.0067 C   0  0  0  0  0  0  0  0  0  0  0  0
    8.3773  -14.5844   20.8691 C   0  0  0  0  0  0  0  0  0  0  0  0
    8.4557  -15.8796   21.5899 C   0  0  2  0  0  0  0  0  0  0  0  0
    8.5304  -15.6002   23.0466 N   0  0  0  0  0  0  0  0  0  0  0  0
    9.5934  -16.7516   21.2649 C   0  0  0  0  0  0  0  0  0  0  0  0
    9.8592  -16.9145   20.0165 O   0  0  0  0  0  0  0  0  0  0  0  0
   10.4213  -17.4210   22.1994 N   0  0  0  0  0  0  0  0  0  0  0  0
   11.8647  -17.2818   22.2352 C   0  0  1  0  0  0  0  0  0  0  0  0
   12.3017  -15.8613   22.0494 C   0  0  0  0  0  0  0  0  0  0  0  0
   13.7406  -15.8182   21.7302 C   0  0  0  0  0  0  0  0  0  0  0  0
   14.1624  -16.4485   20.7268 O   0  0  0  0  0  0  0  0  0  0  0  0
   12.3530  -17.7536   23.5407 C   0  0  0  0  0  0  0  0  0  0  0  0
   11.7482  -17.5661   24.6319 O   0  0  0  0  0  0  0  0  0  0  0  0
   14.6895  -15.1234   22.4640 O   0  0  0  0  0  0  0  0  0  0  0  0
   13.5509  -18.4501   23.5975 O   0  0  0  0  0  0  0  0  0  0  0  0
  1  2  1  0
  3  2  1  0
  4  3  1  0
  5  6  1  6
  5  4  1  0
  7  5  1  0
  8  7  2  0
 10  9  1  0
 10 11  1  0
 13 12  1  6
 12 11  1  0
 13 14  1  0
 14  7  1  0
 15 17  1  0
 15 13  1  0
 16 15  2  0
 18 19  1  1
 18 22  1  0
 18 17  1  0
 20 24  1  0
 20 19  1  0
 21 20  2  0
 22 25  1  0
 23 22  2  0
M  END
$$$$
