MMD.pdb
     RDKit          3D

 25 24  0  0  1  0  0  0  0  0999 V2000
    7.0022  -11.2267   19.4288 C   0  0  0  0  0  0  0  0  0  0  0  0
    7.9884  -12.6502   18.9739 S   0  0  0  0  0  0  0  0  0  0  0  0
    7.8970  -13.9798   20.1945 C   0  0  0  0  0  0  0  0  0  0  0  0
    8.5811  -15.1945   19.6402 C   0  0  0  0  0  0  0  0  0  0  0  0
    8.5320  -16.3779   20.5676 C   0  0  2  0  0  0  0  0  0  0  0  0
    7.1847  -16.8686   20.6514 N   0  0  0  0  0  0  0  0  0  0  0  0
    9.0195  -15.8908   21.9056 C   0  0  0  0  0  0  0  0  0  0  0  0
   10.1850  -15.4329   22.0147 O   0  0  0  0  0  0  0  0  0  0  0  0
    7.1496  -11.1450   26.6788 C   0  0  0  0  0  0  0  0  0  0  0  0
    6.4825  -12.8106   26.5954 S   0  0  0  0  0  0  0  0  0  0  0  0
    7.8134  -14.0627   26.3256 C   0  0  0  0  0  0  0  0  0  0  0  0
    7.6051  -14.5911   24.9613 C   0  0  0  0  0  0  0  0  0  0  0  0
    8.6639  -15.4452   24.3673 C   0  0  2  0  0  0  0  0  0  0  0  0
    8.1826  -15.9398   23.0522 N   0  0  0  0  0  0  0  0  0  0  0  0
    9.0760  -16.6250   25.1410 C   0  0  0  0  0  0  0  0  0  0  0  0
    8.1848  -17.5340   25.3285 O   0  0  0  0  0  0  0  0  0  0  0  0
   10.3617  -16.8506   25.6914 N   0  0  0  0  0  0  0  0  0  0  0  0
   10.6988  -18.0138   26.4896 C   0  0  1  0  0  0  0  0  0  0  0  0
   12.1731  -18.2768   26.5134 C   0  0  0  0  0  0  0  0  0  0  0  0
   12.5408  -19.1663   25.3964 C   0  0  0  0  0  0  0  0  0  0  0  0
   12.1790  -18.8636   24.2304 O   0  0  0  0  0  0  0  0  0  0  0  0
   10.2424  -17.7885   27.8702 C   0  0  0  0  0  0  0  0  0  0  0  0
    9.9839  -16.6519   28.3530 O   0  0  0  0  0  0  0  0  0  0  0  0
   13.2697  -20.3379   25.5297 O   0  0  0  0  0  0  0  0  0  0  0  0
   10.0795  -18.8800   28.7100 O   0  0  0  0  0  0  0  0  0  0  0  0
  1  2  1  0
  3  2  1  0
  4  3  1  0
  5  6  1  1
  5  4  1  0
  7  5  1  0
  8  7  2  0
 10  9  1  0
 10 11  1  0
 13 12  1  1
 12 11  1  0
 13 14  1  0
 14  7  1  0
 15 17  1  0
 15 13  1  0
 16 15  2  0
 18 19  1  1
 18 22  1  0
 18 17  1  0
 20 24  1  0
 20 19  1  0
 21 20  2  0
 22 25  1  0
 23 22  2  0
M  END
$$$$
