MMD.pdb
     RDKit          3D

 25 24  0  0  1  0  0  0  0  0999 V2000
    8.5128  -11.3331   19.7170 C   0  0  0  0  0  0  0  0  0  0  0  0
    7.5515  -12.6081   18.9068 S   0  0  0  0  0  0  0  0  0  0  0  0
    7.4034  -14.1082   19.9036 C   0  0  0  0  0  0  0  0  0  0  0  0
    8.7423  -14.7821   19.9671 C   0  0  0  0  0  0  0  0  0  0  0  0
    8.7422  -16.0225   20.8183 C   0  0  2  0  0  0  0  0  0  0  0  0
    7.4590  -16.6627   20.7364 N   0  0  0  0  0  0  0  0  0  0  0  0
    9.0397  -15.5744   22.2239 C   0  0  0  0  0  0  0  0  0  0  0  0
   10.1436  -15.0327   22.4842 O   0  0  0  0  0  0  0  0  0  0  0  0
    6.1554  -11.4872   25.8944 C   0  0  0  0  0  0  0  0  0  0  0  0
    7.5471  -12.5190   26.3683 S   0  0  0  0  0  0  0  0  0  0  0  0
    7.0397  -14.2801   26.5985 C   0  0  0  0  0  0  0  0  0  0  0  0
    7.0401  -14.8839   25.2498 C   0  0  0  0  0  0  0  0  0  0  0  0
    8.3457  -15.2168   24.6271 C   0  0  2  0  0  0  0  0  0  0  0  0
    8.0913  -15.7537   23.2660 N   0  0  0  0  0  0  0  0  0  0  0  0
    9.1807  -16.2046   25.3252 C   0  0  0  0  0  0  0  0  0  0  0  0
    9.5542  -15.9055   26.5197 O   0  0  0  0  0  0  0  0  0  0  0  0
    9.6043  -17.4519   24.8039 N   0  0  0  0  0  0  0  0  0  0  0  0
   10.4219  -18.3939   25.5443 C   0  0  1  0  0  0  0  0  0  0  0  0
   11.8307  -18.4414   25.0382 C   0  0  0  0  0  0  0  0  0  0  0  0
   12.6137  -19.4093   25.8282 C   0  0  0  0  0  0  0  0  0  0  0  0
   13.4695  -18.9809   26.6443 O   0  0  0  0  0  0  0  0  0  0  0  0
   10.4471  -17.9886   26.9586 C   0  0  0  0  0  0  0  0  0  0  0  0
   10.9780  -16.9244   27.3800 O   0  0  0  0  0  0  0  0  0  0  0  0
   12.4809  -20.7865   25.7423 O   0  0  0  0  0  0  0  0  0  0  0  0
    9.8561  -18.8134   27.9039 O   0  0  0  0  0  0  0  0  0  0  0  0
  1  2  1  0
  3  2  1  0
  4  3  1  0
  5  6  1  1
  5  4  1  0
  7  5  1  0
  8  7  2  0
 10  9  1  0
 10 11  1  0
 13 12  1  1
 12 11  1  0
 13 14  1  0
 14  7  1  0
 15 17  1  0
 15 13  1  0
 16 15  2  0
 18 19  1  6
 18 22  1  0
 18 17  1  0
 20 24  1  0
 20 19  1  0
 21 20  2  0
 22 25  1  0
 23 22  2  0
M  END
$$$$
