MMD.pdb
     RDKit          3D

 25 24  0  0  1  0  0  0  0  0999 V2000
    8.1898  -11.5354   19.3756 C   0  0  0  0  0  0  0  0  0  0  0  0
    7.9259  -12.9190   18.2701 S   0  0  0  0  0  0  0  0  0  0  0  0
    7.5804  -14.4586   19.1511 C   0  0  0  0  0  0  0  0  0  0  0  0
    8.0623  -14.3262   20.5657 C   0  0  0  0  0  0  0  0  0  0  0  0
    8.7240  -15.5730   21.0860 C   0  0  2  0  0  0  0  0  0  0  0  0
    7.8411  -16.6933   20.9168 N   0  0  0  0  0  0  0  0  0  0  0  0
    9.0170  -15.3241   22.5411 C   0  0  0  0  0  0  0  0  0  0  0  0
   10.1760  -14.9899   22.8946 O   0  0  0  0  0  0  0  0  0  0  0  0
    6.9046  -12.5173   27.9448 C   0  0  0  0  0  0  0  0  0  0  0  0
    7.2175  -12.0617   26.2358 S   0  0  0  0  0  0  0  0  0  0  0  0
    6.7009  -13.3987   25.0708 C   0  0  0  0  0  0  0  0  0  0  0  0
    7.2024  -14.6616   25.6516 C   0  0  0  0  0  0  0  0  0  0  0  0
    8.3266  -15.3523   24.9716 C   0  0  2  0  0  0  0  0  0  0  0  0
    8.0029  -15.4609   23.5263 N   0  0  0  0  0  0  0  0  0  0  0  0
    8.6516  -16.7077   25.4381 C   0  0  0  0  0  0  0  0  0  0  0  0
    8.2522  -17.6843   24.7017 O   0  0  0  0  0  0  0  0  0  0  0  0
    9.3658  -17.0319   26.6178 N   0  0  0  0  0  0  0  0  0  0  0  0
   10.1959  -18.2137   26.7529 C   0  0  1  0  0  0  0  0  0  0  0  0
   11.2293  -18.3068   25.6728 C   0  0  0  0  0  0  0  0  0  0  0  0
   12.1037  -19.4689   25.9157 C   0  0  0  0  0  0  0  0  0  0  0  0
   11.7842  -20.2976   26.8062 O   0  0  0  0  0  0  0  0  0  0  0  0
   10.8829  -18.1630   28.0532 C   0  0  0  0  0  0  0  0  0  0  0  0
   11.5871  -19.1010   28.5180 O   0  0  0  0  0  0  0  0  0  0  0  0
   13.2781  -19.7285   25.2264 O   0  0  0  0  0  0  0  0  0  0  0  0
   10.7620  -17.0221   28.8323 O   0  0  0  0  0  0  0  0  0  0  0  0
  1  2  1  0
  3  2  1  0
  4  3  1  0
  5  6  1  1
  5  4  1  0
  7  5  1  0
  8  7  2  0
 10  9  1  0
 10 11  1  0
 13 12  1  1
 12 11  1  0
 13 14  1  0
 14  7  1  0
 15 17  1  0
 15 13  1  0
 16 15  2  0
 18 19  1  6
 18 22  1  0
 18 17  1  0
 20 24  1  0
 20 19  1  0
 21 20  2  0
 22 25  1  0
 23 22  2  0
M  END
$$$$
