MMD.pdb
     RDKit          3D

 25 24  0  0  1  0  0  0  0  0999 V2000
    6.9332  -12.1629   19.9216 C   0  0  0  0  0  0  0  0  0  0  0  0
    8.4744  -12.5331   19.0886 S   0  0  0  0  0  0  0  0  0  0  0  0
    8.7044  -14.3027   18.8033 C   0  0  0  0  0  0  0  0  0  0  0  0
    7.5277  -15.0418   19.3688 C   0  0  0  0  0  0  0  0  0  0  0  0
    7.9185  -16.2460   20.1814 C   0  0  2  0  0  0  0  0  0  0  0  0
    6.7483  -17.0203   20.4884 N   0  0  0  0  0  0  0  0  0  0  0  0
    8.5698  -15.7220   21.4329 C   0  0  0  0  0  0  0  0  0  0  0  0
    9.7528  -15.2995   21.3891 O   0  0  0  0  0  0  0  0  0  0  0  0
    6.7378  -11.7809   27.9297 C   0  0  0  0  0  0  0  0  0  0  0  0
    6.4560  -12.5688   26.3404 S   0  0  0  0  0  0  0  0  0  0  0  0
    7.8236  -13.7321   25.9068 C   0  0  0  0  0  0  0  0  0  0  0  0
    7.4912  -14.2723   24.5721 C   0  0  0  0  0  0  0  0  0  0  0  0
    8.4951  -15.1244   23.8869 C   0  0  2  0  0  0  0  0  0  0  0  0
    7.8687  -15.6967   22.6680 N   0  0  0  0  0  0  0  0  0  0  0  0
    9.0418  -16.2525   24.6542 C   0  0  0  0  0  0  0  0  0  0  0  0
    8.2585  -17.2550   24.8467 O   0  0  0  0  0  0  0  0  0  0  0  0
   10.3492  -16.3351   25.1935 N   0  0  0  0  0  0  0  0  0  0  0  0
   10.8929  -17.5371   25.7965 C   0  0  1  0  0  0  0  0  0  0  0  0
   12.3553  -17.6997   25.5168 C   0  0  0  0  0  0  0  0  0  0  0  0
   12.8620  -18.9097   26.1902 C   0  0  0  0  0  0  0  0  0  0  0  0
   12.6739  -20.0312   25.6529 O   0  0  0  0  0  0  0  0  0  0  0  0
   10.7015  -17.4635   27.2536 C   0  0  0  0  0  0  0  0  0  0  0  0
   10.3775  -16.4127   27.8721 O   0  0  0  0  0  0  0  0  0  0  0  0
   13.5446  -18.9121   27.3966 O   0  0  0  0  0  0  0  0  0  0  0  0
   10.8835  -18.6094   28.0133 O   0  0  0  0  0  0  0  0  0  0  0  0
  1  2  1  0
  3  2  1  0
  4  3  1  0
  5  6  1  1
  5  4  1  0
  7  5  1  0
  8  7  2  0
 10  9  1  0
 10 11  1  0
 13 12  1  1
 12 11  1  0
 13 14  1  0
 14  7  1  0
 15 17  1  0
 15 13  1  0
 16 15  2  0
 18 19  1  1
 18 22  1  0
 18 17  1  0
 20 24  1  0
 20 19  1  0
 21 20  2  0
 22 25  1  0
 23 22  2  0
M  END
$$$$
