MMD.pdb
     RDKit          3D

 25 24  0  0  1  0  0  0  0  0999 V2000
    8.8238  -11.4627   19.2810 C   0  0  0  0  0  0  0  0  0  0  0  0
    7.4331  -12.4300   18.7010 S   0  0  0  0  0  0  0  0  0  0  0  0
    7.4617  -14.1292   19.3155 C   0  0  0  0  0  0  0  0  0  0  0  0
    8.1492  -14.1509   20.6488 C   0  0  0  0  0  0  0  0  0  0  0  0
    8.3771  -15.5412   21.1761 C   0  0  2  0  0  0  0  0  0  0  0  0
    7.1486  -16.2837   21.1234 N   0  0  0  0  0  0  0  0  0  0  0  0
    8.8602  -15.3856   22.5929 C   0  0  0  0  0  0  0  0  0  0  0  0
    9.9572  -14.8146   22.8175 O   0  0  0  0  0  0  0  0  0  0  0  0
    7.3592  -11.7236   27.3467 C   0  0  0  0  0  0  0  0  0  0  0  0
    6.1152  -12.8893   26.7814 S   0  0  0  0  0  0  0  0  0  0  0  0
    6.6891  -13.8293   25.2985 C   0  0  0  0  0  0  0  0  0  0  0  0
    7.3331  -15.0543   25.8168 C   0  0  0  0  0  0  0  0  0  0  0  0
    8.5053  -15.5973   25.0857 C   0  0  2  0  0  0  0  0  0  0  0  0
    8.0955  -15.8747   23.6854 N   0  0  0  0  0  0  0  0  0  0  0  0
    9.0976  -16.8363   25.6094 C   0  0  0  0  0  0  0  0  0  0  0  0
    8.2849  -17.7963   25.8808 O   0  0  0  0  0  0  0  0  0  0  0  0
   10.4768  -17.0674   25.8358 N   0  0  0  0  0  0  0  0  0  0  0  0
   11.0052  -18.3121   26.3609 C   0  0  1  0  0  0  0  0  0  0  0  0
   12.4385  -18.5239   25.9815 C   0  0  0  0  0  0  0  0  0  0  0  0
   12.6519  -18.1114   24.5820 C   0  0  0  0  0  0  0  0  0  0  0  0
   12.0506  -18.7281   23.6654 O   0  0  0  0  0  0  0  0  0  0  0  0
   10.9100  -18.2844   27.8290 C   0  0  0  0  0  0  0  0  0  0  0  0
   10.5132  -17.2878   28.4933 O   0  0  0  0  0  0  0  0  0  0  0  0
   13.4818  -17.0747   24.1844 O   0  0  0  0  0  0  0  0  0  0  0  0
   11.2740  -19.4138   28.5467 O   0  0  0  0  0  0  0  0  0  0  0  0
  1  2  1  0
  3  2  1  0
  4  3  1  0
  5  6  1  1
  5  4  1  0
  7  5  1  0
  8  7  2  0
 10  9  1  0
 10 11  1  0
 13 12  1  1
 12 11  1  0
 13 14  1  0
 14  7  1  0
 15 17  1  0
 15 13  1  0
 16 15  2  0
 18 19  1  1
 18 22  1  0
 18 17  1  0
 20 24  1  0
 20 19  1  0
 21 20  2  0
 22 25  1  0
 23 22  2  0
M  END
$$$$
