ILV.pdb
     RDKit          3D

 24 23  0  0  1  0  0  0  0  0999 V2000
    6.4283  -21.2216   20.6888 C   0  0  0  0  0  0  0  0  0  0  0  0
    6.9425  -20.7665   22.0208 C   0  0  0  0  0  0  0  0  0  0  0  0
    7.2325  -19.2805   22.0397 C   0  0  2  0  0  0  0  0  0  0  0  0
    8.2599  -19.0392   20.9507 C   0  0  0  0  0  0  0  0  0  0  0  0
    7.8003  -18.8934   23.3810 C   0  0  2  0  0  0  0  0  0  0  0  0
    7.0060  -19.2700   24.4866 N   0  0  0  0  0  0  0  0  0  0  0  0
    8.1256  -17.4611   23.4701 C   0  0  0  0  0  0  0  0  0  0  0  0
    8.8696  -16.9387   22.6279 O   0  0  0  0  0  0  0  0  0  0  0  0
    8.0112  -12.7279   26.1744 C   0  0  0  0  0  0  0  0  0  0  0  0
    6.7897  -13.0224   25.2974 C   0  0  2  0  0  0  0  0  0  0  0  0
    5.5786  -12.3351   25.8697 C   0  0  0  0  0  0  0  0  0  0  0  0
    6.6283  -14.5148   25.2762 C   0  0  0  0  0  0  0  0  0  0  0  0
    7.7596  -15.2761   24.7056 C   0  0  2  0  0  0  0  0  0  0  0  0
    7.5871  -16.6788   24.5206 N   0  0  0  0  0  0  0  0  0  0  0  0
    9.0267  -15.0091   25.5014 C   0  0  0  0  0  0  0  0  0  0  0  0
    9.8891  -14.1984   25.1256 O   0  0  0  0  0  0  0  0  0  0  0  0
    9.4750  -15.4297   29.5138 C   0  0  0  0  0  0  0  0  0  0  0  0
   10.5404  -14.8294   28.5991 C   0  0  2  0  0  0  0  0  0  0  0  0
   10.1739  -13.4061   28.2414 C   0  0  0  0  0  0  0  0  0  0  0  0
   10.5692  -15.6382   27.3366 C   0  0  2  0  0  0  0  0  0  0  0  0
    9.2462  -15.7041   26.7212 N   0  0  0  0  0  0  0  0  0  0  0  0
   11.0471  -17.0133   27.6783 C   0  0  0  0  0  0  0  0  0  0  0  0
   12.3394  -17.1989   28.1050 O   0  0  0  0  0  0  0  0  0  0  0  0
   10.3042  -18.0123   27.5882 O   0  0  0  0  0  0  0  0  0  0  0  0
  1  2  1  0
  3  5  1  0
  3  2  1  0
  3  4  1  6
  5  6  1  1
  7  5  1  0
  7  8  2  0
 10  9  1  1
 11 10  1  0
 13 12  1  1
 12 10  1  0
 13 14  1  0
 14  7  1  0
 15 13  1  0
 16 15  2  0
 18 17  1  1
 18 20  1  0
 19 18  1  0
 20 22  1  0
 20 21  1  1
 21 15  1  0
 22 23  1  0
 24 22  2  0
M  END
$$$$
