ILV.pdb
     RDKit          3D

 24 23  0  0  1  0  0  0  0  0999 V2000
    6.4893  -18.7443   19.0148 C   0  0  0  0  0  0  0  0  0  0  0  0
    6.7070  -17.2632   19.0824 C   0  0  0  0  0  0  0  0  0  0  0  0
    7.3777  -16.8463   20.3743 C   0  0  2  0  0  0  0  0  0  0  0  0
    6.4472  -17.2816   21.4900 C   0  0  0  0  0  0  0  0  0  0  0  0
    7.5459  -15.3489   20.3962 C   0  0  2  0  0  0  0  0  0  0  0  0
    8.2856  -14.8244   19.3132 N   0  0  0  0  0  0  0  0  0  0  0  0
    8.1082  -14.8571   21.6641 C   0  0  0  0  0  0  0  0  0  0  0  0
    9.3363  -14.8131   21.8242 O   0  0  0  0  0  0  0  0  0  0  0  0
    5.8502  -12.3167   26.8856 C   0  0  0  0  0  0  0  0  0  0  0  0
    7.0534  -13.0174   26.2460 C   0  0  2  0  0  0  0  0  0  0  0  0
    8.2890  -12.1793   26.4403 C   0  0  0  0  0  0  0  0  0  0  0  0
    6.7214  -13.1960   24.7929 C   0  0  0  0  0  0  0  0  0  0  0  0
    7.6240  -14.0851   24.0314 C   0  0  2  0  0  0  0  0  0  0  0  0
    7.2437  -14.4336   22.7027 N   0  0  0  0  0  0  0  0  0  0  0  0
    7.9222  -15.3417   24.8328 C   0  0  0  0  0  0  0  0  0  0  0  0
    7.0244  -16.0835   25.2641 O   0  0  0  0  0  0  0  0  0  0  0  0
   11.8214  -16.8779   24.7977 C   0  0  0  0  0  0  0  0  0  0  0  0
   10.5716  -17.7502   24.8913 C   0  0  2  0  0  0  0  0  0  0  0  0
   10.0047  -17.9933   23.5101 C   0  0  0  0  0  0  0  0  0  0  0  0
    9.5491  -17.0017   25.6933 C   0  0  2  0  0  0  0  0  0  0  0  0
    9.2715  -15.6934   25.1060 N   0  0  0  0  0  0  0  0  0  0  0  0
   10.0778  -16.8404   27.0827 C   0  0  0  0  0  0  0  0  0  0  0  0
   10.1434  -17.9295   27.9172 O   0  0  0  0  0  0  0  0  0  0  0  0
   10.4664  -15.7369   27.5179 O   0  0  0  0  0  0  0  0  0  0  0  0
  1  2  1  0
  3  5  1  0
  3  2  1  0
  3  4  1  1
  5  6  1  6
  7  5  1  0
  7  8  2  0
 10  9  1  1
 11 10  1  0
 13 12  1  1
 12 10  1  0
 13 14  1  0
 14  7  1  0
 15 13  1  0
 16 15  2  0
 18 17  1  6
 18 20  1  0
 19 18  1  0
 20 22  1  0
 20 21  1  6
 21 15  1  0
 22 23  1  0
 24 22  2  0
M  END
$$$$
