ILV.pdb
     RDKit          3D

 24 23  0  0  1  0  0  0  0  0999 V2000
    7.5208  -12.8118   17.8108 C   0  0  0  0  0  0  0  0  0  0  0  0
    7.7244  -14.0141   18.6821 C   0  0  0  0  0  0  0  0  0  0  0  0
    7.8817  -13.6382   20.1404 C   0  0  2  0  0  0  0  0  0  0  0  0
    9.1375  -12.7919   20.2227 C   0  0  0  0  0  0  0  0  0  0  0  0
    8.0442  -14.8862   20.9693 C   0  0  2  0  0  0  0  0  0  0  0  0
    6.9061  -15.7222   21.0027 N   0  0  0  0  0  0  0  0  0  0  0  0
    8.4916  -14.6040   22.3425 C   0  0  0  0  0  0  0  0  0  0  0  0
    9.6772  -14.3195   22.5642 O   0  0  0  0  0  0  0  0  0  0  0  0
    5.7618  -12.6655   27.5267 C   0  0  0  0  0  0  0  0  0  0  0  0
    7.0744  -13.0953   26.8632 C   0  0  2  0  0  0  0  0  0  0  0  0
    7.9937  -11.9088   26.7452 C   0  0  0  0  0  0  0  0  0  0  0  0
    6.7103  -13.6567   25.5193 C   0  0  0  0  0  0  0  0  0  0  0  0
    7.8134  -14.2904   24.7666 C   0  0  2  0  0  0  0  0  0  0  0  0
    7.5650  -14.6577   23.4120 N   0  0  0  0  0  0  0  0  0  0  0  0
    8.3577  -15.4824   25.5366 C   0  0  0  0  0  0  0  0  0  0  0  0
    7.6485  -16.4539   25.8458 O   0  0  0  0  0  0  0  0  0  0  0  0
   12.4954  -15.7218   26.4759 C   0  0  0  0  0  0  0  0  0  0  0  0
   11.6706  -16.9615   26.1372 C   0  0  2  0  0  0  0  0  0  0  0  0
   11.6800  -17.1977   24.6431 C   0  0  0  0  0  0  0  0  0  0  0  0
   10.2563  -16.7014   26.5625 C   0  0  2  0  0  0  0  0  0  0  0  0
    9.7249  -15.5004   25.9232 N   0  0  0  0  0  0  0  0  0  0  0  0
   10.2415  -16.5426   28.0493 C   0  0  0  0  0  0  0  0  0  0  0  0
   10.4266  -17.6406   28.8535 O   0  0  0  0  0  0  0  0  0  0  0  0
   10.0641  -15.4334   28.5935 O   0  0  0  0  0  0  0  0  0  0  0  0
  1  2  1  0
  3  5  1  0
  3  2  1  0
  3  4  1  6
  5  6  1  1
  7  5  1  0
  7  8  2  0
 10  9  1  6
 11 10  1  0
 13 12  1  1
 12 10  1  0
 13 14  1  0
 14  7  1  0
 15 13  1  0
 16 15  2  0
 18 17  1  6
 18 20  1  0
 19 18  1  0
 20 22  1  0
 20 21  1  6
 21 15  1  0
 22 23  1  0
 24 22  2  0
M  END
$$$$
