ILV.pdb
     RDKit          3D

 24 23  0  0  1  0  0  0  0  0999 V2000
    7.4921  -18.9804   19.1472 C   0  0  0  0  0  0  0  0  0  0  0  0
    7.6865  -17.5312   19.4757 C   0  0  0  0  0  0  0  0  0  0  0  0
    8.1305  -17.3287   20.9091 C   0  0  2  0  0  0  0  0  0  0  0  0
    7.0652  -17.9748   21.7739 C   0  0  0  0  0  0  0  0  0  0  0  0
    8.2151  -15.8542   21.2085 C   0  0  2  0  0  0  0  0  0  0  0  0
    8.9888  -15.1111   20.2896 N   0  0  0  0  0  0  0  0  0  0  0  0
    8.6727  -15.5763   22.5792 C   0  0  0  0  0  0  0  0  0  0  0  0
    9.8848  -15.5144   22.8297 O   0  0  0  0  0  0  0  0  0  0  0  0
    8.1974  -12.2693   26.0096 C   0  0  0  0  0  0  0  0  0  0  0  0
    6.8951  -12.8891   25.4921 C   0  0  2  0  0  0  0  0  0  0  0  0
    5.7218  -12.2646   26.1993 C   0  0  0  0  0  0  0  0  0  0  0  0
    6.9883  -14.3636   25.7577 C   0  0  0  0  0  0  0  0  0  0  0  0
    8.0117  -15.0939   24.9803 C   0  0  2  0  0  0  0  0  0  0  0  0
    7.7256  -15.3795   23.6135 N   0  0  0  0  0  0  0  0  0  0  0  0
    8.4107  -16.3690   25.7049 C   0  0  0  0  0  0  0  0  0  0  0  0
    7.5960  -17.2706   25.9610 O   0  0  0  0  0  0  0  0  0  0  0  0
   11.2606  -18.4429   24.5554 C   0  0  0  0  0  0  0  0  0  0  0  0
   11.4583  -18.3060   26.0635 C   0  0  2  0  0  0  0  0  0  0  0  0
   11.8022  -19.6506   26.6651 C   0  0  0  0  0  0  0  0  0  0  0  0
   10.1602  -17.8448   26.6559 C   0  0  2  0  0  0  0  0  0  0  0  0
    9.7607  -16.5504   26.1096 N   0  0  0  0  0  0  0  0  0  0  0  0
   10.3364  -17.7460   28.1375 C   0  0  0  0  0  0  0  0  0  0  0  0
   10.4255  -18.8911   28.8907 O   0  0  0  0  0  0  0  0  0  0  0  0
   10.4061  -16.6456   28.7227 O   0  0  0  0  0  0  0  0  0  0  0  0
  1  2  1  0
  3  5  1  0
  3  2  1  0
  3  4  1  1
  5  6  1  6
  7  5  1  0
  7  8  2  0
 10  9  1  1
 11 10  1  0
 13 12  1  1
 12 10  1  0
 13 14  1  0
 14  7  1  0
 15 13  1  0
 16 15  2  0
 18 17  1  6
 18 20  1  0
 19 18  1  0
 20 22  1  0
 20 21  1  6
 21 15  1  0
 22 23  1  0
 24 22  2  0
M  END
$$$$
