ILV.pdb
     RDKit          3D

 24 23  0  0  1  0  0  0  0  0999 V2000
    7.0667  -18.3112   18.8659 C   0  0  0  0  0  0  0  0  0  0  0  0
    7.1044  -16.8855   19.3262 C   0  0  0  0  0  0  0  0  0  0  0  0
    7.7415  -16.7469   20.6927 C   0  0  2  0  0  0  0  0  0  0  0  0
    6.8734  -17.5478   21.6440 C   0  0  0  0  0  0  0  0  0  0  0  0
    7.7527  -15.2962   21.1004 C   0  0  2  0  0  0  0  0  0  0  0  0
    8.3241  -14.4225   20.1489 N   0  0  0  0  0  0  0  0  0  0  0  0
    8.3812  -15.0779   22.4130 C   0  0  0  0  0  0  0  0  0  0  0  0
    9.6160  -15.0474   22.5139 O   0  0  0  0  0  0  0  0  0  0  0  0
    8.2983  -11.9201   25.8222 C   0  0  0  0  0  0  0  0  0  0  0  0
    6.9422  -12.5989   25.6024 C   0  0  2  0  0  0  0  0  0  0  0  0
    5.9213  -12.0028   26.5346 C   0  0  0  0  0  0  0  0  0  0  0  0
    7.1498  -14.0628   25.8622 C   0  0  0  0  0  0  0  0  0  0  0  0
    8.0294  -14.7675   24.9058 C   0  0  2  0  0  0  0  0  0  0  0  0
    7.5729  -14.9024   23.5624 N   0  0  0  0  0  0  0  0  0  0  0  0
    8.4244  -16.1269   25.4592 C   0  0  0  0  0  0  0  0  0  0  0  0
    7.5922  -17.0218   25.6801 O   0  0  0  0  0  0  0  0  0  0  0  0
   12.5143  -17.2217   25.6971 C   0  0  0  0  0  0  0  0  0  0  0  0
   11.3906  -18.2141   25.4067 C   0  0  2  0  0  0  0  0  0  0  0  0
   11.0780  -18.2243   23.9267 C   0  0  0  0  0  0  0  0  0  0  0  0
   10.1683  -17.7506   26.1415 C   0  0  2  0  0  0  0  0  0  0  0  0
    9.7909  -16.3982   25.7386 N   0  0  0  0  0  0  0  0  0  0  0  0
   10.4669  -17.7868   27.6062 C   0  0  0  0  0  0  0  0  0  0  0  0
   10.7245  -18.9887   28.2193 O   0  0  0  0  0  0  0  0  0  0  0  0
   10.4903  -16.7505   28.3016 O   0  0  0  0  0  0  0  0  0  0  0  0
  1  2  1  0
  3  5  1  0
  3  2  1  0
  3  4  1  1
  5  6  1  6
  7  5  1  0
  7  8  2  0
 10  9  1  1
 11 10  1  0
 13 12  1  1
 12 10  1  0
 13 14  1  0
 14  7  1  0
 15 13  1  0
 16 15  2  0
 18 17  1  6
 18 20  1  0
 19 18  1  0
 20 22  1  0
 20 21  1  6
 21 15  1  0
 22 23  1  0
 24 22  2  0
M  END
$$$$
