ILV.pdb
     RDKit          3D

 24 23  0  0  1  0  0  0  0  0999 V2000
    7.4203  -18.3518   18.9432 C   0  0  0  0  0  0  0  0  0  0  0  0
    7.5874  -16.9246   19.3687 C   0  0  0  0  0  0  0  0  0  0  0  0
    8.0841  -16.8119   20.7946 C   0  0  2  0  0  0  0  0  0  0  0  0
    7.0892  -17.5752   21.6475 C   0  0  0  0  0  0  0  0  0  0  0  0
    8.1132  -15.3625   21.2065 C   0  0  2  0  0  0  0  0  0  0  0  0
    8.7997  -14.5109   20.3128 N   0  0  0  0  0  0  0  0  0  0  0  0
    8.6296  -15.1681   22.5707 C   0  0  0  0  0  0  0  0  0  0  0  0
    9.8486  -15.0572   22.7644 O   0  0  0  0  0  0  0  0  0  0  0  0
    8.3309  -12.1189   25.9688 C   0  0  0  0  0  0  0  0  0  0  0  0
    6.9967  -12.7857   25.6176 C   0  0  2  0  0  0  0  0  0  0  0  0
    5.8908  -12.1611   26.4261 C   0  0  0  0  0  0  0  0  0  0  0  0
    7.1558  -14.2470   25.9224 C   0  0  0  0  0  0  0  0  0  0  0  0
    8.0801  -14.9910   25.0408 C   0  0  2  0  0  0  0  0  0  0  0  0
    7.7312  -15.1077   23.6637 N   0  0  0  0  0  0  0  0  0  0  0  0
    8.3676  -16.3657   25.6220 C   0  0  0  0  0  0  0  0  0  0  0  0
    7.4684  -17.1897   25.8560 O   0  0  0  0  0  0  0  0  0  0  0  0
   12.3083  -17.9338   25.7838 C   0  0  0  0  0  0  0  0  0  0  0  0
   11.0363  -18.7745   25.6993 C   0  0  2  0  0  0  0  0  0  0  0  0
   10.5878  -18.8921   24.2594 C   0  0  0  0  0  0  0  0  0  0  0  0
    9.9640  -18.0621   26.4684 C   0  0  2  0  0  0  0  0  0  0  0  0
    9.7083  -16.7356   25.9131 N   0  0  0  0  0  0  0  0  0  0  0  0
   10.4125  -17.9473   27.8903 C   0  0  0  0  0  0  0  0  0  0  0  0
   10.6570  -16.7079   28.4294 O   0  0  0  0  0  0  0  0  0  0  0  0
   10.5753  -18.9506   28.6147 O   0  0  0  0  0  0  0  0  0  0  0  0
  1  2  1  0
  3  5  1  0
  3  2  1  0
  3  4  1  1
  5  6  1  6
  7  5  1  0
  7  8  2  0
 10  9  1  1
 11 10  1  0
 13 12  1  1
 12 10  1  0
 13 14  1  0
 14  7  1  0
 15 13  1  0
 16 15  2  0
 18 17  1  6
 18 20  1  0
 19 18  1  0
 20 22  1  0
 20 21  1  6
 21 15  1  0
 22 23  1  0
 24 22  2  0
M  END
$$$$
