ILV.pdb
     RDKit          3D

 24 23  0  0  1  0  0  0  0  0999 V2000
    7.2587  -19.1709   19.0534 C   0  0  0  0  0  0  0  0  0  0  0  0
    7.4866  -17.6971   19.2014 C   0  0  0  0  0  0  0  0  0  0  0  0
    7.9789  -17.3351   20.5867 C   0  0  2  0  0  0  0  0  0  0  0  0
    6.8773  -17.7462   21.5446 C   0  0  0  0  0  0  0  0  0  0  0  0
    8.2072  -15.8478   20.6693 C   0  0  2  0  0  0  0  0  0  0  0  0
    9.0633  -15.3281   19.6732 N   0  0  0  0  0  0  0  0  0  0  0  0
    8.6727  -15.4156   21.9967 C   0  0  0  0  0  0  0  0  0  0  0  0
    9.8708  -15.5133   22.2979 O   0  0  0  0  0  0  0  0  0  0  0  0
    6.0783  -12.5663   26.9023 C   0  0  0  0  0  0  0  0  0  0  0  0
    7.3797  -13.0953   26.2904 C   0  0  2  0  0  0  0  0  0  0  0  0
    8.4232  -12.0101   26.3049 C   0  0  0  0  0  0  0  0  0  0  0  0
    7.0481  -13.5340   24.8936 C   0  0  0  0  0  0  0  0  0  0  0  0
    8.0508  -14.3981   24.2356 C   0  0  2  0  0  0  0  0  0  0  0  0
    7.7492  -14.8870   22.9312 N   0  0  0  0  0  0  0  0  0  0  0  0
    8.4286  -15.5530   25.1486 C   0  0  0  0  0  0  0  0  0  0  0  0
    7.6027  -16.4008   25.5244 O   0  0  0  0  0  0  0  0  0  0  0  0
   11.3858  -17.6646   24.2442 C   0  0  0  0  0  0  0  0  0  0  0  0
   11.5179  -17.3819   25.7391 C   0  0  2  0  0  0  0  0  0  0  0  0
   11.8926  -18.6494   26.4749 C   0  0  0  0  0  0  0  0  0  0  0  0
   10.1797  -16.9266   26.2396 C   0  0  2  0  0  0  0  0  0  0  0  0
    9.7712  -15.6805   25.5962 N   0  0  0  0  0  0  0  0  0  0  0  0
   10.2797  -16.7334   27.7190 C   0  0  0  0  0  0  0  0  0  0  0  0
   10.3424  -17.8281   28.5462 O   0  0  0  0  0  0  0  0  0  0  0  0
   10.3083  -15.5979   28.2366 O   0  0  0  0  0  0  0  0  0  0  0  0
  1  2  1  0
  3  5  1  0
  3  2  1  0
  3  4  1  1
  5  6  1  6
  7  5  1  0
  7  8  2  0
 10  9  1  6
 11 10  1  0
 13 12  1  1
 12 10  1  0
 13 14  1  0
 14  7  1  0
 15 13  1  0
 16 15  2  0
 18 17  1  6
 18 20  1  0
 19 18  1  0
 20 22  1  0
 20 21  1  6
 21 15  1  0
 22 23  1  0
 24 22  2  0
M  END
$$$$
