ILV.pdb
     RDKit          3D

 24 23  0  0  1  0  0  0  0  0999 V2000
   10.2315  -20.3227   20.5393 C   0  0  0  0  0  0  0  0  0  0  0  0
    9.8257  -18.8992   20.3049 C   0  0  0  0  0  0  0  0  0  0  0  0
   10.0133  -18.0446   21.5406 C   0  0  2  0  0  0  0  0  0  0  0  0
    9.1908  -18.7000   22.6333 C   0  0  0  0  0  0  0  0  0  0  0  0
    9.5029  -16.6519   21.2743 C   0  0  2  0  0  0  0  0  0  0  0  0
   10.1126  -16.0018   20.1785 N   0  0  0  0  0  0  0  0  0  0  0  0
    9.5661  -15.7851   22.4617 C   0  0  0  0  0  0  0  0  0  0  0  0
   10.6402  -15.2649   22.7956 O   0  0  0  0  0  0  0  0  0  0  0  0
    5.4774  -13.0993   26.3244 C   0  0  0  0  0  0  0  0  0  0  0  0
    6.9521  -13.2961   25.9578 C   0  0  2  0  0  0  0  0  0  0  0  0
    7.5779  -11.9628   25.6453 C   0  0  0  0  0  0  0  0  0  0  0  0
    6.9789  -14.2181   24.7734 C   0  0  0  0  0  0  0  0  0  0  0  0
    8.3054  -14.7590   24.4091 C   0  0  2  0  0  0  0  0  0  0  0  0
    8.3969  -15.5451   23.2238 N   0  0  0  0  0  0  0  0  0  0  0  0
    8.9036  -15.5172   25.5828 C   0  0  0  0  0  0  0  0  0  0  0  0
    8.8566  -16.7553   25.6675 O   0  0  0  0  0  0  0  0  0  0  0  0
   11.1984  -13.4025   28.4151 C   0  0  0  0  0  0  0  0  0  0  0  0
   10.5571  -14.7188   28.8486 C   0  0  2  0  0  0  0  0  0  0  0  0
   11.5003  -15.4818   29.7523 C   0  0  0  0  0  0  0  0  0  0  0  0
   10.3196  -15.5405   27.6168 C   0  0  2  0  0  0  0  0  0  0  0  0
    9.5430  -14.7974   26.6278 N   0  0  0  0  0  0  0  0  0  0  0  0
    9.5872  -16.7799   28.0210 C   0  0  0  0  0  0  0  0  0  0  0  0
   10.2820  -17.9484   28.2172 O   0  0  0  0  0  0  0  0  0  0  0  0
    8.3503  -16.7915   28.1884 O   0  0  0  0  0  0  0  0  0  0  0  0
  1  2  1  0
  3  5  1  0
  3  2  1  0
  3  4  1  1
  5  6  1  6
  7  5  1  0
  7  8  2  0
 10  9  1  6
 11 10  1  0
 13 12  1  1
 12 10  1  0
 13 14  1  0
 14  7  1  0
 15 13  1  0
 16 15  2  0
 18 17  1  6
 18 20  1  0
 19 18  1  0
 20 22  1  0
 20 21  1  6
 21 15  1  0
 22 23  1  0
 24 22  2  0
M  END
$$$$
