ILV.pdb
     RDKit          3D

 24 23  0  0  1  0  0  0  0  0999 V2000
   10.5785  -19.9599   22.2877 C   0  0  0  0  0  0  0  0  0  0  0  0
   10.2745  -18.5373   21.9278 C   0  0  0  0  0  0  0  0  0  0  0  0
    8.7910  -18.3061   21.7311 C   0  0  2  0  0  0  0  0  0  0  0  0
    8.3616  -19.2518   20.6260 C   0  0  0  0  0  0  0  0  0  0  0  0
    8.5533  -16.8784   21.3111 C   0  0  2  0  0  0  0  0  0  0  0  0
    9.2310  -16.4913   20.1338 N   0  0  0  0  0  0  0  0  0  0  0  0
    8.8367  -15.9137   22.3854 C   0  0  0  0  0  0  0  0  0  0  0  0
    9.8480  -15.1996   22.3293 O   0  0  0  0  0  0  0  0  0  0  0  0
    5.5955  -12.8235   26.6045 C   0  0  0  0  0  0  0  0  0  0  0  0
    6.9955  -13.1779   26.0924 C   0  0  2  0  0  0  0  0  0  0  0  0
    7.6305  -11.9614   25.4730 C   0  0  0  0  0  0  0  0  0  0  0  0
    6.8182  -14.2856   25.0948 C   0  0  0  0  0  0  0  0  0  0  0  0
    8.0636  -14.8860   24.5720 C   0  0  2  0  0  0  0  0  0  0  0  0
    7.9517  -15.8015   23.4853 N   0  0  0  0  0  0  0  0  0  0  0  0
    8.8572  -15.5180   25.7038 C   0  0  0  0  0  0  0  0  0  0  0  0
    8.7380  -16.7152   26.0114 O   0  0  0  0  0  0  0  0  0  0  0  0
   10.8030  -13.1150   28.4758 C   0  0  0  0  0  0  0  0  0  0  0  0
   10.4262  -14.5604   28.7932 C   0  0  2  0  0  0  0  0  0  0  0  0
   11.3991  -15.1414   29.7953 C   0  0  0  0  0  0  0  0  0  0  0  0
   10.5318  -15.3512   27.5234 C   0  0  2  0  0  0  0  0  0  0  0  0
    9.7723  -14.7231   26.4454 N   0  0  0  0  0  0  0  0  0  0  0  0
   10.0076  -16.7262   27.7891 C   0  0  0  0  0  0  0  0  0  0  0  0
   10.8858  -17.7592   28.0093 O   0  0  0  0  0  0  0  0  0  0  0  0
    8.7844  -16.9728   27.8180 O   0  0  0  0  0  0  0  0  0  0  0  0
  1  2  1  0
  3  5  1  0
  3  2  1  0
  3  4  1  6
  5  6  1  6
  7  5  1  0
  7  8  2  0
 10  9  1  6
 11 10  1  0
 13 12  1  1
 12 10  1  0
 13 14  1  0
 14  7  1  0
 15 13  1  0
 16 15  2  0
 18 17  1  6
 18 20  1  0
 19 18  1  0
 20 22  1  0
 20 21  1  6
 21 15  1  0
 22 23  1  0
 24 22  2  0
M  END
$$$$
