TAN.pdb
     RDKit          3D

 21 20  0  0  1  0  0  0  0  0999 V2000
    6.9055  -16.1606   20.9118 C   0  0  0  0  0  0  0  0  0  0  0  0
    7.7976  -15.1949   20.2049 C   0  0  1  0  0  0  0  0  0  0  0  0
    7.8596  -15.4332   18.8493 O   0  0  0  0  0  0  0  0  0  0  0  0
    7.4571  -13.7507   20.5259 C   0  0  2  0  0  0  0  0  0  0  0  0
    7.9873  -12.8405   19.5584 N   0  0  0  0  0  0  0  0  0  0  0  0
    7.8751  -13.4022   21.9192 C   0  0  0  0  0  0  0  0  0  0  0  0
    9.0687  -13.0739   22.1666 O   0  0  0  0  0  0  0  0  0  0  0  0
    6.1288  -12.7123   25.1237 C   0  0  0  0  0  0  0  0  0  0  0  0
    7.4044  -12.9906   24.3606 C   0  0  2  0  0  0  0  0  0  0  0  0
    6.9884  -13.4161   23.0209 N   0  0  0  0  0  0  0  0  0  0  0  0
    8.2335  -14.0256   25.0053 C   0  0  0  0  0  0  0  0  0  0  0  0
    8.5506  -13.8690   26.2116 O   0  0  0  0  0  0  0  0  0  0  0  0
   10.8750  -18.2914   26.2425 N   0  0  0  0  0  0  0  0  0  0  0  0
    9.4555  -18.4378   26.0651 C   0  0  0  0  0  0  0  0  0  0  0  0
    8.9669  -19.4994   26.5385 O   0  0  0  0  0  0  0  0  0  0  0  0
    8.6748  -17.3882   25.3713 C   0  0  0  0  0  0  0  0  0  0  0  0
    9.5115  -16.2142   24.9358 C   0  0  2  0  0  0  0  0  0  0  0  0
    8.6823  -15.1693   24.3390 N   0  0  0  0  0  0  0  0  0  0  0  0
   10.6309  -16.5851   24.0397 C   0  0  0  0  0  0  0  0  0  0  0  0
   10.3149  -17.0542   22.8953 O   0  0  0  0  0  0  0  0  0  0  0  0
   11.9582  -16.4675   24.3333 O   0  0  0  0  0  0  0  0  0  0  0  0
  2  1  1  6
  2  3  1  0
  4  2  1  0
  4  5  1  6
  6  4  1  0
  6 10  1  0
  7  6  2  0
  9  8  1  1
  9 10  1  0
  9 11  1  0
 11 12  2  0
 11 18  1  0
 13 14  1  0
 14 15  2  0
 16 14  1  0
 17 16  1  6
 17 19  1  0
 18 17  1  0
 19 21  1  0
 20 19  2  0
M  END
$$$$
