TAN.pdb
     RDKit          3D

 21 20  0  0  1  0  0  0  0  0999 V2000
    8.2484  -12.2510   18.6554 C   0  0  0  0  0  0  0  0  0  0  0  0
    8.1906  -13.6956   18.2839 C   0  0  1  0  0  0  0  0  0  0  0  0
    8.3356  -13.8951   16.9284 O   0  0  0  0  0  0  0  0  0  0  0  0
    9.1494  -14.5423   19.1016 C   0  0  2  0  0  0  0  0  0  0  0  0
    9.0830  -15.9275   18.7520 N   0  0  0  0  0  0  0  0  0  0  0  0
    8.9421  -14.3176   20.5658 C   0  0  0  0  0  0  0  0  0  0  0  0
    9.2339  -13.2074   21.0910 O   0  0  0  0  0  0  0  0  0  0  0  0
    6.9969  -15.7773   23.2805 C   0  0  0  0  0  0  0  0  0  0  0  0
    8.2719  -15.0723   22.8751 C   0  0  2  0  0  0  0  0  0  0  0  0
    8.4206  -15.3038   21.4352 N   0  0  0  0  0  0  0  0  0  0  0  0
    9.4498  -15.5689   23.6101 C   0  0  0  0  0  0  0  0  0  0  0  0
    9.3875  -15.6296   24.8642 O   0  0  0  0  0  0  0  0  0  0  0  0
   11.5793  -16.5540   26.4629 N   0  0  0  0  0  0  0  0  0  0  0  0
   11.4404  -17.7946   25.7490 C   0  0  0  0  0  0  0  0  0  0  0  0
   11.2132  -18.8020   26.4723 O   0  0  0  0  0  0  0  0  0  0  0  0
   11.5637  -17.8281   24.2738 C   0  0  0  0  0  0  0  0  0  0  0  0
   11.8177  -16.4734   23.6670 C   0  0  2  0  0  0  0  0  0  0  0  0
   10.6293  -15.9735   22.9789 N   0  0  0  0  0  0  0  0  0  0  0  0
   13.0040  -16.4347   22.7811 C   0  0  0  0  0  0  0  0  0  0  0  0
   12.7798  -16.4638   21.5248 O   0  0  0  0  0  0  0  0  0  0  0  0
   14.3033  -16.3705   23.1929 O   0  0  0  0  0  0  0  0  0  0  0  0
  2  1  1  6
  2  3  1  0
  4  2  1  0
  4  5  1  1
  6  4  1  0
  6 10  1  0
  7  6  2  0
  9  8  1  1
  9 10  1  0
  9 11  1  0
 11 12  2  0
 11 18  1  0
 13 14  1  0
 14 15  2  0
 16 14  1  0
 17 16  1  6
 17 19  1  0
 18 17  1  0
 19 21  1  0
 20 19  2  0
M  END
$$$$
