TAN.pdb
     RDKit          3D

 21 20  0  0  1  0  0  0  0  0999 V2000
    7.4377  -16.2808   19.6682 C   0  0  0  0  0  0  0  0  0  0  0  0
    8.1316  -15.1426   18.9967 C   0  0  1  0  0  0  0  0  0  0  0  0
    7.9948  -15.1794   17.6263 O   0  0  0  0  0  0  0  0  0  0  0  0
    7.7400  -13.7984   19.5837 C   0  0  2  0  0  0  0  0  0  0  0  0
    8.1381  -12.7061   18.7507 N   0  0  0  0  0  0  0  0  0  0  0  0
    8.2512  -13.6590   20.9824 C   0  0  0  0  0  0  0  0  0  0  0  0
    9.4056  -13.1965   21.1993 O   0  0  0  0  0  0  0  0  0  0  0  0
    6.7843  -13.7973   24.3798 C   0  0  0  0  0  0  0  0  0  0  0  0
    8.0030  -13.8256   23.4849 C   0  0  2  0  0  0  0  0  0  0  0  0
    7.4988  -14.0247   22.1229 N   0  0  0  0  0  0  0  0  0  0  0  0
    8.9501  -14.8935   23.8545 C   0  0  0  0  0  0  0  0  0  0  0  0
    9.4878  -14.8464   24.9898 O   0  0  0  0  0  0  0  0  0  0  0  0
   10.6773  -18.1121   20.7939 N   0  0  0  0  0  0  0  0  0  0  0  0
   11.7379  -17.3804   21.4325 C   0  0  0  0  0  0  0  0  0  0  0  0
   12.7901  -17.2623   20.7478 O   0  0  0  0  0  0  0  0  0  0  0  0
   11.5531  -16.8280   22.7937 C   0  0  0  0  0  0  0  0  0  0  0  0
   10.1710  -17.0567   23.3463 C   0  0  2  0  0  0  0  0  0  0  0  0
    9.2773  -15.9525   23.0032 N   0  0  0  0  0  0  0  0  0  0  0  0
   10.1529  -17.3261   24.8026 C   0  0  0  0  0  0  0  0  0  0  0  0
    9.8872  -16.3360   25.5632 O   0  0  0  0  0  0  0  0  0  0  0  0
   10.3937  -18.5329   25.3920 O   0  0  0  0  0  0  0  0  0  0  0  0
  2  1  1  1
  2  3  1  0
  4  2  1  0
  4  5  1  6
  6  4  1  0
  6 10  1  0
  7  6  2  0
  9  8  1  1
  9 10  1  0
  9 11  1  0
 11 12  2  0
 11 18  1  0
 13 14  1  0
 14 15  2  0
 16 14  1  0
 17 16  1  1
 17 19  1  0
 18 17  1  0
 19 21  1  0
 20 19  2  0
M  END
$$$$
