TAN.pdb
     RDKit          3D

 21 20  0  0  1  0  0  0  0  0999 V2000
    8.2756  -17.2430   17.6422 C   0  0  0  0  0  0  0  0  0  0  0  0
    8.6498  -16.2366   16.6052 C   0  0  1  0  0  0  0  0  0  0  0  0
    8.5100  -16.7254   15.3248 O   0  0  0  0  0  0  0  0  0  0  0  0
    7.9372  -14.9105   16.8019 C   0  0  2  0  0  0  0  0  0  0  0  0
    7.9959  -14.0851   15.6354 N   0  0  0  0  0  0  0  0  0  0  0  0
    8.4480  -14.2071   18.0191 C   0  0  0  0  0  0  0  0  0  0  0  0
    8.7161  -12.9741   17.9811 O   0  0  0  0  0  0  0  0  0  0  0  0
    7.2409  -13.4264   20.5240 C   0  0  0  0  0  0  0  0  0  0  0  0
    8.5734  -14.1415   20.5354 C   0  0  2  0  0  0  0  0  0  0  0  0
    8.6589  -14.8558   19.2581 N   0  0  0  0  0  0  0  0  0  0  0  0
    8.7027  -15.0763   21.6683 C   0  0  0  0  0  0  0  0  0  0  0  0
    8.3538  -14.6813   22.8096 O   0  0  0  0  0  0  0  0  0  0  0  0
   10.6095  -18.7932   20.1164 N   0  0  0  0  0  0  0  0  0  0  0  0
   11.6220  -17.7735   20.1729 C   0  0  0  0  0  0  0  0  0  0  0  0
   12.4918  -17.8365   19.2622 O   0  0  0  0  0  0  0  0  0  0  0  0
   11.5958  -16.7500   21.2426 C   0  0  0  0  0  0  0  0  0  0  0  0
   10.4119  -16.8822   22.1639 C   0  0  2  0  0  0  0  0  0  0  0  0
    9.1944  -16.3776   21.5325 N   0  0  0  0  0  0  0  0  0  0  0  0
   10.6227  -16.2603   23.4914 C   0  0  0  0  0  0  0  0  0  0  0  0
   10.5271  -14.9887   23.5480 O   0  0  0  0  0  0  0  0  0  0  0  0
   10.9071  -16.9277   24.6471 O   0  0  0  0  0  0  0  0  0  0  0  0
  2  1  1  1
  2  3  1  0
  4  2  1  0
  4  5  1  6
  6  4  1  0
  6 10  1  0
  7  6  2  0
  9  8  1  1
  9 10  1  0
  9 11  1  0
 11 12  2  0
 11 18  1  0
 13 14  1  0
 14 15  2  0
 16 14  1  0
 17 16  1  6
 17 19  1  0
 18 17  1  0
 19 21  1  0
 20 19  2  0
M  END
$$$$
