TAN.pdb
     RDKit          3D

 21 20  0  0  1  0  0  0  0  0999 V2000
    7.0224  -17.3376   14.5142 C   0  0  0  0  0  0  0  0  0  0  0  0
    7.7194  -16.7281   15.6850 C   0  0  1  0  0  0  0  0  0  0  0  0
    8.7313  -17.5284   16.1684 O   0  0  0  0  0  0  0  0  0  0  0  0
    8.1829  -15.3091   15.4084 C   0  0  2  0  0  0  0  0  0  0  0  0
    9.0043  -15.2248   14.2406 N   0  0  0  0  0  0  0  0  0  0  0  0
    8.8491  -14.7225   16.6123 C   0  0  0  0  0  0  0  0  0  0  0  0
   10.1070  -14.7342   16.7177 O   0  0  0  0  0  0  0  0  0  0  0  0
    7.7302  -12.9701   19.7168 C   0  0  0  0  0  0  0  0  0  0  0  0
    8.8144  -13.5868   18.8619 C   0  0  2  0  0  0  0  0  0  0  0  0
    8.1366  -14.1324   17.6821 N   0  0  0  0  0  0  0  0  0  0  0  0
    9.5615  -14.6415   19.5717 C   0  0  0  0  0  0  0  0  0  0  0  0
    9.1280  -15.8201   19.5145 O   0  0  0  0  0  0  0  0  0  0  0  0
   14.0734  -13.7802   19.3322 N   0  0  0  0  0  0  0  0  0  0  0  0
   13.5565  -15.0215   19.8422 C   0  0  0  0  0  0  0  0  0  0  0  0
   13.7038  -16.0133   19.0777 O   0  0  0  0  0  0  0  0  0  0  0  0
   12.9096  -15.0734   21.1730 C   0  0  0  0  0  0  0  0  0  0  0  0
   11.4374  -15.3835   21.1075 C   0  0  2  0  0  0  0  0  0  0  0  0
   10.7258  -14.3920   20.3036 N   0  0  0  0  0  0  0  0  0  0  0  0
   10.8068  -15.5452   22.4378 C   0  0  0  0  0  0  0  0  0  0  0  0
    9.8569  -14.7408   22.7210 O   0  0  0  0  0  0  0  0  0  0  0  0
   11.1535  -16.4737   23.3756 O   0  0  0  0  0  0  0  0  0  0  0  0
  2  1  1  6
  2  3  1  0
  4  2  1  0
  4  5  1  6
  6  4  1  0
  6 10  1  0
  7  6  2  0
  9  8  1  1
  9 10  1  0
  9 11  1  0
 11 12  2  0
 11 18  1  0
 13 14  1  0
 14 15  2  0
 16 14  1  0
 17 16  1  1
 17 19  1  0
 18 17  1  0
 19 21  1  0
 20 19  2  0
M  END
$$$$
