EGI.pdb
     RDKit          3D

 22 21  0  0  1  0  0  0  0  0999 V2000
   26.0543  -17.9340  -17.9720 N   0  0  0  0  0  0  0  0  0  0  0  0
   27.4848  -18.0851  -17.6266 C   0  0  1  0  0  0  0  0  0  0  0  0
   28.2022  -16.9118  -18.2381 C   0  0  0  0  0  0  0  0  0  0  0  0
   28.2372  -16.9380  -19.7164 C   0  0  0  0  0  0  0  0  0  0  0  0
   27.0479  -16.3245  -20.3128 C   0  0  0  0  0  0  0  0  0  0  0  0
   26.3570  -16.9493  -21.1394 O   0  0  0  0  0  0  0  0  0  0  0  0
   27.5872  -18.0431  -16.1415 C   0  0  0  0  0  0  0  0  0  0  0  0
   28.7282  -18.2197  -15.5896 O   0  0  0  0  0  0  0  0  0  0  0  0
   26.6288  -15.0283  -19.9944 O   0  0  0  0  0  0  0  0  0  0  0  0
   26.4639  -17.8120  -15.3387 N   0  0  0  0  0  0  0  0  0  0  0  0
   26.6398  -17.8990  -13.8964 C   0  0  0  0  0  0  0  0  0  0  0  0
   26.1166  -19.2010  -13.4183 C   0  0  0  0  0  0  0  0  0  0  0  0
   25.6747  -20.1064  -14.1735 O   0  0  0  0  0  0  0  0  0  0  0  0
   26.1985  -20.7849   -7.8269 C   0  0  0  0  0  0  0  0  0  0  0  0
   26.3473  -20.1543   -9.1616 C   0  0  0  0  0  0  0  0  0  0  0  0
   26.5306  -21.0494  -10.3283 C   0  0  2  0  0  0  0  0  0  0  0  0
   27.9538  -21.3517  -10.6907 C   0  0  0  0  0  0  0  0  0  0  0  0
   25.6866  -20.8266  -11.5405 C   0  0  2  0  0  0  0  0  0  0  0  0
   26.0967  -19.4812  -12.0255 N   0  0  0  0  0  0  0  0  0  0  0  0
   24.2466  -20.8050  -11.2532 C   0  0  0  0  0  0  0  0  0  0  0  0
   23.4399  -19.7006  -11.1673 O   0  0  0  0  0  0  0  0  0  0  0  0
   23.6478  -21.9267  -11.0504 O   0  0  0  0  0  0  0  0  0  0  0  0
  2  1  1  1
  2  3  1  0
  3  4  1  0
  4  5  1  0
  5  9  1  0
  6  5  2  0
  7  2  1  0
  7  8  2  0
 10  7  1  0
 11 10  1  0
 11 12  1  0
 12 13  2  0
 12 19  1  0
 15 14  1  0
 16 15  1  0
 16 17  1  6
 18 16  1  0
 18 20  1  0
 18 19  1  1
 20 21  1  0
 22 20  2  0
M  END
$$$$
