EGI.pdb
     RDKit          3D

 22 21  0  0  1  0  0  0  0  0999 V2000
   22.3438  -18.4765  -14.7964 N   0  0  0  0  0  0  0  0  0  0  0  0
   23.0113  -18.8261  -16.0694 C   0  0  1  0  0  0  0  0  0  0  0  0
   22.6157  -17.7713  -17.0675 C   0  0  0  0  0  0  0  0  0  0  0  0
   21.9916  -16.5770  -16.4580 C   0  0  0  0  0  0  0  0  0  0  0  0
   21.1263  -15.8597  -17.3979 C   0  0  0  0  0  0  0  0  0  0  0  0
   21.6146  -15.1365  -18.2864 O   0  0  0  0  0  0  0  0  0  0  0  0
   24.4796  -18.7871  -15.8233 C   0  0  0  0  0  0  0  0  0  0  0  0
   25.2357  -19.6249  -16.4266 O   0  0  0  0  0  0  0  0  0  0  0  0
   19.7306  -15.9444  -17.3520 O   0  0  0  0  0  0  0  0  0  0  0  0
   25.0485  -17.8529  -14.9497 N   0  0  0  0  0  0  0  0  0  0  0  0
   26.4992  -17.8411  -14.8309 C   0  0  0  0  0  0  0  0  0  0  0  0
   26.9249  -18.9444  -13.9370 C   0  0  0  0  0  0  0  0  0  0  0  0
   28.1257  -19.2419  -13.7026 O   0  0  0  0  0  0  0  0  0  0  0  0
   25.9518  -20.7582   -8.5296 C   0  0  0  0  0  0  0  0  0  0  0  0
   26.4538  -21.1570   -9.8677 C   0  0  0  0  0  0  0  0  0  0  0  0
   25.8911  -20.4608  -11.0486 C   0  0  2  0  0  0  0  0  0  0  0  0
   24.4097  -20.2319  -11.0159 C   0  0  0  0  0  0  0  0  0  0  0  0
   26.3582  -20.8667  -12.4082 C   0  0  2  0  0  0  0  0  0  0  0  0
   25.9436  -19.7389  -13.2855 N   0  0  0  0  0  0  0  0  0  0  0  0
   25.7290  -22.1001  -12.8975 C   0  0  0  0  0  0  0  0  0  0  0  0
   24.6829  -22.1987  -13.7771 O   0  0  0  0  0  0  0  0  0  0  0  0
   26.1817  -23.2272  -12.4700 O   0  0  0  0  0  0  0  0  0  0  0  0
  2  1  1  1
  2  3  1  0
  3  4  1  0
  4  5  1  0
  5  9  1  0
  6  5  2  0
  7  2  1  0
  7  8  2  0
 10  7  1  0
 11 10  1  0
 11 12  1  0
 12 13  2  0
 12 19  1  0
 15 14  1  0
 16 15  1  0
 16 17  1  6
 18 16  1  0
 18 20  1  0
 18 19  1  6
 20 21  1  0
 22 20  2  0
M  END
$$$$
