EGI.pdb
     RDKit          3D

 22 21  0  0  1  0  0  0  0  0999 V2000
   17.5122  -10.8777  -16.3901 N   0  0  0  0  0  0  0  0  0  0  0  0
   17.6905  -10.1075  -17.6405 C   0  0  1  0  0  0  0  0  0  0  0  0
   16.4416  -10.3128  -18.4550 C   0  0  0  0  0  0  0  0  0  0  0  0
   16.2356  -11.7114  -18.8895 C   0  0  0  0  0  0  0  0  0  0  0  0
   17.1268  -12.0902  -19.9890 C   0  0  0  0  0  0  0  0  0  0  0  0
   17.1366  -13.2562  -20.4264 O   0  0  0  0  0  0  0  0  0  0  0  0
   17.8356   -8.6751  -17.2598 C   0  0  0  0  0  0  0  0  0  0  0  0
   18.1094   -7.8136  -18.1656 O   0  0  0  0  0  0  0  0  0  0  0  0
   17.9998  -11.1824  -20.5981 O   0  0  0  0  0  0  0  0  0  0  0  0
   17.6761   -8.2523  -15.9349 N   0  0  0  0  0  0  0  0  0  0  0  0
   17.8186   -6.8296  -15.6622 C   0  0  0  0  0  0  0  0  0  0  0  0
   18.8114   -6.6371  -14.5784 C   0  0  0  0  0  0  0  0  0  0  0  0
   18.5761   -6.8423  -13.3586 O   0  0  0  0  0  0  0  0  0  0  0  0
   22.4237   -9.2799  -12.8249 C   0  0  0  0  0  0  0  0  0  0  0  0
   22.9479   -8.4415  -13.9311 C   0  0  0  0  0  0  0  0  0  0  0  0
   21.9752   -7.6277  -14.6974 C   0  0  2  0  0  0  0  0  0  0  0  0
   22.4158   -7.2230  -16.0723 C   0  0  0  0  0  0  0  0  0  0  0  0
   21.2611   -6.5185  -13.9966 C   0  0  2  0  0  0  0  0  0  0  0  0
   20.1229   -6.1936  -14.8979 N   0  0  0  0  0  0  0  0  0  0  0  0
   22.0826   -5.3137  -13.8222 C   0  0  0  0  0  0  0  0  0  0  0  0
   22.7565   -4.9323  -12.6917 O   0  0  0  0  0  0  0  0  0  0  0  0
   22.1991   -4.5053  -14.8177 O   0  0  0  0  0  0  0  0  0  0  0  0
  2  1  1  1
  2  3  1  0
  3  4  1  0
  4  5  1  0
  5  9  1  0
  6  5  2  0
  7  2  1  0
  7  8  2  0
 10  7  1  0
 11 10  1  0
 11 12  1  0
 12 13  2  0
 12 19  1  0
 15 14  1  0
 16 15  1  0
 16 17  1  6
 18 16  1  0
 18 20  1  0
 18 19  1  6
 20 21  1  0
 22 20  2  0
M  END
$$$$
