EGI.pdb
     RDKit          3D

 22 21  0  0  1  0  0  0  0  0999 V2000
   23.9504  -22.0468  -12.7132 N   0  0  0  0  0  0  0  0  0  0  0  0
   25.2747  -21.3930  -12.7979 C   0  0  1  0  0  0  0  0  0  0  0  0
   25.2764  -20.5858  -14.0683 C   0  0  0  0  0  0  0  0  0  0  0  0
   24.0402  -19.8016  -14.2788 C   0  0  0  0  0  0  0  0  0  0  0  0
   23.2325  -20.3214  -15.3852 C   0  0  0  0  0  0  0  0  0  0  0  0
   22.1071  -20.8115  -15.1751 O   0  0  0  0  0  0  0  0  0  0  0  0
   25.4032  -20.5007  -11.6126 C   0  0  0  0  0  0  0  0  0  0  0  0
   24.7344  -19.4102  -11.5772 O   0  0  0  0  0  0  0  0  0  0  0  0
   23.6702  -20.2974  -16.7137 O   0  0  0  0  0  0  0  0  0  0  0  0
   26.2364  -20.8310  -10.5373 N   0  0  0  0  0  0  0  0  0  0  0  0
   26.3027  -19.8931   -9.4262 C   0  0  0  0  0  0  0  0  0  0  0  0
   27.2147  -20.4295   -8.3879 C   0  0  0  0  0  0  0  0  0  0  0  0
   27.7307  -21.5775   -8.4241 O   0  0  0  0  0  0  0  0  0  0  0  0
   30.9991  -20.3759   -4.5274 C   0  0  0  0  0  0  0  0  0  0  0  0
   29.7983  -19.5454   -4.2636 C   0  0  0  0  0  0  0  0  0  0  0  0
   28.9396  -19.1920   -5.4184 C   0  0  2  0  0  0  0  0  0  0  0  0
   28.2008  -17.8928   -5.2979 C   0  0  0  0  0  0  0  0  0  0  0  0
   28.0893  -20.2570   -6.0302 C   0  0  2  0  0  0  0  0  0  0  0  0
   27.5510  -19.6261   -7.2654 N   0  0  0  0  0  0  0  0  0  0  0  0
   26.9632  -20.6649   -5.1804 C   0  0  0  0  0  0  0  0  0  0  0  0
   25.6491  -20.3043   -5.3246 O   0  0  0  0  0  0  0  0  0  0  0  0
   27.2026  -21.4405   -4.1808 O   0  0  0  0  0  0  0  0  0  0  0  0
  2  1  1  1
  2  3  1  0
  3  4  1  0
  4  5  1  0
  5  9  1  0
  6  5  2  0
  7  2  1  0
  7  8  2  0
 10  7  1  0
 11 10  1  0
 11 12  1  0
 12 13  2  0
 12 19  1  0
 15 14  1  0
 16 15  1  0
 16 17  1  1
 18 16  1  0
 18 20  1  0
 18 19  1  6
 20 21  1  0
 22 20  2  0
M  END
$$$$
