EGI.pdb
     RDKit          3D

 22 21  0  0  1  0  0  0  0  0999 V2000
   26.6617  -18.8348  -17.0733 N   0  0  0  0  0  0  0  0  0  0  0  0
   25.4468  -19.4454  -16.4906 C   0  0  1  0  0  0  0  0  0  0  0  0
   24.9123  -20.4068  -17.5179 C   0  0  0  0  0  0  0  0  0  0  0  0
   24.0292  -19.7763  -18.5229 C   0  0  0  0  0  0  0  0  0  0  0  0
   22.7107  -19.4453  -17.9764 C   0  0  0  0  0  0  0  0  0  0  0  0
   22.0027  -20.3234  -17.4486 O   0  0  0  0  0  0  0  0  0  0  0  0
   25.8653  -20.1746  -15.2614 C   0  0  0  0  0  0  0  0  0  0  0  0
   24.9782  -20.7696  -14.5566 O   0  0  0  0  0  0  0  0  0  0  0  0
   22.1823  -18.1506  -18.0154 O   0  0  0  0  0  0  0  0  0  0  0  0
   27.2065  -20.2250  -14.8638 N   0  0  0  0  0  0  0  0  0  0  0  0
   27.5263  -21.0050  -13.6771 C   0  0  0  0  0  0  0  0  0  0  0  0
   26.9561  -20.3350  -12.4840 C   0  0  0  0  0  0  0  0  0  0  0  0
   26.8679  -19.0864  -12.3482 O   0  0  0  0  0  0  0  0  0  0  0  0
   22.2257  -21.0779  -11.6224 C   0  0  0  0  0  0  0  0  0  0  0  0
   23.6340  -20.6155  -11.5576 C   0  0  0  0  0  0  0  0  0  0  0  0
   24.3945  -20.8993  -10.3179 C   0  0  2  0  0  0  0  0  0  0  0  0
   23.6599  -20.6365   -9.0374 C   0  0  0  0  0  0  0  0  0  0  0  0
   25.8205  -20.4618  -10.2373 C   0  0  2  0  0  0  0  0  0  0  0  0
   26.4678  -21.1192  -11.4045 N   0  0  0  0  0  0  0  0  0  0  0  0
   26.4984  -20.9039   -9.0119 C   0  0  0  0  0  0  0  0  0  0  0  0
   26.6556  -20.1892   -7.8534 O   0  0  0  0  0  0  0  0  0  0  0  0
   27.0159  -22.0829   -8.9922 O   0  0  0  0  0  0  0  0  0  0  0  0
  2  1  1  6
  2  3  1  0
  3  4  1  0
  4  5  1  0
  5  9  1  0
  6  5  2  0
  7  2  1  0
  7  8  2  0
 10  7  1  0
 11 10  1  0
 11 12  1  0
 12 13  2  0
 12 19  1  0
 15 14  1  0
 16 15  1  0
 16 17  1  1
 18 16  1  0
 18 20  1  0
 18 19  1  6
 20 21  1  0
 22 20  2  0
M  END
$$$$
