EGI.pdb
     RDKit          3D

 22 21  0  0  1  0  0  0  0  0999 V2000
   26.1072  -21.4478  -15.5709 N   0  0  0  0  0  0  0  0  0  0  0  0
   26.0037  -20.0858  -15.0026 C   0  0  1  0  0  0  0  0  0  0  0  0
   24.5434  -19.8416  -14.7320 C   0  0  0  0  0  0  0  0  0  0  0  0
   23.6500  -20.8730  -15.3024 C   0  0  0  0  0  0  0  0  0  0  0  0
   22.3994  -20.3059  -15.8134 C   0  0  0  0  0  0  0  0  0  0  0  0
   21.4750  -20.0021  -15.0363 O   0  0  0  0  0  0  0  0  0  0  0  0
   26.7785  -20.0781  -13.7308 C   0  0  0  0  0  0  0  0  0  0  0  0
   26.7577  -19.0319  -12.9941 O   0  0  0  0  0  0  0  0  0  0  0  0
   22.1768  -20.0779  -17.1756 O   0  0  0  0  0  0  0  0  0  0  0  0
   27.5250  -21.1903  -13.3243 N   0  0  0  0  0  0  0  0  0  0  0  0
   28.3175  -21.0599  -12.1102 C   0  0  0  0  0  0  0  0  0  0  0  0
   27.4768  -21.4046  -10.9389 C   0  0  0  0  0  0  0  0  0  0  0  0
   26.7673  -22.4417  -10.8579 O   0  0  0  0  0  0  0  0  0  0  0  0
   29.3238  -19.1689   -6.3148 C   0  0  0  0  0  0  0  0  0  0  0  0
   28.7342  -20.1488   -7.2601 C   0  0  0  0  0  0  0  0  0  0  0  0
   27.2778  -20.0634   -7.5194 C   0  0  2  0  0  0  0  0  0  0  0  0
   26.4073  -20.0290   -6.2991 C   0  0  0  0  0  0  0  0  0  0  0  0
   26.6909  -20.9197   -8.5936 C   0  0  2  0  0  0  0  0  0  0  0  0
   27.4440  -20.5333   -9.8171 N   0  0  0  0  0  0  0  0  0  0  0  0
   25.2616  -20.6717   -8.8222 C   0  0  0  0  0  0  0  0  0  0  0  0
   24.2126  -21.4418   -8.3930 O   0  0  0  0  0  0  0  0  0  0  0  0
   24.9237  -19.6297   -9.4991 O   0  0  0  0  0  0  0  0  0  0  0  0
  2  1  1  1
  2  3  1  0
  3  4  1  0
  4  5  1  0
  5  9  1  0
  6  5  2  0
  7  2  1  0
  7  8  2  0
 10  7  1  0
 11 10  1  0
 11 12  1  0
 12 13  2  0
 12 19  1  0
 15 14  1  0
 16 15  1  0
 16 17  1  1
 18 16  1  0
 18 20  1  0
 18 19  1  6
 20 21  1  0
 22 20  2  0
M  END
$$$$
