EGI.pdb
     RDKit          3D

 22 21  0  0  1  0  0  0  0  0999 V2000
   23.1706  -21.1266  -10.9106 N   0  0  0  0  0  0  0  0  0  0  0  0
   24.4170  -21.4311  -11.6471 C   0  0  1  0  0  0  0  0  0  0  0  0
   24.2837  -20.7912  -13.0029 C   0  0  0  0  0  0  0  0  0  0  0  0
   23.2431  -19.7422  -13.0681 C   0  0  0  0  0  0  0  0  0  0  0  0
   21.9294  -20.2823  -13.4272 C   0  0  0  0  0  0  0  0  0  0  0  0
   20.8896  -19.6450  -13.1752 O   0  0  0  0  0  0  0  0  0  0  0  0
   25.5402  -20.8153  -10.8876 C   0  0  0  0  0  0  0  0  0  0  0  0
   26.7407  -20.9982  -11.2916 O   0  0  0  0  0  0  0  0  0  0  0  0
   21.7710  -21.5195  -14.0607 O   0  0  0  0  0  0  0  0  0  0  0  0
   25.3102  -20.0398   -9.7452 N   0  0  0  0  0  0  0  0  0  0  0  0
   26.4618  -19.4040   -9.1220 C   0  0  0  0  0  0  0  0  0  0  0  0
   26.7386  -20.0612   -7.8223 C   0  0  0  0  0  0  0  0  0  0  0  0
   26.1910  -21.1279   -7.4380 O   0  0  0  0  0  0  0  0  0  0  0  0
   31.6830  -20.8053   -4.6594 C   0  0  0  0  0  0  0  0  0  0  0  0
   30.2995  -20.3469   -4.3820 C   0  0  0  0  0  0  0  0  0  0  0  0
   29.5277  -19.7697   -5.5077 C   0  0  2  0  0  0  0  0  0  0  0  0
   29.6587  -18.2866   -5.6848 C   0  0  0  0  0  0  0  0  0  0  0  0
   28.1231  -20.2305   -5.7228 C   0  0  2  0  0  0  0  0  0  0  0  0
   27.6757  -19.4795   -6.9267 N   0  0  0  0  0  0  0  0  0  0  0  0
   27.2256  -19.9083   -4.6061 C   0  0  0  0  0  0  0  0  0  0  0  0
   26.9391  -20.6992   -3.5244 O   0  0  0  0  0  0  0  0  0  0  0  0
   26.6235  -18.7701   -4.6159 O   0  0  0  0  0  0  0  0  0  0  0  0
  2  1  1  1
  2  3  1  0
  3  4  1  0
  4  5  1  0
  5  9  1  0
  6  5  2  0
  7  2  1  0
  7  8  2  0
 10  7  1  0
 11 10  1  0
 11 12  1  0
 12 13  2  0
 12 19  1  0
 15 14  1  0
 16 15  1  0
 16 17  1  1
 18 16  1  0
 18 20  1  0
 18 19  1  6
 20 21  1  0
 22 20  2  0
M  END
$$$$
