EGI.pdb
     RDKit          3D

 22 21  0  0  1  0  0  0  0  0999 V2000
   23.9033  -21.0364  -16.1843 N   0  0  0  0  0  0  0  0  0  0  0  0
   24.6466  -19.7642  -16.3166 C   0  0  1  0  0  0  0  0  0  0  0  0
   23.6996  -18.7744  -16.9402 C   0  0  0  0  0  0  0  0  0  0  0  0
   23.7139  -18.7849  -18.4191 C   0  0  0  0  0  0  0  0  0  0  0  0
   24.9702  -18.2678  -18.9676 C   0  0  0  0  0  0  0  0  0  0  0  0
   25.8599  -19.0455  -19.3609 O   0  0  0  0  0  0  0  0  0  0  0  0
   25.0259  -19.3296  -14.9436 C   0  0  0  0  0  0  0  0  0  0  0  0
   24.1047  -19.0328  -14.1064 O   0  0  0  0  0  0  0  0  0  0  0  0
   25.2370  -16.8990  -19.0788 O   0  0  0  0  0  0  0  0  0  0  0  0
   26.3665  -19.2421  -14.5501 N   0  0  0  0  0  0  0  0  0  0  0  0
   26.6395  -18.8078  -13.1878 C   0  0  0  0  0  0  0  0  0  0  0  0
   26.3890  -19.9339  -12.2568 C   0  0  0  0  0  0  0  0  0  0  0  0
   26.1420  -21.1130  -12.6229 O   0  0  0  0  0  0  0  0  0  0  0  0
   27.7665  -19.1452   -6.7538 C   0  0  0  0  0  0  0  0  0  0  0  0
   26.8759  -19.3701   -7.9189 C   0  0  0  0  0  0  0  0  0  0  0  0
   27.1566  -20.5406   -8.7831 C   0  0  2  0  0  0  0  0  0  0  0  0
   28.5896  -20.7118   -9.1901 C   0  0  0  0  0  0  0  0  0  0  0  0
   26.2223  -20.8385   -9.9100 C   0  0  2  0  0  0  0  0  0  0  0  0
   26.4214  -19.7064  -10.8547 N   0  0  0  0  0  0  0  0  0  0  0  0
   24.8111  -20.8714   -9.5051 C   0  0  0  0  0  0  0  0  0  0  0  0
   24.1818  -21.8561   -8.7895 O   0  0  0  0  0  0  0  0  0  0  0  0
   24.0549  -19.8869   -9.8471 O   0  0  0  0  0  0  0  0  0  0  0  0
  2  1  1  1
  2  3  1  0
  3  4  1  0
  4  5  1  0
  5  9  1  0
  6  5  2  0
  7  2  1  0
  7  8  2  0
 10  7  1  0
 11 10  1  0
 11 12  1  0
 12 13  2  0
 12 19  1  0
 15 14  1  0
 16 15  1  0
 16 17  1  6
 18 16  1  0
 18 20  1  0
 18 19  1  6
 20 21  1  0
 22 20  2  0
M  END
$$$$
