KRH.pdb
     RDKit          3D

 31 31  0  0  1  0  0  0  0  0999 V2000
    8.7160  -16.2446   18.8438 N   0  0  0  0  0  0  0  0  0  0  0  0
    8.9555  -14.9361   19.3772 C   0  0  1  0  0  0  0  0  0  0  0  0
    8.1243  -13.8718   18.6989 C   0  0  0  0  0  0  0  0  0  0  0  0
    7.6252  -14.4054   17.3842 C   0  0  0  0  0  0  0  0  0  0  0  0
    8.1530  -13.5726   16.2299 C   0  0  0  0  0  0  0  0  0  0  0  0
    7.6005  -14.1851   14.9520 C   0  0  0  0  0  0  0  0  0  0  0  0
    8.1739  -13.4739   13.8405 N   0  0  0  0  0  0  0  0  0  0  0  0
    8.6033  -14.8650   20.8336 C   0  0  0  0  0  0  0  0  0  0  0  0
    8.8326  -13.8160   21.4844 O   0  0  0  0  0  0  0  0  0  0  0  0
   12.8638  -20.3629   20.1223 N   0  0  0  0  0  0  0  0  0  0  0  0
   13.3106  -20.2179   21.4691 C   0  0  0  0  0  0  0  0  0  0  0  0
   14.5425  -20.3628   21.7631 N   0  0  0  0  0  0  0  0  0  0  0  0
   12.3711  -19.9111   22.4767 N   0  0  0  0  0  0  0  0  0  0  0  0
   11.0122  -19.5707   22.0770 C   0  0  0  0  0  0  0  0  0  0  0  0
   10.9793  -18.1132   21.6515 C   0  0  0  0  0  0  0  0  0  0  0  0
    9.6115  -17.6656   21.2879 C   0  0  0  0  0  0  0  0  0  0  0  0
    8.8414  -16.8988   22.3049 C   0  0  2  0  0  0  0  0  0  0  0  0
    8.0116  -15.9457   21.5276 N   0  0  0  0  0  0  0  0  0  0  0  0
    9.6374  -16.0862   23.2365 C   0  0  0  0  0  0  0  0  0  0  0  0
   10.4062  -15.1494   22.7931 O   0  0  0  0  0  0  0  0  0  0  0  0
   14.8658  -20.2241   22.7489 N   0  0  0  0  0  0  0  0  0  0  0  0
    9.6461  -16.2314   24.6439 C   0  0  1  0  0  0  0  0  0  0  0  0
    9.2184  -15.1333   25.5204 C   0  0  0  0  0  0  0  0  0  0  0  0
    7.8459  -14.6974   25.0551 C   0  0  0  0  0  0  0  0  0  0  0  0
    7.2926  -13.5912   25.8629 C   0  0  0  0  0  0  0  0  0  0  0  0
    7.9347  -12.9603   26.8953 N   0  0  0  0  0  0  0  0  0  0  0  0
    7.1257  -12.0122   27.3961 C   0  0  0  0  0  0  0  0  0  0  0  0
    6.0010  -12.0651   26.6753 N   0  0  0  0  0  0  0  0  0  0  0  0
    6.0787  -13.0175   25.7369 C   0  0  0  0  0  0  0  0  0  0  0  0
    9.2425  -15.5523   26.9354 O   0  0  0  0  0  0  0  0  0  0  0  0
    9.8001  -14.7646   27.9386 O   0  0  0  0  0  0  0  0  0  0  0  0
  2  3  1  0
  2  1  1  6
  3  4  1  0
  4  5  1  0
  5  6  1  0
  7  6  1  0
  8  9  2  0
  8  2  1  0
 10 11  1  0
 11 12  2  0
 13 11  1  0
 13 14  1  0
 15 14  1  0
 15 16  1  0
 17 16  1  6
 17 19  1  0
 17 18  1  0
 18  8  1  0
 19 20  2  0
 21 22  1  0
 21 19  1  0
 22 23  1  1
 23 24  1  0
 24 25  2  0
 25 26  1  0
 27 26  1  0
 28 24  1  0
 28 27  2  0
 29 30  1  0
 29 22  1  0
 31 29  2  0
M  END
$$$$
