KRH.pdb
     RDKit          3D

 31 31  0  0  1  0  0  0  0  0999 V2000
    8.1290  -14.4790   17.2219 N   0  0  0  0  0  0  0  0  0  0  0  0
    9.1200  -13.6900   17.8925 C   0  0  1  0  0  0  0  0  0  0  0  0
    8.6139  -13.1024   19.1895 C   0  0  0  0  0  0  0  0  0  0  0  0
    8.1650  -14.2202   20.0903 C   0  0  0  0  0  0  0  0  0  0  0  0
    7.5541  -13.6707   21.3668 C   0  0  0  0  0  0  0  0  0  0  0  0
    7.0799  -14.8645   22.1813 C   0  0  0  0  0  0  0  0  0  0  0  0
    6.4495  -14.3609   23.3724 N   0  0  0  0  0  0  0  0  0  0  0  0
   10.3211  -14.5118   18.2558 C   0  0  0  0  0  0  0  0  0  0  0  0
   10.2213  -15.7595   18.3553 O   0  0  0  0  0  0  0  0  0  0  0  0
   18.3533  -13.2148   17.6405 N   0  0  0  0  0  0  0  0  0  0  0  0
   17.2759  -13.0408   16.7222 C   0  0  0  0  0  0  0  0  0  0  0  0
   17.3499  -12.1720   15.7924 N   0  0  0  0  0  0  0  0  0  0  0  0
   16.1227  -13.8437   16.8542 N   0  0  0  0  0  0  0  0  0  0  0  0
   16.1306  -14.9106   17.8461 C   0  0  0  0  0  0  0  0  0  0  0  0
   15.2693  -14.4887   19.0235 C   0  0  0  0  0  0  0  0  0  0  0  0
   13.9503  -13.9612   18.5932 C   0  0  0  0  0  0  0  0  0  0  0  0
   12.7456  -14.7823   18.8931 C   0  0  2  0  0  0  0  0  0  0  0  0
   11.5911  -13.9387   18.4975 N   0  0  0  0  0  0  0  0  0  0  0  0
   12.5378  -15.1270   20.3072 C   0  0  0  0  0  0  0  0  0  0  0  0
   12.1918  -14.2192   21.1566 O   0  0  0  0  0  0  0  0  0  0  0  0
   16.5736  -12.0823   15.0959 N   0  0  0  0  0  0  0  0  0  0  0  0
   12.6832  -16.4205   20.8620 C   0  0  2  0  0  0  0  0  0  0  0  0
   12.4674  -16.6576   22.2952 C   0  0  0  0  0  0  0  0  0  0  0  0
   11.5202  -17.8314   22.4174 C   0  0  0  0  0  0  0  0  0  0  0  0
   11.3533  -18.2892   23.8121 C   0  0  0  0  0  0  0  0  0  0  0  0
   11.9206  -17.7072   24.9146 N   0  0  0  0  0  0  0  0  0  0  0  0
   11.5524  -18.3954   26.0077 C   0  0  0  0  0  0  0  0  0  0  0  0
   10.7679  -19.3877   25.5749 N   0  0  0  0  0  0  0  0  0  0  0  0
   10.6320  -19.3438   24.2433 C   0  0  0  0  0  0  0  0  0  0  0  0
   13.7513  -16.8766   22.9895 O   0  0  0  0  0  0  0  0  0  0  0  0
   13.8875  -16.7432   24.3684 O   0  0  0  0  0  0  0  0  0  0  0  0
  2  3  1  0
  2  1  1  1
  3  4  1  0
  4  5  1  0
  5  6  1  0
  7  6  1  0
  8  9  2  0
  8  2  1  0
 10 11  1  0
 11 12  2  0
 13 11  1  0
 13 14  1  0
 15 14  1  0
 15 16  1  0
 17 16  1  1
 17 19  1  0
 17 18  1  0
 18  8  1  0
 19 20  2  0
 21 22  1  0
 21 19  1  0
 22 23  1  6
 23 24  1  0
 24 25  2  0
 25 26  1  0
 27 26  1  0
 28 24  1  0
 28 27  2  0
 29 30  1  0
 29 22  1  0
 31 29  2  0
M  END
$$$$
