KRH.pdb
     RDKit          3D

 31 31  0  0  1  0  0  0  0  0999 V2000
    7.4049  -14.6116   18.8596 N   0  0  0  0  0  0  0  0  0  0  0  0
    8.5203  -14.0029   19.5226 C   0  0  1  0  0  0  0  0  0  0  0  0
    8.2833  -13.8145   21.0031 C   0  0  0  0  0  0  0  0  0  0  0  0
    7.4028  -12.6124   21.2081 C   0  0  0  0  0  0  0  0  0  0  0  0
    7.2830  -12.2782   22.6841 C   0  0  0  0  0  0  0  0  0  0  0  0
    6.3644  -11.0708   22.7923 C   0  0  0  0  0  0  0  0  0  0  0  0
    6.3348  -10.6638   24.1719 N   0  0  0  0  0  0  0  0  0  0  0  0
    9.7537  -14.8490   19.4092 C   0  0  0  0  0  0  0  0  0  0  0  0
    9.6570  -16.1008   19.3946 O   0  0  0  0  0  0  0  0  0  0  0  0
   17.8270  -15.9345   18.2595 N   0  0  0  0  0  0  0  0  0  0  0  0
   17.1297  -15.4577   17.1102 C   0  0  0  0  0  0  0  0  0  0  0  0
   17.4018  -15.9132   15.9511 N   0  0  0  0  0  0  0  0  0  0  0  0
   16.1314  -14.4729   17.2703 N   0  0  0  0  0  0  0  0  0  0  0  0
   15.8221  -14.0120   18.6171 C   0  0  0  0  0  0  0  0  0  0  0  0
   14.7552  -14.9160   19.2093 C   0  0  0  0  0  0  0  0  0  0  0  0
   13.3849  -14.3979   18.9700 C   0  0  0  0  0  0  0  0  0  0  0  0
   12.2524  -15.1096   19.6231 C   0  0  2  0  0  0  0  0  0  0  0  0
   11.0514  -14.2949   19.3154 N   0  0  0  0  0  0  0  0  0  0  0  0
   12.3161  -15.2113   21.0885 C   0  0  0  0  0  0  0  0  0  0  0  0
   12.2517  -14.1503   21.8202 O   0  0  0  0  0  0  0  0  0  0  0  0
   16.9013  -15.5403   15.1108 N   0  0  0  0  0  0  0  0  0  0  0  0
   12.4450  -16.4167   21.8182 C   0  0  2  0  0  0  0  0  0  0  0  0
   11.7780  -16.5909   23.1151 C   0  0  0  0  0  0  0  0  0  0  0  0
   10.3062  -16.8058   22.8366 C   0  0  0  0  0  0  0  0  0  0  0  0
    9.5324  -17.1153   24.0564 C   0  0  0  0  0  0  0  0  0  0  0  0
   10.0428  -17.1929   25.3250 N   0  0  0  0  0  0  0  0  0  0  0  0
    9.0492  -17.4984   26.1757 C   0  0  0  0  0  0  0  0  0  0  0  0
    7.9436  -17.6058   25.4319 N   0  0  0  0  0  0  0  0  0  0  0  0
    8.2122  -17.3772   24.1399 C   0  0  0  0  0  0  0  0  0  0  0  0
   12.3901  -17.6987   23.8745 O   0  0  0  0  0  0  0  0  0  0  0  0
   13.4754  -18.4251   23.3927 O   0  0  0  0  0  0  0  0  0  0  0  0
  2  3  1  0
  2  1  1  1
  3  4  1  0
  4  5  1  0
  5  6  1  0
  7  6  1  0
  8  9  2  0
  8  2  1  0
 10 11  1  0
 11 12  2  0
 13 11  1  0
 13 14  1  0
 15 14  1  0
 15 16  1  0
 17 16  1  1
 17 19  1  0
 17 18  1  0
 18  8  1  0
 19 20  2  0
 21 22  1  0
 21 19  1  0
 22 23  1  6
 23 24  1  0
 24 25  2  0
 25 26  1  0
 27 26  1  0
 28 24  1  0
 28 27  2  0
 29 30  1  0
 29 22  1  0
 31 29  2  0
M  END
$$$$
