KRH.pdb
     RDKit          3D

 31 31  0  0  1  0  0  0  0  0999 V2000
   12.1443  -18.0014   15.3788 N   0  0  0  0  0  0  0  0  0  0  0  0
   11.6053  -18.7296   16.4893 C   0  0  1  0  0  0  0  0  0  0  0  0
   12.2318  -20.0959   16.6464 C   0  0  0  0  0  0  0  0  0  0  0  0
   13.5002  -20.1477   15.8397 C   0  0  0  0  0  0  0  0  0  0  0  0
   14.1013  -21.5413   15.8706 C   0  0  0  0  0  0  0  0  0  0  0  0
   15.4400  -21.4630   15.1529 C   0  0  0  0  0  0  0  0  0  0  0  0
   15.9997  -22.7880   15.1216 N   0  0  0  0  0  0  0  0  0  0  0  0
   11.8508  -18.0146   17.7848 C   0  0  0  0  0  0  0  0  0  0  0  0
   12.8954  -17.3351   17.9386 O   0  0  0  0  0  0  0  0  0  0  0  0
    7.9117  -12.2761   21.5284 N   0  0  0  0  0  0  0  0  0  0  0  0
    7.9863  -13.2642   20.5025 C   0  0  0  0  0  0  0  0  0  0  0  0
    8.3143  -12.9416   19.3137 N   0  0  0  0  0  0  0  0  0  0  0  0
    7.6920  -14.6080   20.8185 N   0  0  0  0  0  0  0  0  0  0  0  0
    7.6247  -15.5767   19.7326 C   0  0  0  0  0  0  0  0  0  0  0  0
    9.0387  -15.9413   19.3155 C   0  0  0  0  0  0  0  0  0  0  0  0
    9.7615  -16.6876   20.3757 C   0  0  0  0  0  0  0  0  0  0  0  0
   11.1226  -17.1985   20.0567 C   0  0  2  0  0  0  0  0  0  0  0  0
   10.9434  -18.0680   18.8681 N   0  0  0  0  0  0  0  0  0  0  0  0
   11.7535  -18.0358   21.0875 C   0  0  0  0  0  0  0  0  0  0  0  0
   11.4505  -19.2861   21.1887 O   0  0  0  0  0  0  0  0  0  0  0  0
    8.4009  -13.6788   18.5756 N   0  0  0  0  0  0  0  0  0  0  0  0
   12.7110  -17.5891   22.0285 C   0  0  2  0  0  0  0  0  0  0  0  0
   14.0596  -18.1695   22.0692 C   0  0  0  0  0  0  0  0  0  0  0  0
   14.5838  -18.1845   20.6497 C   0  0  0  0  0  0  0  0  0  0  0  0
   15.1684  -19.4868   20.2694 C   0  0  0  0  0  0  0  0  0  0  0  0
   14.7752  -20.7073   20.7510 N   0  0  0  0  0  0  0  0  0  0  0  0
   15.5326  -21.6622   20.1864 C   0  0  0  0  0  0  0  0  0  0  0  0
   16.3795  -21.0290   19.3684 N   0  0  0  0  0  0  0  0  0  0  0  0
   16.1772  -19.7055   19.4017 C   0  0  0  0  0  0  0  0  0  0  0  0
   14.9262  -17.4171   22.9972 O   0  0  0  0  0  0  0  0  0  0  0  0
   15.9117  -18.0323   23.7642 O   0  0  0  0  0  0  0  0  0  0  0  0
  2  3  1  0
  2  1  1  6
  3  4  1  0
  4  5  1  0
  5  6  1  0
  7  6  1  0
  8  9  2  0
  8  2  1  0
 10 11  1  0
 11 12  2  0
 13 11  1  0
 13 14  1  0
 15 14  1  0
 15 16  1  0
 17 16  1  1
 17 19  1  0
 17 18  1  0
 18  8  1  0
 19 20  2  0
 21 22  1  0
 21 19  1  0
 22 23  1  6
 23 24  1  0
 24 25  2  0
 25 26  1  0
 27 26  1  0
 28 24  1  0
 28 27  2  0
 29 30  1  0
 29 22  1  0
 31 29  2  0
M  END
$$$$
