KRH.pdb
     RDKit          3D

 31 31  0  0  1  0  0  0  0  0999 V2000
    7.9511  -17.9742   19.3736 N   0  0  0  0  0  0  0  0  0  0  0  0
    8.9198  -17.0061   19.7963 C   0  0  1  0  0  0  0  0  0  0  0  0
    8.4168  -15.5870   19.6669 C   0  0  0  0  0  0  0  0  0  0  0  0
    8.4251  -15.1959   18.2145 C   0  0  0  0  0  0  0  0  0  0  0  0
    8.0673  -13.7299   18.0496 C   0  0  0  0  0  0  0  0  0  0  0  0
    8.1523  -13.4170   16.5636 C   0  0  0  0  0  0  0  0  0  0  0  0
    7.8987  -12.0108   16.3957 N   0  0  0  0  0  0  0  0  0  0  0  0
    9.2777  -17.1840   21.2420 C   0  0  0  0  0  0  0  0  0  0  0  0
    8.3716  -17.3081   22.1023 O   0  0  0  0  0  0  0  0  0  0  0  0
   17.1019  -18.3237   22.9552 N   0  0  0  0  0  0  0  0  0  0  0  0
   16.4108  -17.0778   23.0228 C   0  0  0  0  0  0  0  0  0  0  0  0
   17.0349  -15.9797   22.8504 N   0  0  0  0  0  0  0  0  0  0  0  0
   15.0237  -17.0734   23.2833 N   0  0  0  0  0  0  0  0  0  0  0  0
   14.5394  -17.7632   24.4715 C   0  0  0  0  0  0  0  0  0  0  0  0
   13.0321  -17.5967   24.5520 C   0  0  0  0  0  0  0  0  0  0  0  0
   12.4142  -17.4264   23.2132 C   0  0  0  0  0  0  0  0  0  0  0  0
   10.9285  -17.3775   23.1381 C   0  0  2  0  0  0  0  0  0  0  0  0
   10.6164  -17.2201   21.6963 N   0  0  0  0  0  0  0  0  0  0  0  0
   10.2865  -16.2463   23.8238 C   0  0  0  0  0  0  0  0  0  0  0  0
   10.4757  -15.0390   23.4093 O   0  0  0  0  0  0  0  0  0  0  0  0
   16.5141  -15.0720   22.8726 N   0  0  0  0  0  0  0  0  0  0  0  0
    9.4357  -16.3506   24.9495 C   0  0  1  0  0  0  0  0  0  0  0  0
    9.0415  -15.1593   25.7127 C   0  0  0  0  0  0  0  0  0  0  0  0
    7.7291  -14.6727   25.1373 C   0  0  0  0  0  0  0  0  0  0  0  0
    7.1040  -13.6128   25.9546 C   0  0  0  0  0  0  0  0  0  0  0  0
    6.2083  -13.8148   26.9710 N   0  0  0  0  0  0  0  0  0  0  0  0
    5.8529  -12.6239   27.4807 C   0  0  0  0  0  0  0  0  0  0  0  0
    6.5259  -11.7049   26.7810 N   0  0  0  0  0  0  0  0  0  0  0  0
    7.2934  -12.2820   25.8474 C   0  0  0  0  0  0  0  0  0  0  0  0
    8.9627  -15.4631   27.1549 O   0  0  0  0  0  0  0  0  0  0  0  0
    8.8477  -16.7630   27.6395 O   0  0  0  0  0  0  0  0  0  0  0  0
  2  3  1  0
  2  1  1  1
  3  4  1  0
  4  5  1  0
  5  6  1  0
  7  6  1  0
  8  9  2  0
  8  2  1  0
 10 11  1  0
 11 12  2  0
 13 11  1  0
 13 14  1  0
 15 14  1  0
 15 16  1  0
 17 16  1  6
 17 19  1  0
 17 18  1  0
 18  8  1  0
 19 20  2  0
 21 22  1  0
 21 19  1  0
 22 23  1  1
 23 24  1  0
 24 25  2  0
 25 26  1  0
 27 26  1  0
 28 24  1  0
 28 27  2  0
 29 30  1  0
 29 22  1  0
 31 29  2  0
M  END
$$$$
