WAG.pdb
     RDKit          3D

 24 25  0  0  1  0  0  0  0  0999 V2000
   24.5162  -20.4950   -9.6872 N   0  0  0  0  0  0  0  0  0  0  0  0
   25.8503  -20.2155  -10.1500 C   0  0  1  0  0  0  0  0  0  0  0  0
   26.7757  -21.1818   -9.4132 C   0  0  0  0  0  0  0  0  0  0  0  0
   26.7508  -20.7505   -7.9912 C   0  0  0  0  0  0  0  0  0  0  0  0
   25.6523  -20.5621   -7.2132 C   0  0  0  0  0  0  0  0  0  0  0  0
   25.9857  -20.1674   -5.9729 N   0  0  0  0  0  0  0  0  0  0  0  0
   27.3262  -20.0922   -5.9253 C   0  0  0  0  0  0  0  0  0  0  0  0
   28.2303  -19.7551   -4.9574 C   0  0  0  0  0  0  0  0  0  0  0  0
   29.5810  -19.7718   -5.2116 C   0  0  0  0  0  0  0  0  0  0  0  0
   30.0668  -20.1240   -6.4342 C   0  0  0  0  0  0  0  0  0  0  0  0
   29.1889  -20.4707   -7.4370 C   0  0  0  0  0  0  0  0  0  0  0  0
   27.8413  -20.4510   -7.1733 C   0  0  0  0  0  0  0  0  0  0  0  0
   25.9722  -20.3032  -11.6123 C   0  0  0  0  0  0  0  0  0  0  0  0
   25.5254  -21.3222  -12.1968 O   0  0  0  0  0  0  0  0  0  0  0  0
   27.2581  -17.9937  -14.2054 C   0  0  0  0  0  0  0  0  0  0  0  0
   26.7900  -19.3519  -13.7552 C   0  0  2  0  0  0  0  0  0  0  0  0
   26.5744  -19.2698  -12.3307 N   0  0  0  0  0  0  0  0  0  0  0  0
   27.7283  -20.4319  -14.0339 C   0  0  0  0  0  0  0  0  0  0  0  0
   28.8351  -20.4486  -13.4357 O   0  0  0  0  0  0  0  0  0  0  0  0
   27.4481  -21.4798  -14.9609 N   0  0  0  0  0  0  0  0  0  0  0  0
   28.4970  -22.4429  -15.2499 C   0  0  0  0  0  0  0  0  0  0  0  0
   29.1805  -22.1289  -16.5196 C   0  0  0  0  0  0  0  0  0  0  0  0
   30.0735  -23.0240  -17.1114 O   0  0  0  0  0  0  0  0  0  0  0  0
   28.9373  -21.0228  -17.0632 O   0  0  0  0  0  0  0  0  0  0  0  0
  2  1  1  6
  2 13  1  0
  3  2  1  0
  4 12  1  0
  4  3  1  0
  5  4  2  0
  6  5  1  0
  6  7  1  0
  7 12  2  0
  8  7  1  0
  8  9  2  0
  9 10  1  0
 10 11  2  0
 12 11  1  0
 13 14  2  0
 16 15  1  1
 16 18  1  0
 17 13  1  0
 17 16  1  0
 18 19  2  0
 20 18  1  0
 20 21  1  0
 22 21  1  0
 22 23  1  0
 24 22  2  0
M  END
$$$$
