WAG.pdb
     RDKit          3D

 24 25  0  0  1  0  0  0  0  0999 V2000
   26.9211  -22.4788  -12.2550 N   0  0  0  0  0  0  0  0  0  0  0  0
   26.0876  -21.3760  -11.8532 C   0  0  1  0  0  0  0  0  0  0  0  0
   26.9666  -20.1280  -11.9039 C   0  0  0  0  0  0  0  0  0  0  0  0
   27.9487  -20.2876  -10.7999 C   0  0  0  0  0  0  0  0  0  0  0  0
   29.2562  -20.6408  -10.9138 C   0  0  0  0  0  0  0  0  0  0  0  0
   29.8605  -20.6957   -9.7149 N   0  0  0  0  0  0  0  0  0  0  0  0
   28.9409  -20.3740   -8.7899 C   0  0  0  0  0  0  0  0  0  0  0  0
   28.9552  -20.2598   -7.4281 C   0  0  0  0  0  0  0  0  0  0  0  0
   27.8238  -19.9025   -6.7342 C   0  0  0  0  0  0  0  0  0  0  0  0
   26.6498  -19.6498   -7.3767 C   0  0  0  0  0  0  0  0  0  0  0  0
   26.5932  -19.7538   -8.7487 C   0  0  0  0  0  0  0  0  0  0  0  0
   27.7289  -20.1113   -9.4330 C   0  0  0  0  0  0  0  0  0  0  0  0
   24.8718  -21.2581  -12.6708 C   0  0  0  0  0  0  0  0  0  0  0  0
   24.9628  -21.4060  -13.9156 O   0  0  0  0  0  0  0  0  0  0  0  0
   21.2882  -20.9015  -11.8265 C   0  0  0  0  0  0  0  0  0  0  0  0
   22.4153  -20.9293  -12.8244 C   0  0  2  0  0  0  0  0  0  0  0  0
   23.6430  -20.9866  -12.0681 N   0  0  0  0  0  0  0  0  0  0  0  0
   22.4567  -19.7754  -13.7139 C   0  0  0  0  0  0  0  0  0  0  0  0
   22.9600  -18.7004  -13.2965 O   0  0  0  0  0  0  0  0  0  0  0  0
   21.9490  -19.8081  -15.0470 N   0  0  0  0  0  0  0  0  0  0  0  0
   22.0602  -18.6065  -15.8563 C   0  0  0  0  0  0  0  0  0  0  0  0
   20.8746  -17.7416  -15.7006 C   0  0  0  0  0  0  0  0  0  0  0  0
   20.9537  -16.3562  -15.8535 O   0  0  0  0  0  0  0  0  0  0  0  0
   19.7778  -18.2876  -15.4236 O   0  0  0  0  0  0  0  0  0  0  0  0
  2  1  1  6
  2 13  1  0
  3  2  1  0
  4 12  1  0
  4  3  1  0
  5  4  2  0
  6  5  1  0
  6  7  1  0
  7 12  2  0
  8  7  1  0
  8  9  2  0
  9 10  1  0
 10 11  2  0
 12 11  1  0
 13 14  2  0
 16 15  1  1
 16 18  1  0
 17 13  1  0
 17 16  1  0
 18 19  2  0
 20 18  1  0
 20 21  1  0
 22 21  1  0
 22 23  1  0
 24 22  2  0
M  END
$$$$
