WAG.pdb
     RDKit          3D

 24 25  0  0  1  0  0  0  0  0999 V2000
   25.7435  -19.1465  -12.6384 N   0  0  0  0  0  0  0  0  0  0  0  0
   26.5857  -20.3045  -12.7866 C   0  0  1  0  0  0  0  0  0  0  0  0
   25.9248  -21.4258  -11.9875 C   0  0  0  0  0  0  0  0  0  0  0  0
   26.0171  -21.0081  -10.5642 C   0  0  0  0  0  0  0  0  0  0  0  0
   24.9910  -20.6411   -9.7518 C   0  0  0  0  0  0  0  0  0  0  0  0
   25.4244  -20.3193   -8.5214 N   0  0  0  0  0  0  0  0  0  0  0  0
   26.7588  -20.4746   -8.5154 C   0  0  0  0  0  0  0  0  0  0  0  0
   27.7361  -20.3048   -7.5753 C   0  0  0  0  0  0  0  0  0  0  0  0
   29.0557  -20.5499   -7.8714 C   0  0  0  0  0  0  0  0  0  0  0  0
   29.4369  -20.9701   -9.1095 C   0  0  0  0  0  0  0  0  0  0  0  0
   28.4828  -21.1535  -10.0855 C   0  0  0  0  0  0  0  0  0  0  0  0
   27.1670  -20.9059   -9.7799 C   0  0  0  0  0  0  0  0  0  0  0  0
   26.8176  -20.6594  -14.1941 C   0  0  0  0  0  0  0  0  0  0  0  0
   26.0354  -20.2090  -15.0686 O   0  0  0  0  0  0  0  0  0  0  0  0
   29.6121  -22.3128  -15.9409 C   0  0  0  0  0  0  0  0  0  0  0  0
   28.2006  -21.7894  -15.9193 C   0  0  2  0  0  0  0  0  0  0  0  0
   27.8888  -21.4821  -14.5443 N   0  0  0  0  0  0  0  0  0  0  0  0
   27.2075  -22.7226  -16.4363 C   0  0  0  0  0  0  0  0  0  0  0  0
   26.6975  -23.5665  -15.6548 O   0  0  0  0  0  0  0  0  0  0  0  0
   26.7829  -22.7238  -17.7986 N   0  0  0  0  0  0  0  0  0  0  0  0
   25.7291  -23.6441  -18.1910 C   0  0  0  0  0  0  0  0  0  0  0  0
   26.2731  -24.8033  -18.9245 C   0  0  0  0  0  0  0  0  0  0  0  0
   26.0678  -24.9640  -20.2961 O   0  0  0  0  0  0  0  0  0  0  0  0
   26.9341  -25.6538  -18.2782 O   0  0  0  0  0  0  0  0  0  0  0  0
  2  1  1  6
  2 13  1  0
  3  2  1  0
  4 12  1  0
  4  3  1  0
  5  4  2  0
  6  5  1  0
  6  7  1  0
  7 12  2  0
  8  7  1  0
  8  9  2  0
  9 10  1  0
 10 11  2  0
 12 11  1  0
 13 14  2  0
 16 15  1  1
 16 18  1  0
 17 13  1  0
 17 16  1  0
 18 19  2  0
 20 18  1  0
 20 21  1  0
 22 21  1  0
 22 23  1  0
 24 22  2  0
M  END
$$$$
