WAG.pdb
     RDKit          3D

 24 25  0  0  1  0  0  0  0  0999 V2000
   26.9368  -19.8738  -11.3336 N   0  0  0  0  0  0  0  0  0  0  0  0
   26.0661  -20.9957  -11.5689 C   0  0  1  0  0  0  0  0  0  0  0  0
   25.7051  -21.5591  -10.1959 C   0  0  0  0  0  0  0  0  0  0  0  0
   26.7940  -21.1180   -9.2857 C   0  0  0  0  0  0  0  0  0  0  0  0
   26.6758  -20.3025   -8.2048 C   0  0  0  0  0  0  0  0  0  0  0  0
   27.8604  -20.1033   -7.6029 N   0  0  0  0  0  0  0  0  0  0  0  0
   28.7803  -20.7968   -8.2940 C   0  0  0  0  0  0  0  0  0  0  0  0
   30.1288  -20.9814   -8.1707 C   0  0  0  0  0  0  0  0  0  0  0  0
   30.8207  -21.7716   -9.0573 C   0  0  0  0  0  0  0  0  0  0  0  0
   30.1894  -22.3981  -10.0887 C   0  0  0  0  0  0  0  0  0  0  0  0
   28.8309  -22.2379  -10.2481 C   0  0  0  0  0  0  0  0  0  0  0  0
   28.1485  -21.4465   -9.3571 C   0  0  0  0  0  0  0  0  0  0  0  0
   24.8885  -20.6394  -12.3733 C   0  0  0  0  0  0  0  0  0  0  0  0
   24.5709  -19.4279  -12.4778 O   0  0  0  0  0  0  0  0  0  0  0  0
   23.2320  -22.0702  -15.1488 C   0  0  0  0  0  0  0  0  0  0  0  0
   23.0199  -21.3242  -13.8584 C   0  0  2  0  0  0  0  0  0  0  0  0
   24.1422  -21.6343  -13.0059 N   0  0  0  0  0  0  0  0  0  0  0  0
   21.7849  -21.6669  -13.1642 C   0  0  0  0  0  0  0  0  0  0  0  0
   21.6576  -22.8203  -12.6779 O   0  0  0  0  0  0  0  0  0  0  0  0
   20.7046  -20.7477  -13.0088 N   0  0  0  0  0  0  0  0  0  0  0  0
   19.9500  -20.3654  -14.1901 C   0  0  0  0  0  0  0  0  0  0  0  0
   18.8217  -21.2861  -14.4288 C   0  0  0  0  0  0  0  0  0  0  0  0
   17.5142  -20.8195  -14.5760 O   0  0  0  0  0  0  0  0  0  0  0  0
   19.0677  -22.5161  -14.4975 O   0  0  0  0  0  0  0  0  0  0  0  0
  2  1  1  1
  2 13  1  0
  3  2  1  0
  4 12  1  0
  4  3  1  0
  5  4  2  0
  6  5  1  0
  6  7  1  0
  7 12  2  0
  8  7  1  0
  8  9  2  0
  9 10  1  0
 10 11  2  0
 12 11  1  0
 13 14  2  0
 16 15  1  6
 16 18  1  0
 17 13  1  0
 17 16  1  0
 18 19  2  0
 20 18  1  0
 20 21  1  0
 22 21  1  0
 22 23  1  0
 24 22  2  0
M  END
$$$$
