WAG.pdb
     RDKit          3D

 24 25  0  0  1  0  0  0  0  0999 V2000
   24.9822  -20.8583   -8.1903 N   0  0  0  0  0  0  0  0  0  0  0  0
   25.9674  -20.3923   -9.1307 C   0  0  1  0  0  0  0  0  0  0  0  0
   27.3281  -20.8022   -8.5711 C   0  0  0  0  0  0  0  0  0  0  0  0
   27.5789  -19.8894   -7.4255 C   0  0  0  0  0  0  0  0  0  0  0  0
   26.9812  -18.6918   -7.1886 C   0  0  0  0  0  0  0  0  0  0  0  0
   27.4426  -18.1224   -6.0624 N   0  0  0  0  0  0  0  0  0  0  0  0
   28.3609  -18.9539   -5.5425 C   0  0  0  0  0  0  0  0  0  0  0  0
   29.1577  -18.9234   -4.4326 C   0  0  0  0  0  0  0  0  0  0  0  0
   30.0257  -19.9520   -4.1539 C   0  0  0  0  0  0  0  0  0  0  0  0
   30.1233  -21.0367   -4.9716 C   0  0  0  0  0  0  0  0  0  0  0  0
   29.3377  -21.1062   -6.1005 C   0  0  0  0  0  0  0  0  0  0  0  0
   28.4735  -20.0735   -6.3703 C   0  0  0  0  0  0  0  0  0  0  0  0
   25.7304  -20.8915  -10.4928 C   0  0  0  0  0  0  0  0  0  0  0  0
   25.8608  -22.1211  -10.7180 O   0  0  0  0  0  0  0  0  0  0  0  0
   24.5782  -19.3001  -13.6290 C   0  0  0  0  0  0  0  0  0  0  0  0
   25.2090  -20.4429  -12.8788 C   0  0  2  0  0  0  0  0  0  0  0  0
   25.3678  -20.0096  -11.5115 N   0  0  0  0  0  0  0  0  0  0  0  0
   26.5048  -20.8594  -13.4004 C   0  0  0  0  0  0  0  0  0  0  0  0
   27.5323  -20.2122  -13.0710 O   0  0  0  0  0  0  0  0  0  0  0  0
   26.6639  -21.9761  -14.2743 N   0  0  0  0  0  0  0  0  0  0  0  0
   28.0083  -22.3434  -14.6853 C   0  0  0  0  0  0  0  0  0  0  0  0
   28.1701  -22.2411  -16.1485 C   0  0  0  0  0  0  0  0  0  0  0  0
   29.4124  -21.9848  -16.7317 O   0  0  0  0  0  0  0  0  0  0  0  0
   27.1510  -22.3918  -16.8673 O   0  0  0  0  0  0  0  0  0  0  0  0
  2  1  1  1
  2 13  1  0
  3  2  1  0
  4 12  1  0
  4  3  1  0
  5  4  2  0
  6  5  1  0
  6  7  1  0
  7 12  2  0
  8  7  1  0
  8  9  2  0
  9 10  1  0
 10 11  2  0
 12 11  1  0
 13 14  2  0
 16 15  1  6
 16 18  1  0
 17 13  1  0
 17 16  1  0
 18 19  2  0
 20 18  1  0
 20 21  1  0
 22 21  1  0
 22 23  1  0
 24 22  2  0
M  END
$$$$
