WAG.pdb
     RDKit          3D

 24 25  0  0  1  0  0  0  0  0999 V2000
   24.6053  -20.9022   -9.9390 N   0  0  0  0  0  0  0  0  0  0  0  0
   25.9004  -20.3987  -10.3152 C   0  0  1  0  0  0  0  0  0  0  0  0
   26.9281  -21.2431   -9.5644 C   0  0  0  0  0  0  0  0  0  0  0  0
   26.8050  -20.8447   -8.1379 C   0  0  0  0  0  0  0  0  0  0  0  0
   25.6590  -20.5621   -7.4642 C   0  0  0  0  0  0  0  0  0  0  0  0
   25.9050  -20.2328   -6.1849 N   0  0  0  0  0  0  0  0  0  0  0  0
   27.2348  -20.2976   -6.0053 C   0  0  0  0  0  0  0  0  0  0  0  0
   28.0672  -20.0781   -4.9438 C   0  0  0  0  0  0  0  0  0  0  0  0
   29.4279  -20.2282   -5.0664 C   0  0  0  0  0  0  0  0  0  0  0  0
   29.9953  -20.6002   -6.2473 C   0  0  0  0  0  0  0  0  0  0  0  0
   29.1915  -20.8310   -7.3414 C   0  0  0  0  0  0  0  0  0  0  0  0
   27.8331  -20.6784   -7.2088 C   0  0  0  0  0  0  0  0  0  0  0  0
   26.1070  -20.3990  -11.7705 C   0  0  0  0  0  0  0  0  0  0  0  0
   25.7052  -21.3849  -12.4386 O   0  0  0  0  0  0  0  0  0  0  0  0
   27.1715  -17.8414  -14.1896 C   0  0  0  0  0  0  0  0  0  0  0  0
   26.9716  -19.2858  -13.8148 C   0  0  2  0  0  0  0  0  0  0  0  0
   26.7386  -19.3207  -12.3911 N   0  0  0  0  0  0  0  0  0  0  0  0
   28.1014  -20.1496  -14.1343 C   0  0  0  0  0  0  0  0  0  0  0  0
   29.2482  -19.8308  -13.7267 O   0  0  0  0  0  0  0  0  0  0  0  0
   27.9664  -21.3500  -14.8939 N   0  0  0  0  0  0  0  0  0  0  0  0
   29.1746  -22.0407  -15.3113 C   0  0  0  0  0  0  0  0  0  0  0  0
   29.1490  -22.3438  -16.7554 C   0  0  0  0  0  0  0  0  0  0  0  0
   29.3516  -23.6390  -17.2355 O   0  0  0  0  0  0  0  0  0  0  0  0
   28.9380  -21.3972  -17.5537 O   0  0  0  0  0  0  0  0  0  0  0  0
  2  1  1  6
  2 13  1  0
  3  2  1  0
  4 12  1  0
  4  3  1  0
  5  4  2  0
  6  5  1  0
  6  7  1  0
  7 12  2  0
  8  7  1  0
  8  9  2  0
  9 10  1  0
 10 11  2  0
 12 11  1  0
 13 14  2  0
 16 15  1  1
 16 18  1  0
 17 13  1  0
 17 16  1  0
 18 19  2  0
 20 18  1  0
 20 21  1  0
 22 21  1  0
 22 23  1  0
 24 22  2  0
M  END
$$$$
