WAG.pdb
     RDKit          3D

 24 25  0  0  1  0  0  0  0  0999 V2000
   27.8628  -21.7431  -12.6115 N   0  0  0  0  0  0  0  0  0  0  0  0
   26.8332  -21.2713  -13.5000 C   0  0  1  0  0  0  0  0  0  0  0  0
   26.4062  -19.9005  -12.9788 C   0  0  0  0  0  0  0  0  0  0  0  0
   25.7281  -20.1612  -11.6822 C   0  0  0  0  0  0  0  0  0  0  0  0
   26.2656  -20.0399  -10.4398 C   0  0  0  0  0  0  0  0  0  0  0  0
   25.3772  -20.3564   -9.4828 N   0  0  0  0  0  0  0  0  0  0  0  0
   24.2315  -20.6934  -10.0982 C   0  0  0  0  0  0  0  0  0  0  0  0
   22.9991  -21.0979   -9.6678 C   0  0  0  0  0  0  0  0  0  0  0  0
   21.9931  -21.3802  -10.5608 C   0  0  0  0  0  0  0  0  0  0  0  0
   22.1870  -21.2674  -11.9041 C   0  0  0  0  0  0  0  0  0  0  0  0
   23.4146  -20.8626  -12.3790 C   0  0  0  0  0  0  0  0  0  0  0  0
   24.4133  -20.5828  -11.4789 C   0  0  0  0  0  0  0  0  0  0  0  0
   27.2661  -21.2443  -14.9045 C   0  0  0  0  0  0  0  0  0  0  0  0
   28.0401  -20.3288  -15.2818 O   0  0  0  0  0  0  0  0  0  0  0  0
   27.2805  -23.6819  -17.6031 C   0  0  0  0  0  0  0  0  0  0  0  0
   27.2300  -22.2379  -17.1799 C   0  0  2  0  0  0  0  0  0  0  0  0
   26.8211  -22.2210  -15.7960 N   0  0  0  0  0  0  0  0  0  0  0  0
   26.3110  -21.4172  -17.9585 C   0  0  0  0  0  0  0  0  0  0  0  0
   26.5652  -21.1987  -19.1713 O   0  0  0  0  0  0  0  0  0  0  0  0
   25.1266  -20.8451  -17.4052 N   0  0  0  0  0  0  0  0  0  0  0  0
   24.2234  -20.1357  -18.2952 C   0  0  0  0  0  0  0  0  0  0  0  0
   23.1145  -21.0027  -18.7388 C   0  0  0  0  0  0  0  0  0  0  0  0
   23.3460  -22.2698  -19.2773 O   0  0  0  0  0  0  0  0  0  0  0  0
   21.9417  -20.5689  -18.6192 O   0  0  0  0  0  0  0  0  0  0  0  0
  2  1  1  1
  2 13  1  0
  3  2  1  0
  4 12  1  0
  4  3  1  0
  5  4  2  0
  6  5  1  0
  6  7  1  0
  7 12  2  0
  8  7  1  0
  8  9  2  0
  9 10  1  0
 10 11  2  0
 12 11  1  0
 13 14  2  0
 16 15  1  6
 16 18  1  0
 17 13  1  0
 17 16  1  0
 18 19  2  0
 20 18  1  0
 20 21  1  0
 22 21  1  0
 22 23  1  0
 24 22  2  0
M  END
$$$$
