WAG.pdb
     RDKit          3D

 24 25  0  0  1  0  0  0  0  0999 V2000
   28.5186  -21.2291  -10.2110 N   0  0  0  0  0  0  0  0  0  0  0  0
   27.0968  -21.0566  -10.0664 C   0  0  1  0  0  0  0  0  0  0  0  0
   26.8938  -19.7347   -9.3285 C   0  0  0  0  0  0  0  0  0  0  0  0
   27.8874  -19.7392   -8.2232 C   0  0  0  0  0  0  0  0  0  0  0  0
   29.2163  -19.4700   -8.3177 C   0  0  0  0  0  0  0  0  0  0  0  0
   29.8268  -19.5654   -7.1246 N   0  0  0  0  0  0  0  0  0  0  0  0
   28.8898  -19.9031   -6.2231 C   0  0  0  0  0  0  0  0  0  0  0  0
   28.9004  -20.1396   -4.8771 C   0  0  0  0  0  0  0  0  0  0  0  0
   27.7488  -20.4771   -4.2070 C   0  0  0  0  0  0  0  0  0  0  0  0
   26.5578  -20.5880   -4.8581 C   0  0  0  0  0  0  0  0  0  0  0  0
   26.5041  -20.3577   -6.2148 C   0  0  0  0  0  0  0  0  0  0  0  0
   27.6601  -20.0210   -6.8754 C   0  0  0  0  0  0  0  0  0  0  0  0
   26.3860  -21.1139  -11.3518 C   0  0  0  0  0  0  0  0  0  0  0  0
   26.8526  -20.4780  -12.3303 O   0  0  0  0  0  0  0  0  0  0  0  0
   23.7947  -23.2507  -12.7659 C   0  0  0  0  0  0  0  0  0  0  0  0
   24.4545  -21.8989  -12.7005 C   0  0  2  0  0  0  0  0  0  0  0  0
   25.2152  -21.8629  -11.4747 N   0  0  0  0  0  0  0  0  0  0  0  0
   23.5244  -20.7768  -12.7174 C   0  0  0  0  0  0  0  0  0  0  0  0
   23.1229  -20.3000  -11.6245 O   0  0  0  0  0  0  0  0  0  0  0  0
   23.0441  -20.1888  -13.9256 N   0  0  0  0  0  0  0  0  0  0  0  0
   22.1925  -19.0154  -13.8297 C   0  0  0  0  0  0  0  0  0  0  0  0
   20.7767  -19.3916  -13.6515 C   0  0  0  0  0  0  0  0  0  0  0  0
   19.8058  -18.4485  -13.3099 O   0  0  0  0  0  0  0  0  0  0  0  0
   20.4606  -20.5962  -13.8164 O   0  0  0  0  0  0  0  0  0  0  0  0
  2  1  1  6
  2 13  1  0
  3  2  1  0
  4 12  1  0
  4  3  1  0
  5  4  2  0
  6  5  1  0
  6  7  1  0
  7 12  2  0
  8  7  1  0
  8  9  2  0
  9 10  1  0
 10 11  2  0
 12 11  1  0
 13 14  2  0
 16 15  1  1
 16 18  1  0
 17 13  1  0
 17 16  1  0
 18 19  2  0
 20 18  1  0
 20 21  1  0
 22 21  1  0
 22 23  1  0
 24 22  2  0
M  END
$$$$
