WAG.pdb
     RDKit          3D

 24 25  0  0  1  0  0  0  0  0999 V2000
   26.4383  -22.6382  -12.7808 N   0  0  0  0  0  0  0  0  0  0  0  0
   25.6903  -21.5944  -12.1304 C   0  0  1  0  0  0  0  0  0  0  0  0
   26.5572  -20.3383  -12.1907 C   0  0  0  0  0  0  0  0  0  0  0  0
   27.5815  -20.5101  -11.1276 C   0  0  0  0  0  0  0  0  0  0  0  0
   28.8931  -20.8226  -11.2991 C   0  0  0  0  0  0  0  0  0  0  0  0
   29.5404  -20.9037  -10.1245 N   0  0  0  0  0  0  0  0  0  0  0  0
   28.6458  -20.6411   -9.1573 C   0  0  0  0  0  0  0  0  0  0  0  0
   28.7050  -20.5756   -7.7935 C   0  0  0  0  0  0  0  0  0  0  0  0
   27.5897  -20.2751   -7.0486 C   0  0  0  0  0  0  0  0  0  0  0  0
   26.3875  -20.0322   -7.6407 C   0  0  0  0  0  0  0  0  0  0  0  0
   26.2854  -20.0883   -9.0129 C   0  0  0  0  0  0  0  0  0  0  0  0
   27.4054  -20.3893   -9.7484 C   0  0  0  0  0  0  0  0  0  0  0  0
   24.3568  -21.4029  -12.7185 C   0  0  0  0  0  0  0  0  0  0  0  0
   24.2096  -21.5778  -13.9543 O   0  0  0  0  0  0  0  0  0  0  0  0
   21.0432  -20.5808  -11.2764 C   0  0  0  0  0  0  0  0  0  0  0  0
   21.9522  -20.8463  -12.4469 C   0  0  2  0  0  0  0  0  0  0  0  0
   23.2795  -21.0334  -11.9124 N   0  0  0  0  0  0  0  0  0  0  0  0
   21.9830  -19.7765  -13.4363 C   0  0  0  0  0  0  0  0  0  0  0  0
   22.6307  -18.7282  -13.1821 O   0  0  0  0  0  0  0  0  0  0  0  0
   21.3076  -19.8632  -14.6902 N   0  0  0  0  0  0  0  0  0  0  0  0
   21.3501  -18.7127  -15.5767 C   0  0  0  0  0  0  0  0  0  0  0  0
   20.1013  -17.9299  -15.5019 C   0  0  0  0  0  0  0  0  0  0  0  0
   19.4655  -17.4540  -16.6501 O   0  0  0  0  0  0  0  0  0  0  0  0
   19.6167  -17.6983  -14.3664 O   0  0  0  0  0  0  0  0  0  0  0  0
  2  1  1  6
  2 13  1  0
  3  2  1  0
  4 12  1  0
  4  3  1  0
  5  4  2  0
  6  5  1  0
  6  7  1  0
  7 12  2  0
  8  7  1  0
  8  9  2  0
  9 10  1  0
 10 11  2  0
 12 11  1  0
 13 14  2  0
 16 15  1  1
 16 18  1  0
 17 13  1  0
 17 16  1  0
 18 19  2  0
 20 18  1  0
 20 21  1  0
 22 21  1  0
 22 23  1  0
 24 22  2  0
M  END
$$$$
