WAG.pdb
     RDKit          3D

 24 25  0  0  1  0  0  0  0  0999 V2000
   27.6366  -20.4623  -11.5120 N   0  0  0  0  0  0  0  0  0  0  0  0
   26.4413  -21.1942  -11.1838 C   0  0  1  0  0  0  0  0  0  0  0  0
   26.1791  -20.9516   -9.6987 C   0  0  0  0  0  0  0  0  0  0  0  0
   27.5169  -20.9618   -9.0514 C   0  0  0  0  0  0  0  0  0  0  0  0
   28.6173  -21.6472   -9.4599 C   0  0  0  0  0  0  0  0  0  0  0  0
   29.6635  -21.4356   -8.6437 N   0  0  0  0  0  0  0  0  0  0  0  0
   29.2525  -20.5969   -7.6780 C   0  0  0  0  0  0  0  0  0  0  0  0
   29.8501  -20.0291   -6.5879 C   0  0  0  0  0  0  0  0  0  0  0  0
   29.1537  -19.1848   -5.7565 C   0  0  0  0  0  0  0  0  0  0  0  0
   27.8458  -18.8838   -5.9878 C   0  0  0  0  0  0  0  0  0  0  0  0
   27.2065  -19.4353   -7.0758 C   0  0  0  0  0  0  0  0  0  0  0  0
   27.9109  -20.2777   -7.9006 C   0  0  0  0  0  0  0  0  0  0  0  0
   25.3015  -20.8289  -12.0372 C   0  0  0  0  0  0  0  0  0  0  0  0
   24.9459  -19.6246  -12.0893 O   0  0  0  0  0  0  0  0  0  0  0  0
   23.4190  -22.6293  -14.6339 C   0  0  0  0  0  0  0  0  0  0  0  0
   23.5432  -21.4852  -13.6632 C   0  0  2  0  0  0  0  0  0  0  0  0
   24.6322  -21.8076  -12.7728 N   0  0  0  0  0  0  0  0  0  0  0  0
   22.3424  -21.2340  -12.8762 C   0  0  0  0  0  0  0  0  0  0  0  0
   22.2218  -21.7874  -11.7527 O   0  0  0  0  0  0  0  0  0  0  0  0
   21.2884  -20.3828  -13.3241 N   0  0  0  0  0  0  0  0  0  0  0  0
   20.0826  -20.2966  -12.5179 C   0  0  0  0  0  0  0  0  0  0  0  0
   19.2281  -21.4860  -12.6996 C   0  0  0  0  0  0  0  0  0  0  0  0
   18.5010  -21.6930  -13.8732 O   0  0  0  0  0  0  0  0  0  0  0  0
   19.1690  -22.3194  -11.7615 O   0  0  0  0  0  0  0  0  0  0  0  0
  2  1  1  6
  2 13  1  0
  3  2  1  0
  4 12  1  0
  4  3  1  0
  5  4  2  0
  6  5  1  0
  6  7  1  0
  7 12  2  0
  8  7  1  0
  8  9  2  0
  9 10  1  0
 10 11  2  0
 12 11  1  0
 13 14  2  0
 16 15  1  6
 16 18  1  0
 17 13  1  0
 17 16  1  0
 18 19  2  0
 20 18  1  0
 20 21  1  0
 22 21  1  0
 22 23  1  0
 24 22  2  0
M  END
$$$$
