VAM.pdb
     RDKit          3D

 21 20  0  0  1  0  0  0  0  0999 V2000
    7.9747  -12.7555   17.7553 C   0  0  0  0  0  0  0  0  0  0  0  0
    7.9057  -13.5306   19.0461 C   0  0  2  0  0  0  0  0  0  0  0  0
    8.7731  -12.8684   20.0873 C   0  0  0  0  0  0  0  0  0  0  0  0
    8.2988  -14.9694   18.8779 C   0  0  2  0  0  0  0  0  0  0  0  0
    7.5367  -15.6420   17.8606 N   0  0  0  0  0  0  0  0  0  0  0  0
    8.2990  -15.7096   20.1651 C   0  0  0  0  0  0  0  0  0  0  0  0
    7.2014  -15.9673   20.7248 O   0  0  0  0  0  0  0  0  0  0  0  0
   10.6934  -17.7868   22.0502 C   0  0  0  0  0  0  0  0  0  0  0  0
    9.4798  -16.8559   22.0729 C   0  0  2  0  0  0  0  0  0  0  0  0
    9.4751  -16.1500   20.8118 N   0  0  0  0  0  0  0  0  0  0  0  0
    9.6155  -15.9614   23.2319 C   0  0  0  0  0  0  0  0  0  0  0  0
   10.3635  -14.9707   23.1687 O   0  0  0  0  0  0  0  0  0  0  0  0
    6.1881  -11.0321   27.5924 C   0  0  0  0  0  0  0  0  0  0  0  0
    6.1173  -12.3602   26.3708 S   0  0  0  0  0  0  0  0  0  0  0  0
    7.5809  -13.4002   26.4645 C   0  0  0  0  0  0  0  0  0  0  0  0
    7.7384  -14.4305   25.4320 C   0  0  0  0  0  0  0  0  0  0  0  0
    8.9612  -15.2619   25.5333 C   0  0  2  0  0  0  0  0  0  0  0  0
    8.8960  -16.2333   24.4076 N   0  0  0  0  0  0  0  0  0  0  0  0
    9.0621  -16.0744   26.7362 C   0  0  0  0  0  0  0  0  0  0  0  0
    8.5448  -17.2553   26.7238 O   0  0  0  0  0  0  0  0  0  0  0  0
    9.6796  -15.7091   27.9304 O   0  0  0  0  0  0  0  0  0  0  0  0
  2  1  1  6
  3  2  1  0
  4  2  1  0
  4  5  1  6
  6  4  1  0
  6  7  2  0
  9  8  1  6
  9 11  1  0
  9 10  1  0
 10  6  1  0
 11 18  1  0
 12 11  2  0
 14 13  1  0
 15 14  1  0
 16 15  1  0
 17 16  1  1
 18 17  1  0
 19 17  1  0
 20 19  2  0
 21 19  1  0
M  END
$$$$
