VAM.pdb
     RDKit          3D

 21 20  0  0  1  0  0  0  0  0999 V2000
    8.2831  -12.5625   17.8197 C   0  0  0  0  0  0  0  0  0  0  0  0
    8.0607  -13.4281   19.0335 C   0  0  2  0  0  0  0  0  0  0  0  0
    8.8472  -12.8848   20.2001 C   0  0  0  0  0  0  0  0  0  0  0  0
    8.4146  -14.8664   18.7901 C   0  0  2  0  0  0  0  0  0  0  0  0
    7.7175  -15.4313   17.6663 N   0  0  0  0  0  0  0  0  0  0  0  0
    8.2792  -15.6966   20.0137 C   0  0  0  0  0  0  0  0  0  0  0  0
    7.1347  -15.8883   20.5016 O   0  0  0  0  0  0  0  0  0  0  0  0
   10.4008  -18.0122   21.9773 C   0  0  0  0  0  0  0  0  0  0  0  0
    9.2652  -16.9881   21.9393 C   0  0  2  0  0  0  0  0  0  0  0  0
    9.3742  -16.2950   20.6758 N   0  0  0  0  0  0  0  0  0  0  0  0
    9.4184  -16.0971   23.0989 C   0  0  0  0  0  0  0  0  0  0  0  0
   10.2844  -15.2056   23.0880 O   0  0  0  0  0  0  0  0  0  0  0  0
    6.2197  -11.0826   27.5378 C   0  0  0  0  0  0  0  0  0  0  0  0
    5.9323  -12.4148   26.3530 S   0  0  0  0  0  0  0  0  0  0  0  0
    7.1386  -13.7319   26.5596 C   0  0  0  0  0  0  0  0  0  0  0  0
    7.3289  -14.6497   25.4310 C   0  0  0  0  0  0  0  0  0  0  0  0
    8.6678  -15.2771   25.3300 C   0  0  2  0  0  0  0  0  0  0  0  0
    8.5818  -16.2600   24.2158 N   0  0  0  0  0  0  0  0  0  0  0  0
    9.0813  -16.0493   26.4920 C   0  0  0  0  0  0  0  0  0  0  0  0
    8.8758  -17.3220   26.4874 O   0  0  0  0  0  0  0  0  0  0  0  0
    9.6984  -15.5515   27.6376 O   0  0  0  0  0  0  0  0  0  0  0  0
  2  1  1  6
  3  2  1  0
  4  2  1  0
  4  5  1  6
  6  4  1  0
  6  7  2  0
  9  8  1  6
  9 11  1  0
  9 10  1  0
 10  6  1  0
 11 18  1  0
 12 11  2  0
 14 13  1  0
 15 14  1  0
 16 15  1  0
 17 16  1  1
 18 17  1  0
 19 17  1  0
 20 19  2  0
 21 19  1  0
M  END
$$$$
