VAM.pdb
     RDKit          3D

 21 20  0  0  1  0  0  0  0  0999 V2000
    7.3750  -12.9128   19.8340 C   0  0  0  0  0  0  0  0  0  0  0  0
    8.5800  -13.4008   19.0713 C   0  0  2  0  0  0  0  0  0  0  0  0
    8.7127  -12.6338   17.7794 C   0  0  0  0  0  0  0  0  0  0  0  0
    8.5333  -14.8763   18.7996 C   0  0  2  0  0  0  0  0  0  0  0  0
    7.5520  -15.2319   17.8104 N   0  0  0  0  0  0  0  0  0  0  0  0
    8.3966  -15.6760   20.0432 C   0  0  0  0  0  0  0  0  0  0  0  0
    7.2469  -15.9966   20.4432 O   0  0  0  0  0  0  0  0  0  0  0  0
   10.4339  -17.9373   22.0294 C   0  0  0  0  0  0  0  0  0  0  0  0
    9.3646  -16.8437   22.0550 C   0  0  2  0  0  0  0  0  0  0  0  0
    9.4959  -16.1066   20.8188 N   0  0  0  0  0  0  0  0  0  0  0  0
    9.5931  -16.0133   23.2467 C   0  0  0  0  0  0  0  0  0  0  0  0
   10.5056  -15.1693   23.2508 O   0  0  0  0  0  0  0  0  0  0  0  0
    6.2492  -10.9628   27.5432 C   0  0  0  0  0  0  0  0  0  0  0  0
    5.9771  -12.5723   26.7709 S   0  0  0  0  0  0  0  0  0  0  0  0
    7.5119  -13.5023   26.6620 C   0  0  0  0  0  0  0  0  0  0  0  0
    7.6146  -14.5039   25.5950 C   0  0  0  0  0  0  0  0  0  0  0  0
    8.9078  -15.2230   25.5093 C   0  0  2  0  0  0  0  0  0  0  0  0
    8.7755  -16.1797   24.3769 N   0  0  0  0  0  0  0  0  0  0  0  0
    9.2418  -16.0407   26.6657 C   0  0  0  0  0  0  0  0  0  0  0  0
    9.5388  -15.4475   27.7711 O   0  0  0  0  0  0  0  0  0  0  0  0
    9.2698  -17.4328   26.7127 O   0  0  0  0  0  0  0  0  0  0  0  0
  2  1  1  6
  3  2  1  0
  4  2  1  0
  4  5  1  6
  6  4  1  0
  6  7  2  0
  9  8  1  6
  9 11  1  0
  9 10  1  0
 10  6  1  0
 11 18  1  0
 12 11  2  0
 14 13  1  0
 15 14  1  0
 16 15  1  0
 17 16  1  1
 18 17  1  0
 19 17  1  0
 20 19  2  0
 21 19  1  0
M  END
$$$$
