GGR.pdb
     RDKit          3D

 20 19  0  0  1  0  0  0  0  0999 V2000
   27.7282  -17.6175  -20.1932 N   0  0  0  0  0  0  0  0  0  0  0  0
   27.1141  -18.4327  -19.1537 C   0  0  0  0  0  0  0  0  0  0  0  0
   28.1669  -19.1402  -18.3901 C   0  0  0  0  0  0  0  0  0  0  0  0
   29.3921  -18.9234  -18.5652 O   0  0  0  0  0  0  0  0  0  0  0  0
   27.7937  -20.1046  -17.4174 N   0  0  0  0  0  0  0  0  0  0  0  0
   28.7229  -20.8201  -16.5836 C   0  0  0  0  0  0  0  0  0  0  0  0
   27.9740  -21.6368  -15.6034 C   0  0  0  0  0  0  0  0  0  0  0  0
   28.6055  -22.3309  -14.7799 O   0  0  0  0  0  0  0  0  0  0  0  0
   26.2087  -20.9989   -9.2230 N   0  0  0  0  0  0  0  0  0  0  0  0
   24.8137  -20.7379   -9.2222 C   0  0  0  0  0  0  0  0  0  0  0  0
   24.1531  -20.9249   -8.1298 N   0  0  0  0  0  0  0  0  0  0  0  0
   24.1166  -20.2826  -10.3590 N   0  0  0  0  0  0  0  0  0  0  0  0
   24.2991  -20.8917  -11.7100 C   0  0  0  0  0  0  0  0  0  0  0  0
   25.5566  -20.3176  -12.2332 C   0  0  0  0  0  0  0  0  0  0  0  0
   26.0379  -20.5752  -13.5814 C   0  0  0  0  0  0  0  0  0  0  0  0
   25.8786  -21.8570  -14.2949 C   0  0  2  0  0  0  0  0  0  0  0  0
   26.5730  -21.6331  -15.6010 N   0  0  0  0  0  0  0  0  0  0  0  0
   24.5582  -22.3299  -14.6623 C   0  0  0  0  0  0  0  0  0  0  0  0
   23.7667  -21.7478  -15.4152 O   0  0  0  0  0  0  0  0  0  0  0  0
   24.0905  -23.5573  -14.1409 O   0  0  0  0  0  0  0  0  0  0  0  0
  2  1  1  0
  3  2  1  0
  4  3  2  0
  5  3  1  0
  6  5  1  0
  7  6  1  0
  7 17  1  0
  8  7  2  0
  9 10  1  0
 10 12  1  0
 11 10  2  0
 12 13  1  0
 13 14  1  0
 14 15  1  0
 16 15  1  6
 16 17  1  0
 18 20  1  0
 18 16  1  0
 19 18  2  0
M  END
$$$$
