GGR.pdb
     RDKit          3D

 20 19  0  0  1  0  0  0  0  0999 V2000
   28.4109  -12.4748  -15.7719 N   0  0  0  0  0  0  0  0  0  0  0  0
   27.0100  -12.0750  -15.7738 C   0  0  0  0  0  0  0  0  0  0  0  0
   26.8027  -10.9953  -16.7653 C   0  0  0  0  0  0  0  0  0  0  0  0
   27.6586  -10.7033  -17.6377 O   0  0  0  0  0  0  0  0  0  0  0  0
   25.5939  -10.2509  -16.7431 N   0  0  0  0  0  0  0  0  0  0  0  0
   25.2193   -9.2788  -17.7357 C   0  0  0  0  0  0  0  0  0  0  0  0
   23.8993   -8.7078  -17.3892 C   0  0  0  0  0  0  0  0  0  0  0  0
   23.4188   -7.8056  -18.1061 O   0  0  0  0  0  0  0  0  0  0  0  0
   16.6054  -13.2106  -15.3525 N   0  0  0  0  0  0  0  0  0  0  0  0
   16.3871  -11.8109  -15.2668 C   0  0  0  0  0  0  0  0  0  0  0  0
   15.1829  -11.3859  -15.0819 N   0  0  0  0  0  0  0  0  0  0  0  0
   17.4247  -10.8636  -15.3729 N   0  0  0  0  0  0  0  0  0  0  0  0
   18.8054  -11.2303  -15.8078 C   0  0  0  0  0  0  0  0  0  0  0  0
   19.5858   -9.9772  -15.7357 C   0  0  0  0  0  0  0  0  0  0  0  0
   20.9696   -9.8859  -16.1744 C   0  0  0  0  0  0  0  0  0  0  0  0
   21.8027   -8.6728  -16.0647 C   0  0  2  0  0  0  0  0  0  0  0  0
   23.1981   -9.1723  -16.2688 N   0  0  0  0  0  0  0  0  0  0  0  0
   21.8599   -7.9357  -14.8176 C   0  0  0  0  0  0  0  0  0  0  0  0
   22.6964   -8.0995  -13.9200 O   0  0  0  0  0  0  0  0  0  0  0  0
   20.8985   -6.9326  -14.5593 O   0  0  0  0  0  0  0  0  0  0  0  0
  2  1  1  0
  3  2  1  0
  4  3  2  0
  5  3  1  0
  6  5  1  0
  7  6  1  0
  7 17  1  0
  8  7  2  0
  9 10  1  0
 10 12  1  0
 11 10  2  0
 12 13  1  0
 13 14  1  0
 14 15  1  0
 16 15  1  1
 16 17  1  0
 18 20  1  0
 18 16  1  0
 19 18  2  0
M  END
$$$$
