GGR.pdb
     RDKit          3D

 20 19  0  0  1  0  0  0  0  0999 V2000
   26.6145  -14.7436  -17.2043 N   0  0  0  0  0  0  0  0  0  0  0  0
   26.2960  -15.8044  -16.2580 C   0  0  0  0  0  0  0  0  0  0  0  0
   27.2634  -16.9146  -16.4118 C   0  0  0  0  0  0  0  0  0  0  0  0
   28.1543  -16.9188  -17.2979 O   0  0  0  0  0  0  0  0  0  0  0  0
   27.1952  -18.0258  -15.5309 N   0  0  0  0  0  0  0  0  0  0  0  0
   28.0901  -19.1520  -15.5719 C   0  0  0  0  0  0  0  0  0  0  0  0
   27.7585  -20.0822  -14.4704 C   0  0  0  0  0  0  0  0  0  0  0  0
   28.3402  -21.1852  -14.4087 O   0  0  0  0  0  0  0  0  0  0  0  0
   22.5841  -22.0033   -7.7937 N   0  0  0  0  0  0  0  0  0  0  0  0
   22.2558  -21.2908   -8.9764 C   0  0  0  0  0  0  0  0  0  0  0  0
   21.0167  -21.0115   -9.2030 N   0  0  0  0  0  0  0  0  0  0  0  0
   23.2208  -20.8728   -9.9143 N   0  0  0  0  0  0  0  0  0  0  0  0
   24.5457  -21.5463  -10.0576 C   0  0  0  0  0  0  0  0  0  0  0  0
   25.5433  -20.4557  -10.0537 C   0  0  0  0  0  0  0  0  0  0  0  0
   26.1399  -19.9309  -11.2720 C   0  0  0  0  0  0  0  0  0  0  0  0
   26.4633  -20.7428  -12.4610 C   0  0  2  0  0  0  0  0  0  0  0  0
   26.8014  -19.7306  -13.5096 N   0  0  0  0  0  0  0  0  0  0  0  0
   25.4484  -21.5762  -13.0752 C   0  0  0  0  0  0  0  0  0  0  0  0
   25.3399  -22.8015  -12.9370 O   0  0  0  0  0  0  0  0  0  0  0  0
   24.4765  -20.9833  -13.9125 O   0  0  0  0  0  0  0  0  0  0  0  0
  2  1  1  0
  3  2  1  0
  4  3  2  0
  5  3  1  0
  6  5  1  0
  7  6  1  0
  7 17  1  0
  8  7  2  0
  9 10  1  0
 10 12  1  0
 11 10  2  0
 12 13  1  0
 13 14  1  0
 14 15  1  0
 16 15  1  1
 16 17  1  0
 18 20  1  0
 18 16  1  0
 19 18  2  0
M  END
$$$$
