GGR.pdb
     RDKit          3D

 20 19  0  0  1  0  0  0  0  0999 V2000
   26.5039  -27.0834  -16.0490 N   0  0  0  0  0  0  0  0  0  0  0  0
   27.3273  -26.4405  -17.0644 C   0  0  0  0  0  0  0  0  0  0  0  0
   26.6894  -25.1752  -17.4935 C   0  0  0  0  0  0  0  0  0  0  0  0
   27.2142  -24.4033  -18.3347 O   0  0  0  0  0  0  0  0  0  0  0  0
   25.4344  -24.8052  -16.9424 N   0  0  0  0  0  0  0  0  0  0  0  0
   24.6337  -23.7048  -17.4100 C   0  0  0  0  0  0  0  0  0  0  0  0
   25.1358  -22.4461  -16.8167 C   0  0  0  0  0  0  0  0  0  0  0  0
   24.6034  -21.3646  -17.1418 O   0  0  0  0  0  0  0  0  0  0  0  0
   23.4925  -20.6317   -9.4229 N   0  0  0  0  0  0  0  0  0  0  0  0
   24.8780  -20.5213   -9.7097 C   0  0  0  0  0  0  0  0  0  0  0  0
   25.7137  -20.5413   -8.7268 N   0  0  0  0  0  0  0  0  0  0  0  0
   25.3838  -20.3922  -11.0185 N   0  0  0  0  0  0  0  0  0  0  0  0
   26.7934  -20.7354  -11.3721 C   0  0  0  0  0  0  0  0  0  0  0  0
   26.9163  -20.4509  -12.8173 C   0  0  0  0  0  0  0  0  0  0  0  0
   26.6290  -21.4429  -13.8415 C   0  0  0  0  0  0  0  0  0  0  0  0
   26.6155  -21.1675  -15.2912 C   0  0  2  0  0  0  0  0  0  0  0  0
   26.1975  -22.4673  -15.9028 N   0  0  0  0  0  0  0  0  0  0  0  0
   27.8426  -20.8200  -15.9807 C   0  0  0  0  0  0  0  0  0  0  0  0
   28.6858  -21.6223  -16.4021 O   0  0  0  0  0  0  0  0  0  0  0  0
   28.1456  -19.4598  -16.2157 O   0  0  0  0  0  0  0  0  0  0  0  0
  2  1  1  0
  3  2  1  0
  4  3  2  0
  5  3  1  0
  6  5  1  0
  7  6  1  0
  7 17  1  0
  8  7  2  0
  9 10  1  0
 10 12  1  0
 11 10  2  0
 12 13  1  0
 13 14  1  0
 14 15  1  0
 16 15  1  1
 16 17  1  0
 18 20  1  0
 18 16  1  0
 19 18  2  0
M  END
$$$$
