GGR.pdb
     RDKit          3D

 20 19  0  0  1  0  0  0  0  0999 V2000
   18.8362  -20.6752  -12.7541 N   0  0  0  0  0  0  0  0  0  0  0  0
   19.9254  -21.3927  -13.4029 C   0  0  0  0  0  0  0  0  0  0  0  0
   20.9295  -20.4260  -13.9023 C   0  0  0  0  0  0  0  0  0  0  0  0
   20.6639  -19.2134  -14.0969 O   0  0  0  0  0  0  0  0  0  0  0  0
   22.2495  -20.8709  -14.1766 N   0  0  0  0  0  0  0  0  0  0  0  0
   23.3363  -20.0072  -14.5553 C   0  0  0  0  0  0  0  0  0  0  0  0
   24.5797  -20.8018  -14.6625 C   0  0  0  0  0  0  0  0  0  0  0  0
   24.9841  -21.4373  -13.6668 O   0  0  0  0  0  0  0  0  0  0  0  0
   26.3348  -27.9724  -16.1037 N   0  0  0  0  0  0  0  0  0  0  0  0
   27.4842  -27.4425  -16.7458 C   0  0  0  0  0  0  0  0  0  0  0  0
   28.4516  -28.2451  -17.0371 N   0  0  0  0  0  0  0  0  0  0  0  0
   27.6174  -26.0805  -17.0814 N   0  0  0  0  0  0  0  0  0  0  0  0
   26.6140  -25.0517  -16.6757 C   0  0  0  0  0  0  0  0  0  0  0  0
   27.1043  -23.7788  -17.2449 C   0  0  0  0  0  0  0  0  0  0  0  0
   26.4049  -22.5161  -17.0663 C   0  0  0  0  0  0  0  0  0  0  0  0
   26.5648  -21.6304  -15.8969 C   0  0  2  0  0  0  0  0  0  0  0  0
   25.2958  -20.8387  -15.8661 N   0  0  0  0  0  0  0  0  0  0  0  0
   27.6159  -20.6320  -15.8745 C   0  0  0  0  0  0  0  0  0  0  0  0
   27.5187  -19.4720  -16.2955 O   0  0  0  0  0  0  0  0  0  0  0  0
   28.8785  -20.9653  -15.3342 O   0  0  0  0  0  0  0  0  0  0  0  0
  2  1  1  0
  3  2  1  0
  4  3  2  0
  5  3  1  0
  6  5  1  0
  7  6  1  0
  7 17  1  0
  8  7  2  0
  9 10  1  0
 10 12  1  0
 11 10  2  0
 12 13  1  0
 13 14  1  0
 14 15  1  0
 16 15  1  6
 16 17  1  0
 18 20  1  0
 18 16  1  0
 19 18  2  0
M  END
$$$$
