DVQ.pdb
     RDKit          3D

 25 24  0  0  1  0  0  0  0  0999 V2000
    7.8878  -17.6482   17.8911 N   0  0  0  0  0  0  0  0  0  0  0  0
    9.2967  -17.4147   18.1266 C   0  0  1  0  0  0  0  0  0  0  0  0
   10.0514  -17.1087   16.8750 C   0  0  0  0  0  0  0  0  0  0  0  0
    9.8632  -18.2021   15.9012 C   0  0  0  0  0  0  0  0  0  0  0  0
    9.5293  -19.3405   16.2811 O   0  0  0  0  0  0  0  0  0  0  0  0
    9.5127  -16.4018   19.1889 C   0  0  0  0  0  0  0  0  0  0  0  0
   10.6861  -16.1474   19.5422 O   0  0  0  0  0  0  0  0  0  0  0  0
   10.0576  -17.9597   14.5590 O   0  0  0  0  0  0  0  0  0  0  0  0
    7.5865  -12.7021   21.7781 C   0  0  0  0  0  0  0  0  0  0  0  0
    7.4625  -13.7410   20.6979 C   0  0  1  0  0  0  0  0  0  0  0  0
    7.6815  -13.0859   19.3392 C   0  0  0  0  0  0  0  0  0  0  0  0
    8.5100  -14.8163   20.8747 C   0  0  2  0  0  0  0  0  0  0  0  0
    8.4089  -15.7388   19.7902 N   0  0  0  0  0  0  0  0  0  0  0  0
    8.2322  -15.4510   22.1930 C   0  0  0  0  0  0  0  0  0  0  0  0
    7.1065  -15.6452   22.6658 O   0  0  0  0  0  0  0  0  0  0  0  0
    7.1463  -18.6564   25.7358 N   0  0  0  0  0  0  0  0  0  0  0  0
    6.9714  -18.9560   24.3616 C   0  0  0  0  0  0  0  0  0  0  0  0
    5.9337  -19.5006   23.8941 O   0  0  0  0  0  0  0  0  0  0  0  0
    8.0944  -18.5968   23.4230 C   0  0  0  0  0  0  0  0  0  0  0  0
    9.2303  -17.9719   24.1993 C   0  0  0  0  0  0  0  0  0  0  0  0
    9.2140  -16.4898   24.2512 C   0  0  2  0  0  0  0  0  0  0  0  0
    9.3700  -15.8577   22.9544 N   0  0  0  0  0  0  0  0  0  0  0  0
   10.3061  -16.0433   25.1798 C   0  0  0  0  0  0  0  0  0  0  0  0
   11.2838  -15.4271   24.6986 O   0  0  0  0  0  0  0  0  0  0  0  0
   10.2692  -16.2851   26.5350 O   0  0  0  0  0  0  0  0  0  0  0  0
  2  1  1  6
  2  6  1  0
  2  3  1  0
  3  4  1  0
  4  5  2  0
  6 13  1  0
  7  6  2  0
  8  4  1  0
 10  9  1  1
 11 10  1  0
 12 10  1  0
 12 13  1  6
 14 15  2  0
 14 12  1  0
 16 17  1  0
 17 19  1  0
 18 17  2  0
 19 20  1  0
 21 22  1  0
 21 20  1  6
 22 14  1  0
 23 21  1  0
 24 23  2  0
 25 23  1  0
M  END
$$$$
