DVQ.pdb
     RDKit          3D

 25 24  0  0  1  0  0  0  0  0999 V2000
    8.7366  -17.8818   16.0894 N   0  0  0  0  0  0  0  0  0  0  0  0
    7.8844  -17.5253   17.2037 C   0  0  1  0  0  0  0  0  0  0  0  0
    7.2571  -18.7122   17.8575 C   0  0  0  0  0  0  0  0  0  0  0  0
    6.4850  -19.4790   16.8599 C   0  0  0  0  0  0  0  0  0  0  0  0
    5.5905  -18.9290   16.1896 O   0  0  0  0  0  0  0  0  0  0  0  0
    8.5863  -16.6433   18.1682 C   0  0  0  0  0  0  0  0  0  0  0  0
    9.7938  -16.8652   18.4113 O   0  0  0  0  0  0  0  0  0  0  0  0
    6.7580  -20.8157   16.6682 O   0  0  0  0  0  0  0  0  0  0  0  0
    6.2488  -14.0946   20.7460 C   0  0  0  0  0  0  0  0  0  0  0  0
    7.5046  -13.5964   20.0855 C   0  0  1  0  0  0  0  0  0  0  0  0
    8.2036  -12.6069   21.0102 C   0  0  0  0  0  0  0  0  0  0  0  0
    8.4539  -14.7424   19.8206 C   0  0  2  0  0  0  0  0  0  0  0  0
    7.8986  -15.5726   18.8009 N   0  0  0  0  0  0  0  0  0  0  0  0
    8.6110  -15.4572   21.1176 C   0  0  0  0  0  0  0  0  0  0  0  0
    7.8949  -16.3858   21.5092 O   0  0  0  0  0  0  0  0  0  0  0  0
   14.3553  -16.1573   22.9137 N   0  0  0  0  0  0  0  0  0  0  0  0
   13.7545  -17.0171   23.8669 C   0  0  0  0  0  0  0  0  0  0  0  0
   14.4103  -17.7881   24.6203 O   0  0  0  0  0  0  0  0  0  0  0  0
   12.2514  -16.9954   23.9734 C   0  0  0  0  0  0  0  0  0  0  0  0
   11.6813  -16.0185   22.9713 C   0  0  0  0  0  0  0  0  0  0  0  0
   10.2056  -15.8749   23.0050 C   0  0  2  0  0  0  0  0  0  0  0  0
    9.6775  -15.0179   21.9598 N   0  0  0  0  0  0  0  0  0  0  0  0
    9.8190  -15.3436   24.3550 C   0  0  0  0  0  0  0  0  0  0  0  0
    9.7080  -14.1050   24.4994 O   0  0  0  0  0  0  0  0  0  0  0  0
    9.5822  -16.1665   25.4335 O   0  0  0  0  0  0  0  0  0  0  0  0
  2  1  1  6
  2  6  1  0
  2  3  1  0
  3  4  1  0
  4  5  2  0
  6 13  1  0
  7  6  2  0
  8  4  1  0
 10  9  1  1
 11 10  1  0
 12 10  1  0
 12 13  1  6
 14 15  2  0
 14 12  1  0
 16 17  1  0
 17 19  1  0
 18 17  2  0
 19 20  1  0
 21 22  1  0
 21 20  1  1
 22 14  1  0
 23 21  1  0
 24 23  2  0
 25 23  1  0
M  END
$$$$
