DVQ.pdb
     RDKit          3D

 25 24  0  0  1  0  0  0  0  0999 V2000
    9.5114  -17.7330   18.5438 N   0  0  0  0  0  0  0  0  0  0  0  0
   10.7820  -17.2322   19.0233 C   0  0  1  0  0  0  0  0  0  0  0  0
   11.6318  -16.6673   17.9331 C   0  0  0  0  0  0  0  0  0  0  0  0
   12.2214  -17.7659   17.1426 C   0  0  0  0  0  0  0  0  0  0  0  0
   11.6064  -18.2532   16.1751 O   0  0  0  0  0  0  0  0  0  0  0  0
   10.6062  -16.2932   20.1584 C   0  0  0  0  0  0  0  0  0  0  0  0
   11.6273  -15.8242   20.7095 O   0  0  0  0  0  0  0  0  0  0  0  0
   13.4647  -18.2555   17.4783 O   0  0  0  0  0  0  0  0  0  0  0  0
    7.5100  -13.7040   20.4190 C   0  0  0  0  0  0  0  0  0  0  0  0
    7.6339  -14.5763   21.6378 C   0  0  1  0  0  0  0  0  0  0  0  0
    6.6696  -15.7506   21.5189 C   0  0  0  0  0  0  0  0  0  0  0  0
    9.0357  -15.1298   21.7526 C   0  0  2  0  0  0  0  0  0  0  0  0
    9.3055  -15.9383   20.6076 N   0  0  0  0  0  0  0  0  0  0  0  0
    9.0704  -15.9069   23.0224 C   0  0  0  0  0  0  0  0  0  0  0  0
    9.0348  -17.1401   23.1029 O   0  0  0  0  0  0  0  0  0  0  0  0
   10.5086  -14.7951   30.2967 N   0  0  0  0  0  0  0  0  0  0  0  0
   10.0251  -14.4125   29.0205 C   0  0  0  0  0  0  0  0  0  0  0  0
    9.5979  -13.2551   28.7559 O   0  0  0  0  0  0  0  0  0  0  0  0
   10.0301  -15.4561   27.9333 C   0  0  0  0  0  0  0  0  0  0  0  0
    9.5817  -14.8386   26.6290 C   0  0  0  0  0  0  0  0  0  0  0  0
    9.4624  -15.7864   25.4945 C   0  0  2  0  0  0  0  0  0  0  0  0
    9.1495  -15.1478   24.2296 N   0  0  0  0  0  0  0  0  0  0  0  0
    8.4069  -16.7969   25.8397 C   0  0  0  0  0  0  0  0  0  0  0  0
    8.7155  -17.7487   26.5922 O   0  0  0  0  0  0  0  0  0  0  0  0
    7.1182  -16.7130   25.3616 O   0  0  0  0  0  0  0  0  0  0  0  0
  2  1  1  6
  2  6  1  0
  2  3  1  0
  3  4  1  0
  4  5  2  0
  6 13  1  0
  7  6  2  0
  8  4  1  0
 10  9  1  6
 11 10  1  0
 12 10  1  0
 12 13  1  6
 14 15  2  0
 14 12  1  0
 16 17  1  0
 17 19  1  0
 18 17  2  0
 19 20  1  0
 21 22  1  0
 21 20  1  1
 22 14  1  0
 23 21  1  0
 24 23  2  0
 25 23  1  0
M  END
$$$$
