DVQ.pdb
     RDKit          3D

 25 24  0  0  1  0  0  0  0  0999 V2000
    8.9636  -17.5687   16.2292 N   0  0  0  0  0  0  0  0  0  0  0  0
    8.0414  -17.2424   17.2960 C   0  0  1  0  0  0  0  0  0  0  0  0
    7.2801  -18.4290   17.7882 C   0  0  0  0  0  0  0  0  0  0  0  0
    8.2077  -19.5541   18.0187 C   0  0  0  0  0  0  0  0  0  0  0  0
    8.8867  -19.6140   19.0614 O   0  0  0  0  0  0  0  0  0  0  0  0
    8.7123  -16.4975   18.3896 C   0  0  0  0  0  0  0  0  0  0  0  0
    9.9208  -16.7301   18.6172 O   0  0  0  0  0  0  0  0  0  0  0  0
    8.3219  -20.5477   17.0712 O   0  0  0  0  0  0  0  0  0  0  0  0
    8.0468  -13.0518   21.9253 C   0  0  0  0  0  0  0  0  0  0  0  0
    7.5218  -13.8130   20.7393 C   0  0  1  0  0  0  0  0  0  0  0  0
    7.2994  -12.8501   19.5789 C   0  0  0  0  0  0  0  0  0  0  0  0
    8.5199  -14.8584   20.2969 C   0  0  2  0  0  0  0  0  0  0  0  0
    7.9945  -15.5431   19.1601 N   0  0  0  0  0  0  0  0  0  0  0  0
    8.7195  -15.7597   21.4655 C   0  0  0  0  0  0  0  0  0  0  0  0
    7.8749  -16.5453   21.9103 O   0  0  0  0  0  0  0  0  0  0  0  0
   11.3887  -20.4227   22.0192 N   0  0  0  0  0  0  0  0  0  0  0  0
   12.1835  -19.4079   21.4300 C   0  0  0  0  0  0  0  0  0  0  0  0
   13.0878  -19.6368   20.5803 O   0  0  0  0  0  0  0  0  0  0  0  0
   11.9199  -17.9852   21.8514 C   0  0  0  0  0  0  0  0  0  0  0  0
   10.7302  -17.9391   22.7820 C   0  0  0  0  0  0  0  0  0  0  0  0
   10.3210  -16.5793   23.2099 C   0  0  2  0  0  0  0  0  0  0  0  0
    9.9932  -15.6935   22.1083 N   0  0  0  0  0  0  0  0  0  0  0  0
   11.4329  -15.9942   24.0318 C   0  0  0  0  0  0  0  0  0  0  0  0
   11.6933  -16.5148   25.1402 O   0  0  0  0  0  0  0  0  0  0  0  0
   12.1733  -14.9121   23.6108 O   0  0  0  0  0  0  0  0  0  0  0  0
  2  1  1  6
  2  6  1  0
  2  3  1  0
  3  4  1  0
  4  5  2  0
  6 13  1  0
  7  6  2  0
  8  4  1  0
 10  9  1  1
 11 10  1  0
 12 10  1  0
 12 13  1  6
 14 15  2  0
 14 12  1  0
 16 17  1  0
 17 19  1  0
 18 17  2  0
 19 20  1  0
 21 22  1  0
 21 20  1  6
 22 14  1  0
 23 21  1  0
 24 23  2  0
 25 23  1  0
M  END
$$$$
