DVQ.pdb
     RDKit          3D

 25 24  0  0  1  0  0  0  0  0999 V2000
    9.0456  -17.3099   16.2688 N   0  0  0  0  0  0  0  0  0  0  0  0
    8.4180  -17.4951   17.5598 C   0  0  1  0  0  0  0  0  0  0  0  0
    8.3969  -18.9233   17.9952 C   0  0  0  0  0  0  0  0  0  0  0  0
    7.7191  -19.7447   16.9728 C   0  0  0  0  0  0  0  0  0  0  0  0
    8.3790  -20.4360   16.1738 O   0  0  0  0  0  0  0  0  0  0  0  0
    8.9977  -16.5917   18.5840 C   0  0  0  0  0  0  0  0  0  0  0  0
   10.2435  -16.5089   18.6712 O   0  0  0  0  0  0  0  0  0  0  0  0
    6.3432  -19.7469   16.9034 O   0  0  0  0  0  0  0  0  0  0  0  0
    7.9096  -13.2539   22.1115 C   0  0  0  0  0  0  0  0  0  0  0  0
    7.4692  -14.1401   20.9791 C   0  0  1  0  0  0  0  0  0  0  0  0
    7.0145  -13.2761   19.8087 C   0  0  0  0  0  0  0  0  0  0  0  0
    8.6155  -15.0046   20.5066 C   0  0  2  0  0  0  0  0  0  0  0  0
    8.1536  -15.8404   19.4457 N   0  0  0  0  0  0  0  0  0  0  0  0
    9.0628  -15.7832   21.6945 C   0  0  0  0  0  0  0  0  0  0  0  0
    8.4924  -16.7830   22.1457 O   0  0  0  0  0  0  0  0  0  0  0  0
   15.1098  -15.6104   22.9122 N   0  0  0  0  0  0  0  0  0  0  0  0
   14.7488  -16.5359   23.9231 C   0  0  0  0  0  0  0  0  0  0  0  0
   15.5853  -17.1067   24.6757 O   0  0  0  0  0  0  0  0  0  0  0  0
   13.2831  -16.8417   24.0949 C   0  0  0  0  0  0  0  0  0  0  0  0
   12.4702  -16.0110   23.1292 C   0  0  0  0  0  0  0  0  0  0  0  0
   11.0015  -16.1911   23.2290 C   0  0  2  0  0  0  0  0  0  0  0  0
   10.2445  -15.3200   22.3494 N   0  0  0  0  0  0  0  0  0  0  0  0
   10.5992  -15.9614   24.6572 C   0  0  0  0  0  0  0  0  0  0  0  0
   10.0273  -14.8871   24.9507 O   0  0  0  0  0  0  0  0  0  0  0  0
   10.8346  -16.8865   25.6498 O   0  0  0  0  0  0  0  0  0  0  0  0
  2  1  1  6
  2  6  1  0
  2  3  1  0
  3  4  1  0
  4  5  2  0
  6 13  1  0
  7  6  2  0
  8  4  1  0
 10  9  1  1
 11 10  1  0
 12 10  1  0
 12 13  1  6
 14 15  2  0
 14 12  1  0
 16 17  1  0
 17 19  1  0
 18 17  2  0
 19 20  1  0
 21 22  1  0
 21 20  1  1
 22 14  1  0
 23 21  1  0
 24 23  2  0
 25 23  1  0
M  END
$$$$
