DVQ.pdb
     RDKit          3D

 25 24  0  0  1  0  0  0  0  0999 V2000
    9.3130  -17.0644   15.6182 N   0  0  0  0  0  0  0  0  0  0  0  0
    8.4017  -17.0019   16.7411 C   0  0  1  0  0  0  0  0  0  0  0  0
    7.8021  -18.3277   17.0763 C   0  0  0  0  0  0  0  0  0  0  0  0
    7.0048  -18.8158   15.9337 C   0  0  0  0  0  0  0  0  0  0  0  0
    6.8874  -18.1284   14.9014 O   0  0  0  0  0  0  0  0  0  0  0  0
    9.0246  -16.3410   17.9142 C   0  0  0  0  0  0  0  0  0  0  0  0
   10.2657  -16.4205   18.0556 O   0  0  0  0  0  0  0  0  0  0  0  0
    6.3861  -20.0443   16.0102 O   0  0  0  0  0  0  0  0  0  0  0  0
    8.1869  -13.3632   21.8023 C   0  0  0  0  0  0  0  0  0  0  0  0
    7.6851  -14.0596   20.5675 C   0  0  1  0  0  0  0  0  0  0  0  0
    7.4098  -13.0266   19.4812 C   0  0  0  0  0  0  0  0  0  0  0  0
    8.7241  -15.0249   20.0447 C   0  0  2  0  0  0  0  0  0  0  0  0
    8.2260  -15.6360   18.8548 N   0  0  0  0  0  0  0  0  0  0  0  0
    8.9606  -16.0090   21.1371 C   0  0  0  0  0  0  0  0  0  0  0  0
    8.1586  -16.8782   21.4973 O   0  0  0  0  0  0  0  0  0  0  0  0
   14.1684  -19.6674   22.2373 N   0  0  0  0  0  0  0  0  0  0  0  0
   13.8322  -18.4382   21.6169 C   0  0  0  0  0  0  0  0  0  0  0  0
   14.6854  -17.6530   21.1192 O   0  0  0  0  0  0  0  0  0  0  0  0
   12.3731  -18.0658   21.5563 C   0  0  0  0  0  0  0  0  0  0  0  0
   11.9858  -17.3087   22.8054 C   0  0  0  0  0  0  0  0  0  0  0  0
   10.5722  -16.8628   22.8556 C   0  0  2  0  0  0  0  0  0  0  0  0
   10.2182  -15.9226   21.8085 N   0  0  0  0  0  0  0  0  0  0  0  0
   10.3227  -16.2534   24.2050 C   0  0  0  0  0  0  0  0  0  0  0  0
   10.0506  -15.0330   24.2674 O   0  0  0  0  0  0  0  0  0  0  0  0
   10.3808  -16.9861   25.3695 O   0  0  0  0  0  0  0  0  0  0  0  0
  2  1  1  6
  2  6  1  0
  2  3  1  0
  3  4  1  0
  4  5  2  0
  6 13  1  0
  7  6  2  0
  8  4  1  0
 10  9  1  1
 11 10  1  0
 12 10  1  0
 12 13  1  6
 14 15  2  0
 14 12  1  0
 16 17  1  0
 17 19  1  0
 18 17  2  0
 19 20  1  0
 21 22  1  0
 21 20  1  1
 22 14  1  0
 23 21  1  0
 24 23  2  0
 25 23  1  0
M  END
$$$$
