DVQ.pdb
     RDKit          3D

 25 24  0  0  1  0  0  0  0  0999 V2000
    8.4542  -15.0543   20.6298 N   0  0  0  0  0  0  0  0  0  0  0  0
    7.8729  -15.5561   21.8568 C   0  0  1  0  0  0  0  0  0  0  0  0
    7.9022  -17.0464   21.9457 C   0  0  0  0  0  0  0  0  0  0  0  0
    7.2725  -17.6286   20.7441 C   0  0  0  0  0  0  0  0  0  0  0  0
    6.2633  -17.1023   20.2378 O   0  0  0  0  0  0  0  0  0  0  0  0
    8.4616  -14.8986   23.0493 C   0  0  0  0  0  0  0  0  0  0  0  0
    9.7072  -14.8863   23.1709 O   0  0  0  0  0  0  0  0  0  0  0  0
    7.8078  -18.7644   20.1772 O   0  0  0  0  0  0  0  0  0  0  0  0
    7.4142  -12.4783   27.2686 C   0  0  0  0  0  0  0  0  0  0  0  0
    6.9536  -13.0641   25.9623 C   0  0  1  0  0  0  0  0  0  0  0  0
    6.5368  -11.9387   25.0228 C   0  0  0  0  0  0  0  0  0  0  0  0
    8.0744  -13.8349   25.3032 C   0  0  2  0  0  0  0  0  0  0  0  0
    7.6261  -14.2989   24.0300 N   0  0  0  0  0  0  0  0  0  0  0  0
    8.4115  -14.9493   26.2317 C   0  0  0  0  0  0  0  0  0  0  0  0
    7.6452  -15.8654   26.5511 O   0  0  0  0  0  0  0  0  0  0  0  0
   13.3264  -18.8412   25.9262 N   0  0  0  0  0  0  0  0  0  0  0  0
   12.2590  -19.0046   26.8441 C   0  0  0  0  0  0  0  0  0  0  0  0
   11.5490  -20.0457   26.9084 O   0  0  0  0  0  0  0  0  0  0  0  0
   11.9717  -17.8646   27.7870 C   0  0  0  0  0  0  0  0  0  0  0  0
   11.4482  -16.6782   27.0111 C   0  0  0  0  0  0  0  0  0  0  0  0
   10.2197  -16.0589   27.5652 C   0  0  2  0  0  0  0  0  0  0  0  0
    9.7276  -14.9379   26.7862 N   0  0  0  0  0  0  0  0  0  0  0  0
   10.5104  -15.6238   28.9725 C   0  0  0  0  0  0  0  0  0  0  0  0
   10.7920  -16.4995   29.8217 O   0  0  0  0  0  0  0  0  0  0  0  0
   10.4798  -14.3025   29.3593 O   0  0  0  0  0  0  0  0  0  0  0  0
  2  1  1  6
  2  6  1  0
  2  3  1  0
  3  4  1  0
  4  5  2  0
  6 13  1  0
  7  6  2  0
  8  4  1  0
 10  9  1  1
 11 10  1  0
 12 10  1  0
 12 13  1  6
 14 15  2  0
 14 12  1  0
 16 17  1  0
 17 19  1  0
 18 17  2  0
 19 20  1  0
 21 22  1  0
 21 20  1  6
 22 14  1  0
 23 21  1  0
 24 23  2  0
 25 23  1  0
M  END
$$$$
