DVQ.pdb
     RDKit          3D

 25 24  0  0  1  0  0  0  0  0999 V2000
    9.2267  -16.0131   20.7844 N   0  0  0  0  0  0  0  0  0  0  0  0
    8.4622  -16.3662   21.9616 C   0  0  1  0  0  0  0  0  0  0  0  0
    8.4912  -17.8301   22.2548 C   0  0  0  0  0  0  0  0  0  0  0  0
    7.8970  -18.5748   21.1271 C   0  0  0  0  0  0  0  0  0  0  0  0
    8.5981  -18.9289   20.1602 O   0  0  0  0  0  0  0  0  0  0  0  0
    8.8471  -15.5391   23.1316 C   0  0  0  0  0  0  0  0  0  0  0  0
   10.0627  -15.4186   23.4041 O   0  0  0  0  0  0  0  0  0  0  0  0
    6.5541  -18.8818   21.1459 O   0  0  0  0  0  0  0  0  0  0  0  0
    7.1097  -12.5952   26.7490 C   0  0  0  0  0  0  0  0  0  0  0  0
    6.8797  -13.3778   25.4855 C   0  0  1  0  0  0  0  0  0  0  0  0
    6.5639  -12.4162   24.3459 C   0  0  0  0  0  0  0  0  0  0  0  0
    8.1200  -14.1569   25.1120 C   0  0  2  0  0  0  0  0  0  0  0  0
    7.8543  -14.9012   23.9234 N   0  0  0  0  0  0  0  0  0  0  0  0
    8.4253  -15.0315   26.2781 C   0  0  0  0  0  0  0  0  0  0  0  0
    7.6981  -15.9400   26.6955 O   0  0  0  0  0  0  0  0  0  0  0  0
   12.0731  -18.7271   26.6602 N   0  0  0  0  0  0  0  0  0  0  0  0
   12.2970  -18.5944   28.0534 C   0  0  0  0  0  0  0  0  0  0  0  0
   12.7243  -19.5313   28.7825 O   0  0  0  0  0  0  0  0  0  0  0  0
   12.0049  -17.2554   28.6804 C   0  0  0  0  0  0  0  0  0  0  0  0
   11.4596  -16.3092   27.6361 C   0  0  0  0  0  0  0  0  0  0  0  0
   10.1521  -15.6935   27.9691 C   0  0  2  0  0  0  0  0  0  0  0  0
    9.6591  -14.7823   26.9529 N   0  0  0  0  0  0  0  0  0  0  0  0
   10.2938  -14.9781   29.2815 C   0  0  0  0  0  0  0  0  0  0  0  0
   10.3399  -13.7270   29.2772 O   0  0  0  0  0  0  0  0  0  0  0  0
   10.3728  -15.6461   30.4831 O   0  0  0  0  0  0  0  0  0  0  0  0
  2  1  1  6
  2  6  1  0
  2  3  1  0
  3  4  1  0
  4  5  2  0
  6 13  1  0
  7  6  2  0
  8  4  1  0
 10  9  1  1
 11 10  1  0
 12 10  1  0
 12 13  1  6
 14 15  2  0
 14 12  1  0
 16 17  1  0
 17 19  1  0
 18 17  2  0
 19 20  1  0
 21 22  1  0
 21 20  1  6
 22 14  1  0
 23 21  1  0
 24 23  2  0
 25 23  1  0
M  END
$$$$
