DVQ.pdb
     RDKit          3D

 25 24  0  0  1  0  0  0  0  0999 V2000
    8.4584  -15.2935   20.7332 N   0  0  0  0  0  0  0  0  0  0  0  0
    7.7623  -15.7184   21.9291 C   0  0  1  0  0  0  0  0  0  0  0  0
    7.6730  -17.2039   22.0516 C   0  0  0  0  0  0  0  0  0  0  0  0
    7.0146  -17.7628   20.8543 C   0  0  0  0  0  0  0  0  0  0  0  0
    7.6904  -18.2174   19.9117 O   0  0  0  0  0  0  0  0  0  0  0  0
    8.3204  -15.0752   23.1439 C   0  0  0  0  0  0  0  0  0  0  0  0
    9.5622  -15.0685   23.2995 O   0  0  0  0  0  0  0  0  0  0  0  0
    5.6390  -17.7824   20.7802 O   0  0  0  0  0  0  0  0  0  0  0  0
    7.1417  -12.6275   27.3185 C   0  0  0  0  0  0  0  0  0  0  0  0
    6.7457  -13.1723   25.9739 C   0  0  1  0  0  0  0  0  0  0  0  0
    6.3892  -12.0171   25.0456 C   0  0  0  0  0  0  0  0  0  0  0  0
    7.8928  -13.9362   25.3533 C   0  0  2  0  0  0  0  0  0  0  0  0
    7.4603  -14.4827   24.1076 N   0  0  0  0  0  0  0  0  0  0  0  0
    8.2704  -14.9872   26.3385 C   0  0  0  0  0  0  0  0  0  0  0  0
    7.5319  -15.9022   26.7206 O   0  0  0  0  0  0  0  0  0  0  0  0
   12.3073  -18.5713   25.6707 N   0  0  0  0  0  0  0  0  0  0  0  0
   12.4337  -18.7846   27.0662 C   0  0  0  0  0  0  0  0  0  0  0  0
   12.8956  -19.8454   27.5695 O   0  0  0  0  0  0  0  0  0  0  0  0
   11.9889  -17.6740   27.9827 C   0  0  0  0  0  0  0  0  0  0  0  0
   11.4100  -16.5398   27.1691 C   0  0  0  0  0  0  0  0  0  0  0  0
   10.1336  -15.9867   27.6834 C   0  0  2  0  0  0  0  0  0  0  0  0
    9.5931  -14.9120   26.8719 N   0  0  0  0  0  0  0  0  0  0  0  0
   10.3641  -15.5095   29.0882 C   0  0  0  0  0  0  0  0  0  0  0  0
   10.3913  -14.2764   29.3026 O   0  0  0  0  0  0  0  0  0  0  0  0
   10.5441  -16.3759   30.1433 O   0  0  0  0  0  0  0  0  0  0  0  0
  2  1  1  6
  2  6  1  0
  2  3  1  0
  3  4  1  0
  4  5  2  0
  6 13  1  0
  7  6  2  0
  8  4  1  0
 10  9  1  1
 11 10  1  0
 12 10  1  0
 12 13  1  6
 14 15  2  0
 14 12  1  0
 16 17  1  0
 17 19  1  0
 18 17  2  0
 19 20  1  0
 21 22  1  0
 21 20  1  6
 22 14  1  0
 23 21  1  0
 24 23  2  0
 25 23  1  0
M  END
$$$$
