DVQ.pdb
     RDKit          3D

 25 24  0  0  1  0  0  0  0  0999 V2000
    9.3920  -16.0817   18.7325 N   0  0  0  0  0  0  0  0  0  0  0  0
    8.5667  -16.5221   19.8371 C   0  0  1  0  0  0  0  0  0  0  0  0
    8.3621  -18.0011   19.8550 C   0  0  0  0  0  0  0  0  0  0  0  0
    7.8212  -18.4439   18.5548 C   0  0  0  0  0  0  0  0  0  0  0  0
    7.0387  -17.7183   17.9122 O   0  0  0  0  0  0  0  0  0  0  0  0
    9.0618  -15.9958   21.1328 C   0  0  0  0  0  0  0  0  0  0  0  0
   10.2978  -15.9323   21.3189 O   0  0  0  0  0  0  0  0  0  0  0  0
    8.1871  -19.6714   18.0473 O   0  0  0  0  0  0  0  0  0  0  0  0
    7.8220  -13.8078   25.3964 C   0  0  0  0  0  0  0  0  0  0  0  0
    7.5134  -14.1835   23.9733 C   0  0  1  0  0  0  0  0  0  0  0  0
    7.5905  -12.9406   23.0944 C   0  0  0  0  0  0  0  0  0  0  0  0
    8.5220  -15.1850   23.4594 C   0  0  2  0  0  0  0  0  0  0  0  0
    8.1493  -15.5756   22.1381 N   0  0  0  0  0  0  0  0  0  0  0  0
    8.5005  -16.3231   24.4196 C   0  0  0  0  0  0  0  0  0  0  0  0
    7.5065  -17.0066   24.6903 O   0  0  0  0  0  0  0  0  0  0  0  0
   12.2298  -20.8088   24.2742 N   0  0  0  0  0  0  0  0  0  0  0  0
   12.9060  -19.5702   24.4065 C   0  0  0  0  0  0  0  0  0  0  0  0
   14.1012  -19.3873   24.0457 O   0  0  0  0  0  0  0  0  0  0  0  0
   12.1411  -18.4211   25.0112 C   0  0  0  0  0  0  0  0  0  0  0  0
   10.7328  -18.8599   25.3391 C   0  0  0  0  0  0  0  0  0  0  0  0
    9.8641  -17.8033   25.9125 C   0  0  2  0  0  0  0  0  0  0  0  0
    9.7353  -16.6302   25.0682 N   0  0  0  0  0  0  0  0  0  0  0  0
   10.4204  -17.4183   27.2529 C   0  0  0  0  0  0  0  0  0  0  0  0
   10.8252  -16.2450   27.4163 O   0  0  0  0  0  0  0  0  0  0  0  0
   10.4990  -18.3053   28.3035 O   0  0  0  0  0  0  0  0  0  0  0  0
  2  1  1  6
  2  6  1  0
  2  3  1  0
  3  4  1  0
  4  5  2  0
  6 13  1  0
  7  6  2  0
  8  4  1  0
 10  9  1  1
 11 10  1  0
 12 10  1  0
 12 13  1  6
 14 15  2  0
 14 12  1  0
 16 17  1  0
 17 19  1  0
 18 17  2  0
 19 20  1  0
 21 22  1  0
 21 20  1  6
 22 14  1  0
 23 21  1  0
 24 23  2  0
 25 23  1  0
M  END
$$$$
