QVK.pdb
     RDKit          3D

 26 25  0  0  1  0  0  0  0  0999 V2000
   13.0288  -18.7437   17.3278 N   0  0  0  0  0  0  0  0  0  0  0  0
   11.7821  -19.3454   16.9288 C   0  0  0  0  0  0  0  0  0  0  0  0
   11.7646  -20.0648   15.9111 O   0  0  0  0  0  0  0  0  0  0  0  0
   10.5602  -19.1004   17.7235 C   0  0  0  0  0  0  0  0  0  0  0  0
   10.7744  -18.1415   18.8491 C   0  0  0  0  0  0  0  0  0  0  0  0
    9.8071  -18.3291   19.9869 C   0  0  2  0  0  0  0  0  0  0  0  0
    8.4738  -18.3170   19.3517 N   0  0  0  0  0  0  0  0  0  0  0  0
    9.8611  -17.2454   20.9987 C   0  0  0  0  0  0  0  0  0  0  0  0
   10.9702  -17.0498   21.5940 O   0  0  0  0  0  0  0  0  0  0  0  0
    7.4942  -13.7831   21.1940 C   0  0  0  0  0  0  0  0  0  0  0  0
    7.7041  -14.5689   22.4486 C   0  0  2  0  0  0  0  0  0  0  0  0
    7.7314  -13.6365   23.6474 C   0  0  0  0  0  0  0  0  0  0  0  0
    8.9333  -15.4496   22.4558 C   0  0  2  0  0  0  0  0  0  0  0  0
    8.7851  -16.4109   21.3549 N   0  0  0  0  0  0  0  0  0  0  0  0
    8.9904  -16.1949   23.7368 C   0  0  0  0  0  0  0  0  0  0  0  0
    7.9755  -16.8781   24.1376 O   0  0  0  0  0  0  0  0  0  0  0  0
   10.0961  -16.2527   24.6244 N   0  0  0  0  0  0  0  0  0  0  0  0
   10.0603  -17.0151   25.8465 C   0  0  1  0  0  0  0  0  0  0  0  0
   10.8539  -18.2654   25.7257 C   0  0  0  0  0  0  0  0  0  0  0  0
   10.9315  -19.2016   26.8534 C   0  0  0  0  0  0  0  0  0  0  0  0
   11.7639  -20.4075   26.6162 C   0  0  0  0  0  0  0  0  0  0  0  0
   11.7238  -21.3456   27.8462 C   0  0  0  0  0  0  0  0  0  0  0  0
   12.5982  -22.4720   27.6437 N   0  0  0  0  0  0  0  0  0  0  0  0
   10.7015  -16.2517   26.9734 C   0  0  0  0  0  0  0  0  0  0  0  0
   10.4873  -16.6311   28.2672 O   0  0  0  0  0  0  0  0  0  0  0  0
   11.4144  -15.2890   26.6945 O   0  0  0  0  0  0  0  0  0  0  0  0
  2  3  2  0
  2  1  1  0
  4  2  1  0
  5  4  1  0
  6  5  1  0
  6  7  1  6
  8  9  2  0
  8  6  1  0
 11 10  1  6
 11 12  1  0
 11 13  1  0
 13 14  1  6
 14  8  1  0
 15 16  2  0
 15 13  1  0
 17 15  1  0
 18 19  1  6
 18 17  1  0
 20 21  1  0
 20 19  1  0
 22 21  1  0
 23 22  1  0
 24 18  1  0
 25 24  1  0
 26 24  2  0
M  END
$$$$
