QVK.pdb
     RDKit          3D

 26 25  0  0  1  0  0  0  0  0999 V2000
    8.0193  -20.9808   20.4244 N   0  0  0  0  0  0  0  0  0  0  0  0
    8.4819  -21.2429   19.0854 C   0  0  0  0  0  0  0  0  0  0  0  0
    8.9909  -22.3530   18.8356 O   0  0  0  0  0  0  0  0  0  0  0  0
    8.3474  -20.2022   18.0445 C   0  0  0  0  0  0  0  0  0  0  0  0
    7.5835  -19.0044   18.5071 C   0  0  0  0  0  0  0  0  0  0  0  0
    8.0921  -17.7110   17.9293 C   0  0  2  0  0  0  0  0  0  0  0  0
    9.1705  -18.1120   17.0033 N   0  0  0  0  0  0  0  0  0  0  0  0
    8.6564  -16.7872   18.9440 C   0  0  0  0  0  0  0  0  0  0  0  0
    9.8895  -16.9157   19.2368 O   0  0  0  0  0  0  0  0  0  0  0  0
    7.3348  -12.9097   19.6156 C   0  0  0  0  0  0  0  0  0  0  0  0
    7.7069  -13.7156   20.8188 C   0  0  2  0  0  0  0  0  0  0  0  0
    8.3114  -12.8141   21.8815 C   0  0  0  0  0  0  0  0  0  0  0  0
    8.6312  -14.8815   20.5491 C   0  0  2  0  0  0  0  0  0  0  0  0
    7.9400  -15.7754   19.6103 N   0  0  0  0  0  0  0  0  0  0  0  0
    8.8734  -15.6137   21.8159 C   0  0  0  0  0  0  0  0  0  0  0  0
    7.8947  -16.1623   22.4474 O   0  0  0  0  0  0  0  0  0  0  0  0
   10.1290  -15.7971   22.4513 N   0  0  0  0  0  0  0  0  0  0  0  0
   10.2711  -16.5622   23.6639 C   0  0  1  0  0  0  0  0  0  0  0  0
   11.4999  -17.3969   23.6341 C   0  0  0  0  0  0  0  0  0  0  0  0
   11.3967  -18.8598   23.5756 C   0  0  0  0  0  0  0  0  0  0  0  0
   12.6922  -19.5819   23.5176 C   0  0  0  0  0  0  0  0  0  0  0  0
   12.4614  -21.0927   23.2744 C   0  0  0  0  0  0  0  0  0  0  0  0
   13.7219  -21.7870   23.2148 N   0  0  0  0  0  0  0  0  0  0  0  0
   10.4423  -15.6558   24.8526 C   0  0  0  0  0  0  0  0  0  0  0  0
   10.5217  -14.3042   24.6780 O   0  0  0  0  0  0  0  0  0  0  0  0
   10.5072  -16.1655   25.9702 O   0  0  0  0  0  0  0  0  0  0  0  0
  2  3  2  0
  2  1  1  0
  4  2  1  0
  5  4  1  0
  6  5  1  0
  6  7  1  6
  8  9  2  0
  8  6  1  0
 11 10  1  6
 11 12  1  0
 11 13  1  0
 13 14  1  6
 14  8  1  0
 15 16  2  0
 15 13  1  0
 17 15  1  0
 18 19  1  6
 18 17  1  0
 20 21  1  0
 20 19  1  0
 22 21  1  0
 23 22  1  0
 24 18  1  0
 25 24  1  0
 26 24  2  0
M  END
$$$$
