QVK.pdb
     RDKit          3D

 26 25  0  0  1  0  0  0  0  0999 V2000
    7.2492  -17.7294   13.2179 N   0  0  0  0  0  0  0  0  0  0  0  0
    8.6103  -17.8511   13.6738 C   0  0  0  0  0  0  0  0  0  0  0  0
    9.5332  -17.6521   12.8599 O   0  0  0  0  0  0  0  0  0  0  0  0
    8.8848  -18.2070   15.0819 C   0  0  0  0  0  0  0  0  0  0  0  0
    9.1708  -17.0196   15.9425 C   0  0  0  0  0  0  0  0  0  0  0  0
    9.4438  -17.3744   17.3795 C   0  0  2  0  0  0  0  0  0  0  0  0
    8.2362  -18.1002   17.8227 N   0  0  0  0  0  0  0  0  0  0  0  0
    9.6377  -16.1942   18.2574 C   0  0  0  0  0  0  0  0  0  0  0  0
   10.8198  -15.7336   18.3727 O   0  0  0  0  0  0  0  0  0  0  0  0
    7.7222  -12.3414   20.7731 C   0  0  0  0  0  0  0  0  0  0  0  0
    7.6101  -13.6440   20.0477 C   0  0  2  0  0  0  0  0  0  0  0  0
    6.7105  -14.5932   20.8201 C   0  0  0  0  0  0  0  0  0  0  0  0
    8.9262  -14.3217   19.7393 C   0  0  2  0  0  0  0  0  0  0  0  0
    8.6197  -15.5374   18.9738 N   0  0  0  0  0  0  0  0  0  0  0  0
    9.5831  -14.7105   21.0110 C   0  0  0  0  0  0  0  0  0  0  0  0
    9.9498  -13.8104   21.8552 O   0  0  0  0  0  0  0  0  0  0  0  0
    9.8691  -16.0338   21.4363 N   0  0  0  0  0  0  0  0  0  0  0  0
   10.4909  -16.3146   22.7053 C   0  0  1  0  0  0  0  0  0  0  0  0
   10.1623  -17.6852   23.1755 C   0  0  0  0  0  0  0  0  0  0  0  0
   10.7581  -18.2033   24.4127 C   0  0  0  0  0  0  0  0  0  0  0  0
   10.5107  -19.6427   24.6776 C   0  0  0  0  0  0  0  0  0  0  0  0
   11.1200  -20.0570   26.0384 C   0  0  0  0  0  0  0  0  0  0  0  0
   10.9968  -21.4794   26.2282 N   0  0  0  0  0  0  0  0  0  0  0  0
   11.9905  -16.2913   22.5842 C   0  0  0  0  0  0  0  0  0  0  0  0
   12.7643  -16.0924   23.6912 O   0  0  0  0  0  0  0  0  0  0  0  0
   12.4885  -16.4549   21.4716 O   0  0  0  0  0  0  0  0  0  0  0  0
  2  3  2  0
  2  1  1  0
  4  2  1  0
  5  4  1  0
  6  5  1  0
  6  7  1  1
  8  9  2  0
  8  6  1  0
 11 10  1  1
 11 12  1  0
 11 13  1  0
 13 14  1  6
 14  8  1  0
 15 16  2  0
 15 13  1  0
 17 15  1  0
 18 19  1  6
 18 17  1  0
 20 21  1  0
 20 19  1  0
 22 21  1  0
 23 22  1  0
 24 18  1  0
 25 24  1  0
 26 24  2  0
M  END
$$$$
