QVK.pdb
     RDKit          3D

 26 25  0  0  1  0  0  0  0  0999 V2000
   16.0761  -15.8045   20.5359 N   0  0  0  0  0  0  0  0  0  0  0  0
   15.7909  -15.9060   19.1274 C   0  0  0  0  0  0  0  0  0  0  0  0
   16.7397  -16.0710   18.3359 O   0  0  0  0  0  0  0  0  0  0  0  0
   14.3947  -15.8122   18.6516 C   0  0  0  0  0  0  0  0  0  0  0  0
   13.5574  -14.8825   19.4682 C   0  0  0  0  0  0  0  0  0  0  0  0
   12.1088  -14.8676   19.0600 C   0  0  2  0  0  0  0  0  0  0  0  0
   12.0542  -13.9509   17.9034 N   0  0  0  0  0  0  0  0  0  0  0  0
   11.1986  -14.3566   20.1145 C   0  0  0  0  0  0  0  0  0  0  0  0
   11.5619  -13.3155   20.7526 O   0  0  0  0  0  0  0  0  0  0  0  0
    7.0652  -15.1247   20.3261 C   0  0  0  0  0  0  0  0  0  0  0  0
    7.8078  -13.9739   20.9259 C   0  0  2  0  0  0  0  0  0  0  0  0
    7.9782  -12.8713   19.8950 C   0  0  0  0  0  0  0  0  0  0  0  0
    9.1491  -14.3216   21.5312 C   0  0  2  0  0  0  0  0  0  0  0  0
    9.9616  -14.9274   20.4677 N   0  0  0  0  0  0  0  0  0  0  0  0
    8.9521  -15.3204   22.6098 C   0  0  0  0  0  0  0  0  0  0  0  0
    9.1032  -16.5760   22.3690 O   0  0  0  0  0  0  0  0  0  0  0  0
    8.6003  -15.0419   23.9561 N   0  0  0  0  0  0  0  0  0  0  0  0
    8.3190  -16.0865   24.9077 C   0  0  1  0  0  0  0  0  0  0  0  0
    8.3407  -15.5680   26.3000 C   0  0  0  0  0  0  0  0  0  0  0  0
    9.6170  -15.2335   26.9428 C   0  0  0  0  0  0  0  0  0  0  0  0
    9.5026  -14.5223   28.2406 C   0  0  0  0  0  0  0  0  0  0  0  0
   10.9055  -14.2191   28.8192 C   0  0  0  0  0  0  0  0  0  0  0  0
   10.7893  -13.4680   30.0426 N   0  0  0  0  0  0  0  0  0  0  0  0
    6.9288  -16.6284   24.7135 C   0  0  0  0  0  0  0  0  0  0  0  0
    6.0717  -16.0199   23.8424 O   0  0  0  0  0  0  0  0  0  0  0  0
    6.5954  -17.6229   25.3558 O   0  0  0  0  0  0  0  0  0  0  0  0
  2  3  2  0
  2  1  1  0
  4  2  1  0
  5  4  1  0
  6  5  1  0
  6  7  1  6
  8  9  2  0
  8  6  1  0
 11 10  1  6
 11 12  1  0
 11 13  1  0
 13 14  1  6
 14  8  1  0
 15 16  2  0
 15 13  1  0
 17 15  1  0
 18 19  1  1
 18 17  1  0
 20 21  1  0
 20 19  1  0
 22 21  1  0
 23 22  1  0
 24 18  1  0
 25 24  1  0
 26 24  2  0
M  END
$$$$
