QVK.pdb
     RDKit          3D

 26 25  0  0  1  0  0  0  0  0999 V2000
   12.4423  -15.4189   14.5987 N   0  0  0  0  0  0  0  0  0  0  0  0
   12.3493  -16.8551   14.6623 C   0  0  0  0  0  0  0  0  0  0  0  0
   12.7075  -17.5216   13.6717 O   0  0  0  0  0  0  0  0  0  0  0  0
   11.8355  -17.5048   15.8865 C   0  0  0  0  0  0  0  0  0  0  0  0
   11.3709  -16.5290   16.9182 C   0  0  0  0  0  0  0  0  0  0  0  0
   10.9116  -17.1814   18.1944 C   0  0  2  0  0  0  0  0  0  0  0  0
    9.6987  -17.9342   17.8157 N   0  0  0  0  0  0  0  0  0  0  0  0
   10.5567  -16.2149   19.2626 C   0  0  0  0  0  0  0  0  0  0  0  0
   11.5118  -15.6228   19.8626 O   0  0  0  0  0  0  0  0  0  0  0  0
    7.4354  -13.5178   19.3313 C   0  0  0  0  0  0  0  0  0  0  0  0
    7.6316  -14.3575   20.5527 C   0  0  2  0  0  0  0  0  0  0  0  0
    7.2204  -13.5787   21.7903 C   0  0  0  0  0  0  0  0  0  0  0  0
    9.0278  -14.9090   20.7343 C   0  0  2  0  0  0  0  0  0  0  0  0
    9.2473  -15.8950   19.6676 N   0  0  0  0  0  0  0  0  0  0  0  0
    9.1125  -15.5968   22.0457 C   0  0  0  0  0  0  0  0  0  0  0  0
    8.5894  -16.7624   22.2037 O   0  0  0  0  0  0  0  0  0  0  0  0
    9.7419  -15.0969   23.2152 N   0  0  0  0  0  0  0  0  0  0  0  0
    9.7426  -15.8262   24.4578 C   0  0  1  0  0  0  0  0  0  0  0  0
   10.5301  -15.1168   25.4992 C   0  0  0  0  0  0  0  0  0  0  0  0
   10.5405  -15.6116   26.8809 C   0  0  0  0  0  0  0  0  0  0  0  0
   11.3418  -16.8408   27.1049 C   0  0  0  0  0  0  0  0  0  0  0  0
   11.3008  -17.2516   28.5963 C   0  0  0  0  0  0  0  0  0  0  0  0
   11.9164  -18.5412   28.7760 N   0  0  0  0  0  0  0  0  0  0  0  0
    8.3509  -15.9275   25.0207 C   0  0  0  0  0  0  0  0  0  0  0  0
    7.9664  -17.0473   25.7003 O   0  0  0  0  0  0  0  0  0  0  0  0
    7.5827  -14.9821   24.8506 O   0  0  0  0  0  0  0  0  0  0  0  0
  2  3  2  0
  2  1  1  0
  4  2  1  0
  5  4  1  0
  6  5  1  0
  6  7  1  6
  8  9  2  0
  8  6  1  0
 11 10  1  6
 11 12  1  0
 11 13  1  0
 13 14  1  6
 14  8  1  0
 15 16  2  0
 15 13  1  0
 17 15  1  0
 18 19  1  1
 18 17  1  0
 20 21  1  0
 20 19  1  0
 22 21  1  0
 23 22  1  0
 24 18  1  0
 25 24  1  0
 26 24  2  0
M  END
$$$$
