QVK.pdb
     RDKit          3D

 26 25  0  0  1  0  0  0  0  0999 V2000
    7.2598  -20.3234   24.3533 N   0  0  0  0  0  0  0  0  0  0  0  0
    6.2854  -20.1316   23.3096 C   0  0  0  0  0  0  0  0  0  0  0  0
    5.3467  -20.9459   23.2115 O   0  0  0  0  0  0  0  0  0  0  0  0
    6.4157  -18.9868   22.3838 C   0  0  0  0  0  0  0  0  0  0  0  0
    7.4658  -18.0099   22.8023 C   0  0  0  0  0  0  0  0  0  0  0  0
    7.0681  -16.5746   22.5851 C   0  0  2  0  0  0  0  0  0  0  0  0
    7.5772  -16.2439   21.2387 N   0  0  0  0  0  0  0  0  0  0  0  0
    7.6691  -15.6358   23.5642 C   0  0  0  0  0  0  0  0  0  0  0  0
    8.9098  -15.3733   23.4435 O   0  0  0  0  0  0  0  0  0  0  0  0
    6.0642  -12.3595   25.4968 C   0  0  0  0  0  0  0  0  0  0  0  0
    6.7349  -13.3779   26.3620 C   0  0  2  0  0  0  0  0  0  0  0  0
    7.4123  -12.6956   27.5380 C   0  0  0  0  0  0  0  0  0  0  0  0
    7.7233  -14.2735   25.6498 C   0  0  2  0  0  0  0  0  0  0  0  0
    6.9790  -15.0072   24.6174 N   0  0  0  0  0  0  0  0  0  0  0  0
    8.2832  -15.2474   26.6183 C   0  0  0  0  0  0  0  0  0  0  0  0
    7.5036  -16.0377   27.2702 O   0  0  0  0  0  0  0  0  0  0  0  0
    9.6564  -15.4265   26.9281 N   0  0  0  0  0  0  0  0  0  0  0  0
   10.0984  -16.3212   27.9674 C   0  0  1  0  0  0  0  0  0  0  0  0
   11.2266  -17.1702   27.5046 C   0  0  0  0  0  0  0  0  0  0  0  0
   11.1050  -17.9473   26.2655 C   0  0  0  0  0  0  0  0  0  0  0  0
   12.3140  -18.7191   25.8835 C   0  0  0  0  0  0  0  0  0  0  0  0
   12.1150  -19.3930   24.5048 C   0  0  0  0  0  0  0  0  0  0  0  0
   13.3153  -20.0834   24.1086 N   0  0  0  0  0  0  0  0  0  0  0  0
   10.6426  -15.5526   29.1408 C   0  0  0  0  0  0  0  0  0  0  0  0
   10.9369  -16.1992   30.3065 O   0  0  0  0  0  0  0  0  0  0  0  0
   10.8110  -14.3406   29.0167 O   0  0  0  0  0  0  0  0  0  0  0  0
  2  3  2  0
  2  1  1  0
  4  2  1  0
  5  4  1  0
  6  5  1  0
  6  7  1  6
  8  9  2  0
  8  6  1  0
 11 10  1  6
 11 12  1  0
 11 13  1  0
 13 14  1  6
 14  8  1  0
 15 16  2  0
 15 13  1  0
 17 15  1  0
 18 19  1  6
 18 17  1  0
 20 21  1  0
 20 19  1  0
 22 21  1  0
 23 22  1  0
 24 18  1  0
 25 24  1  0
 26 24  2  0
M  END
$$$$
