QVK.pdb
     RDKit          3D

 26 25  0  0  1  0  0  0  0  0999 V2000
   12.7964  -18.8943   17.5342 N   0  0  0  0  0  0  0  0  0  0  0  0
   11.5954  -18.5550   16.8146 C   0  0  0  0  0  0  0  0  0  0  0  0
   11.6875  -17.8236   15.8094 O   0  0  0  0  0  0  0  0  0  0  0  0
   10.2905  -19.0731   17.2767 C   0  0  0  0  0  0  0  0  0  0  0  0
    9.2588  -18.0047   17.4390 C   0  0  0  0  0  0  0  0  0  0  0  0
    8.5858  -18.0228   18.7851 C   0  0  2  0  0  0  0  0  0  0  0  0
    7.1404  -18.0008   18.4824 N   0  0  0  0  0  0  0  0  0  0  0  0
    8.9122  -16.8474   19.6296 C   0  0  0  0  0  0  0  0  0  0  0  0
   10.0678  -16.8089   20.1645 O   0  0  0  0  0  0  0  0  0  0  0  0
    7.9414  -12.9317   19.0861 C   0  0  0  0  0  0  0  0  0  0  0  0
    7.6752  -13.4655   20.4572 C   0  0  2  0  0  0  0  0  0  0  0  0
    7.9184  -12.3816   21.4931 C   0  0  0  0  0  0  0  0  0  0  0  0
    8.4536  -14.7090   20.8236 C   0  0  2  0  0  0  0  0  0  0  0  0
    8.0488  -15.7663   19.8874 N   0  0  0  0  0  0  0  0  0  0  0  0
    8.0884  -15.1238   22.1999 C   0  0  0  0  0  0  0  0  0  0  0  0
    6.8552  -15.3160   22.5157 O   0  0  0  0  0  0  0  0  0  0  0  0
    8.9883  -15.3520   23.2732 N   0  0  0  0  0  0  0  0  0  0  0  0
    8.5712  -15.9692   24.5065 C   0  0  1  0  0  0  0  0  0  0  0  0
    8.1384  -17.3736   24.2875 C   0  0  0  0  0  0  0  0  0  0  0  0
    7.7790  -18.2216   25.4303 C   0  0  0  0  0  0  0  0  0  0  0  0
    7.5131  -19.6443   25.1014 C   0  0  0  0  0  0  0  0  0  0  0  0
    7.1417  -20.4366   26.3777 C   0  0  0  0  0  0  0  0  0  0  0  0
    7.0177  -21.8394   26.0762 N   0  0  0  0  0  0  0  0  0  0  0  0
    9.7187  -16.0599   25.4755 C   0  0  0  0  0  0  0  0  0  0  0  0
   10.9826  -15.7370   25.0729 O   0  0  0  0  0  0  0  0  0  0  0  0
    9.4838  -16.4291   26.6249 O   0  0  0  0  0  0  0  0  0  0  0  0
  2  3  2  0
  2  1  1  0
  4  2  1  0
  5  4  1  0
  6  5  1  0
  6  7  1  6
  8  9  2  0
  8  6  1  0
 11 10  1  6
 11 12  1  0
 11 13  1  0
 13 14  1  6
 14  8  1  0
 15 16  2  0
 15 13  1  0
 17 15  1  0
 18 19  1  6
 18 17  1  0
 20 21  1  0
 20 19  1  0
 22 21  1  0
 23 22  1  0
 24 18  1  0
 25 24  1  0
 26 24  2  0
M  END
$$$$
