QVK.pdb
     RDKit          3D

 26 25  0  0  1  0  0  0  0  0999 V2000
    4.9753  -17.9511   21.0775 N   0  0  0  0  0  0  0  0  0  0  0  0
    5.7536  -17.8348   19.8708 C   0  0  0  0  0  0  0  0  0  0  0  0
    5.2522  -18.2211   18.7969 O   0  0  0  0  0  0  0  0  0  0  0  0
    7.1172  -17.2676   19.9274 C   0  0  0  0  0  0  0  0  0  0  0  0
    7.5010  -16.7968   21.2925 C   0  0  0  0  0  0  0  0  0  0  0  0
    7.7055  -15.3080   21.3761 C   0  0  2  0  0  0  0  0  0  0  0  0
    8.7323  -15.0125   20.3565 N   0  0  0  0  0  0  0  0  0  0  0  0
    8.2015  -14.8487   22.6968 C   0  0  0  0  0  0  0  0  0  0  0  0
    9.4455  -14.9806   22.9374 O   0  0  0  0  0  0  0  0  0  0  0  0
    6.7494  -11.7348   25.0289 C   0  0  0  0  0  0  0  0  0  0  0  0
    7.0344  -13.0276   25.7239 C   0  0  2  0  0  0  0  0  0  0  0  0
    7.5235  -12.7612   27.1370 C   0  0  0  0  0  0  0  0  0  0  0  0
    8.0053  -13.9398   25.0086 C   0  0  2  0  0  0  0  0  0  0  0  0
    7.4089  -14.2750   23.7085 N   0  0  0  0  0  0  0  0  0  0  0  0
    8.1704  -15.1869   25.7944 C   0  0  0  0  0  0  0  0  0  0  0  0
    7.1572  -15.9445   26.0325 O   0  0  0  0  0  0  0  0  0  0  0  0
    9.3835  -15.6767   26.3442 N   0  0  0  0  0  0  0  0  0  0  0  0
    9.4628  -16.9480   27.0177 C   0  0  1  0  0  0  0  0  0  0  0  0
   10.3136  -17.9053   26.2645 C   0  0  0  0  0  0  0  0  0  0  0  0
   10.5946  -19.2355   26.8174 C   0  0  0  0  0  0  0  0  0  0  0  0
   11.5128  -20.0744   26.0073 C   0  0  0  0  0  0  0  0  0  0  0  0
   11.7208  -21.4540   26.6767 C   0  0  0  0  0  0  0  0  0  0  0  0
   12.7037  -22.2175   25.9520 N   0  0  0  0  0  0  0  0  0  0  0  0
   10.1292  -16.8034   28.3589 C   0  0  0  0  0  0  0  0  0  0  0  0
    9.9524  -17.7583   29.3183 O   0  0  0  0  0  0  0  0  0  0  0  0
   10.8279  -15.8112   28.5592 O   0  0  0  0  0  0  0  0  0  0  0  0
  2  3  2  0
  2  1  1  0
  4  2  1  0
  5  4  1  0
  6  5  1  0
  6  7  1  6
  8  9  2  0
  8  6  1  0
 11 10  1  6
 11 12  1  0
 11 13  1  0
 13 14  1  6
 14  8  1  0
 15 16  2  0
 15 13  1  0
 17 15  1  0
 18 19  1  6
 18 17  1  0
 20 21  1  0
 20 19  1  0
 22 21  1  0
 23 22  1  0
 24 18  1  0
 25 24  1  0
 26 24  2  0
M  END
$$$$
