QVK.pdb
     RDKit          3D

 26 25  0  0  1  0  0  0  0  0999 V2000
   10.5221  -19.0399   14.0595 N   0  0  0  0  0  0  0  0  0  0  0  0
    9.1899  -18.5736   13.7707 C   0  0  0  0  0  0  0  0  0  0  0  0
    8.6365  -18.9579   12.7220 O   0  0  0  0  0  0  0  0  0  0  0  0
    8.5118  -17.6574   14.7116 C   0  0  0  0  0  0  0  0  0  0  0  0
    9.3833  -17.2328   15.8485 C   0  0  0  0  0  0  0  0  0  0  0  0
    8.8001  -17.5488   17.1996 C   0  0  2  0  0  0  0  0  0  0  0  0
    7.3379  -17.5042   16.9968 N   0  0  0  0  0  0  0  0  0  0  0  0
    9.1643  -16.5659   18.2496 C   0  0  0  0  0  0  0  0  0  0  0  0
   10.4000  -16.4335   18.5296 O   0  0  0  0  0  0  0  0  0  0  0  0
    7.2623  -12.9796   19.3018 C   0  0  0  0  0  0  0  0  0  0  0  0
    7.6134  -13.9434   20.3896 C   0  0  2  0  0  0  0  0  0  0  0  0
    7.9462  -13.1888   21.6651 C   0  0  0  0  0  0  0  0  0  0  0  0
    8.7307  -14.9065   20.0571 C   0  0  2  0  0  0  0  0  0  0  0  0
    8.2545  -15.7629   18.9626 N   0  0  0  0  0  0  0  0  0  0  0  0
    9.0101  -15.7550   21.2411 C   0  0  0  0  0  0  0  0  0  0  0  0
    8.1765  -16.6690   21.5975 O   0  0  0  0  0  0  0  0  0  0  0  0
   10.1557  -15.6792   22.0752 N   0  0  0  0  0  0  0  0  0  0  0  0
   10.3943  -16.6212   23.1390 C   0  0  1  0  0  0  0  0  0  0  0  0
   11.7569  -17.2063   23.0458 C   0  0  0  0  0  0  0  0  0  0  0  0
   12.2402  -18.1201   24.0877 C   0  0  0  0  0  0  0  0  0  0  0  0
   13.6396  -18.5852   23.9195 C   0  0  0  0  0  0  0  0  0  0  0  0
   14.0349  -19.5443   25.0678 C   0  0  0  0  0  0  0  0  0  0  0  0
   15.3134  -20.1489   24.7955 N   0  0  0  0  0  0  0  0  0  0  0  0
   10.3522  -15.9384   24.4791 C   0  0  0  0  0  0  0  0  0  0  0  0
   10.2115  -16.6755   25.6195 O   0  0  0  0  0  0  0  0  0  0  0  0
   10.4473  -14.7126   24.5125 O   0  0  0  0  0  0  0  0  0  0  0  0
  2  3  2  0
  2  1  1  0
  4  2  1  0
  5  4  1  0
  6  5  1  0
  6  7  1  6
  8  9  2  0
  8  6  1  0
 11 10  1  6
 11 12  1  0
 11 13  1  0
 13 14  1  6
 14  8  1  0
 15 16  2  0
 15 13  1  0
 17 15  1  0
 18 19  1  6
 18 17  1  0
 20 21  1  0
 20 19  1  0
 22 21  1  0
 23 22  1  0
 24 18  1  0
 25 24  1  0
 26 24  2  0
M  END
$$$$
