DPD.pdb
     RDKit          3D

 24 24  0  0  1  0  0  0  0  0999 V2000
   19.3931  -12.1871  -16.2390 N   0  0  0  0  0  0  0  0  0  0  0  0
   20.0974  -11.3226  -17.1657 C   0  0  1  0  0  0  0  0  0  0  0  0
   19.1148  -10.8382  -18.1921 C   0  0  0  0  0  0  0  0  0  0  0  0
   18.5139  -11.9757  -18.9662 C   0  0  0  0  0  0  0  0  0  0  0  0
   18.4293  -11.8234  -20.2159 O   0  0  0  0  0  0  0  0  0  0  0  0
   20.9068  -10.3271  -16.4816 C   0  0  0  0  0  0  0  0  0  0  0  0
   20.5252  -10.0375  -15.2696 O   0  0  0  0  0  0  0  0  0  0  0  0
   18.0777  -13.1225  -18.3547 O   0  0  0  0  0  0  0  0  0  0  0  0
   22.0418   -9.6212  -16.9208 N   0  0  0  0  0  0  0  0  0  0  0  0
   22.7781   -9.5548  -18.1480 C   0  0  0  0  0  0  0  0  0  0  0  0
   24.2147   -9.6829  -17.6077 C   0  0  0  0  0  0  0  0  0  0  0  0
   24.1809   -8.6433  -16.5083 C   0  0  0  0  0  0  0  0  0  0  0  0
   22.7584   -8.6758  -16.0457 C   0  0  1  0  0  0  0  0  0  0  0  0
   22.0978   -7.3455  -16.0744 C   0  0  0  0  0  0  0  0  0  0  0  0
   21.4446   -6.9688  -17.0795 O   0  0  0  0  0  0  0  0  0  0  0  0
   22.1724   -6.4380  -14.9701 N   0  0  0  0  0  0  0  0  0  0  0  0
   21.6132   -5.1223  -14.9881 C   0  0  1  0  0  0  0  0  0  0  0  0
   21.9040   -4.3359  -13.7310 C   0  0  0  0  0  0  0  0  0  0  0  0
   21.3249   -2.9967  -13.7376 C   0  0  0  0  0  0  0  0  0  0  0  0
   20.4686   -2.6315  -14.5781 O   0  0  0  0  0  0  0  0  0  0  0  0
   21.9482   -4.3540  -16.2089 C   0  0  0  0  0  0  0  0  0  0  0  0
   21.1109   -3.7114  -16.8810 O   0  0  0  0  0  0  0  0  0  0  0  0
   21.7265   -2.0787  -12.7830 O   0  0  0  0  0  0  0  0  0  0  0  0
   23.2660   -4.3446  -16.6343 O   0  0  0  0  0  0  0  0  0  0  0  0
  2  1  1  1
  2  3  1  0
  3  4  1  0
  4  8  1  0
  5  4  2  0
  6  2  1  0
  7  6  2  0
  9  6  1  0
  9 13  1  0
 10 11  1  0
 10  9  1  0
 11 12  1  0
 12 13  1  0
 14 16  1  0
 13 14  1  6
 15 14  2  0
 17 16  1  0
 17 18  1  1
 19 18  1  0
 19 23  1  0
 20 19  2  0
 21 24  1  0
 21 17  1  0
 22 21  2  0
M  END
$$$$
