DPD.pdb
     RDKit          3D

 24 24  0  0  1  0  0  0  0  0999 V2000
   18.3165  -12.6934  -16.3213 N   0  0  0  0  0  0  0  0  0  0  0  0
   19.4206  -11.9908  -16.9453 C   0  0  1  0  0  0  0  0  0  0  0  0
   18.9065  -11.3195  -18.1857 C   0  0  0  0  0  0  0  0  0  0  0  0
   18.4094  -12.3169  -19.1918 C   0  0  0  0  0  0  0  0  0  0  0  0
   19.2880  -12.9819  -19.8066 O   0  0  0  0  0  0  0  0  0  0  0  0
   20.1624  -11.1783  -15.9945 C   0  0  0  0  0  0  0  0  0  0  0  0
   19.4453  -10.6245  -15.0578 O   0  0  0  0  0  0  0  0  0  0  0  0
   17.0730  -12.5010  -19.4355 O   0  0  0  0  0  0  0  0  0  0  0  0
   21.5379  -10.8913  -15.9235 N   0  0  0  0  0  0  0  0  0  0  0  0
   22.6927  -11.2872  -16.6735 C   0  0  0  0  0  0  0  0  0  0  0  0
   23.6539  -11.6392  -15.5228 C   0  0  0  0  0  0  0  0  0  0  0  0
   23.5061  -10.4026  -14.6627 C   0  0  0  0  0  0  0  0  0  0  0  0
   22.0921   -9.9789  -14.9070 C   0  0  1  0  0  0  0  0  0  0  0  0
   21.9681   -8.5689  -15.3581 C   0  0  0  0  0  0  0  0  0  0  0  0
   21.6834   -8.2936  -16.5507 O   0  0  0  0  0  0  0  0  0  0  0  0
   22.1644   -7.4673  -14.4658 N   0  0  0  0  0  0  0  0  0  0  0  0
   21.7703   -6.1261  -14.7657 C   0  0  1  0  0  0  0  0  0  0  0  0
   20.3137   -6.0066  -15.1498 C   0  0  0  0  0  0  0  0  0  0  0  0
   19.9058   -4.6404  -15.4597 C   0  0  0  0  0  0  0  0  0  0  0  0
   19.2744   -3.9202  -14.6499 O   0  0  0  0  0  0  0  0  0  0  0  0
   22.1458   -5.1507  -13.7167 C   0  0  0  0  0  0  0  0  0  0  0  0
   22.1898   -5.4210  -12.4958 O   0  0  0  0  0  0  0  0  0  0  0  0
   20.2208   -4.1016  -16.6948 O   0  0  0  0  0  0  0  0  0  0  0  0
   22.4676   -3.8618  -14.1077 O   0  0  0  0  0  0  0  0  0  0  0  0
  2  1  1  1
  2  3  1  0
  3  4  1  0
  4  8  1  0
  5  4  2  0
  6  2  1  0
  7  6  2  0
  9  6  1  0
  9 13  1  0
 10 11  1  0
 10  9  1  0
 11 12  1  0
 12 13  1  0
 14 16  1  0
 13 14  1  6
 15 14  2  0
 17 16  1  0
 17 18  1  1
 19 18  1  0
 19 23  1  0
 20 19  2  0
 21 24  1  0
 21 17  1  0
 22 21  2  0
M  END
$$$$
