DPD.pdb
     RDKit          3D

 24 24  0  0  1  0  0  0  0  0999 V2000
   18.8626  -12.4192  -16.9102 N   0  0  0  0  0  0  0  0  0  0  0  0
   20.0094  -11.5985  -17.2471 C   0  0  1  0  0  0  0  0  0  0  0  0
   19.7560  -10.9678  -18.5856 C   0  0  0  0  0  0  0  0  0  0  0  0
   19.6472  -11.9972  -19.6732 C   0  0  0  0  0  0  0  0  0  0  0  0
   18.6265  -11.9298  -20.4120 O   0  0  0  0  0  0  0  0  0  0  0  0
   20.4017  -10.7263  -16.1519 C   0  0  0  0  0  0  0  0  0  0  0  0
   19.4169  -10.2072  -15.4743 O   0  0  0  0  0  0  0  0  0  0  0  0
   20.6022  -12.9627  -19.8600 O   0  0  0  0  0  0  0  0  0  0  0  0
   21.6811  -10.3495  -15.7040 N   0  0  0  0  0  0  0  0  0  0  0  0
   23.0214  -10.6157  -16.1349 C   0  0  0  0  0  0  0  0  0  0  0  0
   23.6724  -10.9726  -14.7855 C   0  0  0  0  0  0  0  0  0  0  0  0
   23.2007   -9.8064  -13.9440 C   0  0  0  0  0  0  0  0  0  0  0  0
   21.8702   -9.4673  -14.5384 C   0  0  1  0  0  0  0  0  0  0  0  0
   21.7513   -8.0435  -14.9454 C   0  0  0  0  0  0  0  0  0  0  0  0
   22.0992   -7.6672  -16.0928 O   0  0  0  0  0  0  0  0  0  0  0  0
   21.2400   -7.0420  -14.0601 N   0  0  0  0  0  0  0  0  0  0  0  0
   21.0838   -5.6685  -14.4249 C   0  0  1  0  0  0  0  0  0  0  0  0
   19.7148   -5.1188  -14.0977 C   0  0  0  0  0  0  0  0  0  0  0  0
   19.5277   -3.7361  -14.5245 C   0  0  0  0  0  0  0  0  0  0  0  0
   20.0153   -3.2817  -15.5870 O   0  0  0  0  0  0  0  0  0  0  0  0
   22.1651   -4.7945  -13.9153 C   0  0  0  0  0  0  0  0  0  0  0  0
   22.7737   -4.9917  -12.8400 O   0  0  0  0  0  0  0  0  0  0  0  0
   18.7835   -2.8769  -13.7352 O   0  0  0  0  0  0  0  0  0  0  0  0
   22.5261   -3.6924  -14.6721 O   0  0  0  0  0  0  0  0  0  0  0  0
  2  1  1  1
  2  3  1  0
  3  4  1  0
  4  8  1  0
  5  4  2  0
  6  2  1  0
  7  6  2  0
  9  6  1  0
  9 13  1  0
 10 11  1  0
 10  9  1  0
 11 12  1  0
 12 13  1  0
 14 16  1  0
 13 14  1  6
 15 14  2  0
 17 16  1  0
 17 18  1  1
 19 18  1  0
 19 23  1  0
 20 19  2  0
 21 24  1  0
 21 17  1  0
 22 21  2  0
M  END
$$$$
