DPD.pdb
     RDKit          3D

 24 24  0  0  1  0  0  0  0  0999 V2000
   17.6341  -11.9317  -15.7793 N   0  0  0  0  0  0  0  0  0  0  0  0
   18.8476  -11.3865  -16.3557 C   0  0  1  0  0  0  0  0  0  0  0  0
   18.5320  -10.9070  -17.7428 C   0  0  0  0  0  0  0  0  0  0  0  0
   18.1455  -12.0408  -18.6480 C   0  0  0  0  0  0  0  0  0  0  0  0
   18.8950  -13.0557  -18.6304 O   0  0  0  0  0  0  0  0  0  0  0  0
   19.5155  -10.4603  -15.4555 C   0  0  0  0  0  0  0  0  0  0  0  0
   18.7263   -9.7720  -14.6798 O   0  0  0  0  0  0  0  0  0  0  0  0
   17.0383  -11.9837  -19.4543 O   0  0  0  0  0  0  0  0  0  0  0  0
   20.8851  -10.1852  -15.2873 N   0  0  0  0  0  0  0  0  0  0  0  0
   22.0893  -10.6194  -15.9307 C   0  0  0  0  0  0  0  0  0  0  0  0
   22.9535  -10.9403  -14.6968 C   0  0  0  0  0  0  0  0  0  0  0  0
   22.7555   -9.6725  -13.8942 C   0  0  0  0  0  0  0  0  0  0  0  0
   21.3705   -9.2430  -14.2627 C   0  0  1  0  0  0  0  0  0  0  0  0
   21.3003   -7.8488  -14.7707 C   0  0  0  0  0  0  0  0  0  0  0  0
   21.4691   -7.5948  -15.9897 O   0  0  0  0  0  0  0  0  0  0  0  0
   21.0396   -6.7389  -13.9056 N   0  0  0  0  0  0  0  0  0  0  0  0
   20.9741   -5.3833  -14.3554 C   0  0  1  0  0  0  0  0  0  0  0  0
   19.6496   -4.7210  -14.0549 C   0  0  0  0  0  0  0  0  0  0  0  0
   19.5727   -3.3402  -14.5204 C   0  0  0  0  0  0  0  0  0  0  0  0
   19.6098   -3.0303  -15.7352 O   0  0  0  0  0  0  0  0  0  0  0  0
   22.1182   -4.5560  -13.9087 C   0  0  0  0  0  0  0  0  0  0  0  0
   22.7846   -4.7862  -12.8750 O   0  0  0  0  0  0  0  0  0  0  0  0
   19.4537   -2.3177  -13.5955 O   0  0  0  0  0  0  0  0  0  0  0  0
   22.4737   -3.4617  -14.6792 O   0  0  0  0  0  0  0  0  0  0  0  0
  2  1  1  1
  2  3  1  0
  3  4  1  0
  4  8  1  0
  5  4  2  0
  6  2  1  0
  7  6  2  0
  9  6  1  0
  9 13  1  0
 10 11  1  0
 10  9  1  0
 11 12  1  0
 12 13  1  0
 14 16  1  0
 13 14  1  6
 15 14  2  0
 17 16  1  0
 17 18  1  1
 19 18  1  0
 19 23  1  0
 20 19  2  0
 21 24  1  0
 21 17  1  0
 22 21  2  0
M  END
$$$$
