DPD.pdb
     RDKit          3D

 24 24  0  0  1  0  0  0  0  0999 V2000
   18.8826  -11.6551  -17.5894 N   0  0  0  0  0  0  0  0  0  0  0  0
   20.0863  -10.8537  -17.6942 C   0  0  1  0  0  0  0  0  0  0  0  0
   20.0571  -10.1364  -19.0127 C   0  0  0  0  0  0  0  0  0  0  0  0
   20.2153  -11.0856  -20.1652 C   0  0  0  0  0  0  0  0  0  0  0  0
   19.4160  -10.9374  -21.1302 O   0  0  0  0  0  0  0  0  0  0  0  0
   20.3250  -10.0615  -16.4985 C   0  0  0  0  0  0  0  0  0  0  0  0
   19.2669   -9.5047  -15.9800 O   0  0  0  0  0  0  0  0  0  0  0  0
   21.1750  -12.0644  -20.1758 O   0  0  0  0  0  0  0  0  0  0  0  0
   21.5219   -9.7970  -15.8079 N   0  0  0  0  0  0  0  0  0  0  0  0
   22.8987  -10.1420  -16.0035 C   0  0  0  0  0  0  0  0  0  0  0  0
   23.2667  -10.5996  -14.5796 C   0  0  0  0  0  0  0  0  0  0  0  0
   22.7240   -9.4374  -13.7762 C   0  0  0  0  0  0  0  0  0  0  0  0
   21.5497   -8.9788  -14.5820 C   0  0  1  0  0  0  0  0  0  0  0  0
   21.5988   -7.5348  -14.9276 C   0  0  0  0  0  0  0  0  0  0  0  0
   22.1471   -7.1413  -15.9875 O   0  0  0  0  0  0  0  0  0  0  0  0
   21.0297   -6.5325  -14.0793 N   0  0  0  0  0  0  0  0  0  0  0  0
   21.1058   -5.1306  -14.3497 C   0  0  1  0  0  0  0  0  0  0  0  0
   19.7862   -4.4176  -14.1660 C   0  0  0  0  0  0  0  0  0  0  0  0
   18.7137   -4.9601  -14.9933 C   0  0  0  0  0  0  0  0  0  0  0  0
   18.5740   -4.6636  -16.2039 O   0  0  0  0  0  0  0  0  0  0  0  0
   22.2059   -4.4484  -13.6306 C   0  0  0  0  0  0  0  0  0  0  0  0
   22.8074   -4.9381  -12.6487 O   0  0  0  0  0  0  0  0  0  0  0  0
   17.8039   -5.8401  -14.4339 O   0  0  0  0  0  0  0  0  0  0  0  0
   22.5939   -3.1934  -14.0689 O   0  0  0  0  0  0  0  0  0  0  0  0
  2  1  1  1
  2  3  1  0
  3  4  1  0
  4  8  1  0
  5  4  2  0
  6  2  1  0
  7  6  2  0
  9  6  1  0
  9 13  1  0
 10 11  1  0
 10  9  1  0
 11 12  1  0
 12 13  1  0
 14 16  1  0
 13 14  1  6
 15 14  2  0
 17 16  1  0
 17 18  1  1
 19 18  1  0
 19 23  1  0
 20 19  2  0
 21 24  1  0
 21 17  1  0
 22 21  2  0
M  END
$$$$
