DPD.pdb
     RDKit          3D

 24 24  0  0  1  0  0  0  0  0999 V2000
   17.7381  -13.4163  -15.5801 N   0  0  0  0  0  0  0  0  0  0  0  0
   17.2756  -12.0855  -15.9224 C   0  0  1  0  0  0  0  0  0  0  0  0
   16.3590  -11.6140  -14.8310 C   0  0  0  0  0  0  0  0  0  0  0  0
   15.1755  -12.5233  -14.6679 C   0  0  0  0  0  0  0  0  0  0  0  0
   14.4070  -12.6310  -15.6628 O   0  0  0  0  0  0  0  0  0  0  0  0
   18.3669  -11.2085  -16.3151 C   0  0  0  0  0  0  0  0  0  0  0  0
   19.4913  -11.4038  -15.6857 O   0  0  0  0  0  0  0  0  0  0  0  0
   14.9356  -13.2040  -13.5024 O   0  0  0  0  0  0  0  0  0  0  0  0
   18.4041  -10.1761  -17.2702 N   0  0  0  0  0  0  0  0  0  0  0  0
   17.4578   -9.6132  -18.1869 C   0  0  0  0  0  0  0  0  0  0  0  0
   18.3166   -9.5642  -19.4645 C   0  0  0  0  0  0  0  0  0  0  0  0
   19.5649   -8.9018  -18.9227 C   0  0  0  0  0  0  0  0  0  0  0  0
   19.6187   -9.3743  -17.5041 C   0  0  1  0  0  0  0  0  0  0  0  0
   19.7035   -8.2679  -16.5163 C   0  0  0  0  0  0  0  0  0  0  0  0
   18.7363   -7.9996  -15.7604 O   0  0  0  0  0  0  0  0  0  0  0  0
   20.8786   -7.4625  -16.3790 N   0  0  0  0  0  0  0  0  0  0  0  0
   21.0216   -6.4323  -15.3980 C   0  0  1  0  0  0  0  0  0  0  0  0
   21.9867   -6.7940  -14.2929 C   0  0  0  0  0  0  0  0  0  0  0  0
   22.1254   -5.7528  -13.2802 C   0  0  0  0  0  0  0  0  0  0  0  0
   21.5400   -5.8013  -12.1720 O   0  0  0  0  0  0  0  0  0  0  0  0
   21.3193   -5.1021  -15.9764 C   0  0  0  0  0  0  0  0  0  0  0  0
   21.0964   -4.0198  -15.3894 O   0  0  0  0  0  0  0  0  0  0  0  0
   22.9333   -4.6591  -13.5374 O   0  0  0  0  0  0  0  0  0  0  0  0
   21.8777   -5.0500  -17.2426 O   0  0  0  0  0  0  0  0  0  0  0  0
  2  1  1  1
  2  3  1  0
  3  4  1  0
  4  8  1  0
  5  4  2  0
  6  2  1  0
  7  6  2  0
  9  6  1  0
  9 13  1  0
 10 11  1  0
 10  9  1  0
 11 12  1  0
 12 13  1  0
 14 16  1  0
 13 14  1  1
 15 14  2  0
 17 16  1  0
 17 18  1  1
 19 18  1  0
 19 23  1  0
 20 19  2  0
 21 24  1  0
 21 17  1  0
 22 21  2  0
M  END
$$$$
