DPD.pdb
     RDKit          3D

 24 24  0  0  1  0  0  0  0  0999 V2000
   19.2735  -10.7687  -16.5297 N   0  0  0  0  0  0  0  0  0  0  0  0
   19.1935   -9.3779  -16.1279 C   0  0  1  0  0  0  0  0  0  0  0  0
   18.0985   -8.7245  -16.9202 C   0  0  0  0  0  0  0  0  0  0  0  0
   18.4420   -8.6419  -18.3794 C   0  0  0  0  0  0  0  0  0  0  0  0
   17.7184   -9.3116  -19.1668 O   0  0  0  0  0  0  0  0  0  0  0  0
   19.1664   -9.2243  -14.6822 C   0  0  0  0  0  0  0  0  0  0  0  0
   18.5018  -10.1416  -14.0379 O   0  0  0  0  0  0  0  0  0  0  0  0
   19.4854   -7.8811  -18.8399 O   0  0  0  0  0  0  0  0  0  0  0  0
   19.7449   -8.2379  -13.8624 N   0  0  0  0  0  0  0  0  0  0  0  0
   20.4703   -7.0254  -14.0992 C   0  0  0  0  0  0  0  0  0  0  0  0
   21.6355   -7.2107  -13.1091 C   0  0  0  0  0  0  0  0  0  0  0  0
   20.8678   -7.5838  -11.8592 C   0  0  0  0  0  0  0  0  0  0  0  0
   19.6699   -8.3049  -12.3918 C   0  0  1  0  0  0  0  0  0  0  0  0
   18.3811   -7.7401  -11.9155 C   0  0  0  0  0  0  0  0  0  0  0  0
   17.7893   -6.8411  -12.5641 O   0  0  0  0  0  0  0  0  0  0  0  0
   17.7573   -8.1879  -10.7078 N   0  0  0  0  0  0  0  0  0  0  0  0
   16.4581   -7.7666  -10.2850 C   0  0  1  0  0  0  0  0  0  0  0  0
   15.5486   -8.9178   -9.9233 C   0  0  0  0  0  0  0  0  0  0  0  0
   14.2244   -8.4940   -9.4805 C   0  0  0  0  0  0  0  0  0  0  0  0
   13.7535   -7.3602   -9.7371 O   0  0  0  0  0  0  0  0  0  0  0  0
   16.4874   -6.7330   -9.2249 C   0  0  0  0  0  0  0  0  0  0  0  0
   15.4919   -6.0577   -8.8807 O   0  0  0  0  0  0  0  0  0  0  0  0
   13.4425   -9.3678   -8.7456 O   0  0  0  0  0  0  0  0  0  0  0  0
   17.6870   -6.4978   -8.5743 O   0  0  0  0  0  0  0  0  0  0  0  0
  2  1  1  1
  2  3  1  0
  3  4  1  0
  4  8  1  0
  5  4  2  0
  6  2  1  0
  7  6  2  0
  9  6  1  0
  9 13  1  0
 10 11  1  0
 10  9  1  0
 11 12  1  0
 12 13  1  0
 14 16  1  0
 13 14  1  1
 15 14  2  0
 17 16  1  0
 17 18  1  1
 19 18  1  0
 19 23  1  0
 20 19  2  0
 21 24  1  0
 21 17  1  0
 22 21  2  0
M  END
$$$$
