DPD.pdb
     RDKit          3D

 24 24  0  0  1  0  0  0  0  0999 V2000
   27.8739  -20.6663  -17.5948 N   0  0  0  0  0  0  0  0  0  0  0  0
   28.1545  -19.8346  -16.4409 C   0  0  1  0  0  0  0  0  0  0  0  0
   27.5597  -18.4783  -16.6863 C   0  0  0  0  0  0  0  0  0  0  0  0
   28.2058  -17.7914  -17.8546 C   0  0  0  0  0  0  0  0  0  0  0  0
   27.4334  -17.1960  -18.6551 O   0  0  0  0  0  0  0  0  0  0  0  0
   27.8267  -20.5007  -15.1906 C   0  0  0  0  0  0  0  0  0  0  0  0
   26.8940  -21.4073  -15.2715 O   0  0  0  0  0  0  0  0  0  0  0  0
   29.5629  -17.8061  -18.0483 O   0  0  0  0  0  0  0  0  0  0  0  0
   28.3570  -20.3220  -13.8998 N   0  0  0  0  0  0  0  0  0  0  0  0
   29.3435  -19.4574  -13.3235 C   0  0  0  0  0  0  0  0  0  0  0  0
   30.1535  -20.4804  -12.5053 C   0  0  0  0  0  0  0  0  0  0  0  0
   29.0316  -21.1927  -11.7811 C   0  0  0  0  0  0  0  0  0  0  0  0
   27.8936  -21.1193  -12.7497 C   0  0  1  0  0  0  0  0  0  0  0  0
   26.6632  -20.5212  -12.1707 C   0  0  0  0  0  0  0  0  0  0  0  0
   26.5085  -19.2750  -12.1263 O   0  0  0  0  0  0  0  0  0  0  0  0
   25.6055  -21.3268  -11.6411 N   0  0  0  0  0  0  0  0  0  0  0  0
   24.3870  -20.7901  -11.1201 C   0  0  1  0  0  0  0  0  0  0  0  0
   23.1549  -21.3611  -11.7831 C   0  0  0  0  0  0  0  0  0  0  0  0
   21.9091  -20.7914  -11.2807 C   0  0  0  0  0  0  0  0  0  0  0  0
   21.8507  -19.6656  -10.7308 O   0  0  0  0  0  0  0  0  0  0  0  0
   24.2972  -20.8518   -9.6433 C   0  0  0  0  0  0  0  0  0  0  0  0
   23.3575  -20.3593   -8.9799 O   0  0  0  0  0  0  0  0  0  0  0  0
   20.7337  -21.5105  -11.4085 O   0  0  0  0  0  0  0  0  0  0  0  0
   25.3126  -21.4922   -8.9530 O   0  0  0  0  0  0  0  0  0  0  0  0
  2  1  1  6
  2  3  1  0
  3  4  1  0
  4  8  1  0
  5  4  2  0
  6  2  1  0
  7  6  2  0
  9  6  1  0
  9 13  1  0
 10 11  1  0
 10  9  1  0
 11 12  1  0
 12 13  1  0
 14 16  1  0
 13 14  1  1
 15 14  2  0
 17 16  1  0
 17 18  1  6
 19 18  1  0
 19 23  1  0
 20 19  2  0
 21 24  1  0
 21 17  1  0
 22 21  2  0
M  END
$$$$
