DPD.pdb
     RDKit          3D

 24 24  0  0  1  0  0  0  0  0999 V2000
   21.1437  -18.8724  -17.5734 N   0  0  0  0  0  0  0  0  0  0  0  0
   21.9089  -17.8829  -18.3066 C   0  0  1  0  0  0  0  0  0  0  0  0
   21.1356  -16.5962  -18.3018 C   0  0  0  0  0  0  0  0  0  0  0  0
   21.9665  -15.4469  -18.7947 C   0  0  0  0  0  0  0  0  0  0  0  0
   22.6307  -14.8188  -17.9250 O   0  0  0  0  0  0  0  0  0  0  0  0
   23.2989  -17.8382  -17.8822 C   0  0  0  0  0  0  0  0  0  0  0  0
   24.1449  -17.4394  -18.7897 O   0  0  0  0  0  0  0  0  0  0  0  0
   22.0064  -15.0922  -20.1183 O   0  0  0  0  0  0  0  0  0  0  0  0
   23.8810  -18.1594  -16.6422 N   0  0  0  0  0  0  0  0  0  0  0  0
   24.8139  -17.5146  -15.7667 C   0  0  0  0  0  0  0  0  0  0  0  0
   25.7587  -18.6929  -15.4646 C   0  0  0  0  0  0  0  0  0  0  0  0
   24.7487  -19.7578  -15.0949 C   0  0  0  0  0  0  0  0  0  0  0  0
   23.5572  -19.4085  -15.9296 C   0  0  1  0  0  0  0  0  0  0  0  0
   22.3108  -19.2420  -15.1386 C   0  0  0  0  0  0  0  0  0  0  0  0
   21.7607  -18.1178  -15.0266 O   0  0  0  0  0  0  0  0  0  0  0  0
   21.6825  -20.3423  -14.4730 N   0  0  0  0  0  0  0  0  0  0  0  0
   20.2694  -20.4510  -14.2851 C   0  0  1  0  0  0  0  0  0  0  0  0
   19.4714  -19.7531  -15.3620 C   0  0  0  0  0  0  0  0  0  0  0  0
   18.0287  -19.8337  -15.1591 C   0  0  0  0  0  0  0  0  0  0  0  0
   17.4942  -19.7153  -14.0306 O   0  0  0  0  0  0  0  0  0  0  0  0
   19.8066  -21.8410  -14.0694 C   0  0  0  0  0  0  0  0  0  0  0  0
   19.7830  -22.7157  -14.9639 O   0  0  0  0  0  0  0  0  0  0  0  0
   17.2012  -20.0495  -16.2471 O   0  0  0  0  0  0  0  0  0  0  0  0
   19.3735  -22.1966  -12.8030 O   0  0  0  0  0  0  0  0  0  0  0  0
  2  1  1  1
  2  3  1  0
  3  4  1  0
  4  8  1  0
  5  4  2  0
  6  2  1  0
  7  6  2  0
  9  6  1  0
  9 13  1  0
 10 11  1  0
 10  9  1  0
 11 12  1  0
 12 13  1  0
 14 16  1  0
 13 14  1  1
 15 14  2  0
 17 16  1  0
 17 18  1  6
 19 18  1  0
 19 23  1  0
 20 19  2  0
 21 24  1  0
 21 17  1  0
 22 21  2  0
M  END
$$$$
