DPD.pdb
     RDKit          3D

 24 24  0  0  1  0  0  0  0  0999 V2000
   18.2782  -11.8270  -14.9555 N   0  0  0  0  0  0  0  0  0  0  0  0
   18.4259  -10.3993  -15.1608 C   0  0  1  0  0  0  0  0  0  0  0  0
   17.2910   -9.9313  -16.0248 C   0  0  0  0  0  0  0  0  0  0  0  0
   17.4152  -10.4433  -17.4307 C   0  0  0  0  0  0  0  0  0  0  0  0
   18.5868  -10.5747  -17.8804 O   0  0  0  0  0  0  0  0  0  0  0  0
   18.6667   -9.6873  -13.9161 C   0  0  0  0  0  0  0  0  0  0  0  0
   17.9969  -10.1241  -12.8870 O   0  0  0  0  0  0  0  0  0  0  0  0
   16.3183  -10.7537  -18.1921 O   0  0  0  0  0  0  0  0  0  0  0  0
   19.5107   -8.5952  -13.6428 N   0  0  0  0  0  0  0  0  0  0  0  0
   20.3667   -7.7581  -14.4296 C   0  0  0  0  0  0  0  0  0  0  0  0
   21.6307   -7.7622  -13.5496 C   0  0  0  0  0  0  0  0  0  0  0  0
   21.0211   -7.4332  -12.2040 C   0  0  0  0  0  0  0  0  0  0  0  0
   19.6584   -8.0458  -12.2829 C   0  0  1  0  0  0  0  0  0  0  0  0
   18.5621   -7.0861  -11.9933 C   0  0  0  0  0  0  0  0  0  0  0  0
   17.9608   -6.4908  -12.9223 O   0  0  0  0  0  0  0  0  0  0  0  0
   18.1418   -6.7962  -10.6562 N   0  0  0  0  0  0  0  0  0  0  0  0
   16.9919   -6.0067  -10.3419 C   0  0  1  0  0  0  0  0  0  0  0  0
   16.3499   -6.3888   -9.0284 C   0  0  0  0  0  0  0  0  0  0  0  0
   15.2287   -5.5309   -8.6596 C   0  0  0  0  0  0  0  0  0  0  0  0
   14.5539   -4.8951   -9.5043 O   0  0  0  0  0  0  0  0  0  0  0  0
   17.2324   -4.5485  -10.4345 C   0  0  0  0  0  0  0  0  0  0  0  0
   16.3258   -3.6998  -10.5881 O   0  0  0  0  0  0  0  0  0  0  0  0
   14.8823   -5.4024   -7.3260 O   0  0  0  0  0  0  0  0  0  0  0  0
   18.5376   -4.0944  -10.3463 O   0  0  0  0  0  0  0  0  0  0  0  0
  2  1  1  1
  2  3  1  0
  3  4  1  0
  4  8  1  0
  5  4  2  0
  6  2  1  0
  7  6  2  0
  9  6  1  0
  9 13  1  0
 10 11  1  0
 10  9  1  0
 11 12  1  0
 12 13  1  0
 14 16  1  0
 13 14  1  6
 15 14  2  0
 17 16  1  0
 17 18  1  1
 19 18  1  0
 19 23  1  0
 20 19  2  0
 21 24  1  0
 21 17  1  0
 22 21  2  0
M  END
$$$$
