MKE.pdb
     RDKit          3D

 27 26  0  0  1  0  0  0  0  0999 V2000
    5.8510  -11.2830   27.9557 C   0  0  0  0  0  0  0  0  0  0  0  0
    6.4778  -12.3893   26.7148 S   0  0  0  0  0  0  0  0  0  0  0  0
    6.9408  -13.9997   27.2487 C   0  0  0  0  0  0  0  0  0  0  0  0
    7.4889  -14.8958   26.2131 C   0  0  0  0  0  0  0  0  0  0  0  0
    6.5688  -15.5583   25.2495 C   0  0  2  0  0  0  0  0  0  0  0  0
    5.9446  -16.7500   25.6833 N   0  0  0  0  0  0  0  0  0  0  0  0
    7.1923  -15.5924   23.9142 C   0  0  0  0  0  0  0  0  0  0  0  0
    7.8004  -16.6279   23.5310 O   0  0  0  0  0  0  0  0  0  0  0  0
    7.1768  -14.5027   22.9638 N   0  0  0  0  0  0  0  0  0  0  0  0
    7.9058  -14.5872   21.7416 C   0  0  1  0  0  0  0  0  0  0  0  0
    7.8240  -13.5249   20.7214 C   0  0  0  0  0  0  0  0  0  0  0  0
    8.5869  -13.5607   19.4748 C   0  0  0  0  0  0  0  0  0  0  0  0
    7.9060  -14.2540   18.3445 C   0  0  0  0  0  0  0  0  0  0  0  0
    8.9062  -14.2649   17.1818 C   0  0  0  0  0  0  0  0  0  0  0  0
    8.2696  -14.7948   15.9980 N   0  0  0  0  0  0  0  0  0  0  0  0
    9.3411  -14.8780   22.1256 C   0  0  0  0  0  0  0  0  0  0  0  0
    9.9233  -14.2262   23.0275 O   0  0  0  0  0  0  0  0  0  0  0  0
   10.0761  -15.9017   21.4769 N   0  0  0  0  0  0  0  0  0  0  0  0
   11.4198  -16.3173   21.9619 C   0  0  1  0  0  0  0  0  0  0  0  0
   11.4007  -17.7774   22.2786 C   0  0  0  0  0  0  0  0  0  0  0  0
   12.7344  -18.3003   22.6992 C   0  0  0  0  0  0  0  0  0  0  0  0
   12.7137  -19.7484   22.9699 C   0  0  0  0  0  0  0  0  0  0  0  0
   11.5944  -20.3167   23.1735 O   0  0  0  0  0  0  0  0  0  0  0  0
   12.3771  -15.9196   20.9240 C   0  0  0  0  0  0  0  0  0  0  0  0
   12.0410  -15.8502   19.5600 O   0  0  0  0  0  0  0  0  0  0  0  0
   13.8643  -20.5070   23.0118 O   0  0  0  0  0  0  0  0  0  0  0  0
   13.5637  -15.6142   21.1890 O   0  0  0  0  0  0  0  0  0  0  0  0
  1  2  1  0
  3  4  1  0
  3  2  1  0
  4  5  1  0
  5  6  1  1
  7  5  1  0
  7  8  2  0
  9  7  1  0
 10  9  1  0
 10 11  1  1
 12 11  1  0
 13 12  1  0
 13 14  1  0
 14 15  1  0
 16 10  1  0
 17 16  2  0
 18 16  1  0
 19 18  1  0
 19 20  1  6
 21 20  1  0
 22 21  1  0
 23 22  2  0
 24 19  1  0
 24 25  1  0
 26 22  1  0
 27 24  2  0
M  END
$$$$
