MKE.pdb
     RDKit          3D

 27 26  0  0  1  0  0  0  0  0999 V2000
    5.6743  -11.4660   27.7559 C   0  0  0  0  0  0  0  0  0  0  0  0
    6.2787  -12.6090   26.5373 S   0  0  0  0  0  0  0  0  0  0  0  0
    7.1433  -14.0199   27.1329 C   0  0  0  0  0  0  0  0  0  0  0  0
    7.6529  -14.9508   26.1085 C   0  0  0  0  0  0  0  0  0  0  0  0
    6.7157  -15.5329   25.1099 C   0  0  2  0  0  0  0  0  0  0  0  0
    6.0475  -16.7214   25.4827 N   0  0  0  0  0  0  0  0  0  0  0  0
    7.3456  -15.5243   23.7772 C   0  0  0  0  0  0  0  0  0  0  0  0
    7.9349  -16.5552   23.3542 O   0  0  0  0  0  0  0  0  0  0  0  0
    7.3569  -14.3962   22.8727 N   0  0  0  0  0  0  0  0  0  0  0  0
    7.9958  -14.4839   21.6012 C   0  0  1  0  0  0  0  0  0  0  0  0
    7.9074  -13.3880   20.6180 C   0  0  0  0  0  0  0  0  0  0  0  0
    8.5761  -13.4311   19.3186 C   0  0  0  0  0  0  0  0  0  0  0  0
    7.8425  -14.1845   18.2623 C   0  0  0  0  0  0  0  0  0  0  0  0
    8.7319  -14.1498   17.0132 C   0  0  0  0  0  0  0  0  0  0  0  0
    8.0776  -14.8486   15.9310 N   0  0  0  0  0  0  0  0  0  0  0  0
    9.4344  -14.8666   21.8775 C   0  0  0  0  0  0  0  0  0  0  0  0
   10.0687  -14.3773   22.8446 O   0  0  0  0  0  0  0  0  0  0  0  0
   10.1134  -15.7953   21.0495 N   0  0  0  0  0  0  0  0  0  0  0  0
   11.4608  -16.3135   21.4092 C   0  0  1  0  0  0  0  0  0  0  0  0
   11.3320  -17.7114   21.9210 C   0  0  0  0  0  0  0  0  0  0  0  0
   12.6508  -18.3763   22.1393 C   0  0  0  0  0  0  0  0  0  0  0  0
   12.5121  -19.7666   22.6069 C   0  0  0  0  0  0  0  0  0  0  0  0
   11.3445  -20.2394   22.7819 O   0  0  0  0  0  0  0  0  0  0  0  0
   12.2958  -16.1651   20.2123 C   0  0  0  0  0  0  0  0  0  0  0  0
   13.6777  -15.9094   20.2712 O   0  0  0  0  0  0  0  0  0  0  0  0
   13.6026  -20.5706   22.8626 O   0  0  0  0  0  0  0  0  0  0  0  0
   11.8275  -16.2577   19.0533 O   0  0  0  0  0  0  0  0  0  0  0  0
  1  2  1  0
  3  4  1  0
  3  2  1  0
  4  5  1  0
  5  6  1  1
  7  5  1  0
  7  8  2  0
  9  7  1  0
 10  9  1  0
 10 11  1  1
 12 11  1  0
 13 12  1  0
 13 14  1  0
 14 15  1  0
 16 10  1  0
 17 16  2  0
 18 16  1  0
 19 18  1  0
 19 20  1  6
 21 20  1  0
 22 21  1  0
 23 22  2  0
 24 19  1  0
 24 25  1  0
 26 22  1  0
 27 24  2  0
M  END
$$$$
