MKE.pdb
     RDKit          3D

 27 26  0  0  1  0  0  0  0  0999 V2000
    7.7215  -11.6693   27.1357 C   0  0  0  0  0  0  0  0  0  0  0  0
    6.4951  -12.6857   27.9230 S   0  0  0  0  0  0  0  0  0  0  0  0
    6.1353  -14.2289   27.1604 C   0  0  0  0  0  0  0  0  0  0  0  0
    6.7525  -14.4622   25.8411 C   0  0  0  0  0  0  0  0  0  0  0  0
    6.4554  -15.7179   25.1000 C   0  0  2  0  0  0  0  0  0  0  0  0
    6.5684  -16.9258   25.8253 N   0  0  0  0  0  0  0  0  0  0  0  0
    7.1118  -15.6803   23.7807 C   0  0  0  0  0  0  0  0  0  0  0  0
    7.9572  -16.5637   23.4744 O   0  0  0  0  0  0  0  0  0  0  0  0
    6.8722  -14.6811   22.7634 N   0  0  0  0  0  0  0  0  0  0  0  0
    7.7407  -14.5578   21.6396 C   0  0  1  0  0  0  0  0  0  0  0  0
    7.5918  -13.4574   20.6687 C   0  0  0  0  0  0  0  0  0  0  0  0
    8.4468  -13.3162   19.4913 C   0  0  0  0  0  0  0  0  0  0  0  0
    8.1063  -14.2235   18.3586 C   0  0  0  0  0  0  0  0  0  0  0  0
    9.1541  -13.9629   17.2693 C   0  0  0  0  0  0  0  0  0  0  0  0
    8.8856  -14.8040   16.1256 N   0  0  0  0  0  0  0  0  0  0  0  0
    9.1507  -14.6279   22.1865 C   0  0  0  0  0  0  0  0  0  0  0  0
    9.5608  -13.8120   23.0487 O   0  0  0  0  0  0  0  0  0  0  0  0
   10.0565  -15.6232   21.7413 N   0  0  0  0  0  0  0  0  0  0  0  0
   11.4820  -15.6199   22.1671 C   0  0  1  0  0  0  0  0  0  0  0  0
   11.5919  -16.2232   23.5296 C   0  0  0  0  0  0  0  0  0  0  0  0
   11.9612  -17.6695   23.4990 C   0  0  0  0  0  0  0  0  0  0  0  0
   12.1550  -18.2318   24.8469 C   0  0  0  0  0  0  0  0  0  0  0  0
   11.1419  -18.6710   25.4780 O   0  0  0  0  0  0  0  0  0  0  0  0
   12.2306  -16.3185   21.1167 C   0  0  0  0  0  0  0  0  0  0  0  0
   11.6065  -16.9711   20.0382 O   0  0  0  0  0  0  0  0  0  0  0  0
   13.3945  -18.2965   25.4475 O   0  0  0  0  0  0  0  0  0  0  0  0
   13.4828  -16.3784   21.1136 O   0  0  0  0  0  0  0  0  0  0  0  0
  1  2  1  0
  3  4  1  0
  3  2  1  0
  4  5  1  0
  5  6  1  1
  7  5  1  0
  7  8  2  0
  9  7  1  0
 10  9  1  0
 10 11  1  1
 12 11  1  0
 13 12  1  0
 13 14  1  0
 14 15  1  0
 16 10  1  0
 17 16  2  0
 18 16  1  0
 19 18  1  0
 19 20  1  1
 21 20  1  0
 22 21  1  0
 23 22  2  0
 24 19  1  0
 24 25  1  0
 26 22  1  0
 27 24  2  0
M  END
$$$$
