MKE.pdb
     RDKit          3D

 27 26  0  0  1  0  0  0  0  0999 V2000
    6.6341  -12.3103   18.8301 C   0  0  0  0  0  0  0  0  0  0  0  0
    8.4062  -12.4329   18.8677 S   0  0  0  0  0  0  0  0  0  0  0  0
    9.0958  -13.6270   19.9593 C   0  0  0  0  0  0  0  0  0  0  0  0
   10.5687  -13.6810   20.0177 C   0  0  0  0  0  0  0  0  0  0  0  0
   11.2766  -14.9297   19.6254 C   0  0  2  0  0  0  0  0  0  0  0  0
   11.0782  -15.3837   18.3016 N   0  0  0  0  0  0  0  0  0  0  0  0
   11.1326  -15.9359   20.6931 C   0  0  0  0  0  0  0  0  0  0  0  0
   11.2047  -15.5843   21.9014 O   0  0  0  0  0  0  0  0  0  0  0  0
   10.9125  -17.3486   20.4769 N   0  0  0  0  0  0  0  0  0  0  0  0
   10.7932  -18.2474   21.5770 C   0  0  1  0  0  0  0  0  0  0  0  0
   10.0612  -19.5221   21.4538 C   0  0  0  0  0  0  0  0  0  0  0  0
    8.8762  -19.6790   20.6120 C   0  0  0  0  0  0  0  0  0  0  0  0
    7.5771  -19.5851   21.3369 C   0  0  0  0  0  0  0  0  0  0  0  0
    6.4808  -19.7592   20.2785 C   0  0  0  0  0  0  0  0  0  0  0  0
    5.1825  -19.6082   20.8943 N   0  0  0  0  0  0  0  0  0  0  0  0
   12.1976  -18.4627   22.1001 C   0  0  0  0  0  0  0  0  0  0  0  0
   13.1305  -18.8274   21.3426 O   0  0  0  0  0  0  0  0  0  0  0  0
   12.5054  -18.2566   23.4683 N   0  0  0  0  0  0  0  0  0  0  0  0
   13.9083  -18.0714   23.9276 C   0  0  1  0  0  0  0  0  0  0  0  0
   14.4956  -16.8753   23.2516 C   0  0  0  0  0  0  0  0  0  0  0  0
   15.6057  -17.2211   22.3151 C   0  0  0  0  0  0  0  0  0  0  0  0
   16.3490  -16.0343   21.8572 C   0  0  0  0  0  0  0  0  0  0  0  0
   16.0677  -14.9028   22.3652 O   0  0  0  0  0  0  0  0  0  0  0  0
   13.8592  -17.9953   25.3917 C   0  0  0  0  0  0  0  0  0  0  0  0
   14.9856  -18.2091   26.2066 O   0  0  0  0  0  0  0  0  0  0  0  0
   17.3361  -16.1076   20.8974 O   0  0  0  0  0  0  0  0  0  0  0  0
   12.8029  -17.7329   26.0137 O   0  0  0  0  0  0  0  0  0  0  0  0
  1  2  1  0
  3  4  1  0
  3  2  1  0
  4  5  1  0
  5  6  1  6
  7  5  1  0
  7  8  2  0
  9  7  1  0
 10  9  1  0
 10 11  1  6
 12 11  1  0
 13 12  1  0
 13 14  1  0
 14 15  1  0
 16 10  1  0
 17 16  2  0
 18 16  1  0
 19 18  1  0
 19 20  1  6
 21 20  1  0
 22 21  1  0
 23 22  2  0
 24 19  1  0
 24 25  1  0
 26 22  1  0
 27 24  2  0
M  END
$$$$
