MKE.pdb
     RDKit          3D

 27 26  0  0  1  0  0  0  0  0999 V2000
    6.4566  -11.7419   23.2975 C   0  0  0  0  0  0  0  0  0  0  0  0
    6.8715  -11.9457   21.5820 S   0  0  0  0  0  0  0  0  0  0  0  0
    7.0611  -13.5951   21.0023 C   0  0  0  0  0  0  0  0  0  0  0  0
    7.4984  -14.5892   22.0004 C   0  0  0  0  0  0  0  0  0  0  0  0
    7.5984  -16.0236   21.6173 C   0  0  2  0  0  0  0  0  0  0  0  0
    6.7210  -16.4736   20.6046 N   0  0  0  0  0  0  0  0  0  0  0  0
    7.6808  -16.8551   22.8317 C   0  0  0  0  0  0  0  0  0  0  0  0
    8.3612  -16.4618   23.8173 O   0  0  0  0  0  0  0  0  0  0  0  0
    7.0323  -18.1357   23.0054 N   0  0  0  0  0  0  0  0  0  0  0  0
    7.2334  -18.9033   24.1898 C   0  0  1  0  0  0  0  0  0  0  0  0
    6.5366  -20.1856   24.4037 C   0  0  0  0  0  0  0  0  0  0  0  0
    6.7593  -21.0236   25.5808 C   0  0  0  0  0  0  0  0  0  0  0  0
    5.8997  -22.2391   25.6550 C   0  0  0  0  0  0  0  0  0  0  0  0
    6.3151  -22.9822   26.9308 C   0  0  0  0  0  0  0  0  0  0  0  0
    5.6342  -22.4106   28.0697 N   0  0  0  0  0  0  0  0  0  0  0  0
    8.7318  -19.0534   24.3459 C   0  0  0  0  0  0  0  0  0  0  0  0
    9.4225  -19.6598   23.4901 O   0  0  0  0  0  0  0  0  0  0  0  0
    9.4059  -18.5099   25.4681 N   0  0  0  0  0  0  0  0  0  0  0  0
   10.8717  -18.6856   25.6516 C   0  0  1  0  0  0  0  0  0  0  0  0
   11.5988  -17.7188   24.7745 C   0  0  0  0  0  0  0  0  0  0  0  0
   13.0683  -17.6858   25.0356 C   0  0  0  0  0  0  0  0  0  0  0  0
   13.7941  -16.8378   24.0740 C   0  0  0  0  0  0  0  0  0  0  0  0
   15.0447  -16.6677   24.2306 O   0  0  0  0  0  0  0  0  0  0  0  0
   11.1312  -18.5372   27.0877 C   0  0  0  0  0  0  0  0  0  0  0  0
   12.3539  -18.8940   27.6846 O   0  0  0  0  0  0  0  0  0  0  0  0
   13.1650  -16.2217   23.0129 O   0  0  0  0  0  0  0  0  0  0  0  0
   10.2738  -18.0796   27.8794 O   0  0  0  0  0  0  0  0  0  0  0  0
  1  2  1  0
  3  4  1  0
  3  2  1  0
  4  5  1  0
  5  6  1  1
  7  5  1  0
  7  8  2  0
  9  7  1  0
 10  9  1  0
 10 11  1  6
 12 11  1  0
 13 12  1  0
 13 14  1  0
 14 15  1  0
 16 10  1  0
 17 16  2  0
 18 16  1  0
 19 18  1  0
 19 20  1  6
 21 20  1  0
 22 21  1  0
 23 22  2  0
 24 19  1  0
 24 25  1  0
 26 22  1  0
 27 24  2  0
M  END
$$$$
