IDE.pdb
     RDKit          3D

 26 25  0  0  1  0  0  0  0  0999 V2000
    6.6563  -11.3871   27.2475 C   0  0  0  0  0  0  0  0  0  0  0  0
    6.0975  -12.5711   26.5499 C   0  0  0  0  0  0  0  0  0  0  0  0
    7.0346  -13.4977   25.8881 C   0  0  2  0  0  0  0  0  0  0  0  0
    7.9243  -12.8439   24.8597 C   0  0  0  0  0  0  0  0  0  0  0  0
    6.3936  -14.7256   25.3124 C   0  0  2  0  0  0  0  0  0  0  0  0
    5.5078  -15.3785   26.1851 N   0  0  0  0  0  0  0  0  0  0  0  0
    7.4834  -15.5713   24.7215 C   0  0  0  0  0  0  0  0  0  0  0  0
    8.0774  -16.3973   25.4917 O   0  0  0  0  0  0  0  0  0  0  0  0
    7.8169  -15.4414   23.3794 N   0  0  0  0  0  0  0  0  0  0  0  0
    8.8299  -16.1445   22.6598 C   0  0  1  0  0  0  0  0  0  0  0  0
    8.8419  -15.9491   21.1619 C   0  0  0  0  0  0  0  0  0  0  0  0
    9.8861  -16.8111   20.5722 C   0  0  0  0  0  0  0  0  0  0  0  0
    9.8303  -18.0528   20.7612 O   0  0  0  0  0  0  0  0  0  0  0  0
   10.1052  -16.1232   23.3270 C   0  0  0  0  0  0  0  0  0  0  0  0
   10.8155  -15.0748   23.2516 O   0  0  0  0  0  0  0  0  0  0  0  0
   10.9350  -16.2989   19.8118 O   0  0  0  0  0  0  0  0  0  0  0  0
   10.6153  -17.2296   24.0750 N   0  0  0  0  0  0  0  0  0  0  0  0
   11.8848  -17.1432   24.7638 C   0  0  1  0  0  0  0  0  0  0  0  0
   11.8983  -18.1194   25.9103 C   0  0  0  0  0  0  0  0  0  0  0  0
   10.9164  -17.6616   26.9584 C   0  0  0  0  0  0  0  0  0  0  0  0
   10.8488  -18.6369   28.0863 C   0  0  0  0  0  0  0  0  0  0  0  0
   11.7062  -18.5686   28.9936 O   0  0  0  0  0  0  0  0  0  0  0  0
   12.9672  -17.5226   23.7985 C   0  0  0  0  0  0  0  0  0  0  0  0
   14.3069  -17.4142   24.1039 O   0  0  0  0  0  0  0  0  0  0  0  0
    9.8722  -19.6078   28.1573 O   0  0  0  0  0  0  0  0  0  0  0  0
   12.6769  -17.9657   22.6429 O   0  0  0  0  0  0  0  0  0  0  0  0
  2  3  1  0
  2  1  1  0
  3  5  1  0
  3  4  1  6
  5  7  1  0
  5  6  1  1
  7  8  2  0
  9 10  1  0
  9  7  1  0
 10 11  1  6
 11 12  1  0
 12 13  2  0
 14 10  1  0
 14 15  2  0
 16 12  1  0
 17 14  1  0
 18 17  1  0
 18 23  1  0
 18 19  1  1
 20 19  1  0
 21 20  1  0
 21 22  2  0
 23 24  1  0
 25 21  1  0
 26 23  2  0
M  END
$$$$
