IDE.pdb
     RDKit          3D

 26 25  0  0  1  0  0  0  0  0999 V2000
    7.4297  -11.5166   19.6498 C   0  0  0  0  0  0  0  0  0  0  0  0
    7.6298  -12.8290   18.9876 C   0  0  0  0  0  0  0  0  0  0  0  0
    8.7940  -13.6415   19.3866 C   0  0  2  0  0  0  0  0  0  0  0  0
   10.1077  -12.9010   19.3388 C   0  0  0  0  0  0  0  0  0  0  0  0
    8.9129  -14.9534   18.6690 C   0  0  2  0  0  0  0  0  0  0  0  0
    7.7208  -15.6942   18.6175 N   0  0  0  0  0  0  0  0  0  0  0  0
   10.1112  -15.6665   19.2235 C   0  0  0  0  0  0  0  0  0  0  0  0
    9.9585  -16.3357   20.2992 O   0  0  0  0  0  0  0  0  0  0  0  0
   11.3346  -15.5859   18.5708 N   0  0  0  0  0  0  0  0  0  0  0  0
   12.5697  -16.1911   18.9538 C   0  0  1  0  0  0  0  0  0  0  0  0
   13.5004  -16.5781   17.8285 C   0  0  0  0  0  0  0  0  0  0  0  0
   14.7199  -17.1847   18.3994 C   0  0  0  0  0  0  0  0  0  0  0  0
   14.7092  -18.4045   18.7039 O   0  0  0  0  0  0  0  0  0  0  0  0
   13.1670  -15.5619   20.1023 C   0  0  0  0  0  0  0  0  0  0  0  0
   13.4752  -14.3332   20.0332 O   0  0  0  0  0  0  0  0  0  0  0  0
   15.8864  -16.4540   18.6145 O   0  0  0  0  0  0  0  0  0  0  0  0
   13.4322  -16.2547   21.3244 N   0  0  0  0  0  0  0  0  0  0  0  0
   13.9019  -15.5480   22.4964 C   0  0  1  0  0  0  0  0  0  0  0  0
   13.0531  -15.9265   23.6813 C   0  0  0  0  0  0  0  0  0  0  0  0
   13.1287  -17.4182   23.8846 C   0  0  0  0  0  0  0  0  0  0  0  0
   12.3428  -17.8321   25.0843 C   0  0  0  0  0  0  0  0  0  0  0  0
   11.8472  -16.9465   25.8143 O   0  0  0  0  0  0  0  0  0  0  0  0
   15.3145  -15.9728   22.7635 C   0  0  0  0  0  0  0  0  0  0  0  0
   16.1093  -15.3590   23.7078 O   0  0  0  0  0  0  0  0  0  0  0  0
   12.1478  -19.1576   25.4104 O   0  0  0  0  0  0  0  0  0  0  0  0
   15.8350  -16.9331   22.1133 O   0  0  0  0  0  0  0  0  0  0  0  0
  2  3  1  0
  2  1  1  0
  3  5  1  0
  3  4  1  6
  5  7  1  0
  5  6  1  1
  7  8  2  0
  9 10  1  0
  9  7  1  0
 10 11  1  6
 11 12  1  0
 12 13  2  0
 14 10  1  0
 14 15  2  0
 16 12  1  0
 17 14  1  0
 18 17  1  0
 18 23  1  0
 18 19  1  1
 20 19  1  0
 21 20  1  0
 21 22  2  0
 23 24  1  0
 25 21  1  0
 26 23  2  0
M  END
$$$$
