IDE.pdb
     RDKit          3D

 26 25  0  0  1  0  0  0  0  0999 V2000
    8.1594  -12.7384   21.3973 C   0  0  0  0  0  0  0  0  0  0  0  0
    8.5338  -13.7939   20.4243 C   0  0  0  0  0  0  0  0  0  0  0  0
    8.7610  -13.4005   19.0213 C   0  0  2  0  0  0  0  0  0  0  0  0
    7.6156  -12.6385   18.4017 C   0  0  0  0  0  0  0  0  0  0  0  0
    9.1831  -14.5233   18.1206 C   0  0  2  0  0  0  0  0  0  0  0  0
    8.1956  -15.5001   17.9128 N   0  0  0  0  0  0  0  0  0  0  0  0
   10.5126  -15.0202   18.6080 C   0  0  0  0  0  0  0  0  0  0  0  0
   10.5218  -16.0520   19.3587 O   0  0  0  0  0  0  0  0  0  0  0  0
   11.6799  -14.3626   18.2416 N   0  0  0  0  0  0  0  0  0  0  0  0
   13.0238  -14.7324   18.5507 C   0  0  1  0  0  0  0  0  0  0  0  0
   14.0941  -14.1827   17.6372 C   0  0  0  0  0  0  0  0  0  0  0  0
   15.3789  -14.8401   17.9508 C   0  0  0  0  0  0  0  0  0  0  0  0
   15.3742  -15.8879   18.6457 O   0  0  0  0  0  0  0  0  0  0  0  0
   13.2994  -14.7046   19.9632 C   0  0  0  0  0  0  0  0  0  0  0  0
   13.5016  -13.5843   20.5232 O   0  0  0  0  0  0  0  0  0  0  0  0
   16.6008  -14.3416   17.5044 O   0  0  0  0  0  0  0  0  0  0  0  0
   13.3572  -15.8818   20.7723 N   0  0  0  0  0  0  0  0  0  0  0  0
   13.6289  -15.7999   22.1911 C   0  0  1  0  0  0  0  0  0  0  0  0
   13.0066  -16.9810   22.8878 C   0  0  0  0  0  0  0  0  0  0  0  0
   13.3304  -16.9118   24.3584 C   0  0  0  0  0  0  0  0  0  0  0  0
   12.7011  -18.0469   25.0957 C   0  0  0  0  0  0  0  0  0  0  0  0
   11.9801  -18.8493   24.4639 O   0  0  0  0  0  0  0  0  0  0  0  0
   15.1141  -15.8560   22.3867 C   0  0  0  0  0  0  0  0  0  0  0  0
   15.9729  -16.3407   21.4236 O   0  0  0  0  0  0  0  0  0  0  0  0
   12.8906  -18.2364   26.4483 O   0  0  0  0  0  0  0  0  0  0  0  0
   15.6395  -15.4496   23.4706 O   0  0  0  0  0  0  0  0  0  0  0  0
  2  3  1  0
  2  1  1  0
  3  5  1  0
  3  4  1  6
  5  7  1  0
  5  6  1  1
  7  8  2  0
  9 10  1  0
  9  7  1  0
 10 11  1  6
 11 12  1  0
 12 13  2  0
 14 10  1  0
 14 15  2  0
 16 12  1  0
 17 14  1  0
 18 17  1  0
 18 23  1  0
 18 19  1  1
 20 19  1  0
 21 20  1  0
 21 22  2  0
 23 24  1  0
 25 21  1  0
 26 23  2  0
M  END
$$$$
