IDE.pdb
     RDKit          3D

 26 25  0  0  1  0  0  0  0  0999 V2000
    6.7507  -11.6387   27.3736 C   0  0  0  0  0  0  0  0  0  0  0  0
    6.1709  -12.7999   26.6552 C   0  0  0  0  0  0  0  0  0  0  0  0
    7.0819  -13.6761   25.8955 C   0  0  2  0  0  0  0  0  0  0  0  0
    7.9159  -12.9537   24.8664 C   0  0  0  0  0  0  0  0  0  0  0  0
    6.4231  -14.8745   25.2792 C   0  0  2  0  0  0  0  0  0  0  0  0
    5.6126  -15.6065   26.1623 N   0  0  0  0  0  0  0  0  0  0  0  0
    7.4829  -15.6523   24.5554 C   0  0  0  0  0  0  0  0  0  0  0  0
    8.1016  -16.5595   25.2053 O   0  0  0  0  0  0  0  0  0  0  0  0
    7.7635  -15.3759   23.2234 N   0  0  0  0  0  0  0  0  0  0  0  0
    8.6942  -16.0433   22.3708 C   0  0  1  0  0  0  0  0  0  0  0  0
    8.5083  -15.8336   20.8863 C   0  0  0  0  0  0  0  0  0  0  0  0
    9.4488  -16.7067   20.1554 C   0  0  0  0  0  0  0  0  0  0  0  0
   10.3647  -16.1806   19.4734 O   0  0  0  0  0  0  0  0  0  0  0  0
   10.0435  -15.9922   22.8693 C   0  0  0  0  0  0  0  0  0  0  0  0
   10.6166  -14.8643   22.9634 O   0  0  0  0  0  0  0  0  0  0  0  0
    9.3594  -18.0964   20.1925 O   0  0  0  0  0  0  0  0  0  0  0  0
   10.7753  -17.1544   23.2662 N   0  0  0  0  0  0  0  0  0  0  0  0
   12.0629  -17.0399   23.9165 C   0  0  1  0  0  0  0  0  0  0  0  0
   12.1914  -18.1152   24.9628 C   0  0  0  0  0  0  0  0  0  0  0  0
   11.3932  -17.7176   26.1781 C   0  0  0  0  0  0  0  0  0  0  0  0
   11.4555  -18.7787   27.2260 C   0  0  0  0  0  0  0  0  0  0  0  0
   12.5637  -19.2861   27.5040 O   0  0  0  0  0  0  0  0  0  0  0  0
   13.1287  -17.2470   22.8828 C   0  0  0  0  0  0  0  0  0  0  0  0
   14.4703  -17.0884   23.1564 O   0  0  0  0  0  0  0  0  0  0  0  0
   10.3310  -19.2146   27.8945 O   0  0  0  0  0  0  0  0  0  0  0  0
   12.8218  -17.5827   21.6958 O   0  0  0  0  0  0  0  0  0  0  0  0
  2  3  1  0
  2  1  1  0
  3  5  1  0
  3  4  1  6
  5  7  1  0
  5  6  1  1
  7  8  2  0
  9 10  1  0
  9  7  1  0
 10 11  1  6
 11 12  1  0
 12 13  2  0
 14 10  1  0
 14 15  2  0
 16 12  1  0
 17 14  1  0
 18 17  1  0
 18 23  1  0
 18 19  1  1
 20 19  1  0
 21 20  1  0
 21 22  2  0
 23 24  1  0
 25 21  1  0
 26 23  2  0
M  END
$$$$
