IDE.pdb
     RDKit          3D

 26 25  0  0  1  0  0  0  0  0999 V2000
    6.4313  -11.8768   27.0011 C   0  0  0  0  0  0  0  0  0  0  0  0
    6.0814  -13.0357   26.1436 C   0  0  0  0  0  0  0  0  0  0  0  0
    7.1732  -13.9023   25.6624 C   0  0  2  0  0  0  0  0  0  0  0  0
    8.2513  -13.1703   24.9018 C   0  0  0  0  0  0  0  0  0  0  0  0
    6.7188  -15.1042   24.8884 C   0  0  2  0  0  0  0  0  0  0  0  0
    5.6678  -15.8156   25.4898 N   0  0  0  0  0  0  0  0  0  0  0  0
    7.9389  -15.9022   24.5325 C   0  0  0  0  0  0  0  0  0  0  0  0
    8.3273  -16.7934   25.3591 O   0  0  0  0  0  0  0  0  0  0  0  0
    8.6065  -15.6606   23.3386 N   0  0  0  0  0  0  0  0  0  0  0  0
    9.7824  -16.3064   22.8501 C   0  0  1  0  0  0  0  0  0  0  0  0
   10.1399  -16.0387   21.4069 C   0  0  0  0  0  0  0  0  0  0  0  0
    9.5773  -17.1132   20.5643 C   0  0  0  0  0  0  0  0  0  0  0  0
    9.3806  -18.2466   21.0720 O   0  0  0  0  0  0  0  0  0  0  0  0
   10.8637  -16.2900   23.8001 C   0  0  0  0  0  0  0  0  0  0  0  0
   11.2528  -15.1744   24.2620 O   0  0  0  0  0  0  0  0  0  0  0  0
    9.2550  -16.9184   19.2230 O   0  0  0  0  0  0  0  0  0  0  0  0
   11.5253  -17.4737   24.2526 N   0  0  0  0  0  0  0  0  0  0  0  0
   12.2949  -17.4767   25.4780 C   0  0  1  0  0  0  0  0  0  0  0  0
   11.3733  -17.2497   26.6471 C   0  0  0  0  0  0  0  0  0  0  0  0
   12.1476  -17.4339   27.9272 C   0  0  0  0  0  0  0  0  0  0  0  0
   11.2796  -17.1810   29.1150 C   0  0  0  0  0  0  0  0  0  0  0  0
   10.3548  -17.9836   29.3667 O   0  0  0  0  0  0  0  0  0  0  0  0
   12.9333  -18.8250   25.6257 C   0  0  0  0  0  0  0  0  0  0  0  0
   14.0254  -19.0454   26.4374 O   0  0  0  0  0  0  0  0  0  0  0  0
   11.4668  -16.0922   29.9402 O   0  0  0  0  0  0  0  0  0  0  0  0
   12.4776  -19.8291   24.9933 O   0  0  0  0  0  0  0  0  0  0  0  0
  2  3  1  0
  2  1  1  0
  3  5  1  0
  3  4  1  6
  5  7  1  0
  5  6  1  1
  7  8  2  0
  9 10  1  0
  9  7  1  0
 10 11  1  6
 11 12  1  0
 12 13  2  0
 14 10  1  0
 14 15  2  0
 16 12  1  0
 17 14  1  0
 18 17  1  0
 18 23  1  0
 18 19  1  1
 20 19  1  0
 21 20  1  0
 21 22  2  0
 23 24  1  0
 25 21  1  0
 26 23  2  0
M  END
$$$$
