IDE.pdb
     RDKit          3D

 26 25  0  0  1  0  0  0  0  0999 V2000
    7.5748  -12.6160   21.9722 C   0  0  0  0  0  0  0  0  0  0  0  0
    7.5809  -13.7670   21.0362 C   0  0  0  0  0  0  0  0  0  0  0  0
    8.2938  -13.6195   19.7537 C   0  0  2  0  0  0  0  0  0  0  0  0
    8.0117  -12.3217   19.0376 C   0  0  0  0  0  0  0  0  0  0  0  0
    8.1285  -14.7762   18.8130 C   0  0  2  0  0  0  0  0  0  0  0  0
    6.8041  -15.0054   18.4058 N   0  0  0  0  0  0  0  0  0  0  0  0
    8.8503  -15.9501   19.4070 C   0  0  0  0  0  0  0  0  0  0  0  0
    8.1545  -16.9632   19.7503 O   0  0  0  0  0  0  0  0  0  0  0  0
   10.2294  -15.9121   19.5683 N   0  0  0  0  0  0  0  0  0  0  0  0
   11.0881  -16.9710   19.9925 C   0  0  1  0  0  0  0  0  0  0  0  0
   11.8964  -17.6485   18.9109 C   0  0  0  0  0  0  0  0  0  0  0  0
   12.4530  -18.9084   19.4438 C   0  0  0  0  0  0  0  0  0  0  0  0
   11.6766  -19.8717   19.6675 O   0  0  0  0  0  0  0  0  0  0  0  0
   11.7715  -16.6757   21.2244 C   0  0  0  0  0  0  0  0  0  0  0  0
   12.6804  -15.7906   21.2206 O   0  0  0  0  0  0  0  0  0  0  0  0
   13.8109  -19.0710   19.7093 O   0  0  0  0  0  0  0  0  0  0  0  0
   11.4766  -17.3325   22.4595 N   0  0  0  0  0  0  0  0  0  0  0  0
   12.2569  -17.0703   23.6494 C   0  0  1  0  0  0  0  0  0  0  0  0
   11.8557  -18.0362   24.7327 C   0  0  0  0  0  0  0  0  0  0  0  0
   12.6970  -17.7800   25.9570 C   0  0  0  0  0  0  0  0  0  0  0  0
   12.3180  -18.7045   27.0659 C   0  0  0  0  0  0  0  0  0  0  0  0
   11.1148  -19.0124   27.2085 O   0  0  0  0  0  0  0  0  0  0  0  0
   13.7021  -17.2936   23.3193 C   0  0  0  0  0  0  0  0  0  0  0  0
   14.1432  -18.3974   22.6213 O   0  0  0  0  0  0  0  0  0  0  0  0
   13.2522  -19.2275   27.9349 O   0  0  0  0  0  0  0  0  0  0  0  0
   14.5852  -16.4537   23.6807 O   0  0  0  0  0  0  0  0  0  0  0  0
  2  3  1  0
  2  1  1  0
  3  5  1  0
  3  4  1  6
  5  7  1  0
  5  6  1  1
  7  8  2  0
  9 10  1  0
  9  7  1  0
 10 11  1  6
 11 12  1  0
 12 13  2  0
 14 10  1  0
 14 15  2  0
 16 12  1  0
 17 14  1  0
 18 17  1  0
 18 23  1  0
 18 19  1  1
 20 19  1  0
 21 20  1  0
 21 22  2  0
 23 24  1  0
 25 21  1  0
 26 23  2  0
M  END
$$$$
