AVS.pdb
     RDKit          3D

 19 18  0  0  1  0  0  0  0  0999 V2000
    6.8604  -18.8962   17.9167 C   0  0  0  0  0  0  0  0  0  0  0  0
    7.1529  -17.5337   17.3356 C   0  0  2  0  0  0  0  0  0  0  0  0
    7.7598  -17.6199   16.0244 N   0  0  0  0  0  0  0  0  0  0  0  0
    8.0237  -16.7644   18.2679 C   0  0  0  0  0  0  0  0  0  0  0  0
    9.2659  -16.9597   18.2342 O   0  0  0  0  0  0  0  0  0  0  0  0
    8.2555  -13.1048   21.6558 C   0  0  0  0  0  0  0  0  0  0  0  0
    7.4970  -13.8856   20.6122 C   0  0  1  0  0  0  0  0  0  0  0  0
    7.1534  -12.9693   19.4601 C   0  0  0  0  0  0  0  0  0  0  0  0
    8.3041  -15.0774   20.1386 C   0  0  2  0  0  0  0  0  0  0  0  0
    7.5180  -15.8161   19.1979 N   0  0  0  0  0  0  0  0  0  0  0  0
    8.8469  -15.8717   21.2355 C   0  0  0  0  0  0  0  0  0  0  0  0
    8.0408  -16.4940   21.9757 O   0  0  0  0  0  0  0  0  0  0  0  0
   12.2537  -18.6451   22.9226 O   0  0  0  0  0  0  0  0  0  0  0  0
   11.7983  -17.7943   21.8939 C   0  0  0  0  0  0  0  0  0  0  0  0
   10.7514  -16.8953   22.5457 C   0  0  2  0  0  0  0  0  0  0  0  0
   10.2281  -15.9978   21.5347 N   0  0  0  0  0  0  0  0  0  0  0  0
   11.3074  -16.1838   23.7022 C   0  0  0  0  0  0  0  0  0  0  0  0
   11.5952  -14.9675   23.6073 O   0  0  0  0  0  0  0  0  0  0  0  0
   11.5294  -16.8153   24.9132 O   0  0  0  0  0  0  0  0  0  0  0  0
  2  3  1  0
  2  1  1  1
  4  2  1  0
  5  4  2  0
  7  6  1  1
  7  8  1  0
  7  9  1  0
  9 10  1  1
 10  4  1  0
 11  9  1  0
 11 16  1  0
 12 11  2  0
 13 14  1  0
 15 14  1  6
 16 15  1  0
 17 15  1  0
 18 17  2  0
 19 17  1  0
M  END
$$$$
