AVS.pdb
     RDKit          3D

 19 18  0  0  1  0  0  0  0  0999 V2000
    7.4514  -18.8095   17.7424 C   0  0  0  0  0  0  0  0  0  0  0  0
    7.7293  -17.4245   17.2095 C   0  0  2  0  0  0  0  0  0  0  0  0
    8.4560  -17.4584   15.9582 N   0  0  0  0  0  0  0  0  0  0  0  0
    8.4739  -16.6324   18.2280 C   0  0  0  0  0  0  0  0  0  0  0  0
    9.7263  -16.7380   18.2782 O   0  0  0  0  0  0  0  0  0  0  0  0
    8.1969  -13.2244   21.8676 C   0  0  0  0  0  0  0  0  0  0  0  0
    7.5768  -13.9588   20.7057 C   0  0  1  0  0  0  0  0  0  0  0  0
    7.2902  -12.9757   19.5938 C   0  0  0  0  0  0  0  0  0  0  0  0
    8.4842  -15.0739   20.2268 C   0  0  2  0  0  0  0  0  0  0  0  0
    7.8361  -15.7590   19.1503 N   0  0  0  0  0  0  0  0  0  0  0  0
    8.9470  -15.9376   21.3077 C   0  0  0  0  0  0  0  0  0  0  0  0
    8.1222  -16.7336   21.8284 O   0  0  0  0  0  0  0  0  0  0  0  0
   12.3819  -18.4754   23.3030 O   0  0  0  0  0  0  0  0  0  0  0  0
   11.9868  -17.5784   22.2887 C   0  0  0  0  0  0  0  0  0  0  0  0
   10.7329  -16.8911   22.8220 C   0  0  2  0  0  0  0  0  0  0  0  0
   10.2691  -15.9492   21.8224 N   0  0  0  0  0  0  0  0  0  0  0  0
   10.9850  -16.2594   24.1221 C   0  0  0  0  0  0  0  0  0  0  0  0
   11.0111  -15.0096   24.2142 O   0  0  0  0  0  0  0  0  0  0  0  0
   11.1984  -17.0037   25.2689 O   0  0  0  0  0  0  0  0  0  0  0  0
  2  3  1  0
  2  1  1  1
  4  2  1  0
  5  4  2  0
  7  6  1  1
  7  8  1  0
  7  9  1  0
  9 10  1  6
 10  4  1  0
 11  9  1  0
 11 16  1  0
 12 11  2  0
 13 14  1  0
 15 14  1  6
 16 15  1  0
 17 15  1  0
 18 17  2  0
 19 17  1  0
M  END
$$$$
