AVS.pdb
     RDKit          3D

 19 18  0  0  1  0  0  0  0  0999 V2000
    7.1963  -16.9125   21.9446 C   0  0  0  0  0  0  0  0  0  0  0  0
    7.3735  -15.4137   21.9015 C   0  0  2  0  0  0  0  0  0  0  0  0
    8.0939  -14.9845   20.7218 N   0  0  0  0  0  0  0  0  0  0  0  0
    8.0664  -14.9523   23.1369 C   0  0  0  0  0  0  0  0  0  0  0  0
    9.3230  -14.9944   23.1764 O   0  0  0  0  0  0  0  0  0  0  0  0
    7.6588  -12.5144   27.4494 C   0  0  0  0  0  0  0  0  0  0  0  0
    7.0400  -13.0596   26.1870 C   0  0  1  0  0  0  0  0  0  0  0  0
    6.6639  -11.9086   25.2821 C   0  0  0  0  0  0  0  0  0  0  0  0
    7.9891  -14.0132   25.4898 C   0  0  2  0  0  0  0  0  0  0  0  0
    7.3746  -14.4644   24.2786 N   0  0  0  0  0  0  0  0  0  0  0  0
    8.4709  -15.0788   26.3621 C   0  0  0  0  0  0  0  0  0  0  0  0
    7.6282  -15.8803   26.8442 O   0  0  0  0  0  0  0  0  0  0  0  0
   12.3975  -15.9054   26.7037 O   0  0  0  0  0  0  0  0  0  0  0  0
   11.5259  -16.9784   26.9836 C   0  0  0  0  0  0  0  0  0  0  0  0
   10.2818  -16.3405   27.5953 C   0  0  2  0  0  0  0  0  0  0  0  0
    9.8306  -15.2830   26.7123 N   0  0  0  0  0  0  0  0  0  0  0  0
   10.5430  -15.8670   28.9593 C   0  0  0  0  0  0  0  0  0  0  0  0
   10.4177  -14.6500   29.2322 O   0  0  0  0  0  0  0  0  0  0  0  0
   10.9287  -16.7275   29.9720 O   0  0  0  0  0  0  0  0  0  0  0  0
  2  3  1  0
  2  1  1  1
  4  2  1  0
  5  4  2  0
  7  6  1  1
  7  8  1  0
  7  9  1  0
  9 10  1  6
 10  4  1  0
 11  9  1  0
 11 16  1  0
 12 11  2  0
 13 14  1  0
 15 14  1  6
 16 15  1  0
 17 15  1  0
 18 17  2  0
 19 17  1  0
M  END
$$$$
