AVS.pdb
     RDKit          3D

 19 18  0  0  1  0  0  0  0  0999 V2000
    6.8879  -18.2968   17.8033 C   0  0  0  0  0  0  0  0  0  0  0  0
    7.5991  -17.0474   17.3416 C   0  0  2  0  0  0  0  0  0  0  0  0
    8.4059  -17.2842   16.1635 N   0  0  0  0  0  0  0  0  0  0  0  0
    8.4339  -16.5040   18.4494 C   0  0  0  0  0  0  0  0  0  0  0  0
    9.5853  -16.9784   18.6269 O   0  0  0  0  0  0  0  0  0  0  0  0
    7.7629  -12.7545   19.5813 C   0  0  0  0  0  0  0  0  0  0  0  0
    8.1120  -13.5863   20.7896 C   0  0  1  0  0  0  0  0  0  0  0  0
    6.8594  -13.8364   21.5980 C   0  0  0  0  0  0  0  0  0  0  0  0
    8.7632  -14.8906   20.3762 C   0  0  2  0  0  0  0  0  0  0  0  0
    7.9916  -15.4710   19.3197 N   0  0  0  0  0  0  0  0  0  0  0  0
    9.0219  -15.7818   21.5020 C   0  0  0  0  0  0  0  0  0  0  0  0
    8.0532  -16.4207   21.9904 O   0  0  0  0  0  0  0  0  0  0  0  0
   11.9247  -18.1146   21.8886 O   0  0  0  0  0  0  0  0  0  0  0  0
   10.8160  -18.2485   22.7501 C   0  0  0  0  0  0  0  0  0  0  0  0
   10.5165  -16.8369   23.2469 C   0  0  2  0  0  0  0  0  0  0  0  0
   10.2948  -15.9855   22.0947 N   0  0  0  0  0  0  0  0  0  0  0  0
   11.5872  -16.3420   24.1195 C   0  0  0  0  0  0  0  0  0  0  0  0
   11.8677  -16.9583   25.1743 O   0  0  0  0  0  0  0  0  0  0  0  0
   12.3106  -15.2019   23.8168 O   0  0  0  0  0  0  0  0  0  0  0  0
  2  3  1  0
  2  1  1  1
  4  2  1  0
  5  4  2  0
  7  6  1  6
  7  8  1  0
  7  9  1  0
  9 10  1  6
 10  4  1  0
 11  9  1  0
 11 16  1  0
 12 11  2  0
 13 14  1  0
 15 14  1  6
 16 15  1  0
 17 15  1  0
 18 17  2  0
 19 17  1  0
M  END
$$$$
