AVS.pdb
     RDKit          3D

 19 18  0  0  1  0  0  0  0  0999 V2000
    6.6282  -15.5243   21.0474 C   0  0  0  0  0  0  0  0  0  0  0  0
    7.0257  -14.0970   21.3380 C   0  0  2  0  0  0  0  0  0  0  0  0
    7.8569  -13.5397   20.2922 N   0  0  0  0  0  0  0  0  0  0  0  0
    7.7192  -14.0248   22.6545 C   0  0  0  0  0  0  0  0  0  0  0  0
    8.9688  -14.1652   22.6876 O   0  0  0  0  0  0  0  0  0  0  0  0
    7.3471  -12.9543   27.5026 C   0  0  0  0  0  0  0  0  0  0  0  0
    6.7312  -13.0424   26.1291 C   0  0  1  0  0  0  0  0  0  0  0  0
    6.4454  -11.6469   25.6235 C   0  0  0  0  0  0  0  0  0  0  0  0
    7.6419  -13.7910   25.1771 C   0  0  2  0  0  0  0  0  0  0  0  0
    7.0354  -13.8041   23.8808 N   0  0  0  0  0  0  0  0  0  0  0  0
    8.0370  -15.1032   25.6779 C   0  0  0  0  0  0  0  0  0  0  0  0
    7.1474  -15.9853   25.8028 O   0  0  0  0  0  0  0  0  0  0  0  0
   10.4232  -17.2289   24.4583 O   0  0  0  0  0  0  0  0  0  0  0  0
   10.8323  -17.3622   25.8015 C   0  0  0  0  0  0  0  0  0  0  0  0
    9.7110  -16.7413   26.6298 C   0  0  2  0  0  0  0  0  0  0  0  0
    9.3606  -15.4649   26.0387 N   0  0  0  0  0  0  0  0  0  0  0  0
   10.0939  -16.6261   28.0415 C   0  0  0  0  0  0  0  0  0  0  0  0
   10.3448  -17.6586   28.7064 O   0  0  0  0  0  0  0  0  0  0  0  0
   10.1899  -15.4004   28.6766 O   0  0  0  0  0  0  0  0  0  0  0  0
  2  3  1  0
  2  1  1  6
  4  2  1  0
  5  4  2  0
  7  6  1  1
  7  8  1  0
  7  9  1  0
  9 10  1  6
 10  4  1  0
 11  9  1  0
 11 16  1  0
 12 11  2  0
 13 14  1  0
 15 14  1  6
 16 15  1  0
 17 15  1  0
 18 17  2  0
 19 17  1  0
M  END
$$$$
