GRW.pdb
     RDKit          3D

 30 31  0  0  1  0  0  0  0  0999 V2000
    5.6328  -19.6073   20.7587 N   0  0  0  0  0  0  0  0  0  0  0  0
    5.5837  -18.3401   21.4433 C   0  0  0  0  0  0  0  0  0  0  0  0
    6.8396  -17.5719   21.1557 C   0  0  0  0  0  0  0  0  0  0  0  0
    7.8369  -18.1677   20.7393 O   0  0  0  0  0  0  0  0  0  0  0  0
    7.5478  -14.7689   15.6195 N   0  0  0  0  0  0  0  0  0  0  0  0
    8.4630  -13.6932   15.8991 C   0  0  0  0  0  0  0  0  0  0  0  0
    8.7738  -12.8469   14.9859 N   0  0  0  0  0  0  0  0  0  0  0  0
    8.9770  -13.6408   17.2123 N   0  0  0  0  0  0  0  0  0  0  0  0
    8.6815  -14.6627   18.1723 C   0  0  0  0  0  0  0  0  0  0  0  0
    7.4562  -14.3223   18.9647 C   0  0  0  0  0  0  0  0  0  0  0  0
    7.8474  -14.1470   20.4076 C   0  0  0  0  0  0  0  0  0  0  0  0
    8.0756  -15.3614   21.2079 C   0  0  2  0  0  0  0  0  0  0  0  0
    6.8876  -16.1858   21.3565 N   0  0  0  0  0  0  0  0  0  0  0  0
    8.6352  -15.0233   22.5625 C   0  0  0  0  0  0  0  0  0  0  0  0
    8.8016  -13.8297   22.9216 O   0  0  0  0  0  0  0  0  0  0  0  0
    9.4996  -12.1328   15.1909 N   0  0  0  0  0  0  0  0  0  0  0  0
    8.9672  -16.1085   23.4146 C   0  0  1  0  0  0  0  0  0  0  0  0
    9.6393  -15.8651   24.7156 C   0  0  0  0  0  0  0  0  0  0  0  0
    8.7057  -16.4208   25.7319 C   0  0  0  0  0  0  0  0  0  0  0  0
    7.5730  -15.5256   25.9873 C   0  0  0  0  0  0  0  0  0  0  0  0
    6.2255  -15.8879   26.0829 N   0  0  0  0  0  0  0  0  0  0  0  0
    5.4712  -14.7982   26.2901 C   0  0  0  0  0  0  0  0  0  0  0  0
    6.2894  -13.7252   26.3344 C   0  0  0  0  0  0  0  0  0  0  0  0
    6.0286  -12.3729   26.5400 C   0  0  0  0  0  0  0  0  0  0  0  0
    7.0771  -11.4989   26.5554 C   0  0  0  0  0  0  0  0  0  0  0  0
    8.3732  -11.9342   26.3720 C   0  0  0  0  0  0  0  0  0  0  0  0
    8.6339  -13.2627   26.1687 C   0  0  0  0  0  0  0  0  0  0  0  0
    7.5942  -14.1636   26.1483 C   0  0  0  0  0  0  0  0  0  0  0  0
   10.9971  -16.3769   24.7148 O   0  0  0  0  0  0  0  0  0  0  0  0
   11.5888  -17.0271   23.6536 O   0  0  0  0  0  0  0  0  0  0  0  0
  2  1  1  0
  3  2  1  0
  4  3  2  0
  6  8  1  0
  6  5  1  0
  7  6  2  0
  9  8  1  0
 10  9  1  0
 11 10  1  0
 12 11  1  1
 12 13  1  0
 13  3  1  0
 14 16  1  0
 14 12  1  0
 15 14  2  0
 17 18  1  1
 17 16  1  0
 18 19  1  0
 19 20  2  0
 19 27  1  0
 20 21  1  0
 21 22  1  0
 22 23  2  0
 23 24  1  0
 25 24  2  0
 26 25  1  0
 27 26  2  0
 27 22  1  0
 28 17  1  0
 28 29  1  0
 30 28  2  0
M  END
$$$$
