GRW.pdb
     RDKit          3D

 30 31  0  0  1  0  0  0  0  0999 V2000
    7.3225  -21.0947   21.8861 N   0  0  0  0  0  0  0  0  0  0  0  0
    6.8551  -19.7975   22.3050 C   0  0  0  0  0  0  0  0  0  0  0  0
    7.8836  -18.7630   21.9554 C   0  0  0  0  0  0  0  0  0  0  0  0
    9.0079  -19.1193   21.5921 O   0  0  0  0  0  0  0  0  0  0  0  0
    8.9256  -12.1602   18.2728 N   0  0  0  0  0  0  0  0  0  0  0  0
    8.2457  -13.0841   17.4025 C   0  0  0  0  0  0  0  0  0  0  0  0
    8.6994  -13.3276   16.2271 N   0  0  0  0  0  0  0  0  0  0  0  0
    7.0788  -13.6832   17.9229 N   0  0  0  0  0  0  0  0  0  0  0  0
    6.9353  -13.9484   19.3236 C   0  0  0  0  0  0  0  0  0  0  0  0
    8.1412  -14.6524   19.8671 C   0  0  0  0  0  0  0  0  0  0  0  0
    7.8498  -15.0908   21.2773 C   0  0  0  0  0  0  0  0  0  0  0  0
    8.5067  -16.3152   21.7637 C   0  0  2  0  0  0  0  0  0  0  0  0
    7.5769  -17.3981   22.0389 N   0  0  0  0  0  0  0  0  0  0  0  0
    9.3418  -16.0370   22.9833 C   0  0  0  0  0  0  0  0  0  0  0  0
   10.2908  -15.2125   22.9516 O   0  0  0  0  0  0  0  0  0  0  0  0
    8.2797  -14.1036   15.6791 N   0  0  0  0  0  0  0  0  0  0  0  0
    9.0126  -16.7453   24.1682 C   0  0  1  0  0  0  0  0  0  0  0  0
    9.8747  -16.6395   25.3721 C   0  0  0  0  0  0  0  0  0  0  0  0
    9.7114  -15.2336   25.8301 C   0  0  0  0  0  0  0  0  0  0  0  0
    8.3158  -14.9164   26.1485 C   0  0  0  0  0  0  0  0  0  0  0  0
    7.2465  -15.8159   26.2092 N   0  0  0  0  0  0  0  0  0  0  0  0
    6.1117  -15.1606   26.4963 C   0  0  0  0  0  0  0  0  0  0  0  0
    6.4072  -13.8498   26.6274 C   0  0  0  0  0  0  0  0  0  0  0  0
    5.6107  -12.7500   26.9356 C   0  0  0  0  0  0  0  0  0  0  0  0
    6.1976  -11.5207   27.0235 C   0  0  0  0  0  0  0  0  0  0  0  0
    7.5513  -11.3583   26.8133 C   0  0  0  0  0  0  0  0  0  0  0  0
    8.3379  -12.4368   26.5092 C   0  0  0  0  0  0  0  0  0  0  0  0
    7.7700  -13.6864   26.4143 C   0  0  0  0  0  0  0  0  0  0  0  0
    9.5764  -17.6866   26.3314 O   0  0  0  0  0  0  0  0  0  0  0  0
   10.2829  -17.9091   27.4934 O   0  0  0  0  0  0  0  0  0  0  0  0
  2  1  1  0
  3  2  1  0
  4  3  2  0
  6  8  1  0
  6  5  1  0
  7  6  2  0
  9  8  1  0
 10  9  1  0
 11 10  1  0
 12 11  1  1
 12 13  1  0
 13  3  1  0
 14 16  1  0
 14 12  1  0
 15 14  2  0
 17 18  1  1
 17 16  1  0
 18 19  1  0
 19 20  2  0
 19 27  1  0
 20 21  1  0
 21 22  1  0
 22 23  2  0
 23 24  1  0
 25 24  2  0
 26 25  1  0
 27 26  2  0
 27 22  1  0
 28 17  1  0
 28 29  1  0
 30 28  2  0
M  END
$$$$
