GRW.pdb
     RDKit          3D

 30 31  0  0  1  0  0  0  0  0999 V2000
   14.3166  -15.1593   18.9996 N   0  0  0  0  0  0  0  0  0  0  0  0
   13.2600  -16.0765   19.3446 C   0  0  0  0  0  0  0  0  0  0  0  0
   12.3385  -15.4230   20.3315 C   0  0  0  0  0  0  0  0  0  0  0  0
   12.7704  -14.5386   21.0759 O   0  0  0  0  0  0  0  0  0  0  0  0
    7.9828  -13.5436   16.0549 N   0  0  0  0  0  0  0  0  0  0  0  0
    8.9567  -13.5947   17.1142 C   0  0  0  0  0  0  0  0  0  0  0  0
    9.9965  -14.3394   17.0091 N   0  0  0  0  0  0  0  0  0  0  0  0
    8.6903  -12.7893   18.2419 N   0  0  0  0  0  0  0  0  0  0  0  0
    8.2435  -13.3586   19.4786 C   0  0  0  0  0  0  0  0  0  0  0  0
    8.3960  -14.8492   19.4742 C   0  0  0  0  0  0  0  0  0  0  0  0
    8.6466  -15.3132   20.8841 C   0  0  0  0  0  0  0  0  0  0  0  0
   10.0341  -15.2932   21.3755 C   0  0  2  0  0  0  0  0  0  0  0  0
   10.9940  -15.8097   20.4137 N   0  0  0  0  0  0  0  0  0  0  0  0
   10.1619  -16.0393   22.6752 C   0  0  0  0  0  0  0  0  0  0  0  0
   10.5923  -17.2203   22.7114 O   0  0  0  0  0  0  0  0  0  0  0  0
   10.7278  -14.2849   17.7446 N   0  0  0  0  0  0  0  0  0  0  0  0
    9.7750  -15.3532   23.8558 C   0  0  1  0  0  0  0  0  0  0  0  0
   10.0007  -15.9647   25.1895 C   0  0  0  0  0  0  0  0  0  0  0  0
    9.6145  -14.9053   26.1600 C   0  0  0  0  0  0  0  0  0  0  0  0
    8.1731  -14.6376   26.1386 C   0  0  0  0  0  0  0  0  0  0  0  0
    7.1511  -15.5736   25.9497 N   0  0  0  0  0  0  0  0  0  0  0  0
    5.9589  -14.9588   25.9579 C   0  0  0  0  0  0  0  0  0  0  0  0
    6.1700  -13.6390   26.1487 C   0  0  0  0  0  0  0  0  0  0  0  0
    5.2860  -12.5684   26.2550 C   0  0  0  0  0  0  0  0  0  0  0  0
    5.7931  -11.3198   26.4729 C   0  0  0  0  0  0  0  0  0  0  0  0
    7.1518  -11.1102   26.5872 C   0  0  0  0  0  0  0  0  0  0  0  0
    8.0244  -12.1599   26.4825 C   0  0  0  0  0  0  0  0  0  0  0  0
    7.5382  -13.4280   26.2622 C   0  0  0  0  0  0  0  0  0  0  0  0
    9.3286  -17.2454   25.3061 O   0  0  0  0  0  0  0  0  0  0  0  0
    9.6285  -18.2048   26.2488 O   0  0  0  0  0  0  0  0  0  0  0  0
  2  1  1  0
  3  2  1  0
  4  3  2  0
  6  8  1  0
  6  5  1  0
  7  6  2  0
  9  8  1  0
 10  9  1  0
 11 10  1  0
 12 11  1  6
 12 13  1  0
 13  3  1  0
 14 16  1  0
 14 12  1  0
 15 14  2  0
 17 18  1  1
 17 16  1  0
 18 19  1  0
 19 20  2  0
 19 27  1  0
 20 21  1  0
 21 22  1  0
 22 23  2  0
 23 24  1  0
 25 24  2  0
 26 25  1  0
 27 26  2  0
 27 22  1  0
 28 17  1  0
 28 29  1  0
 30 28  2  0
M  END
$$$$
