GRW.pdb
     RDKit          3D

 30 31  0  0  1  0  0  0  0  0999 V2000
    6.0685  -19.7237   21.1784 N   0  0  0  0  0  0  0  0  0  0  0  0
    6.0388  -18.3595   21.6420 C   0  0  0  0  0  0  0  0  0  0  0  0
    7.3776  -17.7257   21.4047 C   0  0  0  0  0  0  0  0  0  0  0  0
    8.3293  -18.4262   21.0490 O   0  0  0  0  0  0  0  0  0  0  0  0
    8.5362  -15.3157   17.3279 N   0  0  0  0  0  0  0  0  0  0  0  0
    8.3371  -13.9847   16.8160 C   0  0  0  0  0  0  0  0  0  0  0  0
    8.8445  -13.6360   15.6901 N   0  0  0  0  0  0  0  0  0  0  0  0
    7.5661  -13.1190   17.6207 N   0  0  0  0  0  0  0  0  0  0  0  0
    7.8040  -12.9963   19.0283 C   0  0  0  0  0  0  0  0  0  0  0  0
    7.6750  -14.3213   19.7160 C   0  0  0  0  0  0  0  0  0  0  0  0
    8.8514  -14.5037   20.6372 C   0  0  0  0  0  0  0  0  0  0  0  0
    8.8335  -15.6579   21.5509 C   0  0  2  0  0  0  0  0  0  0  0  0
    7.5540  -16.3472   21.5843 N   0  0  0  0  0  0  0  0  0  0  0  0
    9.2332  -15.2555   22.9439 C   0  0  0  0  0  0  0  0  0  0  0  0
    9.4448  -14.0522   23.2413 O   0  0  0  0  0  0  0  0  0  0  0  0
    8.6531  -12.6813   15.3288 N   0  0  0  0  0  0  0  0  0  0  0  0
    9.3615  -16.2918   23.9051 C   0  0  1  0  0  0  0  0  0  0  0  0
    9.9666  -16.0162   25.2323 C   0  0  0  0  0  0  0  0  0  0  0  0
    8.8869  -16.3211   26.2093 C   0  0  0  0  0  0  0  0  0  0  0  0
    7.7583  -15.3928   26.0906 C   0  0  0  0  0  0  0  0  0  0  0  0
    6.4934  -15.6766   25.5654 N   0  0  0  0  0  0  0  0  0  0  0  0
    5.7296  -14.5740   25.5877 C   0  0  0  0  0  0  0  0  0  0  0  0
    6.4605  -13.5693   26.1161 C   0  0  0  0  0  0  0  0  0  0  0  0
    6.1467  -12.2383   26.3787 C   0  0  0  0  0  0  0  0  0  0  0  0
    7.0973  -11.4419   26.9495 C   0  0  0  0  0  0  0  0  0  0  0  0
    8.3469  -11.9341   27.2644 C   0  0  0  0  0  0  0  0  0  0  0  0
    8.6598  -13.2419   27.0071 C   0  0  0  0  0  0  0  0  0  0  0  0
    7.7192  -14.0648   26.4317 C   0  0  0  0  0  0  0  0  0  0  0  0
   11.2255  -16.7187   25.3971 O   0  0  0  0  0  0  0  0  0  0  0  0
   12.0795  -16.5559   26.4663 O   0  0  0  0  0  0  0  0  0  0  0  0
  2  1  1  0
  3  2  1  0
  4  3  2  0
  6  8  1  0
  6  5  1  0
  7  6  2  0
  9  8  1  0
 10  9  1  0
 11 10  1  0
 12 11  1  6
 12 13  1  0
 13  3  1  0
 14 16  1  0
 14 12  1  0
 15 14  2  0
 17 18  1  1
 17 16  1  0
 18 19  1  0
 19 20  2  0
 19 27  1  0
 20 21  1  0
 21 22  1  0
 22 23  2  0
 23 24  1  0
 25 24  2  0
 26 25  1  0
 27 26  2  0
 27 22  1  0
 28 17  1  0
 28 29  1  0
 30 28  2  0
M  END
$$$$
