GRW.pdb
     RDKit          3D

 30 31  0  0  1  0  0  0  0  0999 V2000
    8.5888  -20.2466   18.8282 N   0  0  0  0  0  0  0  0  0  0  0  0
    8.1565  -19.2546   19.7800 C   0  0  0  0  0  0  0  0  0  0  0  0
    9.2375  -18.2291   19.9532 C   0  0  0  0  0  0  0  0  0  0  0  0
   10.3897  -18.5940   20.2027 O   0  0  0  0  0  0  0  0  0  0  0  0
    8.9125  -12.7994   15.6679 N   0  0  0  0  0  0  0  0  0  0  0  0
    8.2047  -14.0193   15.3781 C   0  0  0  0  0  0  0  0  0  0  0  0
    8.3645  -14.6147   14.2526 N   0  0  0  0  0  0  0  0  0  0  0  0
    7.3484  -14.4965   16.3932 N   0  0  0  0  0  0  0  0  0  0  0  0
    7.8504  -15.2577   17.4984 C   0  0  0  0  0  0  0  0  0  0  0  0
    8.2809  -14.3627   18.6204 C   0  0  0  0  0  0  0  0  0  0  0  0
    9.7020  -14.6972   18.9869 C   0  0  0  0  0  0  0  0  0  0  0  0
    9.9224  -15.7904   19.9479 C   0  0  2  0  0  0  0  0  0  0  0  0
    8.9480  -16.8632   19.8345 N   0  0  0  0  0  0  0  0  0  0  0  0
    9.9525  -15.2752   21.3607 C   0  0  0  0  0  0  0  0  0  0  0  0
   10.7707  -14.3889   21.7160 O   0  0  0  0  0  0  0  0  0  0  0  0
    7.7855  -15.4507   14.0417 N   0  0  0  0  0  0  0  0  0  0  0  0
    9.0193  -15.8333   22.2728 C   0  0  1  0  0  0  0  0  0  0  0  0
    9.0226  -15.4211   23.6989 C   0  0  0  0  0  0  0  0  0  0  0  0
    7.5901  -15.1915   24.0281 C   0  0  0  0  0  0  0  0  0  0  0  0
    7.4059  -14.7650   25.4188 C   0  0  0  0  0  0  0  0  0  0  0  0
    7.3743  -15.5882   26.5490 N   0  0  0  0  0  0  0  0  0  0  0  0
    7.1536  -14.8506   27.6476 C   0  0  0  0  0  0  0  0  0  0  0  0
    7.0397  -13.5597   27.2689 C   0  0  0  0  0  0  0  0  0  0  0  0
    6.8272  -12.3968   28.0048 C   0  0  0  0  0  0  0  0  0  0  0  0
    6.7770  -11.2036   27.3436 C   0  0  0  0  0  0  0  0  0  0  0  0
    6.9322  -11.1382   25.9744 C   0  0  0  0  0  0  0  0  0  0  0  0
    7.1404  -12.2792   25.2470 C   0  0  0  0  0  0  0  0  0  0  0  0
    7.1944  -13.4943   25.8901 C   0  0  0  0  0  0  0  0  0  0  0  0
    9.7469  -16.3703   24.5234 O   0  0  0  0  0  0  0  0  0  0  0  0
   10.1915  -17.6019   24.0940 O   0  0  0  0  0  0  0  0  0  0  0  0
  2  1  1  0
  3  2  1  0
  4  3  2  0
  6  8  1  0
  6  5  1  0
  7  6  2  0
  9  8  1  0
 10  9  1  0
 11 10  1  0
 12 11  1  6
 12 13  1  0
 13  3  1  0
 14 16  1  0
 14 12  1  0
 15 14  2  0
 17 18  1  6
 17 16  1  0
 18 19  1  0
 19 20  2  0
 19 27  1  0
 20 21  1  0
 21 22  1  0
 22 23  2  0
 23 24  1  0
 25 24  2  0
 26 25  1  0
 27 26  2  0
 27 22  1  0
 28 17  1  0
 28 29  1  0
 30 28  2  0
M  END
$$$$
