GRW.pdb
     RDKit          3D

 30 31  0  0  1  0  0  0  0  0999 V2000
    6.6344  -13.1556   19.2072 N   0  0  0  0  0  0  0  0  0  0  0  0
    8.0361  -13.4895   19.2281 C   0  0  0  0  0  0  0  0  0  0  0  0
    8.2482  -14.6851   20.1089 C   0  0  0  0  0  0  0  0  0  0  0  0
    7.3919  -14.9859   20.9451 O   0  0  0  0  0  0  0  0  0  0  0  0
    9.9672  -16.0401   16.5644 N   0  0  0  0  0  0  0  0  0  0  0  0
    9.8768  -17.3346   15.9405 C   0  0  0  0  0  0  0  0  0  0  0  0
    9.2576  -17.4799   14.8260 N   0  0  0  0  0  0  0  0  0  0  0  0
   10.5008  -18.3989   16.6256 N   0  0  0  0  0  0  0  0  0  0  0  0
   11.1503  -18.1979   17.8868 C   0  0  0  0  0  0  0  0  0  0  0  0
   10.1842  -18.3468   19.0224 C   0  0  0  0  0  0  0  0  0  0  0  0
   10.6827  -17.5379   20.1899 C   0  0  0  0  0  0  0  0  0  0  0  0
    9.7418  -16.6012   20.8259 C   0  0  2  0  0  0  0  0  0  0  0  0
    9.4095  -15.4601   19.9889 N   0  0  0  0  0  0  0  0  0  0  0  0
   10.2621  -16.1255   22.1546 C   0  0  0  0  0  0  0  0  0  0  0  0
   11.1565  -15.2447   22.2289 O   0  0  0  0  0  0  0  0  0  0  0  0
    9.4055  -18.3515   14.2809 N   0  0  0  0  0  0  0  0  0  0  0  0
    9.7009  -16.7143   23.3176 C   0  0  1  0  0  0  0  0  0  0  0  0
   10.0105  -16.1668   24.6622 C   0  0  0  0  0  0  0  0  0  0  0  0
    9.6564  -14.7246   24.5725 C   0  0  0  0  0  0  0  0  0  0  0  0
    8.2723  -14.4705   24.9841 C   0  0  0  0  0  0  0  0  0  0  0  0
    7.1950  -15.3574   24.8886 N   0  0  0  0  0  0  0  0  0  0  0  0
    6.0746  -14.7674   25.3315 C   0  0  0  0  0  0  0  0  0  0  0  0
    6.3874  -13.5122   25.7179 C   0  0  0  0  0  0  0  0  0  0  0  0
    5.6105  -12.4931   26.2629 C   0  0  0  0  0  0  0  0  0  0  0  0
    6.2127  -11.3106   26.5830 C   0  0  0  0  0  0  0  0  0  0  0  0
    7.5627  -11.1169   26.3756 C   0  0  0  0  0  0  0  0  0  0  0  0
    8.3300  -12.1159   25.8392 C   0  0  0  0  0  0  0  0  0  0  0  0
    7.7464  -13.3169   25.5075 C   0  0  0  0  0  0  0  0  0  0  0  0
    9.3712  -16.9409   25.7099 O   0  0  0  0  0  0  0  0  0  0  0  0
    8.4234  -17.9178   25.4951 O   0  0  0  0  0  0  0  0  0  0  0  0
  2  1  1  0
  3  2  1  0
  4  3  2  0
  6  8  1  0
  6  5  1  0
  7  6  2  0
  9  8  1  0
 10  9  1  0
 11 10  1  0
 12 11  1  6
 12 13  1  0
 13  3  1  0
 14 16  1  0
 14 12  1  0
 15 14  2  0
 17 18  1  6
 17 16  1  0
 18 19  1  0
 19 20  2  0
 19 27  1  0
 20 21  1  0
 21 22  1  0
 22 23  2  0
 23 24  1  0
 25 24  2  0
 26 25  1  0
 27 26  2  0
 27 22  1  0
 28 17  1  0
 28 29  1  0
 30 28  2  0
M  END
$$$$
