GRW.pdb
     RDKit          3D

 30 31  0  0  1  0  0  0  0  0999 V2000
    7.0946  -12.6445   18.2814 N   0  0  0  0  0  0  0  0  0  0  0  0
    8.3969  -13.2112   18.5257 C   0  0  0  0  0  0  0  0  0  0  0  0
    8.2680  -14.3534   19.4896 C   0  0  0  0  0  0  0  0  0  0  0  0
    7.3222  -14.3787   20.2820 O   0  0  0  0  0  0  0  0  0  0  0  0
    9.9552  -20.3941   16.6744 N   0  0  0  0  0  0  0  0  0  0  0  0
    8.9352  -19.6050   16.0341 C   0  0  0  0  0  0  0  0  0  0  0  0
    8.6146  -19.8218   14.8106 N   0  0  0  0  0  0  0  0  0  0  0  0
    8.3331  -18.6060   16.8284 N   0  0  0  0  0  0  0  0  0  0  0  0
    9.0969  -17.8291   17.7590 C   0  0  0  0  0  0  0  0  0  0  0  0
    9.2393  -18.5416   19.0695 C   0  0  0  0  0  0  0  0  0  0  0  0
    9.9816  -17.6482   20.0268 C   0  0  0  0  0  0  0  0  0  0  0  0
    9.2971  -16.4347   20.5023 C   0  0  2  0  0  0  0  0  0  0  0  0
    9.2123  -15.3887   19.4964 N   0  0  0  0  0  0  0  0  0  0  0  0
    9.9476  -15.8950   21.7464 C   0  0  0  0  0  0  0  0  0  0  0  0
   10.6922  -14.8824   21.7081 O   0  0  0  0  0  0  0  0  0  0  0  0
    7.8703  -19.2410   14.3776 N   0  0  0  0  0  0  0  0  0  0  0  0
    9.6854  -16.5785   22.9623 C   0  0  1  0  0  0  0  0  0  0  0  0
   10.0933  -15.9867   24.2611 C   0  0  0  0  0  0  0  0  0  0  0  0
    9.4481  -14.6464   24.2836 C   0  0  0  0  0  0  0  0  0  0  0  0
    8.6444  -14.4420   25.4928 C   0  0  0  0  0  0  0  0  0  0  0  0
    8.5137  -15.3252   26.5694 N   0  0  0  0  0  0  0  0  0  0  0  0
    7.6699  -14.8167   27.4799 C   0  0  0  0  0  0  0  0  0  0  0  0
    7.2413  -13.6182   27.0298 C   0  0  0  0  0  0  0  0  0  0  0  0
    6.3799  -12.6767   27.5871 C   0  0  0  0  0  0  0  0  0  0  0  0
    6.1413  -11.5208   26.9013 C   0  0  0  0  0  0  0  0  0  0  0  0
    6.7354  -11.2786   25.6801 C   0  0  0  0  0  0  0  0  0  0  0  0
    7.5824  -12.2019   25.1282 C   0  0  0  0  0  0  0  0  0  0  0  0
    7.8386  -13.3753   25.7995 C   0  0  0  0  0  0  0  0  0  0  0  0
    9.8005  -16.8803   25.3662 O   0  0  0  0  0  0  0  0  0  0  0  0
    8.7657  -17.7900   25.3852 O   0  0  0  0  0  0  0  0  0  0  0  0
  2  1  1  0
  3  2  1  0
  4  3  2  0
  6  8  1  0
  6  5  1  0
  7  6  2  0
  9  8  1  0
 10  9  1  0
 11 10  1  0
 12 11  1  6
 12 13  1  0
 13  3  1  0
 14 16  1  0
 14 12  1  0
 15 14  2  0
 17 18  1  6
 17 16  1  0
 18 19  1  0
 19 20  2  0
 19 27  1  0
 20 21  1  0
 21 22  1  0
 22 23  2  0
 23 24  1  0
 25 24  2  0
 26 25  1  0
 27 26  2  0
 27 22  1  0
 28 17  1  0
 28 29  1  0
 30 28  2  0
M  END
$$$$
