GRW.pdb
     RDKit          3D

 30 31  0  0  1  0  0  0  0  0999 V2000
   11.0869  -19.1677   19.9607 N   0  0  0  0  0  0  0  0  0  0  0  0
   10.4476  -18.9710   21.2372 C   0  0  0  0  0  0  0  0  0  0  0  0
   10.2093  -17.5056   21.4521 C   0  0  0  0  0  0  0  0  0  0  0  0
   11.1160  -16.7004   21.2226 O   0  0  0  0  0  0  0  0  0  0  0  0
    8.8703  -15.0024   16.9906 N   0  0  0  0  0  0  0  0  0  0  0  0
    8.2173  -13.7446   17.2445 C   0  0  0  0  0  0  0  0  0  0  0  0
    8.1170  -12.8627   16.3178 N   0  0  0  0  0  0  0  0  0  0  0  0
    7.7113  -13.5599   18.5489 N   0  0  0  0  0  0  0  0  0  0  0  0
    7.7152  -14.6227   19.5099 C   0  0  0  0  0  0  0  0  0  0  0  0
    7.1093  -14.1808   20.8072 C   0  0  0  0  0  0  0  0  0  0  0  0
    7.2757  -15.2835   21.8183 C   0  0  0  0  0  0  0  0  0  0  0  0
    8.6462  -15.6591   22.2029 C   0  0  2  0  0  0  0  0  0  0  0  0
    8.9674  -17.0465   21.9109 N   0  0  0  0  0  0  0  0  0  0  0  0
    8.9016  -15.3712   23.6569 C   0  0  0  0  0  0  0  0  0  0  0  0
    8.3620  -14.3929   24.2341 O   0  0  0  0  0  0  0  0  0  0  0  0
    7.7662  -11.9163   16.5629 N   0  0  0  0  0  0  0  0  0  0  0  0
    9.7773  -16.2498   24.3464 C   0  0  1  0  0  0  0  0  0  0  0  0
   10.1006  -16.0201   25.7769 C   0  0  0  0  0  0  0  0  0  0  0  0
    8.8501  -16.3637   26.5058 C   0  0  0  0  0  0  0  0  0  0  0  0
    7.7524  -15.4487   26.1783 C   0  0  0  0  0  0  0  0  0  0  0  0
    6.5484  -15.7785   25.5474 N   0  0  0  0  0  0  0  0  0  0  0  0
    5.8002  -14.6773   25.3828 C   0  0  0  0  0  0  0  0  0  0  0  0
    6.4817  -13.6285   25.8911 C   0  0  0  0  0  0  0  0  0  0  0  0
    6.1577  -12.2781   25.9918 C   0  0  0  0  0  0  0  0  0  0  0  0
    7.0504  -11.4331   26.5855 C   0  0  0  0  0  0  0  0  0  0  0  0
    8.2525  -11.8956   27.0795 C   0  0  0  0  0  0  0  0  0  0  0  0
    8.5755  -13.2224   26.9817 C   0  0  0  0  0  0  0  0  0  0  0  0
    7.6927  -14.0943   26.3870 C   0  0  0  0  0  0  0  0  0  0  0  0
   11.3082  -16.7237   26.1670 O   0  0  0  0  0  0  0  0  0  0  0  0
   11.8561  -16.6985   27.4312 O   0  0  0  0  0  0  0  0  0  0  0  0
  2  1  1  0
  3  2  1  0
  4  3  2  0
  6  8  1  0
  6  5  1  0
  7  6  2  0
  9  8  1  0
 10  9  1  0
 11 10  1  0
 12 11  1  1
 12 13  1  0
 13  3  1  0
 14 16  1  0
 14 12  1  0
 15 14  2  0
 17 18  1  1
 17 16  1  0
 18 19  1  0
 19 20  2  0
 19 27  1  0
 20 21  1  0
 21 22  1  0
 22 23  2  0
 23 24  1  0
 25 24  2  0
 26 25  1  0
 27 26  2  0
 27 22  1  0
 28 17  1  0
 28 29  1  0
 30 28  2  0
M  END
$$$$
