YES.pdb
     RDKit          3D

 28 28  0  0  1  0  0  0  0  0999 V2000
   27.5518  -16.9066  -15.6114 O   0  0  0  0  0  0  0  0  0  0  0  0
   26.8300  -15.7377  -15.8546 C   0  0  0  0  0  0  0  0  0  0  0  0
   26.9004  -15.1420  -17.0978 C   0  0  0  0  0  0  0  0  0  0  0  0
   26.1851  -13.9855  -17.3353 C   0  0  0  0  0  0  0  0  0  0  0  0
   25.4174  -13.4516  -16.3274 C   0  0  0  0  0  0  0  0  0  0  0  0
   24.6484  -12.2175  -16.5652 C   0  0  0  0  0  0  0  0  0  0  0  0
   23.1781  -12.4792  -16.7677 C   0  0  2  0  0  0  0  0  0  0  0  0
   22.9415  -13.3810  -17.8809 N   0  0  0  0  0  0  0  0  0  0  0  0
   22.5177  -11.1599  -17.0028 C   0  0  0  0  0  0  0  0  0  0  0  0
   22.4464  -10.6650  -18.1555 O   0  0  0  0  0  0  0  0  0  0  0  0
   25.3623  -14.0609  -15.0986 C   0  0  0  0  0  0  0  0  0  0  0  0
   26.0660  -15.2103  -14.8443 C   0  0  0  0  0  0  0  0  0  0  0  0
   21.9674  -10.4640  -15.9093 N   0  0  0  0  0  0  0  0  0  0  0  0
   21.2210   -9.2319  -16.0376 C   0  0  1  0  0  0  0  0  0  0  0  0
   19.7805   -9.4328  -15.6692 C   0  0  0  0  0  0  0  0  0  0  0  0
   18.9949   -8.1665  -15.7941 C   0  0  0  0  0  0  0  0  0  0  0  0
   17.5879   -8.4261  -15.4388 C   0  0  0  0  0  0  0  0  0  0  0  0
   17.2436   -9.5592  -15.0644 O   0  0  0  0  0  0  0  0  0  0  0  0
   21.8073   -8.1761  -15.1313 C   0  0  0  0  0  0  0  0  0  0  0  0
   22.2544   -8.5007  -14.0047 O   0  0  0  0  0  0  0  0  0  0  0  0
   16.6219   -7.4326  -15.5099 O   0  0  0  0  0  0  0  0  0  0  0  0
   21.8476   -4.0268  -16.2890 O   0  0  0  0  0  0  0  0  0  0  0  0
   22.8601   -4.5898  -15.5455 C   0  0  0  0  0  0  0  0  0  0  0  0
   22.4026   -5.7962  -14.7975 C   0  0  2  0  0  0  0  0  0  0  0  0
   21.8313   -6.8343  -15.5945 N   0  0  0  0  0  0  0  0  0  0  0  0
   21.5452   -5.4039  -13.6466 C   0  0  0  0  0  0  0  0  0  0  0  0
   20.3759   -5.7507  -13.4662 O   0  0  0  0  0  0  0  0  0  0  0  0
   22.1135   -4.5641  -12.6770 O   0  0  0  0  0  0  0  0  0  0  0  0
  2  1  1  0
  2 12  2  0
  3  2  1  0
  4  3  2  0
  4  5  1  0
  5 11  2  0
  6  5  1  0
  7  8  1  6
  7  6  1  0
  9  7  1  0
 10  9  2  0
 11 12  1  0
 13  9  1  0
 14 13  1  0
 14 15  1  1
 15 16  1  0
 16 17  1  0
 17 21  1  0
 17 18  2  0
 19 14  1  0
 20 19  2  0
 22 23  1  0
 24 23  1  6
 24 26  1  0
 24 25  1  0
 25 19  1  0
 26 28  1  0
 27 26  2  0
M  END
$$$$
