YES.pdb
     RDKit          3D

 28 28  0  0  1  0  0  0  0  0999 V2000
   20.8310  -13.7132  -22.7522 O   0  0  0  0  0  0  0  0  0  0  0  0
   20.5683  -12.9511  -21.6135 C   0  0  0  0  0  0  0  0  0  0  0  0
   20.9142  -11.6150  -21.5955 C   0  0  0  0  0  0  0  0  0  0  0  0
   20.6530  -10.8637  -20.4674 C   0  0  0  0  0  0  0  0  0  0  0  0
   20.0532  -11.4630  -19.3852 C   0  0  0  0  0  0  0  0  0  0  0  0
   19.7680  -10.6746  -18.1736 C   0  0  0  0  0  0  0  0  0  0  0  0
   21.0081  -10.3703  -17.3732 C   0  0  2  0  0  0  0  0  0  0  0  0
   21.6126  -11.5781  -16.8398 N   0  0  0  0  0  0  0  0  0  0  0  0
   20.6121   -9.4428  -16.2710 C   0  0  0  0  0  0  0  0  0  0  0  0
   19.8695   -9.8271  -15.3332 O   0  0  0  0  0  0  0  0  0  0  0  0
   19.7177  -12.7934  -19.4252 C   0  0  0  0  0  0  0  0  0  0  0  0
   19.9695  -13.5557  -20.5372 C   0  0  0  0  0  0  0  0  0  0  0  0
   21.0829   -8.1157  -16.2893 N   0  0  0  0  0  0  0  0  0  0  0  0
   20.8378   -7.1642  -15.2281 C   0  0  1  0  0  0  0  0  0  0  0  0
   22.1253   -6.6867  -14.6235 C   0  0  0  0  0  0  0  0  0  0  0  0
   21.8876   -5.7630  -13.4718 C   0  0  0  0  0  0  0  0  0  0  0  0
   22.3163   -4.4013  -13.8398 C   0  0  0  0  0  0  0  0  0  0  0  0
   21.7072   -3.4178  -13.3877 O   0  0  0  0  0  0  0  0  0  0  0  0
   20.0872   -5.9705  -15.7678 C   0  0  0  0  0  0  0  0  0  0  0  0
   20.5632   -5.3173  -16.7278 O   0  0  0  0  0  0  0  0  0  0  0  0
   23.3928   -4.1790  -14.6865 O   0  0  0  0  0  0  0  0  0  0  0  0
   15.9888   -5.5721  -15.0636 O   0  0  0  0  0  0  0  0  0  0  0  0
   16.6659   -4.9340  -16.0782 C   0  0  0  0  0  0  0  0  0  0  0  0
   18.0536   -4.5612  -15.6789 C   0  0  2  0  0  0  0  0  0  0  0  0
   18.8515   -5.6258  -15.1599 N   0  0  0  0  0  0  0  0  0  0  0  0
   18.0402   -3.3596  -14.8016 C   0  0  0  0  0  0  0  0  0  0  0  0
   18.3435   -3.3345  -13.6068 O   0  0  0  0  0  0  0  0  0  0  0  0
   17.6480   -2.1435  -15.3811 O   0  0  0  0  0  0  0  0  0  0  0  0
  2  1  1  0
  2 12  2  0
  3  2  1  0
  4  3  2  0
  4  5  1  0
  5 11  2  0
  6  5  1  0
  7  8  1  1
  7  6  1  0
  9  7  1  0
 10  9  2  0
 11 12  1  0
 13  9  1  0
 14 13  1  0
 14 15  1  6
 15 16  1  0
 16 17  1  0
 17 21  1  0
 17 18  2  0
 19 14  1  0
 20 19  2  0
 22 23  1  0
 24 23  1  1
 24 26  1  0
 24 25  1  0
 25 19  1  0
 26 28  1  0
 27 26  2  0
M  END
$$$$
