YES.pdb
     RDKit          3D

 28 28  0  0  1  0  0  0  0  0999 V2000
   31.6382  -17.2226  -18.3292 O   0  0  0  0  0  0  0  0  0  0  0  0
   30.2687  -17.1769  -18.0669 C   0  0  0  0  0  0  0  0  0  0  0  0
   29.6595  -18.2495  -17.4474 C   0  0  0  0  0  0  0  0  0  0  0  0
   28.3044  -18.2014  -17.1893 C   0  0  0  0  0  0  0  0  0  0  0  0
   27.5901  -17.0850  -17.5552 C   0  0  0  0  0  0  0  0  0  0  0  0
   26.1429  -17.0185  -17.2867 C   0  0  0  0  0  0  0  0  0  0  0  0
   25.3194  -17.6446  -18.3826 C   0  0  2  0  0  0  0  0  0  0  0  0
   25.5073  -16.9637  -19.6513 N   0  0  0  0  0  0  0  0  0  0  0  0
   23.8891  -17.5869  -17.9552 C   0  0  0  0  0  0  0  0  0  0  0  0
   23.2053  -16.5445  -18.1120 O   0  0  0  0  0  0  0  0  0  0  0  0
   28.2167  -16.0299  -18.1702 C   0  0  0  0  0  0  0  0  0  0  0  0
   29.5621  -16.0598  -18.4347 C   0  0  0  0  0  0  0  0  0  0  0  0
   23.3027  -18.7241  -17.3670 N   0  0  0  0  0  0  0  0  0  0  0  0
   21.8940  -18.8294  -17.0572 C   0  0  1  0  0  0  0  0  0  0  0  0
   21.2068  -19.7849  -17.9878 C   0  0  0  0  0  0  0  0  0  0  0  0
   19.7325  -19.8336  -17.7422 C   0  0  0  0  0  0  0  0  0  0  0  0
   19.1122  -20.7920  -18.6750 C   0  0  0  0  0  0  0  0  0  0  0  0
   18.4130  -21.7192  -18.2347 O   0  0  0  0  0  0  0  0  0  0  0  0
   21.7119  -19.3210  -15.6413 C   0  0  0  0  0  0  0  0  0  0  0  0
   22.5270  -20.1434  -15.1577 O   0  0  0  0  0  0  0  0  0  0  0  0
   19.2864  -20.6911  -20.0479 O   0  0  0  0  0  0  0  0  0  0  0  0
   19.9492  -18.5404  -11.3004 O   0  0  0  0  0  0  0  0  0  0  0  0
   20.0512  -18.1056  -12.6025 C   0  0  0  0  0  0  0  0  0  0  0  0
   20.4135  -19.2108  -13.5361 C   0  0  2  0  0  0  0  0  0  0  0  0
   20.6080  -18.8270  -14.8978 N   0  0  0  0  0  0  0  0  0  0  0  0
   19.4764  -20.3558  -13.3797 C   0  0  0  0  0  0  0  0  0  0  0  0
   18.3362  -20.4241  -13.8437 O   0  0  0  0  0  0  0  0  0  0  0  0
   19.9257  -21.4590  -12.6384 O   0  0  0  0  0  0  0  0  0  0  0  0
  2  1  1  0
  2 12  2  0
  3  2  1  0
  4  3  2  0
  4  5  1  0
  5 11  2  0
  6  5  1  0
  7  8  1  6
  7  6  1  0
  9  7  1  0
 10  9  2  0
 11 12  1  0
 13  9  1  0
 14 13  1  0
 14 15  1  6
 15 16  1  0
 16 17  1  0
 17 21  1  0
 17 18  2  0
 19 14  1  0
 20 19  2  0
 22 23  1  0
 24 23  1  1
 24 26  1  0
 24 25  1  0
 25 19  1  0
 26 28  1  0
 27 26  2  0
M  END
$$$$
