YES.pdb
     RDKit          3D

 28 28  0  0  1  0  0  0  0  0999 V2000
   30.3659  -13.1790  -17.3264 O   0  0  0  0  0  0  0  0  0  0  0  0
   29.2477  -12.3551  -17.1957 C   0  0  0  0  0  0  0  0  0  0  0  0
   28.6668  -12.1899  -15.9545 C   0  0  0  0  0  0  0  0  0  0  0  0
   27.5605  -11.3741  -15.8284 C   0  0  0  0  0  0  0  0  0  0  0  0
   27.0607  -10.7431  -16.9429 C   0  0  0  0  0  0  0  0  0  0  0  0
   25.8803   -9.8693  -16.8248 C   0  0  0  0  0  0  0  0  0  0  0  0
   24.5939  -10.6443  -16.7006 C   0  0  2  0  0  0  0  0  0  0  0  0
   24.5488  -11.7620  -17.6265 N   0  0  0  0  0  0  0  0  0  0  0  0
   23.4720   -9.6928  -16.9611 C   0  0  0  0  0  0  0  0  0  0  0  0
   22.8784   -9.6753  -18.0684 O   0  0  0  0  0  0  0  0  0  0  0  0
   27.6544  -10.9218  -18.1676 C   0  0  0  0  0  0  0  0  0  0  0  0
   28.7542  -11.7284  -18.3121 C   0  0  0  0  0  0  0  0  0  0  0  0
   23.0776   -8.8025  -15.9438 N   0  0  0  0  0  0  0  0  0  0  0  0
   21.9349   -7.9223  -16.0483 C   0  0  1  0  0  0  0  0  0  0  0  0
   20.7100   -8.5559  -15.4574 C   0  0  0  0  0  0  0  0  0  0  0  0
   19.5042   -7.6859  -15.6172 C   0  0  0  0  0  0  0  0  0  0  0  0
   18.3456   -8.3321  -14.9744 C   0  0  0  0  0  0  0  0  0  0  0  0
   17.2435   -7.7594  -14.9669 O   0  0  0  0  0  0  0  0  0  0  0  0
   22.2095   -6.6304  -15.3168 C   0  0  0  0  0  0  0  0  0  0  0  0
   22.8604   -6.6480  -14.2441 O   0  0  0  0  0  0  0  0  0  0  0  0
   18.4470   -9.5764  -14.3687 O   0  0  0  0  0  0  0  0  0  0  0  0
   21.9383   -1.7940  -15.4446 O   0  0  0  0  0  0  0  0  0  0  0  0
   21.4739   -2.9692  -15.9906 C   0  0  0  0  0  0  0  0  0  0  0  0
   21.9783   -4.1661  -15.2576 C   0  0  2  0  0  0  0  0  0  0  0  0
   21.7134   -5.4245  -15.8783 N   0  0  0  0  0  0  0  0  0  0  0  0
   21.5612   -4.1192  -13.8301 C   0  0  0  0  0  0  0  0  0  0  0  0
   20.4683   -4.4763  -13.3853 O   0  0  0  0  0  0  0  0  0  0  0  0
   22.4915   -3.6250  -12.9034 O   0  0  0  0  0  0  0  0  0  0  0  0
  2  1  1  0
  2 12  2  0
  3  2  1  0
  4  3  2  0
  4  5  1  0
  5 11  2  0
  6  5  1  0
  7  8  1  6
  7  6  1  0
  9  7  1  0
 10  9  2  0
 11 12  1  0
 13  9  1  0
 14 13  1  0
 14 15  1  1
 15 16  1  0
 16 17  1  0
 17 21  1  0
 17 18  2  0
 19 14  1  0
 20 19  2  0
 22 23  1  0
 24 23  1  6
 24 26  1  0
 24 25  1  0
 25 19  1  0
 26 28  1  0
 27 26  2  0
M  END
$$$$
