YES.pdb
     RDKit          3D

 28 28  0  0  1  0  0  0  0  0999 V2000
   13.0435  -12.2082  -21.0068 O   0  0  0  0  0  0  0  0  0  0  0  0
   13.6760  -11.4968  -19.9869 C   0  0  0  0  0  0  0  0  0  0  0  0
   14.6026  -10.5259  -20.3094 C   0  0  0  0  0  0  0  0  0  0  0  0
   15.2268   -9.8239  -19.2980 C   0  0  0  0  0  0  0  0  0  0  0  0
   14.9117  -10.1073  -17.9901 C   0  0  0  0  0  0  0  0  0  0  0  0
   15.5695   -9.3668  -16.8992 C   0  0  0  0  0  0  0  0  0  0  0  0
   17.0125   -9.7611  -16.7171 C   0  0  2  0  0  0  0  0  0  0  0  0
   17.1423  -11.1456  -16.2988 N   0  0  0  0  0  0  0  0  0  0  0  0
   17.6021   -8.8407  -15.6986 C   0  0  0  0  0  0  0  0  0  0  0  0
   17.4396   -9.0421  -14.4691 O   0  0  0  0  0  0  0  0  0  0  0  0
   13.9871  -11.0771  -17.6925 C   0  0  0  0  0  0  0  0  0  0  0  0
   13.3568  -11.7848  -18.6839 C   0  0  0  0  0  0  0  0  0  0  0  0
   18.3520   -7.7299  -16.1306 N   0  0  0  0  0  0  0  0  0  0  0  0
   18.9345   -6.7582  -15.2318 C   0  0  1  0  0  0  0  0  0  0  0  0
   20.1119   -7.3353  -14.5026 C   0  0  0  0  0  0  0  0  0  0  0  0
   21.0372   -8.0581  -15.4287 C   0  0  0  0  0  0  0  0  0  0  0  0
   22.1871   -8.5767  -14.6657 C   0  0  0  0  0  0  0  0  0  0  0  0
   22.2501   -8.3906  -13.4393 O   0  0  0  0  0  0  0  0  0  0  0  0
   19.3947   -5.5476  -16.0078 C   0  0  0  0  0  0  0  0  0  0  0  0
   19.9050   -5.6935  -17.1449 O   0  0  0  0  0  0  0  0  0  0  0  0
   23.2159   -9.2755  -15.2810 O   0  0  0  0  0  0  0  0  0  0  0  0
   19.1652   -1.6120  -14.3013 O   0  0  0  0  0  0  0  0  0  0  0  0
   18.9233   -1.8290  -15.6389 C   0  0  0  0  0  0  0  0  0  0  0  0
   19.5684   -3.0808  -16.1298 C   0  0  2  0  0  0  0  0  0  0  0  0
   19.2307   -4.2689  -15.4131 N   0  0  0  0  0  0  0  0  0  0  0  0
   21.0357   -2.8876  -16.2827 C   0  0  0  0  0  0  0  0  0  0  0  0
   21.9132   -3.5718  -15.7517 O   0  0  0  0  0  0  0  0  0  0  0  0
   21.4644   -1.8337  -17.1036 O   0  0  0  0  0  0  0  0  0  0  0  0
  2  1  1  0
  2 12  2  0
  3  2  1  0
  4  3  2  0
  4  5  1  0
  5 11  2  0
  6  5  1  0
  7  8  1  1
  7  6  1  0
  9  7  1  0
 10  9  2  0
 11 12  1  0
 13  9  1  0
 14 13  1  0
 14 15  1  6
 15 16  1  0
 16 17  1  0
 17 21  1  0
 17 18  2  0
 19 14  1  0
 20 19  2  0
 22 23  1  0
 24 23  1  1
 24 26  1  0
 24 25  1  0
 25 19  1  0
 26 28  1  0
 27 26  2  0
M  END
$$$$
