YES.pdb
     RDKit          3D

 28 28  0  0  1  0  0  0  0  0999 V2000
   13.5173  -13.9702  -17.2922 O   0  0  0  0  0  0  0  0  0  0  0  0
   14.6379  -13.1995  -16.9817 C   0  0  0  0  0  0  0  0  0  0  0  0
   15.3459  -12.5898  -17.9977 C   0  0  0  0  0  0  0  0  0  0  0  0
   16.4543  -11.8279  -17.6872 C   0  0  0  0  0  0  0  0  0  0  0  0
   16.8294  -11.6927  -16.3715 C   0  0  0  0  0  0  0  0  0  0  0  0
   18.0102  -10.8830  -16.0239 C   0  0  0  0  0  0  0  0  0  0  0  0
   19.2898  -11.4541  -16.5784 C   0  0  2  0  0  0  0  0  0  0  0  0
   19.5692  -12.7718  -16.0360 N   0  0  0  0  0  0  0  0  0  0  0  0
   20.3879  -10.4979  -16.2437 C   0  0  0  0  0  0  0  0  0  0  0  0
   20.9025  -10.4744  -15.0977 O   0  0  0  0  0  0  0  0  0  0  0  0
   16.1104  -12.3081  -15.3772 C   0  0  0  0  0  0  0  0  0  0  0  0
   15.0066  -13.0689  -15.6666 C   0  0  0  0  0  0  0  0  0  0  0  0
   20.8498   -9.6101  -17.2344 N   0  0  0  0  0  0  0  0  0  0  0  0
   21.9468   -8.6889  -17.0359 C   0  0  1  0  0  0  0  0  0  0  0  0
   22.6128   -8.3544  -18.3381 C   0  0  0  0  0  0  0  0  0  0  0  0
   23.3646   -9.5225  -18.8919 C   0  0  0  0  0  0  0  0  0  0  0  0
   24.0334   -9.1251  -20.1442 C   0  0  0  0  0  0  0  0  0  0  0  0
   23.9462   -7.9534  -20.5469 O   0  0  0  0  0  0  0  0  0  0  0  0
   21.4414   -7.4108  -16.4111 C   0  0  0  0  0  0  0  0  0  0  0  0
   20.3176   -6.9589  -16.7392 O   0  0  0  0  0  0  0  0  0  0  0  0
   24.7673  -10.0294  -20.8984 O   0  0  0  0  0  0  0  0  0  0  0  0
   21.8479   -4.1545  -12.9094 O   0  0  0  0  0  0  0  0  0  0  0  0
   22.2423   -5.3720  -13.4164 C   0  0  0  0  0  0  0  0  0  0  0  0
   21.8537   -5.5365  -14.8468 C   0  0  2  0  0  0  0  0  0  0  0  0
   22.2690   -6.7571  -15.4607 N   0  0  0  0  0  0  0  0  0  0  0  0
   22.2285   -4.3299  -15.6325 C   0  0  0  0  0  0  0  0  0  0  0  0
   23.2722   -4.1800  -16.2715 O   0  0  0  0  0  0  0  0  0  0  0  0
   21.3159   -3.2644  -15.6511 O   0  0  0  0  0  0  0  0  0  0  0  0
  2  1  1  0
  2 12  2  0
  3  2  1  0
  4  3  2  0
  4  5  1  0
  5 11  2  0
  6  5  1  0
  7  8  1  1
  7  6  1  0
  9  7  1  0
 10  9  2  0
 11 12  1  0
 13  9  1  0
 14 13  1  0
 14 15  1  6
 15 16  1  0
 16 17  1  0
 17 21  1  0
 17 18  2  0
 19 14  1  0
 20 19  2  0
 22 23  1  0
 24 23  1  1
 24 26  1  0
 24 25  1  0
 25 19  1  0
 26 28  1  0
 27 26  2  0
M  END
$$$$
