NYS.pdb
     RDKit          3D

 27 27  0  0  1  0  0  0  0  0999 V2000
   23.5169  -13.5173  -20.4202 N   0  0  0  0  0  0  0  0  0  0  0  0
   22.9765  -12.2336  -20.6861 C   0  0  0  0  0  0  0  0  0  0  0  0
   23.3723  -11.6664  -21.7452 O   0  0  0  0  0  0  0  0  0  0  0  0
   22.0003  -11.5971  -19.7670 C   0  0  0  0  0  0  0  0  0  0  0  0
   22.6722  -10.4425  -19.0890 C   0  0  2  0  0  0  0  0  0  0  0  0
   23.7818  -10.9552  -18.3236 N   0  0  0  0  0  0  0  0  0  0  0  0
   21.7566   -9.6241  -18.2826 C   0  0  0  0  0  0  0  0  0  0  0  0
   20.7495   -9.1165  -18.8350 O   0  0  0  0  0  0  0  0  0  0  0  0
   16.7580  -13.3030  -16.8709 O   0  0  0  0  0  0  0  0  0  0  0  0
   17.6625  -12.3362  -16.4201 C   0  0  0  0  0  0  0  0  0  0  0  0
   18.9607  -12.6884  -16.1231 C   0  0  0  0  0  0  0  0  0  0  0  0
   19.8634  -11.7718  -15.6829 C   0  0  0  0  0  0  0  0  0  0  0  0
   19.5074  -10.4351  -15.5148 C   0  0  0  0  0  0  0  0  0  0  0  0
   20.5176   -9.4703  -15.0264 C   0  0  0  0  0  0  0  0  0  0  0  0
   21.1145   -8.6301  -16.1106 C   0  0  2  0  0  0  0  0  0  0  0  0
   22.0110   -9.4180  -16.9164 N   0  0  0  0  0  0  0  0  0  0  0  0
   21.7711   -7.3879  -15.6684 C   0  0  0  0  0  0  0  0  0  0  0  0
   22.8975   -7.4720  -15.1185 O   0  0  0  0  0  0  0  0  0  0  0  0
   18.2088  -10.0819  -15.8117 C   0  0  0  0  0  0  0  0  0  0  0  0
   17.2814  -11.0109  -16.2614 C   0  0  0  0  0  0  0  0  0  0  0  0
   21.5280   -2.4999  -15.3103 O   0  0  0  0  0  0  0  0  0  0  0  0
   20.9832   -3.6904  -15.7906 C   0  0  0  0  0  0  0  0  0  0  0  0
   21.8082   -4.8749  -15.3544 C   0  0  2  0  0  0  0  0  0  0  0  0
   21.2066   -6.0985  -15.8265 N   0  0  0  0  0  0  0  0  0  0  0  0
   21.8457   -4.8581  -13.8619 C   0  0  0  0  0  0  0  0  0  0  0  0
   20.9651   -5.4030  -13.1565 O   0  0  0  0  0  0  0  0  0  0  0  0
   22.9173   -4.2013  -13.2728 O   0  0  0  0  0  0  0  0  0  0  0  0
  2  3  2  0
  2  1  1  0
  4  2  1  0
  5  4  1  0
  5  7  1  0
  5  6  1  1
  7  8  2  0
  9 10  1  0
 10 11  2  0
 10 20  1  0
 11 12  1  0
 12 13  2  0
 13 14  1  0
 15 14  1  1
 16  7  1  0
 16 15  1  0
 17 15  1  0
 17 18  2  0
 19 13  1  0
 20 19  2  0
 21 22  1  0
 23 22  1  1
 23 24  1  0
 24 17  1  0
 25 23  1  0
 25 27  1  0
 26 25  2  0
M  END
$$$$
