NYS.pdb
     RDKit          3D

 27 27  0  0  1  0  0  0  0  0999 V2000
   19.1885  -14.4817  -17.4064 N   0  0  0  0  0  0  0  0  0  0  0  0
   20.5902  -14.6264  -17.2491 C   0  0  0  0  0  0  0  0  0  0  0  0
   21.0383  -15.8092  -17.2707 O   0  0  0  0  0  0  0  0  0  0  0  0
   21.4765  -13.4495  -17.0693 C   0  0  0  0  0  0  0  0  0  0  0  0
   20.6537  -12.2084  -17.2321 C   0  0  2  0  0  0  0  0  0  0  0  0
   20.2960  -12.0863  -18.6238 N   0  0  0  0  0  0  0  0  0  0  0  0
   21.3052  -11.0013  -16.7058 C   0  0  0  0  0  0  0  0  0  0  0  0
   21.8294  -11.0425  -15.5654 O   0  0  0  0  0  0  0  0  0  0  0  0
   25.5045   -3.2393  -16.8181 O   0  0  0  0  0  0  0  0  0  0  0  0
   24.8592   -4.4397  -17.1320 C   0  0  0  0  0  0  0  0  0  0  0  0
   25.5023   -5.6423  -16.9370 C   0  0  0  0  0  0  0  0  0  0  0  0
   24.9018   -6.8259  -17.2323 C   0  0  0  0  0  0  0  0  0  0  0  0
   23.6071   -6.8673  -17.7459 C   0  0  0  0  0  0  0  0  0  0  0  0
   22.9921   -8.1758  -18.0614 C   0  0  0  0  0  0  0  0  0  0  0  0
   22.0474   -8.6613  -17.0080 C   0  0  2  0  0  0  0  0  0  0  0  0
   21.3368   -9.8245  -17.4725 N   0  0  0  0  0  0  0  0  0  0  0  0
   21.1083   -7.6570  -16.4797 C   0  0  0  0  0  0  0  0  0  0  0  0
   20.1996   -7.2337  -17.2369 O   0  0  0  0  0  0  0  0  0  0  0  0
   22.9631   -5.6646  -17.9412 C   0  0  0  0  0  0  0  0  0  0  0  0
   23.5685   -4.4523  -17.6425 C   0  0  0  0  0  0  0  0  0  0  0  0
   18.9661   -7.6775  -13.3869 O   0  0  0  0  0  0  0  0  0  0  0  0
   19.7656   -6.5393  -13.2858 C   0  0  0  0  0  0  0  0  0  0  0  0
   20.2848   -6.1239  -14.6393 C   0  0  2  0  0  0  0  0  0  0  0  0
   21.1683   -7.1373  -15.1634 N   0  0  0  0  0  0  0  0  0  0  0  0
   21.0230   -4.8398  -14.4513 C   0  0  0  0  0  0  0  0  0  0  0  0
   22.2593   -4.7376  -14.6278 O   0  0  0  0  0  0  0  0  0  0  0  0
   20.2705   -3.7392  -14.0650 O   0  0  0  0  0  0  0  0  0  0  0  0
  2  3  2  0
  2  1  1  0
  4  2  1  0
  5  4  1  0
  5  7  1  0
  5  6  1  6
  7  8  2  0
  9 10  1  0
 10 11  2  0
 10 20  1  0
 11 12  1  0
 12 13  2  0
 13 14  1  0
 15 14  1  6
 16  7  1  0
 16 15  1  0
 17 15  1  0
 17 18  2  0
 19 13  1  0
 20 19  2  0
 21 22  1  0
 23 22  1  1
 23 24  1  0
 24 17  1  0
 25 23  1  0
 25 27  1  0
 26 25  2  0
M  END
$$$$
