NYS.pdb
     RDKit          3D

 27 27  0  0  1  0  0  0  0  0999 V2000
   18.1949  -12.3857  -17.0494 N   0  0  0  0  0  0  0  0  0  0  0  0
   18.0572  -11.6820  -15.8261 C   0  0  0  0  0  0  0  0  0  0  0  0
   17.0375  -11.9593  -15.1308 O   0  0  0  0  0  0  0  0  0  0  0  0
   19.0591  -10.6766  -15.3922 C   0  0  0  0  0  0  0  0  0  0  0  0
   20.0950  -10.5468  -16.4665 C   0  0  2  0  0  0  0  0  0  0  0  0
   20.7420  -11.8261  -16.6232 N   0  0  0  0  0  0  0  0  0  0  0  0
   21.0483   -9.4540  -16.2309 C   0  0  0  0  0  0  0  0  0  0  0  0
   22.2041   -9.7331  -15.8269 O   0  0  0  0  0  0  0  0  0  0  0  0
   26.4623   -2.9827  -17.4563 O   0  0  0  0  0  0  0  0  0  0  0  0
   25.5470   -4.0398  -17.4269 C   0  0  0  0  0  0  0  0  0  0  0  0
   25.5306   -4.9112  -16.3601 C   0  0  0  0  0  0  0  0  0  0  0  0
   24.6532   -5.9483  -16.3023 C   0  0  0  0  0  0  0  0  0  0  0  0
   23.7330   -6.1697  -17.3250 C   0  0  0  0  0  0  0  0  0  0  0  0
   22.8000   -7.3143  -17.2276 C   0  0  0  0  0  0  0  0  0  0  0  0
   21.6212   -7.0505  -16.3453 C   0  0  2  0  0  0  0  0  0  0  0  0
   20.6648   -8.1214  -16.4565 N   0  0  0  0  0  0  0  0  0  0  0  0
   20.9626   -5.7462  -16.5314 C   0  0  0  0  0  0  0  0  0  0  0  0
   20.2827   -5.5645  -17.5721 O   0  0  0  0  0  0  0  0  0  0  0  0
   23.7487   -5.2983  -18.3927 C   0  0  0  0  0  0  0  0  0  0  0  0
   24.6407   -4.2376  -18.4596 C   0  0  0  0  0  0  0  0  0  0  0  0
   18.2565   -2.3402  -15.4294 O   0  0  0  0  0  0  0  0  0  0  0  0
   18.9065   -3.5740  -15.4200 C   0  0  0  0  0  0  0  0  0  0  0  0
   20.3712   -3.4136  -15.7410 C   0  0  2  0  0  0  0  0  0  0  0  0
   21.0500   -4.6794  -15.6037 N   0  0  0  0  0  0  0  0  0  0  0  0
   20.9264   -2.4203  -14.7743 C   0  0  0  0  0  0  0  0  0  0  0  0
   21.7388   -2.7338  -13.8733 O   0  0  0  0  0  0  0  0  0  0  0  0
   20.4986   -1.1074  -14.9152 O   0  0  0  0  0  0  0  0  0  0  0  0
  2  3  2  0
  2  1  1  0
  4  2  1  0
  5  4  1  0
  5  7  1  0
  5  6  1  1
  7  8  2  0
  9 10  1  0
 10 11  2  0
 10 20  1  0
 11 12  1  0
 12 13  2  0
 13 14  1  0
 15 14  1  6
 16  7  1  0
 16 15  1  0
 17 15  1  0
 17 18  2  0
 19 13  1  0
 20 19  2  0
 21 22  1  0
 23 22  1  1
 23 24  1  0
 24 17  1  0
 25 23  1  0
 25 27  1  0
 26 25  2  0
M  END
$$$$
