NYS.pdb
     RDKit          3D

 27 27  0  0  1  0  0  0  0  0999 V2000
   22.6178  -14.0580  -18.6213 N   0  0  0  0  0  0  0  0  0  0  0  0
   21.3942  -13.3781  -18.3955 C   0  0  0  0  0  0  0  0  0  0  0  0
   20.3579  -13.9081  -18.8909 O   0  0  0  0  0  0  0  0  0  0  0  0
   21.3406  -12.1141  -17.6194 C   0  0  0  0  0  0  0  0  0  0  0  0
   22.7276  -11.7803  -17.1625 C   0  0  2  0  0  0  0  0  0  0  0  0
   23.1350  -12.7747  -16.2007 N   0  0  0  0  0  0  0  0  0  0  0  0
   22.8612  -10.4091  -16.6521 C   0  0  0  0  0  0  0  0  0  0  0  0
   22.3249  -10.1145  -15.5555 O   0  0  0  0  0  0  0  0  0  0  0  0
   25.5601   -1.9646  -16.6831 O   0  0  0  0  0  0  0  0  0  0  0  0
   25.4506   -3.3482  -16.8551 C   0  0  0  0  0  0  0  0  0  0  0  0
   25.2844   -4.1702  -15.7622 C   0  0  0  0  0  0  0  0  0  0  0  0
   25.1749   -5.5188  -15.8966 C   0  0  0  0  0  0  0  0  0  0  0  0
   25.2270   -6.1231  -17.1512 C   0  0  0  0  0  0  0  0  0  0  0  0
   25.1115   -7.5948  -17.2539 C   0  0  0  0  0  0  0  0  0  0  0  0
   23.7622   -8.1162  -16.8728 C   0  0  2  0  0  0  0  0  0  0  0  0
   23.5791   -9.4495  -17.3852 N   0  0  0  0  0  0  0  0  0  0  0  0
   22.6201   -7.2599  -17.2363 C   0  0  0  0  0  0  0  0  0  0  0  0
   22.2018   -7.2948  -18.4203 O   0  0  0  0  0  0  0  0  0  0  0  0
   25.3933   -5.3015  -18.2451 C   0  0  0  0  0  0  0  0  0  0  0  0
   25.5058   -3.9244  -18.1168 C   0  0  0  0  0  0  0  0  0  0  0  0
   19.4172   -6.7033  -15.2185 O   0  0  0  0  0  0  0  0  0  0  0  0
   19.5583   -6.2012  -16.5119 C   0  0  0  0  0  0  0  0  0  0  0  0
   20.8843   -5.5023  -16.6768 C   0  0  2  0  0  0  0  0  0  0  0  0
   21.9621   -6.3957  -16.3272 N   0  0  0  0  0  0  0  0  0  0  0  0
   20.8743   -4.3205  -15.7643 C   0  0  0  0  0  0  0  0  0  0  0  0
   21.6721   -4.1986  -14.8059 O   0  0  0  0  0  0  0  0  0  0  0  0
   19.9262   -3.3405  -16.0243 O   0  0  0  0  0  0  0  0  0  0  0  0
  2  3  2  0
  2  1  1  0
  4  2  1  0
  5  4  1  0
  5  7  1  0
  5  6  1  1
  7  8  2  0
  9 10  1  0
 10 11  2  0
 10 20  1  0
 11 12  1  0
 12 13  2  0
 13 14  1  0
 15 14  1  6
 16  7  1  0
 16 15  1  0
 17 15  1  0
 17 18  2  0
 19 13  1  0
 20 19  2  0
 21 22  1  0
 23 22  1  1
 23 24  1  0
 24 17  1  0
 25 23  1  0
 25 27  1  0
 26 25  2  0
M  END
$$$$
