NYS.pdb
     RDKit          3D

 27 27  0  0  1  0  0  0  0  0999 V2000
   18.3562  -12.7071  -14.7269 N   0  0  0  0  0  0  0  0  0  0  0  0
   18.3390  -11.3777  -15.2197 C   0  0  0  0  0  0  0  0  0  0  0  0
   19.1591  -11.1115  -16.1453 O   0  0  0  0  0  0  0  0  0  0  0  0
   17.4065  -10.3599  -14.6742 C   0  0  0  0  0  0  0  0  0  0  0  0
   16.6545  -10.9711  -13.5319 C   0  0  2  0  0  0  0  0  0  0  0  0
   15.8610  -12.0592  -14.0478 N   0  0  0  0  0  0  0  0  0  0  0  0
   15.8583  -10.0001  -12.7693 C   0  0  0  0  0  0  0  0  0  0  0  0
   14.6579   -9.8151  -13.0884 O   0  0  0  0  0  0  0  0  0  0  0  0
   12.2487   -5.5549   -6.2641 O   0  0  0  0  0  0  0  0  0  0  0  0
   13.0475   -6.3725   -7.0699 C   0  0  0  0  0  0  0  0  0  0  0  0
   14.4146   -6.2034   -7.0869 C   0  0  0  0  0  0  0  0  0  0  0  0
   15.2180   -6.9821   -7.8594 C   0  0  0  0  0  0  0  0  0  0  0  0
   14.6861   -7.9856   -8.6669 C   0  0  0  0  0  0  0  0  0  0  0  0
   15.5942   -8.8063   -9.4986 C   0  0  0  0  0  0  0  0  0  0  0  0
   15.6613   -8.3629  -10.9257 C   0  0  2  0  0  0  0  0  0  0  0  0
   16.4383   -9.2942  -11.7019 N   0  0  0  0  0  0  0  0  0  0  0  0
   16.1331   -6.9849  -11.1453 C   0  0  0  0  0  0  0  0  0  0  0  0
   17.3606   -6.7481  -11.0215 O   0  0  0  0  0  0  0  0  0  0  0  0
   13.3186   -8.1555   -8.6504 C   0  0  0  0  0  0  0  0  0  0  0  0
   12.4915   -7.3652   -7.8651 C   0  0  0  0  0  0  0  0  0  0  0  0
   16.0802   -4.7953  -14.0275 O   0  0  0  0  0  0  0  0  0  0  0  0
   15.3710   -4.0746  -13.0670 C   0  0  0  0  0  0  0  0  0  0  0  0
   15.7188   -4.5433  -11.6765 C   0  0  2  0  0  0  0  0  0  0  0  0
   15.2825   -5.9058  -11.4893 N   0  0  0  0  0  0  0  0  0  0  0  0
   15.0163   -3.6380  -10.7194 C   0  0  0  0  0  0  0  0  0  0  0  0
   14.0843   -4.0283   -9.9784 O   0  0  0  0  0  0  0  0  0  0  0  0
   15.4447   -2.3183  -10.6810 O   0  0  0  0  0  0  0  0  0  0  0  0
  2  3  2  0
  2  1  1  0
  4  2  1  0
  5  4  1  0
  5  7  1  0
  5  6  1  6
  7  8  2  0
  9 10  1  0
 10 11  2  0
 10 20  1  0
 11 12  1  0
 12 13  2  0
 13 14  1  0
 15 14  1  1
 16  7  1  0
 16 15  1  0
 17 15  1  0
 17 18  2  0
 19 13  1  0
 20 19  2  0
 21 22  1  0
 23 22  1  6
 23 24  1  0
 24 17  1  0
 25 23  1  0
 25 27  1  0
 26 25  2  0
M  END
$$$$
