NYS.pdb
     RDKit          3D

 27 27  0  0  1  0  0  0  0  0999 V2000
   19.7064  -13.2900  -17.9621 N   0  0  0  0  0  0  0  0  0  0  0  0
   19.3660  -12.9827  -16.6204 C   0  0  0  0  0  0  0  0  0  0  0  0
   18.3234  -13.5358  -16.1651 O   0  0  0  0  0  0  0  0  0  0  0  0
   20.1928  -12.0615  -15.8015 C   0  0  0  0  0  0  0  0  0  0  0  0
   21.3051  -11.5370  -16.6570 C   0  0  2  0  0  0  0  0  0  0  0  0
   22.2511  -12.6049  -16.8677 N   0  0  0  0  0  0  0  0  0  0  0  0
   21.9320  -10.3212  -16.1210 C   0  0  0  0  0  0  0  0  0  0  0  0
   21.9326  -10.1354  -14.8790 O   0  0  0  0  0  0  0  0  0  0  0  0
   27.8537  -12.6830  -16.0460 O   0  0  0  0  0  0  0  0  0  0  0  0
   27.0445  -11.5804  -16.3380 C   0  0  0  0  0  0  0  0  0  0  0  0
   26.8914  -10.5706  -15.4136 C   0  0  0  0  0  0  0  0  0  0  0  0
   26.1117   -9.4860  -15.6677 C   0  0  0  0  0  0  0  0  0  0  0  0
   25.4349   -9.3545  -16.8786 C   0  0  0  0  0  0  0  0  0  0  0  0
   24.5902   -8.1623  -17.1130 C   0  0  0  0  0  0  0  0  0  0  0  0
   23.2400   -8.2521  -16.4753 C   0  0  2  0  0  0  0  0  0  0  0  0
   22.5190   -9.3870  -16.9908 N   0  0  0  0  0  0  0  0  0  0  0  0
   22.4143   -7.0347  -16.5528 C   0  0  0  0  0  0  0  0  0  0  0  0
   21.9258   -6.7154  -17.6653 O   0  0  0  0  0  0  0  0  0  0  0  0
   25.5876  -10.3644  -17.8040 C   0  0  0  0  0  0  0  0  0  0  0  0
   26.3812  -11.4745  -17.5528 C   0  0  0  0  0  0  0  0  0  0  0  0
   21.2839   -5.0066  -13.0977 O   0  0  0  0  0  0  0  0  0  0  0  0
   20.4747   -4.9269  -14.2308 C   0  0  0  0  0  0  0  0  0  0  0  0
   21.2995   -5.0243  -15.4895 C   0  0  2  0  0  0  0  0  0  0  0  0
   22.1366   -6.1987  -15.4437 N   0  0  0  0  0  0  0  0  0  0  0  0
   22.1393   -3.7918  -15.5608 C   0  0  0  0  0  0  0  0  0  0  0  0
   23.3904   -3.8208  -15.5003 O   0  0  0  0  0  0  0  0  0  0  0  0
   21.4658   -2.5860  -15.6995 O   0  0  0  0  0  0  0  0  0  0  0  0
  2  3  2  0
  2  1  1  0
  4  2  1  0
  5  4  1  0
  5  7  1  0
  5  6  1  1
  7  8  2  0
  9 10  1  0
 10 11  2  0
 10 20  1  0
 11 12  1  0
 12 13  2  0
 13 14  1  0
 15 14  1  6
 16  7  1  0
 16 15  1  0
 17 15  1  0
 17 18  2  0
 19 13  1  0
 20 19  2  0
 21 22  1  0
 23 22  1  1
 23 24  1  0
 24 17  1  0
 25 23  1  0
 25 27  1  0
 26 25  2  0
M  END
$$$$
