NYS.pdb
     RDKit          3D

 27 27  0  0  1  0  0  0  0  0999 V2000
   18.3128  -21.3907  -14.3663 N   0  0  0  0  0  0  0  0  0  0  0  0
   19.6550  -21.8280  -14.2330 C   0  0  0  0  0  0  0  0  0  0  0  0
   19.8548  -23.0714  -14.3525 O   0  0  0  0  0  0  0  0  0  0  0  0
   20.7596  -20.8728  -13.9677 C   0  0  0  0  0  0  0  0  0  0  0  0
   21.2511  -21.0942  -12.5701 C   0  0  2  0  0  0  0  0  0  0  0  0
   20.2752  -20.5486  -11.6593 N   0  0  0  0  0  0  0  0  0  0  0  0
   22.6027  -20.5684  -12.3351 C   0  0  0  0  0  0  0  0  0  0  0  0
   22.7448  -19.3437  -12.0967 O   0  0  0  0  0  0  0  0  0  0  0  0
   27.9378  -19.2208   -6.7032 O   0  0  0  0  0  0  0  0  0  0  0  0
   27.4426  -19.8711   -7.8380 C   0  0  0  0  0  0  0  0  0  0  0  0
   26.0836  -19.9861   -8.0316 C   0  0  0  0  0  0  0  0  0  0  0  0
   25.5714  -20.6123   -9.1244 C   0  0  0  0  0  0  0  0  0  0  0  0
   26.4060  -21.1641  -10.0943 C   0  0  0  0  0  0  0  0  0  0  0  0
   25.8087  -21.8441  -11.2651 C   0  0  0  0  0  0  0  0  0  0  0  0
   25.0444  -20.9247  -12.1642 C   0  0  2  0  0  0  0  0  0  0  0  0
   23.7126  -21.4288  -12.3782 N   0  0  0  0  0  0  0  0  0  0  0  0
   25.6899  -20.6044  -13.4489 C   0  0  0  0  0  0  0  0  0  0  0  0
   25.4839  -21.3665  -14.4261 O   0  0  0  0  0  0  0  0  0  0  0  0
   27.7657  -21.0494   -9.9014 C   0  0  0  0  0  0  0  0  0  0  0  0
   28.2968  -20.4120   -8.7892 C   0  0  0  0  0  0  0  0  0  0  0  0
   28.8208  -17.7057  -15.8638 O   0  0  0  0  0  0  0  0  0  0  0  0
   28.0598  -17.9430  -14.7195 C   0  0  0  0  0  0  0  0  0  0  0  0
   27.1953  -19.1665  -14.8917 C   0  0  2  0  0  0  0  0  0  0  0  0
   26.5328  -19.4839  -13.6498 N   0  0  0  0  0  0  0  0  0  0  0  0
   28.0950  -20.2860  -15.2999 C   0  0  0  0  0  0  0  0  0  0  0  0
   28.6499  -21.0448  -14.4715 O   0  0  0  0  0  0  0  0  0  0  0  0
   28.2975  -20.4577  -16.6623 O   0  0  0  0  0  0  0  0  0  0  0  0
  2  3  2  0
  2  1  1  0
  4  2  1  0
  5  4  1  0
  5  7  1  0
  5  6  1  1
  7  8  2  0
  9 10  1  0
 10 11  2  0
 10 20  1  0
 11 12  1  0
 12 13  2  0
 13 14  1  0
 15 14  1  6
 16  7  1  0
 16 15  1  0
 17 15  1  0
 17 18  2  0
 19 13  1  0
 20 19  2  0
 21 22  1  0
 23 22  1  1
 23 24  1  0
 24 17  1  0
 25 23  1  0
 25 27  1  0
 26 25  2  0
M  END
$$$$
