NYS.pdb
     RDKit          3D

 27 27  0  0  1  0  0  0  0  0999 V2000
   16.5886  -12.6659  -17.7558 N   0  0  0  0  0  0  0  0  0  0  0  0
   16.3229  -11.6809  -16.7711 C   0  0  0  0  0  0  0  0  0  0  0  0
   15.1130  -11.5404  -16.4298 O   0  0  0  0  0  0  0  0  0  0  0  0
   17.4105  -10.8634  -16.1781 C   0  0  0  0  0  0  0  0  0  0  0  0
   18.6888  -11.1906  -16.8872 C   0  0  2  0  0  0  0  0  0  0  0  0
   19.0319  -12.5585  -16.5859 N   0  0  0  0  0  0  0  0  0  0  0  0
   19.7799  -10.2531  -16.5888 C   0  0  0  0  0  0  0  0  0  0  0  0
   20.5022  -10.4625  -15.5830 O   0  0  0  0  0  0  0  0  0  0  0  0
   26.0003   -4.1544  -17.9760 O   0  0  0  0  0  0  0  0  0  0  0  0
   24.9782   -5.1014  -18.0952 C   0  0  0  0  0  0  0  0  0  0  0  0
   23.7319   -4.7216  -18.5426 C   0  0  0  0  0  0  0  0  0  0  0  0
   22.7179   -5.6185  -18.6693 C   0  0  0  0  0  0  0  0  0  0  0  0
   22.9021   -6.9622  -18.3497 C   0  0  0  0  0  0  0  0  0  0  0  0
   21.7706   -7.9051  -18.4943 C   0  0  0  0  0  0  0  0  0  0  0  0
   21.1259   -8.2682  -17.1942 C   0  0  2  0  0  0  0  0  0  0  0  0
   20.0047   -9.1431  -17.4202 N   0  0  0  0  0  0  0  0  0  0  0  0
   20.7353   -7.1363  -16.3363 C   0  0  0  0  0  0  0  0  0  0  0  0
   19.6773   -6.5171  -16.6111 O   0  0  0  0  0  0  0  0  0  0  0  0
   24.1486   -7.3431  -17.9021 C   0  0  0  0  0  0  0  0  0  0  0  0
   25.1889   -6.4344  -17.7699 C   0  0  0  0  0  0  0  0  0  0  0  0
   20.7690   -5.0626  -12.0352 O   0  0  0  0  0  0  0  0  0  0  0  0
   21.2332   -6.0550  -12.8981 C   0  0  0  0  0  0  0  0  0  0  0  0
   21.0976   -5.6243  -14.3369 C   0  0  2  0  0  0  0  0  0  0  0  0
   21.4840   -6.7018  -15.2152 N   0  0  0  0  0  0  0  0  0  0  0  0
   21.9987   -4.4495  -14.5303 C   0  0  0  0  0  0  0  0  0  0  0  0
   21.6254   -3.3962  -15.0969 O   0  0  0  0  0  0  0  0  0  0  0  0
   23.2944   -4.5719  -14.0478 O   0  0  0  0  0  0  0  0  0  0  0  0
  2  3  2  0
  2  1  1  0
  4  2  1  0
  5  4  1  0
  5  7  1  0
  5  6  1  1
  7  8  2  0
  9 10  1  0
 10 11  2  0
 10 20  1  0
 11 12  1  0
 12 13  2  0
 13 14  1  0
 15 14  1  6
 16  7  1  0
 16 15  1  0
 17 15  1  0
 17 18  2  0
 19 13  1  0
 20 19  2  0
 21 22  1  0
 23 22  1  1
 23 24  1  0
 24 17  1  0
 25 23  1  0
 25 27  1  0
 26 25  2  0
M  END
$$$$
