NYS.pdb
     RDKit          3D

 27 27  0  0  1  0  0  0  0  0999 V2000
   33.8012  -28.1988  -20.9572 N   0  0  0  0  0  0  0  0  0  0  0  0
   33.2651  -29.3086  -20.2562 C   0  0  0  0  0  0  0  0  0  0  0  0
   33.3962  -30.4385  -20.8097 O   0  0  0  0  0  0  0  0  0  0  0  0
   32.5886  -29.1453  -18.9453 C   0  0  0  0  0  0  0  0  0  0  0  0
   32.2678  -30.5054  -18.4058 C   0  0  2  0  0  0  0  0  0  0  0  0
   30.8893  -30.5065  -17.9821 N   0  0  0  0  0  0  0  0  0  0  0  0
   33.1868  -30.9469  -17.3480 C   0  0  0  0  0  0  0  0  0  0  0  0
   33.7285  -30.0831  -16.6148 O   0  0  0  0  0  0  0  0  0  0  0  0
   37.3805  -34.0519  -10.6420 O   0  0  0  0  0  0  0  0  0  0  0  0
   36.5485  -33.5931  -11.6683 C   0  0  0  0  0  0  0  0  0  0  0  0
   35.5320  -34.3920  -12.1441 C   0  0  0  0  0  0  0  0  0  0  0  0
   34.7066  -33.9745  -13.1406 C   0  0  0  0  0  0  0  0  0  0  0  0
   34.8585  -32.7168  -13.7210 C   0  0  0  0  0  0  0  0  0  0  0  0
   33.9440  -32.3033  -14.8085 C   0  0  0  0  0  0  0  0  0  0  0  0
   34.3829  -32.7594  -16.1639 C   0  0  2  0  0  0  0  0  0  0  0  0
   33.4497  -32.3150  -17.1666 N   0  0  0  0  0  0  0  0  0  0  0  0
   34.6412  -34.2032  -16.2998 C   0  0  0  0  0  0  0  0  0  0  0  0
   33.6800  -34.9555  -16.5974 O   0  0  0  0  0  0  0  0  0  0  0  0
   35.8752  -31.9170  -13.2456 C   0  0  0  0  0  0  0  0  0  0  0  0
   36.7220  -32.3352  -12.2290 C   0  0  0  0  0  0  0  0  0  0  0  0
   36.5087  -37.8890  -17.9607 O   0  0  0  0  0  0  0  0  0  0  0  0
   36.2293  -36.5367  -17.7652 C   0  0  0  0  0  0  0  0  0  0  0  0
   36.1995  -36.1999  -16.2956 C   0  0  2  0  0  0  0  0  0  0  0  0
   35.9135  -34.7972  -16.1144 N   0  0  0  0  0  0  0  0  0  0  0  0
   37.5464  -36.5298  -15.7421 C   0  0  0  0  0  0  0  0  0  0  0  0
   37.8028  -37.6270  -15.1939 O   0  0  0  0  0  0  0  0  0  0  0  0
   38.5253  -35.5528  -15.8607 O   0  0  0  0  0  0  0  0  0  0  0  0
  2  3  2  0
  2  1  1  0
  4  2  1  0
  5  4  1  0
  5  7  1  0
  5  6  1  1
  7  8  2  0
  9 10  1  0
 10 11  2  0
 10 20  1  0
 11 12  1  0
 12 13  2  0
 13 14  1  0
 15 14  1  1
 16  7  1  0
 16 15  1  0
 17 15  1  0
 17 18  2  0
 19 13  1  0
 20 19  2  0
 21 22  1  0
 23 22  1  6
 23 24  1  0
 24 17  1  0
 25 23  1  0
 25 27  1  0
 26 25  2  0
M  END
$$$$
