NYS.pdb
     RDKit          3D

 27 27  0  0  1  0  0  0  0  0999 V2000
   30.0162  -20.5137  -18.5134 N   0  0  0  0  0  0  0  0  0  0  0  0
   28.6789  -20.4363  -18.9783 C   0  0  0  0  0  0  0  0  0  0  0  0
   28.4893  -19.7631  -20.0324 O   0  0  0  0  0  0  0  0  0  0  0  0
   27.5680  -21.1110  -18.2618 C   0  0  0  0  0  0  0  0  0  0  0  0
   28.1426  -21.8682  -17.1040 C   0  0  2  0  0  0  0  0  0  0  0  0
   28.6584  -23.1209  -17.5984 N   0  0  0  0  0  0  0  0  0  0  0  0
   27.1978  -22.0428  -15.9924 C   0  0  0  0  0  0  0  0  0  0  0  0
   26.5406  -23.1102  -15.9162 O   0  0  0  0  0  0  0  0  0  0  0  0
   23.2905  -20.8960   -8.1576 O   0  0  0  0  0  0  0  0  0  0  0  0
   24.0821  -20.7645   -9.3031 C   0  0  0  0  0  0  0  0  0  0  0  0
   25.3549  -21.2908   -9.3286 C   0  0  0  0  0  0  0  0  0  0  0  0
   26.1487  -21.1794  -10.4268 C   0  0  0  0  0  0  0  0  0  0  0  0
   25.7025  -20.5254  -11.5734 C   0  0  0  0  0  0  0  0  0  0  0  0
   26.6003  -20.4191  -12.7450 C   0  0  0  0  0  0  0  0  0  0  0  0
   26.1221  -21.1881  -13.9357 C   0  0  2  0  0  0  0  0  0  0  0  0
   27.0385  -21.0272  -15.0349 N   0  0  0  0  0  0  0  0  0  0  0  0
   24.7419  -20.9064  -14.3663 C   0  0  0  0  0  0  0  0  0  0  0  0
   24.4894  -19.7789  -14.8594 O   0  0  0  0  0  0  0  0  0  0  0  0
   24.4293  -19.9985  -11.5488 C   0  0  0  0  0  0  0  0  0  0  0  0
   23.6126  -20.1077  -10.4323 C   0  0  0  0  0  0  0  0  0  0  0  0
   21.8041  -23.8973  -14.3184 O   0  0  0  0  0  0  0  0  0  0  0  0
   21.7434  -22.8778  -15.2680 C   0  0  0  0  0  0  0  0  0  0  0  0
   22.3325  -21.6002  -14.7251 C   0  0  2  0  0  0  0  0  0  0  0  0
   23.6773  -21.8343  -14.2574 N   0  0  0  0  0  0  0  0  0  0  0  0
   21.4605  -21.1596  -13.5960 C   0  0  0  0  0  0  0  0  0  0  0  0
   20.2736  -20.7933  -13.7604 O   0  0  0  0  0  0  0  0  0  0  0  0
   22.0277  -21.1717  -12.3292 O   0  0  0  0  0  0  0  0  0  0  0  0
  2  3  2  0
  2  1  1  0
  4  2  1  0
  5  4  1  0
  5  7  1  0
  5  6  1  6
  7  8  2  0
  9 10  1  0
 10 11  2  0
 10 20  1  0
 11 12  1  0
 12 13  2  0
 13 14  1  0
 15 14  1  1
 16  7  1  0
 16 15  1  0
 17 15  1  0
 17 18  2  0
 19 13  1  0
 20 19  2  0
 21 22  1  0
 23 22  1  1
 23 24  1  0
 24 17  1  0
 25 23  1  0
 25 27  1  0
 26 25  2  0
M  END
$$$$
