PTV.pdb
     RDKit          3D

 22 22  0  0  1  0  0  0  0  0999 V2000
    8.4338  -15.0813   19.0386 N   0  0  0  0  0  0  0  0  0  0  0  0
    8.7064  -14.6105   17.6858 C   0  0  0  0  0  0  0  0  0  0  0  0
    8.0508  -13.2434   17.5870 C   0  0  0  0  0  0  0  0  0  0  0  0
    7.5836  -12.9484   18.9992 C   0  0  0  0  0  0  0  0  0  0  0  0
    8.5274  -13.8592   19.7963 C   0  0  1  0  0  0  0  0  0  0  0  0
    8.0154  -14.0018   21.1774 C   0  0  0  0  0  0  0  0  0  0  0  0
    7.8580  -13.0027   21.9275 O   0  0  0  0  0  0  0  0  0  0  0  0
    5.7091  -17.4153   22.0370 C   0  0  0  0  0  0  0  0  0  0  0  0
    6.6939  -17.0000   23.0919 C   0  0  1  0  0  0  0  0  0  0  0  0
    7.8041  -17.8139   23.0921 O   0  0  0  0  0  0  0  0  0  0  0  0
    7.0487  -15.5428   22.8909 C   0  0  2  0  0  0  0  0  0  0  0  0
    7.7063  -15.3143   21.6284 N   0  0  0  0  0  0  0  0  0  0  0  0
    7.9221  -15.0898   24.0004 C   0  0  0  0  0  0  0  0  0  0  0  0
    9.1731  -15.1547   23.9251 O   0  0  0  0  0  0  0  0  0  0  0  0
    6.2133  -13.3129   27.4969 C   0  0  0  0  0  0  0  0  0  0  0  0
    7.5749  -12.9130   26.9783 C   0  0  2  0  0  0  0  0  0  0  0  0
    7.4051  -11.7467   26.0486 C   0  0  0  0  0  0  0  0  0  0  0  0
    8.1686  -14.1261   26.2759 C   0  0  2  0  0  0  0  0  0  0  0  0
    7.3500  -14.5662   25.1865 N   0  0  0  0  0  0  0  0  0  0  0  0
    8.4368  -15.1888   27.2589 C   0  0  0  0  0  0  0  0  0  0  0  0
    7.8390  -16.2859   27.2211 O   0  0  0  0  0  0  0  0  0  0  0  0
    9.3719  -14.9773   28.2529 O   0  0  0  0  0  0  0  0  0  0  0  0
  1  5  1  0
  2  1  1  0
  3  4  1  0
  3  2  1  0
  4  5  1  0
  5  6  1  1
  6  7  2  0
  9  8  1  6
  9 11  1  0
 10  9  1  0
 11 13  1  0
 12  6  1  0
 11 12  1  6
 13 14  2  0
 13 19  1  0
 16 18  1  0
 16 15  1  6
 17 16  1  0
 18 20  1  0
 18 19  1  6
 20 22  1  0
 21 20  2  0
M  END
$$$$
