PTV.pdb
     RDKit          3D

 22 22  0  0  1  0  0  0  0  0999 V2000
    8.7040  -14.9993   18.8090 N   0  0  0  0  0  0  0  0  0  0  0  0
    8.9600  -14.4775   17.4716 C   0  0  0  0  0  0  0  0  0  0  0  0
    8.1227  -13.2151   17.3563 C   0  0  0  0  0  0  0  0  0  0  0  0
    7.5638  -13.0067   18.7505 C   0  0  0  0  0  0  0  0  0  0  0  0
    8.5947  -13.7860   19.5786 C   0  0  1  0  0  0  0  0  0  0  0  0
    8.0545  -14.0169   20.9367 C   0  0  0  0  0  0  0  0  0  0  0  0
    7.7598  -13.0592   21.6995 O   0  0  0  0  0  0  0  0  0  0  0  0
    6.0041  -17.6226   21.6370 C   0  0  0  0  0  0  0  0  0  0  0  0
    6.9563  -17.1833   22.7120 C   0  0  1  0  0  0  0  0  0  0  0  0
    8.1246  -17.9105   22.6772 O   0  0  0  0  0  0  0  0  0  0  0  0
    7.2002  -15.6959   22.5789 C   0  0  2  0  0  0  0  0  0  0  0  0
    7.8795  -15.3658   21.3509 N   0  0  0  0  0  0  0  0  0  0  0  0
    7.9967  -15.2207   23.7359 C   0  0  0  0  0  0  0  0  0  0  0  0
    9.2412  -15.0745   23.6658 O   0  0  0  0  0  0  0  0  0  0  0  0
    8.1637  -12.4403   27.6417 C   0  0  0  0  0  0  0  0  0  0  0  0
    7.3440  -13.0241   26.5148 C   0  0  2  0  0  0  0  0  0  0  0  0
    5.9678  -13.3235   27.0345 C   0  0  0  0  0  0  0  0  0  0  0  0
    8.0612  -14.2771   26.0322 C   0  0  2  0  0  0  0  0  0  0  0  0
    7.3561  -14.9179   24.9632 N   0  0  0  0  0  0  0  0  0  0  0  0
    8.3168  -15.1744   27.1711 C   0  0  0  0  0  0  0  0  0  0  0  0
    7.7195  -16.2653   27.2960 O   0  0  0  0  0  0  0  0  0  0  0  0
    9.2391  -14.8097   28.1322 O   0  0  0  0  0  0  0  0  0  0  0  0
  1  5  1  0
  2  1  1  0
  3  4  1  0
  3  2  1  0
  4  5  1  0
  5  6  1  1
  6  7  2  0
  9  8  1  6
  9 11  1  0
 10  9  1  0
 11 13  1  0
 12  6  1  0
 11 12  1  6
 13 14  2  0
 13 19  1  0
 16 18  1  0
 16 15  1  1
 17 16  1  0
 18 20  1  0
 18 19  1  6
 20 22  1  0
 21 20  2  0
M  END
$$$$
