PTV.pdb
     RDKit          3D

 22 22  0  0  1  0  0  0  0  0999 V2000
    8.0120  -15.0924   18.3116 N   0  0  0  0  0  0  0  0  0  0  0  0
    8.6151  -14.2840   17.2585 C   0  0  0  0  0  0  0  0  0  0  0  0
    8.5287  -12.8469   17.7437 C   0  0  0  0  0  0  0  0  0  0  0  0
    8.0209  -12.9616   19.1680 C   0  0  0  0  0  0  0  0  0  0  0  0
    8.4484  -14.3985   19.4968 C   0  0  1  0  0  0  0  0  0  0  0  0
    7.7422  -14.8498   20.7164 C   0  0  0  0  0  0  0  0  0  0  0  0
    6.4871  -14.9461   20.7528 O   0  0  0  0  0  0  0  0  0  0  0  0
    7.5365  -17.8765   22.2006 C   0  0  0  0  0  0  0  0  0  0  0  0
    8.1672  -17.0994   23.3201 C   0  0  1  0  0  0  0  0  0  0  0  0
    9.5012  -17.4096   23.4587 O   0  0  0  0  0  0  0  0  0  0  0  0
    7.9415  -15.6218   23.0849 C   0  0  2  0  0  0  0  0  0  0  0  0
    8.5363  -15.1723   21.8509 N   0  0  0  0  0  0  0  0  0  0  0  0
    8.5003  -14.8500   24.2211 C   0  0  0  0  0  0  0  0  0  0  0  0
    9.7187  -14.5557   24.2843 O   0  0  0  0  0  0  0  0  0  0  0  0
    5.8961  -13.1788   27.1322 C   0  0  0  0  0  0  0  0  0  0  0  0
    7.2371  -12.5619   26.8096 C   0  0  2  0  0  0  0  0  0  0  0  0
    7.0444  -11.5527   25.7151 C   0  0  0  0  0  0  0  0  0  0  0  0
    8.1688  -13.6911   26.3925 C   0  0  2  0  0  0  0  0  0  0  0  0
    7.6539  -14.4232   25.2747 N   0  0  0  0  0  0  0  0  0  0  0  0
    8.4642  -14.5473   27.5532 C   0  0  0  0  0  0  0  0  0  0  0  0
    8.0476  -15.7236   27.6259 O   0  0  0  0  0  0  0  0  0  0  0  0
    9.2208  -14.0465   28.5944 O   0  0  0  0  0  0  0  0  0  0  0  0
  1  5  1  0
  2  1  1  0
  3  4  1  0
  3  2  1  0
  4  5  1  0
  5  6  1  1
  6  7  2  0
  9  8  1  6
  9 11  1  0
 10  9  1  0
 11 13  1  0
 12  6  1  0
 11 12  1  6
 13 14  2  0
 13 19  1  0
 16 18  1  0
 16 15  1  6
 17 16  1  0
 18 20  1  0
 18 19  1  6
 20 22  1  0
 21 20  2  0
M  END
$$$$
