PTV.pdb
     RDKit          3D

 22 22  0  0  1  0  0  0  0  0999 V2000
    8.3996  -15.0312   19.0699 N   0  0  0  0  0  0  0  0  0  0  0  0
    8.6384  -14.5508   17.7139 C   0  0  0  0  0  0  0  0  0  0  0  0
    7.9644  -13.1915   17.6354 C   0  0  0  0  0  0  0  0  0  0  0  0
    7.5230  -12.9087   19.0583 C   0  0  0  0  0  0  0  0  0  0  0  0
    8.4940  -13.8115   19.8313 C   0  0  1  0  0  0  0  0  0  0  0  0
    8.0124  -13.9668   21.2219 C   0  0  0  0  0  0  0  0  0  0  0  0
    7.8150  -12.9697   21.9654 O   0  0  0  0  0  0  0  0  0  0  0  0
    5.8287  -17.4222   22.0745 C   0  0  0  0  0  0  0  0  0  0  0  0
    6.7972  -17.0018   23.1425 C   0  0  1  0  0  0  0  0  0  0  0  0
    7.9177  -17.8014   23.1485 O   0  0  0  0  0  0  0  0  0  0  0  0
    7.1353  -15.5388   22.9554 C   0  0  2  0  0  0  0  0  0  0  0  0
    7.7797  -15.2890   21.6902 N   0  0  0  0  0  0  0  0  0  0  0  0
    8.0133  -15.0895   24.0627 C   0  0  0  0  0  0  0  0  0  0  0  0
    9.2590  -15.0150   23.9295 O   0  0  0  0  0  0  0  0  0  0  0  0
    6.3080  -13.3059   27.5102 C   0  0  0  0  0  0  0  0  0  0  0  0
    7.6864  -12.9649   26.9939 C   0  0  2  0  0  0  0  0  0  0  0  0
    7.5568  -11.8553   25.9912 C   0  0  0  0  0  0  0  0  0  0  0  0
    8.2678  -14.2302   26.3788 C   0  0  2  0  0  0  0  0  0  0  0  0
    7.4519  -14.7297   25.3132 N   0  0  0  0  0  0  0  0  0  0  0  0
    8.5118  -15.2293   27.4323 C   0  0  0  0  0  0  0  0  0  0  0  0
    7.9047  -16.3216   27.4564 O   0  0  0  0  0  0  0  0  0  0  0  0
    9.4341  -14.9615   28.4248 O   0  0  0  0  0  0  0  0  0  0  0  0
  1  5  1  0
  2  1  1  0
  3  4  1  0
  3  2  1  0
  4  5  1  0
  5  6  1  1
  6  7  2  0
  9  8  1  6
  9 11  1  0
 10  9  1  0
 11 13  1  0
 12  6  1  0
 11 12  1  6
 13 14  2  0
 13 19  1  0
 16 18  1  0
 16 15  1  6
 17 16  1  0
 18 20  1  0
 18 19  1  6
 20 22  1  0
 21 20  2  0
M  END
$$$$
