PTV.pdb
     RDKit          3D

 22 22  0  0  1  0  0  0  0  0999 V2000
    8.6431  -15.1559   19.0053 N   0  0  0  0  0  0  0  0  0  0  0  0
    8.9691  -14.7470   17.6442 C   0  0  0  0  0  0  0  0  0  0  0  0
    8.3391  -13.3762   17.4653 C   0  0  0  0  0  0  0  0  0  0  0  0
    7.8286  -13.0145   18.8466 C   0  0  0  0  0  0  0  0  0  0  0  0
    8.7301  -13.9040   19.7137 C   0  0  1  0  0  0  0  0  0  0  0  0
    8.1689  -13.9804   21.0809 C   0  0  0  0  0  0  0  0  0  0  0  0
    7.9663  -12.9447   21.7680 O   0  0  0  0  0  0  0  0  0  0  0  0
    5.7854  -17.3087   21.9214 C   0  0  0  0  0  0  0  0  0  0  0  0
    6.7060  -16.8841   23.0293 C   0  0  1  0  0  0  0  0  0  0  0  0
    7.7916  -17.7243   23.1312 O   0  0  0  0  0  0  0  0  0  0  0  0
    7.1122  -15.4431   22.8098 C   0  0  2  0  0  0  0  0  0  0  0  0
    7.8656  -15.2718   21.5926 N   0  0  0  0  0  0  0  0  0  0  0  0
    7.9139  -14.9746   23.9659 C   0  0  0  0  0  0  0  0  0  0  0  0
    9.1681  -15.0207   23.9623 O   0  0  0  0  0  0  0  0  0  0  0  0
    5.9957  -13.1660   27.3322 C   0  0  0  0  0  0  0  0  0  0  0  0
    7.4049  -12.8085   26.9207 C   0  0  2  0  0  0  0  0  0  0  0  0
    7.3430  -11.6386   25.9821 C   0  0  0  0  0  0  0  0  0  0  0  0
    8.0136  -14.0400   26.2646 C   0  0  2  0  0  0  0  0  0  0  0  0
    7.2673  -14.4572   25.1159 N   0  0  0  0  0  0  0  0  0  0  0  0
    8.1745  -15.1085   27.2645 C   0  0  0  0  0  0  0  0  0  0  0  0
    7.5680  -16.1971   27.1672 O   0  0  0  0  0  0  0  0  0  0  0  0
    9.0157  -14.9123   28.3421 O   0  0  0  0  0  0  0  0  0  0  0  0
  1  5  1  0
  2  1  1  0
  3  4  1  0
  3  2  1  0
  4  5  1  0
  5  6  1  1
  6  7  2  0
  9  8  1  6
  9 11  1  0
 10  9  1  0
 11 13  1  0
 12  6  1  0
 11 12  1  6
 13 14  2  0
 13 19  1  0
 16 18  1  0
 16 15  1  6
 17 16  1  0
 18 20  1  0
 18 19  1  6
 20 22  1  0
 21 20  2  0
M  END
$$$$
