PTV.pdb
     RDKit          3D

 22 22  0  0  1  0  0  0  0  0999 V2000
    8.6624  -14.9075   19.0953 N   0  0  0  0  0  0  0  0  0  0  0  0
    8.8633  -14.4079   17.7402 C   0  0  0  0  0  0  0  0  0  0  0  0
    8.0080  -13.1568   17.6329 C   0  0  0  0  0  0  0  0  0  0  0  0
    7.4983  -12.9287   19.0428 C   0  0  0  0  0  0  0  0  0  0  0  0
    8.5676  -13.6814   19.8462 C   0  0  1  0  0  0  0  0  0  0  0  0
    8.0802  -13.8928   21.2274 C   0  0  0  0  0  0  0  0  0  0  0  0
    7.6795  -12.9335   21.9381 O   0  0  0  0  0  0  0  0  0  0  0  0
    6.4915  -17.6540   22.0767 C   0  0  0  0  0  0  0  0  0  0  0  0
    7.3401  -17.0639   23.1662 C   0  0  1  0  0  0  0  0  0  0  0  0
    8.5790  -17.6616   23.2185 O   0  0  0  0  0  0  0  0  0  0  0  0
    7.4315  -15.5669   22.9658 C   0  0  2  0  0  0  0  0  0  0  0  0
    8.0806  -15.2248   21.7248 N   0  0  0  0  0  0  0  0  0  0  0  0
    8.1685  -14.9609   24.1009 C   0  0  0  0  0  0  0  0  0  0  0  0
    9.3980  -14.7177   24.0359 O   0  0  0  0  0  0  0  0  0  0  0  0
    6.0137  -13.2619   27.3083 C   0  0  0  0  0  0  0  0  0  0  0  0
    7.3845  -12.7819   26.8920 C   0  0  2  0  0  0  0  0  0  0  0  0
    7.2184  -11.7337   25.8304 C   0  0  0  0  0  0  0  0  0  0  0  0
    8.1570  -13.9929   26.3879 C   0  0  2  0  0  0  0  0  0  0  0  0
    7.4861  -14.6398   25.3007 N   0  0  0  0  0  0  0  0  0  0  0  0
    8.4434  -14.9028   27.5093 C   0  0  0  0  0  0  0  0  0  0  0  0
    7.9943  -16.0689   27.5416 O   0  0  0  0  0  0  0  0  0  0  0  0
    9.2283  -14.4655   28.5582 O   0  0  0  0  0  0  0  0  0  0  0  0
  1  5  1  0
  2  1  1  0
  3  4  1  0
  3  2  1  0
  4  5  1  0
  5  6  1  1
  6  7  2  0
  9  8  1  6
  9 11  1  0
 10  9  1  0
 11 13  1  0
 12  6  1  0
 11 12  1  6
 13 14  2  0
 13 19  1  0
 16 18  1  0
 16 15  1  6
 17 16  1  0
 18 20  1  0
 18 19  1  6
 20 22  1  0
 21 20  2  0
M  END
$$$$
