PTV.pdb
     RDKit          3D

 22 22  0  0  1  0  0  0  0  0999 V2000
    8.6663  -14.9589   19.1058 N   0  0  0  0  0  0  0  0  0  0  0  0
    8.9837  -14.4690   17.7695 C   0  0  0  0  0  0  0  0  0  0  0  0
    8.1945  -13.1810   17.6063 C   0  0  0  0  0  0  0  0  0  0  0  0
    7.5980  -12.9300   18.9777 C   0  0  0  0  0  0  0  0  0  0  0  0
    8.5739  -13.7295   19.8518 C   0  0  1  0  0  0  0  0  0  0  0  0
    7.9819  -13.9187   21.1949 C   0  0  0  0  0  0  0  0  0  0  0  0
    7.6029  -12.9401   21.8910 O   0  0  0  0  0  0  0  0  0  0  0  0
    6.1482  -17.5969   22.1152 C   0  0  0  0  0  0  0  0  0  0  0  0
    7.0669  -17.0327   23.1606 C   0  0  1  0  0  0  0  0  0  0  0  0
    8.2774  -17.6880   23.1731 O   0  0  0  0  0  0  0  0  0  0  0  0
    7.2204  -15.5447   22.9331 C   0  0  2  0  0  0  0  0  0  0  0  0
    7.8561  -15.2519   21.6727 N   0  0  0  0  0  0  0  0  0  0  0  0
    8.0089  -14.9545   24.0416 C   0  0  0  0  0  0  0  0  0  0  0  0
    9.2569  -14.8397   23.9765 O   0  0  0  0  0  0  0  0  0  0  0  0
    6.0675  -13.3060   27.5141 C   0  0  0  0  0  0  0  0  0  0  0  0
    7.3723  -12.7837   26.9596 C   0  0  2  0  0  0  0  0  0  0  0  0
    7.0666  -11.6950   25.9723 C   0  0  0  0  0  0  0  0  0  0  0  0
    8.0952  -13.9580   26.3147 C   0  0  2  0  0  0  0  0  0  0  0  0
    7.3562  -14.5015   25.2151 N   0  0  0  0  0  0  0  0  0  0  0  0
    8.4242  -14.9633   27.3387 C   0  0  0  0  0  0  0  0  0  0  0  0
    7.9494  -16.1190   27.3024 O   0  0  0  0  0  0  0  0  0  0  0  0
    9.2792  -14.6299   28.3708 O   0  0  0  0  0  0  0  0  0  0  0  0
  1  5  1  0
  2  1  1  0
  3  4  1  0
  3  2  1  0
  4  5  1  0
  5  6  1  1
  6  7  2  0
  9  8  1  6
  9 11  1  0
 10  9  1  0
 11 13  1  0
 12  6  1  0
 11 12  1  6
 13 14  2  0
 13 19  1  0
 16 18  1  0
 16 15  1  6
 17 16  1  0
 18 20  1  0
 18 19  1  6
 20 22  1  0
 21 20  2  0
M  END
$$$$
