PTV.pdb
     RDKit          3D

 22 22  0  0  1  0  0  0  0  0999 V2000
    8.6441  -15.0217   19.0179 N   0  0  0  0  0  0  0  0  0  0  0  0
    8.8991  -14.5702   17.6550 C   0  0  0  0  0  0  0  0  0  0  0  0
    8.1025  -13.2868   17.4920 C   0  0  0  0  0  0  0  0  0  0  0  0
    7.5697  -12.9966   18.8818 C   0  0  0  0  0  0  0  0  0  0  0  0
    8.5855  -13.7717   19.7322 C   0  0  1  0  0  0  0  0  0  0  0  0
    8.0563  -13.9223   21.1060 C   0  0  0  0  0  0  0  0  0  0  0  0
    7.7378  -12.9224   21.8020 O   0  0  0  0  0  0  0  0  0  0  0  0
    6.0711  -17.5020   22.0507 C   0  0  0  0  0  0  0  0  0  0  0  0
    7.0266  -16.9859   23.0880 C   0  0  1  0  0  0  0  0  0  0  0  0
    8.2041  -17.6989   23.0864 O   0  0  0  0  0  0  0  0  0  0  0  0
    7.2495  -15.5063   22.8624 C   0  0  2  0  0  0  0  0  0  0  0  0
    7.9200  -15.2434   21.6136 N   0  0  0  0  0  0  0  0  0  0  0  0
    8.0432  -14.9500   23.9846 C   0  0  0  0  0  0  0  0  0  0  0  0
    9.2953  -14.8786   23.9366 O   0  0  0  0  0  0  0  0  0  0  0  0
    6.0530  -13.0396   27.2118 C   0  0  0  0  0  0  0  0  0  0  0  0
    7.4332  -12.6295   26.7538 C   0  0  2  0  0  0  0  0  0  0  0  0
    7.2885  -11.5696   25.7006 C   0  0  0  0  0  0  0  0  0  0  0  0
    8.1257  -13.8768   26.2227 C   0  0  2  0  0  0  0  0  0  0  0  0
    7.3911  -14.4805   25.1520 N   0  0  0  0  0  0  0  0  0  0  0  0
    8.3945  -14.8073   27.3314 C   0  0  0  0  0  0  0  0  0  0  0  0
    9.1515  -14.5015   28.2780 O   0  0  0  0  0  0  0  0  0  0  0  0
    7.7992  -16.0535   27.3347 O   0  0  0  0  0  0  0  0  0  0  0  0
  1  5  1  0
  2  1  1  0
  3  4  1  0
  3  2  1  0
  4  5  1  0
  5  6  1  1
  6  7  2  0
  9  8  1  6
  9 11  1  0
 10  9  1  0
 11 13  1  0
 12  6  1  0
 11 12  1  6
 13 14  2  0
 13 19  1  0
 16 18  1  0
 16 15  1  6
 17 16  1  0
 18 20  1  0
 18 19  1  6
 20 22  1  0
 21 20  2  0
M  END
$$$$
