PTV.pdb
     RDKit          3D

 22 22  0  0  1  0  0  0  0  0999 V2000
    8.5622  -15.1332   18.9684 N   0  0  0  0  0  0  0  0  0  0  0  0
    8.7062  -14.7068   17.5815 C   0  0  0  0  0  0  0  0  0  0  0  0
    7.9592  -13.3879   17.4779 C   0  0  0  0  0  0  0  0  0  0  0  0
    7.5767  -13.0598   18.9081 C   0  0  0  0  0  0  0  0  0  0  0  0
    8.6316  -13.8754   19.6681 C   0  0  1  0  0  0  0  0  0  0  0  0
    8.2303  -13.9879   21.0880 C   0  0  0  0  0  0  0  0  0  0  0  0
    8.0764  -12.9686   21.8113 O   0  0  0  0  0  0  0  0  0  0  0  0
    8.0340  -17.8346   22.9683 C   0  0  0  0  0  0  0  0  0  0  0  0
    6.8100  -16.9654   22.9289 C   0  0  1  0  0  0  0  0  0  0  0  0
    6.0087  -17.1749   24.0285 O   0  0  0  0  0  0  0  0  0  0  0  0
    7.2344  -15.5193   22.7934 C   0  0  2  0  0  0  0  0  0  0  0  0
    8.0239  -15.2950   21.6081 N   0  0  0  0  0  0  0  0  0  0  0  0
    8.0063  -15.1168   23.9937 C   0  0  0  0  0  0  0  0  0  0  0  0
    9.2418  -15.3184   24.0830 O   0  0  0  0  0  0  0  0  0  0  0  0
    6.0974  -12.9558   27.1781 C   0  0  0  0  0  0  0  0  0  0  0  0
    7.5144  -12.6838   26.7300 C   0  0  2  0  0  0  0  0  0  0  0  0
    7.4819  -11.6186   25.6727 C   0  0  0  0  0  0  0  0  0  0  0  0
    8.0860  -13.9945   26.2077 C   0  0  2  0  0  0  0  0  0  0  0  0
    7.3516  -14.4862   25.0810 N   0  0  0  0  0  0  0  0  0  0  0  0
    8.1756  -14.9712   27.3057 C   0  0  0  0  0  0  0  0  0  0  0  0
    7.4817  -16.0108   27.3196 O   0  0  0  0  0  0  0  0  0  0  0  0
    9.0465  -14.7414   28.3526 O   0  0  0  0  0  0  0  0  0  0  0  0
  1  5  1  0
  2  1  1  0
  3  4  1  0
  3  2  1  0
  4  5  1  0
  5  6  1  1
  6  7  2  0
  9  8  1  1
  9 11  1  0
 10  9  1  0
 11 13  1  0
 12  6  1  0
 11 12  1  6
 13 14  2  0
 13 19  1  0
 16 18  1  0
 16 15  1  6
 17 16  1  0
 18 20  1  0
 18 19  1  6
 20 22  1  0
 21 20  2  0
M  END
$$$$
