PTV.pdb
     RDKit          3D

 22 22  0  0  1  0  0  0  0  0999 V2000
    8.9192  -14.8961   19.8106 N   0  0  0  0  0  0  0  0  0  0  0  0
    8.8495  -14.2876   18.4873 C   0  0  0  0  0  0  0  0  0  0  0  0
    7.7285  -13.2650   18.5643 C   0  0  0  0  0  0  0  0  0  0  0  0
    7.3419  -13.2416   20.0304 C   0  0  0  0  0  0  0  0  0  0  0  0
    8.6362  -13.7700   20.6639 C   0  0  1  0  0  0  0  0  0  0  0  0
    8.3666  -14.1666   22.0638 C   0  0  0  0  0  0  0  0  0  0  0  0
    7.7729  -13.3961   22.8636 O   0  0  0  0  0  0  0  0  0  0  0  0
    7.1211  -17.8341   22.8316 C   0  0  0  0  0  0  0  0  0  0  0  0
    8.2807  -17.4979   23.7245 C   0  0  1  0  0  0  0  0  0  0  0  0
    9.4274  -18.1469   23.3258 O   0  0  0  0  0  0  0  0  0  0  0  0
    8.4544  -15.9953   23.7649 C   0  0  2  0  0  0  0  0  0  0  0  0
    8.8046  -15.4553   22.4748 N   0  0  0  0  0  0  0  0  0  0  0  0
    9.5009  -15.6457   24.7556 C   0  0  0  0  0  0  0  0  0  0  0  0
   10.6981  -15.4750   24.4197 O   0  0  0  0  0  0  0  0  0  0  0  0
    8.5851  -14.3789   28.7531 C   0  0  0  0  0  0  0  0  0  0  0  0
    9.8486  -14.0635   27.9871 C   0  0  2  0  0  0  0  0  0  0  0  0
    9.6127  -12.8258   27.1711 C   0  0  0  0  0  0  0  0  0  0  0  0
   10.1678  -15.2723   27.1185 C   0  0  2  0  0  0  0  0  0  0  0  0
    9.1624  -15.4954   26.1235 N   0  0  0  0  0  0  0  0  0  0  0  0
   10.4041  -16.4493   27.9707 C   0  0  0  0  0  0  0  0  0  0  0  0
   11.3299  -16.4786   28.8100 O   0  0  0  0  0  0  0  0  0  0  0  0
    9.5864  -17.5554   27.8468 O   0  0  0  0  0  0  0  0  0  0  0  0
  1  5  1  0
  2  1  1  0
  3  4  1  0
  3  2  1  0
  4  5  1  0
  5  6  1  1
  6  7  2  0
  9  8  1  6
  9 11  1  0
 10  9  1  0
 11 13  1  0
 12  6  1  0
 11 12  1  6
 13 14  2  0
 13 19  1  0
 16 18  1  0
 16 15  1  6
 17 16  1  0
 18 20  1  0
 18 19  1  6
 20 22  1  0
 21 20  2  0
M  END
$$$$
