FNN.pdb
     RDKit          3D

 28 28  0  0  1  0  0  0  0  0999 V2000
    6.0737  -16.3554   25.2776 N   0  0  0  0  0  0  0  0  0  0  0  0
    6.8825  -15.3518   24.6556 C   0  0  1  0  0  0  0  0  0  0  0  0
    7.7028  -14.6567   25.7014 C   0  0  0  0  0  0  0  0  0  0  0  0
    7.0458  -13.3916   26.1054 C   0  0  0  0  0  0  0  0  0  0  0  0
    6.4192  -13.2794   27.3412 C   0  0  0  0  0  0  0  0  0  0  0  0
    5.8184  -12.0858   27.6807 C   0  0  0  0  0  0  0  0  0  0  0  0
    5.8335  -11.0056   26.8081 C   0  0  0  0  0  0  0  0  0  0  0  0
    6.4575  -11.1215   25.5807 C   0  0  0  0  0  0  0  0  0  0  0  0
    7.0591  -12.3229   25.2456 C   0  0  0  0  0  0  0  0  0  0  0  0
    7.6821  -15.8640   23.5299 C   0  0  0  0  0  0  0  0  0  0  0  0
    7.9467  -17.0929   23.4725 O   0  0  0  0  0  0  0  0  0  0  0  0
    7.5468  -12.9563   19.3822 N   0  0  0  0  0  0  0  0  0  0  0  0
    7.9872  -14.2820   19.6125 C   0  0  0  0  0  0  0  0  0  0  0  0
    7.2219  -15.2111   19.1543 O   0  0  0  0  0  0  0  0  0  0  0  0
    9.2292  -14.6200   20.3254 C   0  0  0  0  0  0  0  0  0  0  0  0
    9.0728  -15.5664   21.4450 C   0  0  2  0  0  0  0  0  0  0  0  0
    8.1851  -15.0530   22.4853 N   0  0  0  0  0  0  0  0  0  0  0  0
   10.3340  -15.9522   22.0732 C   0  0  0  0  0  0  0  0  0  0  0  0
   11.0367  -15.0718   22.7019 O   0  0  0  0  0  0  0  0  0  0  0  0
   10.1068  -19.6421   24.5670 N   0  0  0  0  0  0  0  0  0  0  0  0
   11.2909  -18.8465   24.4995 C   0  0  0  0  0  0  0  0  0  0  0  0
   11.5652  -18.1749   25.4995 O   0  0  0  0  0  0  0  0  0  0  0  0
   12.1268  -18.8375   23.2999 C   0  0  0  0  0  0  0  0  0  0  0  0
   12.1931  -17.4782   22.6664 C   0  0  2  0  0  0  0  0  0  0  0  0
   10.8471  -17.2564   22.0419 N   0  0  0  0  0  0  0  0  0  0  0  0
   13.1395  -17.4673   21.5468 C   0  0  0  0  0  0  0  0  0  0  0  0
   12.7469  -17.4137   20.3623 O   0  0  0  0  0  0  0  0  0  0  0  0
   14.4978  -17.5144   21.7521 O   0  0  0  0  0  0  0  0  0  0  0  0
  2  1  1  1
  2  3  1  0
  3  4  1  0
  4  9  2  0
  4  5  1  0
  5  6  2  0
  6  7  1  0
  8  7  2  0
  9  8  1  0
 10  2  1  0
 11 10  2  0
 13 12  1  0
 13 15  1  0
 14 13  2  0
 16 15  1  6
 16 18  1  0
 16 17  1  0
 17 10  1  0
 18 19  2  0
 20 21  1  0
 21 22  2  0
 24 23  1  6
 23 21  1  0
 25 24  1  0
 25 18  1  0
 26 24  1  0
 26 28  1  0
 27 26  2  0
M  END
$$$$
