FNN.pdb
     RDKit          3D

 28 28  0  0  1  0  0  0  0  0999 V2000
    6.8151  -16.1976   25.7073 N   0  0  0  0  0  0  0  0  0  0  0  0
    6.4415  -15.9881   24.3417 C   0  0  1  0  0  0  0  0  0  0  0  0
    5.8152  -14.6324   24.2008 C   0  0  0  0  0  0  0  0  0  0  0  0
    6.3935  -13.6989   25.1955 C   0  0  0  0  0  0  0  0  0  0  0  0
    5.7128  -13.4011   26.3703 C   0  0  0  0  0  0  0  0  0  0  0  0
    6.2835  -12.5272   27.2711 C   0  0  0  0  0  0  0  0  0  0  0  0
    7.5199  -11.9477   27.0179 C   0  0  0  0  0  0  0  0  0  0  0  0
    8.1932  -12.2466   25.8488 C   0  0  0  0  0  0  0  0  0  0  0  0
    7.6146  -13.1250   24.9482 C   0  0  0  0  0  0  0  0  0  0  0  0
    7.5437  -16.2246   23.3939 C   0  0  0  0  0  0  0  0  0  0  0  0
    7.8634  -17.4070   23.1054 O   0  0  0  0  0  0  0  0  0  0  0  0
    7.6891  -12.8509   19.8174 N   0  0  0  0  0  0  0  0  0  0  0  0
    8.2939  -14.1212   19.9758 C   0  0  0  0  0  0  0  0  0  0  0  0
    7.7377  -15.0876   19.3310 O   0  0  0  0  0  0  0  0  0  0  0  0
    9.4786  -14.3653   20.8136 C   0  0  0  0  0  0  0  0  0  0  0  0
    9.3391  -15.4563   21.7954 C   0  0  2  0  0  0  0  0  0  0  0  0
    8.2849  -15.1926   22.7716 N   0  0  0  0  0  0  0  0  0  0  0  0
   10.5691  -15.7560   22.5244 C   0  0  0  0  0  0  0  0  0  0  0  0
   11.2452  -14.8010   23.0679 O   0  0  0  0  0  0  0  0  0  0  0  0
   11.4632  -18.9061   26.4024 N   0  0  0  0  0  0  0  0  0  0  0  0
   10.9899  -17.9372   25.4660 C   0  0  0  0  0  0  0  0  0  0  0  0
    9.8017  -18.0180   25.1375 O   0  0  0  0  0  0  0  0  0  0  0  0
   11.8791  -16.9070   24.9314 C   0  0  0  0  0  0  0  0  0  0  0  0
   12.3107  -17.2060   23.5250 C   0  0  2  0  0  0  0  0  0  0  0  0
   11.0791  -17.0522   22.6821 N   0  0  0  0  0  0  0  0  0  0  0  0
   12.6966  -18.6133   23.3831 C   0  0  0  0  0  0  0  0  0  0  0  0
   11.9848  -19.4238   22.7536 O   0  0  0  0  0  0  0  0  0  0  0  0
   13.8575  -19.1003   23.9350 O   0  0  0  0  0  0  0  0  0  0  0  0
  2  1  1  1
  2  3  1  0
  3  4  1  0
  4  9  2  0
  4  5  1  0
  5  6  2  0
  6  7  1  0
  8  7  2  0
  9  8  1  0
 10  2  1  0
 11 10  2  0
 13 12  1  0
 13 15  1  0
 14 13  2  0
 16 15  1  6
 16 18  1  0
 16 17  1  0
 17 10  1  0
 18 19  2  0
 20 21  1  0
 21 22  2  0
 24 23  1  1
 23 21  1  0
 25 24  1  0
 25 18  1  0
 26 24  1  0
 26 28  1  0
 27 26  2  0
M  END
$$$$
