FNN.pdb
     RDKit          3D

 28 28  0  0  1  0  0  0  0  0999 V2000
    6.1473  -17.2393   25.8611 N   0  0  0  0  0  0  0  0  0  0  0  0
    6.9310  -16.1168   25.4440 C   0  0  1  0  0  0  0  0  0  0  0  0
    7.5446  -15.4650   26.6475 C   0  0  0  0  0  0  0  0  0  0  0  0
    7.1833  -14.0286   26.6877 C   0  0  0  0  0  0  0  0  0  0  0  0
    5.8624  -13.6327   26.8634 C   0  0  0  0  0  0  0  0  0  0  0  0
    5.5660  -12.2866   26.8947 C   0  0  0  0  0  0  0  0  0  0  0  0
    6.5650  -11.3323   26.7539 C   0  0  0  0  0  0  0  0  0  0  0  0
    7.8768  -11.7302   26.5795 C   0  0  0  0  0  0  0  0  0  0  0  0
    8.1679  -13.0836   26.5489 C   0  0  0  0  0  0  0  0  0  0  0  0
    7.9104  -16.4482   24.3952 C   0  0  0  0  0  0  0  0  0  0  0  0
    8.3084  -17.6364   24.2790 O   0  0  0  0  0  0  0  0  0  0  0  0
   10.1375  -15.1225   19.6348 N   0  0  0  0  0  0  0  0  0  0  0  0
    8.7469  -14.9393   19.8270 C   0  0  0  0  0  0  0  0  0  0  0  0
    8.0902  -14.5351   18.7953 O   0  0  0  0  0  0  0  0  0  0  0  0
    8.0579  -15.1811   21.1044 C   0  0  0  0  0  0  0  0  0  0  0  0
    8.8661  -15.8575   22.1354 C   0  0  2  0  0  0  0  0  0  0  0  0
    8.4472  -15.5033   23.4893 N   0  0  0  0  0  0  0  0  0  0  0  0
   10.3004  -15.6039   22.0224 C   0  0  0  0  0  0  0  0  0  0  0  0
   10.9224  -15.8955   20.9304 O   0  0  0  0  0  0  0  0  0  0  0  0
   12.2935  -19.4276   24.2480 N   0  0  0  0  0  0  0  0  0  0  0  0
   12.0611  -18.1522   24.8471 C   0  0  0  0  0  0  0  0  0  0  0  0
   12.5894  -17.9512   25.9456 O   0  0  0  0  0  0  0  0  0  0  0  0
   11.2365  -17.1447   24.1816 C   0  0  0  0  0  0  0  0  0  0  0  0
   12.0381  -15.9499   23.7536 C   0  0  2  0  0  0  0  0  0  0  0  0
   11.0707  -15.0437   23.0509 N   0  0  0  0  0  0  0  0  0  0  0  0
   13.0249  -16.3186   22.7339 C   0  0  0  0  0  0  0  0  0  0  0  0
   14.0108  -15.5921   22.4886 O   0  0  0  0  0  0  0  0  0  0  0  0
   12.9083  -17.4785   22.0058 O   0  0  0  0  0  0  0  0  0  0  0  0
  2  1  1  1
  2  3  1  0
  3  4  1  0
  4  9  2  0
  4  5  1  0
  5  6  2  0
  6  7  1  0
  8  7  2  0
  9  8  1  0
 10  2  1  0
 11 10  2  0
 13 12  1  0
 13 15  1  0
 14 13  2  0
 16 15  1  6
 16 18  1  0
 16 17  1  0
 17 10  1  0
 18 19  2  0
 20 21  1  0
 21 22  2  0
 24 23  1  6
 23 21  1  0
 25 24  1  0
 25 18  1  0
 26 24  1  0
 26 28  1  0
 27 26  2  0
M  END
$$$$
