FNN.pdb
     RDKit          3D

 28 28  0  0  1  0  0  0  0  0999 V2000
    5.9574  -17.3577   25.2442 N   0  0  0  0  0  0  0  0  0  0  0  0
    6.6563  -16.1497   24.9273 C   0  0  1  0  0  0  0  0  0  0  0  0
    7.1962  -15.5430   26.1884 C   0  0  0  0  0  0  0  0  0  0  0  0
    6.8408  -14.1061   26.2544 C   0  0  0  0  0  0  0  0  0  0  0  0
    5.7053  -13.6855   26.9372 C   0  0  0  0  0  0  0  0  0  0  0  0
    5.4078  -12.3398   26.9754 C   0  0  0  0  0  0  0  0  0  0  0  0
    6.2239  -11.4102   26.3444 C   0  0  0  0  0  0  0  0  0  0  0  0
    7.3517  -11.8326   25.6668 C   0  0  0  0  0  0  0  0  0  0  0  0
    7.6450  -13.1855   25.6320 C   0  0  0  0  0  0  0  0  0  0  0  0
    7.6762  -16.3252   23.8794 C   0  0  0  0  0  0  0  0  0  0  0  0
    8.3020  -17.4145   23.8068 O   0  0  0  0  0  0  0  0  0  0  0  0
    6.7417  -13.2494   20.0734 N   0  0  0  0  0  0  0  0  0  0  0  0
    7.4669  -14.4622   20.1608 C   0  0  0  0  0  0  0  0  0  0  0  0
    6.8751  -15.5011   19.6817 O   0  0  0  0  0  0  0  0  0  0  0  0
    8.8089  -14.5729   20.7538 C   0  0  0  0  0  0  0  0  0  0  0  0
    8.9399  -15.5741   21.8281 C   0  0  2  0  0  0  0  0  0  0  0  0
    8.0093  -15.3325   22.9279 N   0  0  0  0  0  0  0  0  0  0  0  0
   10.2870  -15.6702   22.3852 C   0  0  0  0  0  0  0  0  0  0  0  0
   10.8479  -14.6281   22.8986 O   0  0  0  0  0  0  0  0  0  0  0  0
   14.4275  -17.6806   24.8078 N   0  0  0  0  0  0  0  0  0  0  0  0
   13.3308  -18.5938   24.7535 C   0  0  0  0  0  0  0  0  0  0  0  0
   13.4502  -19.6423   25.3959 O   0  0  0  0  0  0  0  0  0  0  0  0
   12.1330  -18.2892   23.9723 C   0  0  0  0  0  0  0  0  0  0  0  0
   12.1917  -16.9217   23.3560 C   0  0  2  0  0  0  0  0  0  0  0  0
   11.0339  -16.8563   22.4041 N   0  0  0  0  0  0  0  0  0  0  0  0
   13.3846  -16.7759   22.5162 C   0  0  0  0  0  0  0  0  0  0  0  0
   14.5087  -16.5550   23.0137 O   0  0  0  0  0  0  0  0  0  0  0  0
   13.3175  -16.8772   21.1470 O   0  0  0  0  0  0  0  0  0  0  0  0
  2  1  1  1
  2  3  1  0
  3  4  1  0
  4  9  2  0
  4  5  1  0
  5  6  2  0
  6  7  1  0
  8  7  2  0
  9  8  1  0
 10  2  1  0
 11 10  2  0
 13 12  1  0
 13 15  1  0
 14 13  2  0
 16 15  1  6
 16 18  1  0
 16 17  1  0
 17 10  1  0
 18 19  2  0
 20 21  1  0
 21 22  2  0
 24 23  1  6
 23 21  1  0
 25 24  1  0
 25 18  1  0
 26 24  1  0
 26 28  1  0
 27 26  2  0
M  END
$$$$
