RVL.pdb
     RDKit          3D

 27 26  0  0  1  0  0  0  0  0999 V2000
    8.5185  -19.8941   17.7182 N   0  0  0  0  0  0  0  0  0  0  0  0
    7.4882  -18.9061   17.3941 C   0  0  0  0  0  0  0  0  0  0  0  0
    6.2690  -19.2389   17.4324 N   0  0  0  0  0  0  0  0  0  0  0  0
    7.8517  -17.5887   17.0544 N   0  0  0  0  0  0  0  0  0  0  0  0
    8.3307  -16.5866   17.9131 C   0  0  0  0  0  0  0  0  0  0  0  0
    8.3935  -16.8013   19.3691 C   0  0  0  0  0  0  0  0  0  0  0  0
    8.8355  -15.5610   20.0929 C   0  0  0  0  0  0  0  0  0  0  0  0
    7.7856  -14.5697   20.4612 C   0  0  2  0  0  0  0  0  0  0  0  0
    7.7700  -13.4407   19.5371 N   0  0  0  0  0  0  0  0  0  0  0  0
    8.1638  -13.9722   21.7840 C   0  0  0  0  0  0  0  0  0  0  0  0
    9.0792  -13.1007   21.8276 O   0  0  0  0  0  0  0  0  0  0  0  0
    5.4720  -18.6558   17.2765 C   0  0  0  0  0  0  0  0  0  0  0  0
    6.8804  -12.9717   26.4135 C   0  0  1  0  0  0  0  0  0  0  0  0
    6.5978  -13.3056   24.9749 C   0  0  0  0  0  0  0  0  0  0  0  0
    5.9024  -12.2176   24.2315 C   0  0  1  0  0  0  0  0  0  0  0  0
    7.8457  -13.7960   24.2678 N   0  0  0  0  0  0  0  0  0  0  0  0
    7.5225  -14.3596   22.9767 C   0  0  0  0  0  0  0  0  0  0  0  0
    8.5417  -14.8239   25.1304 O   0  0  0  0  0  0  0  0  0  0  0  0
    8.4128  -16.0490   24.8895 C   0  0  0  0  0  0  0  0  0  0  0  0
   12.7257  -15.2969   29.0642 C   0  0  2  0  0  0  0  0  0  0  0  0
   11.2062  -15.1596   29.4202 C   0  0  0  0  0  0  0  0  0  0  0  0
   11.2112  -14.5086   30.7260 C   0  0  0  0  0  0  0  0  0  0  0  0
   10.5640  -14.6186   28.2450 C   0  0  1  0  0  0  0  0  0  0  0  0
   10.0294  -15.3799   27.1254 N   0  0  0  0  0  0  0  0  0  0  0  0
    9.3447  -14.4214   26.2151 C   0  0  0  0  0  0  0  0  0  0  0  0
    9.1057  -16.4848   27.4354 O   0  0  0  0  0  0  0  0  0  0  0  0
    9.4203  -17.8146   27.3658 O   0  0  0  0  0  0  0  0  0  0  0  0
  1  2  1  0
  2  3  2  0
  4  2  1  0
  5  4  1  0
  6  5  1  0
  7  6  1  0
  8 10  1  0
  8  7  1  0
  8  9  1  6
 10 11  2  0
 10 16  1  0
 13 12  1  1
 13 14  1  0
 15 13  1  0
 15 16  1  1
 17 18  2  0
 17 15  1  0
 20 22  1  0
 20 19  1  1
 21 20  1  0
 23 22  1  6
 23 24  1  0
 24 17  1  0
 25 23  1  0
 26 25  1  0
 27 25  2  0
M  END
$$$$
