RVL.pdb
     RDKit          3D

 27 26  0  0  1  0  0  0  0  0999 V2000
    6.5182  -22.5378   19.7532 N   0  0  0  0  0  0  0  0  0  0  0  0
    5.7139  -21.3634   19.4117 C   0  0  0  0  0  0  0  0  0  0  0  0
    5.0084  -21.3727   18.3625 N   0  0  0  0  0  0  0  0  0  0  0  0
    5.7153  -20.2345   20.2534 N   0  0  0  0  0  0  0  0  0  0  0  0
    6.4839  -20.0331   21.4108 C   0  0  0  0  0  0  0  0  0  0  0  0
    7.9363  -20.2796   21.4094 C   0  0  0  0  0  0  0  0  0  0  0  0
    8.7144  -19.0035   21.5635 C   0  0  0  0  0  0  0  0  0  0  0  0
    9.0456  -18.2469   20.3231 C   0  0  2  0  0  0  0  0  0  0  0  0
   10.2080  -18.8131   19.6471 N   0  0  0  0  0  0  0  0  0  0  0  0
    9.4763  -16.8686   20.7286 C   0  0  0  0  0  0  0  0  0  0  0  0
   10.7107  -16.5979   20.7775 O   0  0  0  0  0  0  0  0  0  0  0  0
    4.4174  -20.6436   18.0179 C   0  0  0  0  0  0  0  0  0  0  0  0
    7.9006  -12.1701   21.0854 C   0  0  1  0  0  0  0  0  0  0  0  0
    7.7069  -13.6057   20.6824 C   0  0  0  0  0  0  0  0  0  0  0  0
    7.3799  -13.7854   19.2399 C   0  0  1  0  0  0  0  0  0  0  0  0
    8.8706  -14.4663   21.1329 N   0  0  0  0  0  0  0  0  0  0  0  0
    8.5376  -15.8706   21.0551 C   0  0  0  0  0  0  0  0  0  0  0  0
    9.2533  -14.0946   22.5473 O   0  0  0  0  0  0  0  0  0  0  0  0
    9.7013  -12.9509   22.8055 C   0  0  0  0  0  0  0  0  0  0  0  0
    8.1788  -11.8128   26.6229 C   0  0  2  0  0  0  0  0  0  0  0  0
    7.4009  -13.1539   26.3975 C   0  0  0  0  0  0  0  0  0  0  0  0
    6.0059  -12.7902   26.6226 C   0  0  0  0  0  0  0  0  0  0  0  0
    7.9065  -13.7110   25.1645 C   0  0  1  0  0  0  0  0  0  0  0  0
    9.0221  -14.6361   25.0284 N   0  0  0  0  0  0  0  0  0  0  0  0
    9.1118  -15.0257   23.5944 C   0  0  0  0  0  0  0  0  0  0  0  0
    8.9961  -15.8567   25.8527 O   0  0  0  0  0  0  0  0  0  0  0  0
    8.5216  -17.0724   25.4413 O   0  0  0  0  0  0  0  0  0  0  0  0
  1  2  1  0
  2  3  2  0
  4  2  1  0
  5  4  1  0
  6  5  1  0
  7  6  1  0
  8 10  1  0
  8  7  1  0
  8  9  1  1
 10 11  2  0
 10 16  1  0
 13 12  1  1
 13 14  1  0
 15 13  1  0
 15 16  1  1
 17 18  2  0
 17 15  1  0
 20 22  1  0
 20 19  1  1
 21 20  1  0
 23 22  1  6
 23 24  1  0
 24 17  1  0
 25 23  1  0
 26 25  1  0
 27 25  2  0
M  END
$$$$
