RVL.pdb
     RDKit          3D

 27 26  0  0  1  0  0  0  0  0999 V2000
    9.1790  -22.2412   20.4381 N   0  0  0  0  0  0  0  0  0  0  0  0
    8.1688  -21.7140   19.5194 C   0  0  0  0  0  0  0  0  0  0  0  0
    7.9053  -22.3410   18.4534 N   0  0  0  0  0  0  0  0  0  0  0  0
    7.4844  -20.5223   19.8268 N   0  0  0  0  0  0  0  0  0  0  0  0
    7.8064  -19.5847   20.8209 C   0  0  0  0  0  0  0  0  0  0  0  0
    9.1813  -19.4678   21.3367 C   0  0  0  0  0  0  0  0  0  0  0  0
    9.3202  -18.3102   22.2845 C   0  0  0  0  0  0  0  0  0  0  0  0
    9.4215  -16.9462   21.6927 C   0  0  2  0  0  0  0  0  0  0  0  0
   10.6659  -16.7781   20.9496 N   0  0  0  0  0  0  0  0  0  0  0  0
    9.5178  -15.9632   22.8215 C   0  0  0  0  0  0  0  0  0  0  0  0
   10.6461  -15.7339   23.3446 O   0  0  0  0  0  0  0  0  0  0  0  0
    7.2395  -22.0950   17.7493 C   0  0  0  0  0  0  0  0  0  0  0  0
    7.1420  -12.7169   25.7632 C   0  0  1  0  0  0  0  0  0  0  0  0
    7.2526  -13.4553   24.4580 C   0  0  0  0  0  0  0  0  0  0  0  0
    7.2709  -12.5644   23.2639 C   0  0  1  0  0  0  0  0  0  0  0  0
    8.4073  -14.4372   24.4767 N   0  0  0  0  0  0  0  0  0  0  0  0
    8.3809  -15.2908   23.3105 C   0  0  0  0  0  0  0  0  0  0  0  0
    8.3409  -15.2682   25.7376 O   0  0  0  0  0  0  0  0  0  0  0  0
    7.7202  -16.3591   25.7487 C   0  0  0  0  0  0  0  0  0  0  0  0
   11.9676  -18.4093   26.4638 C   0  0  2  0  0  0  0  0  0  0  0  0
   11.2938  -17.7108   27.6936 C   0  0  0  0  0  0  0  0  0  0  0  0
   12.3759  -17.5956   28.6656 C   0  0  0  0  0  0  0  0  0  0  0  0
   10.5539  -16.5888   27.1647 C   0  0  1  0  0  0  0  0  0  0  0  0
    9.6101  -15.7554   27.8951 N   0  0  0  0  0  0  0  0  0  0  0  0
    8.9749  -14.8305   26.9165 C   0  0  0  0  0  0  0  0  0  0  0  0
   10.1331  -14.9675   29.0245 O   0  0  0  0  0  0  0  0  0  0  0  0
   10.3864  -13.6232   28.9941 O   0  0  0  0  0  0  0  0  0  0  0  0
  1  2  1  0
  2  3  2  0
  4  2  1  0
  5  4  1  0
  6  5  1  0
  7  6  1  0
  8 10  1  0
  8  7  1  0
  8  9  1  6
 10 11  2  0
 10 16  1  0
 13 12  1  6
 13 14  1  0
 15 13  1  0
 15 16  1  6
 17 18  2  0
 17 15  1  0
 20 22  1  0
 20 19  1  1
 21 20  1  0
 23 22  1  6
 23 24  1  0
 24 17  1  0
 25 23  1  0
 26 25  1  0
 27 25  2  0
M  END
$$$$
