RVL.pdb
     RDKit          3D

 27 26  0  0  1  0  0  0  0  0999 V2000
    8.9927  -15.2659   15.6369 N   0  0  0  0  0  0  0  0  0  0  0  0
    8.3860  -14.0176   16.1018 C   0  0  0  0  0  0  0  0  0  0  0  0
    8.9073  -12.9115   15.7801 N   0  0  0  0  0  0  0  0  0  0  0  0
    7.2206  -14.0473   16.8917 N   0  0  0  0  0  0  0  0  0  0  0  0
    6.9935  -14.8065   18.0507 C   0  0  0  0  0  0  0  0  0  0  0  0
    7.0945  -14.1977   19.3883 C   0  0  0  0  0  0  0  0  0  0  0  0
    6.7643  -15.1848   20.4719 C   0  0  0  0  0  0  0  0  0  0  0  0
    7.3652  -16.5446   20.3688 C   0  0  2  0  0  0  0  0  0  0  0  0
    6.3474  -17.5603   20.1213 N   0  0  0  0  0  0  0  0  0  0  0  0
    7.9344  -16.8968   21.7110 C   0  0  0  0  0  0  0  0  0  0  0  0
    7.1648  -17.3462   22.6083 O   0  0  0  0  0  0  0  0  0  0  0  0
    8.6050  -11.9952   16.0419 C   0  0  0  0  0  0  0  0  0  0  0  0
   11.9284  -18.0708   24.3518 C   0  0  1  0  0  0  0  0  0  0  0  0
   11.2701  -17.7384   23.0414 C   0  0  0  0  0  0  0  0  0  0  0  0
   11.2478  -18.8730   22.0759 C   0  0  1  0  0  0  0  0  0  0  0  0
    9.9025  -17.1198   23.2532 N   0  0  0  0  0  0  0  0  0  0  0  0
    9.3052  -16.7386   21.9934 C   0  0  0  0  0  0  0  0  0  0  0  0
   10.0293  -15.9170   24.1598 O   0  0  0  0  0  0  0  0  0  0  0  0
   10.4015  -14.8099   23.6998 C   0  0  0  0  0  0  0  0  0  0  0  0
    6.2361  -13.0324   26.1029 C   0  0  2  0  0  0  0  0  0  0  0  0
    7.7897  -12.8313   26.1210 C   0  0  0  0  0  0  0  0  0  0  0  0
    8.0467  -12.2145   27.4181 C   0  0  0  0  0  0  0  0  0  0  0  0
    8.3636  -14.0845   25.6892 C   0  0  2  0  0  0  0  0  0  0  0  0
    9.3865  -14.8511   26.3854 N   0  0  0  0  0  0  0  0  0  0  0  0
    9.7310  -16.0214   25.5322 C   0  0  0  0  0  0  0  0  0  0  0  0
    9.0708  -15.3282   27.7429 O   0  0  0  0  0  0  0  0  0  0  0  0
    8.1594  -16.3044   28.0404 O   0  0  0  0  0  0  0  0  0  0  0  0
  1  2  1  0
  2  3  2  0
  4  2  1  0
  5  4  1  0
  6  5  1  0
  7  6  1  0
  8 10  1  0
  8  7  1  0
  8  9  1  1
 10 11  2  0
 10 16  1  0
 13 12  1  6
 13 14  1  0
 15 13  1  0
 15 16  1  6
 17 18  2  0
 17 15  1  0
 20 22  1  0
 20 19  1  6
 21 20  1  0
 23 22  1  6
 23 24  1  0
 24 17  1  0
 25 23  1  0
 26 25  1  0
 27 25  2  0
M  END
$$$$
