RVL.pdb
     RDKit          3D

 27 26  0  0  1  0  0  0  0  0999 V2000
    8.0576  -12.4649   16.2642 N   0  0  0  0  0  0  0  0  0  0  0  0
    8.0556  -13.7093   15.4933 C   0  0  0  0  0  0  0  0  0  0  0  0
    7.9167  -13.6661   14.2372 N   0  0  0  0  0  0  0  0  0  0  0  0
    8.2209  -14.9467   16.1447 N   0  0  0  0  0  0  0  0  0  0  0  0
    7.9218  -15.2548   17.4814 C   0  0  0  0  0  0  0  0  0  0  0  0
    7.5833  -14.1949   18.4468 C   0  0  0  0  0  0  0  0  0  0  0  0
    7.2356  -14.7634   19.7935 C   0  0  0  0  0  0  0  0  0  0  0  0
    8.3453  -15.3436   20.6014 C   0  0  2  0  0  0  0  0  0  0  0  0
    8.7277  -16.6639   20.1122 N   0  0  0  0  0  0  0  0  0  0  0  0
    7.8241  -15.5884   21.9864 C   0  0  0  0  0  0  0  0  0  0  0  0
    7.0540  -14.7356   22.5148 O   0  0  0  0  0  0  0  0  0  0  0  0
    7.9441  -14.4306   13.5936 C   0  0  0  0  0  0  0  0  0  0  0  0
    7.3400  -18.7980   25.7602 C   0  0  2  0  0  0  0  0  0  0  0  0
    7.7449  -18.5107   24.3409 C   0  0  0  0  0  0  0  0  0  0  0  0
    7.0266  -19.3392   23.3322 C   0  0  1  0  0  0  0  0  0  0  0  0
    7.6773  -17.0268   24.0384 N   0  0  0  0  0  0  0  0  0  0  0  0
    8.1725  -16.7455   22.7100 C   0  0  0  0  0  0  0  0  0  0  0  0
    8.4786  -16.2659   25.0698 O   0  0  0  0  0  0  0  0  0  0  0  0
    9.7308  -16.3495   25.0910 C   0  0  0  0  0  0  0  0  0  0  0  0
    6.3115  -11.5314   26.9464 C   0  0  2  0  0  0  0  0  0  0  0  0
    7.1589  -12.6164   26.1987 C   0  0  0  0  0  0  0  0  0  0  0  0
    7.8748  -11.8579   25.1784 C   0  0  0  0  0  0  0  0  0  0  0  0
    7.8006  -13.4047   27.2249 C   0  0  2  0  0  0  0  0  0  0  0  0
    8.5609  -14.6296   27.0239 N   0  0  0  0  0  0  0  0  0  0  0  0
    7.8317  -15.4527   26.0203 C   0  0  0  0  0  0  0  0  0  0  0  0
    8.8374  -15.4590   28.2094 O   0  0  0  0  0  0  0  0  0  0  0  0
    8.2754  -16.6808   28.4618 O   0  0  0  0  0  0  0  0  0  0  0  0
  1  2  1  0
  2  3  2  0
  4  2  1  0
  5  4  1  0
  6  5  1  0
  7  6  1  0
  8 10  1  0
  8  7  1  0
  8  9  1  6
 10 11  2  0
 10 16  1  0
 13 12  1  1
 13 14  1  0
 15 13  1  0
 15 16  1  6
 17 18  2  0
 17 15  1  0
 20 22  1  0
 20 19  1  6
 21 20  1  0
 23 22  1  6
 23 24  1  0
 24 17  1  0
 25 23  1  0
 26 25  1  0
 27 25  2  0
M  END
$$$$
