RVL.pdb
     RDKit          3D

 27 26  0  0  1  0  0  0  0  0999 V2000
   14.3844  -13.9206   16.9265 N   0  0  0  0  0  0  0  0  0  0  0  0
   15.2007  -14.5934   17.9383 C   0  0  0  0  0  0  0  0  0  0  0  0
   16.2847  -15.1488   17.5987 N   0  0  0  0  0  0  0  0  0  0  0  0
   14.7882  -14.6109   19.2845 N   0  0  0  0  0  0  0  0  0  0  0  0
   13.6172  -14.0572   19.8263 C   0  0  0  0  0  0  0  0  0  0  0  0
   12.3146  -14.2396   19.1631 C   0  0  0  0  0  0  0  0  0  0  0  0
   11.2687  -14.7313   20.1235 C   0  0  0  0  0  0  0  0  0  0  0  0
    9.9003  -14.9719   19.5847 C   0  0  2  0  0  0  0  0  0  0  0  0
    9.5041  -13.9260   18.6478 N   0  0  0  0  0  0  0  0  0  0  0  0
    8.9316  -14.8484   20.7232 C   0  0  0  0  0  0  0  0  0  0  0  0
    8.2031  -13.8178   20.8037 O   0  0  0  0  0  0  0  0  0  0  0  0
   16.9619  -15.5805   18.1941 C   0  0  0  0  0  0  0  0  0  0  0  0
    6.2042  -18.1739   23.0579 C   0  0  1  0  0  0  0  0  0  0  0  0
    7.2426  -17.6801   22.0889 C   0  0  0  0  0  0  0  0  0  0  0  0
    6.9283  -17.9855   20.6649 C   0  0  1  0  0  0  0  0  0  0  0  0
    7.5596  -16.2158   22.3199 N   0  0  0  0  0  0  0  0  0  0  0  0
    8.8155  -15.8537   21.7029 C   0  0  0  0  0  0  0  0  0  0  0  0
    7.6048  -15.9390   23.8052 O   0  0  0  0  0  0  0  0  0  0  0  0
    6.5941  -16.1423   24.5213 C   0  0  0  0  0  0  0  0  0  0  0  0
    6.0049  -12.7651   26.5063 C   0  0  1  0  0  0  0  0  0  0  0  0
    7.4146  -13.0713   25.8953 C   0  0  0  0  0  0  0  0  0  0  0  0
    8.2135  -11.9060   26.2597 C   0  0  0  0  0  0  0  0  0  0  0  0
    7.7339  -14.4271   26.2775 C   0  0  2  0  0  0  0  0  0  0  0  0
    8.9050  -15.1872   25.8660 N   0  0  0  0  0  0  0  0  0  0  0  0
    8.7810  -15.4502   24.4059 C   0  0  0  0  0  0  0  0  0  0  0  0
    9.1653  -16.4610   26.5587 O   0  0  0  0  0  0  0  0  0  0  0  0
    9.7592  -16.5809   27.7855 O   0  0  0  0  0  0  0  0  0  0  0  0
  1  2  1  0
  2  3  2  0
  4  2  1  0
  5  4  1  0
  6  5  1  0
  7  6  1  0
  8 10  1  0
  8  7  1  0
  8  9  1  6
 10 11  2  0
 10 16  1  0
 13 12  1  1
 13 14  1  0
 15 13  1  0
 15 16  1  1
 17 18  2  0
 17 15  1  0
 20 22  1  0
 20 19  1  6
 21 20  1  0
 23 22  1  6
 23 24  1  0
 24 17  1  0
 25 23  1  0
 26 25  1  0
 27 25  2  0
M  END
$$$$
