RVL.pdb
     RDKit          3D

 27 26  0  0  1  0  0  0  0  0999 V2000
   12.5892  -16.2789   18.7633 N   0  0  0  0  0  0  0  0  0  0  0  0
   12.9744  -14.8680   18.7040 C   0  0  0  0  0  0  0  0  0  0  0  0
   14.1651  -14.5568   18.4138 N   0  0  0  0  0  0  0  0  0  0  0  0
   12.0216  -13.8621   18.9556 N   0  0  0  0  0  0  0  0  0  0  0  0
   10.6333  -13.9323   18.7587 C   0  0  0  0  0  0  0  0  0  0  0  0
    9.9412  -15.2310   18.6927 C   0  0  0  0  0  0  0  0  0  0  0  0
    9.0814  -15.4620   19.9032 C   0  0  0  0  0  0  0  0  0  0  0  0
    8.3717  -16.7686   20.0025 C   0  0  2  0  0  0  0  0  0  0  0  0
    7.3423  -16.8960   18.9764 N   0  0  0  0  0  0  0  0  0  0  0  0
    7.6187  -16.7834   21.2996 C   0  0  0  0  0  0  0  0  0  0  0  0
    6.4323  -17.2208   21.3186 O   0  0  0  0  0  0  0  0  0  0  0  0
   14.5536  -13.6393   18.3322 C   0  0  0  0  0  0  0  0  0  0  0  0
    7.3547  -18.5596   25.4055 C   0  0  1  0  0  0  0  0  0  0  0  0
    7.7137  -18.1851   23.9942 C   0  0  0  0  0  0  0  0  0  0  0  0
    6.9106  -18.8976   22.9612 C   0  0  1  0  0  0  0  0  0  0  0  0
    7.7119  -16.6809   23.8060 N   0  0  0  0  0  0  0  0  0  0  0  0
    8.2033  -16.3219   22.4950 C   0  0  0  0  0  0  0  0  0  0  0  0
    8.5604  -16.0384   24.8793 O   0  0  0  0  0  0  0  0  0  0  0  0
    9.7137  -16.4705   25.1222 C   0  0  0  0  0  0  0  0  0  0  0  0
    6.1655  -11.7942   27.8459 C   0  0  2  0  0  0  0  0  0  0  0  0
    6.8245  -12.6497   26.7108 C   0  0  0  0  0  0  0  0  0  0  0  0
    6.8566  -11.7454   25.5662 C   0  0  0  0  0  0  0  0  0  0  0  0
    7.9947  -13.2623   27.2954 C   0  0  2  0  0  0  0  0  0  0  0  0
    8.8673  -14.2383   26.6593 N   0  0  0  0  0  0  0  0  0  0  0  0
    8.0695  -14.9464   25.6207 C   0  0  0  0  0  0  0  0  0  0  0  0
    9.5136  -15.2382   27.5268 O   0  0  0  0  0  0  0  0  0  0  0  0
   10.7191  -15.0733   28.1526 O   0  0  0  0  0  0  0  0  0  0  0  0
  1  2  1  0
  2  3  2  0
  4  2  1  0
  5  4  1  0
  6  5  1  0
  7  6  1  0
  8 10  1  0
  8  7  1  0
  8  9  1  6
 10 11  2  0
 10 16  1  0
 13 12  1  6
 13 14  1  0
 15 13  1  0
 15 16  1  6
 17 18  2  0
 17 15  1  0
 20 22  1  0
 20 19  1  6
 21 20  1  0
 23 22  1  6
 23 24  1  0
 24 17  1  0
 25 23  1  0
 26 25  1  0
 27 25  2  0
M  END
$$$$
