RVL.pdb
     RDKit          3D

 27 26  0  0  1  0  0  0  0  0999 V2000
   10.2402  -22.5676   19.3240 N   0  0  0  0  0  0  0  0  0  0  0  0
    9.2621  -23.3176   20.1136 C   0  0  0  0  0  0  0  0  0  0  0  0
    9.2740  -24.5817   20.0863 N   0  0  0  0  0  0  0  0  0  0  0  0
    8.3215  -22.6360   20.9096 N   0  0  0  0  0  0  0  0  0  0  0  0
    8.2869  -21.2638   21.2045 C   0  0  0  0  0  0  0  0  0  0  0  0
    9.5012  -20.4357   21.1055 C   0  0  0  0  0  0  0  0  0  0  0  0
    9.2254  -19.0036   21.4671 C   0  0  0  0  0  0  0  0  0  0  0  0
    9.0101  -18.0421   20.3492 C   0  0  2  0  0  0  0  0  0  0  0  0
    9.9223  -18.3003   19.2401 N   0  0  0  0  0  0  0  0  0  0  0  0
    9.3873  -16.6762   20.8408 C   0  0  0  0  0  0  0  0  0  0  0  0
   10.6111  -16.3762   20.9491 O   0  0  0  0  0  0  0  0  0  0  0  0
    8.6600  -25.2083   20.5657 C   0  0  0  0  0  0  0  0  0  0  0  0
    7.7932  -12.0247   21.5215 C   0  0  2  0  0  0  0  0  0  0  0  0
    7.5972  -13.4262   21.0133 C   0  0  0  0  0  0  0  0  0  0  0  0
    7.3463  -13.5034   19.5467 C   0  0  1  0  0  0  0  0  0  0  0  0
    8.7198  -14.3385   21.4664 N   0  0  0  0  0  0  0  0  0  0  0  0
    8.4099  -15.7217   21.1837 C   0  0  0  0  0  0  0  0  0  0  0  0
    8.9587  -14.1456   22.9465 O   0  0  0  0  0  0  0  0  0  0  0  0
    9.1839  -13.0014   23.4108 C   0  0  0  0  0  0  0  0  0  0  0  0
    5.9388  -12.7059   26.0940 C   0  0  1  0  0  0  0  0  0  0  0  0
    7.4502  -12.9635   25.7720 C   0  0  0  0  0  0  0  0  0  0  0  0
    8.1596  -12.1979   26.7915 C   0  0  0  0  0  0  0  0  0  0  0  0
    7.5854  -14.3894   25.5858 C   0  0  2  0  0  0  0  0  0  0  0  0
    8.8180  -15.1102   25.3029 N   0  0  0  0  0  0  0  0  0  0  0  0
    8.9310  -15.2462   23.8246 C   0  0  0  0  0  0  0  0  0  0  0  0
    8.9837  -16.4388   25.9172 O   0  0  0  0  0  0  0  0  0  0  0  0
    9.4432  -16.6658   27.1859 O   0  0  0  0  0  0  0  0  0  0  0  0
  1  2  1  0
  2  3  2  0
  4  2  1  0
  5  4  1  0
  6  5  1  0
  7  6  1  0
  8 10  1  0
  8  7  1  0
  8  9  1  6
 10 11  2  0
 10 16  1  0
 13 12  1  1
 13 14  1  0
 15 13  1  0
 15 16  1  1
 17 18  2  0
 17 15  1  0
 20 22  1  0
 20 19  1  6
 21 20  1  0
 23 22  1  6
 23 24  1  0
 24 17  1  0
 25 23  1  0
 26 25  1  0
 27 25  2  0
M  END
$$$$
