RVL.pdb
     RDKit          3D

 27 26  0  0  1  0  0  0  0  0999 V2000
   12.0586  -22.5440   21.9743 N   0  0  0  0  0  0  0  0  0  0  0  0
   11.3684  -21.3544   22.4753 C   0  0  0  0  0  0  0  0  0  0  0  0
   11.7895  -20.2060   22.1548 N   0  0  0  0  0  0  0  0  0  0  0  0
   10.2339  -21.4875   23.2987 N   0  0  0  0  0  0  0  0  0  0  0  0
    8.8937  -21.2561   22.9502 C   0  0  0  0  0  0  0  0  0  0  0  0
    8.5420  -20.6213   21.6683 C   0  0  0  0  0  0  0  0  0  0  0  0
    8.4150  -19.1303   21.8056 C   0  0  0  0  0  0  0  0  0  0  0  0
    8.0352  -18.3584   20.5888 C   0  0  2  0  0  0  0  0  0  0  0  0
    8.6281  -18.9329   19.3858 N   0  0  0  0  0  0  0  0  0  0  0  0
    8.6501  -16.9949   20.7010 C   0  0  0  0  0  0  0  0  0  0  0  0
    9.8796  -16.8500   20.4425 O   0  0  0  0  0  0  0  0  0  0  0  0
   11.4508  -19.3209   22.4732 C   0  0  0  0  0  0  0  0  0  0  0  0
    7.8810  -12.1183   21.1512 C   0  0  2  0  0  0  0  0  0  0  0  0
    7.4670  -13.4980   20.7200 C   0  0  0  0  0  0  0  0  0  0  0  0
    7.1846  -13.6118   19.2615 C   0  0  1  0  0  0  0  0  0  0  0  0
    8.4453  -14.5459   21.2128 N   0  0  0  0  0  0  0  0  0  0  0  0
    7.8893  -15.8741   21.0869 C   0  0  0  0  0  0  0  0  0  0  0  0
    8.8045  -14.2611   22.6532 O   0  0  0  0  0  0  0  0  0  0  0  0
    9.5403  -13.2868   22.9447 C   0  0  0  0  0  0  0  0  0  0  0  0
    5.2617  -13.4646   26.4745 C   0  0  1  0  0  0  0  0  0  0  0  0
    6.6642  -13.2286   25.8175 C   0  0  0  0  0  0  0  0  0  0  0  0
    7.1977  -12.0772   26.5377 C   0  0  0  0  0  0  0  0  0  0  0  0
    7.3063  -14.5213   25.7625 C   0  0  2  0  0  0  0  0  0  0  0  0
    8.5814  -14.8258   25.1299 N   0  0  0  0  0  0  0  0  0  0  0  0
    8.3183  -15.0840   23.6875 C   0  0  0  0  0  0  0  0  0  0  0  0
    9.3611  -15.9482   25.6799 O   0  0  0  0  0  0  0  0  0  0  0  0
   10.2038  -15.8670   26.7548 O   0  0  0  0  0  0  0  0  0  0  0  0
  1  2  1  0
  2  3  2  0
  4  2  1  0
  5  4  1  0
  6  5  1  0
  7  6  1  0
  8 10  1  0
  8  7  1  0
  8  9  1  6
 10 11  2  0
 10 16  1  0
 13 12  1  1
 13 14  1  0
 15 13  1  0
 15 16  1  1
 17 18  2  0
 17 15  1  0
 20 22  1  0
 20 19  1  6
 21 20  1  0
 23 22  1  6
 23 24  1  0
 24 17  1  0
 25 23  1  0
 26 25  1  0
 27 25  2  0
M  END
$$$$
