RVL.pdb
     RDKit          3D

 27 26  0  0  1  0  0  0  0  0999 V2000
    7.8109  -22.9272   19.9119 N   0  0  0  0  0  0  0  0  0  0  0  0
    6.4152  -22.5170   20.0743 C   0  0  0  0  0  0  0  0  0  0  0  0
    5.5521  -22.8884   19.2282 N   0  0  0  0  0  0  0  0  0  0  0  0
    6.0329  -21.7244   21.1736 N   0  0  0  0  0  0  0  0  0  0  0  0
    6.8716  -21.0139   22.0470 C   0  0  0  0  0  0  0  0  0  0  0  0
    8.1416  -20.4349   21.5758 C   0  0  0  0  0  0  0  0  0  0  0  0
    8.1303  -18.9346   21.6585 C   0  0  0  0  0  0  0  0  0  0  0  0
    8.4680  -18.1759   20.4212 C   0  0  2  0  0  0  0  0  0  0  0  0
    9.5538  -18.8134   19.6840 N   0  0  0  0  0  0  0  0  0  0  0  0
    9.0213  -16.8452   20.8367 C   0  0  0  0  0  0  0  0  0  0  0  0
   10.2418  -16.7577   21.1565 O   0  0  0  0  0  0  0  0  0  0  0  0
    4.5745  -22.6792   19.2215 C   0  0  0  0  0  0  0  0  0  0  0  0
    7.6292  -13.5132   19.0313 C   0  0  2  0  0  0  0  0  0  0  0  0
    7.8189  -13.3118   20.5093 C   0  0  0  0  0  0  0  0  0  0  0  0
    6.5424  -13.1755   21.2654 C   0  0  2  0  0  0  0  0  0  0  0  0
    8.7396  -14.3642   21.0949 N   0  0  0  0  0  0  0  0  0  0  0  0
    8.2129  -15.6925   20.8779 C   0  0  0  0  0  0  0  0  0  0  0  0
    8.9224  -14.1064   22.5731 O   0  0  0  0  0  0  0  0  0  0  0  0
    9.3721  -13.0061   22.9762 C   0  0  0  0  0  0  0  0  0  0  0  0
    7.9870  -12.1177   26.7912 C   0  0  2  0  0  0  0  0  0  0  0  0
    6.9664  -13.2327   26.3792 C   0  0  0  0  0  0  0  0  0  0  0  0
    5.6652  -12.5947   26.5489 C   0  0  0  0  0  0  0  0  0  0  0  0
    7.4472  -13.7783   25.1313 C   0  0  1  0  0  0  0  0  0  0  0  0
    8.4494  -14.8223   24.9745 N   0  0  0  0  0  0  0  0  0  0  0  0
    8.5900  -15.0964   23.5180 C   0  0  0  0  0  0  0  0  0  0  0  0
    8.2190  -16.0956   25.6785 O   0  0  0  0  0  0  0  0  0  0  0  0
    8.8666  -16.4923   26.8167 O   0  0  0  0  0  0  0  0  0  0  0  0
  1  2  1  0
  2  3  2  0
  4  2  1  0
  5  4  1  0
  6  5  1  0
  7  6  1  0
  8 10  1  0
  8  7  1  0
  8  9  1  1
 10 11  2  0
 10 16  1  0
 13 12  1  6
 13 14  1  0
 15 13  1  0
 15 16  1  1
 17 18  2  0
 17 15  1  0
 20 22  1  0
 20 19  1  1
 21 20  1  0
 23 22  1  6
 23 24  1  0
 24 17  1  0
 25 23  1  0
 26 25  1  0
 27 25  2  0
M  END
$$$$
