RPG.pdb
     RDKit          3D

 23 23  0  0  1  0  0  0  0  0999 V2000
    8.0913  -12.9394   16.7958 N   0  0  0  0  0  0  0  0  0  0  0  0
    8.0370  -14.3262   17.1127 C   0  0  0  0  0  0  0  0  0  0  0  0
    8.5184  -15.2477   16.3468 N   0  0  0  0  0  0  0  0  0  0  0  0
    7.4257  -14.7494   18.3315 N   0  0  0  0  0  0  0  0  0  0  0  0
    6.9263  -13.8249   19.3117 C   0  0  0  0  0  0  0  0  0  0  0  0
    7.9896  -13.6293   20.3703 C   0  0  0  0  0  0  0  0  0  0  0  0
    7.8232  -14.5641   21.5251 C   0  0  0  0  0  0  0  0  0  0  0  0
    8.9683  -14.4003   22.4988 C   0  0  2  0  0  0  0  0  0  0  0  0
   10.0951  -15.1411   22.0420 N   0  0  0  0  0  0  0  0  0  0  0  0
    8.6041  -14.8052   23.8592 C   0  0  0  0  0  0  0  0  0  0  0  0
    9.0041  -15.9437   24.2402 O   0  0  0  0  0  0  0  0  0  0  0  0
    8.5011  -16.2486   16.6542 N   0  0  0  0  0  0  0  0  0  0  0  0
    7.8377  -13.9745   24.7240 C   0  0  0  0  0  0  0  0  0  0  0  0
    7.4044  -12.6289   24.4366 C   0  0  0  0  0  0  0  0  0  0  0  0
    6.8008  -12.1314   25.7423 C   0  0  0  0  0  0  0  0  0  0  0  0
    6.3587  -13.3840   26.4362 C   0  0  2  0  0  0  0  0  0  0  0  0
    7.3902  -14.3951   26.0129 C   0  0  0  0  0  0  0  0  0  0  0  0
    6.7762  -15.7600   26.0233 O   0  0  0  0  0  0  0  0  0  0  0  0
    5.8687  -16.0193   25.2107 N   0  0  0  0  0  0  0  0  0  0  0  0
    7.2107  -16.7407   26.9327 C   0  0  0  0  0  0  0  0  0  0  0  0
    6.6782  -18.0841   26.9870 C   0  0  0  0  0  0  0  0  0  0  0  0
    7.6350  -19.0902   26.4861 O   0  0  0  0  0  0  0  0  0  0  0  0
    8.4166  -19.6427   27.2877 O   0  0  0  0  0  0  0  0  0  0  0  0
  2  4  1  0
  2  1  1  0
  3  2  2  0
  5  4  1  0
  6  5  1  0
  7  8  1  0
  7  6  1  0
  8 10  1  0
  8  9  1  6
 10 12  1  0
 11 10  2  0
 12 13  1  0
 12 16  1  0
 13 14  1  0
 14 15  1  0
 16 15  1  0
 16 17  1  6
 17 18  2  0
 19 17  1  0
 20 19  1  0
 20 21  1  0
 21 22  2  0
 21 23  1  0
M  END
$$$$
