RPG.pdb
     RDKit          3D

 23 23  0  0  1  0  0  0  0  0999 V2000
    7.7276  -12.3355   17.6517 N   0  0  0  0  0  0  0  0  0  0  0  0
    8.2239  -13.6623   17.5107 C   0  0  0  0  0  0  0  0  0  0  0  0
    9.1440  -13.9887   16.6653 N   0  0  0  0  0  0  0  0  0  0  0  0
    7.6973  -14.7051   18.3313 N   0  0  0  0  0  0  0  0  0  0  0  0
    6.6808  -14.4761   19.3209 C   0  0  0  0  0  0  0  0  0  0  0  0
    7.3442  -13.9518   20.5756 C   0  0  0  0  0  0  0  0  0  0  0  0
    7.6418  -15.0375   21.5595 C   0  0  0  0  0  0  0  0  0  0  0  0
    8.7788  -14.6235   22.4661 C   0  0  2  0  0  0  0  0  0  0  0  0
    9.9853  -15.2449   22.0355 N   0  0  0  0  0  0  0  0  0  0  0  0
    8.5120  -14.9377   23.8722 C   0  0  0  0  0  0  0  0  0  0  0  0
    8.9922  -16.0221   24.3137 O   0  0  0  0  0  0  0  0  0  0  0  0
    9.4964  -14.9741   16.6267 N   0  0  0  0  0  0  0  0  0  0  0  0
    7.7514  -14.0800   24.7155 C   0  0  0  0  0  0  0  0  0  0  0  0
    7.1923  -12.8047   24.3388 C   0  0  0  0  0  0  0  0  0  0  0  0
    6.6538  -12.2214   25.6374 C   0  0  0  0  0  0  0  0  0  0  0  0
    6.3669  -13.4253   26.4826 C   0  0  2  0  0  0  0  0  0  0  0  0
    7.4393  -14.3983   26.0719 C   0  0  0  0  0  0  0  0  0  0  0  0
    6.9377  -15.7953   26.2643 O   0  0  0  0  0  0  0  0  0  0  0  0
    6.1459  -16.2721   25.4296 N   0  0  0  0  0  0  0  0  0  0  0  0
    7.3485  -16.5649   27.3673 C   0  0  0  0  0  0  0  0  0  0  0  0
    7.0357  -17.9667   27.5350 C   0  0  0  0  0  0  0  0  0  0  0  0
    8.2401  -18.8196   27.5110 O   0  0  0  0  0  0  0  0  0  0  0  0
    8.9035  -18.9111   26.4573 O   0  0  0  0  0  0  0  0  0  0  0  0
  2  4  1  0
  2  1  1  0
  3  2  2  0
  5  4  1  0
  6  5  1  0
  7  8  1  0
  7  6  1  0
  8 10  1  0
  8  9  1  6
 10 12  1  0
 11 10  2  0
 12 13  1  0
 12 16  1  0
 13 14  1  0
 14 15  1  0
 16 15  1  0
 16 17  1  6
 17 18  2  0
 19 17  1  0
 20 19  1  0
 20 21  1  0
 21 22  2  0
 21 23  1  0
M  END
$$$$
