RPG.pdb
     RDKit          3D

 23 23  0  0  1  0  0  0  0  0999 V2000
    8.5536  -15.2049   29.2947 N   0  0  0  0  0  0  0  0  0  0  0  0
    9.8330  -14.9046   28.7475 C   0  0  0  0  0  0  0  0  0  0  0  0
   10.3783  -13.7361   28.8196 N   0  0  0  0  0  0  0  0  0  0  0  0
   10.5739  -15.9261   28.0798 N   0  0  0  0  0  0  0  0  0  0  0  0
    9.9803  -17.1637   27.6544 C   0  0  0  0  0  0  0  0  0  0  0  0
    9.0229  -16.8701   26.5201 C   0  0  0  0  0  0  0  0  0  0  0  0
    8.3666  -18.1059   25.9935 C   0  0  0  0  0  0  0  0  0  0  0  0
    7.4340  -17.7576   24.8555 C   0  0  2  0  0  0  0  0  0  0  0  0
    6.6986  -18.9135   24.4680 N   0  0  0  0  0  0  0  0  0  0  0  0
    8.1456  -17.1918   23.7063 C   0  0  0  0  0  0  0  0  0  0  0  0
    9.1154  -17.8647   23.2502 O   0  0  0  0  0  0  0  0  0  0  0  0
   11.3180  -13.5674   28.3895 N   0  0  0  0  0  0  0  0  0  0  0  0
    7.7809  -15.9479   23.1189 C   0  0  0  0  0  0  0  0  0  0  0  0
    6.6383  -15.1456   23.4822 C   0  0  0  0  0  0  0  0  0  0  0  0
    6.5974  -14.0386   22.4384 C   0  0  0  0  0  0  0  0  0  0  0  0
    8.0206  -13.9171   21.9847 C   0  0  2  0  0  0  0  0  0  0  0  0
    8.5328  -15.3296   22.0746 C   0  0  0  0  0  0  0  0  0  0  0  0
   10.0081  -15.3041   22.3263 O   0  0  0  0  0  0  0  0  0  0  0  0
   10.4221  -14.9669   23.4514 N   0  0  0  0  0  0  0  0  0  0  0  0
   10.9197  -15.6540   21.3143 C   0  0  0  0  0  0  0  0  0  0  0  0
   12.3557  -15.5518   21.4508 C   0  0  0  0  0  0  0  0  0  0  0  0
   13.0687  -15.9629   20.2255 O   0  0  0  0  0  0  0  0  0  0  0  0
   12.9287  -17.1277   19.7983 O   0  0  0  0  0  0  0  0  0  0  0  0
  2  4  1  0
  2  1  1  0
  3  2  2  0
  5  4  1  0
  6  5  1  0
  7  8  1  0
  7  6  1  0
  8 10  1  0
  8  9  1  6
 10 12  1  0
 11 10  2  0
 12 13  1  0
 12 16  1  0
 13 14  1  0
 14 15  1  0
 16 15  1  0
 16 17  1  6
 17 18  2  0
 19 17  1  0
 20 19  1  0
 20 21  1  0
 21 22  2  0
 21 23  1  0
M  END
$$$$
