RPG.pdb
     RDKit          3D

 23 23  0  0  1  0  0  0  0  0999 V2000
   10.8246  -19.1790   24.2700 N   0  0  0  0  0  0  0  0  0  0  0  0
   10.6068  -18.9950   22.8753 C   0  0  0  0  0  0  0  0  0  0  0  0
   11.5586  -19.0013   22.0025 N   0  0  0  0  0  0  0  0  0  0  0  0
    9.2807  -18.7912   22.3876 N   0  0  0  0  0  0  0  0  0  0  0  0
    8.7095  -19.5861   21.3355 C   0  0  0  0  0  0  0  0  0  0  0  0
    8.7141  -18.7688   20.0622 C   0  0  0  0  0  0  0  0  0  0  0  0
    7.5311  -17.8599   19.9637 C   0  0  0  0  0  0  0  0  0  0  0  0
    7.5661  -17.0965   18.6590 C   0  0  2  0  0  0  0  0  0  0  0  0
    7.6522  -18.0110   17.5711 N   0  0  0  0  0  0  0  0  0  0  0  0
    8.6680  -16.1319   18.6082 C   0  0  0  0  0  0  0  0  0  0  0  0
    9.7925  -16.5723   18.2300 O   0  0  0  0  0  0  0  0  0  0  0  0
   11.3387  -18.8925   20.9844 N   0  0  0  0  0  0  0  0  0  0  0  0
    8.5026  -14.7639   18.9639 C   0  0  0  0  0  0  0  0  0  0  0  0
    7.2628  -14.1364   19.3511 C   0  0  0  0  0  0  0  0  0  0  0  0
    7.5917  -12.6526   19.4345 C   0  0  0  0  0  0  0  0  0  0  0  0
    9.0620  -12.6242   19.7232 C   0  0  2  0  0  0  0  0  0  0  0  0
    9.5815  -13.8291   18.9857 C   0  0  0  0  0  0  0  0  0  0  0  0
   10.8082  -14.3385   19.6755 O   0  0  0  0  0  0  0  0  0  0  0  0
   10.6920  -14.8799   20.7910 N   0  0  0  0  0  0  0  0  0  0  0  0
   12.0764  -14.2122   19.0810 C   0  0  0  0  0  0  0  0  0  0  0  0
   13.2989  -14.7071   19.6739 C   0  0  0  0  0  0  0  0  0  0  0  0
   14.4840  -14.4243   18.8407 O   0  0  0  0  0  0  0  0  0  0  0  0
   14.5478  -14.8985   17.6875 O   0  0  0  0  0  0  0  0  0  0  0  0
  2  4  1  0
  2  1  1  0
  3  2  2  0
  5  4  1  0
  6  5  1  0
  7  8  1  0
  7  6  1  0
  8 10  1  0
  8  9  1  6
 10 12  1  0
 11 10  2  0
 12 13  1  0
 12 16  1  0
 13 14  1  0
 14 15  1  0
 16 15  1  0
 16 17  1  1
 17 18  2  0
 19 17  1  0
 20 19  1  0
 20 21  1  0
 21 22  2  0
 21 23  1  0
M  END
$$$$
