AHA.pdb
     RDKit          3D

 21 21  0  0  1  0  0  0  0  0999 V2000
   22.0133  -37.8688   -9.7533 C   0  0  0  0  0  0  0  0  0  0  0  0
   23.0000  -37.3666  -10.7834 C   0  0  2  0  0  0  0  0  0  0  0  0
   23.4287  -38.5014  -11.5716 N   0  0  0  0  0  0  0  0  0  0  0  0
   24.1928  -36.7394  -10.1741 C   0  0  0  0  0  0  0  0  0  0  0  0
   25.2652  -37.3846  -10.1138 O   0  0  0  0  0  0  0  0  0  0  0  0
   24.1408  -35.4027   -9.6506 N   0  0  0  0  0  0  0  0  0  0  0  0
   25.3175  -34.7812   -9.1159 C   0  0  1  0  0  0  0  0  0  0  0  0
   25.6031  -33.4328   -9.7206 C   0  0  0  0  0  0  0  0  0  0  0  0
   25.9527  -33.4883  -11.1397 C   0  0  0  0  0  0  0  0  0  0  0  0
   26.0299  -34.6230  -11.9078 C   0  0  0  0  0  0  0  0  0  0  0  0
   26.3804  -34.2428  -13.1539 N   0  0  0  0  0  0  0  0  0  0  0  0
   26.5246  -32.9094  -13.1897 C   0  0  0  0  0  0  0  0  0  0  0  0
   26.2579  -32.4679  -11.9457 N   0  0  0  0  0  0  0  0  0  0  0  0
   25.2486  -34.6991   -7.6141 C   0  0  0  0  0  0  0  0  0  0  0  0
   24.1859  -34.2920   -7.0771 O   0  0  0  0  0  0  0  0  0  0  0  0
   27.4045  -35.7319   -4.6879 C   0  0  0  0  0  0  0  0  0  0  0  0
   26.1612  -35.1712   -5.3609 C   0  0  2  0  0  0  0  0  0  0  0  0
   26.3419  -35.0654   -6.7876 N   0  0  0  0  0  0  0  0  0  0  0  0
   25.8653  -33.8328   -4.7617 C   0  0  0  0  0  0  0  0  0  0  0  0
   26.1268  -32.7997   -5.4293 O   0  0  0  0  0  0  0  0  0  0  0  0
   25.3159  -33.6731   -3.5042 O   0  0  0  0  0  0  0  0  0  0  0  0
  2  1  1  1
  2  4  1  0
  2  3  1  0
  4  5  2  0
  6  7  1  0
  6  4  1  0
  7  8  1  6
  9  8  1  0
 10  9  2  0
 11 10  1  0
 12 11  1  0
 12 13  2  0
 13  9  1  0
 14 15  2  0
 14  7  1  0
 17 16  1  1
 17 19  1  0
 17 18  1  0
 18 14  1  0
 19 21  1  0
 20 19  2  0
M  END
$$$$
