AHA.pdb
     RDKit          3D

 21 21  0  0  1  0  0  0  0  0999 V2000
   16.2267  -17.8044  -18.4439 C   0  0  0  0  0  0  0  0  0  0  0  0
   17.2633  -18.5505  -17.6341 C   0  0  2  0  0  0  0  0  0  0  0  0
   16.5630  -19.3439  -16.6477 N   0  0  0  0  0  0  0  0  0  0  0  0
   18.1996  -17.6461  -16.9321 C   0  0  0  0  0  0  0  0  0  0  0  0
   17.7949  -16.9823  -15.9496 O   0  0  0  0  0  0  0  0  0  0  0  0
   19.5651  -17.5172  -17.3592 N   0  0  0  0  0  0  0  0  0  0  0  0
   20.4793  -16.6784  -16.6400 C   0  0  1  0  0  0  0  0  0  0  0  0
   21.6587  -17.4284  -16.0814 C   0  0  0  0  0  0  0  0  0  0  0  0
   21.3041  -18.3785  -15.0274 C   0  0  0  0  0  0  0  0  0  0  0  0
   20.0745  -18.4988  -14.4300 C   0  0  0  0  0  0  0  0  0  0  0  0
   20.1662  -19.4859  -13.5150 N   0  0  0  0  0  0  0  0  0  0  0  0
   21.4111  -19.9857  -13.5209 C   0  0  0  0  0  0  0  0  0  0  0  0
   22.0910  -19.2930  -14.4544 N   0  0  0  0  0  0  0  0  0  0  0  0
   20.9265  -15.5174  -17.4879 C   0  0  0  0  0  0  0  0  0  0  0  0
   21.3637  -15.7449  -18.6458 O   0  0  0  0  0  0  0  0  0  0  0  0
   21.0219  -11.7466  -17.2395 C   0  0  0  0  0  0  0  0  0  0  0  0
   21.2675  -13.0981  -17.8924 C   0  0  2  0  0  0  0  0  0  0  0  0
   20.8705  -14.1781  -17.0234 N   0  0  0  0  0  0  0  0  0  0  0  0
   22.7204  -13.1978  -18.2346 C   0  0  0  0  0  0  0  0  0  0  0  0
   23.4876  -13.8067  -17.4461 O   0  0  0  0  0  0  0  0  0  0  0  0
   23.2655  -12.6514  -19.3804 O   0  0  0  0  0  0  0  0  0  0  0  0
  2  1  1  1
  2  4  1  0
  2  3  1  0
  4  5  2  0
  6  7  1  0
  6  4  1  0
  7  8  1  6
  9  8  1  0
 10  9  2  0
 11 10  1  0
 12 11  1  0
 12 13  2  0
 13  9  1  0
 14 15  2  0
 14  7  1  0
 17 16  1  1
 17 19  1  0
 17 18  1  0
 18 14  1  0
 19 21  1  0
 20 19  2  0
M  END
$$$$
