AHA.pdb
     RDKit          3D

 21 21  0  0  1  0  0  0  0  0999 V2000
   16.2594   -7.0923  -16.7774 C   0  0  0  0  0  0  0  0  0  0  0  0
   16.9514   -8.4340  -16.8669 C   0  0  2  0  0  0  0  0  0  0  0  0
   16.0301   -9.4373  -16.3798 N   0  0  0  0  0  0  0  0  0  0  0  0
   18.1863   -8.4954  -16.0552 C   0  0  0  0  0  0  0  0  0  0  0  0
   18.1002   -8.5980  -14.8095 O   0  0  0  0  0  0  0  0  0  0  0  0
   19.4820   -8.4392  -16.6729 N   0  0  0  0  0  0  0  0  0  0  0  0
   20.6738   -8.5194  -15.8791 C   0  0  1  0  0  0  0  0  0  0  0  0
   21.7240   -9.4179  -16.4750 C   0  0  0  0  0  0  0  0  0  0  0  0
   21.3121  -10.8179  -16.5722 C   0  0  0  0  0  0  0  0  0  0  0  0
   20.1671  -11.3605  -16.0448 C   0  0  0  0  0  0  0  0  0  0  0  0
   20.1634  -12.6733  -16.3554 N   0  0  0  0  0  0  0  0  0  0  0  0
   21.2670  -12.9687  -17.0588 C   0  0  0  0  0  0  0  0  0  0  0  0
   21.9560  -11.8180  -17.1798 N   0  0  0  0  0  0  0  0  0  0  0  0
   21.2281   -7.1479  -15.5991 C   0  0  0  0  0  0  0  0  0  0  0  0
   21.1789   -6.2770  -16.5061 O   0  0  0  0  0  0  0  0  0  0  0  0
   23.2926   -5.1085  -15.2834 C   0  0  0  0  0  0  0  0  0  0  0  0
   22.3598   -5.4929  -14.1454 C   0  0  2  0  0  0  0  0  0  0  0  0
   21.8028   -6.8075  -14.3475 N   0  0  0  0  0  0  0  0  0  0  0  0
   21.2768   -4.4645  -14.0574 C   0  0  0  0  0  0  0  0  0  0  0  0
   20.0893   -4.8159  -14.2752 O   0  0  0  0  0  0  0  0  0  0  0  0
   21.5168   -3.1399  -13.7470 O   0  0  0  0  0  0  0  0  0  0  0  0
  2  1  1  1
  2  4  1  0
  2  3  1  0
  4  5  2  0
  6  7  1  0
  6  4  1  0
  7  8  1  6
  9  8  1  0
 10  9  2  0
 11 10  1  0
 12 11  1  0
 12 13  2  0
 13  9  1  0
 14 15  2  0
 14  7  1  0
 17 16  1  6
 17 19  1  0
 17 18  1  0
 18 14  1  0
 19 21  1  0
 20 19  2  0
M  END
$$$$
