AHA.pdb
     RDKit          3D

 21 21  0  0  1  0  0  0  0  0999 V2000
   21.1310  -10.2978  -18.6557 C   0  0  0  0  0  0  0  0  0  0  0  0
   21.1303  -10.8794  -17.2598 C   0  0  2  0  0  0  0  0  0  0  0  0
   20.3535  -12.0994  -17.2922 N   0  0  0  0  0  0  0  0  0  0  0  0
   20.5322   -9.9672  -16.2609 C   0  0  0  0  0  0  0  0  0  0  0  0
   19.2939   -9.7766  -16.2641 O   0  0  0  0  0  0  0  0  0  0  0  0
   21.3490   -9.2968  -15.2877 N   0  0  0  0  0  0  0  0  0  0  0  0
   20.7568   -8.4346  -14.3065 C   0  0  1  0  0  0  0  0  0  0  0  0
   21.0513   -8.8558  -12.8918 C   0  0  0  0  0  0  0  0  0  0  0  0
   20.4720   -7.9692  -11.8830 C   0  0  0  0  0  0  0  0  0  0  0  0
   19.1587   -7.9491  -11.4851 C   0  0  0  0  0  0  0  0  0  0  0  0
   19.0383   -6.9921  -10.5418 N   0  0  0  0  0  0  0  0  0  0  0  0
   20.2317   -6.4142  -10.3374 C   0  0  0  0  0  0  0  0  0  0  0  0
   21.0951   -7.0279  -11.1690 N   0  0  0  0  0  0  0  0  0  0  0  0
   21.1528   -7.0009  -14.5396 C   0  0  0  0  0  0  0  0  0  0  0  0
   22.3671   -6.7299  -14.7278 O   0  0  0  0  0  0  0  0  0  0  0  0
   19.4591   -3.7299  -15.2670 C   0  0  0  0  0  0  0  0  0  0  0  0
   20.6275   -4.5977  -14.8257 C   0  0  2  0  0  0  0  0  0  0  0  0
   20.2018   -5.9482  -14.5535 N   0  0  0  0  0  0  0  0  0  0  0  0
   21.2405   -3.9783  -13.6098 C   0  0  0  0  0  0  0  0  0  0  0  0
   20.6394   -4.0803  -12.5101 O   0  0  0  0  0  0  0  0  0  0  0  0
   22.4413   -3.2955  -13.6340 O   0  0  0  0  0  0  0  0  0  0  0  0
  2  1  1  6
  2  4  1  0
  2  3  1  0
  4  5  2  0
  6  7  1  0
  6  4  1  0
  7  8  1  1
  9  8  1  0
 10  9  2  0
 11 10  1  0
 12 11  1  0
 12 13  2  0
 13  9  1  0
 14 15  2  0
 14  7  1  0
 17 16  1  1
 17 19  1  0
 17 18  1  0
 18 14  1  0
 19 21  1  0
 20 19  2  0
M  END
$$$$
