AHA.pdb
     RDKit          3D

 21 21  0  0  1  0  0  0  0  0999 V2000
   26.0023  -33.7477  -12.3609 C   0  0  0  0  0  0  0  0  0  0  0  0
   24.7512  -34.5797  -12.1890 C   0  0  2  0  0  0  0  0  0  0  0  0
   23.7542  -34.0688  -13.1044 N   0  0  0  0  0  0  0  0  0  0  0  0
   24.2062  -34.5151  -10.8156 C   0  0  0  0  0  0  0  0  0  0  0  0
   23.3311  -33.6620  -10.5396 O   0  0  0  0  0  0  0  0  0  0  0  0
   24.6644  -35.4150   -9.7940 N   0  0  0  0  0  0  0  0  0  0  0  0
   24.1260  -35.3481   -8.4664 C   0  0  1  0  0  0  0  0  0  0  0  0
   23.5502  -36.6557   -7.9932 C   0  0  0  0  0  0  0  0  0  0  0  0
   22.2324  -36.9536   -8.5534 C   0  0  0  0  0  0  0  0  0  0  0  0
   21.9328  -37.0827   -9.8865 C   0  0  0  0  0  0  0  0  0  0  0  0
   20.6151  -37.3566   -9.9784 N   0  0  0  0  0  0  0  0  0  0  0  0
   20.0819  -37.4030   -8.7483 C   0  0  0  0  0  0  0  0  0  0  0  0
   21.0900  -37.1533   -7.8909 N   0  0  0  0  0  0  0  0  0  0  0  0
   25.1498  -34.8227   -7.4955 C   0  0  0  0  0  0  0  0  0  0  0  0
   26.3056  -35.3201   -7.5046 O   0  0  0  0  0  0  0  0  0  0  0  0
   25.3980  -32.1206   -4.8675 C   0  0  0  0  0  0  0  0  0  0  0  0
   25.8527  -33.3573   -5.6269 C   0  0  2  0  0  0  0  0  0  0  0  0
   24.8526  -33.7869   -6.5728 N   0  0  0  0  0  0  0  0  0  0  0  0
   26.1445  -34.4378   -4.6343 C   0  0  0  0  0  0  0  0  0  0  0  0
   25.3912  -35.4439   -4.5958 O   0  0  0  0  0  0  0  0  0  0  0  0
   27.2064  -34.3861   -3.7521 O   0  0  0  0  0  0  0  0  0  0  0  0
  2  1  1  1
  2  4  1  0
  2  3  1  0
  4  5  2  0
  6  7  1  0
  6  4  1  0
  7  8  1  1
  9  8  1  0
 10  9  2  0
 11 10  1  0
 12 11  1  0
 12 13  2  0
 13  9  1  0
 14 15  2  0
 14  7  1  0
 17 16  1  1
 17 19  1  0
 17 18  1  0
 18 14  1  0
 19 21  1  0
 20 19  2  0
M  END
$$$$
