AHA.pdb
     RDKit          3D

 21 21  0  0  1  0  0  0  0  0999 V2000
   23.5028  -10.2641  -19.8608 C   0  0  0  0  0  0  0  0  0  0  0  0
   23.0863  -10.6329  -18.4546 C   0  0  2  0  0  0  0  0  0  0  0  0
   22.8475  -12.0595  -18.4267 N   0  0  0  0  0  0  0  0  0  0  0  0
   21.8522   -9.9408  -18.0239 C   0  0  0  0  0  0  0  0  0  0  0  0
   20.8195  -10.0275  -18.7279 O   0  0  0  0  0  0  0  0  0  0  0  0
   21.8196   -9.1710  -16.8114 N   0  0  0  0  0  0  0  0  0  0  0  0
   20.6391   -8.4480  -16.4368 C   0  0  1  0  0  0  0  0  0  0  0  0
   20.0028   -8.9644  -15.1742 C   0  0  0  0  0  0  0  0  0  0  0  0
   19.3326  -10.2538  -15.3399 C   0  0  0  0  0  0  0  0  0  0  0  0
   19.8120  -11.4713  -14.9260 C   0  0  0  0  0  0  0  0  0  0  0  0
   18.8966  -12.4017  -15.2670 N   0  0  0  0  0  0  0  0  0  0  0  0
   17.8621  -11.8065  -15.8796 C   0  0  0  0  0  0  0  0  0  0  0  0
   18.1501  -10.4914  -15.9135 N   0  0  0  0  0  0  0  0  0  0  0  0
   20.9194   -6.9720  -16.3389 C   0  0  0  0  0  0  0  0  0  0  0  0
   21.8289   -6.5775  -15.5639 O   0  0  0  0  0  0  0  0  0  0  0  0
   19.8700   -3.8093  -18.0993 C   0  0  0  0  0  0  0  0  0  0  0  0
   20.5236   -4.6149  -16.9872 C   0  0  2  0  0  0  0  0  0  0  0  0
   20.1919   -6.0143  -17.0914 N   0  0  0  0  0  0  0  0  0  0  0  0
   20.0713   -4.0576  -15.6746 C   0  0  0  0  0  0  0  0  0  0  0  0
   19.2476   -4.7156  -14.9893 O   0  0  0  0  0  0  0  0  0  0  0  0
   20.5155   -2.8490  -15.1740 O   0  0  0  0  0  0  0  0  0  0  0  0
  2  1  1  6
  2  4  1  0
  2  3  1  0
  4  5  2  0
  6  7  1  0
  6  4  1  0
  7  8  1  1
  9  8  1  0
 10  9  2  0
 11 10  1  0
 12 11  1  0
 12 13  2  0
 13  9  1  0
 14 15  2  0
 14  7  1  0
 17 16  1  6
 17 19  1  0
 17 18  1  0
 18 14  1  0
 19 21  1  0
 20 19  2  0
M  END
$$$$
