AHA.pdb
     RDKit          3D

 21 21  0  0  1  0  0  0  0  0999 V2000
   22.9997  -32.8971  -16.4747 C   0  0  0  0  0  0  0  0  0  0  0  0
   23.6647  -33.4066  -15.2157 C   0  0  2  0  0  0  0  0  0  0  0  0
   24.0443  -34.7835  -15.4453 N   0  0  0  0  0  0  0  0  0  0  0  0
   22.7727  -33.3547  -14.0371 C   0  0  0  0  0  0  0  0  0  0  0  0
   22.0523  -34.3432  -13.7657 O   0  0  0  0  0  0  0  0  0  0  0  0
   22.7198  -32.1891  -13.1991 N   0  0  0  0  0  0  0  0  0  0  0  0
   21.8788  -32.1619  -12.0377 C   0  0  1  0  0  0  0  0  0  0  0  0
   22.4818  -31.4028  -10.8864 C   0  0  0  0  0  0  0  0  0  0  0  0
   23.6780  -32.0340  -10.3296 C   0  0  0  0  0  0  0  0  0  0  0  0
   24.2442  -33.2084  -10.7581 C   0  0  0  0  0  0  0  0  0  0  0  0
   25.3260  -33.4392   -9.9858 N   0  0  0  0  0  0  0  0  0  0  0  0
   25.4543  -32.4489   -9.0899 C   0  0  0  0  0  0  0  0  0  0  0  0
   24.4347  -31.5994   -9.3184 N   0  0  0  0  0  0  0  0  0  0  0  0
   20.5091  -31.6366  -12.3764 C   0  0  0  0  0  0  0  0  0  0  0  0
   20.4142  -30.6189  -13.1104 O   0  0  0  0  0  0  0  0  0  0  0  0
   16.9542  -32.8314  -12.0552 C   0  0  0  0  0  0  0  0  0  0  0  0
   18.0392  -31.8172  -12.3823 C   0  0  2  0  0  0  0  0  0  0  0  0
   19.3248  -32.2517  -11.8949 N   0  0  0  0  0  0  0  0  0  0  0  0
   17.6556  -30.5055  -11.7739 C   0  0  0  0  0  0  0  0  0  0  0  0
   16.6071  -29.9370  -12.1723 O   0  0  0  0  0  0  0  0  0  0  0  0
   18.3996  -29.8829  -10.7903 O   0  0  0  0  0  0  0  0  0  0  0  0
  2  1  1  6
  2  4  1  0
  2  3  1  0
  4  5  2  0
  6  7  1  0
  6  4  1  0
  7  8  1  1
  9  8  1  0
 10  9  2  0
 11 10  1  0
 12 11  1  0
 12 13  2  0
 13  9  1  0
 14 15  2  0
 14  7  1  0
 17 16  1  1
 17 19  1  0
 17 18  1  0
 18 14  1  0
 19 21  1  0
 20 19  2  0
M  END
$$$$
