AHA.pdb
     RDKit          3D

 21 21  0  0  1  0  0  0  0  0999 V2000
   21.3168   -9.6451  -21.4551 C   0  0  0  0  0  0  0  0  0  0  0  0
   21.4956  -10.5253  -20.2384 C   0  0  2  0  0  0  0  0  0  0  0  0
   20.8920  -11.8071  -20.5306 N   0  0  0  0  0  0  0  0  0  0  0  0
   20.8520   -9.9668  -19.0295 C   0  0  0  0  0  0  0  0  0  0  0  0
   19.6045   -9.8566  -18.9908 O   0  0  0  0  0  0  0  0  0  0  0  0
   21.6348   -9.5491  -17.8998 N   0  0  0  0  0  0  0  0  0  0  0  0
   21.0050   -8.9702  -16.7487 C   0  0  1  0  0  0  0  0  0  0  0  0
   21.1611   -9.8037  -15.5051 C   0  0  0  0  0  0  0  0  0  0  0  0
   20.5535   -9.2047  -14.3172 C   0  0  0  0  0  0  0  0  0  0  0  0
   21.2282   -8.6569  -13.2550 C   0  0  0  0  0  0  0  0  0  0  0  0
   20.3051   -8.2178  -12.3747 N   0  0  0  0  0  0  0  0  0  0  0  0
   19.0771   -8.4728  -12.8512 C   0  0  0  0  0  0  0  0  0  0  0  0
   19.2528   -9.0773  -14.0416 N   0  0  0  0  0  0  0  0  0  0  0  0
   21.4865   -7.5617  -16.5221 C   0  0  0  0  0  0  0  0  0  0  0  0
   22.7247   -7.3374  -16.5174 O   0  0  0  0  0  0  0  0  0  0  0  0
   20.0285   -4.1052  -16.4436 C   0  0  0  0  0  0  0  0  0  0  0  0
   21.1009   -5.1436  -16.1524 C   0  0  2  0  0  0  0  0  0  0  0  0
   20.5898   -6.4822  -16.3141 N   0  0  0  0  0  0  0  0  0  0  0  0
   21.5970   -4.9288  -14.7575 C   0  0  0  0  0  0  0  0  0  0  0  0
   21.2308   -5.7248  -13.8556 O   0  0  0  0  0  0  0  0  0  0  0  0
   22.4426   -3.8937  -14.4078 O   0  0  0  0  0  0  0  0  0  0  0  0
  2  1  1  6
  2  4  1  0
  2  3  1  0
  4  5  2  0
  6  7  1  0
  6  4  1  0
  7  8  1  1
  9  8  1  0
 10  9  2  0
 11 10  1  0
 12 11  1  0
 12 13  2  0
 13  9  1  0
 14 15  2  0
 14  7  1  0
 17 16  1  1
 17 19  1  0
 17 18  1  0
 18 14  1  0
 19 21  1  0
 20 19  2  0
M  END
$$$$
