AHA.pdb
     RDKit          3D

 21 21  0  0  1  0  0  0  0  0999 V2000
   14.6807   -8.0234  -15.4159 C   0  0  0  0  0  0  0  0  0  0  0  0
   15.3712   -8.9803  -16.3617 C   0  0  2  0  0  0  0  0  0  0  0  0
   14.8393  -10.3028  -16.1148 N   0  0  0  0  0  0  0  0  0  0  0  0
   16.8368   -9.0186  -16.1669 C   0  0  0  0  0  0  0  0  0  0  0  0
   17.3293   -9.8371  -15.3562 O   0  0  0  0  0  0  0  0  0  0  0  0
   17.7037   -8.1323  -16.8925 N   0  0  0  0  0  0  0  0  0  0  0  0
   19.1082   -8.0875  -16.6058 C   0  0  1  0  0  0  0  0  0  0  0  0
   19.9590   -8.6316  -17.7218 C   0  0  0  0  0  0  0  0  0  0  0  0
   21.3916   -8.6190  -17.4272 C   0  0  0  0  0  0  0  0  0  0  0  0
   22.1051   -9.6383  -16.8480 C   0  0  0  0  0  0  0  0  0  0  0  0
   23.3870   -9.2288  -16.7523 N   0  0  0  0  0  0  0  0  0  0  0  0
   23.4979   -7.9887  -17.2520 C   0  0  0  0  0  0  0  0  0  0  0  0
   22.2641   -7.6348  -17.6596 N   0  0  0  0  0  0  0  0  0  0  0  0
   19.5366   -6.6949  -16.2262 C   0  0  0  0  0  0  0  0  0  0  0  0
   19.0462   -5.7182  -16.8498 O   0  0  0  0  0  0  0  0  0  0  0  0
   21.8057   -5.0613  -13.6800 C   0  0  0  0  0  0  0  0  0  0  0  0
   20.8105   -5.0951  -14.8295 C   0  0  2  0  0  0  0  0  0  0  0  0
   20.4738   -6.4502  -15.1896 N   0  0  0  0  0  0  0  0  0  0  0  0
   21.4102   -4.3695  -15.9922 C   0  0  0  0  0  0  0  0  0  0  0  0
   21.9738   -5.0368  -16.8968 O   0  0  0  0  0  0  0  0  0  0  0  0
   21.3761   -2.9946  -16.1233 O   0  0  0  0  0  0  0  0  0  0  0  0
  2  1  1  1
  2  4  1  0
  2  3  1  0
  4  5  2  0
  6  7  1  0
  6  4  1  0
  7  8  1  6
  9  8  1  0
 10  9  2  0
 11 10  1  0
 12 11  1  0
 12 13  2  0
 13  9  1  0
 14 15  2  0
 14  7  1  0
 17 16  1  1
 17 19  1  0
 17 18  1  0
 18 14  1  0
 19 21  1  0
 20 19  2  0
M  END
$$$$
