AHA.pdb
     RDKit          3D

 21 21  0  0  1  0  0  0  0  0999 V2000
   12.3138   -6.6506  -15.2420 C   0  0  0  0  0  0  0  0  0  0  0  0
   13.4884   -7.5638  -15.5130 C   0  0  2  0  0  0  0  0  0  0  0  0
   13.2273   -8.8239  -14.8521 N   0  0  0  0  0  0  0  0  0  0  0  0
   14.7651   -7.0199  -15.0013 C   0  0  0  0  0  0  0  0  0  0  0  0
   14.8331   -6.6190  -13.8163 O   0  0  0  0  0  0  0  0  0  0  0  0
   15.9276   -6.9443  -15.8418 N   0  0  0  0  0  0  0  0  0  0  0  0
   17.1570   -6.4014  -15.3411 C   0  0  1  0  0  0  0  0  0  0  0  0
   18.3663   -7.2024  -15.7428 C   0  0  0  0  0  0  0  0  0  0  0  0
   19.6285   -6.6393  -15.2644 C   0  0  0  0  0  0  0  0  0  0  0  0
   19.7713   -5.4918  -14.5252 C   0  0  0  0  0  0  0  0  0  0  0  0
   21.0894   -5.3246  -14.2916 N   0  0  0  0  0  0  0  0  0  0  0  0
   21.7743   -6.3286  -14.8597 C   0  0  0  0  0  0  0  0  0  0  0  0
   20.8600   -7.1219  -15.4499 N   0  0  0  0  0  0  0  0  0  0  0  0
   17.3078   -4.9561  -15.7350 C   0  0  0  0  0  0  0  0  0  0  0  0
   17.2479   -4.6502  -16.9541 O   0  0  0  0  0  0  0  0  0  0  0  0
   16.9086   -1.6488  -14.1388 C   0  0  0  0  0  0  0  0  0  0  0  0
   17.5327   -2.5502  -15.1928 C   0  0  2  0  0  0  0  0  0  0  0  0
   17.5150   -3.9307  -14.7767 N   0  0  0  0  0  0  0  0  0  0  0  0
   18.9338   -2.0868  -15.4380 C   0  0  0  0  0  0  0  0  0  0  0  0
   19.8341   -2.4264  -14.6285 O   0  0  0  0  0  0  0  0  0  0  0  0
   19.2911   -1.2996  -16.5157 O   0  0  0  0  0  0  0  0  0  0  0  0
  2  1  1  1
  2  4  1  0
  2  3  1  0
  4  5  2  0
  6  7  1  0
  6  4  1  0
  7  8  1  6
  9  8  1  0
 10  9  2  0
 11 10  1  0
 12 11  1  0
 12 13  2  0
 13  9  1  0
 14 15  2  0
 14  7  1  0
 17 16  1  1
 17 19  1  0
 17 18  1  0
 18 14  1  0
 19 21  1  0
 20 19  2  0
M  END
$$$$
