AHA.pdb
     RDKit          3D

 21 21  0  0  1  0  0  0  0  0999 V2000
   38.3243   -4.8107  -13.8702 C   0  0  0  0  0  0  0  0  0  0  0  0
   37.5427   -6.0816  -13.6232 C   0  0  2  0  0  0  0  0  0  0  0  0
   36.1808   -5.8507  -14.0530 N   0  0  0  0  0  0  0  0  0  0  0  0
   37.5260   -6.4743  -12.1974 C   0  0  0  0  0  0  0  0  0  0  0  0
   36.7305   -5.9086  -11.4119 O   0  0  0  0  0  0  0  0  0  0  0  0
   38.4073   -7.4937  -11.6996 N   0  0  0  0  0  0  0  0  0  0  0  0
   38.3122   -7.9416  -10.3406 C   0  0  1  0  0  0  0  0  0  0  0  0
   38.9718   -9.2744  -10.1077 C   0  0  0  0  0  0  0  0  0  0  0  0
   38.6896   -9.8468   -8.7917 C   0  0  0  0  0  0  0  0  0  0  0  0
   37.8008   -9.3520   -7.8705 C   0  0  0  0  0  0  0  0  0  0  0  0
   37.8387  -10.1671   -6.7962 N   0  0  0  0  0  0  0  0  0  0  0  0
   38.7209  -11.1538   -7.0154 C   0  0  0  0  0  0  0  0  0  0  0  0
   39.2301  -10.9382   -8.2434 N   0  0  0  0  0  0  0  0  0  0  0  0
   38.8428   -6.9002   -9.3915 C   0  0  0  0  0  0  0  0  0  0  0  0
   39.9316   -6.3307   -9.6629 O   0  0  0  0  0  0  0  0  0  0  0  0
   37.6457   -5.0696   -6.3180 C   0  0  0  0  0  0  0  0  0  0  0  0
   38.6641   -5.4809   -7.3699 C   0  0  2  0  0  0  0  0  0  0  0  0
   38.1551   -6.5417   -8.2036 N   0  0  0  0  0  0  0  0  0  0  0  0
   39.9158   -5.9084   -6.6709 C   0  0  0  0  0  0  0  0  0  0  0  0
   39.9681   -7.0628   -6.1751 O   0  0  0  0  0  0  0  0  0  0  0  0
   41.0242   -5.0939   -6.5416 O   0  0  0  0  0  0  0  0  0  0  0  0
  2  1  1  1
  2  4  1  0
  2  3  1  0
  4  5  2  0
  6  7  1  0
  6  4  1  0
  7  8  1  6
  9  8  1  0
 10  9  2  0
 11 10  1  0
 12 11  1  0
 12 13  2  0
 13  9  1  0
 14 15  2  0
 14  7  1  0
 17 16  1  1
 17 19  1  0
 17 18  1  0
 18 14  1  0
 19 21  1  0
 20 19  2  0
M  END
$$$$
