GYC.pdb
     RDKit          3D

 23 23  0  0  1  0  0  0  0  0999 V2000
   24.2874  -10.8029  -19.6633 N   0  0  0  0  0  0  0  0  0  0  0  0
   22.9848  -10.1614  -19.7152 C   0  0  0  0  0  0  0  0  0  0  0  0
   22.6173   -9.5970  -18.3720 C   0  0  0  0  0  0  0  0  0  0  0  0
   22.1536  -10.3632  -17.5177 O   0  0  0  0  0  0  0  0  0  0  0  0
   27.8506  -10.9206  -15.6350 O   0  0  0  0  0  0  0  0  0  0  0  0
   26.8399   -9.9623  -15.7564 C   0  0  0  0  0  0  0  0  0  0  0  0
   25.7429   -9.9671  -14.9190 C   0  0  0  0  0  0  0  0  0  0  0  0
   24.7498   -9.0159  -15.0472 C   0  0  0  0  0  0  0  0  0  0  0  0
   24.8088   -8.0286  -16.0077 C   0  0  0  0  0  0  0  0  0  0  0  0
   23.7413   -6.9934  -16.1572 C   0  0  0  0  0  0  0  0  0  0  0  0
   22.5554   -7.5809  -16.8382 C   0  0  2  0  0  0  0  0  0  0  0  0
   22.7962   -8.2192  -18.0860 N   0  0  0  0  0  0  0  0  0  0  0  0
   21.3770   -6.6593  -16.9035 C   0  0  0  0  0  0  0  0  0  0  0  0
   21.3781   -5.7667  -17.7743 O   0  0  0  0  0  0  0  0  0  0  0  0
   25.9064   -8.0306  -16.8391 C   0  0  0  0  0  0  0  0  0  0  0  0
   26.9052   -8.9780  -16.7189 C   0  0  0  0  0  0  0  0  0  0  0  0
   20.2957   -6.8067  -15.9957 N   0  0  0  0  0  0  0  0  0  0  0  0
   19.1294   -5.9924  -16.1665 C   0  0  1  0  0  0  0  0  0  0  0  0
   17.8896   -6.6201  -15.5630 C   0  0  0  0  0  0  0  0  0  0  0  0
   17.5904   -8.1821  -16.4352 S   0  0  0  0  0  0  0  0  0  0  0  0
   19.3185   -4.6866  -15.4851 C   0  0  0  0  0  0  0  0  0  0  0  0
   20.3806   -4.4274  -14.8394 O   0  0  0  0  0  0  0  0  0  0  0  0
   18.2993   -3.7492  -15.5712 O   0  0  0  0  0  0  0  0  0  0  0  0
  2  1  1  0
  3  2  1  0
  3 12  1  0
  4  3  2  0
  6  5  1  0
  6  7  2  0
  8  7  1  0
  9  8  2  0
 10  9  1  0
 11 10  1  6
 11 12  1  0
 13 11  1  0
 13 17  1  0
 14 13  2  0
 15 16  2  0
 15  9  1  0
 16  6  1  0
 17 18  1  0
 18 21  1  0
 19 20  1  0
 18 19  1  1
 21 22  2  0
 21 23  1  0
M  END
$$$$
