GYC.pdb
     RDKit          3D

 23 23  0  0  1  0  0  0  0  0999 V2000
   23.1416  -18.1986  -17.6874 N   0  0  0  0  0  0  0  0  0  0  0  0
   23.7229  -17.6928  -16.4556 C   0  0  0  0  0  0  0  0  0  0  0  0
   24.7416  -18.6560  -15.9148 C   0  0  0  0  0  0  0  0  0  0  0  0
   24.5721  -19.8659  -16.1130 O   0  0  0  0  0  0  0  0  0  0  0  0
   29.1723  -19.5022  -20.4815 O   0  0  0  0  0  0  0  0  0  0  0  0
   28.9500  -19.2975  -19.1165 C   0  0  0  0  0  0  0  0  0  0  0  0
   28.4753  -18.0923  -18.6401 C   0  0  0  0  0  0  0  0  0  0  0  0
   28.2590  -17.9002  -17.2896 C   0  0  0  0  0  0  0  0  0  0  0  0
   28.5050  -18.8934  -16.3657 C   0  0  0  0  0  0  0  0  0  0  0  0
   28.2753  -18.6989  -14.9018 C   0  0  0  0  0  0  0  0  0  0  0  0
   26.8578  -19.0031  -14.5649 C   0  0  2  0  0  0  0  0  0  0  0  0
   25.8721  -18.1934  -15.1935 N   0  0  0  0  0  0  0  0  0  0  0  0
   26.6030  -19.1498  -13.0968 C   0  0  0  0  0  0  0  0  0  0  0  0
   26.4115  -18.1145  -12.4284 O   0  0  0  0  0  0  0  0  0  0  0  0
   28.9785  -20.0928  -16.8489 C   0  0  0  0  0  0  0  0  0  0  0  0
   29.1981  -20.2949  -18.1982 C   0  0  0  0  0  0  0  0  0  0  0  0
   26.5821  -20.4347  -12.4937 N   0  0  0  0  0  0  0  0  0  0  0  0
   26.2821  -20.5417  -11.0970 C   0  0  1  0  0  0  0  0  0  0  0  0
   24.8830  -20.0645  -10.7654 C   0  0  0  0  0  0  0  0  0  0  0  0
   24.6637  -20.2248   -8.9720 S   0  0  0  0  0  0  0  0  0  0  0  0
   26.3585  -21.9618  -10.6694 C   0  0  0  0  0  0  0  0  0  0  0  0
   25.8626  -22.8914  -11.3779 O   0  0  0  0  0  0  0  0  0  0  0  0
   26.9895  -22.2510   -9.4681 O   0  0  0  0  0  0  0  0  0  0  0  0
  2  1  1  0
  3  2  1  0
  3 12  1  0
  4  3  2  0
  6  5  1  0
  6  7  2  0
  8  7  1  0
  9  8  2  0
 10  9  1  0
 11 10  1  1
 11 12  1  0
 13 11  1  0
 13 17  1  0
 14 13  2  0
 15 16  2  0
 15  9  1  0
 16  6  1  0
 17 18  1  0
 18 21  1  0
 19 20  1  0
 18 19  1  6
 21 22  2  0
 21 23  1  0
M  END
$$$$
