GYC.pdb
     RDKit          3D

 23 23  0  0  1  0  0  0  0  0999 V2000
   28.7254  -22.9939  -17.2740 N   0  0  0  0  0  0  0  0  0  0  0  0
   28.4068  -21.6967  -16.7024 C   0  0  0  0  0  0  0  0  0  0  0  0
   27.3921  -21.8361  -15.6029 C   0  0  0  0  0  0  0  0  0  0  0  0
   26.7329  -22.8816  -15.5384 O   0  0  0  0  0  0  0  0  0  0  0  0
   22.8652  -20.9774   -8.1978 O   0  0  0  0  0  0  0  0  0  0  0  0
   23.7653  -20.7212   -9.2365 C   0  0  0  0  0  0  0  0  0  0  0  0
   23.3961  -19.9756  -10.3376 C   0  0  0  0  0  0  0  0  0  0  0  0
   24.2929  -19.7281  -11.3584 C   0  0  0  0  0  0  0  0  0  0  0  0
   25.5842  -20.2099  -11.3241 C   0  0  0  0  0  0  0  0  0  0  0  0
   26.5645  -19.9496  -12.4218 C   0  0  0  0  0  0  0  0  0  0  0  0
   26.2355  -20.7883  -13.6065 C   0  0  2  0  0  0  0  0  0  0  0  0
   27.1917  -20.7962  -14.6591 N   0  0  0  0  0  0  0  0  0  0  0  0
   24.8437  -20.5888  -14.1214 C   0  0  0  0  0  0  0  0  0  0  0  0
   24.6193  -19.5897  -14.8331 O   0  0  0  0  0  0  0  0  0  0  0  0
   25.9447  -20.9529  -10.2222 C   0  0  0  0  0  0  0  0  0  0  0  0
   25.0548  -21.2060   -9.1957 C   0  0  0  0  0  0  0  0  0  0  0  0
   23.8174  -21.5162  -13.8024 N   0  0  0  0  0  0  0  0  0  0  0  0
   22.5259  -21.3562  -14.4013 C   0  0  1  0  0  0  0  0  0  0  0  0
   22.1709  -22.4994  -15.3299 C   0  0  0  0  0  0  0  0  0  0  0  0
   20.4804  -22.2145  -15.9227 S   0  0  0  0  0  0  0  0  0  0  0  0
   21.4792  -21.3241  -13.3484 C   0  0  0  0  0  0  0  0  0  0  0  0
   21.5603  -22.0581  -12.3155 O   0  0  0  0  0  0  0  0  0  0  0  0
   20.4023  -20.4667  -13.5213 O   0  0  0  0  0  0  0  0  0  0  0  0
  2  1  1  0
  3  2  1  0
  3 12  1  0
  4  3  2  0
  6  5  1  0
  6  7  2  0
  8  7  1  0
  9  8  2  0
 10  9  1  0
 11 10  1  1
 11 12  1  0
 13 11  1  0
 13 17  1  0
 14 13  2  0
 15 16  2  0
 15  9  1  0
 16  6  1  0
 17 18  1  0
 18 21  1  0
 19 20  1  0
 18 19  1  6
 21 22  2  0
 21 23  1  0
M  END
$$$$
