GYC.pdb
     RDKit          3D

 23 23  0  0  1  0  0  0  0  0999 V2000
   28.1413  -26.7482  -18.0208 N   0  0  0  0  0  0  0  0  0  0  0  0
   27.8028  -25.5871  -17.2156 C   0  0  0  0  0  0  0  0  0  0  0  0
   26.3518  -25.6162  -16.8260 C   0  0  0  0  0  0  0  0  0  0  0  0
   25.5792  -26.3252  -17.4834 O   0  0  0  0  0  0  0  0  0  0  0  0
   18.7858  -24.5242  -12.5310 O   0  0  0  0  0  0  0  0  0  0  0  0
   20.1461  -24.4926  -12.8521 C   0  0  0  0  0  0  0  0  0  0  0  0
   20.7777  -23.3107  -13.1820 C   0  0  0  0  0  0  0  0  0  0  0  0
   22.1222  -23.2902  -13.4977 C   0  0  0  0  0  0  0  0  0  0  0  0
   22.8863  -24.4377  -13.4975 C   0  0  0  0  0  0  0  0  0  0  0  0
   24.3417  -24.4297  -13.8371 C   0  0  0  0  0  0  0  0  0  0  0  0
   24.5317  -24.7899  -15.2686 C   0  0  2  0  0  0  0  0  0  0  0  0
   25.8751  -24.8505  -15.7311 N   0  0  0  0  0  0  0  0  0  0  0  0
   23.6547  -24.0210  -16.2075 C   0  0  0  0  0  0  0  0  0  0  0  0
   23.9910  -22.8573  -16.5038 O   0  0  0  0  0  0  0  0  0  0  0  0
   22.2487  -25.6128  -13.1673 C   0  0  0  0  0  0  0  0  0  0  0  0
   20.9042  -25.6437  -12.8500 C   0  0  0  0  0  0  0  0  0  0  0  0
   22.4772  -24.6094  -16.7390 N   0  0  0  0  0  0  0  0  0  0  0  0
   21.6596  -23.8430  -17.6315 C   0  0  1  0  0  0  0  0  0  0  0  0
   21.4857  -24.5128  -18.9792 C   0  0  0  0  0  0  0  0  0  0  0  0
   19.8384  -24.0723  -19.5977 S   0  0  0  0  0  0  0  0  0  0  0  0
   20.2988  -23.6809  -17.0595 C   0  0  0  0  0  0  0  0  0  0  0  0
   19.9455  -24.3045  -16.0114 O   0  0  0  0  0  0  0  0  0  0  0  0
   19.4157  -22.8255  -17.7024 O   0  0  0  0  0  0  0  0  0  0  0  0
  2  1  1  0
  3  2  1  0
  3 12  1  0
  4  3  2  0
  6  5  1  0
  6  7  2  0
  8  7  1  0
  9  8  2  0
 10  9  1  0
 11 10  1  1
 11 12  1  0
 13 11  1  0
 13 17  1  0
 14 13  2  0
 15 16  2  0
 15  9  1  0
 16  6  1  0
 17 18  1  0
 18 21  1  0
 19 20  1  0
 18 19  1  6
 21 22  2  0
 21 23  1  0
M  END
$$$$
