GYC.pdb
     RDKit          3D

 23 23  0  0  1  0  0  0  0  0999 V2000
   25.0299  -12.0917  -16.1517 N   0  0  0  0  0  0  0  0  0  0  0  0
   24.1892  -11.6336  -15.0589 C   0  0  0  0  0  0  0  0  0  0  0  0
   23.2347  -10.5739  -15.5319 C   0  0  0  0  0  0  0  0  0  0  0  0
   23.2152  -10.2938  -16.7372 O   0  0  0  0  0  0  0  0  0  0  0  0
   18.4938  -13.8917  -17.8447 O   0  0  0  0  0  0  0  0  0  0  0  0
   18.8532  -12.7968  -17.0531 C   0  0  0  0  0  0  0  0  0  0  0  0
   19.2616  -12.9611  -15.7451 C   0  0  0  0  0  0  0  0  0  0  0  0
   19.6145  -11.8728  -14.9713 C   0  0  0  0  0  0  0  0  0  0  0  0
   19.5752  -10.5864  -15.4654 C   0  0  0  0  0  0  0  0  0  0  0  0
   19.9544   -9.4002  -14.6392 C   0  0  0  0  0  0  0  0  0  0  0  0
   21.3474   -8.9836  -14.9572 C   0  0  2  0  0  0  0  0  0  0  0  0
   22.3747   -9.9078  -14.6213 N   0  0  0  0  0  0  0  0  0  0  0  0
   21.6809   -7.5946  -14.5083 C   0  0  0  0  0  0  0  0  0  0  0  0
   22.0166   -7.4273  -13.3190 O   0  0  0  0  0  0  0  0  0  0  0  0
   19.1666  -10.4310  -16.7712 C   0  0  0  0  0  0  0  0  0  0  0  0
   18.8115  -11.5133  -17.5535 C   0  0  0  0  0  0  0  0  0  0  0  0
   21.6136   -6.5074  -15.4186 N   0  0  0  0  0  0  0  0  0  0  0  0
   21.9977   -5.2019  -14.9709 C   0  0  1  0  0  0  0  0  0  0  0  0
   23.0891   -4.5923  -15.8268 C   0  0  0  0  0  0  0  0  0  0  0  0
   23.3729   -2.9043  -15.2266 S   0  0  0  0  0  0  0  0  0  0  0  0
   20.8365   -4.2790  -15.0434 C   0  0  0  0  0  0  0  0  0  0  0  0
   19.8076   -4.5666  -15.7295 O   0  0  0  0  0  0  0  0  0  0  0  0
   20.9030   -3.0859  -14.3384 O   0  0  0  0  0  0  0  0  0  0  0  0
  2  1  1  0
  3  2  1  0
  3 12  1  0
  4  3  2  0
  6  5  1  0
  6  7  2  0
  8  7  1  0
  9  8  2  0
 10  9  1  0
 11 10  1  1
 11 12  1  0
 13 11  1  0
 13 17  1  0
 14 13  2  0
 15 16  2  0
 15  9  1  0
 16  6  1  0
 17 18  1  0
 18 21  1  0
 19 20  1  0
 18 19  1  6
 21 22  2  0
 21 23  1  0
M  END
$$$$
