GYC.pdb
     RDKit          3D

 23 23  0  0  1  0  0  0  0  0999 V2000
   31.1671  -22.2258  -10.5750 N   0  0  0  0  0  0  0  0  0  0  0  0
   30.4634  -20.9811  -10.3171 C   0  0  0  0  0  0  0  0  0  0  0  0
   29.0261  -21.2465   -9.9684 C   0  0  0  0  0  0  0  0  0  0  0  0
   28.6193  -22.4150   -9.9949 O   0  0  0  0  0  0  0  0  0  0  0  0
   29.2533  -20.3645   -3.4295 O   0  0  0  0  0  0  0  0  0  0  0  0
   28.5179  -20.1431   -4.5977 C   0  0  0  0  0  0  0  0  0  0  0  0
   27.5505  -21.0343   -5.0157 C   0  0  0  0  0  0  0  0  0  0  0  0
   26.8294  -20.8063   -6.1714 C   0  0  0  0  0  0  0  0  0  0  0  0
   27.0412  -19.6898   -6.9519 C   0  0  0  0  0  0  0  0  0  0  0  0
   26.2681  -19.4310   -8.2045 C   0  0  0  0  0  0  0  0  0  0  0  0
   26.7712  -20.3022   -9.3014 C   0  0  2  0  0  0  0  0  0  0  0  0
   28.1530  -20.1852   -9.6167 N   0  0  0  0  0  0  0  0  0  0  0  0
   25.9168  -20.2813  -10.5308 C   0  0  0  0  0  0  0  0  0  0  0  0
   26.2309  -19.4993  -11.4500 O   0  0  0  0  0  0  0  0  0  0  0  0
   28.0081  -18.8056   -6.5281 C   0  0  0  0  0  0  0  0  0  0  0  0
   28.7348  -19.0247   -5.3733 C   0  0  0  0  0  0  0  0  0  0  0  0
   24.7847  -21.1311  -10.6362 N   0  0  0  0  0  0  0  0  0  0  0  0
   24.0476  -21.1571  -11.8644 C   0  0  1  0  0  0  0  0  0  0  0  0
   24.1611  -22.4867  -12.5817 C   0  0  0  0  0  0  0  0  0  0  0  0
   23.1071  -22.4020  -14.0555 S   0  0  0  0  0  0  0  0  0  0  0  0
   22.6032  -20.9432  -11.5934 C   0  0  0  0  0  0  0  0  0  0  0  0
   22.1507  -20.9236  -10.4073 O   0  0  0  0  0  0  0  0  0  0  0  0
   21.7534  -20.7639  -12.6753 O   0  0  0  0  0  0  0  0  0  0  0  0
  2  1  1  0
  3  2  1  0
  3 12  1  0
  4  3  2  0
  6  5  1  0
  6  7  2  0
  8  7  1  0
  9  8  2  0
 10  9  1  0
 11 10  1  1
 11 12  1  0
 13 11  1  0
 13 17  1  0
 14 13  2  0
 15 16  2  0
 15  9  1  0
 16  6  1  0
 17 18  1  0
 18 21  1  0
 19 20  1  0
 18 19  1  1
 21 22  2  0
 21 23  1  0
M  END
$$$$
