GYC.pdb
     RDKit          3D

 23 23  0  0  1  0  0  0  0  0999 V2000
   19.3771   -8.0007  -16.2212 N   0  0  0  0  0  0  0  0  0  0  0  0
   20.5896   -8.6976  -16.6151 C   0  0  0  0  0  0  0  0  0  0  0  0
   21.7002   -7.7211  -16.8816 C   0  0  0  0  0  0  0  0  0  0  0  0
   21.6415   -7.0268  -17.9045 O   0  0  0  0  0  0  0  0  0  0  0  0
   19.6953   -2.0009  -16.0937 O   0  0  0  0  0  0  0  0  0  0  0  0
   20.7647   -2.8783  -15.8908 C   0  0  0  0  0  0  0  0  0  0  0  0
   21.8865   -2.8392  -16.6937 C   0  0  0  0  0  0  0  0  0  0  0  0
   22.9377   -3.7105  -16.4850 C   0  0  0  0  0  0  0  0  0  0  0  0
   22.9141   -4.6491  -15.4755 C   0  0  0  0  0  0  0  0  0  0  0  0
   24.0445   -5.5976  -15.2386 C   0  0  0  0  0  0  0  0  0  0  0  0
   23.9315   -6.7626  -16.1580 C   0  0  2  0  0  0  0  0  0  0  0  0
   22.7917   -7.5952  -15.9844 N   0  0  0  0  0  0  0  0  0  0  0  0
   25.1912   -7.5629  -16.2781 C   0  0  0  0  0  0  0  0  0  0  0  0
   25.6824   -8.0432  -15.2374 O   0  0  0  0  0  0  0  0  0  0  0  0
   21.7913   -4.6817  -14.6789 C   0  0  0  0  0  0  0  0  0  0  0  0
   20.7345   -3.8143  -14.8796 C   0  0  0  0  0  0  0  0  0  0  0  0
   25.8001   -7.7629  -17.5448 N   0  0  0  0  0  0  0  0  0  0  0  0
   26.9557   -8.6047  -17.6350 C   0  0  1  0  0  0  0  0  0  0  0  0
   26.6736  -10.0270  -17.1957 C   0  0  0  0  0  0  0  0  0  0  0  0
   27.3461  -10.2237  -15.5226 S   0  0  0  0  0  0  0  0  0  0  0  0
   27.4195   -8.6799  -19.0437 C   0  0  0  0  0  0  0  0  0  0  0  0
   26.6687   -8.3270  -20.0049 O   0  0  0  0  0  0  0  0  0  0  0  0
   28.7026   -9.1485  -19.2867 O   0  0  0  0  0  0  0  0  0  0  0  0
  2  1  1  0
  3  2  1  0
  3 12  1  0
  4  3  2  0
  6  5  1  0
  6  7  2  0
  8  7  1  0
  9  8  2  0
 10  9  1  0
 11 10  1  1
 11 12  1  0
 13 11  1  0
 13 17  1  0
 14 13  2  0
 15 16  2  0
 15  9  1  0
 16  6  1  0
 17 18  1  0
 18 21  1  0
 19 20  1  0
 18 19  1  6
 21 22  2  0
 21 23  1  0
M  END
$$$$
