GYC.pdb
     RDKit          3D

 23 23  0  0  1  0  0  0  0  0999 V2000
   25.0719  -10.9200  -15.9039 N   0  0  0  0  0  0  0  0  0  0  0  0
   24.3555  -10.2521  -14.8307 C   0  0  0  0  0  0  0  0  0  0  0  0
   23.3659   -9.2671  -15.3858 C   0  0  0  0  0  0  0  0  0  0  0  0
   23.1592   -9.2634  -16.6060 O   0  0  0  0  0  0  0  0  0  0  0  0
   18.2731  -12.4981  -16.6595 O   0  0  0  0  0  0  0  0  0  0  0  0
   18.7740  -11.3157  -16.1067 C   0  0  0  0  0  0  0  0  0  0  0  0
   19.1516  -11.2476  -14.7810 C   0  0  0  0  0  0  0  0  0  0  0  0
   19.6453  -10.0746  -14.2445 C   0  0  0  0  0  0  0  0  0  0  0  0
   19.7819   -8.9303  -15.0012 C   0  0  0  0  0  0  0  0  0  0  0  0
   20.3147   -7.6547  -14.4333 C   0  0  0  0  0  0  0  0  0  0  0  0
   21.6971   -7.4153  -14.9303 C   0  0  2  0  0  0  0  0  0  0  0  0
   22.6825   -8.3611  -14.5345 N   0  0  0  0  0  0  0  0  0  0  0  0
   22.1716   -6.0074  -14.7443 C   0  0  0  0  0  0  0  0  0  0  0  0
   22.6571   -5.6933  -13.6395 O   0  0  0  0  0  0  0  0  0  0  0  0
   19.4031   -9.0065  -16.3229 C   0  0  0  0  0  0  0  0  0  0  0  0
   18.9080  -10.1753  -16.8690 C   0  0  0  0  0  0  0  0  0  0  0  0
   22.0670   -5.0660  -15.8016 N   0  0  0  0  0  0  0  0  0  0  0  0
   22.5294   -3.7271  -15.5878 C   0  0  1  0  0  0  0  0  0  0  0  0
   22.7002   -2.9582  -16.8820 C   0  0  0  0  0  0  0  0  0  0  0  0
   21.1516   -3.1103  -17.8142 S   0  0  0  0  0  0  0  0  0  0  0  0
   21.5420   -2.9736  -14.7738 C   0  0  0  0  0  0  0  0  0  0  0  0
   20.4107   -3.4711  -14.4826 O   0  0  0  0  0  0  0  0  0  0  0  0
   21.8874   -1.7033  -14.3357 O   0  0  0  0  0  0  0  0  0  0  0  0
  2  1  1  0
  3  2  1  0
  3 12  1  0
  4  3  2  0
  6  5  1  0
  6  7  2  0
  8  7  1  0
  9  8  2  0
 10  9  1  0
 11 10  1  1
 11 12  1  0
 13 11  1  0
 13 17  1  0
 14 13  2  0
 15 16  2  0
 15  9  1  0
 16  6  1  0
 17 18  1  0
 18 21  1  0
 19 20  1  0
 18 19  1  6
 21 22  2  0
 21 23  1  0
M  END
$$$$
