GYC.pdb
     RDKit          3D

 23 23  0  0  1  0  0  0  0  0999 V2000
   19.3301  -13.3897  -16.2845 N   0  0  0  0  0  0  0  0  0  0  0  0
   18.5828  -12.1437  -16.2990 C   0  0  0  0  0  0  0  0  0  0  0  0
   19.4804  -10.9906  -16.6490 C   0  0  0  0  0  0  0  0  0  0  0  0
   20.6804  -11.2177  -16.8500 O   0  0  0  0  0  0  0  0  0  0  0  0
   19.8259  -11.4347  -22.7325 O   0  0  0  0  0  0  0  0  0  0  0  0
   19.7144  -10.5467  -21.6584 C   0  0  0  0  0  0  0  0  0  0  0  0
   20.7890   -9.7879  -21.2409 C   0  0  0  0  0  0  0  0  0  0  0  0
   20.6685   -8.9135  -20.1786 C   0  0  0  0  0  0  0  0  0  0  0  0
   19.4815   -8.7607  -19.4942 C   0  0  0  0  0  0  0  0  0  0  0  0
   19.3375   -7.8182  -18.3432 C   0  0  0  0  0  0  0  0  0  0  0  0
   19.7103   -8.5033  -17.0756 C   0  0  2  0  0  0  0  0  0  0  0  0
   18.9683   -9.6714  -16.7478 N   0  0  0  0  0  0  0  0  0  0  0  0
   19.8393   -7.5798  -15.9041 C   0  0  0  0  0  0  0  0  0  0  0  0
   18.8944   -7.5270  -15.0920 O   0  0  0  0  0  0  0  0  0  0  0  0
   18.4142   -9.5213  -19.9168 C   0  0  0  0  0  0  0  0  0  0  0  0
   18.5247  -10.3989  -20.9785 C   0  0  0  0  0  0  0  0  0  0  0  0
   21.0077   -6.7921  -15.7326 N   0  0  0  0  0  0  0  0  0  0  0  0
   21.0690   -5.8693  -14.6385 C   0  0  1  0  0  0  0  0  0  0  0  0
   22.3735   -5.9615  -13.8736 C   0  0  0  0  0  0  0  0  0  0  0  0
   22.3231   -4.7129  -12.5588 S   0  0  0  0  0  0  0  0  0  0  0  0
   20.9711   -4.4764  -15.1440 C   0  0  0  0  0  0  0  0  0  0  0  0
   21.6950   -4.0713  -16.1052 O   0  0  0  0  0  0  0  0  0  0  0  0
   20.0629   -3.6215  -14.5364 O   0  0  0  0  0  0  0  0  0  0  0  0
  2  1  1  0
  3  2  1  0
  3 12  1  0
  4  3  2  0
  6  5  1  0
  6  7  2  0
  8  7  1  0
  9  8  2  0
 10  9  1  0
 11 10  1  6
 11 12  1  0
 13 11  1  0
 13 17  1  0
 14 13  2  0
 15 16  2  0
 15  9  1  0
 16  6  1  0
 17 18  1  0
 18 21  1  0
 19 20  1  0
 18 19  1  6
 21 22  2  0
 21 23  1  0
M  END
$$$$
