GYC.pdb
     RDKit          3D

 23 23  0  0  1  0  0  0  0  0999 V2000
   28.3108  -23.2678  -17.4210 N   0  0  0  0  0  0  0  0  0  0  0  0
   28.2225  -21.9886  -16.7378 C   0  0  0  0  0  0  0  0  0  0  0  0
   27.2170  -22.0506  -15.6228 C   0  0  0  0  0  0  0  0  0  0  0  0
   26.4999  -23.0552  -15.5313 O   0  0  0  0  0  0  0  0  0  0  0  0
   22.8631  -20.8660   -8.1620 O   0  0  0  0  0  0  0  0  0  0  0  0
   23.7788  -20.6944   -9.2044 C   0  0  0  0  0  0  0  0  0  0  0  0
   23.4814  -19.9064  -10.2977 C   0  0  0  0  0  0  0  0  0  0  0  0
   24.3931  -19.7434  -11.3223 C   0  0  0  0  0  0  0  0  0  0  0  0
   25.6288  -20.3542  -11.2996 C   0  0  0  0  0  0  0  0  0  0  0  0
   26.6245  -20.1862  -12.4014 C   0  0  0  0  0  0  0  0  0  0  0  0
   26.1668  -20.9153  -13.6156 C   0  0  2  0  0  0  0  0  0  0  0  0
   27.0898  -20.9850  -14.6952 N   0  0  0  0  0  0  0  0  0  0  0  0
   24.7987  -20.5203  -14.0786 C   0  0  0  0  0  0  0  0  0  0  0  0
   24.6480  -19.3780  -14.5555 O   0  0  0  0  0  0  0  0  0  0  0  0
   25.9179  -21.1387  -10.2054 C   0  0  0  0  0  0  0  0  0  0  0  0
   25.0126  -21.3081   -9.1753 C   0  0  0  0  0  0  0  0  0  0  0  0
   23.7122  -21.4278  -13.9731 N   0  0  0  0  0  0  0  0  0  0  0  0
   22.4150  -21.0129  -14.4173 C   0  0  1  0  0  0  0  0  0  0  0  0
   21.9038  -21.8457  -15.5751 C   0  0  0  0  0  0  0  0  0  0  0  0
   23.1187  -21.7178  -16.9159 S   0  0  0  0  0  0  0  0  0  0  0  0
   21.4294  -21.1658  -13.3170 C   0  0  0  0  0  0  0  0  0  0  0  0
   21.7356  -21.7550  -12.2347 O   0  0  0  0  0  0  0  0  0  0  0  0
   20.1564  -20.6458  -13.5010 O   0  0  0  0  0  0  0  0  0  0  0  0
  2  1  1  0
  3  2  1  0
  3 12  1  0
  4  3  2  0
  6  5  1  0
  6  7  2  0
  8  7  1  0
  9  8  2  0
 10  9  1  0
 11 10  1  1
 11 12  1  0
 13 11  1  0
 13 17  1  0
 14 13  2  0
 15 16  2  0
 15  9  1  0
 16  6  1  0
 17 18  1  0
 18 21  1  0
 19 20  1  0
 18 19  1  6
 21 22  2  0
 21 23  1  0
M  END
$$$$
