GFV.pdb
     RDKit          3D

 23 23  0  0  1  0  0  0  0  0999 V2000
    8.3439  -16.8265   18.5488 N   0  0  0  0  0  0  0  0  0  0  0  0
    7.4114  -16.8981   19.6430 C   0  0  0  0  0  0  0  0  0  0  0  0
    7.9670  -16.1859   20.8485 C   0  0  0  0  0  0  0  0  0  0  0  0
    9.1644  -15.8183   20.8395 O   0  0  0  0  0  0  0  0  0  0  0  0
    7.1663  -15.9253   21.9852 N   0  0  0  0  0  0  0  0  0  0  0  0
    7.7293  -15.0927   23.0761 C   0  0  1  0  0  0  0  0  0  0  0  0
    6.5921  -14.4924   23.8160 C   0  0  0  0  0  0  0  0  0  0  0  0
    6.8715  -13.7703   25.0515 C   0  0  0  0  0  0  0  0  0  0  0  0
    7.1509  -12.3965   25.0111 C   0  0  0  0  0  0  0  0  0  0  0  0
    7.3804  -11.6546   26.1483 C   0  0  0  0  0  0  0  0  0  0  0  0
    7.3400  -12.2603   27.3853 C   0  0  0  0  0  0  0  0  0  0  0  0
    7.0695  -13.6043   27.4645 C   0  0  0  0  0  0  0  0  0  0  0  0
    6.8428  -14.3252   26.3045 C   0  0  0  0  0  0  0  0  0  0  0  0
    8.5378  -15.9826   23.9237 C   0  0  0  0  0  0  0  0  0  0  0  0
    8.0370  -17.1236   24.2711 O   0  0  0  0  0  0  0  0  0  0  0  0
   12.8774  -17.8322   25.0115 C   0  0  0  0  0  0  0  0  0  0  0  0
   12.0175  -16.7488   24.3893 C   0  0  1  0  0  0  0  0  0  0  0  0
   11.8973  -16.9203   22.9036 C   0  0  0  0  0  0  0  0  0  0  0  0
   10.6049  -16.8502   24.9730 C   0  0  2  0  0  0  0  0  0  0  0  0
    9.8348  -15.7587   24.4214 N   0  0  0  0  0  0  0  0  0  0  0  0
   10.6270  -16.7764   26.4351 C   0  0  0  0  0  0  0  0  0  0  0  0
   10.7624  -17.8334   27.3156 O   0  0  0  0  0  0  0  0  0  0  0  0
   10.5113  -15.6331   27.0200 O   0  0  0  0  0  0  0  0  0  0  0  0
  1  2  1  0
  3  4  2  0
  3  2  1  0
  5  3  1  0
  6  5  1  0
  6 14  1  0
  6  7  1  1
  8  7  1  0
  9  8  2  0
 10  9  1  0
 11 12  1  0
 11 10  2  0
 12 13  2  0
 13  8  1  0
 14 20  1  0
 15 14  2  0
 17 19  1  0
 17 16  1  1
 17 18  1  0
 19 21  1  0
 19 20  1  6
 21 23  2  0
 21 22  1  0
M  END
$$$$
