GFV.pdb
     RDKit          3D

 23 23  0  0  1  0  0  0  0  0999 V2000
    7.8607  -17.6746   19.1191 N   0  0  0  0  0  0  0  0  0  0  0  0
    7.1419  -17.8091   20.3590 C   0  0  0  0  0  0  0  0  0  0  0  0
    7.7074  -16.8714   21.3934 C   0  0  0  0  0  0  0  0  0  0  0  0
    8.8078  -16.3149   21.1731 O   0  0  0  0  0  0  0  0  0  0  0  0
    7.0230  -16.6083   22.6031 N   0  0  0  0  0  0  0  0  0  0  0  0
    7.6029  -15.6236   23.5488 C   0  0  1  0  0  0  0  0  0  0  0  0
    6.4886  -15.0599   24.3500 C   0  0  0  0  0  0  0  0  0  0  0  0
    6.8043  -14.0903   25.3922 C   0  0  0  0  0  0  0  0  0  0  0  0
    7.0748  -12.7575   25.0493 C   0  0  0  0  0  0  0  0  0  0  0  0
    7.3373  -11.7897   25.9931 C   0  0  0  0  0  0  0  0  0  0  0  0
    7.3406  -12.1163   27.3317 C   0  0  0  0  0  0  0  0  0  0  0  0
    7.0801  -13.4116   27.7057 C   0  0  0  0  0  0  0  0  0  0  0  0
    6.8196  -14.3638   26.7352 C   0  0  0  0  0  0  0  0  0  0  0  0
    8.5767  -16.3471   24.3807 C   0  0  0  0  0  0  0  0  0  0  0  0
    8.2221  -17.4773   24.9007 O   0  0  0  0  0  0  0  0  0  0  0  0
   13.2118  -17.6047   25.1703 C   0  0  0  0  0  0  0  0  0  0  0  0
   12.1843  -16.6678   24.5645 C   0  0  1  0  0  0  0  0  0  0  0  0
   12.0179  -16.9039   23.0922 C   0  0  0  0  0  0  0  0  0  0  0  0
   10.8279  -16.9378   25.2231 C   0  0  2  0  0  0  0  0  0  0  0  0
    9.8953  -15.9688   24.6943 N   0  0  0  0  0  0  0  0  0  0  0  0
   10.9130  -16.8273   26.6806 C   0  0  0  0  0  0  0  0  0  0  0  0
   10.6437  -15.7061   27.4430 O   0  0  0  0  0  0  0  0  0  0  0  0
   11.2720  -17.8493   27.3800 O   0  0  0  0  0  0  0  0  0  0  0  0
  1  2  1  0
  3  4  2  0
  3  2  1  0
  5  3  1  0
  6  5  1  0
  6 14  1  0
  6  7  1  1
  8  7  1  0
  9  8  2  0
 10  9  1  0
 11 12  1  0
 11 10  2  0
 12 13  2  0
 13  8  1  0
 14 20  1  0
 15 14  2  0
 17 19  1  0
 17 16  1  1
 17 18  1  0
 19 21  1  0
 19 20  1  6
 21 23  2  0
 21 22  1  0
M  END
$$$$
