GFV.pdb
     RDKit          3D

 23 23  0  0  1  0  0  0  0  0999 V2000
    6.4813  -20.3307   24.3384 N   0  0  0  0  0  0  0  0  0  0  0  0
    6.3464  -19.0381   24.9571 C   0  0  0  0  0  0  0  0  0  0  0  0
    7.2922  -18.0541   24.3195 C   0  0  0  0  0  0  0  0  0  0  0  0
    8.1245  -18.4672   23.4794 O   0  0  0  0  0  0  0  0  0  0  0  0
    7.2587  -16.6790   24.6496 N   0  0  0  0  0  0  0  0  0  0  0  0
    8.2313  -15.7674   23.9990 C   0  0  1  0  0  0  0  0  0  0  0  0
    7.5185  -14.5075   23.6739 C   0  0  0  0  0  0  0  0  0  0  0  0
    7.0968  -13.6454   24.7717 C   0  0  0  0  0  0  0  0  0  0  0  0
    7.6550  -12.3663   24.9109 C   0  0  0  0  0  0  0  0  0  0  0  0
    7.2653  -11.4932   25.9019 C   0  0  0  0  0  0  0  0  0  0  0  0
    6.2925  -11.8653   26.8040 C   0  0  0  0  0  0  0  0  0  0  0  0
    5.7230  -13.1104   26.6992 C   0  0  0  0  0  0  0  0  0  0  0  0
    6.1344  -13.9675   25.6929 C   0  0  0  0  0  0  0  0  0  0  0  0
    9.3293  -15.5556   24.9547 C   0  0  0  0  0  0  0  0  0  0  0  0
   10.4645  -15.1304   24.5031 O   0  0  0  0  0  0  0  0  0  0  0  0
    9.8194  -13.2900   27.7103 C   0  0  0  0  0  0  0  0  0  0  0  0
   10.1932  -14.6440   28.2826 C   0  0  1  0  0  0  0  0  0  0  0  0
    9.0572  -15.2555   29.0486 C   0  0  0  0  0  0  0  0  0  0  0  0
   10.5206  -15.5911   27.1241 C   0  0  2  0  0  0  0  0  0  0  0  0
    9.3120  -15.7513   26.3480 N   0  0  0  0  0  0  0  0  0  0  0  0
   10.9925  -16.8876   27.6141 C   0  0  0  0  0  0  0  0  0  0  0  0
   12.2030  -17.1501   28.2277 O   0  0  0  0  0  0  0  0  0  0  0  0
   10.2449  -17.9304   27.4872 O   0  0  0  0  0  0  0  0  0  0  0  0
  1  2  1  0
  3  4  2  0
  3  2  1  0
  5  3  1  0
  6  5  1  0
  6 14  1  0
  6  7  1  1
  8  7  1  0
  9  8  2  0
 10  9  1  0
 11 12  1  0
 11 10  2  0
 12 13  2  0
 13  8  1  0
 14 20  1  0
 15 14  2  0
 17 19  1  0
 17 16  1  6
 17 18  1  0
 19 21  1  0
 19 20  1  1
 21 23  2  0
 21 22  1  0
M  END
$$$$
