GFV.pdb
     RDKit          3D

 23 23  0  0  1  0  0  0  0  0999 V2000
    6.6062  -18.1959   19.6916 N   0  0  0  0  0  0  0  0  0  0  0  0
    6.2082  -18.2829   21.0722 C   0  0  0  0  0  0  0  0  0  0  0  0
    6.9128  -17.2284   21.8850 C   0  0  0  0  0  0  0  0  0  0  0  0
    7.8197  -16.5515   21.3480 O   0  0  0  0  0  0  0  0  0  0  0  0
    6.5718  -16.9890   23.2369 N   0  0  0  0  0  0  0  0  0  0  0  0
    7.2968  -15.9268   23.9760 C   0  0  1  0  0  0  0  0  0  0  0  0
    6.4123  -15.4570   25.0705 C   0  0  0  0  0  0  0  0  0  0  0  0
    6.8552  -14.3331   25.8870 C   0  0  0  0  0  0  0  0  0  0  0  0
    6.2979  -13.0614   25.6883 C   0  0  0  0  0  0  0  0  0  0  0  0
    6.6462  -11.9730   26.4567 C   0  0  0  0  0  0  0  0  0  0  0  0
    7.5748  -12.1111   27.4653 C   0  0  0  0  0  0  0  0  0  0  0  0
    8.1422  -13.3413   27.6894 C   0  0  0  0  0  0  0  0  0  0  0  0
    7.7731  -14.4179   26.9013 C   0  0  0  0  0  0  0  0  0  0  0  0
    8.5403  -16.5270   24.4834 C   0  0  0  0  0  0  0  0  0  0  0  0
    8.4767  -17.6896   25.0471 O   0  0  0  0  0  0  0  0  0  0  0  0
   13.3667  -17.1533   24.0642 C   0  0  0  0  0  0  0  0  0  0  0  0
   12.1210  -16.3380   23.7744 C   0  0  1  0  0  0  0  0  0  0  0  0
   11.6656  -16.5060   22.3546 C   0  0  0  0  0  0  0  0  0  0  0  0
   10.9882  -16.8386   24.6759 C   0  0  2  0  0  0  0  0  0  0  0  0
    9.8414  -15.9939   24.4307 N   0  0  0  0  0  0  0  0  0  0  0  0
   11.3709  -16.7885   26.0883 C   0  0  0  0  0  0  0  0  0  0  0  0
   12.0298  -17.7713   26.8029 O   0  0  0  0  0  0  0  0  0  0  0  0
   11.0899  -15.7445   26.7908 O   0  0  0  0  0  0  0  0  0  0  0  0
  1  2  1  0
  3  4  2  0
  3  2  1  0
  5  3  1  0
  6  5  1  0
  6 14  1  0
  6  7  1  1
  8  7  1  0
  9  8  2  0
 10  9  1  0
 11 12  1  0
 11 10  2  0
 12 13  2  0
 13  8  1  0
 14 20  1  0
 15 14  2  0
 17 19  1  0
 17 16  1  6
 17 18  1  0
 19 21  1  0
 19 20  1  1
 21 23  2  0
 21 22  1  0
M  END
$$$$
