GFV.pdb
     RDKit          3D

 23 23  0  0  1  0  0  0  0  0999 V2000
    9.7536  -17.3494   19.3845 N   0  0  0  0  0  0  0  0  0  0  0  0
    8.6640  -17.3559   20.3251 C   0  0  0  0  0  0  0  0  0  0  0  0
    8.9389  -16.3897   21.4476 C   0  0  0  0  0  0  0  0  0  0  0  0
   10.0914  -15.9153   21.5733 O   0  0  0  0  0  0  0  0  0  0  0  0
    7.9254  -16.0095   22.3582 N   0  0  0  0  0  0  0  0  0  0  0  0
    8.2772  -15.0976   23.4740 C   0  0  1  0  0  0  0  0  0  0  0  0
    7.0492  -14.3563   23.8529 C   0  0  0  0  0  0  0  0  0  0  0  0
    7.1066  -13.4585   25.0004 C   0  0  0  0  0  0  0  0  0  0  0  0
    6.3990  -13.7719   26.1701 C   0  0  0  0  0  0  0  0  0  0  0  0
    6.4494  -12.9841   27.2985 C   0  0  0  0  0  0  0  0  0  0  0  0
    7.2163  -11.8394   27.3052 C   0  0  0  0  0  0  0  0  0  0  0  0
    7.9231  -11.5000   26.1779 C   0  0  0  0  0  0  0  0  0  0  0  0
    7.8535  -12.3107   25.0579 C   0  0  0  0  0  0  0  0  0  0  0  0
    8.7831  -15.9357   24.5721 C   0  0  0  0  0  0  0  0  0  0  0  0
    8.1171  -16.9974   24.8926 O   0  0  0  0  0  0  0  0  0  0  0  0
   12.0413  -17.4534   24.4861 C   0  0  0  0  0  0  0  0  0  0  0  0
   11.9031  -16.9892   25.9234 C   0  0  1  0  0  0  0  0  0  0  0  0
   12.5924  -15.6761   26.1513 C   0  0  0  0  0  0  0  0  0  0  0  0
   10.4167  -16.7798   26.2289 C   0  0  2  0  0  0  0  0  0  0  0  0
    9.9412  -15.7387   25.3466 N   0  0  0  0  0  0  0  0  0  0  0  0
   10.2094  -16.4021   27.6282 C   0  0  0  0  0  0  0  0  0  0  0  0
   10.2886  -17.2326   28.7305 O   0  0  0  0  0  0  0  0  0  0  0  0
    9.9192  -15.1815   27.9254 O   0  0  0  0  0  0  0  0  0  0  0  0
  1  2  1  0
  3  4  2  0
  3  2  1  0
  5  3  1  0
  6  5  1  0
  6 14  1  0
  6  7  1  1
  8  7  1  0
  9  8  2  0
 10  9  1  0
 11 12  1  0
 11 10  2  0
 12 13  2  0
 13  8  1  0
 14 20  1  0
 15 14  2  0
 17 19  1  0
 17 16  1  6
 17 18  1  0
 19 21  1  0
 19 20  1  6
 21 23  2  0
 21 22  1  0
M  END
$$$$
