GFV.pdb
     RDKit          3D

 23 23  0  0  1  0  0  0  0  0999 V2000
   11.6380  -17.1724   20.3961 N   0  0  0  0  0  0  0  0  0  0  0  0
   10.4849  -17.5180   21.1852 C   0  0  0  0  0  0  0  0  0  0  0  0
   10.1571  -16.4037   22.1445 C   0  0  0  0  0  0  0  0  0  0  0  0
   10.9796  -15.4715   22.2980 O   0  0  0  0  0  0  0  0  0  0  0  0
    8.9440  -16.3898   22.8719 N   0  0  0  0  0  0  0  0  0  0  0  0
    8.7236  -15.3120   23.8669 C   0  0  1  0  0  0  0  0  0  0  0  0
    7.2831  -14.9582   23.8346 C   0  0  0  0  0  0  0  0  0  0  0  0
    6.8133  -13.8809   24.6976 C   0  0  0  0  0  0  0  0  0  0  0  0
    7.1798  -12.5550   24.4241 C   0  0  0  0  0  0  0  0  0  0  0  0
    6.7324  -11.4934   25.1787 C   0  0  0  0  0  0  0  0  0  0  0  0
    5.8923  -11.7145   26.2482 C   0  0  0  0  0  0  0  0  0  0  0  0
    5.5119  -12.9997   26.5466 C   0  0  0  0  0  0  0  0  0  0  0  0
    5.9772  -14.0477   25.7708 C   0  0  0  0  0  0  0  0  0  0  0  0
    9.1377  -15.8420   25.1751 C   0  0  0  0  0  0  0  0  0  0  0  0
    9.4056  -17.1040   25.2707 O   0  0  0  0  0  0  0  0  0  0  0  0
   10.8594  -15.2486   29.7654 C   0  0  0  0  0  0  0  0  0  0  0  0
    9.9329  -14.7702   28.6641 C   0  0  1  0  0  0  0  0  0  0  0  0
   10.2653  -13.3740   28.2266 C   0  0  0  0  0  0  0  0  0  0  0  0
   10.1103  -15.6813   27.4455 C   0  0  2  0  0  0  0  0  0  0  0  0
    9.2972  -15.1367   26.3822 N   0  0  0  0  0  0  0  0  0  0  0  0
    9.7087  -17.0567   27.7469 C   0  0  0  0  0  0  0  0  0  0  0  0
    8.4174  -17.5331   27.8742 O   0  0  0  0  0  0  0  0  0  0  0  0
   10.6094  -17.9623   27.9231 O   0  0  0  0  0  0  0  0  0  0  0  0
  1  2  1  0
  3  4  2  0
  3  2  1  0
  5  3  1  0
  6  5  1  0
  6 14  1  0
  6  7  1  1
  8  7  1  0
  9  8  2  0
 10  9  1  0
 11 12  1  0
 11 10  2  0
 12 13  2  0
 13  8  1  0
 14 20  1  0
 15 14  2  0
 17 19  1  0
 17 16  1  1
 17 18  1  0
 19 21  1  0
 19 20  1  6
 21 23  2  0
 21 22  1  0
M  END
$$$$
