GFV.pdb
     RDKit          3D

 23 23  0  0  1  0  0  0  0  0999 V2000
    6.0567  -19.0105   20.3011 N   0  0  0  0  0  0  0  0  0  0  0  0
    5.8803  -18.9328   21.7275 C   0  0  0  0  0  0  0  0  0  0  0  0
    6.4672  -17.6500   22.2560 C   0  0  0  0  0  0  0  0  0  0  0  0
    7.1858  -16.9540   21.5021 O   0  0  0  0  0  0  0  0  0  0  0  0
    6.2238  -17.2183   23.5809 N   0  0  0  0  0  0  0  0  0  0  0  0
    6.9770  -16.0498   24.0980 C   0  0  1  0  0  0  0  0  0  0  0  0
    6.1366  -15.3943   25.1301 C   0  0  0  0  0  0  0  0  0  0  0  0
    6.6429  -14.1881   25.7741 C   0  0  0  0  0  0  0  0  0  0  0  0
    6.6998  -12.9837   25.0576 C   0  0  0  0  0  0  0  0  0  0  0  0
    7.1286  -11.8047   25.6257 C   0  0  0  0  0  0  0  0  0  0  0  0
    7.5221  -11.7798   26.9460 C   0  0  0  0  0  0  0  0  0  0  0  0
    7.4801  -12.9399   27.6794 C   0  0  0  0  0  0  0  0  0  0  0  0
    7.0448  -14.1106   27.0822 C   0  0  0  0  0  0  0  0  0  0  0  0
    8.2402  -16.5620   24.6511 C   0  0  0  0  0  0  0  0  0  0  0  0
    8.2040  -17.6290   25.3816 O   0  0  0  0  0  0  0  0  0  0  0  0
   13.0762  -17.1468   24.1219 C   0  0  0  0  0  0  0  0  0  0  0  0
   11.8280  -16.3289   23.8512 C   0  0  1  0  0  0  0  0  0  0  0  0
   11.3740  -16.4638   22.4275 C   0  0  0  0  0  0  0  0  0  0  0  0
   10.6964  -16.8550   24.7396 C   0  0  2  0  0  0  0  0  0  0  0  0
    9.5342  -16.0356   24.4818 N   0  0  0  0  0  0  0  0  0  0  0  0
   11.0619  -16.7975   26.1562 C   0  0  0  0  0  0  0  0  0  0  0  0
   11.6265  -17.8112   26.9074 O   0  0  0  0  0  0  0  0  0  0  0  0
   10.8587  -15.7146   26.8261 O   0  0  0  0  0  0  0  0  0  0  0  0
  1  2  1  0
  3  4  2  0
  3  2  1  0
  5  3  1  0
  6  5  1  0
  6 14  1  0
  6  7  1  1
  8  7  1  0
  9  8  2  0
 10  9  1  0
 11 12  1  0
 11 10  2  0
 12 13  2  0
 13  8  1  0
 14 20  1  0
 15 14  2  0
 17 19  1  0
 17 16  1  6
 17 18  1  0
 19 21  1  0
 19 20  1  1
 21 23  2  0
 21 22  1  0
M  END
$$$$
