GFV.pdb
     RDKit          3D

 23 23  0  0  1  0  0  0  0  0999 V2000
   11.6886  -17.0180   20.1698 N   0  0  0  0  0  0  0  0  0  0  0  0
   10.5864  -17.4383   20.9948 C   0  0  0  0  0  0  0  0  0  0  0  0
   10.3026  -16.4033   22.0519 C   0  0  0  0  0  0  0  0  0  0  0  0
   11.0997  -15.4479   22.1973 O   0  0  0  0  0  0  0  0  0  0  0  0
    9.1587  -16.4890   22.8797 N   0  0  0  0  0  0  0  0  0  0  0  0
    8.9464  -15.4432   23.9100 C   0  0  1  0  0  0  0  0  0  0  0  0
    7.4997  -15.1145   23.9253 C   0  0  0  0  0  0  0  0  0  0  0  0
    7.0441  -14.0263   24.7822 C   0  0  0  0  0  0  0  0  0  0  0  0
    7.3371  -12.6978   24.4413 C   0  0  0  0  0  0  0  0  0  0  0  0
    6.8973  -11.6282   25.1890 C   0  0  0  0  0  0  0  0  0  0  0  0
    6.1392  -11.8435   26.3193 C   0  0  0  0  0  0  0  0  0  0  0  0
    5.8323  -13.1311   26.6846 C   0  0  0  0  0  0  0  0  0  0  0  0
    6.2880  -14.1871   25.9140 C   0  0  0  0  0  0  0  0  0  0  0  0
    9.4043  -16.0017   25.1915 C   0  0  0  0  0  0  0  0  0  0  0  0
    9.5712  -17.2815   25.2802 O   0  0  0  0  0  0  0  0  0  0  0  0
   11.4624  -13.6952   27.8016 C   0  0  0  0  0  0  0  0  0  0  0  0
   10.7829  -14.8724   28.4746 C   0  0  1  0  0  0  0  0  0  0  0  0
    9.4695  -14.4805   29.0849 C   0  0  0  0  0  0  0  0  0  0  0  0
   10.4901  -15.9392   27.4150 C   0  0  2  0  0  0  0  0  0  0  0  0
    9.7057  -15.3081   26.3781 N   0  0  0  0  0  0  0  0  0  0  0  0
    9.7650  -17.0742   27.9892 C   0  0  0  0  0  0  0  0  0  0  0  0
   10.3055  -18.1237   28.7085 O   0  0  0  0  0  0  0  0  0  0  0  0
    8.4870  -17.1586   27.8403 O   0  0  0  0  0  0  0  0  0  0  0  0
  1  2  1  0
  3  4  2  0
  3  2  1  0
  5  3  1  0
  6  5  1  0
  6 14  1  0
  6  7  1  1
  8  7  1  0
  9  8  2  0
 10  9  1  0
 11 12  1  0
 11 10  2  0
 12 13  2  0
 13  8  1  0
 14 20  1  0
 15 14  2  0
 17 19  1  0
 17 16  1  6
 17 18  1  0
 19 21  1  0
 19 20  1  6
 21 23  2  0
 21 22  1  0
M  END
$$$$
