GFV.pdb
     RDKit          3D

 23 23  0  0  1  0  0  0  0  0999 V2000
   11.8689  -17.0366   20.3320 N   0  0  0  0  0  0  0  0  0  0  0  0
   10.7188  -17.4296   21.1031 C   0  0  0  0  0  0  0  0  0  0  0  0
   10.3902  -16.3723   22.1245 C   0  0  0  0  0  0  0  0  0  0  0  0
   11.1836  -15.4167   22.2876 O   0  0  0  0  0  0  0  0  0  0  0  0
    9.2086  -16.4373   22.8995 N   0  0  0  0  0  0  0  0  0  0  0  0
    8.9699  -15.3894   23.9218 C   0  0  1  0  0  0  0  0  0  0  0  0
    7.5242  -15.0572   23.8958 C   0  0  0  0  0  0  0  0  0  0  0  0
    7.0494  -13.9583   24.7283 C   0  0  0  0  0  0  0  0  0  0  0  0
    6.3436  -14.2298   25.9095 C   0  0  0  0  0  0  0  0  0  0  0  0
    5.9079  -13.2348   26.7561 C   0  0  0  0  0  0  0  0  0  0  0  0
    6.1617  -11.9145   26.4548 C   0  0  0  0  0  0  0  0  0  0  0  0
    6.8502  -11.6099   25.3064 C   0  0  0  0  0  0  0  0  0  0  0  0
    7.2760  -12.6307   24.4738 C   0  0  0  0  0  0  0  0  0  0  0  0
    9.3902  -15.9470   25.2166 C   0  0  0  0  0  0  0  0  0  0  0  0
    9.5618  -17.2258   25.3090 O   0  0  0  0  0  0  0  0  0  0  0  0
   11.4368  -13.6342   27.8069 C   0  0  0  0  0  0  0  0  0  0  0  0
   10.7320  -14.7847   28.4997 C   0  0  1  0  0  0  0  0  0  0  0  0
    9.4201  -14.3576   29.0895 C   0  0  0  0  0  0  0  0  0  0  0  0
   10.4303  -15.8697   27.4613 C   0  0  2  0  0  0  0  0  0  0  0  0
    9.6495  -15.2532   26.4130 N   0  0  0  0  0  0  0  0  0  0  0  0
    9.6975  -16.9880   28.0581 C   0  0  0  0  0  0  0  0  0  0  0  0
   10.2228  -17.9972   28.8433 O   0  0  0  0  0  0  0  0  0  0  0  0
    8.4272  -17.0963   27.8655 O   0  0  0  0  0  0  0  0  0  0  0  0
  1  2  1  0
  3  4  2  0
  3  2  1  0
  5  3  1  0
  6  5  1  0
  6 14  1  0
  6  7  1  1
  8  7  1  0
  9  8  2  0
 10  9  1  0
 11 12  1  0
 11 10  2  0
 12 13  2  0
 13  8  1  0
 14 20  1  0
 15 14  2  0
 17 19  1  0
 17 16  1  6
 17 18  1  0
 19 21  1  0
 19 20  1  6
 21 23  2  0
 21 22  1  0
M  END
$$$$
