GFV.pdb
     RDKit          3D

 23 23  0  0  1  0  0  0  0  0999 V2000
   11.2101  -17.1304   19.9380 N   0  0  0  0  0  0  0  0  0  0  0  0
   10.1827  -17.5113   20.8714 C   0  0  0  0  0  0  0  0  0  0  0  0
   10.0125  -16.4456   21.9223 C   0  0  0  0  0  0  0  0  0  0  0  0
   10.8861  -15.5545   22.0321 O   0  0  0  0  0  0  0  0  0  0  0  0
    8.8905  -16.4318   22.7838 N   0  0  0  0  0  0  0  0  0  0  0  0
    8.7674  -15.3340   23.7738 C   0  0  1  0  0  0  0  0  0  0  0  0
    7.3239  -15.0279   23.9281 C   0  0  0  0  0  0  0  0  0  0  0  0
    6.9391  -13.9043   24.7739 C   0  0  0  0  0  0  0  0  0  0  0  0
    6.1755  -14.1274   25.9291 C   0  0  0  0  0  0  0  0  0  0  0  0
    5.8188  -13.1115   26.7875 C   0  0  0  0  0  0  0  0  0  0  0  0
    6.2139  -11.8178   26.5251 C   0  0  0  0  0  0  0  0  0  0  0  0
    6.9627  -11.5607   25.4031 C   0  0  0  0  0  0  0  0  0  0  0  0
    7.3066  -12.6017   24.5577 C   0  0  0  0  0  0  0  0  0  0  0  0
    9.3721  -15.8134   25.0261 C   0  0  0  0  0  0  0  0  0  0  0  0
    9.6071  -17.0794   25.1505 O   0  0  0  0  0  0  0  0  0  0  0  0
    9.6453  -13.8272   28.5877 C   0  0  0  0  0  0  0  0  0  0  0  0
   10.9272  -14.5210   28.1684 C   0  0  1  0  0  0  0  0  0  0  0  0
   11.6194  -15.1607   29.3358 C   0  0  0  0  0  0  0  0  0  0  0  0
   10.5778  -15.6386   27.1807 C   0  0  2  0  0  0  0  0  0  0  0  0
    9.7529  -15.0541   26.1479 N   0  0  0  0  0  0  0  0  0  0  0  0
    9.8698  -16.7340   27.8457 C   0  0  0  0  0  0  0  0  0  0  0  0
   10.4382  -17.8158   28.4918 O   0  0  0  0  0  0  0  0  0  0  0  0
    8.5805  -16.7459   27.8624 O   0  0  0  0  0  0  0  0  0  0  0  0
  1  2  1  0
  3  4  2  0
  3  2  1  0
  5  3  1  0
  6  5  1  0
  6 14  1  0
  6  7  1  1
  8  7  1  0
  9  8  2  0
 10  9  1  0
 11 12  1  0
 11 10  2  0
 12 13  2  0
 13  8  1  0
 14 20  1  0
 15 14  2  0
 17 19  1  0
 17 16  1  1
 17 18  1  0
 19 21  1  0
 19 20  1  6
 21 23  2  0
 21 22  1  0
M  END
$$$$
