GFV.pdb
     RDKit          3D

 23 23  0  0  1  0  0  0  0  0999 V2000
   11.9255  -17.0446   20.2126 N   0  0  0  0  0  0  0  0  0  0  0  0
   10.7957  -17.4486   21.0077 C   0  0  0  0  0  0  0  0  0  0  0  0
   10.4975  -16.4085   22.0557 C   0  0  0  0  0  0  0  0  0  0  0  0
   11.3313  -15.4968   22.2624 O   0  0  0  0  0  0  0  0  0  0  0  0
    9.2997  -16.4412   22.8076 N   0  0  0  0  0  0  0  0  0  0  0  0
    9.0589  -15.3735   23.8087 C   0  0  1  0  0  0  0  0  0  0  0  0
    7.6134  -15.0410   23.7723 C   0  0  0  0  0  0  0  0  0  0  0  0
    7.1168  -14.0042   24.6692 C   0  0  0  0  0  0  0  0  0  0  0  0
    7.4423  -12.6604   24.4334 C   0  0  0  0  0  0  0  0  0  0  0  0
    6.9680  -11.6354   25.2212 C   0  0  0  0  0  0  0  0  0  0  0  0
    6.1408  -11.9128   26.2877 C   0  0  0  0  0  0  0  0  0  0  0  0
    5.8003  -13.2170   26.5496 C   0  0  0  0  0  0  0  0  0  0  0  0
    6.2920  -14.2273   25.7409 C   0  0  0  0  0  0  0  0  0  0  0  0
    9.4753  -15.9061   25.1152 C   0  0  0  0  0  0  0  0  0  0  0  0
    9.6361  -17.1840   25.2356 O   0  0  0  0  0  0  0  0  0  0  0  0
   11.3349  -13.5873   27.8962 C   0  0  0  0  0  0  0  0  0  0  0  0
   10.5961  -14.7686   28.4956 C   0  0  1  0  0  0  0  0  0  0  0  0
    9.2303  -14.3808   28.9809 C   0  0  0  0  0  0  0  0  0  0  0  0
   10.4061  -15.8298   27.4074 C   0  0  2  0  0  0  0  0  0  0  0  0
    9.7414  -15.1884   26.2959 N   0  0  0  0  0  0  0  0  0  0  0  0
    9.6136  -16.9588   27.8982 C   0  0  0  0  0  0  0  0  0  0  0  0
   10.0710  -18.0302   28.6424 O   0  0  0  0  0  0  0  0  0  0  0  0
    8.3515  -17.0151   27.6400 O   0  0  0  0  0  0  0  0  0  0  0  0
  1  2  1  0
  3  4  2  0
  3  2  1  0
  5  3  1  0
  6  5  1  0
  6 14  1  0
  6  7  1  1
  8  7  1  0
  9  8  2  0
 10  9  1  0
 11 12  1  0
 11 10  2  0
 12 13  2  0
 13  8  1  0
 14 20  1  0
 15 14  2  0
 17 19  1  0
 17 16  1  6
 17 18  1  0
 19 21  1  0
 19 20  1  6
 21 23  2  0
 21 22  1  0
M  END
$$$$
