GFV.pdb
     RDKit          3D

 23 23  0  0  1  0  0  0  0  0999 V2000
    8.7456  -16.6333   18.9550 N   0  0  0  0  0  0  0  0  0  0  0  0
    7.8457  -16.9146   20.0426 C   0  0  0  0  0  0  0  0  0  0  0  0
    8.2495  -16.1365   21.2675 C   0  0  0  0  0  0  0  0  0  0  0  0
    9.4141  -15.6812   21.3423 O   0  0  0  0  0  0  0  0  0  0  0  0
    7.3433  -15.9110   22.3301 N   0  0  0  0  0  0  0  0  0  0  0  0
    7.8342  -15.2247   23.5500 C   0  0  1  0  0  0  0  0  0  0  0  0
    6.6578  -14.6446   24.2435 C   0  0  0  0  0  0  0  0  0  0  0  0
    6.8887  -13.7260   25.3520 C   0  0  0  0  0  0  0  0  0  0  0  0
    5.8303  -12.9541   25.8531 C   0  0  0  0  0  0  0  0  0  0  0  0
    5.9791  -12.1018   26.9245 C   0  0  0  0  0  0  0  0  0  0  0  0
    7.2034  -11.9841   27.5458 C   0  0  0  0  0  0  0  0  0  0  0  0
    8.2633  -12.7242   27.0829 C   0  0  0  0  0  0  0  0  0  0  0  0
    8.0847  -13.5729   26.0038 C   0  0  0  0  0  0  0  0  0  0  0  0
    8.5194  -16.2374   24.3678 C   0  0  0  0  0  0  0  0  0  0  0  0
    7.8821  -17.3237   24.6632 O   0  0  0  0  0  0  0  0  0  0  0  0
   11.4976  -17.9747   23.4071 C   0  0  0  0  0  0  0  0  0  0  0  0
   11.7464  -17.6243   24.8617 C   0  0  1  0  0  0  0  0  0  0  0  0
   12.5756  -16.3814   24.9992 C   0  0  0  0  0  0  0  0  0  0  0  0
   10.3989  -17.3470   25.5353 C   0  0  2  0  0  0  0  0  0  0  0  0
    9.8266  -16.1894   24.8864 N   0  0  0  0  0  0  0  0  0  0  0  0
   10.5614  -17.1043   26.9699 C   0  0  0  0  0  0  0  0  0  0  0  0
   10.8489  -18.0447   27.9415 O   0  0  0  0  0  0  0  0  0  0  0  0
   10.4337  -15.9085   27.4352 O   0  0  0  0  0  0  0  0  0  0  0  0
  1  2  1  0
  3  4  2  0
  3  2  1  0
  5  3  1  0
  6  5  1  0
  6 14  1  0
  6  7  1  1
  8  7  1  0
  9  8  2  0
 10  9  1  0
 11 12  1  0
 11 10  2  0
 12 13  2  0
 13  8  1  0
 14 20  1  0
 15 14  2  0
 17 19  1  0
 17 16  1  6
 17 18  1  0
 19 21  1  0
 19 20  1  6
 21 23  2  0
 21 22  1  0
M  END
$$$$
