GFV.pdb
     RDKit          3D

 23 23  0  0  1  0  0  0  0  0999 V2000
   11.8980  -16.9750   20.1791 N   0  0  0  0  0  0  0  0  0  0  0  0
   10.8572  -17.4618   21.0460 C   0  0  0  0  0  0  0  0  0  0  0  0
   10.4873  -16.4091   22.0581 C   0  0  0  0  0  0  0  0  0  0  0  0
   11.2204  -15.4011   22.1829 O   0  0  0  0  0  0  0  0  0  0  0  0
    9.3334  -16.5363   22.8665 N   0  0  0  0  0  0  0  0  0  0  0  0
    9.0408  -15.4749   23.8605 C   0  0  1  0  0  0  0  0  0  0  0  0
    7.5779  -15.2288   23.8376 C   0  0  0  0  0  0  0  0  0  0  0  0
    7.0453  -14.1354   24.6419 C   0  0  0  0  0  0  0  0  0  0  0  0
    6.2453  -14.4143   25.7597 C   0  0  0  0  0  0  0  0  0  0  0  0
    5.7499  -13.4253   26.5799 C   0  0  0  0  0  0  0  0  0  0  0  0
    6.0359  -12.1036   26.3150 C   0  0  0  0  0  0  0  0  0  0  0  0
    6.8162  -11.7919   25.2289 C   0  0  0  0  0  0  0  0  0  0  0  0
    7.3004  -12.8069   24.4215 C   0  0  0  0  0  0  0  0  0  0  0  0
    9.5022  -15.9691   25.1669 C   0  0  0  0  0  0  0  0  0  0  0  0
    9.7371  -17.2344   25.2979 O   0  0  0  0  0  0  0  0  0  0  0  0
   11.0504  -13.4280   27.7844 C   0  0  0  0  0  0  0  0  0  0  0  0
   10.6592  -14.7118   28.4908 C   0  0  1  0  0  0  0  0  0  0  0  0
    9.3575  -14.5679   29.2230 C   0  0  0  0  0  0  0  0  0  0  0  0
   10.4691  -15.8099   27.4398 C   0  0  2  0  0  0  0  0  0  0  0  0
    9.7406  -15.2250   26.3372 N   0  0  0  0  0  0  0  0  0  0  0  0
    9.7379  -16.9525   27.9907 C   0  0  0  0  0  0  0  0  0  0  0  0
   10.2605  -17.9804   28.7530 O   0  0  0  0  0  0  0  0  0  0  0  0
    8.4718  -17.0664   27.7747 O   0  0  0  0  0  0  0  0  0  0  0  0
  1  2  1  0
  3  4  2  0
  3  2  1  0
  5  3  1  0
  6  5  1  0
  6 14  1  0
  6  7  1  1
  8  7  1  0
  9  8  2  0
 10  9  1  0
 11 12  1  0
 11 10  2  0
 12 13  2  0
 13  8  1  0
 14 20  1  0
 15 14  2  0
 17 19  1  0
 17 16  1  6
 17 18  1  0
 19 21  1  0
 19 20  1  6
 21 23  2  0
 21 22  1  0
M  END
$$$$
