YAD.pdb
     RDKit          3D

 26 26  0  0  1  0  0  0  0  0999 V2000
   29.7508  -11.9730  -17.1414 O   0  0  0  0  0  0  0  0  0  0  0  0
   28.5801  -11.2461  -16.9464 C   0  0  0  0  0  0  0  0  0  0  0  0
   28.0653  -10.9894  -15.6937 C   0  0  0  0  0  0  0  0  0  0  0  0
   26.9055  -10.2689  -15.5090 C   0  0  0  0  0  0  0  0  0  0  0  0
   26.2068   -9.7699  -16.6022 C   0  0  0  0  0  0  0  0  0  0  0  0
   24.9720   -9.0002  -16.4523 C   0  0  0  0  0  0  0  0  0  0  0  0
   23.9044   -9.7580  -15.6927 C   0  0  2  0  0  0  0  0  0  0  0  0
   23.5547  -10.9775  -16.4056 N   0  0  0  0  0  0  0  0  0  0  0  0
   22.6831   -8.9550  -15.5371 C   0  0  0  0  0  0  0  0  0  0  0  0
   21.7961   -8.8991  -16.4278 O   0  0  0  0  0  0  0  0  0  0  0  0
   26.7083  -10.0177  -17.8631 C   0  0  0  0  0  0  0  0  0  0  0  0
   27.8699  -10.7403  -18.0318 C   0  0  0  0  0  0  0  0  0  0  0  0
   21.0257   -7.0137  -12.7259 C   0  0  0  0  0  0  0  0  0  0  0  0
   21.2210   -7.4460  -14.1750 C   0  0  2  0  0  0  0  0  0  0  0  0
   22.4356   -8.1846  -14.3487 N   0  0  0  0  0  0  0  0  0  0  0  0
   21.1313   -6.2590  -15.0449 C   0  0  0  0  0  0  0  0  0  0  0  0
   22.1236   -5.7024  -15.5830 O   0  0  0  0  0  0  0  0  0  0  0  0
   19.8322   -5.7074  -15.2911 N   0  0  0  0  0  0  0  0  0  0  0  0
   19.6278   -4.5445  -16.1115 C   0  0  1  0  0  0  0  0  0  0  0  0
   18.1817   -4.3357  -16.5025 C   0  0  0  0  0  0  0  0  0  0  0  0
   17.9938   -3.1469  -17.3521 C   0  0  0  0  0  0  0  0  0  0  0  0
   18.2530   -3.0679  -18.5724 O   0  0  0  0  0  0  0  0  0  0  0  0
   20.0580   -3.3099  -15.3966 C   0  0  0  0  0  0  0  0  0  0  0  0
   20.5839   -2.2545  -16.1159 O   0  0  0  0  0  0  0  0  0  0  0  0
   17.4791   -1.9858  -16.7625 O   0  0  0  0  0  0  0  0  0  0  0  0
   19.9633   -3.1823  -14.1518 O   0  0  0  0  0  0  0  0  0  0  0  0
  2  3  2  0
  2  1  1  0
  4  3  1  0
  5  4  2  0
  6  5  1  0
  7  6  1  0
  7  9  1  0
  7  8  1  6
  9 15  1  0
  9 10  2  0
 11  5  1  0
 11 12  2  0
 12  2  1  0
 14 13  1  1
 15 14  1  0
 16 14  1  0
 16 17  2  0
 18 16  1  0
 19 18  1  0
 20 21  1  0
 19 20  1  1
 21 22  2  0
 23 19  1  0
 24 23  1  0
 25 21  1  0
 26 23  2  0
M  END
$$$$
