YAD.pdb
     RDKit          3D

 26 26  0  0  1  0  0  0  0  0999 V2000
   25.0730   -1.7252    0.7540 O   0  0  0  0  0  0  0  0  0  0  0  0
   25.1611   -0.8948   -0.3594 C   0  0  0  0  0  0  0  0  0  0  0  0
   25.7500    0.3507   -0.3121 C   0  0  0  0  0  0  0  0  0  0  0  0
   25.8334    1.1669   -1.4191 C   0  0  0  0  0  0  0  0  0  0  0  0
   25.3158    0.7500   -2.6400 C   0  0  0  0  0  0  0  0  0  0  0  0
   25.3824    1.5837   -3.8400 C   0  0  0  0  0  0  0  0  0  0  0  0
   26.5405    1.2122   -4.7411 C   0  0  2  0  0  0  0  0  0  0  0  0
   27.8017    1.5507   -4.0988 N   0  0  0  0  0  0  0  0  0  0  0  0
   26.4753    1.9285   -6.0230 C   0  0  0  0  0  0  0  0  0  0  0  0
   27.1536    2.9633   -6.2512 O   0  0  0  0  0  0  0  0  0  0  0  0
   24.7230   -0.4939   -2.7046 C   0  0  0  0  0  0  0  0  0  0  0  0
   24.6472   -1.2991   -1.5884 C   0  0  0  0  0  0  0  0  0  0  0  0
   25.1549    1.2028   -9.4789 C   0  0  0  0  0  0  0  0  0  0  0  0
   25.6148    2.1373   -8.3653 C   0  0  2  0  0  0  0  0  0  0  0  0
   25.6256    1.4804   -7.0927 N   0  0  0  0  0  0  0  0  0  0  0  0
   24.7817    3.3535   -8.3862 C   0  0  0  0  0  0  0  0  0  0  0  0
   24.7238    4.1521   -9.3572 O   0  0  0  0  0  0  0  0  0  0  0  0
   23.9898    3.6411   -7.2275 N   0  0  0  0  0  0  0  0  0  0  0  0
   23.1440    4.8002   -7.1362 C   0  0  1  0  0  0  0  0  0  0  0  0
   21.8513    4.5398   -6.3953 C   0  0  0  0  0  0  0  0  0  0  0  0
   20.7527    4.1534   -7.2977 C   0  0  0  0  0  0  0  0  0  0  0  0
   19.5689    3.9338   -6.9614 O   0  0  0  0  0  0  0  0  0  0  0  0
   23.8348    5.9041   -6.4120 C   0  0  0  0  0  0  0  0  0  0  0  0
   23.7659    7.1917   -6.9074 O   0  0  0  0  0  0  0  0  0  0  0  0
   21.0343    4.0126   -8.6620 O   0  0  0  0  0  0  0  0  0  0  0  0
   24.4865    5.7157   -5.3563 O   0  0  0  0  0  0  0  0  0  0  0  0
  2  3  2  0
  2  1  1  0
  4  3  1  0
  5  4  2  0
  6  5  1  0
  7  6  1  0
  7  9  1  0
  7  8  1  1
  9 15  1  0
  9 10  2  0
 11  5  1  0
 11 12  2  0
 12  2  1  0
 14 13  1  6
 15 14  1  0
 16 14  1  0
 16 17  2  0
 18 16  1  0
 19 18  1  0
 20 21  1  0
 19 20  1  1
 21 22  2  0
 23 19  1  0
 24 23  1  0
 25 21  1  0
 26 23  2  0
M  END
$$$$
