YAD.pdb
     RDKit          3D

 26 26  0  0  1  0  0  0  0  0999 V2000
   28.6756  -19.9955   -3.7663 O   0  0  0  0  0  0  0  0  0  0  0  0
   28.4802  -19.9752   -5.1441 C   0  0  0  0  0  0  0  0  0  0  0  0
   29.2644  -20.6995   -6.0162 C   0  0  0  0  0  0  0  0  0  0  0  0
   29.0644  -20.6741   -7.3792 C   0  0  0  0  0  0  0  0  0  0  0  0
   28.0458  -19.9019   -7.9256 C   0  0  0  0  0  0  0  0  0  0  0  0
   27.7981  -19.8454   -9.3661 C   0  0  0  0  0  0  0  0  0  0  0  0
   26.4204  -20.3501   -9.7381 C   0  0  2  0  0  0  0  0  0  0  0  0
   26.3092  -21.7689   -9.4340 N   0  0  0  0  0  0  0  0  0  0  0  0
   26.1507  -20.1689  -11.1716 C   0  0  0  0  0  0  0  0  0  0  0  0
   25.8829  -19.0447  -11.6694 O   0  0  0  0  0  0  0  0  0  0  0  0
   27.2516  -19.1708   -7.0667 C   0  0  0  0  0  0  0  0  0  0  0  0
   27.4641  -19.2066   -5.7053 C   0  0  0  0  0  0  0  0  0  0  0  0
   26.8640  -21.9654  -14.3351 C   0  0  0  0  0  0  0  0  0  0  0  0
   25.9417  -21.0945  -13.4890 C   0  0  2  0  0  0  0  0  0  0  0  0
   26.1788  -21.2761  -12.0883 N   0  0  0  0  0  0  0  0  0  0  0  0
   24.5446  -21.3539  -13.8819 C   0  0  0  0  0  0  0  0  0  0  0  0
   24.1175  -21.2729  -15.0630 O   0  0  0  0  0  0  0  0  0  0  0  0
   23.6180  -21.7209  -12.8527 N   0  0  0  0  0  0  0  0  0  0  0  0
   22.2190  -21.9307  -13.1096 C   0  0  1  0  0  0  0  0  0  0  0  0
   21.5537  -22.8326  -12.0938 C   0  0  0  0  0  0  0  0  0  0  0  0
   20.1299  -23.0641  -12.3931 C   0  0  0  0  0  0  0  0  0  0  0  0
   19.6753  -23.6155  -13.4187 O   0  0  0  0  0  0  0  0  0  0  0  0
   21.4762  -20.6392  -13.0833 C   0  0  0  0  0  0  0  0  0  0  0  0
   21.7894  -19.6926  -12.1273 O   0  0  0  0  0  0  0  0  0  0  0  0
   19.1784  -22.6365  -11.4591 O   0  0  0  0  0  0  0  0  0  0  0  0
   20.5651  -20.3671  -13.9022 O   0  0  0  0  0  0  0  0  0  0  0  0
  2  3  2  0
  2  1  1  0
  4  3  1  0
  5  4  2  0
  6  5  1  0
  7  6  1  0
  7  9  1  0
  7  8  1  6
  9 15  1  0
  9 10  2  0
 11  5  1  0
 11 12  2  0
 12  2  1  0
 14 13  1  6
 15 14  1  0
 16 14  1  0
 16 17  2  0
 18 16  1  0
 19 18  1  0
 20 21  1  0
 19 20  1  1
 21 22  2  0
 23 19  1  0
 24 23  1  0
 25 21  1  0
 26 23  2  0
M  END
$$$$
