YAD.pdb
     RDKit          3D

 26 26  0  0  1  0  0  0  0  0999 V2000
   19.6052  -17.7416  -18.3516 O   0  0  0  0  0  0  0  0  0  0  0  0
   20.1939  -18.2344  -17.1907 C   0  0  0  0  0  0  0  0  0  0  0  0
   20.7250  -17.4118  -16.2204 C   0  0  0  0  0  0  0  0  0  0  0  0
   21.3061  -17.9076  -15.0738 C   0  0  0  0  0  0  0  0  0  0  0  0
   21.3752  -19.2790  -14.8575 C   0  0  0  0  0  0  0  0  0  0  0  0
   21.9830  -19.8485  -13.6551 C   0  0  0  0  0  0  0  0  0  0  0  0
   20.9684  -20.5189  -12.7538 C   0  0  2  0  0  0  0  0  0  0  0  0
   19.9272  -19.5722  -12.3830 N   0  0  0  0  0  0  0  0  0  0  0  0
   21.5921  -21.0169  -11.5195 C   0  0  0  0  0  0  0  0  0  0  0  0
   22.6029  -21.7661  -11.5309 O   0  0  0  0  0  0  0  0  0  0  0  0
   20.8484  -20.1165  -15.8188 C   0  0  0  0  0  0  0  0  0  0  0  0
   20.2701  -19.6054  -16.9608 C   0  0  0  0  0  0  0  0  0  0  0  0
   21.8732  -19.9728   -8.0167 C   0  0  0  0  0  0  0  0  0  0  0  0
   21.7171  -21.1100   -9.0203 C   0  0  2  0  0  0  0  0  0  0  0  0
   21.0755  -20.6712  -10.2231 N   0  0  0  0  0  0  0  0  0  0  0  0
   21.0226  -22.2340   -8.3661 C   0  0  0  0  0  0  0  0  0  0  0  0
   21.5641  -23.0117   -7.5379 O   0  0  0  0  0  0  0  0  0  0  0  0
   19.6455  -22.4518   -8.6960 N   0  0  0  0  0  0  0  0  0  0  0  0
   18.8714  -23.5185   -8.1216 C   0  0  1  0  0  0  0  0  0  0  0  0
   18.5961  -23.3299   -6.6464 C   0  0  0  0  0  0  0  0  0  0  0  0
   17.8426  -24.4546   -6.0655 C   0  0  0  0  0  0  0  0  0  0  0  0
   16.6165  -24.4693   -5.8217 O   0  0  0  0  0  0  0  0  0  0  0  0
   17.5449  -23.6301   -8.7913 C   0  0  0  0  0  0  0  0  0  0  0  0
   16.8882  -24.8453   -8.8038 O   0  0  0  0  0  0  0  0  0  0  0  0
   18.5405  -25.6264   -5.7483 O   0  0  0  0  0  0  0  0  0  0  0  0
   16.9877  -22.6562   -9.3532 O   0  0  0  0  0  0  0  0  0  0  0  0
  2  3  2  0
  2  1  1  0
  4  3  1  0
  5  4  2  0
  6  5  1  0
  7  6  1  0
  7  9  1  0
  7  8  1  1
  9 15  1  0
  9 10  2  0
 11  5  1  0
 11 12  2  0
 12  2  1  0
 14 13  1  1
 15 14  1  0
 16 14  1  0
 16 17  2  0
 18 16  1  0
 19 18  1  0
 20 21  1  0
 19 20  1  1
 21 22  2  0
 23 19  1  0
 24 23  1  0
 25 21  1  0
 26 23  2  0
M  END
$$$$
