YAD.pdb
     RDKit          3D

 26 26  0  0  1  0  0  0  0  0999 V2000
   15.1947  -24.2559   -4.2738 O   0  0  0  0  0  0  0  0  0  0  0  0
   15.9256  -25.0306   -5.1697 C   0  0  0  0  0  0  0  0  0  0  0  0
   17.0433  -24.5559   -5.8220 C   0  0  0  0  0  0  0  0  0  0  0  0
   17.7615  -25.3292   -6.7077 C   0  0  0  0  0  0  0  0  0  0  0  0
   17.3723  -26.6367   -6.9747 C   0  0  0  0  0  0  0  0  0  0  0  0
   18.1050  -27.4928   -7.9074 C   0  0  0  0  0  0  0  0  0  0  0  0
   17.7417  -27.2219   -9.3515 C   0  0  2  0  0  0  0  0  0  0  0  0
   16.3612  -27.6091   -9.6004 N   0  0  0  0  0  0  0  0  0  0  0  0
   18.6006  -27.9794  -10.2730 C   0  0  0  0  0  0  0  0  0  0  0  0
   18.3400  -29.1608  -10.6187 O   0  0  0  0  0  0  0  0  0  0  0  0
   16.2557  -27.1274   -6.3303 C   0  0  0  0  0  0  0  0  0  0  0  0
   15.5474  -26.3415   -5.4468 C   0  0  0  0  0  0  0  0  0  0  0  0
   21.9543  -27.3840  -11.9838 C   0  0  0  0  0  0  0  0  0  0  0  0
   20.7460  -28.2038  -11.5447 C   0  0  2  0  0  0  0  0  0  0  0  0
   19.7941  -27.4052  -10.8326 N   0  0  0  0  0  0  0  0  0  0  0  0
   21.2138  -29.3739  -10.7793 C   0  0  0  0  0  0  0  0  0  0  0  0
   21.3408  -29.3927   -9.5273 O   0  0  0  0  0  0  0  0  0  0  0  0
   21.5434  -30.5618  -11.5092 N   0  0  0  0  0  0  0  0  0  0  0  0
   21.9383  -31.7833  -10.8620 C   0  0  1  0  0  0  0  0  0  0  0  0
   20.8692  -32.3521   -9.9558 C   0  0  0  0  0  0  0  0  0  0  0  0
   21.2625  -33.6411   -9.3605 C   0  0  0  0  0  0  0  0  0  0  0  0
   22.2874  -33.8517   -8.6764 O   0  0  0  0  0  0  0  0  0  0  0  0
   22.2499  -32.8384  -11.8671 C   0  0  0  0  0  0  0  0  0  0  0  0
   21.3221  -33.1441  -12.8437 O   0  0  0  0  0  0  0  0  0  0  0  0
   20.4288  -34.7473   -9.5650 O   0  0  0  0  0  0  0  0  0  0  0  0
   23.3330  -33.4721  -11.8677 O   0  0  0  0  0  0  0  0  0  0  0  0
  2  3  2  0
  2  1  1  0
  4  3  1  0
  5  4  2  0
  6  5  1  0
  7  6  1  0
  7  9  1  0
  7  8  1  1
  9 15  1  0
  9 10  2  0
 11  5  1  0
 11 12  2  0
 12  2  1  0
 14 13  1  1
 15 14  1  0
 16 14  1  0
 16 17  2  0
 18 16  1  0
 19 18  1  0
 20 21  1  0
 19 20  1  1
 21 22  2  0
 23 19  1  0
 24 23  1  0
 25 21  1  0
 26 23  2  0
M  END
$$$$
