YAD.pdb
     RDKit          3D

 26 26  0  0  1  0  0  0  0  0999 V2000
   24.5541  -21.8336   -6.7808 O   0  0  0  0  0  0  0  0  0  0  0  0
   24.5573  -21.3646   -8.0911 C   0  0  0  0  0  0  0  0  0  0  0  0
   25.6492  -20.7385   -8.6532 C   0  0  0  0  0  0  0  0  0  0  0  0
   25.6444  -20.2769   -9.9514 C   0  0  0  0  0  0  0  0  0  0  0  0
   24.5159  -20.4321  -10.7480 C   0  0  0  0  0  0  0  0  0  0  0  0
   24.4670  -19.9575  -12.1308 C   0  0  0  0  0  0  0  0  0  0  0  0
   24.5648  -21.0855  -13.1353 C   0  0  2  0  0  0  0  0  0  0  0  0
   25.9263  -21.5974  -13.1806 N   0  0  0  0  0  0  0  0  0  0  0  0
   24.2022  -20.6348  -14.4865 C   0  0  0  0  0  0  0  0  0  0  0  0
   24.9246  -19.8465  -15.1498 O   0  0  0  0  0  0  0  0  0  0  0  0
   23.4142  -21.0566  -10.2009 C   0  0  0  0  0  0  0  0  0  0  0  0
   23.4343  -21.5130   -8.9005 C   0  0  0  0  0  0  0  0  0  0  0  0
   22.2206  -21.7299  -17.3558 C   0  0  0  0  0  0  0  0  0  0  0  0
   22.6117  -20.5913  -16.4202 C   0  0  2  0  0  0  0  0  0  0  0  0
   22.9925  -21.0748  -15.1270 N   0  0  0  0  0  0  0  0  0  0  0  0
   21.5125  -19.6098  -16.3748 C   0  0  0  0  0  0  0  0  0  0  0  0
   20.6664  -19.5409  -15.4457 O   0  0  0  0  0  0  0  0  0  0  0  0
   21.4035  -18.6778  -17.4575 N   0  0  0  0  0  0  0  0  0  0  0  0
   20.3768  -17.6730  -17.5134 C   0  0  1  0  0  0  0  0  0  0  0  0
   20.8792  -16.3316  -17.9993 C   0  0  0  0  0  0  0  0  0  0  0  0
   19.8187  -15.3093  -18.0275 C   0  0  0  0  0  0  0  0  0  0  0  0
   18.6339  -15.4700  -17.6627 O   0  0  0  0  0  0  0  0  0  0  0  0
   19.2863  -18.0813  -18.4432 C   0  0  0  0  0  0  0  0  0  0  0  0
   19.6067  -18.6242  -19.6722 O   0  0  0  0  0  0  0  0  0  0  0  0
   20.1419  -14.0323  -18.5020 O   0  0  0  0  0  0  0  0  0  0  0  0
   18.0712  -17.9530  -18.1571 O   0  0  0  0  0  0  0  0  0  0  0  0
  2  3  2  0
  2  1  1  0
  4  3  1  0
  5  4  2  0
  6  5  1  0
  7  6  1  0
  7  9  1  0
  7  8  1  6
  9 15  1  0
  9 10  2  0
 11  5  1  0
 11 12  2  0
 12  2  1  0
 14 13  1  6
 15 14  1  0
 16 14  1  0
 16 17  2  0
 18 16  1  0
 19 18  1  0
 20 21  1  0
 19 20  1  6
 21 22  2  0
 23 19  1  0
 24 23  1  0
 25 21  1  0
 26 23  2  0
M  END
$$$$
