CSS.pdb
     RDKit          3D

 19 18  0  0  1  0  0  0  0  0999 V2000
   27.5159  -25.3146  -17.3324 N   0  0  0  0  0  0  0  0  0  0  0  0
   28.3735  -26.2802  -16.7100 C   0  0  1  0  0  0  0  0  0  0  0  0
   27.9613  -27.6731  -17.1360 C   0  0  0  0  0  0  0  0  0  0  0  0
   26.5418  -28.2722  -16.1974 S   0  0  0  0  0  0  0  0  0  0  0  0
   29.7719  -26.0340  -17.1253 C   0  0  0  0  0  0  0  0  0  0  0  0
   30.0088  -25.5117  -18.2511 O   0  0  0  0  0  0  0  0  0  0  0  0
   32.6047  -25.3805  -14.3546 O   0  0  0  0  0  0  0  0  0  0  0  0
   33.1537  -26.1216  -15.3933 C   0  0  0  0  0  0  0  0  0  0  0  0
   32.2402  -26.0574  -16.6217 C   0  0  2  0  0  0  0  0  0  0  0  0
   30.8778  -26.3729  -16.2817 N   0  0  0  0  0  0  0  0  0  0  0  0
   32.7644  -26.9035  -17.7141 C   0  0  0  0  0  0  0  0  0  0  0  0
   32.3686  -28.0927  -17.8182 O   0  0  0  0  0  0  0  0  0  0  0  0
   34.9024  -27.1693  -22.0269 O   0  0  0  0  0  0  0  0  0  0  0  0
   34.6281  -26.3540  -20.9146 C   0  0  0  0  0  0  0  0  0  0  0  0
   34.1325  -27.2648  -19.7875 C   0  0  2  0  0  0  0  0  0  0  0  0
   33.7043  -26.4526  -18.6726 N   0  0  0  0  0  0  0  0  0  0  0  0
   35.2327  -28.1707  -19.4481 C   0  0  0  0  0  0  0  0  0  0  0  0
   35.3336  -29.4263  -20.0270 O   0  0  0  0  0  0  0  0  0  0  0  0
   36.1136  -27.8330  -18.6233 O   0  0  0  0  0  0  0  0  0  0  0  0
  2  3  1  0
  2  1  1  6
  3  4  1  0
  5  6  2  0
  5  2  1  0
  7  8  1  0
  9  8  1  1
  9 10  1  0
 10  5  1  0
 11  9  1  0
 11 12  2  0
 13 14  1  0
 15 14  1  6
 15 16  1  0
 16 11  1  0
 17 15  1  0
 18 17  1  0
 19 17  2  0
M  END
$$$$
