CSS.pdb
     RDKit          3D

 19 18  0  0  1  0  0  0  0  0999 V2000
   17.2037  -11.4560  -15.6221 N   0  0  0  0  0  0  0  0  0  0  0  0
   17.6803  -10.3076  -16.3357 C   0  0  1  0  0  0  0  0  0  0  0  0
   16.5167   -9.6083  -17.0053 C   0  0  0  0  0  0  0  0  0  0  0  0
   16.0524  -10.4067  -18.5551 S   0  0  0  0  0  0  0  0  0  0  0  0
   18.3323   -9.3772  -15.3881 C   0  0  0  0  0  0  0  0  0  0  0  0
   17.7158   -9.0060  -14.3497 O   0  0  0  0  0  0  0  0  0  0  0  0
   22.3802   -9.2666  -15.0548 O   0  0  0  0  0  0  0  0  0  0  0  0
   21.5448   -8.8029  -14.0466 C   0  0  0  0  0  0  0  0  0  0  0  0
   20.3514   -8.0602  -14.6562 C   0  0  2  0  0  0  0  0  0  0  0  0
   19.6553   -8.8786  -15.6138 N   0  0  0  0  0  0  0  0  0  0  0  0
   20.7703   -6.7590  -15.2177 C   0  0  0  0  0  0  0  0  0  0  0  0
   21.1732   -6.7011  -16.4077 O   0  0  0  0  0  0  0  0  0  0  0  0
   19.1358   -3.2465  -14.6500 O   0  0  0  0  0  0  0  0  0  0  0  0
   20.5037   -3.1358  -14.3434 C   0  0  0  0  0  0  0  0  0  0  0  0
   21.2253   -4.2973  -15.0331 C   0  0  2  0  0  0  0  0  0  0  0  0
   20.7472   -5.5461  -14.4872 N   0  0  0  0  0  0  0  0  0  0  0  0
   22.6621   -4.0953  -14.8303 C   0  0  0  0  0  0  0  0  0  0  0  0
   23.3961   -3.2684  -15.6665 O   0  0  0  0  0  0  0  0  0  0  0  0
   23.2665   -4.6665  -13.8928 O   0  0  0  0  0  0  0  0  0  0  0  0
  2  3  1  0
  2  1  1  1
  3  4  1  0
  5  6  2  0
  5  2  1  0
  7  8  1  0
  9  8  1  6
  9 10  1  0
 10  5  1  0
 11  9  1  0
 11 12  2  0
 13 14  1  0
 15 14  1  1
 15 16  1  0
 16 11  1  0
 17 15  1  0
 18 17  1  0
 19 17  2  0
M  END
$$$$
