CSS.pdb
     RDKit          3D

 19 18  0  0  1  0  0  0  0  0999 V2000
   24.6482  -21.3386   -9.7533 N   0  0  0  0  0  0  0  0  0  0  0  0
   25.4001  -20.3480  -10.4665 C   0  0  1  0  0  0  0  0  0  0  0  0
   26.7381  -20.1425   -9.7891 C   0  0  0  0  0  0  0  0  0  0  0  0
   26.6082  -19.0511   -8.3584 S   0  0  0  0  0  0  0  0  0  0  0  0
   25.6191  -20.8052  -11.8564 C   0  0  0  0  0  0  0  0  0  0  0  0
   26.2103  -21.9011  -12.0700 O   0  0  0  0  0  0  0  0  0  0  0  0
   23.1406  -19.7982  -14.9628 O   0  0  0  0  0  0  0  0  0  0  0  0
   24.0154  -20.8770  -14.9735 C   0  0  0  0  0  0  0  0  0  0  0  0
   25.3508  -20.4744  -14.3394 C   0  0  2  0  0  0  0  0  0  0  0  0
   25.1768  -20.0357  -12.9798 N   0  0  0  0  0  0  0  0  0  0  0  0
   26.0518  -19.4764  -15.1739 C   0  0  0  0  0  0  0  0  0  0  0  0
   25.7833  -18.2558  -15.0331 O   0  0  0  0  0  0  0  0  0  0  0  0
   29.4236  -18.3946  -18.4818 O   0  0  0  0  0  0  0  0  0  0  0  0
   28.8888  -19.3878  -17.6423 C   0  0  0  0  0  0  0  0  0  0  0  0
   27.5794  -18.8445  -17.0629 C   0  0  2  0  0  0  0  0  0  0  0  0
   27.0279  -19.8121  -16.1435 N   0  0  0  0  0  0  0  0  0  0  0  0
   26.6927  -18.5570  -18.1933 C   0  0  0  0  0  0  0  0  0  0  0  0
   25.7184  -19.4601  -18.5894 O   0  0  0  0  0  0  0  0  0  0  0  0
   26.7925  -17.4841  -18.8331 O   0  0  0  0  0  0  0  0  0  0  0  0
  2  3  1  0
  2  1  1  1
  3  4  1  0
  5  6  2  0
  5  2  1  0
  7  8  1  0
  9  8  1  6
  9 10  1  0
 10  5  1  0
 11  9  1  0
 11 12  2  0
 13 14  1  0
 15 14  1  6
 15 16  1  0
 16 11  1  0
 17 15  1  0
 18 17  1  0
 19 17  2  0
M  END
$$$$
