CSS.pdb
     RDKit          3D

 19 18  0  0  1  0  0  0  0  0999 V2000
   20.4032  -11.5278  -17.1788 N   0  0  0  0  0  0  0  0  0  0  0  0
   19.4803  -10.8663  -16.3036 C   0  0  1  0  0  0  0  0  0  0  0  0
   19.6669  -11.3769  -14.8909 C   0  0  0  0  0  0  0  0  0  0  0  0
   19.1090  -13.0833  -14.7121 S   0  0  0  0  0  0  0  0  0  0  0  0
   19.7325   -9.4089  -16.3358 C   0  0  0  0  0  0  0  0  0  0  0  0
   20.9025   -8.9797  -16.5436 O   0  0  0  0  0  0  0  0  0  0  0  0
   16.7574   -6.5356  -15.2559 O   0  0  0  0  0  0  0  0  0  0  0  0
   17.5637   -6.2826  -16.3582 C   0  0  0  0  0  0  0  0  0  0  0  0
   18.8899   -7.0375  -16.2209 C   0  0  2  0  0  0  0  0  0  0  0  0
   18.6802   -8.4589  -16.1366 N   0  0  0  0  0  0  0  0  0  0  0  0
   19.6821   -6.5113  -15.0899 C   0  0  0  0  0  0  0  0  0  0  0  0
   19.4238   -6.8991  -13.9217 O   0  0  0  0  0  0  0  0  0  0  0  0
   23.2208   -4.4769  -15.6293 O   0  0  0  0  0  0  0  0  0  0  0  0
   22.9899   -5.1764  -14.4315 C   0  0  0  0  0  0  0  0  0  0  0  0
   21.4944   -5.0716  -14.1183 C   0  0  2  0  0  0  0  0  0  0  0  0
   20.7368   -5.5780  -15.2387 N   0  0  0  0  0  0  0  0  0  0  0  0
   21.2118   -3.6644  -13.8238 C   0  0  0  0  0  0  0  0  0  0  0  0
   20.3593   -2.9204  -14.6246 O   0  0  0  0  0  0  0  0  0  0  0  0
   21.7351   -3.0955  -12.8375 O   0  0  0  0  0  0  0  0  0  0  0  0
  2  3  1  0
  2  1  1  6
  3  4  1  0
  5  6  2  0
  5  2  1  0
  7  8  1  0
  9  8  1  1
  9 10  1  0
 10  5  1  0
 11  9  1  0
 11 12  2  0
 13 14  1  0
 15 14  1  6
 15 16  1  0
 16 11  1  0
 17 15  1  0
 18 17  1  0
 19 17  2  0
M  END
$$$$
