CSS.pdb
     RDKit          3D

 19 18  0  0  1  0  0  0  0  0999 V2000
   17.8556  -10.0231  -14.6311 N   0  0  0  0  0  0  0  0  0  0  0  0
   18.7474   -9.2885  -15.4797 C   0  0  1  0  0  0  0  0  0  0  0  0
   18.0590   -8.9799  -16.7921 C   0  0  0  0  0  0  0  0  0  0  0  0
   17.8249  -10.4614  -17.7947 S   0  0  0  0  0  0  0  0  0  0  0  0
   19.1256   -8.0223  -14.8145 C   0  0  0  0  0  0  0  0  0  0  0  0
   18.2595   -7.3740  -14.1620 O   0  0  0  0  0  0  0  0  0  0  0  0
   22.6029   -5.3388  -12.8575 O   0  0  0  0  0  0  0  0  0  0  0  0
   22.2052   -6.5209  -13.4688 C   0  0  0  0  0  0  0  0  0  0  0  0
   20.8682   -6.3141  -14.1880 C   0  0  2  0  0  0  0  0  0  0  0  0
   20.4577   -7.5028  -14.8880 N   0  0  0  0  0  0  0  0  0  0  0  0
   20.9191   -5.1262  -15.0655 C   0  0  0  0  0  0  0  0  0  0  0  0
   21.5303   -5.1946  -16.1625 O   0  0  0  0  0  0  0  0  0  0  0  0
   18.1228   -2.4788  -15.7176 O   0  0  0  0  0  0  0  0  0  0  0  0
   19.2793   -1.7737  -15.3400 C   0  0  0  0  0  0  0  0  0  0  0  0
   20.4764   -2.7043  -15.5553 C   0  0  2  0  0  0  0  0  0  0  0  0
   20.3111   -3.8881  -14.7446 N   0  0  0  0  0  0  0  0  0  0  0  0
   21.6821   -1.9428  -15.2192 C   0  0  0  0  0  0  0  0  0  0  0  0
   22.5132   -2.3351  -14.1814 O   0  0  0  0  0  0  0  0  0  0  0  0
   21.9941   -0.9140  -15.8633 O   0  0  0  0  0  0  0  0  0  0  0  0
  2  3  1  0
  2  1  1  1
  3  4  1  0
  5  6  2  0
  5  2  1  0
  7  8  1  0
  9  8  1  6
  9 10  1  0
 10  5  1  0
 11  9  1  0
 11 12  2  0
 13 14  1  0
 15 14  1  1
 15 16  1  0
 16 11  1  0
 17 15  1  0
 18 17  1  0
 19 17  2  0
M  END
$$$$
