CSS.pdb
     RDKit          3D

 19 18  0  0  1  0  0  0  0  0999 V2000
   14.2121  -11.4050  -10.3991 N   0  0  0  0  0  0  0  0  0  0  0  0
   15.3803  -10.5762  -10.3396 C   0  0  1  0  0  0  0  0  0  0  0  0
   16.2353  -10.8171  -11.5654 C   0  0  0  0  0  0  0  0  0  0  0  0
   17.0185  -12.4420  -11.5317 S   0  0  0  0  0  0  0  0  0  0  0  0
   14.9717   -9.1550  -10.2982 C   0  0  0  0  0  0  0  0  0  0  0  0
   14.0038   -8.7600  -11.0077 O   0  0  0  0  0  0  0  0  0  0  0  0
   14.8493   -4.9425   -8.0032 O   0  0  0  0  0  0  0  0  0  0  0  0
   15.2070   -6.2847   -7.9993 C   0  0  0  0  0  0  0  0  0  0  0  0
   15.2881   -6.8088   -9.4368 C   0  0  2  0  0  0  0  0  0  0  0  0
   15.6465   -8.2022   -9.4695 N   0  0  0  0  0  0  0  0  0  0  0  0
   16.1894   -5.9702  -10.2543 C   0  0  0  0  0  0  0  0  0  0  0  0
   17.4295   -6.0158  -10.0500 O   0  0  0  0  0  0  0  0  0  0  0  0
   16.3732   -5.7069  -13.8866 O   0  0  0  0  0  0  0  0  0  0  0  0
   16.2817   -4.3525  -13.5196 C   0  0  0  0  0  0  0  0  0  0  0  0
   16.6319   -4.2541  -12.0320 C   0  0  2  0  0  0  0  0  0  0  0  0
   15.7378   -5.0992  -11.2755 N   0  0  0  0  0  0  0  0  0  0  0  0
   16.5386   -2.8405  -11.6583 C   0  0  0  0  0  0  0  0  0  0  0  0
   17.4242   -1.9032  -12.1673 O   0  0  0  0  0  0  0  0  0  0  0  0
   15.6531   -2.4411  -10.8666 O   0  0  0  0  0  0  0  0  0  0  0  0
  2  3  1  0
  2  1  1  6
  3  4  1  0
  5  6  2  0
  5  2  1  0
  7  8  1  0
  9  8  1  1
  9 10  1  0
 10  5  1  0
 11  9  1  0
 11 12  2  0
 13 14  1  0
 15 14  1  6
 15 16  1  0
 16 11  1  0
 17 15  1  0
 18 17  1  0
 19 17  2  0
M  END
$$$$
