CSS.pdb
     RDKit          3D

 19 18  0  0  1  0  0  0  0  0999 V2000
   28.1489  -26.1701  -16.3359 N   0  0  0  0  0  0  0  0  0  0  0  0
   27.7501  -25.0025  -17.0659 C   0  0  1  0  0  0  0  0  0  0  0  0
   26.7307  -25.3858  -18.1172 C   0  0  0  0  0  0  0  0  0  0  0  0
   27.4191  -26.5176  -19.3419 S   0  0  0  0  0  0  0  0  0  0  0  0
   27.1492  -24.0231  -16.1340 C   0  0  0  0  0  0  0  0  0  0  0  0
   26.6435  -24.4209  -15.0467 O   0  0  0  0  0  0  0  0  0  0  0  0
   26.6074  -19.8109  -17.0330 O   0  0  0  0  0  0  0  0  0  0  0  0
   27.1742  -20.2389  -15.8393 C   0  0  0  0  0  0  0  0  0  0  0  0
   26.6586  -21.6381  -15.4873 C   0  0  2  0  0  0  0  0  0  0  0  0
   27.1225  -22.6224  -16.4293 N   0  0  0  0  0  0  0  0  0  0  0  0
   25.1880  -21.6379  -15.3427 C   0  0  0  0  0  0  0  0  0  0  0  0
   24.4729  -22.0193  -16.3044 O   0  0  0  0  0  0  0  0  0  0  0  0
   21.2992  -20.9872  -12.5082 O   0  0  0  0  0  0  0  0  0  0  0  0
   22.6826  -20.7737  -12.6418 C   0  0  0  0  0  0  0  0  0  0  0  0
   23.0762  -21.1829  -14.0642 C   0  0  2  0  0  0  0  0  0  0  0  0
   24.5162  -21.2270  -14.1657 N   0  0  0  0  0  0  0  0  0  0  0  0
   22.4662  -20.2133  -14.9776 C   0  0  0  0  0  0  0  0  0  0  0  0
   23.2219  -19.2179  -15.5774 O   0  0  0  0  0  0  0  0  0  0  0  0
   21.2418  -20.2590  -15.2410 O   0  0  0  0  0  0  0  0  0  0  0  0
  2  3  1  0
  2  1  1  1
  3  4  1  0
  5  6  2  0
  5  2  1  0
  7  8  1  0
  9  8  1  6
  9 10  1  0
 10  5  1  0
 11  9  1  0
 11 12  2  0
 13 14  1  0
 15 14  1  1
 15 16  1  0
 16 11  1  0
 17 15  1  0
 18 17  1  0
 19 17  2  0
M  END
$$$$
