CSS.pdb
     RDKit          3D

 19 18  0  0  1  0  0  0  0  0999 V2000
   19.8720  -12.0263  -18.5848 N   0  0  0  0  0  0  0  0  0  0  0  0
   20.7605  -10.9035  -18.5147 C   0  0  1  0  0  0  0  0  0  0  0  0
   20.8375  -10.2329  -19.8696 C   0  0  0  0  0  0  0  0  0  0  0  0
   21.9759  -11.0856  -20.9795 S   0  0  0  0  0  0  0  0  0  0  0  0
   20.2514   -9.9368  -17.5172 C   0  0  0  0  0  0  0  0  0  0  0  0
   19.0672   -9.5061  -17.6092 O   0  0  0  0  0  0  0  0  0  0  0  0
   22.2026   -9.2793  -13.8541 O   0  0  0  0  0  0  0  0  0  0  0  0
   20.8501   -9.0193  -14.0338 C   0  0  0  0  0  0  0  0  0  0  0  0
   20.5977   -8.5228  -15.4611 C   0  0  2  0  0  0  0  0  0  0  0  0
   21.0681   -9.4687  -16.4384 N   0  0  0  0  0  0  0  0  0  0  0  0
   21.1642   -7.1722  -15.6580 C   0  0  0  0  0  0  0  0  0  0  0  0
   22.3073   -7.0504  -16.1683 O   0  0  0  0  0  0  0  0  0  0  0  0
   20.5934   -2.3613  -15.5800 O   0  0  0  0  0  0  0  0  0  0  0  0
   20.0145   -3.6000  -15.2515 C   0  0  0  0  0  0  0  0  0  0  0  0
   21.0922   -4.6734  -15.4300 C   0  0  2  0  0  0  0  0  0  0  0  0
   20.4891   -5.9794  -15.3018 N   0  0  0  0  0  0  0  0  0  0  0  0
   22.1273   -4.4183  -14.4250 C   0  0  0  0  0  0  0  0  0  0  0  0
   23.2836   -3.7241  -14.7453 O   0  0  0  0  0  0  0  0  0  0  0  0
   21.9936   -4.8225  -13.2464 O   0  0  0  0  0  0  0  0  0  0  0  0
  2  3  1  0
  2  1  1  6
  3  4  1  0
  5  6  2  0
  5  2  1  0
  7  8  1  0
  9  8  1  1
  9 10  1  0
 10  5  1  0
 11  9  1  0
 11 12  2  0
 13 14  1  0
 15 14  1  1
 15 16  1  0
 16 11  1  0
 17 15  1  0
 18 17  1  0
 19 17  2  0
M  END
$$$$
