KDN.pdb
     RDKit          3D

 26 25  0  0  1  0  0  0  0  0999 V2000
   27.0297  -20.9917  -10.6688 N   0  0  0  0  0  0  0  0  0  0  0  0
   25.6922  -20.9939  -11.1983 C   0  0  1  0  0  0  0  0  0  0  0  0
   24.6201  -20.5994  -10.2480 C   0  0  0  0  0  0  0  0  0  0  0  0
   24.4862  -21.3390   -8.9844 C   0  0  0  0  0  0  0  0  0  0  0  0
   23.4222  -20.9185   -8.0380 C   0  0  0  0  0  0  0  0  0  0  0  0
   22.0970  -21.4764   -8.5114 C   0  0  0  0  0  0  0  0  0  0  0  0
   21.0890  -21.1087   -7.5337 N   0  0  0  0  0  0  0  0  0  0  0  0
   25.5729  -20.3290  -12.5211 C   0  0  0  0  0  0  0  0  0  0  0  0
   26.0929  -19.1765  -12.7197 O   0  0  0  0  0  0  0  0  0  0  0  0
   24.9044  -20.8668  -13.6514 N   0  0  0  0  0  0  0  0  0  0  0  0
   24.8446  -20.1445  -14.9223 C   0  0  1  0  0  0  0  0  0  0  0  0
   25.4908  -20.9310  -16.0016 C   0  0  0  0  0  0  0  0  0  0  0  0
   26.9496  -21.1359  -15.8214 C   0  0  0  0  0  0  0  0  0  0  0  0
   27.7800  -20.1892  -16.0124 O   0  0  0  0  0  0  0  0  0  0  0  0
   23.4603  -19.7636  -15.1634 C   0  0  0  0  0  0  0  0  0  0  0  0
   22.5610  -20.1014  -14.3563 O   0  0  0  0  0  0  0  0  0  0  0  0
   27.5166  -22.3432  -15.4408 O   0  0  0  0  0  0  0  0  0  0  0  0
   19.2325  -17.4261  -16.4450 N   0  0  0  0  0  0  0  0  0  0  0  0
   20.0901  -17.0011  -15.4005 C   0  0  0  0  0  0  0  0  0  0  0  0
   19.6857  -16.1573  -14.5702 O   0  0  0  0  0  0  0  0  0  0  0  0
   21.4426  -17.5648  -15.3165 C   0  0  0  0  0  0  0  0  0  0  0  0
   21.6855  -18.5163  -16.4626 C   0  0  2  0  0  0  0  0  0  0  0  0
   23.0439  -19.0072  -16.2921 N   0  0  0  0  0  0  0  0  0  0  0  0
   21.5040  -17.8072  -17.7284 C   0  0  0  0  0  0  0  0  0  0  0  0
   20.3328  -17.5843  -18.3967 O   0  0  0  0  0  0  0  0  0  0  0  0
   22.5591  -17.3382  -18.2825 O   0  0  0  0  0  0  0  0  0  0  0  0
  2  8  1  0
  2  1  1  1
  3  2  1  0
  4  3  1  0
  5  4  1  0
  6  5  1  0
  7  6  1  0
  8  9  2  0
 10 11  1  0
 10  8  1  0
 11 12  1  6
 12 13  1  0
 13 17  1  0
 14 13  2  0
 15 11  1  0
 16 15  2  0
 19 18  1  0
 19 21  1  0
 20 19  2  0
 22 21  1  1
 22 23  1  0
 23 15  1  0
 24 25  1  0
 24 22  1  0
 26 24  2  0
M  END
$$$$
