KDN.pdb
     RDKit          3D

 26 25  0  0  1  0  0  0  0  0999 V2000
   17.5746  -12.8908  -16.6616 N   0  0  0  0  0  0  0  0  0  0  0  0
   18.9113  -12.3833  -16.5036 C   0  0  1  0  0  0  0  0  0  0  0  0
   19.9599  -13.0625  -17.3080 C   0  0  0  0  0  0  0  0  0  0  0  0
   19.8708  -14.5167  -17.5047 C   0  0  0  0  0  0  0  0  0  0  0  0
   21.1093  -15.3204  -17.3471 C   0  0  0  0  0  0  0  0  0  0  0  0
   20.8001  -16.7659  -17.6740 C   0  0  0  0  0  0  0  0  0  0  0  0
   22.0563  -17.4934  -17.6880 N   0  0  0  0  0  0  0  0  0  0  0  0
   18.9981  -10.9017  -16.5636 C   0  0  0  0  0  0  0  0  0  0  0  0
   19.3079  -10.3115  -17.6563 O   0  0  0  0  0  0  0  0  0  0  0  0
   18.7616  -10.0220  -15.4756 N   0  0  0  0  0  0  0  0  0  0  0  0
   18.6578   -8.5754  -15.6676 C   0  0  1  0  0  0  0  0  0  0  0  0
   17.4351   -8.0476  -15.0140 C   0  0  0  0  0  0  0  0  0  0  0  0
   16.1646   -8.5071  -15.6282 C   0  0  0  0  0  0  0  0  0  0  0  0
   15.9094   -8.2965  -16.8582 O   0  0  0  0  0  0  0  0  0  0  0  0
   19.9110   -7.9696  -15.2412 C   0  0  0  0  0  0  0  0  0  0  0  0
   20.5558   -8.4574  -14.2817 O   0  0  0  0  0  0  0  0  0  0  0  0
   15.1743   -9.1856  -14.9334 O   0  0  0  0  0  0  0  0  0  0  0  0
   24.1428   -5.0957  -15.0845 N   0  0  0  0  0  0  0  0  0  0  0  0
   23.4976   -4.7710  -16.3033 C   0  0  0  0  0  0  0  0  0  0  0  0
   24.0421   -3.9758  -17.1008 O   0  0  0  0  0  0  0  0  0  0  0  0
   22.1963   -5.3795  -16.6036 C   0  0  0  0  0  0  0  0  0  0  0  0
   21.7380   -6.2337  -15.4468 C   0  0  2  0  0  0  0  0  0  0  0  0
   20.4740   -6.8214  -15.8613 N   0  0  0  0  0  0  0  0  0  0  0  0
   21.6002   -5.4002  -14.2533 C   0  0  0  0  0  0  0  0  0  0  0  0
   20.4446   -5.0429  -13.6169 O   0  0  0  0  0  0  0  0  0  0  0  0
   22.6821   -4.9476  -13.7386 O   0  0  0  0  0  0  0  0  0  0  0  0
  2  8  1  0
  2  1  1  6
  3  2  1  0
  4  3  1  0
  5  4  1  0
  6  5  1  0
  7  6  1  0
  8  9  2  0
 10 11  1  0
 10  8  1  0
 11 12  1  1
 12 13  1  0
 13 17  1  0
 14 13  2  0
 15 11  1  0
 16 15  2  0
 19 18  1  0
 19 21  1  0
 20 19  2  0
 22 21  1  6
 22 23  1  0
 23 15  1  0
 24 25  1  0
 24 22  1  0
 26 24  2  0
M  END
$$$$
