KDN.pdb
     RDKit          3D

 26 25  0  0  1  0  0  0  0  0999 V2000
   24.4211  -19.5082  -17.0833 N   0  0  0  0  0  0  0  0  0  0  0  0
   23.6116  -18.7604  -18.0076 C   0  0  1  0  0  0  0  0  0  0  0  0
   23.5377  -19.3038  -19.3886 C   0  0  0  0  0  0  0  0  0  0  0  0
   24.3249  -20.5000  -19.7221 C   0  0  0  0  0  0  0  0  0  0  0  0
   24.2221  -21.0422  -21.1005 C   0  0  0  0  0  0  0  0  0  0  0  0
   25.1433  -22.2368  -21.2270 C   0  0  0  0  0  0  0  0  0  0  0  0
   25.0037  -22.7610  -22.5735 N   0  0  0  0  0  0  0  0  0  0  0  0
   22.2858  -18.3727  -17.4615 C   0  0  0  0  0  0  0  0  0  0  0  0
   21.4490  -17.7254  -18.1819 O   0  0  0  0  0  0  0  0  0  0  0  0
   21.8235  -18.6595  -16.1509 N   0  0  0  0  0  0  0  0  0  0  0  0
   20.5164  -18.1999  -15.6811 C   0  0  1  0  0  0  0  0  0  0  0  0
   20.0408  -19.0399  -14.5546 C   0  0  0  0  0  0  0  0  0  0  0  0
   19.7823  -20.4567  -14.9129 C   0  0  0  0  0  0  0  0  0  0  0  0
   19.1224  -20.7660  -15.9575 O   0  0  0  0  0  0  0  0  0  0  0  0
   20.6083  -16.7730  -15.4074 C   0  0  0  0  0  0  0  0  0  0  0  0
   21.1558  -16.3642  -14.3551 O   0  0  0  0  0  0  0  0  0  0  0  0
   20.2249  -21.5346  -14.1604 O   0  0  0  0  0  0  0  0  0  0  0  0
   22.5849  -11.6935  -16.7400 N   0  0  0  0  0  0  0  0  0  0  0  0
   21.7128  -12.4841  -15.9517 C   0  0  0  0  0  0  0  0  0  0  0  0
   21.0977  -11.9635  -14.9949 O   0  0  0  0  0  0  0  0  0  0  0  0
   21.5504  -13.9057  -16.2784 C   0  0  0  0  0  0  0  0  0  0  0  0
   20.1410  -14.3545  -15.9780 C   0  0  2  0  0  0  0  0  0  0  0  0
   20.1014  -15.7757  -16.2839 N   0  0  0  0  0  0  0  0  0  0  0  0
   19.2026  -13.5830  -16.7919 C   0  0  0  0  0  0  0  0  0  0  0  0
   18.5113  -14.0075  -17.8919 O   0  0  0  0  0  0  0  0  0  0  0  0
   18.9997  -12.3681  -16.4415 O   0  0  0  0  0  0  0  0  0  0  0  0
  2  8  1  0
  2  1  1  1
  3  2  1  0
  4  3  1  0
  5  4  1  0
  6  5  1  0
  7  6  1  0
  8  9  2  0
 10 11  1  0
 10  8  1  0
 11 12  1  1
 12 13  1  0
 13 17  1  0
 14 13  2  0
 15 11  1  0
 16 15  2  0
 19 18  1  0
 19 21  1  0
 20 19  2  0
 22 21  1  6
 22 23  1  0
 23 15  1  0
 24 25  1  0
 24 22  1  0
 26 24  2  0
M  END
$$$$
