KDN.pdb
     RDKit          3D

 26 25  0  0  1  0  0  0  0  0999 V2000
   25.2022  -20.7194  -13.8683 N   0  0  0  0  0  0  0  0  0  0  0  0
   23.9803  -20.7897  -14.6239 C   0  0  1  0  0  0  0  0  0  0  0  0
   23.9052  -21.8790  -15.6318 C   0  0  0  0  0  0  0  0  0  0  0  0
   25.0868  -22.7268  -15.8477 C   0  0  0  0  0  0  0  0  0  0  0  0
   25.1157  -24.0630  -15.2008 C   0  0  0  0  0  0  0  0  0  0  0  0
   24.4205  -25.0595  -16.1038 C   0  0  0  0  0  0  0  0  0  0  0  0
   24.3921  -26.3359  -15.4129 N   0  0  0  0  0  0  0  0  0  0  0  0
   22.7559  -20.6811  -13.7900 C   0  0  0  0  0  0  0  0  0  0  0  0
   22.8429  -20.5478  -12.5201 O   0  0  0  0  0  0  0  0  0  0  0  0
   21.4247  -20.7125  -14.2805 N   0  0  0  0  0  0  0  0  0  0  0  0
   20.2761  -20.5251  -13.3939 C   0  0  1  0  0  0  0  0  0  0  0  0
   19.2450  -19.6807  -14.0454 C   0  0  0  0  0  0  0  0  0  0  0  0
   18.0498  -19.4159  -13.2065 C   0  0  0  0  0  0  0  0  0  0  0  0
   17.0405  -20.1926  -13.2275 O   0  0  0  0  0  0  0  0  0  0  0  0
   19.8269  -21.8366  -12.9494 C   0  0  0  0  0  0  0  0  0  0  0  0
   19.8289  -22.8089  -13.7425 O   0  0  0  0  0  0  0  0  0  0  0  0
   17.9337  -18.3292  -12.3523 O   0  0  0  0  0  0  0  0  0  0  0  0
   18.5426  -24.9422   -7.7921 N   0  0  0  0  0  0  0  0  0  0  0  0
   18.5671  -24.7329   -9.1930 C   0  0  0  0  0  0  0  0  0  0  0  0
   18.2820  -25.6742   -9.9661 O   0  0  0  0  0  0  0  0  0  0  0  0
   18.9289  -23.4071   -9.7081 C   0  0  0  0  0  0  0  0  0  0  0  0
   18.8383  -23.3879  -11.2146 C   0  0  2  0  0  0  0  0  0  0  0  0
   19.3701  -22.0995  -11.6296 N   0  0  0  0  0  0  0  0  0  0  0  0
   17.4452  -23.5722  -11.6190 C   0  0  0  0  0  0  0  0  0  0  0  0
   16.3566  -22.8583  -11.2025 O   0  0  0  0  0  0  0  0  0  0  0  0
   17.2083  -24.5090  -12.4594 O   0  0  0  0  0  0  0  0  0  0  0  0
  2  8  1  0
  2  1  1  1
  3  2  1  0
  4  3  1  0
  5  4  1  0
  6  5  1  0
  7  6  1  0
  8  9  2  0
 10 11  1  0
 10  8  1  0
 11 12  1  6
 12 13  1  0
 13 17  1  0
 14 13  2  0
 15 11  1  0
 16 15  2  0
 19 18  1  0
 19 21  1  0
 20 19  2  0
 22 21  1  1
 22 23  1  0
 23 15  1  0
 24 25  1  0
 24 22  1  0
 26 24  2  0
M  END
$$$$
