KDN.pdb
     RDKit          3D

 26 25  0  0  1  0  0  0  0  0999 V2000
   13.7654  -11.0647  -12.1044 N   0  0  0  0  0  0  0  0  0  0  0  0
   15.1201  -10.6520  -11.8523 C   0  0  1  0  0  0  0  0  0  0  0  0
   16.1054  -10.9848  -12.9136 C   0  0  0  0  0  0  0  0  0  0  0  0
   16.1460  -12.3581  -13.4369 C   0  0  0  0  0  0  0  0  0  0  0  0
   17.1221  -12.6676  -14.5121 C   0  0  0  0  0  0  0  0  0  0  0  0
   16.9432  -14.1099  -14.9358 C   0  0  0  0  0  0  0  0  0  0  0  0
   17.9643  -14.4095  -15.9232 N   0  0  0  0  0  0  0  0  0  0  0  0
   15.2371   -9.2536  -11.3653 C   0  0  0  0  0  0  0  0  0  0  0  0
   14.5519   -8.3169  -11.9049 O   0  0  0  0  0  0  0  0  0  0  0  0
   16.0770   -8.8221  -10.3060 N   0  0  0  0  0  0  0  0  0  0  0  0
   16.2368   -7.4042   -9.9830 C   0  0  1  0  0  0  0  0  0  0  0  0
   16.0103   -7.1689   -8.5359 C   0  0  0  0  0  0  0  0  0  0  0  0
   16.1003   -5.7457   -8.1248 C   0  0  0  0  0  0  0  0  0  0  0  0
   16.8375   -5.3827   -7.1517 O   0  0  0  0  0  0  0  0  0  0  0  0
   17.5250   -6.9635  -10.4984 C   0  0  0  0  0  0  0  0  0  0  0  0
   18.5749   -7.1773   -9.8454 O   0  0  0  0  0  0  0  0  0  0  0  0
   15.4073   -4.7185   -8.7483 O   0  0  0  0  0  0  0  0  0  0  0  0
   21.3772   -5.6599  -13.4625 N   0  0  0  0  0  0  0  0  0  0  0  0
   20.9571   -6.9960  -13.2496 C   0  0  0  0  0  0  0  0  0  0  0  0
   21.7047   -7.9420  -13.5830 O   0  0  0  0  0  0  0  0  0  0  0  0
   19.6453   -7.2406  -12.6386 C   0  0  0  0  0  0  0  0  0  0  0  0
   18.9756   -5.9325  -12.2946 C   0  0  2  0  0  0  0  0  0  0  0  0
   17.6792   -6.2830  -11.7365 N   0  0  0  0  0  0  0  0  0  0  0  0
   18.8602   -5.1148  -13.5013 C   0  0  0  0  0  0  0  0  0  0  0  0
   18.3808   -3.8386  -13.5987 O   0  0  0  0  0  0  0  0  0  0  0  0
   19.2499   -5.6484  -14.5983 O   0  0  0  0  0  0  0  0  0  0  0  0
  2  8  1  0
  2  1  1  6
  3  2  1  0
  4  3  1  0
  5  4  1  0
  6  5  1  0
  7  6  1  0
  8  9  2  0
 10 11  1  0
 10  8  1  0
 11 12  1  1
 12 13  1  0
 13 17  1  0
 14 13  2  0
 15 11  1  0
 16 15  2  0
 19 18  1  0
 19 21  1  0
 20 19  2  0
 22 21  1  6
 22 23  1  0
 23 15  1  0
 24 25  1  0
 24 22  1  0
 26 24  2  0
M  END
$$$$
