KDN.pdb
     RDKit          3D

 26 25  0  0  1  0  0  0  0  0999 V2000
   15.6649  -12.5452  -18.2979 N   0  0  0  0  0  0  0  0  0  0  0  0
   15.3978  -11.7991  -17.0975 C   0  0  1  0  0  0  0  0  0  0  0  0
   15.5154  -12.5577  -15.8252 C   0  0  0  0  0  0  0  0  0  0  0  0
   14.8052  -13.8385  -15.6961 C   0  0  0  0  0  0  0  0  0  0  0  0
   15.0546  -14.6565  -14.4822 C   0  0  0  0  0  0  0  0  0  0  0  0
   14.1813  -15.8919  -14.5361 C   0  0  0  0  0  0  0  0  0  0  0  0
   14.4899  -16.7013  -13.3713 N   0  0  0  0  0  0  0  0  0  0  0  0
   16.0743  -10.4774  -17.0533 C   0  0  0  0  0  0  0  0  0  0  0  0
   17.1287  -10.2624  -17.7462 O   0  0  0  0  0  0  0  0  0  0  0  0
   15.6516   -9.3658  -16.2792 N   0  0  0  0  0  0  0  0  0  0  0  0
   16.3476   -8.0804  -16.3394 C   0  0  1  0  0  0  0  0  0  0  0  0
   15.4103   -6.9647  -16.0608 C   0  0  0  0  0  0  0  0  0  0  0  0
   16.0153   -5.6140  -16.1703 C   0  0  0  0  0  0  0  0  0  0  0  0
   17.2250   -5.4577  -16.5369 O   0  0  0  0  0  0  0  0  0  0  0  0
   17.5139   -8.1545  -15.4712 C   0  0  0  0  0  0  0  0  0  0  0  0
   17.5853   -9.0355  -14.5807 O   0  0  0  0  0  0  0  0  0  0  0  0
   15.3331   -4.4394  -15.8895 O   0  0  0  0  0  0  0  0  0  0  0  0
   22.4918   -9.9893  -14.5942 N   0  0  0  0  0  0  0  0  0  0  0  0
   21.5261   -9.0371  -14.1848 C   0  0  0  0  0  0  0  0  0  0  0  0
   21.6501   -8.4632  -13.0802 O   0  0  0  0  0  0  0  0  0  0  0  0
   20.3947   -8.7442  -15.0726 C   0  0  0  0  0  0  0  0  0  0  0  0
   19.8135   -7.3890  -14.7506 C   0  0  2  0  0  0  0  0  0  0  0  0
   18.6172   -7.2639  -15.5681 N   0  0  0  0  0  0  0  0  0  0  0  0
   20.8025   -6.3540  -15.0484 C   0  0  0  0  0  0  0  0  0  0  0  0
   20.7556   -5.4207  -16.0458 O   0  0  0  0  0  0  0  0  0  0  0  0
   21.8358   -6.3101  -14.2931 O   0  0  0  0  0  0  0  0  0  0  0  0
  2  8  1  0
  2  1  1  6
  3  2  1  0
  4  3  1  0
  5  4  1  0
  6  5  1  0
  7  6  1  0
  8  9  2  0
 10 11  1  0
 10  8  1  0
 11 12  1  1
 12 13  1  0
 13 17  1  0
 14 13  2  0
 15 11  1  0
 16 15  2  0
 19 18  1  0
 19 21  1  0
 20 19  2  0
 22 21  1  6
 22 23  1  0
 23 15  1  0
 24 25  1  0
 24 22  1  0
 26 24  2  0
M  END
$$$$
