KDN.pdb
     RDKit          3D

 26 25  0  0  1  0  0  0  0  0999 V2000
   28.7295  -21.3382  -16.3413 N   0  0  0  0  0  0  0  0  0  0  0  0
   27.4747  -21.8214  -16.8524 C   0  0  1  0  0  0  0  0  0  0  0  0
   27.5468  -23.0457  -17.6913 C   0  0  0  0  0  0  0  0  0  0  0  0
   28.7360  -23.9043  -17.5906 C   0  0  0  0  0  0  0  0  0  0  0  0
   29.9926  -23.4351  -18.2273 C   0  0  0  0  0  0  0  0  0  0  0  0
   31.0358  -24.5264  -18.1151 C   0  0  0  0  0  0  0  0  0  0  0  0
   32.3152  -23.9542  -18.4931 N   0  0  0  0  0  0  0  0  0  0  0  0
   26.3962  -21.8756  -15.8325 C   0  0  0  0  0  0  0  0  0  0  0  0
   25.2609  -22.3960  -16.1127 O   0  0  0  0  0  0  0  0  0  0  0  0
   26.4970  -21.3823  -14.5058 N   0  0  0  0  0  0  0  0  0  0  0  0
   25.3847  -21.4888  -13.5615 C   0  0  1  0  0  0  0  0  0  0  0  0
   25.8779  -21.4277  -12.1637 C   0  0  0  0  0  0  0  0  0  0  0  0
   24.8148  -21.5329  -11.1334 C   0  0  0  0  0  0  0  0  0  0  0  0
   23.6757  -22.0333  -11.4058 O   0  0  0  0  0  0  0  0  0  0  0  0
   24.3868  -20.4916  -13.9211 C   0  0  0  0  0  0  0  0  0  0  0  0
   24.7001  -19.2786  -13.9902 O   0  0  0  0  0  0  0  0  0  0  0  0
   24.9678  -21.1060   -9.8225 O   0  0  0  0  0  0  0  0  0  0  0  0
   21.0669  -18.1690  -17.6858 N   0  0  0  0  0  0  0  0  0  0  0  0
   20.9232  -18.7388  -16.3968 C   0  0  0  0  0  0  0  0  0  0  0  0
   20.0296  -18.3187  -15.6288 O   0  0  0  0  0  0  0  0  0  0  0  0
   21.8327  -19.8163  -15.9897 C   0  0  0  0  0  0  0  0  0  0  0  0
   22.0213  -19.8048  -14.4923 C   0  0  2  0  0  0  0  0  0  0  0  0
   23.0325  -20.8112  -14.2101 N   0  0  0  0  0  0  0  0  0  0  0  0
   20.7457  -20.0986  -13.8406 C   0  0  0  0  0  0  0  0  0  0  0  0
   19.8445  -19.2042  -13.3345 O   0  0  0  0  0  0  0  0  0  0  0  0
   20.4285  -21.3340  -13.7256 O   0  0  0  0  0  0  0  0  0  0  0  0
  2  8  1  0
  2  1  1  1
  3  2  1  0
  4  3  1  0
  5  4  1  0
  6  5  1  0
  7  6  1  0
  8  9  2  0
 10 11  1  0
 10  8  1  0
 11 12  1  1
 12 13  1  0
 13 17  1  0
 14 13  2  0
 15 11  1  0
 16 15  2  0
 19 18  1  0
 19 21  1  0
 20 19  2  0
 22 21  1  6
 22 23  1  0
 23 15  1  0
 24 25  1  0
 24 22  1  0
 26 24  2  0
M  END
$$$$
