AHP.pdb
     RDKit          3D

 23 24  0  0  1  0  0  0  0  0999 V2000
   45.1415  -11.6194   -6.9746 C   0  0  0  0  0  0  0  0  0  0  0  0
   44.6683  -10.1954   -7.0040 C   0  0  2  0  0  0  0  0  0  0  0  0
   44.6049   -9.6243   -5.6706 N   0  0  0  0  0  0  0  0  0  0  0  0
   43.3553  -10.0455   -7.6994 C   0  0  0  0  0  0  0  0  0  0  0  0
   43.1605  -10.4670   -8.8682 O   0  0  0  0  0  0  0  0  0  0  0  0
   42.3058   -9.4159   -7.0308 N   0  0  0  0  0  0  0  0  0  0  0  0
   40.9394   -9.2872   -7.6295 C   0  0  1  0  0  0  0  0  0  0  0  0
   40.0916   -9.8402   -6.4702 C   0  0  0  0  0  0  0  0  0  0  0  0
   38.6693   -9.6480   -6.5643 C   0  0  0  0  0  0  0  0  0  0  0  0
   37.9942   -9.0003   -7.5753 C   0  0  0  0  0  0  0  0  0  0  0  0
   36.6578   -8.9896   -7.3352 N   0  0  0  0  0  0  0  0  0  0  0  0
   36.4847   -9.6327   -6.1676 C   0  0  0  0  0  0  0  0  0  0  0  0
   37.6811  -10.0291   -5.7006 N   0  0  0  0  0  0  0  0  0  0  0  0
   40.7491   -7.8408   -7.8320 C   0  0  0  0  0  0  0  0  0  0  0  0
   41.0854   -7.0734   -6.8508 O   0  0  0  0  0  0  0  0  0  0  0  0
   40.2358   -7.2517   -9.0165 N   0  0  0  0  0  0  0  0  0  0  0  0
   39.9432   -7.9119  -10.2514 C   0  0  0  0  0  0  0  0  0  0  0  0
   38.7137   -7.1529  -10.7433 C   0  0  0  0  0  0  0  0  0  0  0  0
   39.2199   -5.7186  -10.5381 C   0  0  0  0  0  0  0  0  0  0  0  0
   39.9154   -5.8458   -9.2249 C   0  0  1  0  0  0  0  0  0  0  0  0
   39.0486   -5.2826   -8.1704 C   0  0  0  0  0  0  0  0  0  0  0  0
   39.1168   -4.0549   -7.9390 O   0  0  0  0  0  0  0  0  0  0  0  0
   38.1735   -6.0575   -7.4377 O   0  0  0  0  0  0  0  0  0  0  0  0
  2  3  1  0
  2  1  1  1
  4  5  2  0
  4  2  1  0
  6  4  1  0
  7  6  1  0
  7 14  1  0
  7  8  1  1
  9  8  1  0
 10  9  2  0
 11 10  1  0
 12 11  1  0
 12 13  2  0
 13  9  1  0
 14 16  1  0
 15 14  2  0
 16 17  1  0
 16 20  1  0
 17 18  1  0
 19 18  1  0
 20 19  1  0
 20 21  1  1
 21 22  2  0
 21 23  1  0
M  END
$$$$
