AHP.pdb
     RDKit          3D

 23 24  0  0  1  0  0  0  0  0999 V2000
   20.7443  -32.7338   -1.4186 C   0  0  0  0  0  0  0  0  0  0  0  0
   21.4101  -32.5721   -2.7539 C   0  0  2  0  0  0  0  0  0  0  0  0
   20.4817  -32.8006   -3.8466 N   0  0  0  0  0  0  0  0  0  0  0  0
   22.6135  -33.4442   -2.9000 C   0  0  0  0  0  0  0  0  0  0  0  0
   22.6019  -34.4981   -3.5863 O   0  0  0  0  0  0  0  0  0  0  0  0
   23.7939  -33.0791   -2.2532 N   0  0  0  0  0  0  0  0  0  0  0  0
   25.0629  -33.8593   -2.4051 C   0  0  1  0  0  0  0  0  0  0  0  0
   25.7535  -33.0267   -3.4997 C   0  0  0  0  0  0  0  0  0  0  0  0
   26.7629  -33.6952   -4.2762 C   0  0  0  0  0  0  0  0  0  0  0  0
   27.2506  -34.9664   -4.0672 C   0  0  0  0  0  0  0  0  0  0  0  0
   28.2088  -35.2729   -4.9791 N   0  0  0  0  0  0  0  0  0  0  0  0
   28.3293  -34.1922   -5.7693 C   0  0  0  0  0  0  0  0  0  0  0  0
   27.4693  -33.2454   -5.3563 N   0  0  0  0  0  0  0  0  0  0  0  0
   25.7345  -33.7482   -1.0990 C   0  0  0  0  0  0  0  0  0  0  0  0
   25.8278  -32.5625   -0.5990 O   0  0  0  0  0  0  0  0  0  0  0  0
   26.2681  -34.8422   -0.3696 N   0  0  0  0  0  0  0  0  0  0  0  0
   26.2299  -36.2243   -0.7366 C   0  0  0  0  0  0  0  0  0  0  0  0
   27.5666  -36.7386   -0.2087 C   0  0  0  0  0  0  0  0  0  0  0  0
   27.5147  -36.1361    1.2020 C   0  0  0  0  0  0  0  0  0  0  0  0
   26.9527  -34.7847    0.9153 C   0  0  1  0  0  0  0  0  0  0  0  0
   28.0491  -33.7961    0.9483 C   0  0  0  0  0  0  0  0  0  0  0  0
   28.4390  -33.3060   -0.1348 O   0  0  0  0  0  0  0  0  0  0  0  0
   28.6532  -33.3980    2.1229 O   0  0  0  0  0  0  0  0  0  0  0  0
  2  3  1  0
  2  1  1  1
  4  5  2  0
  4  2  1  0
  6  4  1  0
  7  6  1  0
  7 14  1  0
  7  8  1  6
  9  8  1  0
 10  9  2  0
 11 10  1  0
 12 11  1  0
 12 13  2  0
 13  9  1  0
 14 16  1  0
 15 14  2  0
 16 17  1  0
 16 20  1  0
 17 18  1  0
 19 18  1  0
 20 19  1  0
 20 21  1  6
 21 22  2  0
 21 23  1  0
M  END
$$$$
