AHP.pdb
     RDKit          3D

 23 24  0  0  1  0  0  0  0  0999 V2000
   17.9443  -13.0119  -18.1362 C   0  0  0  0  0  0  0  0  0  0  0  0
   19.3491  -13.5389  -18.1035 C   0  0  2  0  0  0  0  0  0  0  0  0
   19.3756  -14.9884  -18.0232 N   0  0  0  0  0  0  0  0  0  0  0  0
   20.1570  -12.9398  -16.9997 C   0  0  0  0  0  0  0  0  0  0  0  0
   20.1205  -13.3812  -15.8226 O   0  0  0  0  0  0  0  0  0  0  0  0
   20.9824  -11.8517  -17.2817 N   0  0  0  0  0  0  0  0  0  0  0  0
   21.8274  -11.1965  -16.2334 C   0  0  1  0  0  0  0  0  0  0  0  0
   23.1956  -11.2353  -16.9370 C   0  0  0  0  0  0  0  0  0  0  0  0
   23.9200  -12.4760  -16.8678 C   0  0  0  0  0  0  0  0  0  0  0  0
   24.7191  -12.9024  -15.8301 C   0  0  0  0  0  0  0  0  0  0  0  0
   25.2626  -14.1159  -16.1052 N   0  0  0  0  0  0  0  0  0  0  0  0
   24.8066  -14.4603  -17.3219 C   0  0  0  0  0  0  0  0  0  0  0  0
   24.0041  -13.4863  -17.7843 N   0  0  0  0  0  0  0  0  0  0  0  0
   21.2899   -9.8306  -16.1127 C   0  0  0  0  0  0  0  0  0  0  0  0
   21.0705   -9.1991  -17.2162 O   0  0  0  0  0  0  0  0  0  0  0  0
   20.9988   -9.1828  -14.8842 N   0  0  0  0  0  0  0  0  0  0  0  0
   21.0991   -9.7400  -13.5704 C   0  0  0  0  0  0  0  0  0  0  0  0
   21.5550   -8.5416  -12.7422 C   0  0  0  0  0  0  0  0  0  0  0  0
   20.5472   -7.5018  -13.2508 C   0  0  0  0  0  0  0  0  0  0  0  0
   20.5209   -7.8178  -14.7081 C   0  0  1  0  0  0  0  0  0  0  0  0
   21.3350   -6.8175  -15.4272 C   0  0  0  0  0  0  0  0  0  0  0  0
   22.4914   -7.1374  -15.7817 O   0  0  0  0  0  0  0  0  0  0  0  0
   20.8678   -5.5526  -15.7188 O   0  0  0  0  0  0  0  0  0  0  0  0
  2  3  1  0
  2  1  1  1
  4  5  2  0
  4  2  1  0
  6  4  1  0
  7  6  1  0
  7 14  1  0
  7  8  1  6
  9  8  1  0
 10  9  2  0
 11 10  1  0
 12 11  1  0
 12 13  2  0
 13  9  1  0
 14 16  1  0
 15 14  2  0
 16 17  1  0
 16 20  1  0
 17 18  1  0
 19 18  1  0
 20 19  1  0
 20 21  1  6
 21 22  2  0
 21 23  1  0
M  END
$$$$
