AHP.pdb
     RDKit          3D

 23 24  0  0  1  0  0  0  0  0999 V2000
   16.4454  -13.4057  -14.5931 C   0  0  0  0  0  0  0  0  0  0  0  0
   16.7244  -13.0921  -16.0340 C   0  0  2  0  0  0  0  0  0  0  0  0
   16.7745  -14.2958  -16.8443 N   0  0  0  0  0  0  0  0  0  0  0  0
   17.9720  -12.2907  -16.2115 C   0  0  0  0  0  0  0  0  0  0  0  0
   19.1118  -12.7523  -15.9476 O   0  0  0  0  0  0  0  0  0  0  0  0
   17.8723  -10.9834  -16.6867 N   0  0  0  0  0  0  0  0  0  0  0  0
   19.0767  -10.1288  -16.9341 C   0  0  1  0  0  0  0  0  0  0  0  0
   18.7483   -9.6151  -18.3472 C   0  0  0  0  0  0  0  0  0  0  0  0
   19.1706  -10.4410  -19.4465 C   0  0  0  0  0  0  0  0  0  0  0  0
   19.9853  -11.5493  -19.3741 C   0  0  0  0  0  0  0  0  0  0  0  0
   20.1922  -12.0790  -20.6071 N   0  0  0  0  0  0  0  0  0  0  0  0
   19.5063  -11.3037  -21.4646 C   0  0  0  0  0  0  0  0  0  0  0  0
   18.8934  -10.3231  -20.7796 N   0  0  0  0  0  0  0  0  0  0  0  0
   19.0051   -9.0688  -15.9142 C   0  0  0  0  0  0  0  0  0  0  0  0
   17.8528   -8.5150  -15.7399 O   0  0  0  0  0  0  0  0  0  0  0  0
   20.1001   -8.6329  -15.1240 N   0  0  0  0  0  0  0  0  0  0  0  0
   21.4265   -9.1689  -15.1175 C   0  0  0  0  0  0  0  0  0  0  0  0
   22.2795   -7.9248  -14.8839 C   0  0  0  0  0  0  0  0  0  0  0  0
   21.5019   -7.3189  -13.7075 C   0  0  0  0  0  0  0  0  0  0  0  0
   20.0950   -7.5569  -14.1417 C   0  0  1  0  0  0  0  0  0  0  0  0
   19.5374   -6.2932  -14.6637 C   0  0  0  0  0  0  0  0  0  0  0  0
   19.5040   -6.1265  -15.9032 O   0  0  0  0  0  0  0  0  0  0  0  0
   19.0561   -5.2983  -13.8381 O   0  0  0  0  0  0  0  0  0  0  0  0
  2  3  1  0
  2  1  1  1
  4  5  2  0
  4  2  1  0
  6  4  1  0
  7  6  1  0
  7 14  1  0
  7  8  1  6
  9  8  1  0
 10  9  2  0
 11 10  1  0
 12 11  1  0
 12 13  2  0
 13  9  1  0
 14 16  1  0
 15 14  2  0
 16 17  1  0
 16 20  1  0
 17 18  1  0
 19 18  1  0
 20 19  1  0
 20 21  1  6
 21 22  2  0
 21 23  1  0
M  END
$$$$
