AHP.pdb
     RDKit          3D

 23 24  0  0  1  0  0  0  0  0999 V2000
   91.3653   14.5552   11.7082 C   0  0  0  0  0  0  0  0  0  0  0  0
   92.2633   13.8674   12.6945 C   0  0  2  0  0  0  0  0  0  0  0  0
   92.9194   12.7130   12.1072 N   0  0  0  0  0  0  0  0  0  0  0  0
   91.5452   13.4798   13.9452 C   0  0  0  0  0  0  0  0  0  0  0  0
   90.6304   14.1854   14.4424 O   0  0  0  0  0  0  0  0  0  0  0  0
   91.8997   12.2934   14.5868 N   0  0  0  0  0  0  0  0  0  0  0  0
   92.3648   12.2623   16.0097 C   0  0  1  0  0  0  0  0  0  0  0  0
   92.9528   10.8411   16.0627 C   0  0  0  0  0  0  0  0  0  0  0  0
   92.7701   10.1143   17.2904 C   0  0  0  0  0  0  0  0  0  0  0  0
   92.0255   10.5151   18.3778 C   0  0  0  0  0  0  0  0  0  0  0  0
   92.0850    9.5918   19.3716 N   0  0  0  0  0  0  0  0  0  0  0  0
   92.8702    8.6019   18.9128 C   0  0  0  0  0  0  0  0  0  0  0  0
   93.2835    8.9061   17.6706 N   0  0  0  0  0  0  0  0  0  0  0  0
   93.3989   13.3077   16.0932 C   0  0  0  0  0  0  0  0  0  0  0  0
   93.8353   13.7761   14.9730 O   0  0  0  0  0  0  0  0  0  0  0  0
   93.9288   13.8247   17.3038 N   0  0  0  0  0  0  0  0  0  0  0  0
   95.3088   14.0153   17.6294 C   0  0  0  0  0  0  0  0  0  0  0  0
   95.2714   15.2853   18.4755 C   0  0  0  0  0  0  0  0  0  0  0  0
   94.1230   14.9090   19.4215 C   0  0  0  0  0  0  0  0  0  0  0  0
   93.1751   14.2540   18.4744 C   0  0  1  0  0  0  0  0  0  0  0  0
   92.0903   15.2032   18.1537 C   0  0  0  0  0  0  0  0  0  0  0  0
   91.7998   15.3880   16.9509 O   0  0  0  0  0  0  0  0  0  0  0  0
   91.3922   15.8875   19.1271 O   0  0  0  0  0  0  0  0  0  0  0  0
  2  3  1  0
  2  1  1  6
  4  5  2  0
  4  2  1  0
  6  4  1  0
  7  6  1  0
  7 14  1  0
  7  8  1  6
  9  8  1  0
 10  9  2  0
 11 10  1  0
 12 11  1  0
 12 13  2  0
 13  9  1  0
 14 16  1  0
 15 14  2  0
 16 17  1  0
 16 20  1  0
 17 18  1  0
 19 18  1  0
 20 19  1  0
 20 21  1  6
 21 22  2  0
 21 23  1  0
M  END
$$$$
