AHP.pdb
     RDKit          3D

 23 24  0  0  1  0  0  0  0  0999 V2000
   26.7283  -23.5306  -17.2033 C   0  0  0  0  0  0  0  0  0  0  0  0
   26.5922  -22.0478  -17.3903 C   0  0  2  0  0  0  0  0  0  0  0  0
   27.4619  -21.5588  -18.4451 N   0  0  0  0  0  0  0  0  0  0  0  0
   26.8283  -21.2898  -16.1254 C   0  0  0  0  0  0  0  0  0  0  0  0
   27.9806  -21.1043  -15.6569 O   0  0  0  0  0  0  0  0  0  0  0  0
   25.7333  -20.7679  -15.4372 N   0  0  0  0  0  0  0  0  0  0  0  0
   25.8899  -19.8786  -14.2428 C   0  0  1  0  0  0  0  0  0  0  0  0
   25.2356  -18.5949  -14.7837 C   0  0  0  0  0  0  0  0  0  0  0  0
   26.0602  -17.7487  -15.6040 C   0  0  0  0  0  0  0  0  0  0  0  0
   27.0759  -16.9250  -15.1713 C   0  0  0  0  0  0  0  0  0  0  0  0
   27.6337  -16.2566  -16.2133 N   0  0  0  0  0  0  0  0  0  0  0  0
   26.9692  -16.6578  -17.3108 C   0  0  0  0  0  0  0  0  0  0  0  0
   26.0278  -17.5489  -16.9556 N   0  0  0  0  0  0  0  0  0  0  0  0
   25.0907  -20.5205  -13.1852 C   0  0  0  0  0  0  0  0  0  0  0  0
   23.8957  -20.8845  -13.5079 O   0  0  0  0  0  0  0  0  0  0  0  0
   25.5465  -20.7639  -11.8636 N   0  0  0  0  0  0  0  0  0  0  0  0
   26.8786  -20.6031  -11.3674 C   0  0  0  0  0  0  0  0  0  0  0  0
   26.6382  -20.1215   -9.9390 C   0  0  0  0  0  0  0  0  0  0  0  0
   25.5911  -21.1584   -9.5099 C   0  0  0  0  0  0  0  0  0  0  0  0
   24.7528  -21.2446  -10.7404 C   0  0  1  0  0  0  0  0  0  0  0  0
   23.5138  -20.4699  -10.5278 C   0  0  0  0  0  0  0  0  0  0  0  0
   23.4573  -19.3049  -10.9804 O   0  0  0  0  0  0  0  0  0  0  0  0
   22.4256  -20.9826   -9.8526 O   0  0  0  0  0  0  0  0  0  0  0  0
  2  3  1  0
  2  1  1  1
  4  5  2  0
  4  2  1  0
  6  4  1  0
  7  6  1  0
  7 14  1  0
  7  8  1  6
  9  8  1  0
 10  9  2  0
 11 10  1  0
 12 11  1  0
 12 13  2  0
 13  9  1  0
 14 16  1  0
 15 14  2  0
 16 17  1  0
 16 20  1  0
 17 18  1  0
 19 18  1  0
 20 19  1  0
 20 21  1  1
 21 22  2  0
 21 23  1  0
M  END
$$$$
