AHP.pdb
     RDKit          3D

 23 24  0  0  1  0  0  0  0  0999 V2000
   19.0239  -11.0134  -20.9475 C   0  0  0  0  0  0  0  0  0  0  0  0
   20.2791  -11.8281  -20.8320 C   0  0  2  0  0  0  0  0  0  0  0  0
   20.0603  -13.2079  -21.2273 N   0  0  0  0  0  0  0  0  0  0  0  0
   20.8756  -11.7648  -19.4644 C   0  0  0  0  0  0  0  0  0  0  0  0
   20.3061  -12.2593  -18.4580 O   0  0  0  0  0  0  0  0  0  0  0  0
   22.1085  -11.1355  -19.2946 N   0  0  0  0  0  0  0  0  0  0  0  0
   22.7351  -10.9555  -17.9466 C   0  0  1  0  0  0  0  0  0  0  0  0
   24.2172  -11.1358  -18.3199 C   0  0  0  0  0  0  0  0  0  0  0  0
   25.1759  -10.9261  -17.2683 C   0  0  0  0  0  0  0  0  0  0  0  0
   25.5644  -11.8440  -16.3176 C   0  0  0  0  0  0  0  0  0  0  0  0
   26.4760  -11.3042  -15.4682 N   0  0  0  0  0  0  0  0  0  0  0  0
   26.6662  -10.0395  -15.8818 C   0  0  0  0  0  0  0  0  0  0  0  0
   25.8935   -9.8056  -16.9563 N   0  0  0  0  0  0  0  0  0  0  0  0
   22.4116   -9.5716  -17.5602 C   0  0  0  0  0  0  0  0  0  0  0  0
   22.5353   -8.6739  -18.4786 O   0  0  0  0  0  0  0  0  0  0  0  0
   21.9756   -9.1743  -16.2696 N   0  0  0  0  0  0  0  0  0  0  0  0
   21.5839  -10.0282  -15.1907 C   0  0  0  0  0  0  0  0  0  0  0  0
   22.0862   -9.2620  -13.9699 C   0  0  0  0  0  0  0  0  0  0  0  0
   21.5383   -7.8713  -14.3180 C   0  0  0  0  0  0  0  0  0  0  0  0
   21.8210   -7.8104  -15.7811 C   0  0  1  0  0  0  0  0  0  0  0  0
   23.0174   -6.9732  -16.0006 C   0  0  0  0  0  0  0  0  0  0  0  0
   24.0941   -7.5409  -16.2901 O   0  0  0  0  0  0  0  0  0  0  0  0
   22.9887   -5.5978  -15.8981 O   0  0  0  0  0  0  0  0  0  0  0  0
  2  3  1  0
  2  1  1  1
  4  5  2  0
  4  2  1  0
  6  4  1  0
  7  6  1  0
  7 14  1  0
  7  8  1  6
  9  8  1  0
 10  9  2  0
 11 10  1  0
 12 11  1  0
 12 13  2  0
 13  9  1  0
 14 16  1  0
 15 14  2  0
 16 17  1  0
 16 20  1  0
 17 18  1  0
 19 18  1  0
 20 19  1  0
 20 21  1  1
 21 22  2  0
 21 23  1  0
M  END
$$$$
