QVM.pdb
     RDKit          3D

 25 24  0  0  1  0  0  0  0  0999 V2000
   28.9038  -22.4139  -15.5618 N   0  0  0  0  0  0  0  0  0  0  0  0
   29.0681  -21.3514  -16.4854 C   0  0  0  0  0  0  0  0  0  0  0  0
   28.9836  -21.5728  -17.7433 O   0  0  0  0  0  0  0  0  0  0  0  0
   29.3310  -19.9739  -16.0402 C   0  0  0  0  0  0  0  0  0  0  0  0
   28.5283  -19.5135  -14.8873 C   0  0  0  0  0  0  0  0  0  0  0  0
   27.0679  -19.4874  -15.0717 C   0  0  2  0  0  0  0  0  0  0  0  0
   26.7939  -18.3722  -16.0167 N   0  0  0  0  0  0  0  0  0  0  0  0
   26.2314  -19.3433  -13.8818 C   0  0  0  0  0  0  0  0  0  0  0  0
   26.0946  -18.2033  -13.3622 O   0  0  0  0  0  0  0  0  0  0  0  0
   22.5114  -20.4873  -10.9705 C   0  0  0  0  0  0  0  0  0  0  0  0
   23.3422  -20.7681  -12.2176 C   0  0  1  0  0  0  0  0  0  0  0  0
   22.6230  -20.2692  -13.4569 C   0  0  0  0  0  0  0  0  0  0  0  0
   24.7276  -20.1626  -12.1084 C   0  0  2  0  0  0  0  0  0  0  0  0
   25.5520  -20.4325  -13.2610 N   0  0  0  0  0  0  0  0  0  0  0  0
   25.3622  -20.8123  -10.9240 C   0  0  0  0  0  0  0  0  0  0  0  0
   25.4756  -22.0566  -10.9444 O   0  0  0  0  0  0  0  0  0  0  0  0
   28.9007  -19.6366   -3.7845 C   0  0  0  0  0  0  0  0  0  0  0  0
   28.1843  -19.0104   -5.2941 S   0  0  0  0  0  0  0  0  0  0  0  0
   27.3840  -20.2028   -6.3434 C   0  0  0  0  0  0  0  0  0  0  0  0
   26.9818  -19.7119   -7.6934 C   0  0  0  0  0  0  0  0  0  0  0  0
   26.3083  -20.6979   -8.5840 C   0  0  2  0  0  0  0  0  0  0  0  0
   25.8245  -20.0568   -9.8135 N   0  0  0  0  0  0  0  0  0  0  0  0
   25.0689  -21.2401   -7.9302 C   0  0  0  0  0  0  0  0  0  0  0  0
   25.1145  -22.4104   -7.1707 O   0  0  0  0  0  0  0  0  0  0  0  0
   23.9485  -20.6725   -8.0359 O   0  0  0  0  0  0  0  0  0  0  0  0
  1  2  1  0
  2  3  2  0
  4  5  1  0
  4  2  1  0
  5  6  1  0
  6  8  1  0
  6  7  1  6
  8  9  2  0
 11 10  1  1
 11 12  1  0
 11 13  1  0
 13 14  1  6
 14  8  1  0
 15 13  1  0
 15 16  2  0
 17 18  1  0
 19 20  1  0
 19 18  1  0
 21 20  1  1
 21 22  1  0
 21 23  1  0
 22 15  1  0
 23 25  2  0
 23 24  1  0
M  END
$$$$
