QVM.pdb
     RDKit          3D

 25 24  0  0  1  0  0  0  0  0999 V2000
   21.8500  -18.4044  -12.3321 N   0  0  0  0  0  0  0  0  0  0  0  0
   20.8087  -19.1553  -12.9329 C   0  0  0  0  0  0  0  0  0  0  0  0
   19.8707  -18.5608  -13.5694 O   0  0  0  0  0  0  0  0  0  0  0  0
   20.7709  -20.6240  -12.8552 C   0  0  0  0  0  0  0  0  0  0  0  0
   21.8894  -21.2515  -12.1197 C   0  0  0  0  0  0  0  0  0  0  0  0
   23.1924  -21.2799  -12.8044 C   0  0  2  0  0  0  0  0  0  0  0  0
   23.0642  -22.2904  -13.8880 N   0  0  0  0  0  0  0  0  0  0  0  0
   24.3801  -21.5647  -12.0014 C   0  0  0  0  0  0  0  0  0  0  0  0
   24.5803  -22.7418  -11.5979 O   0  0  0  0  0  0  0  0  0  0  0  0
   28.9831  -20.8476  -10.5811 C   0  0  0  0  0  0  0  0  0  0  0  0
   27.8034  -20.5685  -11.5055 C   0  0  1  0  0  0  0  0  0  0  0  0
   28.0039  -21.2564  -12.8430 C   0  0  0  0  0  0  0  0  0  0  0  0
   26.4910  -20.9818  -10.8694 C   0  0  2  0  0  0  0  0  0  0  0  0
   25.3403  -20.5751  -11.6384 N   0  0  0  0  0  0  0  0  0  0  0  0
   26.4391  -20.2796   -9.5534 C   0  0  0  0  0  0  0  0  0  0  0  0
   26.0889  -19.0800   -9.5567 O   0  0  0  0  0  0  0  0  0  0  0  0
   27.6269  -20.1753   -1.7617 C   0  0  0  0  0  0  0  0  0  0  0  0
   27.3247  -21.1097   -3.2516 S   0  0  0  0  0  0  0  0  0  0  0  0
   27.9517  -20.4126   -4.7630 C   0  0  0  0  0  0  0  0  0  0  0  0
   27.5108  -21.0853   -6.0192 C   0  0  0  0  0  0  0  0  0  0  0  0
   26.9432  -20.2053   -7.0787 C   0  0  2  0  0  0  0  0  0  0  0  0
   26.7698  -20.9386   -8.3392 N   0  0  0  0  0  0  0  0  0  0  0  0
   27.9021  -19.0990   -7.4163 C   0  0  0  0  0  0  0  0  0  0  0  0
   27.7674  -17.8350   -6.8396 O   0  0  0  0  0  0  0  0  0  0  0  0
   28.8569  -19.2584   -8.2235 O   0  0  0  0  0  0  0  0  0  0  0  0
  1  2  1  0
  2  3  2  0
  4  5  1  0
  4  2  1  0
  5  6  1  0
  6  8  1  0
  6  7  1  6
  8  9  2  0
 11 10  1  1
 11 12  1  0
 11 13  1  0
 13 14  1  6
 14  8  1  0
 15 13  1  0
 15 16  2  0
 17 18  1  0
 19 20  1  0
 19 18  1  0
 21 20  1  1
 21 22  1  0
 21 23  1  0
 22 15  1  0
 23 25  2  0
 23 24  1  0
M  END
$$$$
