QVM.pdb
     RDKit          3D

 25 24  0  0  1  0  0  0  0  0999 V2000
   26.3028  -14.1600  -19.6616 N   0  0  0  0  0  0  0  0  0  0  0  0
   25.5267  -15.3454  -19.6233 C   0  0  0  0  0  0  0  0  0  0  0  0
   26.0846  -16.4860  -19.7856 O   0  0  0  0  0  0  0  0  0  0  0  0
   24.0740  -15.3110  -19.3920 C   0  0  0  0  0  0  0  0  0  0  0  0
   23.5108  -13.9808  -19.0778 C   0  0  0  0  0  0  0  0  0  0  0  0
   22.1803  -13.6826  -19.6331 C   0  0  2  0  0  0  0  0  0  0  0  0
   22.2791  -13.9393  -21.0946 N   0  0  0  0  0  0  0  0  0  0  0  0
   21.6265  -12.3498  -19.4019 C   0  0  0  0  0  0  0  0  0  0  0  0
   21.9949  -11.3959  -20.1386 O   0  0  0  0  0  0  0  0  0  0  0  0
   18.3064   -9.1586  -17.7264 C   0  0  0  0  0  0  0  0  0  0  0  0
   18.7276  -10.5853  -18.0604 C   0  0  1  0  0  0  0  0  0  0  0  0
   18.0068  -11.0735  -19.3030 C   0  0  0  0  0  0  0  0  0  0  0  0
   20.2308  -10.6960  -18.2211 C   0  0  2  0  0  0  0  0  0  0  0  0
   20.6814  -12.0577  -18.3749 N   0  0  0  0  0  0  0  0  0  0  0  0
   20.8148  -10.1559  -16.9582 C   0  0  0  0  0  0  0  0  0  0  0  0
   20.9349  -10.9462  -15.9977 O   0  0  0  0  0  0  0  0  0  0  0  0
   26.0037  -11.3953  -15.1892 C   0  0  0  0  0  0  0  0  0  0  0  0
   26.1167   -9.6158  -15.2593 S   0  0  0  0  0  0  0  0  0  0  0  0
   24.5933   -8.7186  -15.0651 C   0  0  0  0  0  0  0  0  0  0  0  0
   23.5028   -9.0789  -16.0169 C   0  0  0  0  0  0  0  0  0  0  0  0
   22.2059   -8.3678  -15.8395 C   0  0  2  0  0  0  0  0  0  0  0  0
   21.2235   -8.8004  -16.8417 N   0  0  0  0  0  0  0  0  0  0  0  0
   22.3725   -6.8954  -16.0877 C   0  0  0  0  0  0  0  0  0  0  0  0
   22.7194   -6.0297  -15.0490 O   0  0  0  0  0  0  0  0  0  0  0  0
   22.2089   -6.3818  -17.2270 O   0  0  0  0  0  0  0  0  0  0  0  0
  1  2  1  0
  2  3  2  0
  4  5  1  0
  4  2  1  0
  5  6  1  0
  6  8  1  0
  6  7  1  6
  8  9  2  0
 11 10  1  6
 11 12  1  0
 11 13  1  0
 13 14  1  1
 14  8  1  0
 15 13  1  0
 15 16  2  0
 17 18  1  0
 19 20  1  0
 19 18  1  0
 21 20  1  6
 21 22  1  0
 21 23  1  0
 22 15  1  0
 23 25  2  0
 23 24  1  0
M  END
$$$$
