QVM.pdb
     RDKit          3D

 25 24  0  0  1  0  0  0  0  0999 V2000
   20.1064  -20.0600  -11.8964 N   0  0  0  0  0  0  0  0  0  0  0  0
   20.4453  -20.2780  -13.2553 C   0  0  0  0  0  0  0  0  0  0  0  0
   20.6322  -19.2841  -14.0398 O   0  0  0  0  0  0  0  0  0  0  0  0
   20.5997  -21.6339  -13.8054 C   0  0  0  0  0  0  0  0  0  0  0  0
   21.8098  -22.3633  -13.3704 C   0  0  0  0  0  0  0  0  0  0  0  0
   23.0882  -21.9211  -13.9515 C   0  0  2  0  0  0  0  0  0  0  0  0
   23.2839  -22.7362  -15.1799 N   0  0  0  0  0  0  0  0  0  0  0  0
   24.2827  -21.9973  -13.1126 C   0  0  0  0  0  0  0  0  0  0  0  0
   24.7444  -23.1285  -12.8035 O   0  0  0  0  0  0  0  0  0  0  0  0
   28.5714  -20.4389  -11.4598 C   0  0  0  0  0  0  0  0  0  0  0  0
   27.3510  -20.2707  -12.3580 C   0  0  1  0  0  0  0  0  0  0  0  0
   27.6815  -20.6752  -13.7824 C   0  0  0  0  0  0  0  0  0  0  0  0
   26.1628  -21.0499  -11.8300 C   0  0  2  0  0  0  0  0  0  0  0  0
   24.9670  -20.8509  -12.6119 N   0  0  0  0  0  0  0  0  0  0  0  0
   25.9099  -20.5231  -10.4565 C   0  0  0  0  0  0  0  0  0  0  0  0
   25.0995  -19.5785  -10.3447 O   0  0  0  0  0  0  0  0  0  0  0  0
   29.7791  -21.9301   -4.5329 C   0  0  0  0  0  0  0  0  0  0  0  0
   28.8777  -20.4239   -4.8543 S   0  0  0  0  0  0  0  0  0  0  0  0
   27.2745  -20.6063   -5.6024 C   0  0  0  0  0  0  0  0  0  0  0  0
   27.2634  -21.1735   -6.9819 C   0  0  0  0  0  0  0  0  0  0  0  0
   26.4062  -20.4744   -7.9797 C   0  0  2  0  0  0  0  0  0  0  0  0
   26.5567  -21.0672   -9.3148 N   0  0  0  0  0  0  0  0  0  0  0  0
   26.8487  -19.0486   -8.1495 C   0  0  0  0  0  0  0  0  0  0  0  0
   26.2494  -18.0218   -7.4181 O   0  0  0  0  0  0  0  0  0  0  0  0
   27.7666  -18.7190   -8.9478 O   0  0  0  0  0  0  0  0  0  0  0  0
  1  2  1  0
  2  3  2  0
  4  5  1  0
  4  2  1  0
  5  6  1  0
  6  8  1  0
  6  7  1  6
  8  9  2  0
 11 10  1  1
 11 12  1  0
 11 13  1  0
 13 14  1  6
 14  8  1  0
 15 13  1  0
 15 16  2  0
 17 18  1  0
 19 20  1  0
 19 18  1  0
 21 20  1  1
 21 22  1  0
 21 23  1  0
 22 15  1  0
 23 25  2  0
 23 24  1  0
M  END
$$$$
