QVM.pdb
     RDKit          3D

 25 24  0  0  1  0  0  0  0  0999 V2000
   17.4522  -18.6523  -13.2486 N   0  0  0  0  0  0  0  0  0  0  0  0
   18.1703  -17.4553  -13.0027 C   0  0  0  0  0  0  0  0  0  0  0  0
   17.6372  -16.3202  -13.2595 O   0  0  0  0  0  0  0  0  0  0  0  0
   19.5317  -17.4713  -12.4448 C   0  0  0  0  0  0  0  0  0  0  0  0
   20.0541  -18.8051  -12.0791 C   0  0  0  0  0  0  0  0  0  0  0  0
   20.8400  -19.5075  -13.1069 C   0  0  2  0  0  0  0  0  0  0  0  0
   19.8652  -20.3144  -13.8881 N   0  0  0  0  0  0  0  0  0  0  0  0
   21.9414  -20.3590  -12.6614 C   0  0  0  0  0  0  0  0  0  0  0  0
   21.6896  -21.3594  -11.9373 O   0  0  0  0  0  0  0  0  0  0  0  0
   26.1343  -22.6238  -13.4186 C   0  0  0  0  0  0  0  0  0  0  0  0
   24.9386  -21.7727  -13.8313 C   0  0  1  0  0  0  0  0  0  0  0  0
   23.9361  -22.6074  -14.6060 C   0  0  0  0  0  0  0  0  0  0  0  0
   24.2888  -21.1114  -12.6320 C   0  0  2  0  0  0  0  0  0  0  0  0
   23.3061  -20.1213  -12.9992 N   0  0  0  0  0  0  0  0  0  0  0  0
   25.3921  -20.4194  -11.9029 C   0  0  0  0  0  0  0  0  0  0  0  0
   25.8712  -19.3920  -12.4288 O   0  0  0  0  0  0  0  0  0  0  0  0
   26.9685  -19.4768   -5.7058 C   0  0  0  0  0  0  0  0  0  0  0  0
   28.5465  -19.5697   -6.5337 S   0  0  0  0  0  0  0  0  0  0  0  0
   28.6040  -20.5470   -8.0186 C   0  0  0  0  0  0  0  0  0  0  0  0
   27.2883  -20.8214   -8.6655 C   0  0  0  0  0  0  0  0  0  0  0  0
   27.1618  -20.4389  -10.0997 C   0  0  2  0  0  0  0  0  0  0  0  0
   25.8843  -20.8986  -10.6595 N   0  0  0  0  0  0  0  0  0  0  0  0
   28.2062  -21.1344  -10.9260 C   0  0  0  0  0  0  0  0  0  0  0  0
   29.2005  -20.4067  -11.5821 O   0  0  0  0  0  0  0  0  0  0  0  0
   28.2322  -22.3870  -11.0633 O   0  0  0  0  0  0  0  0  0  0  0  0
  1  2  1  0
  2  3  2  0
  4  5  1  0
  4  2  1  0
  5  6  1  0
  6  8  1  0
  6  7  1  1
  8  9  2  0
 11 10  1  1
 11 12  1  0
 11 13  1  0
 13 14  1  6
 14  8  1  0
 15 13  1  0
 15 16  2  0
 17 18  1  0
 19 20  1  0
 19 18  1  0
 21 20  1  1
 21 22  1  0
 21 23  1  0
 22 15  1  0
 23 25  2  0
 23 24  1  0
M  END
$$$$
