QVM.pdb
     RDKit          3D

 25 24  0  0  1  0  0  0  0  0999 V2000
   24.6492  -24.2320  -16.8636 N   0  0  0  0  0  0  0  0  0  0  0  0
   24.9999  -22.9221  -16.4514 C   0  0  0  0  0  0  0  0  0  0  0  0
   24.1008  -22.1214  -16.0165 O   0  0  0  0  0  0  0  0  0  0  0  0
   26.3900  -22.4426  -16.5001 C   0  0  0  0  0  0  0  0  0  0  0  0
   27.3927  -23.4399  -16.9312 C   0  0  0  0  0  0  0  0  0  0  0  0
   28.8006  -23.0106  -16.9033 C   0  0  2  0  0  0  0  0  0  0  0  0
   28.9231  -21.9399  -17.9282 N   0  0  0  0  0  0  0  0  0  0  0  0
   29.8289  -24.0258  -17.1242 C   0  0  0  0  0  0  0  0  0  0  0  0
   30.3467  -24.1361  -18.2679 O   0  0  0  0  0  0  0  0  0  0  0  0
   33.4999  -26.9336  -15.7938 C   0  0  0  0  0  0  0  0  0  0  0  0
   32.4543  -25.8833  -15.4363 C   0  0  1  0  0  0  0  0  0  0  0  0
   33.0978  -24.5147  -15.3149 C   0  0  0  0  0  0  0  0  0  0  0  0
   31.3194  -25.8668  -16.4411 C   0  0  2  0  0  0  0  0  0  0  0  0
   30.2872  -24.9154  -16.1085 N   0  0  0  0  0  0  0  0  0  0  0  0
   30.7198  -27.2329  -16.3986 C   0  0  0  0  0  0  0  0  0  0  0  0
   30.1009  -27.5558  -15.3621 O   0  0  0  0  0  0  0  0  0  0  0  0
   25.1250  -31.7624  -17.9383 C   0  0  0  0  0  0  0  0  0  0  0  0
   26.1095  -30.2841  -17.7665 S   0  0  0  0  0  0  0  0  0  0  0  0
   27.8694  -30.5148  -17.6537 C   0  0  0  0  0  0  0  0  0  0  0  0
   28.6783  -29.2703  -17.5059 C   0  0  0  0  0  0  0  0  0  0  0  0
   30.1584  -29.4387  -17.4955 C   0  0  2  0  0  0  0  0  0  0  0  0
   30.8393  -28.1375  -17.4873 N   0  0  0  0  0  0  0  0  0  0  0  0
   30.6240  -30.0985  -18.7625 C   0  0  0  0  0  0  0  0  0  0  0  0
   31.3730  -29.3907  -19.7040 O   0  0  0  0  0  0  0  0  0  0  0  0
   30.3634  -31.3023  -19.0299 O   0  0  0  0  0  0  0  0  0  0  0  0
  1  2  1  0
  2  3  2  0
  4  5  1  0
  4  2  1  0
  5  6  1  0
  6  8  1  0
  6  7  1  6
  8  9  2  0
 11 10  1  6
 11 12  1  0
 11 13  1  0
 13 14  1  1
 14  8  1  0
 15 13  1  0
 15 16  2  0
 17 18  1  0
 19 20  1  0
 19 18  1  0
 21 20  1  6
 21 22  1  0
 21 23  1  0
 22 15  1  0
 23 25  2  0
 23 24  1  0
M  END
$$$$
