QVM.pdb
     RDKit          3D

 25 24  0  0  1  0  0  0  0  0999 V2000
   28.3204  -17.9141  -15.5541 N   0  0  0  0  0  0  0  0  0  0  0  0
   28.6658  -18.3796  -16.8475 C   0  0  0  0  0  0  0  0  0  0  0  0
   29.6155  -17.8222  -17.5002 O   0  0  0  0  0  0  0  0  0  0  0  0
   27.9618  -19.5081  -17.4764 C   0  0  0  0  0  0  0  0  0  0  0  0
   26.9284  -20.1581  -16.6426 C   0  0  0  0  0  0  0  0  0  0  0  0
   27.4065  -20.9076  -15.4691 C   0  0  2  0  0  0  0  0  0  0  0  0
   28.0460  -22.1398  -16.0025 N   0  0  0  0  0  0  0  0  0  0  0  0
   26.4301  -21.2632  -14.4412 C   0  0  0  0  0  0  0  0  0  0  0  0
   25.7504  -22.3156  -14.5782 O   0  0  0  0  0  0  0  0  0  0  0  0
   24.3317  -20.7300   -9.9718 C   0  0  0  0  0  0  0  0  0  0  0  0
   25.4798  -20.3904  -10.9156 C   0  0  1  0  0  0  0  0  0  0  0  0
   26.7984  -20.8741  -10.3417 C   0  0  0  0  0  0  0  0  0  0  0  0
   25.2450  -20.9590  -12.3010 C   0  0  2  0  0  0  0  0  0  0  0  0
   26.1937  -20.4773  -13.2751 N   0  0  0  0  0  0  0  0  0  0  0  0
   23.8874  -20.4905  -12.7072 C   0  0  0  0  0  0  0  0  0  0  0  0
   23.7255  -19.2602  -12.8550 O   0  0  0  0  0  0  0  0  0  0  0  0
   17.1167  -22.3943  -16.4712 C   0  0  0  0  0  0  0  0  0  0  0  0
   18.7140  -22.8184  -15.7980 S   0  0  0  0  0  0  0  0  0  0  0  0
   19.4740  -21.6060  -14.7417 C   0  0  0  0  0  0  0  0  0  0  0  0
   20.8252  -21.9586  -14.2175 C   0  0  0  0  0  0  0  0  0  0  0  0
   21.4866  -20.9428  -13.3516 C   0  0  2  0  0  0  0  0  0  0  0  0
   22.8154  -21.3974  -12.9223 N   0  0  0  0  0  0  0  0  0  0  0  0
   20.7204  -20.7599  -12.0721 C   0  0  0  0  0  0  0  0  0  0  0  0
   19.8598  -19.6741  -11.9027 O   0  0  0  0  0  0  0  0  0  0  0  0
   20.8182  -21.5655  -11.1077 O   0  0  0  0  0  0  0  0  0  0  0  0
  1  2  1  0
  2  3  2  0
  4  5  1  0
  4  2  1  0
  5  6  1  0
  6  8  1  0
  6  7  1  6
  8  9  2  0
 11 10  1  1
 11 12  1  0
 11 13  1  0
 13 14  1  6
 14  8  1  0
 15 13  1  0
 15 16  2  0
 17 18  1  0
 19 20  1  0
 19 18  1  0
 21 20  1  6
 21 22  1  0
 21 23  1  0
 22 15  1  0
 23 25  2  0
 23 24  1  0
M  END
$$$$
