QVM.pdb
     RDKit          3D

 25 24  0  0  1  0  0  0  0  0999 V2000
   18.6494  -20.5658  -12.7255 N   0  0  0  0  0  0  0  0  0  0  0  0
   19.5411  -19.6395  -13.3220 C   0  0  0  0  0  0  0  0  0  0  0  0
   19.4678  -19.3908  -14.5755 O   0  0  0  0  0  0  0  0  0  0  0  0
   20.5642  -18.9344  -12.5342 C   0  0  0  0  0  0  0  0  0  0  0  0
   21.4385  -19.7957  -11.7099 C   0  0  0  0  0  0  0  0  0  0  0  0
   22.6407  -20.3333  -12.3681 C   0  0  2  0  0  0  0  0  0  0  0  0
   22.1747  -21.4669  -13.2103 N   0  0  0  0  0  0  0  0  0  0  0  0
   23.7467  -20.7710  -11.5186 C   0  0  0  0  0  0  0  0  0  0  0  0
   23.5971  -21.7909  -10.7934 O   0  0  0  0  0  0  0  0  0  0  0  0
   28.5117  -21.3572  -10.6828 C   0  0  0  0  0  0  0  0  0  0  0  0
   27.3631  -20.8196  -11.5290 C   0  0  1  0  0  0  0  0  0  0  0  0
   27.1717  -21.6749  -12.7674 C   0  0  0  0  0  0  0  0  0  0  0  0
   26.0807  -20.7248  -10.7263 C   0  0  2  0  0  0  0  0  0  0  0  0
   25.0042  -20.1017  -11.4571 N   0  0  0  0  0  0  0  0  0  0  0  0
   26.4007  -19.8628   -9.5505 C   0  0  0  0  0  0  0  0  0  0  0  0
   26.3415  -18.6252   -9.7135 O   0  0  0  0  0  0  0  0  0  0  0  0
   25.8525  -21.3695   -2.9603 C   0  0  0  0  0  0  0  0  0  0  0  0
   27.3727  -20.4489   -3.1213 S   0  0  0  0  0  0  0  0  0  0  0  0
   27.6324  -19.6164   -4.6714 C   0  0  0  0  0  0  0  0  0  0  0  0
   27.1355  -20.3313   -5.8825 C   0  0  0  0  0  0  0  0  0  0  0  0
   27.1807  -19.5743   -7.1647 C   0  0  2  0  0  0  0  0  0  0  0  0
   26.7570  -20.4156   -8.2915 N   0  0  0  0  0  0  0  0  0  0  0  0
   28.5927  -19.1833   -7.4978 C   0  0  0  0  0  0  0  0  0  0  0  0
   29.1112  -17.9551   -7.0841 O   0  0  0  0  0  0  0  0  0  0  0  0
   29.3618  -19.9340   -8.1562 O   0  0  0  0  0  0  0  0  0  0  0  0
  1  2  1  0
  2  3  2  0
  4  5  1  0
  4  2  1  0
  5  6  1  0
  6  8  1  0
  6  7  1  1
  8  9  2  0
 11 10  1  1
 11 12  1  0
 11 13  1  0
 13 14  1  6
 14  8  1  0
 15 13  1  0
 15 16  2  0
 17 18  1  0
 19 20  1  0
 19 18  1  0
 21 20  1  1
 21 22  1  0
 21 23  1  0
 22 15  1  0
 23 25  2  0
 23 24  1  0
M  END
$$$$
