QVM.pdb
     RDKit          3D

 25 24  0  0  1  0  0  0  0  0999 V2000
   25.8867  -23.7911  -14.7382 N   0  0  0  0  0  0  0  0  0  0  0  0
   26.3796  -24.0533  -16.0410 C   0  0  0  0  0  0  0  0  0  0  0  0
   25.8998  -25.0207  -16.7284 O   0  0  0  0  0  0  0  0  0  0  0  0
   27.4399  -23.2321  -16.6460 C   0  0  0  0  0  0  0  0  0  0  0  0
   27.1310  -22.6761  -17.9806 C   0  0  0  0  0  0  0  0  0  0  0  0
   26.9894  -21.2133  -18.0664 C   0  0  2  0  0  0  0  0  0  0  0  0
   28.3701  -20.6636  -18.0082 N   0  0  0  0  0  0  0  0  0  0  0  0
   26.1507  -20.5484  -17.0709 C   0  0  0  0  0  0  0  0  0  0  0  0
   26.6965  -19.8381  -16.1844 O   0  0  0  0  0  0  0  0  0  0  0  0
   21.7957  -18.6994  -15.6330 C   0  0  0  0  0  0  0  0  0  0  0  0
   22.6608  -19.3584  -16.7015 C   0  0  1  0  0  0  0  0  0  0  0  0
   22.8552  -18.4210  -17.8785 C   0  0  0  0  0  0  0  0  0  0  0  0
   23.9929  -19.8092  -16.1356 C   0  0  2  0  0  0  0  0  0  0  0  0
   24.7295  -20.6588  -17.0393 N   0  0  0  0  0  0  0  0  0  0  0  0
   23.6672  -20.6047  -14.9154 C   0  0  0  0  0  0  0  0  0  0  0  0
   23.1308  -21.7206  -15.0844 O   0  0  0  0  0  0  0  0  0  0  0  0
   26.6750  -19.5930   -9.0245 C   0  0  0  0  0  0  0  0  0  0  0  0
   25.3052  -20.6588   -8.6098 S   0  0  0  0  0  0  0  0  0  0  0  0
   24.2600  -21.1636   -9.9574 C   0  0  0  0  0  0  0  0  0  0  0  0
   24.5048  -20.4786  -11.2596 C   0  0  0  0  0  0  0  0  0  0  0  0
   23.6642  -20.9178  -12.4083 C   0  0  2  0  0  0  0  0  0  0  0  0
   23.9529  -20.1239  -13.6097 N   0  0  0  0  0  0  0  0  0  0  0  0
   22.2107  -20.6603  -12.1281 C   0  0  0  0  0  0  0  0  0  0  0  0
   21.3575  -21.7024  -11.7612 O   0  0  0  0  0  0  0  0  0  0  0  0
   21.7025  -19.5098  -12.2105 O   0  0  0  0  0  0  0  0  0  0  0  0
  1  2  1  0
  2  3  2  0
  4  5  1  0
  4  2  1  0
  5  6  1  0
  6  8  1  0
  6  7  1  1
  8  9  2  0
 11 10  1  1
 11 12  1  0
 11 13  1  0
 13 14  1  6
 14  8  1  0
 15 13  1  0
 15 16  2  0
 17 18  1  0
 19 20  1  0
 19 18  1  0
 21 20  1  1
 21 22  1  0
 21 23  1  0
 22 15  1  0
 23 25  2  0
 23 24  1  0
M  END
$$$$
