QVM.pdb
     RDKit          3D

 25 24  0  0  1  0  0  0  0  0999 V2000
   27.3744  -19.6277  -19.0630 N   0  0  0  0  0  0  0  0  0  0  0  0
   27.2937  -18.4226  -18.3212 C   0  0  0  0  0  0  0  0  0  0  0  0
   27.8199  -17.3488  -18.7779 O   0  0  0  0  0  0  0  0  0  0  0  0
   26.6068  -18.3594  -17.0216 C   0  0  0  0  0  0  0  0  0  0  0  0
   26.0640  -19.6420  -16.5255 C   0  0  0  0  0  0  0  0  0  0  0  0
   26.6481  -20.1645  -15.2792 C   0  0  2  0  0  0  0  0  0  0  0  0
   27.6211  -21.2116  -15.6900 N   0  0  0  0  0  0  0  0  0  0  0  0
   25.7373  -20.7047  -14.2717 C   0  0  0  0  0  0  0  0  0  0  0  0
   25.0943  -21.7580  -14.5273 O   0  0  0  0  0  0  0  0  0  0  0  0
   23.9835  -21.0323   -9.6464 C   0  0  0  0  0  0  0  0  0  0  0  0
   24.9897  -20.4132  -10.6100 C   0  0  1  0  0  0  0  0  0  0  0  0
   26.4020  -20.8243  -10.2378 C   0  0  0  0  0  0  0  0  0  0  0  0
   24.6756  -20.7761  -12.0479 C   0  0  2  0  0  0  0  0  0  0  0  0
   25.5262  -20.1008  -12.9973 N   0  0  0  0  0  0  0  0  0  0  0  0
   23.2721  -20.3256  -12.2828 C   0  0  0  0  0  0  0  0  0  0  0  0
   23.0428  -19.0996  -12.2063 O   0  0  0  0  0  0  0  0  0  0  0  0
   19.1560  -20.9947  -17.2594 C   0  0  0  0  0  0  0  0  0  0  0  0
   18.1803  -21.4701  -15.8430 S   0  0  0  0  0  0  0  0  0  0  0  0
   18.8183  -21.0016  -14.2503 C   0  0  0  0  0  0  0  0  0  0  0  0
   20.2816  -21.2112  -14.0507 C   0  0  0  0  0  0  0  0  0  0  0  0
   20.8333  -20.8164  -12.7245 C   0  0  2  0  0  0  0  0  0  0  0  0
   22.2312  -21.2441  -12.5840 N   0  0  0  0  0  0  0  0  0  0  0  0
   20.1092  -21.5293  -11.6177 C   0  0  0  0  0  0  0  0  0  0  0  0
   19.0122  -20.9413  -10.9858 O   0  0  0  0  0  0  0  0  0  0  0  0
   20.4537  -22.6728  -11.2147 O   0  0  0  0  0  0  0  0  0  0  0  0
  1  2  1  0
  2  3  2  0
  4  5  1  0
  4  2  1  0
  5  6  1  0
  6  8  1  0
  6  7  1  6
  8  9  2  0
 11 10  1  1
 11 12  1  0
 11 13  1  0
 13 14  1  6
 14  8  1  0
 15 13  1  0
 15 16  2  0
 17 18  1  0
 19 20  1  0
 19 18  1  0
 21 20  1  6
 21 22  1  0
 21 23  1  0
 22 15  1  0
 23 25  2  0
 23 24  1  0
M  END
$$$$
