QCA.pdb
     RDKit          3D

 21 20  0  0  1  0  0  0  0  0999 V2000
    9.5259  -13.2908   17.9547 N   0  0  0  0  0  0  0  0  0  0  0  0
    8.2522  -13.9014   17.8545 C   0  0  0  0  0  0  0  0  0  0  0  0
    7.8528  -14.3499   16.7584 O   0  0  0  0  0  0  0  0  0  0  0  0
    7.3449  -14.0366   19.0248 C   0  0  0  0  0  0  0  0  0  0  0  0
    7.9628  -13.5286   20.2804 C   0  0  0  0  0  0  0  0  0  0  0  0
    8.1469  -14.6662   21.2630 C   0  0  2  0  0  0  0  0  0  0  0  0
    6.9264  -15.4157   21.4283 N   0  0  0  0  0  0  0  0  0  0  0  0
    8.6381  -14.2206   22.5783 C   0  0  0  0  0  0  0  0  0  0  0  0
    9.7325  -13.6127   22.6575 O   0  0  0  0  0  0  0  0  0  0  0  0
    7.8899  -14.4734   23.7403 N   0  0  0  0  0  0  0  0  0  0  0  0
    8.3545  -14.1680   25.0815 C   0  0  1  0  0  0  0  0  0  0  0  0
    7.2839  -13.3377   25.7549 C   0  0  0  0  0  0  0  0  0  0  0  0
    7.7721  -12.8756   27.4308 S   0  0  0  0  0  0  0  0  0  0  0  0
    8.6015  -15.4330   25.7901 C   0  0  0  0  0  0  0  0  0  0  0  0
    7.7037  -16.3030   25.8713 O   0  0  0  0  0  0  0  0  0  0  0  0
   11.3294  -17.5789   26.4213 C   0  0  0  0  0  0  0  0  0  0  0  0
   10.1150  -16.9368   27.0697 C   0  0  2  0  0  0  0  0  0  0  0  0
    9.8569  -15.6847   26.3899 N   0  0  0  0  0  0  0  0  0  0  0  0
   10.4129  -16.6865   28.4979 C   0  0  0  0  0  0  0  0  0  0  0  0
   10.4365  -15.5179   28.9355 O   0  0  0  0  0  0  0  0  0  0  0  0
   10.6679  -17.7307   29.3645 O   0  0  0  0  0  0  0  0  0  0  0  0
  2  1  1  0
  2  3  2  0
  4  5  1  0
  4  2  1  0
  6  8  1  0
  6  5  1  0
  6  7  1  1
  8 10  1  0
  9  8  2  0
 10 11  1  0
 11 14  1  0
 12 13  1  0
 11 12  1  1
 14 15  2  0
 14 18  1  0
 17 16  1  6
 17 19  1  0
 18 17  1  0
 19 21  1  0
 20 19  2  0
M  END
$$$$
