QCA.pdb
     RDKit          3D

 21 20  0  0  1  0  0  0  0  0999 V2000
    9.0552  -17.7837   18.6003 N   0  0  0  0  0  0  0  0  0  0  0  0
    8.4986  -16.5592   18.1576 C   0  0  0  0  0  0  0  0  0  0  0  0
    8.3242  -16.3507   16.9377 O   0  0  0  0  0  0  0  0  0  0  0  0
    8.1018  -15.4823   19.1031 C   0  0  0  0  0  0  0  0  0  0  0  0
    7.4116  -16.0157   20.3096 C   0  0  0  0  0  0  0  0  0  0  0  0
    7.0754  -14.8823   21.2561 C   0  0  2  0  0  0  0  0  0  0  0  0
    7.0374  -13.6182   20.5639 N   0  0  0  0  0  0  0  0  0  0  0  0
    7.9966  -14.7935   22.4023 C   0  0  0  0  0  0  0  0  0  0  0  0
    9.2100  -15.0695   22.2447 O   0  0  0  0  0  0  0  0  0  0  0  0
    7.5238  -14.4037   23.6666 N   0  0  0  0  0  0  0  0  0  0  0  0
    8.3716  -14.2628   24.8368 C   0  0  1  0  0  0  0  0  0  0  0  0
    7.6416  -13.3770   25.8224 C   0  0  0  0  0  0  0  0  0  0  0  0
    6.0094  -14.0420   26.2152 S   0  0  0  0  0  0  0  0  0  0  0  0
    8.6365  -15.6013   25.3860 C   0  0  0  0  0  0  0  0  0  0  0  0
    7.7631  -16.4976   25.3279 O   0  0  0  0  0  0  0  0  0  0  0  0
   11.4674  -17.6938   25.9040 C   0  0  0  0  0  0  0  0  0  0  0  0
   10.1586  -17.2170   26.5096 C   0  0  2  0  0  0  0  0  0  0  0  0
    9.8818  -15.8950   25.9879 N   0  0  0  0  0  0  0  0  0  0  0  0
   10.3062  -17.1607   27.9815 C   0  0  0  0  0  0  0  0  0  0  0  0
   10.1543  -16.0780   28.5834 O   0  0  0  0  0  0  0  0  0  0  0  0
   10.6118  -18.2937   28.7091 O   0  0  0  0  0  0  0  0  0  0  0  0
  2  1  1  0
  2  3  2  0
  4  5  1  0
  4  2  1  0
  6  8  1  0
  6  5  1  0
  6  7  1  6
  8 10  1  0
  9  8  2  0
 10 11  1  0
 11 14  1  0
 12 13  1  0
 11 12  1  1
 14 15  2  0
 14 18  1  0
 17 16  1  6
 17 19  1  0
 18 17  1  0
 19 21  1  0
 20 19  2  0
M  END
$$$$
