QCA.pdb
     RDKit          3D

 21 20  0  0  1  0  0  0  0  0999 V2000
   10.6690  -15.7038   12.4948 N   0  0  0  0  0  0  0  0  0  0  0  0
    9.4022  -16.3308   12.5802 C   0  0  0  0  0  0  0  0  0  0  0  0
    8.7420  -16.5610   11.5443 O   0  0  0  0  0  0  0  0  0  0  0  0
    8.8066  -16.7383   13.8802 C   0  0  0  0  0  0  0  0  0  0  0  0
    9.6870  -16.4058   15.0339 C   0  0  0  0  0  0  0  0  0  0  0  0
    9.0966  -16.9636   16.3122 C   0  0  2  0  0  0  0  0  0  0  0  0
    7.6600  -17.0514   16.2286 N   0  0  0  0  0  0  0  0  0  0  0  0
    9.4784  -16.1945   17.5093 C   0  0  0  0  0  0  0  0  0  0  0  0
   10.6898  -16.0874   17.8165 O   0  0  0  0  0  0  0  0  0  0  0  0
    8.4955  -15.5837   18.3060 N   0  0  0  0  0  0  0  0  0  0  0  0
    8.7873  -14.8377   19.5169 C   0  0  1  0  0  0  0  0  0  0  0  0
    7.6061  -13.9320   19.7880 C   0  0  0  0  0  0  0  0  0  0  0  0
    8.1062  -12.1972   19.8219 S   0  0  0  0  0  0  0  0  0  0  0  0
    9.0149  -15.7934   20.6114 C   0  0  0  0  0  0  0  0  0  0  0  0
    8.0562  -16.4203   21.1188 O   0  0  0  0  0  0  0  0  0  0  0  0
   11.3865  -18.0584   21.7818 C   0  0  0  0  0  0  0  0  0  0  0  0
   10.5413  -16.8845   22.2452 C   0  0  2  0  0  0  0  0  0  0  0  0
   10.3201  -16.0179   21.1066 N   0  0  0  0  0  0  0  0  0  0  0  0
   11.2766  -16.1550   23.3027 C   0  0  0  0  0  0  0  0  0  0  0  0
   11.7413  -15.0202   23.0708 O   0  0  0  0  0  0  0  0  0  0  0  0
   11.4605  -16.7106   24.5533 O   0  0  0  0  0  0  0  0  0  0  0  0
  2  1  1  0
  2  3  2  0
  4  5  1  0
  4  2  1  0
  6  8  1  0
  6  5  1  0
  6  7  1  6
  8 10  1  0
  9  8  2  0
 10 11  1  0
 11 14  1  0
 12 13  1  0
 11 12  1  1
 14 15  2  0
 14 18  1  0
 17 16  1  6
 17 19  1  0
 18 17  1  0
 19 21  1  0
 20 19  2  0
M  END
$$$$
