QCA.pdb
     RDKit          3D

 21 20  0  0  1  0  0  0  0  0999 V2000
    7.3908  -17.8806   14.8237 N   0  0  0  0  0  0  0  0  0  0  0  0
    7.6813  -17.5518   16.1701 C   0  0  0  0  0  0  0  0  0  0  0  0
    7.0297  -18.0728   17.1007 O   0  0  0  0  0  0  0  0  0  0  0  0
    8.7543  -16.5898   16.5363 C   0  0  0  0  0  0  0  0  0  0  0  0
    8.5498  -15.2521   15.9156 C   0  0  0  0  0  0  0  0  0  0  0  0
    7.8395  -14.3340   16.8883 C   0  0  2  0  0  0  0  0  0  0  0  0
    7.5416  -13.0607   16.2813 N   0  0  0  0  0  0  0  0  0  0  0  0
    8.5894  -14.1248   18.1388 C   0  0  0  0  0  0  0  0  0  0  0  0
    9.6061  -13.3902   18.1361 O   0  0  0  0  0  0  0  0  0  0  0  0
    8.1734  -14.7431   19.3299 N   0  0  0  0  0  0  0  0  0  0  0  0
    8.8282  -14.5490   20.6111 C   0  0  1  0  0  0  0  0  0  0  0  0
    7.7884  -14.0267   21.5781 C   0  0  0  0  0  0  0  0  0  0  0  0
    6.4155  -15.1868   21.7517 S   0  0  0  0  0  0  0  0  0  0  0  0
    9.3931  -15.8351   21.0470 C   0  0  0  0  0  0  0  0  0  0  0  0
    8.9298  -16.9144   20.6111 O   0  0  0  0  0  0  0  0  0  0  0  0
   12.4637  -17.2024   22.0021 C   0  0  0  0  0  0  0  0  0  0  0  0
   11.0065  -17.1338   22.4254 C   0  0  2  0  0  0  0  0  0  0  0  0
   10.4679  -15.8711   21.9650 N   0  0  0  0  0  0  0  0  0  0  0  0
   10.9345  -17.2077   23.9021 C   0  0  0  0  0  0  0  0  0  0  0  0
   11.5477  -16.3743   24.5997 O   0  0  0  0  0  0  0  0  0  0  0  0
   10.1947  -18.1904   24.5294 O   0  0  0  0  0  0  0  0  0  0  0  0
  2  1  1  0
  2  3  2  0
  4  5  1  0
  4  2  1  0
  6  8  1  0
  6  5  1  0
  6  7  1  6
  8 10  1  0
  9  8  2  0
 10 11  1  0
 11 14  1  0
 12 13  1  0
 11 12  1  1
 14 15  2  0
 14 18  1  0
 17 16  1  1
 17 19  1  0
 18 17  1  0
 19 21  1  0
 20 19  2  0
M  END
$$$$
