QCA.pdb
     RDKit          3D

 21 20  0  0  1  0  0  0  0  0999 V2000
   10.2871  -19.6117   22.0489 N   0  0  0  0  0  0  0  0  0  0  0  0
    9.4622  -19.2840   20.9455 C   0  0  0  0  0  0  0  0  0  0  0  0
    9.1910  -20.1470   20.0831 O   0  0  0  0  0  0  0  0  0  0  0  0
    8.8891  -17.9243   20.7618 C   0  0  0  0  0  0  0  0  0  0  0  0
    9.2097  -17.0178   21.8985 C   0  0  0  0  0  0  0  0  0  0  0  0
    8.4808  -15.7009   21.7309 C   0  0  2  0  0  0  0  0  0  0  0  0
    8.8629  -15.0453   20.5050 N   0  0  0  0  0  0  0  0  0  0  0  0
    8.6760  -14.7833   22.8667 C   0  0  0  0  0  0  0  0  0  0  0  0
    9.7437  -14.1315   22.9602 O   0  0  0  0  0  0  0  0  0  0  0  0
    7.6761  -14.6363   23.8427 N   0  0  0  0  0  0  0  0  0  0  0  0
    7.8333  -13.8375   25.0449 C   0  0  1  0  0  0  0  0  0  0  0  0
    6.4494  -13.5596   25.5896 C   0  0  0  0  0  0  0  0  0  0  0  0
    6.5300  -12.6470   27.1456 S   0  0  0  0  0  0  0  0  0  0  0  0
    8.6636  -14.5877   25.9994 C   0  0  0  0  0  0  0  0  0  0  0  0
    8.6467  -15.8403   26.0105 O   0  0  0  0  0  0  0  0  0  0  0  0
   11.1146  -13.6276   28.6651 C   0  0  0  0  0  0  0  0  0  0  0  0
   10.4222  -14.6307   27.7586 C   0  0  2  0  0  0  0  0  0  0  0  0
    9.4930  -13.9046   26.9185 N   0  0  0  0  0  0  0  0  0  0  0  0
    9.6912  -15.6069   28.5975 C   0  0  0  0  0  0  0  0  0  0  0  0
    8.4458  -15.5642   28.6640 O   0  0  0  0  0  0  0  0  0  0  0  0
   10.3668  -16.5738   29.3153 O   0  0  0  0  0  0  0  0  0  0  0  0
  2  1  1  0
  2  3  2  0
  4  5  1  0
  4  2  1  0
  6  8  1  0
  6  5  1  0
  6  7  1  6
  8 10  1  0
  9  8  2  0
 10 11  1  0
 11 14  1  0
 12 13  1  0
 11 12  1  1
 14 15  2  0
 14 18  1  0
 17 16  1  1
 17 19  1  0
 18 17  1  0
 19 21  1  0
 20 19  2  0
M  END
$$$$
