QCA.pdb
     RDKit          3D

 21 20  0  0  1  0  0  0  0  0999 V2000
    2.5376  -20.3480   20.7138 N   0  0  0  0  0  0  0  0  0  0  0  0
    3.1592  -19.3779   21.5371 C   0  0  0  0  0  0  0  0  0  0  0  0
    2.9983  -19.4066   22.7762 O   0  0  0  0  0  0  0  0  0  0  0  0
    4.0168  -18.2987   20.9797 C   0  0  0  0  0  0  0  0  0  0  0  0
    5.4041  -18.3448   21.5178 C   0  0  0  0  0  0  0  0  0  0  0  0
    6.1910  -17.1497   21.0215 C   0  0  2  0  0  0  0  0  0  0  0  0
    6.6642  -17.3589   19.6758 N   0  0  0  0  0  0  0  0  0  0  0  0
    7.3226  -16.7984   21.8969 C   0  0  0  0  0  0  0  0  0  0  0  0
    8.4530  -17.2962   21.6781 O   0  0  0  0  0  0  0  0  0  0  0  0
    7.1419  -15.9127   22.9724 N   0  0  0  0  0  0  0  0  0  0  0  0
    8.1983  -15.5379   23.8952 C   0  0  1  0  0  0  0  0  0  0  0  0
    7.7409  -14.2964   24.6289 C   0  0  0  0  0  0  0  0  0  0  0  0
    7.6632  -12.8729   23.5206 S   0  0  0  0  0  0  0  0  0  0  0  0
    8.4412  -16.6637   24.8100 C   0  0  0  0  0  0  0  0  0  0  0  0
    7.5013  -17.1583   25.4744 O   0  0  0  0  0  0  0  0  0  0  0  0
   11.2708  -19.0105   25.3387 C   0  0  0  0  0  0  0  0  0  0  0  0
    9.9729  -18.3623   25.7888 C   0  0  2  0  0  0  0  0  0  0  0  0
    9.7402  -17.2037   24.9522 N   0  0  0  0  0  0  0  0  0  0  0  0
   10.1120  -17.9472   27.2028 C   0  0  0  0  0  0  0  0  0  0  0  0
   10.1137  -16.7352   27.5006 O   0  0  0  0  0  0  0  0  0  0  0  0
   10.2412  -18.8836   28.2092 O   0  0  0  0  0  0  0  0  0  0  0  0
  2  1  1  0
  2  3  2  0
  4  5  1  0
  4  2  1  0
  6  8  1  0
  6  5  1  0
  6  7  1  6
  8 10  1  0
  9  8  2  0
 10 11  1  0
 11 14  1  0
 12 13  1  0
 11 12  1  1
 14 15  2  0
 14 18  1  0
 17 16  1  6
 17 19  1  0
 18 17  1  0
 19 21  1  0
 20 19  2  0
M  END
$$$$
