QCA.pdb
     RDKit          3D

 21 20  0  0  1  0  0  0  0  0999 V2000
   13.3982  -18.0495   15.7636 N   0  0  0  0  0  0  0  0  0  0  0  0
   12.8476  -17.0221   16.5677 C   0  0  0  0  0  0  0  0  0  0  0  0
   13.5657  -16.4105   17.3877 O   0  0  0  0  0  0  0  0  0  0  0  0
   11.4168  -16.6278   16.4783 C   0  0  0  0  0  0  0  0  0  0  0  0
   10.6097  -17.1701   17.6057 C   0  0  0  0  0  0  0  0  0  0  0  0
    9.1560  -16.7818   17.4345 C   0  0  2  0  0  0  0  0  0  0  0  0
    8.9841  -15.8805   16.3224 N   0  0  0  0  0  0  0  0  0  0  0  0
    8.5686  -16.1898   18.6489 C   0  0  0  0  0  0  0  0  0  0  0  0
    8.5930  -14.9456   18.8058 O   0  0  0  0  0  0  0  0  0  0  0  0
    7.9845  -17.0096   19.6291 N   0  0  0  0  0  0  0  0  0  0  0  0
    7.3564  -16.5021   20.8358 C   0  0  1  0  0  0  0  0  0  0  0  0
    6.1980  -17.4181   21.1643 C   0  0  0  0  0  0  0  0  0  0  0  0
    6.7688  -19.0954   21.5128 S   0  0  0  0  0  0  0  0  0  0  0  0
    8.3613  -16.4734   21.9093 C   0  0  0  0  0  0  0  0  0  0  0  0
    9.3978  -17.1726   21.8300 O   0  0  0  0  0  0  0  0  0  0  0  0
    8.8653  -14.4508   25.0023 C   0  0  0  0  0  0  0  0  0  0  0  0
    9.1202  -15.6751   24.1401 C   0  0  2  0  0  0  0  0  0  0  0  0
    8.1710  -15.6554   23.0469 N   0  0  0  0  0  0  0  0  0  0  0  0
    8.9202  -16.8888   24.9636 C   0  0  0  0  0  0  0  0  0  0  0  0
    7.8864  -17.5741   24.8252 O   0  0  0  0  0  0  0  0  0  0  0  0
    9.8642  -17.2818   25.8915 O   0  0  0  0  0  0  0  0  0  0  0  0
  2  1  1  0
  2  3  2  0
  4  5  1  0
  4  2  1  0
  6  8  1  0
  6  5  1  0
  6  7  1  6
  8 10  1  0
  9  8  2  0
 10 11  1  0
 11 14  1  0
 12 13  1  0
 11 12  1  1
 14 15  2  0
 14 18  1  0
 17 16  1  1
 17 19  1  0
 18 17  1  0
 19 21  1  0
 20 19  2  0
M  END
$$$$
