QCA.pdb
     RDKit          3D

 21 20  0  0  1  0  0  0  0  0999 V2000
    8.9529  -13.4246   16.8516 N   0  0  0  0  0  0  0  0  0  0  0  0
    8.2200  -14.0365   17.8975 C   0  0  0  0  0  0  0  0  0  0  0  0
    8.1852  -15.2817   17.9978 O   0  0  0  0  0  0  0  0  0  0  0  0
    7.4707  -13.2438   18.9080 C   0  0  0  0  0  0  0  0  0  0  0  0
    8.2427  -13.0599   20.1676 C   0  0  0  0  0  0  0  0  0  0  0  0
    8.1278  -14.2995   21.0300 C   0  0  2  0  0  0  0  0  0  0  0  0
    6.7605  -14.7481   21.1193 N   0  0  0  0  0  0  0  0  0  0  0  0
    8.6795  -14.1156   22.3835 C   0  0  0  0  0  0  0  0  0  0  0  0
    9.8724  -13.7534   22.5223 O   0  0  0  0  0  0  0  0  0  0  0  0
    7.8791  -14.3443   23.5153 N   0  0  0  0  0  0  0  0  0  0  0  0
    8.3358  -14.1481   24.8795 C   0  0  1  0  0  0  0  0  0  0  0  0
    7.2898  -13.3209   25.5940 C   0  0  0  0  0  0  0  0  0  0  0  0
    7.7324  -13.0602   27.3251 S   0  0  0  0  0  0  0  0  0  0  0  0
    8.5210  -15.4665   25.5046 C   0  0  0  0  0  0  0  0  0  0  0  0
    7.5653  -16.2725   25.5858 O   0  0  0  0  0  0  0  0  0  0  0  0
   11.2265  -17.7579   25.9897 C   0  0  0  0  0  0  0  0  0  0  0  0
    9.9799  -17.1512   26.6104 C   0  0  2  0  0  0  0  0  0  0  0  0
    9.7815  -15.8427   26.0231 N   0  0  0  0  0  0  0  0  0  0  0  0
   10.1867  -17.0256   28.0708 C   0  0  0  0  0  0  0  0  0  0  0  0
   10.1975  -15.8979   28.6053 O   0  0  0  0  0  0  0  0  0  0  0  0
   10.3697  -18.1427   28.8615 O   0  0  0  0  0  0  0  0  0  0  0  0
  2  1  1  0
  2  3  2  0
  4  5  1  0
  4  2  1  0
  6  8  1  0
  6  5  1  0
  6  7  1  1
  8 10  1  0
  9  8  2  0
 10 11  1  0
 11 14  1  0
 12 13  1  0
 11 12  1  1
 14 15  2  0
 14 18  1  0
 17 16  1  6
 17 19  1  0
 18 17  1  0
 19 21  1  0
 20 19  2  0
M  END
$$$$
