QCA.pdb
     RDKit          3D

 21 20  0  0  1  0  0  0  0  0999 V2000
    7.1724  -23.3988   16.4743 N   0  0  0  0  0  0  0  0  0  0  0  0
    7.3060  -22.3032   17.3615 C   0  0  0  0  0  0  0  0  0  0  0  0
    6.7191  -22.3107   18.4649 O   0  0  0  0  0  0  0  0  0  0  0  0
    8.1343  -21.1134   17.0311 C   0  0  0  0  0  0  0  0  0  0  0  0
    8.0590  -20.0627   18.0832 C   0  0  0  0  0  0  0  0  0  0  0  0
    6.7173  -19.3631   18.0201 C   0  0  2  0  0  0  0  0  0  0  0  0
    6.4540  -18.8581   16.6956 N   0  0  0  0  0  0  0  0  0  0  0  0
    6.5867  -18.2731   19.0024 C   0  0  0  0  0  0  0  0  0  0  0  0
    7.0102  -17.1275   18.7166 O   0  0  0  0  0  0  0  0  0  0  0  0
    5.9932  -18.5102   20.2536 N   0  0  0  0  0  0  0  0  0  0  0  0
    5.8529  -17.4978   21.2848 C   0  0  1  0  0  0  0  0  0  0  0  0
    4.3741  -17.3260   21.5542 C   0  0  0  0  0  0  0  0  0  0  0  0
    3.5978  -18.9020   21.9715 S   0  0  0  0  0  0  0  0  0  0  0  0
    6.5853  -17.9432   22.4800 C   0  0  0  0  0  0  0  0  0  0  0  0
    6.8215  -19.1595   22.6654 O   0  0  0  0  0  0  0  0  0  0  0  0
    8.2147  -16.1953   25.3626 C   0  0  0  0  0  0  0  0  0  0  0  0
    7.7472  -17.4355   24.6205 C   0  0  2  0  0  0  0  0  0  0  0  0
    7.0332  -17.0038   23.4371 N   0  0  0  0  0  0  0  0  0  0  0  0
    6.8448  -18.2082   25.5036 C   0  0  0  0  0  0  0  0  0  0  0  0
    5.6077  -18.0878   25.3917 O   0  0  0  0  0  0  0  0  0  0  0  0
    7.3497  -19.0685   26.4584 O   0  0  0  0  0  0  0  0  0  0  0  0
  2  1  1  0
  2  3  2  0
  4  5  1  0
  4  2  1  0
  6  8  1  0
  6  5  1  0
  6  7  1  6
  8 10  1  0
  9  8  2  0
 10 11  1  0
 11 14  1  0
 12 13  1  0
 11 12  1  1
 14 15  2  0
 14 18  1  0
 17 16  1  1
 17 19  1  0
 18 17  1  0
 19 21  1  0
 20 19  2  0
M  END
$$$$
