RGI.pdb
     RDKit          3D

 24 23  0  0  1  0  0  0  0  0999 V2000
   19.1192  -24.7297  -15.7698 N   0  0  0  0  0  0  0  0  0  0  0  0
   18.1594  -23.9004  -16.3862 C   0  0  0  0  0  0  0  0  0  0  0  0
   17.0205  -24.3278  -16.8003 N   0  0  0  0  0  0  0  0  0  0  0  0
   18.4689  -22.5169  -16.5590 N   0  0  0  0  0  0  0  0  0  0  0  0
   19.7078  -21.9545  -16.0581 C   0  0  0  0  0  0  0  0  0  0  0  0
   19.7282  -22.0376  -14.5256 C   0  0  0  0  0  0  0  0  0  0  0  0
   20.1228  -20.6989  -14.0169 C   0  0  0  0  0  0  0  0  0  0  0  0
   21.6064  -20.5277  -13.9971 C   0  0  2  0  0  0  0  0  0  0  0  0
   22.2651  -21.7600  -14.4586 N   0  0  0  0  0  0  0  0  0  0  0  0
   22.0770  -20.3129  -12.6180 C   0  0  0  0  0  0  0  0  0  0  0  0
   21.7240  -19.3141  -11.9508 O   0  0  0  0  0  0  0  0  0  0  0  0
   16.3653  -23.6992  -17.2949 N   0  0  0  0  0  0  0  0  0  0  0  0
   22.9645  -21.2339  -11.9610 C   0  0  0  0  0  0  0  0  0  0  0  0
   23.4845  -20.8833  -10.6714 C   0  0  0  0  0  0  0  0  0  0  0  0
   24.8952  -20.4560  -10.8285 O   0  0  0  0  0  0  0  0  0  0  0  0
   25.2018  -19.5576  -11.6586 C   0  0  0  0  0  0  0  0  0  0  0  0
   28.1571  -20.1297   -6.5432 C   0  0  0  0  0  0  0  0  0  0  0  0
   27.4937  -19.8681   -7.8662 C   0  0  2  0  0  0  0  0  0  0  0  0
   28.0623  -20.7399   -8.9670 C   0  0  0  0  0  0  0  0  0  0  0  0
   29.5088  -20.3898   -9.1775 C   0  0  2  0  0  0  0  0  0  0  0  0
   27.2873  -20.5673  -10.2601 N   0  0  0  0  0  0  0  0  0  0  0  0
   25.9331  -21.0423  -10.0550 C   0  0  0  0  0  0  0  0  0  0  0  0
   27.9371  -21.4502  -11.2558 O   0  0  0  0  0  0  0  0  0  0  0  0
   27.5576  -22.7618  -11.4996 O   0  0  0  0  0  0  0  0  0  0  0  0
  2  3  2  0
  2  1  1  0
  4  2  1  0
  5  4  1  0
  6  5  1  0
  7  6  1  0
  8  7  1  0
  8  9  1  1
 10 12  1  0
 10  8  1  0
 11 10  2  0
 13 12  1  0
 14 13  1  0
 14 21  1  0
 15 14  2  0
 16 17  1  0
 17 18  1  0
 18 20  1  0
 18 19  1  6
 20 21  1  6
 20 22  1  0
 22 24  2  0
 22 23  1  0
M  END
$$$$
