RGI.pdb
     RDKit          3D

 24 23  0  0  1  0  0  0  0  0999 V2000
   15.3892  -22.1295  -13.0347 N   0  0  0  0  0  0  0  0  0  0  0  0
   14.1451  -21.7185  -12.5128 C   0  0  0  0  0  0  0  0  0  0  0  0
   13.3266  -20.9636  -13.1540 N   0  0  0  0  0  0  0  0  0  0  0  0
   13.7771  -22.1635  -11.2066 N   0  0  0  0  0  0  0  0  0  0  0  0
   14.7353  -22.8157  -10.3358 C   0  0  0  0  0  0  0  0  0  0  0  0
   14.0985  -23.0592   -8.9606 C   0  0  0  0  0  0  0  0  0  0  0  0
   15.1602  -23.5985   -8.0725 C   0  0  0  0  0  0  0  0  0  0  0  0
   14.6966  -23.7094   -6.6571 C   0  0  2  0  0  0  0  0  0  0  0  0
   14.5925  -22.3723   -6.0515 N   0  0  0  0  0  0  0  0  0  0  0  0
   15.6897  -24.4395   -5.8506 C   0  0  0  0  0  0  0  0  0  0  0  0
   16.6684  -25.0163   -6.3767 O   0  0  0  0  0  0  0  0  0  0  0  0
   12.4490  -20.6382  -12.7147 N   0  0  0  0  0  0  0  0  0  0  0  0
   15.5931  -24.5313   -4.4189 C   0  0  0  0  0  0  0  0  0  0  0  0
   16.7684  -24.8760   -3.6731 C   0  0  0  0  0  0  0  0  0  0  0  0
   16.4371  -24.8546   -2.2284 O   0  0  0  0  0  0  0  0  0  0  0  0
   17.2815  -25.2373   -1.3736 C   0  0  0  0  0  0  0  0  0  0  0  0
   13.3300  -21.0248    0.1299 C   0  0  0  0  0  0  0  0  0  0  0  0
   14.3764  -22.0661   -0.1517 C   0  0  2  0  0  0  0  0  0  0  0  0
   13.8332  -23.4717    0.0051 C   0  0  0  0  0  0  0  0  0  0  0  0
   13.3706  -23.6678    1.4216 C   0  0  2  0  0  0  0  0  0  0  0  0
   14.8814  -24.5088   -0.3528 N   0  0  0  0  0  0  0  0  0  0  0  0
   15.1689  -24.4064   -1.7700 C   0  0  0  0  0  0  0  0  0  0  0  0
   14.2607  -25.8305   -0.1051 O   0  0  0  0  0  0  0  0  0  0  0  0
   14.5436  -26.6310    0.9916 O   0  0  0  0  0  0  0  0  0  0  0  0
  2  3  2  0
  2  1  1  0
  4  2  1  0
  5  4  1  0
  6  5  1  0
  7  6  1  0
  8  7  1  0
  8  9  1  1
 10 12  1  0
 10  8  1  0
 11 10  2  0
 13 12  1  0
 14 13  1  0
 14 21  1  0
 15 14  2  0
 16 17  1  0
 17 18  1  0
 18 20  1  0
 18 19  1  6
 20 21  1  1
 20 22  1  0
 22 24  2  0
 22 23  1  0
M  END
$$$$
