RGI.pdb
     RDKit          3D

 24 23  0  0  1  0  0  0  0  0999 V2000
   24.7191  -25.8014  -18.3529 N   0  0  0  0  0  0  0  0  0  0  0  0
   24.8665  -25.7142  -16.9530 C   0  0  0  0  0  0  0  0  0  0  0  0
   25.6153  -26.5062  -16.2725 N   0  0  0  0  0  0  0  0  0  0  0  0
   24.1475  -24.6950  -16.2573 N   0  0  0  0  0  0  0  0  0  0  0  0
   23.2129  -23.8281  -16.9480 C   0  0  0  0  0  0  0  0  0  0  0  0
   23.7595  -23.4884  -18.3414 C   0  0  0  0  0  0  0  0  0  0  0  0
   24.0775  -22.0373  -18.3483 C   0  0  0  0  0  0  0  0  0  0  0  0
   23.1155  -21.2543  -17.5164 C   0  0  2  0  0  0  0  0  0  0  0  0
   22.3706  -20.3061  -18.3600 N   0  0  0  0  0  0  0  0  0  0  0  0
   23.8421  -20.4324  -16.5334 C   0  0  0  0  0  0  0  0  0  0  0  0
   24.1202  -19.2324  -16.7568 O   0  0  0  0  0  0  0  0  0  0  0  0
   25.7012  -26.4055  -15.2470 N   0  0  0  0  0  0  0  0  0  0  0  0
   24.2716  -20.9584  -15.2660 C   0  0  0  0  0  0  0  0  0  0  0  0
   25.0359  -20.1125  -14.3961 C   0  0  0  0  0  0  0  0  0  0  0  0
   25.2602  -20.8264  -13.1164 O   0  0  0  0  0  0  0  0  0  0  0  0
   24.7735  -21.9750  -12.9320 C   0  0  0  0  0  0  0  0  0  0  0  0
   30.0400  -20.8244  -10.8284 C   0  0  0  0  0  0  0  0  0  0  0  0
   28.6554  -21.1619  -11.3055 C   0  0  2  0  0  0  0  0  0  0  0  0
   27.5944  -20.7365  -10.3112 C   0  0  0  0  0  0  0  0  0  0  0  0
   27.8025  -21.4760   -9.0194 C   0  0  2  0  0  0  0  0  0  0  0  0
   26.2003  -21.0012  -10.8486 N   0  0  0  0  0  0  0  0  0  0  0  0
   26.0230  -20.2410  -12.0701 C   0  0  0  0  0  0  0  0  0  0  0  0
   25.2569  -20.4711   -9.8374 O   0  0  0  0  0  0  0  0  0  0  0  0
   24.5932  -21.2541   -8.9047 O   0  0  0  0  0  0  0  0  0  0  0  0
  2  3  2  0
  2  1  1  0
  4  2  1  0
  5  4  1  0
  6  5  1  0
  7  6  1  0
  8  7  1  0
  8  9  1  6
 10 12  1  0
 10  8  1  0
 11 10  2  0
 13 12  1  0
 14 13  1  0
 14 21  1  0
 15 14  2  0
 16 17  1  0
 17 18  1  0
 18 20  1  0
 18 19  1  1
 20 21  1  6
 20 22  1  0
 22 24  2  0
 22 23  1  0
M  END
$$$$
