RGI.pdb
     RDKit          3D

 24 23  0  0  1  0  0  0  0  0999 V2000
   31.4031  -17.8346  -20.2139 N   0  0  0  0  0  0  0  0  0  0  0  0
   30.7470  -17.6319  -21.4458 C   0  0  0  0  0  0  0  0  0  0  0  0
   29.5641  -18.0676  -21.6943 N   0  0  0  0  0  0  0  0  0  0  0  0
   31.4318  -16.9064  -22.4678 N   0  0  0  0  0  0  0  0  0  0  0  0
   32.7301  -16.3084  -22.2253 C   0  0  0  0  0  0  0  0  0  0  0  0
   32.5475  -14.8828  -21.6866 C   0  0  0  0  0  0  0  0  0  0  0  0
   33.8934  -14.2561  -21.6332 C   0  0  0  0  0  0  0  0  0  0  0  0
   34.3425  -14.0246  -20.2278 C   0  0  2  0  0  0  0  0  0  0  0  0
   33.8006  -15.0688  -19.3438 N   0  0  0  0  0  0  0  0  0  0  0  0
   33.8026  -12.7506  -19.7228 C   0  0  0  0  0  0  0  0  0  0  0  0
   34.1255  -11.6525  -20.2299 O   0  0  0  0  0  0  0  0  0  0  0  0
   29.1364  -17.9405  -22.6270 N   0  0  0  0  0  0  0  0  0  0  0  0
   32.8774  -12.6948  -18.6235 C   0  0  0  0  0  0  0  0  0  0  0  0
   32.3623  -11.4171  -18.2251 C   0  0  0  0  0  0  0  0  0  0  0  0
   30.9094  -11.3791  -18.5169 O   0  0  0  0  0  0  0  0  0  0  0  0
   30.4346  -12.0352  -19.4835 C   0  0  0  0  0  0  0  0  0  0  0  0
   27.6079  -13.4193  -15.6065 C   0  0  0  0  0  0  0  0  0  0  0  0
   28.2562  -12.7652  -16.7942 C   0  0  2  0  0  0  0  0  0  0  0  0
   27.8536  -11.3110  -16.9296 C   0  0  0  0  0  0  0  0  0  0  0  0
   26.3726  -11.2284  -17.1720 C   0  0  2  0  0  0  0  0  0  0  0  0
   28.6085  -10.6349  -18.0590 N   0  0  0  0  0  0  0  0  0  0  0  0
   30.0184  -10.6082  -17.7226 C   0  0  0  0  0  0  0  0  0  0  0  0
   28.1218   -9.2369  -18.1066 O   0  0  0  0  0  0  0  0  0  0  0  0
   28.7559   -8.1695  -17.4884 O   0  0  0  0  0  0  0  0  0  0  0  0
  2  3  2  0
  2  1  1  0
  4  2  1  0
  5  4  1  0
  6  5  1  0
  7  6  1  0
  8  7  1  0
  8  9  1  1
 10 12  1  0
 10  8  1  0
 11 10  2  0
 13 12  1  0
 14 13  1  0
 14 21  1  0
 15 14  2  0
 16 17  1  0
 17 18  1  0
 18 20  1  0
 18 19  1  1
 20 21  1  6
 20 22  1  0
 22 24  2  0
 22 23  1  0
M  END
$$$$
