RGI.pdb
     RDKit          3D

 24 23  0  0  1  0  0  0  0  0999 V2000
   21.0292  -23.2387  -16.6646 N   0  0  0  0  0  0  0  0  0  0  0  0
   20.5279  -23.2808  -15.3470 C   0  0  0  0  0  0  0  0  0  0  0  0
   21.0867  -23.9476  -14.4014 N   0  0  0  0  0  0  0  0  0  0  0  0
   19.3402  -22.5457  -15.0493 N   0  0  0  0  0  0  0  0  0  0  0  0
   18.7290  -21.6727  -16.0322 C   0  0  0  0  0  0  0  0  0  0  0  0
   19.7144  -20.5600  -16.4155 C   0  0  0  0  0  0  0  0  0  0  0  0
   19.2168  -19.3008  -15.8040 C   0  0  0  0  0  0  0  0  0  0  0  0
   20.2808  -18.6068  -15.0186 C   0  0  2  0  0  0  0  0  0  0  0  0
   21.3915  -18.2185  -15.9024 N   0  0  0  0  0  0  0  0  0  0  0  0
   20.8612  -19.5246  -14.0234 C   0  0  0  0  0  0  0  0  0  0  0  0
   20.2557  -19.8182  -12.9677 O   0  0  0  0  0  0  0  0  0  0  0  0
   20.7320  -23.8930  -13.4317 N   0  0  0  0  0  0  0  0  0  0  0  0
   22.1506  -20.1341  -14.2062 C   0  0  0  0  0  0  0  0  0  0  0  0
   22.6595  -20.9856  -13.1706 C   0  0  0  0  0  0  0  0  0  0  0  0
   24.0690  -20.6141  -12.9006 O   0  0  0  0  0  0  0  0  0  0  0  0
   24.6483  -19.7475  -13.6101 C   0  0  0  0  0  0  0  0  0  0  0  0
   26.0555  -19.9218   -8.9167 C   0  0  0  0  0  0  0  0  0  0  0  0
   26.0355  -21.3847   -9.2607 C   0  0  1  0  0  0  0  0  0  0  0  0
   26.7812  -21.6741  -10.5473 C   0  0  0  0  0  0  0  0  0  0  0  0
   28.2348  -21.3397  -10.3623 C   0  0  2  0  0  0  0  0  0  0  0  0
   26.2042  -20.8830  -11.7065 N   0  0  0  0  0  0  0  0  0  0  0  0
   24.8009  -21.2197  -11.8437 C   0  0  0  0  0  0  0  0  0  0  0  0
   26.9092  -21.3514  -12.9218 O   0  0  0  0  0  0  0  0  0  0  0  0
   26.6027  -22.5231  -13.5977 O   0  0  0  0  0  0  0  0  0  0  0  0
  2  3  2  0
  2  1  1  0
  4  2  1  0
  5  4  1  0
  6  5  1  0
  7  6  1  0
  8  7  1  0
  8  9  1  6
 10 12  1  0
 10  8  1  0
 11 10  2  0
 13 12  1  0
 14 13  1  0
 14 21  1  0
 15 14  2  0
 16 17  1  0
 17 18  1  0
 18 20  1  0
 18 19  1  1
 20 21  1  1
 20 22  1  0
 22 24  2  0
 22 23  1  0
M  END
$$$$
