RGI.pdb
     RDKit          3D

 24 23  0  0  1  0  0  0  0  0999 V2000
   12.8820  -12.0847  -16.7510 N   0  0  0  0  0  0  0  0  0  0  0  0
   13.2213  -11.8685  -18.1027 C   0  0  0  0  0  0  0  0  0  0  0  0
   12.4018  -11.3854  -18.9664 N   0  0  0  0  0  0  0  0  0  0  0  0
   14.5414  -12.2035  -18.5327 N   0  0  0  0  0  0  0  0  0  0  0  0
   15.5263  -12.7231  -17.6043 C   0  0  0  0  0  0  0  0  0  0  0  0
   16.1152  -11.5700  -16.7801 C   0  0  0  0  0  0  0  0  0  0  0  0
   17.2176  -12.1333  -15.9589 C   0  0  0  0  0  0  0  0  0  0  0  0
   17.8618  -11.0913  -15.1047 C   0  0  2  0  0  0  0  0  0  0  0  0
   17.4382   -9.7495  -15.5355 N   0  0  0  0  0  0  0  0  0  0  0  0
   19.3245  -11.1247  -15.2747 C   0  0  0  0  0  0  0  0  0  0  0  0
   20.0002  -12.1307  -14.9605 O   0  0  0  0  0  0  0  0  0  0  0  0
   12.6827  -11.2619  -19.9538 N   0  0  0  0  0  0  0  0  0  0  0  0
   20.0576  -10.0093  -15.8094 C   0  0  0  0  0  0  0  0  0  0  0  0
   21.4711  -10.1489  -16.0065 C   0  0  0  0  0  0  0  0  0  0  0  0
   22.1384   -8.9040  -15.5562 O   0  0  0  0  0  0  0  0  0  0  0  0
   23.3948   -8.8031  -15.5941 C   0  0  0  0  0  0  0  0  0  0  0  0
   20.4618   -4.9021  -18.0571 C   0  0  0  0  0  0  0  0  0  0  0  0
   21.3248   -5.8298  -17.2489 C   0  0  2  0  0  0  0  0  0  0  0  0
   21.2880   -5.4947  -15.7719 C   0  0  0  0  0  0  0  0  0  0  0  0
   21.8659   -4.1232  -15.5615 C   0  0  2  0  0  0  0  0  0  0  0  0
   22.0565   -6.5183  -14.9569 N   0  0  0  0  0  0  0  0  0  0  0  0
   21.3872   -7.7990  -15.0726 C   0  0  0  0  0  0  0  0  0  0  0  0
   21.9660   -6.0794  -13.5454 O   0  0  0  0  0  0  0  0  0  0  0  0
   22.9457   -5.3457  -12.8931 O   0  0  0  0  0  0  0  0  0  0  0  0
  2  3  2  0
  2  1  1  0
  4  2  1  0
  5  4  1  0
  6  5  1  0
  7  6  1  0
  8  7  1  0
  8  9  1  6
 10 12  1  0
 10  8  1  0
 11 10  2  0
 13 12  1  0
 14 13  1  0
 14 21  1  0
 15 14  2  0
 16 17  1  0
 17 18  1  0
 18 20  1  0
 18 19  1  1
 20 21  1  6
 20 22  1  0
 22 24  2  0
 22 23  1  0
M  END
$$$$
