RGI.pdb
     RDKit          3D

 24 23  0  0  1  0  0  0  0  0999 V2000
   24.6921  -24.9752  -13.6623 N   0  0  0  0  0  0  0  0  0  0  0  0
   23.5824  -24.4519  -12.9667 C   0  0  0  0  0  0  0  0  0  0  0  0
   22.5589  -25.1567  -12.6404 N   0  0  0  0  0  0  0  0  0  0  0  0
   23.5974  -23.0697  -12.6073 N   0  0  0  0  0  0  0  0  0  0  0  0
   22.9272  -22.0734  -13.4198 C   0  0  0  0  0  0  0  0  0  0  0  0
   23.5868  -22.0098  -14.8043 C   0  0  0  0  0  0  0  0  0  0  0  0
   24.1962  -20.6619  -14.9406 C   0  0  0  0  0  0  0  0  0  0  0  0
   25.6875  -20.7288  -14.9852 C   0  0  2  0  0  0  0  0  0  0  0  0
   26.1322  -22.1315  -14.9927 N   0  0  0  0  0  0  0  0  0  0  0  0
   26.2617  -20.1318  -13.7672 C   0  0  0  0  0  0  0  0  0  0  0  0
   26.1016  -18.9216  -13.4896 O   0  0  0  0  0  0  0  0  0  0  0  0
   21.7490  -24.7273  -12.1622 N   0  0  0  0  0  0  0  0  0  0  0  0
   27.0355  -20.9010  -12.8306 C   0  0  0  0  0  0  0  0  0  0  0  0
   27.6946  -20.2140  -11.7582 C   0  0  0  0  0  0  0  0  0  0  0  0
   27.2499  -20.8032  -10.4727 O   0  0  0  0  0  0  0  0  0  0  0  0
   26.8145  -21.9859  -10.4288 C   0  0  0  0  0  0  0  0  0  0  0  0
   27.9512  -19.9905   -4.3971 C   0  0  0  0  0  0  0  0  0  0  0  0
   27.2460  -20.6501   -5.5488 C   0  0  2  0  0  0  0  0  0  0  0  0
   27.5881  -19.9961   -6.8718 C   0  0  0  0  0  0  0  0  0  0  0  0
   27.1316  -18.5642   -6.8482 C   0  0  2  0  0  0  0  0  0  0  0  0
   26.9443  -20.7329   -8.0316 N   0  0  0  0  0  0  0  0  0  0  0  0
   27.3007  -20.0578   -9.2640 C   0  0  0  0  0  0  0  0  0  0  0  0
   25.4806  -20.6045   -7.8452 O   0  0  0  0  0  0  0  0  0  0  0  0
   24.7254  -21.4239   -7.0194 O   0  0  0  0  0  0  0  0  0  0  0  0
  2  3  2  0
  2  1  1  0
  4  2  1  0
  5  4  1  0
  6  5  1  0
  7  6  1  0
  8  7  1  0
  8  9  1  1
 10 12  1  0
 10  8  1  0
 11 10  2  0
 13 12  1  0
 14 13  1  0
 14 21  1  0
 15 14  2  0
 16 17  1  0
 17 18  1  0
 18 20  1  0
 18 19  1  6
 20 21  1  6
 20 22  1  0
 22 24  2  0
 22 23  1  0
M  END
$$$$
