RGI.pdb
     RDKit          3D

 24 23  0  0  1  0  0  0  0  0999 V2000
   21.9445  -17.9264  -16.3882 N   0  0  0  0  0  0  0  0  0  0  0  0
   21.3601  -19.2099  -16.4003 C   0  0  0  0  0  0  0  0  0  0  0  0
   20.4738  -19.5726  -17.2570 N   0  0  0  0  0  0  0  0  0  0  0  0
   21.7739  -20.1530  -15.4109 N   0  0  0  0  0  0  0  0  0  0  0  0
   22.8548  -19.8545  -14.4919 C   0  0  0  0  0  0  0  0  0  0  0  0
   24.2001  -19.9915  -15.2180 C   0  0  0  0  0  0  0  0  0  0  0  0
   25.2684  -19.7272  -14.2201 C   0  0  0  0  0  0  0  0  0  0  0  0
   25.2187  -20.6955  -13.0841 C   0  0  2  0  0  0  0  0  0  0  0  0
   24.5356  -20.0892  -11.9304 N   0  0  0  0  0  0  0  0  0  0  0  0
   26.5815  -21.0120  -12.6233 C   0  0  0  0  0  0  0  0  0  0  0  0
   27.5196  -21.2065  -13.4292 O   0  0  0  0  0  0  0  0  0  0  0  0
   20.0187  -20.4986  -17.1905 N   0  0  0  0  0  0  0  0  0  0  0  0
   26.9119  -21.1147  -11.2277 C   0  0  0  0  0  0  0  0  0  0  0  0
   28.2690  -21.4012  -10.8636 C   0  0  0  0  0  0  0  0  0  0  0  0
   28.3829  -21.3596   -9.3861 O   0  0  0  0  0  0  0  0  0  0  0  0
   29.3936  -21.8457   -8.8095 C   0  0  0  0  0  0  0  0  0  0  0  0
   29.1824  -19.2345   -4.2920 C   0  0  0  0  0  0  0  0  0  0  0  0
   28.3346  -20.2627   -4.9869 C   0  0  2  0  0  0  0  0  0  0  0  0
   28.2145  -19.9878   -6.4719 C   0  0  0  0  0  0  0  0  0  0  0  0
   27.6025  -18.6302   -6.6755 C   0  0  2  0  0  0  0  0  0  0  0  0
   27.3776  -21.0493   -7.1612 N   0  0  0  0  0  0  0  0  0  0  0  0
   27.3646  -20.7763   -8.5848 C   0  0  0  0  0  0  0  0  0  0  0  0
   25.9968  -20.8871   -6.6506 O   0  0  0  0  0  0  0  0  0  0  0  0
   25.5419  -21.4170   -5.4523 O   0  0  0  0  0  0  0  0  0  0  0  0
  2  3  2  0
  2  1  1  0
  4  2  1  0
  5  4  1  0
  6  5  1  0
  7  6  1  0
  8  7  1  0
  8  9  1  1
 10 12  1  0
 10  8  1  0
 11 10  2  0
 13 12  1  0
 14 13  1  0
 14 21  1  0
 15 14  2  0
 16 17  1  0
 17 18  1  0
 18 20  1  0
 18 19  1  6
 20 21  1  1
 20 22  1  0
 22 24  2  0
 22 23  1  0
M  END
$$$$
