RGI.pdb
     RDKit          3D

 24 23  0  0  1  0  0  0  0  0999 V2000
   20.8585  -20.6275  -12.8870 N   0  0  0  0  0  0  0  0  0  0  0  0
   20.8705  -19.9069  -14.0993 C   0  0  0  0  0  0  0  0  0  0  0  0
   19.8241  -19.7280  -14.8231 N   0  0  0  0  0  0  0  0  0  0  0  0
   22.1075  -19.3487  -14.5444 N   0  0  0  0  0  0  0  0  0  0  0  0
   23.3223  -19.4944  -13.7666 C   0  0  0  0  0  0  0  0  0  0  0  0
   23.9528  -20.8650  -14.0492 C   0  0  0  0  0  0  0  0  0  0  0  0
   25.2176  -20.9366  -13.2733 C   0  0  0  0  0  0  0  0  0  0  0  0
   24.9842  -21.3992  -11.8726 C   0  0  2  0  0  0  0  0  0  0  0  0
   23.8475  -20.6747  -11.2821 N   0  0  0  0  0  0  0  0  0  0  0  0
   26.1477  -21.0779  -11.0284 C   0  0  0  0  0  0  0  0  0  0  0  0
   27.2622  -21.6180  -11.2114 O   0  0  0  0  0  0  0  0  0  0  0  0
   19.8739  -19.1900  -15.7047 N   0  0  0  0  0  0  0  0  0  0  0  0
   26.0713  -20.1292   -9.9506 C   0  0  0  0  0  0  0  0  0  0  0  0
   27.2884  -19.7099   -9.3187 C   0  0  0  0  0  0  0  0  0  0  0  0
   27.2599  -20.1409   -7.9006 O   0  0  0  0  0  0  0  0  0  0  0  0
   26.2554  -20.7460   -7.4370 C   0  0  0  0  0  0  0  0  0  0  0  0
   31.1194  -18.4111   -4.0075 C   0  0  0  0  0  0  0  0  0  0  0  0
   29.9994  -18.6794   -4.9731 C   0  0  2  0  0  0  0  0  0  0  0  0
   29.5965  -20.1399   -4.9812 C   0  0  0  0  0  0  0  0  0  0  0  0
   30.6540  -20.9406   -5.6881 C   0  0  1  0  0  0  0  0  0  0  0  0
   28.2517  -20.3350   -5.6565 N   0  0  0  0  0  0  0  0  0  0  0  0
   28.3545  -19.8859   -7.0310 C   0  0  0  0  0  0  0  0  0  0  0  0
   27.2998  -19.4448   -4.9531 O   0  0  0  0  0  0  0  0  0  0  0  0
   26.7295  -19.7311   -3.7216 O   0  0  0  0  0  0  0  0  0  0  0  0
  2  3  2  0
  2  1  1  0
  4  2  1  0
  5  4  1  0
  6  5  1  0
  7  6  1  0
  8  7  1  0
  8  9  1  1
 10 12  1  0
 10  8  1  0
 11 10  2  0
 13 12  1  0
 14 13  1  0
 14 21  1  0
 15 14  2  0
 16 17  1  0
 17 18  1  0
 18 20  1  0
 18 19  1  1
 20 21  1  6
 20 22  1  0
 22 24  2  0
 22 23  1  0
M  END
$$$$
