FAC.pdb
     RDKit          3D

 23 23  0  0  1  0  0  0  0  0999 V2000
    9.3253  -14.1995   23.3869 N   0  0  0  0  0  0  0  0  0  0  0  0
    8.7648  -14.8309   24.5364 C   0  0  1  0  0  0  0  0  0  0  0  0
    7.2458  -14.8959   24.3312 C   0  0  0  0  0  0  0  0  0  0  0  0
    6.7011  -13.5752   24.7393 C   0  0  0  0  0  0  0  0  0  0  0  0
    5.9379  -13.4457   25.9029 C   0  0  0  0  0  0  0  0  0  0  0  0
    5.4234  -12.2415   26.3034 C   0  0  0  0  0  0  0  0  0  0  0  0
    5.6527  -11.1130   25.5523 C   0  0  0  0  0  0  0  0  0  0  0  0
    6.4031  -11.1907   24.3911 C   0  0  0  0  0  0  0  0  0  0  0  0
    6.9139  -12.4255   24.0070 C   0  0  0  0  0  0  0  0  0  0  0  0
    9.2945  -16.2300   24.7150 C   0  0  0  0  0  0  0  0  0  0  0  0
    8.7490  -17.0593   25.4550 O   0  0  0  0  0  0  0  0  0  0  0  0
   12.2666  -17.9787   23.2657 C   0  0  0  0  0  0  0  0  0  0  0  0
   11.1504  -17.8190   24.2838 C   0  0  2  0  0  0  0  0  0  0  0  0
   10.4550  -16.5982   24.0084 N   0  0  0  0  0  0  0  0  0  0  0  0
   11.7664  -17.8487   25.6371 C   0  0  0  0  0  0  0  0  0  0  0  0
   12.5757  -18.7203   26.0113 O   0  0  0  0  0  0  0  0  0  0  0  0
   11.4051  -16.8250   26.5401 N   0  0  0  0  0  0  0  0  0  0  0  0
   11.9176  -16.7156   27.8881 C   0  0  1  0  0  0  0  0  0  0  0  0
   11.5814  -15.3421   28.4298 C   0  0  0  0  0  0  0  0  0  0  0  0
   11.8837  -15.2083   30.1916 S   0  0  0  0  0  0  0  0  0  0  0  0
   11.2757  -17.7571   28.7161 C   0  0  0  0  0  0  0  0  0  0  0  0
   11.9463  -18.2957   29.7941 O   0  0  0  0  0  0  0  0  0  0  0  0
   10.1219  -18.1578   28.4469 O   0  0  0  0  0  0  0  0  0  0  0  0
  2  1  1  6
  2 10  1  0
  3  2  1  0
  4  3  1  0
  5  4  2  0
  6  5  1  0
  7  8  1  0
  7  6  2  0
  8  9  2  0
  9  4  1  0
 10 14  1  0
 10 11  2  0
 13 12  1  6
 14 13  1  0
 15 13  1  0
 15 17  1  0
 16 15  2  0
 18 17  1  0
 18 21  1  0
 18 19  1  1
 19 20  1  0
 21 22  1  0
 23 21  2  0
M  END
$$$$
