FAC.pdb
     RDKit          3D

 23 23  0  0  1  0  0  0  0  0999 V2000
    7.3210  -16.2485   26.2718 N   0  0  0  0  0  0  0  0  0  0  0  0
    7.0337  -16.7483   24.9672 C   0  0  1  0  0  0  0  0  0  0  0  0
    5.9750  -15.8287   24.3448 C   0  0  0  0  0  0  0  0  0  0  0  0
    6.2942  -14.4466   24.7869 C   0  0  0  0  0  0  0  0  0  0  0  0
    7.0834  -13.6076   23.9953 C   0  0  0  0  0  0  0  0  0  0  0  0
    7.3936  -12.3297   24.3773 C   0  0  0  0  0  0  0  0  0  0  0  0
    6.9247  -11.8373   25.5722 C   0  0  0  0  0  0  0  0  0  0  0  0
    6.1389  -12.6306   26.3913 C   0  0  0  0  0  0  0  0  0  0  0  0
    5.8387  -13.9244   25.9798 C   0  0  0  0  0  0  0  0  0  0  0  0
    8.2587  -16.7474   24.0902 C   0  0  0  0  0  0  0  0  0  0  0  0
    8.3550  -17.4565   23.0798 O   0  0  0  0  0  0  0  0  0  0  0  0
   11.0252  -14.6557   23.2998 C   0  0  0  0  0  0  0  0  0  0  0  0
   10.6162  -16.0212   23.8254 C   0  0  2  0  0  0  0  0  0  0  0  0
    9.3295  -15.9042   24.4422 N   0  0  0  0  0  0  0  0  0  0  0  0
   11.6751  -16.4793   24.7636 C   0  0  0  0  0  0  0  0  0  0  0  0
   12.8954  -16.3202   24.5627 O   0  0  0  0  0  0  0  0  0  0  0  0
   11.2608  -17.1306   25.9461 N   0  0  0  0  0  0  0  0  0  0  0  0
   11.3351  -16.5408   27.2645 C   0  0  1  0  0  0  0  0  0  0  0  0
   10.5203  -15.2645   27.2766 C   0  0  0  0  0  0  0  0  0  0  0  0
   10.5121  -14.4728   28.8848 S   0  0  0  0  0  0  0  0  0  0  0  0
   10.7804  -17.5043   28.2373 C   0  0  0  0  0  0  0  0  0  0  0  0
   11.2212  -17.5008   29.5440 O   0  0  0  0  0  0  0  0  0  0  0  0
    9.9086  -18.3290   27.8846 O   0  0  0  0  0  0  0  0  0  0  0  0
  2  1  1  1
  2 10  1  0
  3  2  1  0
  4  3  1  0
  5  4  2  0
  6  5  1  0
  7  8  1  0
  7  6  2  0
  8  9  2  0
  9  4  1  0
 10 14  1  0
 10 11  2  0
 13 12  1  1
 14 13  1  0
 15 13  1  0
 15 17  1  0
 16 15  2  0
 18 17  1  0
 18 21  1  0
 18 19  1  6
 19 20  1  0
 21 22  1  0
 23 21  2  0
M  END
$$$$
