FAC.pdb
     RDKit          3D

 23 23  0  0  1  0  0  0  0  0999 V2000
    6.0789  -17.1713   24.4090 N   0  0  0  0  0  0  0  0  0  0  0  0
    7.1464  -16.2336   24.5336 C   0  0  1  0  0  0  0  0  0  0  0  0
    7.0728  -15.6373   25.9452 C   0  0  0  0  0  0  0  0  0  0  0  0
    6.8012  -14.1855   25.7837 C   0  0  0  0  0  0  0  0  0  0  0  0
    7.7402  -13.3460   25.1778 C   0  0  0  0  0  0  0  0  0  0  0  0
    7.5169  -12.0047   25.0157 C   0  0  0  0  0  0  0  0  0  0  0  0
    6.3398  -11.4465   25.4552 C   0  0  0  0  0  0  0  0  0  0  0  0
    5.3786  -12.2375   26.0619 C   0  0  0  0  0  0  0  0  0  0  0  0
    5.6303  -13.5964   26.2142 C   0  0  0  0  0  0  0  0  0  0  0  0
    8.4886  -16.8929   24.3505 C   0  0  0  0  0  0  0  0  0  0  0  0
    8.7115  -18.0589   24.7024 O   0  0  0  0  0  0  0  0  0  0  0  0
   11.5508  -15.9010   22.5042 C   0  0  0  0  0  0  0  0  0  0  0  0
   10.8451  -16.6727   23.6062 C   0  0  2  0  0  0  0  0  0  0  0  0
    9.5224  -16.1455   23.7551 N   0  0  0  0  0  0  0  0  0  0  0  0
   11.6661  -16.5499   24.8401 C   0  0  0  0  0  0  0  0  0  0  0  0
   12.8186  -17.0117   24.9546 O   0  0  0  0  0  0  0  0  0  0  0  0
   11.0953  -15.8687   25.9375 N   0  0  0  0  0  0  0  0  0  0  0  0
   11.7437  -15.7131   27.2208 C   0  0  1  0  0  0  0  0  0  0  0  0
   11.2595  -14.4294   27.8616 C   0  0  0  0  0  0  0  0  0  0  0  0
    9.4720  -14.2951   27.8597 S   0  0  0  0  0  0  0  0  0  0  0  0
   11.3830  -16.8687   28.0676 C   0  0  0  0  0  0  0  0  0  0  0  0
   10.4679  -17.7976   27.6186 O   0  0  0  0  0  0  0  0  0  0  0  0
   11.9033  -17.0135   29.1958 O   0  0  0  0  0  0  0  0  0  0  0  0
  2  1  1  1
  2 10  1  0
  3  2  1  0
  4  3  1  0
  5  4  2  0
  6  5  1  0
  7  8  1  0
  7  6  2  0
  8  9  2  0
  9  4  1  0
 10 14  1  0
 10 11  2  0
 13 12  1  6
 14 13  1  0
 15 13  1  0
 15 17  1  0
 16 15  2  0
 18 17  1  0
 18 21  1  0
 18 19  1  1
 19 20  1  0
 21 22  1  0
 23 21  2  0
M  END
$$$$
