FAC.pdb
     RDKit          3D

 23 23  0  0  1  0  0  0  0  0999 V2000
    5.9960  -17.0112   25.3219 N   0  0  0  0  0  0  0  0  0  0  0  0
    6.9311  -16.0385   24.8598 C   0  0  1  0  0  0  0  0  0  0  0  0
    7.5008  -15.3253   26.0929 C   0  0  0  0  0  0  0  0  0  0  0  0
    6.9650  -13.9396   26.0725 C   0  0  0  0  0  0  0  0  0  0  0  0
    7.5098  -12.9754   25.2200 C   0  0  0  0  0  0  0  0  0  0  0  0
    7.0364  -11.6911   25.1799 C   0  0  0  0  0  0  0  0  0  0  0  0
    5.9939  -11.3178   25.9949 C   0  0  0  0  0  0  0  0  0  0  0  0
    5.4208  -12.2377   26.8568 C   0  0  0  0  0  0  0  0  0  0  0  0
    5.9204  -13.5352   26.8778 C   0  0  0  0  0  0  0  0  0  0  0  0
    8.0633  -16.6755   24.0967 C   0  0  0  0  0  0  0  0  0  0  0  0
    8.6436  -17.6947   24.4935 O   0  0  0  0  0  0  0  0  0  0  0  0
    9.7625  -15.7098   20.9049 C   0  0  0  0  0  0  0  0  0  0  0  0
    9.6103  -16.5505   22.1611 C   0  0  2  0  0  0  0  0  0  0  0  0
    8.4692  -16.0808   22.8870 N   0  0  0  0  0  0  0  0  0  0  0  0
   10.8779  -16.4442   22.9315 C   0  0  0  0  0  0  0  0  0  0  0  0
   11.5073  -15.3792   23.0871 O   0  0  0  0  0  0  0  0  0  0  0  0
   11.3867  -17.6252   23.5151 N   0  0  0  0  0  0  0  0  0  0  0  0
   12.6334  -17.6964   24.2447 C   0  0  1  0  0  0  0  0  0  0  0  0
   12.3356  -17.6491   25.7286 C   0  0  0  0  0  0  0  0  0  0  0  0
   11.0418  -18.7952   26.2040 S   0  0  0  0  0  0  0  0  0  0  0  0
   13.3007  -18.9692   23.9029 C   0  0  0  0  0  0  0  0  0  0  0  0
   14.5737  -19.2298   24.3649 O   0  0  0  0  0  0  0  0  0  0  0  0
   12.7181  -19.8188   23.1935 O   0  0  0  0  0  0  0  0  0  0  0  0
  2  1  1  1
  2 10  1  0
  3  2  1  0
  4  3  1  0
  5  4  2  0
  6  5  1  0
  7  8  1  0
  7  6  2  0
  8  9  2  0
  9  4  1  0
 10 14  1  0
 10 11  2  0
 13 12  1  6
 14 13  1  0
 15 13  1  0
 15 17  1  0
 16 15  2  0
 18 17  1  0
 18 21  1  0
 18 19  1  1
 19 20  1  0
 21 22  1  0
 23 21  2  0
M  END
$$$$
