FAC.pdb
     RDKit          3D

 23 23  0  0  1  0  0  0  0  0999 V2000
    6.0265  -17.6195   25.6817 N   0  0  0  0  0  0  0  0  0  0  0  0
    6.5325  -16.4190   25.1010 C   0  0  1  0  0  0  0  0  0  0  0  0
    7.6606  -15.9092   26.0073 C   0  0  0  0  0  0  0  0  0  0  0  0
    7.3870  -14.4717   26.2650 C   0  0  0  0  0  0  0  0  0  0  0  0
    6.1418  -14.0562   26.7447 C   0  0  0  0  0  0  0  0  0  0  0  0
    5.8616  -12.7387   26.9911 C   0  0  0  0  0  0  0  0  0  0  0  0
    6.8204  -11.7791   26.7666 C   0  0  0  0  0  0  0  0  0  0  0  0
    8.0696  -12.1416   26.2915 C   0  0  0  0  0  0  0  0  0  0  0  0
    8.3281  -13.4862   26.0495 C   0  0  0  0  0  0  0  0  0  0  0  0
    7.0854  -16.6603   23.7205 C   0  0  0  0  0  0  0  0  0  0  0  0
    7.4033  -17.7872   23.3179 O   0  0  0  0  0  0  0  0  0  0  0  0
    7.3953  -14.4037   20.7678 C   0  0  0  0  0  0  0  0  0  0  0  0
    7.6528  -15.7096   21.5002 C   0  0  2  0  0  0  0  0  0  0  0  0
    7.2427  -15.5549   22.8632 N   0  0  0  0  0  0  0  0  0  0  0  0
    9.0979  -16.0300   21.3570 C   0  0  0  0  0  0  0  0  0  0  0  0
    9.6527  -16.2561   20.2635 O   0  0  0  0  0  0  0  0  0  0  0  0
    9.8747  -16.0777   22.5353 N   0  0  0  0  0  0  0  0  0  0  0  0
   11.2167  -16.6130   22.5999 C   0  0  1  0  0  0  0  0  0  0  0  0
   12.1685  -15.5025   22.9922 C   0  0  0  0  0  0  0  0  0  0  0  0
   12.6615  -14.4972   21.5923 S   0  0  0  0  0  0  0  0  0  0  0  0
   11.2421  -17.6839   23.6172 C   0  0  0  0  0  0  0  0  0  0  0  0
   12.3817  -18.4388   23.7999 O   0  0  0  0  0  0  0  0  0  0  0  0
   10.2329  -17.9142   24.3193 O   0  0  0  0  0  0  0  0  0  0  0  0
  2  1  1  1
  2 10  1  0
  3  2  1  0
  4  3  1  0
  5  4  2  0
  6  5  1  0
  7  8  1  0
  7  6  2  0
  8  9  2  0
  9  4  1  0
 10 14  1  0
 10 11  2  0
 13 12  1  6
 14 13  1  0
 15 13  1  0
 15 17  1  0
 16 15  2  0
 18 17  1  0
 18 21  1  0
 18 19  1  1
 19 20  1  0
 21 22  1  0
 23 21  2  0
M  END
$$$$
