FAC.pdb
     RDKit          3D

 23 23  0  0  1  0  0  0  0  0999 V2000
    6.4663  -16.8749   22.2815 N   0  0  0  0  0  0  0  0  0  0  0  0
    7.6602  -16.2502   22.7490 C   0  0  1  0  0  0  0  0  0  0  0  0
    7.3355  -14.7735   23.0091 C   0  0  0  0  0  0  0  0  0  0  0  0
    7.5080  -14.0624   21.7160 C   0  0  0  0  0  0  0  0  0  0  0  0
    6.4057  -13.7738   20.9067 C   0  0  0  0  0  0  0  0  0  0  0  0
    6.5347  -13.1200   19.7105 C   0  0  0  0  0  0  0  0  0  0  0  0
    7.7775  -12.7265   19.2736 C   0  0  0  0  0  0  0  0  0  0  0  0
    8.9001  -12.9898   20.0404 C   0  0  0  0  0  0  0  0  0  0  0  0
    8.7414  -13.6552   21.2510 C   0  0  0  0  0  0  0  0  0  0  0  0
    8.1495  -16.8762   24.0291 C   0  0  0  0  0  0  0  0  0  0  0  0
    7.3790  -17.2820   24.9092 O   0  0  0  0  0  0  0  0  0  0  0  0
   11.4238  -18.2469   25.0151 C   0  0  0  0  0  0  0  0  0  0  0  0
   10.0856  -17.6302   25.3850 C   0  0  2  0  0  0  0  0  0  0  0  0
    9.5385  -16.9996   24.2219 N   0  0  0  0  0  0  0  0  0  0  0  0
   10.3199  -16.6837   26.5078 C   0  0  0  0  0  0  0  0  0  0  0  0
   10.8691  -17.0032   27.5806 O   0  0  0  0  0  0  0  0  0  0  0  0
    9.8906  -15.3494   26.3358 N   0  0  0  0  0  0  0  0  0  0  0  0
   10.0743  -14.3058   27.3200 C   0  0  1  0  0  0  0  0  0  0  0  0
    8.7568  -13.5880   27.5244 C   0  0  0  0  0  0  0  0  0  0  0  0
    7.9425  -13.1975   25.9759 S   0  0  0  0  0  0  0  0  0  0  0  0
   10.5114  -14.9310   28.5852 C   0  0  0  0  0  0  0  0  0  0  0  0
   10.6714  -16.2986   28.6629 O   0  0  0  0  0  0  0  0  0  0  0  0
   10.7393  -14.2269   29.5935 O   0  0  0  0  0  0  0  0  0  0  0  0
  2  1  1  1
  2 10  1  0
  3  2  1  0
  4  3  1  0
  5  4  2  0
  6  5  1  0
  7  8  1  0
  7  6  2  0
  8  9  2  0
  9  4  1  0
 10 14  1  0
 10 11  2  0
 13 12  1  6
 14 13  1  0
 15 13  1  0
 15 17  1  0
 16 15  2  0
 18 17  1  0
 18 21  1  0
 18 19  1  1
 19 20  1  0
 21 22  1  0
 23 21  2  0
M  END
$$$$
