FAC.pdb
     RDKit          3D

 23 23  0  0  1  0  0  0  0  0999 V2000
    5.4386  -17.7236   24.9048 N   0  0  0  0  0  0  0  0  0  0  0  0
    6.0645  -16.4520   24.7455 C   0  0  1  0  0  0  0  0  0  0  0  0
    6.8755  -16.1755   26.0182 C   0  0  0  0  0  0  0  0  0  0  0  0
    6.9143  -14.7001   26.1898 C   0  0  0  0  0  0  0  0  0  0  0  0
    8.0956  -13.9861   25.9704 C   0  0  0  0  0  0  0  0  0  0  0  0
    8.1607  -12.6266   26.1209 C   0  0  0  0  0  0  0  0  0  0  0  0
    7.0414  -11.9232   26.4987 C   0  0  0  0  0  0  0  0  0  0  0  0
    5.8474  -12.5862   26.7276 C   0  0  0  0  0  0  0  0  0  0  0  0
    5.8085  -13.9669   26.5677 C   0  0  0  0  0  0  0  0  0  0  0  0
    6.9942  -16.4354   23.5600 C   0  0  0  0  0  0  0  0  0  0  0  0
    7.6581  -17.4238   23.2204 O   0  0  0  0  0  0  0  0  0  0  0  0
    7.6153  -13.8365   20.9473 C   0  0  0  0  0  0  0  0  0  0  0  0
    7.8791  -15.1756   21.6145 C   0  0  2  0  0  0  0  0  0  0  0  0
    7.1048  -15.2451   22.8167 N   0  0  0  0  0  0  0  0  0  0  0  0
    9.3430  -15.2794   21.8549 C   0  0  0  0  0  0  0  0  0  0  0  0
   10.2029  -15.1537   20.9608 O   0  0  0  0  0  0  0  0  0  0  0  0
    9.7699  -15.5352   23.1764 N   0  0  0  0  0  0  0  0  0  0  0  0
   11.1544  -15.6880   23.5654 C   0  0  1  0  0  0  0  0  0  0  0  0
   11.3341  -15.1352   24.9636 C   0  0  0  0  0  0  0  0  0  0  0  0
   10.4227  -16.0702   26.1918 S   0  0  0  0  0  0  0  0  0  0  0  0
   11.4878  -17.1270   23.5436 C   0  0  0  0  0  0  0  0  0  0  0  0
   12.7942  -17.5379   23.7070 O   0  0  0  0  0  0  0  0  0  0  0  0
   10.5905  -17.9823   23.3773 O   0  0  0  0  0  0  0  0  0  0  0  0
  2  1  1  1
  2 10  1  0
  3  2  1  0
  4  3  1  0
  5  4  2  0
  6  5  1  0
  7  8  1  0
  7  6  2  0
  8  9  2  0
  9  4  1  0
 10 14  1  0
 10 11  2  0
 13 12  1  1
 14 13  1  0
 15 13  1  0
 15 17  1  0
 16 15  2  0
 18 17  1  0
 18 21  1  0
 18 19  1  1
 19 20  1  0
 21 22  1  0
 23 21  2  0
M  END
$$$$
