RNG.pdb
     RDKit          3D

 24 23  0  0  1  0  0  0  0  0999 V2000
   23.0326  -14.9817  -19.3954 N   0  0  0  0  0  0  0  0  0  0  0  0
   21.8807  -15.0393  -20.2562 C   0  0  0  0  0  0  0  0  0  0  0  0
   21.5017  -16.1909  -20.6814 N   0  0  0  0  0  0  0  0  0  0  0  0
   21.1664  -13.8957  -20.6420 N   0  0  0  0  0  0  0  0  0  0  0  0
   21.4558  -12.5699  -20.1226 C   0  0  0  0  0  0  0  0  0  0  0  0
   20.6828  -12.2936  -18.8544 C   0  0  0  0  0  0  0  0  0  0  0  0
   20.9334  -10.8902  -18.3454 C   0  0  0  0  0  0  0  0  0  0  0  0
   20.2970  -10.6405  -17.0173 C   0  0  2  0  0  0  0  0  0  0  0  0
   18.9567  -11.1450  -16.9069 N   0  0  0  0  0  0  0  0  0  0  0  0
   20.3876   -9.2043  -16.6260 C   0  0  0  0  0  0  0  0  0  0  0  0
   19.4411   -8.4552  -16.9017 O   0  0  0  0  0  0  0  0  0  0  0  0
   20.7103  -16.3185  -21.3303 N   0  0  0  0  0  0  0  0  0  0  0  0
   22.0612   -4.6302  -14.5574 C   0  0  0  0  0  0  0  0  0  0  0  0
   22.3222   -5.7577  -13.7455 O   0  0  0  0  0  0  0  0  0  0  0  0
   22.7600   -5.4846  -12.5720 C   0  0  0  0  0  0  0  0  0  0  0  0
   22.1246   -7.1565  -14.1657 C   0  0  1  0  0  0  0  0  0  0  0  0
   21.6730   -7.3179  -15.5863 N   0  0  0  0  0  0  0  0  0  0  0  0
   21.5361   -8.6888  -15.9469 C   0  0  0  0  0  0  0  0  0  0  0  0
   22.4544   -6.4961  -16.5420 O   0  0  0  0  0  0  0  0  0  0  0  0
   22.4588   -5.2461  -16.4062 N   0  0  0  0  0  0  0  0  0  0  0  0
   23.1977   -7.0638  -17.6063 C   0  0  0  0  0  0  0  0  0  0  0  0
   23.8964   -6.2871  -18.6056 C   0  0  0  0  0  0  0  0  0  0  0  0
   25.0083   -5.4869  -18.0822 O   0  0  0  0  0  0  0  0  0  0  0  0
   25.2632   -5.4223  -16.8662 O   0  0  0  0  0  0  0  0  0  0  0  0
  1  2  1  0
  2  3  2  0
  4  2  1  0
  5  4  1  0
  6  5  1  0
  7  6  1  0
  7  8  1  0
  8  9  1  6
  8 10  1  0
 10 11  2  0
 13 12  1  0
 13 15  1  0
 14 13  2  0
 16 15  1  1
 17 10  1  0
 17 16  1  0
 18 16  1  0
 18 20  1  0
 19 18  2  0
 21 20  1  0
 22 21  1  0
 22 24  1  0
 23 22  2  0
M  END
$$$$
