RNG.pdb
     RDKit          3D

 24 23  0  0  1  0  0  0  0  0999 V2000
   30.2112  -23.1779  -16.9813 N   0  0  0  0  0  0  0  0  0  0  0  0
   29.3208  -23.3174  -18.1033 C   0  0  0  0  0  0  0  0  0  0  0  0
   29.1078  -24.4984  -18.5620 N   0  0  0  0  0  0  0  0  0  0  0  0
   28.6853  -22.2218  -18.7058 N   0  0  0  0  0  0  0  0  0  0  0  0
   28.9661  -20.8445  -18.3382 C   0  0  0  0  0  0  0  0  0  0  0  0
   28.6570  -20.5884  -16.8819 C   0  0  0  0  0  0  0  0  0  0  0  0
   27.2922  -19.9578  -16.7059 C   0  0  0  0  0  0  0  0  0  0  0  0
   26.9633  -19.6945  -15.2729 C   0  0  2  0  0  0  0  0  0  0  0  0
   26.9712  -20.8688  -14.4457 N   0  0  0  0  0  0  0  0  0  0  0  0
   25.6959  -18.9209  -15.1331 C   0  0  0  0  0  0  0  0  0  0  0  0
   25.6428  -17.7810  -15.6135 O   0  0  0  0  0  0  0  0  0  0  0  0
   28.5422  -24.6812  -19.4047 N   0  0  0  0  0  0  0  0  0  0  0  0
   20.6946  -19.2265  -16.3788 C   0  0  0  0  0  0  0  0  0  0  0  0
   21.8500  -19.6988  -17.0425 O   0  0  0  0  0  0  0  0  0  0  0  0
   21.6714  -20.0156  -18.2718 C   0  0  0  0  0  0  0  0  0  0  0  0
   23.1779  -19.8360  -16.4179 C   0  0  2  0  0  0  0  0  0  0  0  0
   23.2370  -19.3937  -14.9865 N   0  0  0  0  0  0  0  0  0  0  0  0
   24.5587  -19.4702  -14.4617 C   0  0  0  0  0  0  0  0  0  0  0  0
   22.1923  -20.0202  -14.1405 O   0  0  0  0  0  0  0  0  0  0  0  0
   22.1642  -21.2730  -14.0380 N   0  0  0  0  0  0  0  0  0  0  0  0
   21.2205  -19.2619  -13.4418 C   0  0  0  0  0  0  0  0  0  0  0  0
   20.1808  -19.8434  -12.6226 C   0  0  0  0  0  0  0  0  0  0  0  0
   18.8292  -19.7127  -13.1766 O   0  0  0  0  0  0  0  0  0  0  0  0
   18.6166  -19.2017  -14.2908 O   0  0  0  0  0  0  0  0  0  0  0  0
  1  2  1  0
  2  3  2  0
  4  2  1  0
  5  4  1  0
  6  5  1  0
  7  6  1  0
  7  8  1  0
  8  9  1  1
  8 10  1  0
 10 11  2  0
 13 12  1  0
 13 15  1  0
 14 13  2  0
 16 15  1  6
 17 10  1  0
 17 16  1  0
 18 16  1  0
 18 20  1  0
 19 18  2  0
 21 20  1  0
 22 21  1  0
 22 24  1  0
 23 22  2  0
M  END
$$$$
