RNG.pdb
     RDKit          3D

 24 23  0  0  1  0  0  0  0  0999 V2000
   18.9403  -20.1545  -11.0466 N   0  0  0  0  0  0  0  0  0  0  0  0
   18.5837  -20.6310  -12.3570 C   0  0  0  0  0  0  0  0  0  0  0  0
   17.4408  -20.2888  -12.8335 N   0  0  0  0  0  0  0  0  0  0  0  0
   19.4307  -21.4458  -13.1223 N   0  0  0  0  0  0  0  0  0  0  0  0
   20.7575  -21.8416  -12.6818 C   0  0  0  0  0  0  0  0  0  0  0  0
   21.7896  -21.6054  -13.7593 C   0  0  0  0  0  0  0  0  0  0  0  0
   21.8613  -20.1446  -14.1496 C   0  0  0  0  0  0  0  0  0  0  0  0
   22.7624  -19.9073  -15.3170 C   0  0  2  0  0  0  0  0  0  0  0  0
   22.8878  -21.0350  -16.1977 N   0  0  0  0  0  0  0  0  0  0  0  0
   24.0908  -19.3825  -14.8880 C   0  0  0  0  0  0  0  0  0  0  0  0
   24.1407  -18.2699  -14.3471 O   0  0  0  0  0  0  0  0  0  0  0  0
   17.0928  -20.6129  -13.7487 N   0  0  0  0  0  0  0  0  0  0  0  0
   26.2387  -21.6702  -11.9033 C   0  0  0  0  0  0  0  0  0  0  0  0
   26.7846  -20.5148  -12.5080 O   0  0  0  0  0  0  0  0  0  0  0  0
   26.7562  -19.4619  -11.7771 C   0  0  0  0  0  0  0  0  0  0  0  0
   27.3533  -20.4696  -13.8669 C   0  0  2  0  0  0  0  0  0  0  0  0
   26.5879  -19.6123  -14.8298 N   0  0  0  0  0  0  0  0  0  0  0  0
   25.2895  -20.1363  -15.0902 C   0  0  0  0  0  0  0  0  0  0  0  0
   27.3699  -19.2534  -16.0377 O   0  0  0  0  0  0  0  0  0  0  0  0
   27.2631  -19.9695  -17.0656 N   0  0  0  0  0  0  0  0  0  0  0  0
   28.2366  -18.1333  -16.0804 C   0  0  0  0  0  0  0  0  0  0  0  0
   28.5880  -17.4319  -17.2948 C   0  0  0  0  0  0  0  0  0  0  0  0
   29.4116  -18.2094  -18.2264 O   0  0  0  0  0  0  0  0  0  0  0  0
   30.2089  -19.0813  -17.8367 O   0  0  0  0  0  0  0  0  0  0  0  0
  1  2  1  0
  2  3  2  0
  4  2  1  0
  5  4  1  0
  6  5  1  0
  7  6  1  0
  7  8  1  0
  8  9  1  1
  8 10  1  0
 10 11  2  0
 13 12  1  0
 13 15  1  0
 14 13  2  0
 16 15  1  1
 17 10  1  0
 17 16  1  0
 18 16  1  0
 18 20  1  0
 19 18  2  0
 21 20  1  0
 22 21  1  0
 22 24  1  0
 23 22  2  0
M  END
$$$$
