RNG.pdb
     RDKit          3D

 24 23  0  0  1  0  0  0  0  0999 V2000
   29.8184  -20.4412  -18.6364 N   0  0  0  0  0  0  0  0  0  0  0  0
   29.3202  -19.2134  -18.0747 C   0  0  0  0  0  0  0  0  0  0  0  0
   29.6896  -18.1083  -18.6159 N   0  0  0  0  0  0  0  0  0  0  0  0
   28.4559  -19.1822  -16.9706 N   0  0  0  0  0  0  0  0  0  0  0  0
   27.9065  -20.3818  -16.3622 C   0  0  0  0  0  0  0  0  0  0  0  0
   26.8361  -20.9999  -17.2306 C   0  0  0  0  0  0  0  0  0  0  0  0
   25.6460  -21.4498  -16.4104 C   0  0  0  0  0  0  0  0  0  0  0  0
   26.0417  -22.2871  -15.2385 C   0  0  2  0  0  0  0  0  0  0  0  0
   26.4319  -23.6261  -15.5815 N   0  0  0  0  0  0  0  0  0  0  0  0
   25.0009  -22.2644  -14.1706 C   0  0  0  0  0  0  0  0  0  0  0  0
   24.2288  -23.2278  -14.0765 O   0  0  0  0  0  0  0  0  0  0  0  0
   29.4326  -17.1835  -18.2386 N   0  0  0  0  0  0  0  0  0  0  0  0
   25.9897  -22.2987  -10.7515 C   0  0  0  0  0  0  0  0  0  0  0  0
   25.4293  -21.0656  -10.3465 O   0  0  0  0  0  0  0  0  0  0  0  0
   25.9528  -20.5585   -9.2918 C   0  0  0  0  0  0  0  0  0  0  0  0
   24.3301  -20.3753  -11.0446 C   0  0  2  0  0  0  0  0  0  0  0  0
   23.8558  -21.0666  -12.2876 N   0  0  0  0  0  0  0  0  0  0  0  0
   24.8847  -21.1611  -13.2676 C   0  0  0  0  0  0  0  0  0  0  0  0
   22.5630  -20.5402  -12.7887 O   0  0  0  0  0  0  0  0  0  0  0  0
   22.5642  -19.5058  -13.5034 N   0  0  0  0  0  0  0  0  0  0  0  0
   21.3221  -21.1567  -12.4927 C   0  0  0  0  0  0  0  0  0  0  0  0
   20.0551  -20.7187  -13.0341 C   0  0  0  0  0  0  0  0  0  0  0  0
   18.9034  -21.5171  -12.6017 O   0  0  0  0  0  0  0  0  0  0  0  0
   18.9558  -22.7562  -12.5032 O   0  0  0  0  0  0  0  0  0  0  0  0
  1  2  1  0
  2  3  2  0
  4  2  1  0
  5  4  1  0
  6  5  1  0
  7  6  1  0
  7  8  1  0
  8  9  1  6
  8 10  1  0
 10 11  2  0
 13 12  1  0
 13 15  1  0
 14 13  2  0
 16 15  1  1
 17 10  1  0
 17 16  1  0
 18 16  1  0
 18 20  1  0
 19 18  2  0
 21 20  1  0
 22 21  1  0
 22 24  1  0
 23 22  2  0
M  END
$$$$
