RNG.pdb
     RDKit          3D

 24 23  0  0  1  0  0  0  0  0999 V2000
   15.8475  -14.2589  -14.2026 N   0  0  0  0  0  0  0  0  0  0  0  0
   16.8909  -14.2450  -15.1937 C   0  0  0  0  0  0  0  0  0  0  0  0
   17.7939  -15.1568  -15.1324 N   0  0  0  0  0  0  0  0  0  0  0  0
   16.9549  -13.2823  -16.2116 N   0  0  0  0  0  0  0  0  0  0  0  0
   15.9385  -12.2611  -16.3993 C   0  0  0  0  0  0  0  0  0  0  0  0
   16.2217  -11.4193  -17.6212 C   0  0  0  0  0  0  0  0  0  0  0  0
   17.6115  -10.8214  -17.5744 C   0  0  0  0  0  0  0  0  0  0  0  0
   17.9226   -9.9998  -18.7824 C   0  0  2  0  0  0  0  0  0  0  0  0
   17.9917  -10.7557  -20.0018 N   0  0  0  0  0  0  0  0  0  0  0  0
   19.1367   -9.1583  -18.5768 C   0  0  0  0  0  0  0  0  0  0  0  0
   20.2253   -9.5798  -18.9895 O   0  0  0  0  0  0  0  0  0  0  0  0
   18.5503  -15.2471  -15.8277 N   0  0  0  0  0  0  0  0  0  0  0  0
   21.3793   -3.6923  -17.5676 C   0  0  0  0  0  0  0  0  0  0  0  0
   21.4455   -5.0025  -18.0944 O   0  0  0  0  0  0  0  0  0  0  0  0
   22.6328   -5.4344  -18.3118 C   0  0  0  0  0  0  0  0  0  0  0  0
   20.2743   -5.8473  -18.3889 C   0  0  2  0  0  0  0  0  0  0  0  0
   20.2110   -7.1164  -17.5931 N   0  0  0  0  0  0  0  0  0  0  0  0
   19.0610   -7.8904  -17.9192 C   0  0  0  0  0  0  0  0  0  0  0  0
   20.4296   -6.9044  -16.1416 O   0  0  0  0  0  0  0  0  0  0  0  0
   19.4912   -6.4364  -15.4479 N   0  0  0  0  0  0  0  0  0  0  0  0
   21.6575   -7.2074  -15.5028 C   0  0  0  0  0  0  0  0  0  0  0  0
   21.8896   -7.0463  -14.0849 C   0  0  0  0  0  0  0  0  0  0  0  0
   21.9516   -5.6515  -13.6361 O   0  0  0  0  0  0  0  0  0  0  0  0
   21.9073   -4.6968  -14.4325 O   0  0  0  0  0  0  0  0  0  0  0  0
  1  2  1  0
  2  3  2  0
  4  2  1  0
  5  4  1  0
  6  5  1  0
  7  6  1  0
  7  8  1  0
  8  9  1  6
  8 10  1  0
 10 11  2  0
 13 12  1  0
 13 15  1  0
 14 13  2  0
 16 15  1  6
 17 10  1  0
 17 16  1  0
 18 16  1  0
 18 20  1  0
 19 18  2  0
 21 20  1  0
 22 21  1  0
 22 24  1  0
 23 22  2  0
M  END
$$$$
