RNG.pdb
     RDKit          3D

 24 23  0  0  1  0  0  0  0  0999 V2000
   24.0237  -23.3356  -13.7778 N   0  0  0  0  0  0  0  0  0  0  0  0
   25.3810  -23.3203  -14.2560 C   0  0  0  0  0  0  0  0  0  0  0  0
   25.7821  -24.3129  -14.9662 N   0  0  0  0  0  0  0  0  0  0  0  0
   26.2698  -22.2720  -13.9768 N   0  0  0  0  0  0  0  0  0  0  0  0
   25.8810  -21.0797  -13.2431 C   0  0  0  0  0  0  0  0  0  0  0  0
   27.0036  -20.0699  -13.1969 C   0  0  0  0  0  0  0  0  0  0  0  0
   26.6415  -18.8018  -13.9401 C   0  0  0  0  0  0  0  0  0  0  0  0
   26.5077  -19.0188  -15.4118 C   0  0  2  0  0  0  0  0  0  0  0  0
   27.6181  -18.5273  -16.1788 N   0  0  0  0  0  0  0  0  0  0  0  0
   25.2038  -18.5090  -15.9260 C   0  0  0  0  0  0  0  0  0  0  0  0
   25.0378  -17.2847  -16.0065 O   0  0  0  0  0  0  0  0  0  0  0  0
   26.7338  -24.3757  -15.3586 N   0  0  0  0  0  0  0  0  0  0  0  0
   24.1715  -20.7824  -19.7609 C   0  0  0  0  0  0  0  0  0  0  0  0
   23.5637  -19.6499  -19.1722 O   0  0  0  0  0  0  0  0  0  0  0  0
   23.9621  -18.5238  -19.6378 C   0  0  0  0  0  0  0  0  0  0  0  0
   22.5485  -19.7035  -18.1052 C   0  0  2  0  0  0  0  0  0  0  0  0
   22.9191  -18.9546  -16.8603 N   0  0  0  0  0  0  0  0  0  0  0  0
   24.1589  -19.4022  -16.3211 C   0  0  0  0  0  0  0  0  0  0  0  0
   21.8082  -18.8670  -15.8817 O   0  0  0  0  0  0  0  0  0  0  0  0
   21.9657  -19.3642  -14.7376 N   0  0  0  0  0  0  0  0  0  0  0  0
   20.5717  -18.2450  -16.1848 C   0  0  0  0  0  0  0  0  0  0  0  0
   19.4433  -18.2120  -15.2816 C   0  0  0  0  0  0  0  0  0  0  0  0
   18.2486  -17.5608  -15.8288 O   0  0  0  0  0  0  0  0  0  0  0  0
   18.2597  -16.9672  -16.9221 O   0  0  0  0  0  0  0  0  0  0  0  0
  1  2  1  0
  2  3  2  0
  4  2  1  0
  5  4  1  0
  6  5  1  0
  7  6  1  0
  7  8  1  0
  8  9  1  6
  8 10  1  0
 10 11  2  0
 13 12  1  0
 13 15  1  0
 14 13  2  0
 16 15  1  6
 17 10  1  0
 17 16  1  0
 18 16  1  0
 18 20  1  0
 19 18  2  0
 21 20  1  0
 22 21  1  0
 22 24  1  0
 23 22  2  0
M  END
$$$$
