RNG.pdb
     RDKit          3D

 24 23  0  0  1  0  0  0  0  0999 V2000
   24.7151  -22.3785  -13.7316 N   0  0  0  0  0  0  0  0  0  0  0  0
   24.5674  -22.2372  -12.3070 C   0  0  0  0  0  0  0  0  0  0  0  0
   25.6014  -22.4340  -11.5703 N   0  0  0  0  0  0  0  0  0  0  0  0
   23.3486  -21.8962  -11.7027 N   0  0  0  0  0  0  0  0  0  0  0  0
   22.1255  -21.6795  -12.4566 C   0  0  0  0  0  0  0  0  0  0  0  0
   21.9201  -20.2151  -12.7652 C   0  0  0  0  0  0  0  0  0  0  0  0
   22.1922  -19.9107  -14.2228 C   0  0  0  0  0  0  0  0  0  0  0  0
   23.4586  -19.1438  -14.4211 C   0  0  2  0  0  0  0  0  0  0  0  0
   23.7168  -18.1672  -13.4000 N   0  0  0  0  0  0  0  0  0  0  0  0
   23.5364  -18.5559  -15.7895 C   0  0  0  0  0  0  0  0  0  0  0  0
   23.2438  -19.2701  -16.7576 O   0  0  0  0  0  0  0  0  0  0  0  0
   25.5664  -22.4323  -10.5396 N   0  0  0  0  0  0  0  0  0  0  0  0
   23.6830  -13.4011  -15.3556 C   0  0  0  0  0  0  0  0  0  0  0  0
   23.2885  -14.4134  -16.2601 O   0  0  0  0  0  0  0  0  0  0  0  0
   22.0412  -14.7077  -16.2260 C   0  0  0  0  0  0  0  0  0  0  0  0
   24.1978  -15.1076  -17.1894 C   0  0  2  0  0  0  0  0  0  0  0  0
   23.9774  -16.5878  -17.2806 N   0  0  0  0  0  0  0  0  0  0  0  0
   23.9384  -17.1987  -15.9948 C   0  0  0  0  0  0  0  0  0  0  0  0
   24.8735  -17.2501  -18.2594 O   0  0  0  0  0  0  0  0  0  0  0  0
   26.0752  -16.8864  -18.3258 N   0  0  0  0  0  0  0  0  0  0  0  0
   24.4288  -18.2786  -19.1266 C   0  0  0  0  0  0  0  0  0  0  0  0
   25.2805  -18.9526  -20.0808 C   0  0  0  0  0  0  0  0  0  0  0  0
   24.6173  -20.0207  -20.8357 O   0  0  0  0  0  0  0  0  0  0  0  0
   23.4156  -20.2990  -20.6731 O   0  0  0  0  0  0  0  0  0  0  0  0
  1  2  1  0
  2  3  2  0
  4  2  1  0
  5  4  1  0
  6  5  1  0
  7  6  1  0
  7  8  1  0
  8  9  1  1
  8 10  1  0
 10 11  2  0
 13 12  1  0
 13 15  1  0
 14 13  2  0
 16 15  1  1
 17 10  1  0
 17 16  1  0
 18 16  1  0
 18 20  1  0
 19 18  2  0
 21 20  1  0
 22 21  1  0
 22 24  1  0
 23 22  2  0
M  END
$$$$
