NAV.pdb
     RDKit          3D

 21 20  0  0  1  0  0  0  0  0999 V2000
   11.9996  -19.0359   19.2432 N   0  0  0  0  0  0  0  0  0  0  0  0
   11.0084  -19.3422   20.2030 C   0  0  0  0  0  0  0  0  0  0  0  0
   10.3115  -20.3619   20.0480 O   0  0  0  0  0  0  0  0  0  0  0  0
   10.8493  -18.4237   21.3551 C   0  0  0  0  0  0  0  0  0  0  0  0
    9.5884  -17.5939   21.2443 C   0  0  2  0  0  0  0  0  0  0  0  0
    9.7461  -16.6672   20.1661 N   0  0  0  0  0  0  0  0  0  0  0  0
    9.3785  -16.9238   22.5535 C   0  0  0  0  0  0  0  0  0  0  0  0
    9.9727  -15.8358   22.7668 O   0  0  0  0  0  0  0  0  0  0  0  0
    7.0399  -17.3544   25.4126 C   0  0  0  0  0  0  0  0  0  0  0  0
    8.2566  -16.6954   24.7486 C   0  0  2  0  0  0  0  0  0  0  0  0
    8.5393  -17.4583   23.5682 N   0  0  0  0  0  0  0  0  0  0  0  0
    9.3459  -16.7445   25.7458 C   0  0  0  0  0  0  0  0  0  0  0  0
   10.1687  -17.6917   25.6814 O   0  0  0  0  0  0  0  0  0  0  0  0
   11.1181  -13.4452   27.5520 C   0  0  0  0  0  0  0  0  0  0  0  0
   10.6912  -14.5420   28.5028 C   0  0  1  0  0  0  0  0  0  0  0  0
    9.4101  -14.1544   29.2244 C   0  0  0  0  0  0  0  0  0  0  0  0
   10.5375  -15.8660   27.7862 C   0  0  2  0  0  0  0  0  0  0  0  0
    9.5087  -15.7777   26.7697 N   0  0  0  0  0  0  0  0  0  0  0  0
   10.1761  -16.8823   28.8120 C   0  0  0  0  0  0  0  0  0  0  0  0
    9.0129  -17.3585   28.8429 O   0  0  0  0  0  0  0  0  0  0  0  0
   11.0878  -17.3341   29.7533 O   0  0  0  0  0  0  0  0  0  0  0  0
  1  2  1  0
  2  3  2  0
  4  2  1  0
  5  4  1  0
  5  6  1  6
  7  5  1  0
  7 11  1  0
  8  7  2  0
 10 12  1  0
 10 11  1  0
 10  9  1  1
 12 18  1  0
 13 12  2  0
 15 16  1  6
 15 14  1  0
 17 15  1  0
 17 18  1  6
 19 21  1  0
 19 17  1  0
 20 19  2  0
M  END
$$$$
