NAV.pdb
     RDKit          3D

 21 20  0  0  1  0  0  0  0  0999 V2000
    9.2906  -13.9512   17.5956 N   0  0  0  0  0  0  0  0  0  0  0  0
    7.9344  -13.6366   17.8389 C   0  0  0  0  0  0  0  0  0  0  0  0
    7.2564  -13.1354   16.9232 O   0  0  0  0  0  0  0  0  0  0  0  0
    7.3854  -13.9228   19.1854 C   0  0  0  0  0  0  0  0  0  0  0  0
    8.4257  -14.5327   20.1001 C   0  0  2  0  0  0  0  0  0  0  0  0
    8.9150  -15.7338   19.4967 N   0  0  0  0  0  0  0  0  0  0  0  0
    7.7782  -14.7716   21.4157 C   0  0  0  0  0  0  0  0  0  0  0  0
    7.2177  -13.8015   21.9876 O   0  0  0  0  0  0  0  0  0  0  0  0
    7.1783  -17.7004   23.6530 C   0  0  0  0  0  0  0  0  0  0  0  0
    7.1878  -16.1952   23.3533 C   0  0  2  0  0  0  0  0  0  0  0  0
    7.7663  -16.0430   22.0504 N   0  0  0  0  0  0  0  0  0  0  0  0
    7.9925  -15.5682   24.4222 C   0  0  0  0  0  0  0  0  0  0  0  0
    9.2405  -15.5319   24.2832 O   0  0  0  0  0  0  0  0  0  0  0  0
    8.0788  -12.4075   28.2587 C   0  0  0  0  0  0  0  0  0  0  0  0
    7.2967  -13.2444   27.2701 C   0  0  1  0  0  0  0  0  0  0  0  0
    6.5516  -12.3537   26.2884 C   0  0  0  0  0  0  0  0  0  0  0  0
    8.1920  -14.2274   26.5477 C   0  0  2  0  0  0  0  0  0  0  0  0
    7.4275  -15.0064   25.5947 N   0  0  0  0  0  0  0  0  0  0  0  0
    8.7995  -15.1107   27.5805 C   0  0  0  0  0  0  0  0  0  0  0  0
    8.3720  -16.2828   27.7358 O   0  0  0  0  0  0  0  0  0  0  0  0
    9.8377  -14.6851   28.3942 O   0  0  0  0  0  0  0  0  0  0  0  0
  1  2  1  0
  2  3  2  0
  4  2  1  0
  5  4  1  0
  5  6  1  6
  7  5  1  0
  7 11  1  0
  8  7  2  0
 10 12  1  0
 10 11  1  0
 10  9  1  1
 12 18  1  0
 13 12  2  0
 15 16  1  6
 15 14  1  0
 17 15  1  0
 17 18  1  6
 19 21  1  0
 19 17  1  0
 20 19  2  0
M  END
$$$$
