NAV.pdb
     RDKit          3D

 21 20  0  0  1  0  0  0  0  0999 V2000
    9.6606  -18.1739   19.0325 N   0  0  0  0  0  0  0  0  0  0  0  0
   10.8308  -17.9859   19.8023 C   0  0  0  0  0  0  0  0  0  0  0  0
   11.8657  -18.6029   19.4897 O   0  0  0  0  0  0  0  0  0  0  0  0
   10.7634  -17.0545   20.9531 C   0  0  0  0  0  0  0  0  0  0  0  0
    9.3641  -16.5165   21.1614 C   0  0  2  0  0  0  0  0  0  0  0  0
    9.0694  -15.5937   20.1089 N   0  0  0  0  0  0  0  0  0  0  0  0
    9.3233  -15.8877   22.5068 C   0  0  0  0  0  0  0  0  0  0  0  0
   10.3531  -15.2928   22.9166 O   0  0  0  0  0  0  0  0  0  0  0  0
    6.7661  -15.3966   25.1847 C   0  0  0  0  0  0  0  0  0  0  0  0
    8.1898  -15.2827   24.6230 C   0  0  2  0  0  0  0  0  0  0  0  0
    8.1760  -15.9306   23.3442 N   0  0  0  0  0  0  0  0  0  0  0  0
    9.0727  -15.9501   25.6020 C   0  0  0  0  0  0  0  0  0  0  0  0
    9.4774  -17.1108   25.3430 O   0  0  0  0  0  0  0  0  0  0  0  0
   11.6987  -13.8239   28.0505 C   0  0  0  0  0  0  0  0  0  0  0  0
   10.9409  -14.9453   28.7268 C   0  0  1  0  0  0  0  0  0  0  0  0
    9.8009  -14.3896   29.5656 C   0  0  0  0  0  0  0  0  0  0  0  0
   10.4382  -15.9581   27.7210 C   0  0  2  0  0  0  0  0  0  0  0  0
    9.4852  -15.3469   26.8168 N   0  0  0  0  0  0  0  0  0  0  0  0
    9.7996  -17.0617   28.4892 C   0  0  0  0  0  0  0  0  0  0  0  0
    8.5547  -17.2287   28.4329 O   0  0  0  0  0  0  0  0  0  0  0  0
   10.5361  -17.9300   29.2797 O   0  0  0  0  0  0  0  0  0  0  0  0
  1  2  1  0
  2  3  2  0
  4  2  1  0
  5  4  1  0
  5  6  1  6
  7  5  1  0
  7 11  1  0
  8  7  2  0
 10 12  1  0
 10 11  1  0
 10  9  1  1
 12 18  1  0
 13 12  2  0
 15 16  1  6
 15 14  1  0
 17 15  1  0
 17 18  1  6
 19 21  1  0
 19 17  1  0
 20 19  2  0
M  END
$$$$
