NAV.pdb
     RDKit          3D

 21 20  0  0  1  0  0  0  0  0999 V2000
    7.9900  -20.7883   21.0710 N   0  0  0  0  0  0  0  0  0  0  0  0
    9.2341  -20.2728   21.5002 C   0  0  0  0  0  0  0  0  0  0  0  0
   10.2420  -21.0012   21.4441 O   0  0  0  0  0  0  0  0  0  0  0  0
    9.2734  -18.8780   21.9994 C   0  0  0  0  0  0  0  0  0  0  0  0
    8.6170  -17.9151   21.0336 C   0  0  2  0  0  0  0  0  0  0  0  0
    9.2153  -18.0834   19.7452 N   0  0  0  0  0  0  0  0  0  0  0  0
    8.7976  -16.5446   21.5778 C   0  0  0  0  0  0  0  0  0  0  0  0
    9.8380  -16.3005   22.2414 O   0  0  0  0  0  0  0  0  0  0  0  0
    6.9544  -13.3007   21.4272 C   0  0  0  0  0  0  0  0  0  0  0  0
    8.0468  -14.2213   21.9879 C   0  0  2  0  0  0  0  0  0  0  0  0
    7.8492  -15.5048   21.3806 N   0  0  0  0  0  0  0  0  0  0  0  0
    7.8584  -14.2377   23.4534 C   0  0  0  0  0  0  0  0  0  0  0  0
    7.0301  -15.0489   23.9373 O   0  0  0  0  0  0  0  0  0  0  0  0
    6.7023  -12.7868   27.5698 C   0  0  0  0  0  0  0  0  0  0  0  0
    6.9257  -12.9219   26.0794 C   0  0  1  0  0  0  0  0  0  0  0  0
    6.5912  -11.6197   25.3692 C   0  0  0  0  0  0  0  0  0  0  0  0
    8.3384  -13.3677   25.7702 C   0  0  2  0  0  0  0  0  0  0  0  0
    8.5644  -13.3852   24.3391 N   0  0  0  0  0  0  0  0  0  0  0  0
    8.5055  -14.7307   26.3448 C   0  0  0  0  0  0  0  0  0  0  0  0
    8.6333  -15.7228   25.5832 O   0  0  0  0  0  0  0  0  0  0  0  0
    8.5264  -14.9551   27.7124 O   0  0  0  0  0  0  0  0  0  0  0  0
  1  2  1  0
  2  3  2  0
  4  2  1  0
  5  4  1  0
  5  6  1  6
  7  5  1  0
  7 11  1  0
  8  7  2  0
 10 12  1  0
 10 11  1  0
 10  9  1  6
 12 18  1  0
 13 12  2  0
 15 16  1  6
 15 14  1  0
 17 15  1  0
 17 18  1  6
 19 21  1  0
 19 17  1  0
 20 19  2  0
M  END
$$$$
