NAV.pdb
     RDKit          3D

 21 20  0  0  1  0  0  0  0  0999 V2000
    5.7839  -18.6180   15.3952 N   0  0  0  0  0  0  0  0  0  0  0  0
    6.6023  -17.4808   15.2096 C   0  0  0  0  0  0  0  0  0  0  0  0
    6.4522  -16.7885   14.1860 O   0  0  0  0  0  0  0  0  0  0  0  0
    7.6064  -17.1693   16.2541 C   0  0  0  0  0  0  0  0  0  0  0  0
    8.2053  -15.7918   16.0672 C   0  0  2  0  0  0  0  0  0  0  0  0
    9.2638  -15.8815   15.1093 N   0  0  0  0  0  0  0  0  0  0  0  0
    8.6709  -15.3232   17.3978 C   0  0  0  0  0  0  0  0  0  0  0  0
    9.7129  -15.8385   17.8786 O   0  0  0  0  0  0  0  0  0  0  0  0
    7.5452  -12.8144   19.9295 C   0  0  0  0  0  0  0  0  0  0  0  0
    8.4984  -13.9033   19.4185 C   0  0  2  0  0  0  0  0  0  0  0  0
    7.9918  -14.3231   18.1448 N   0  0  0  0  0  0  0  0  0  0  0  0
    8.4781  -14.9769   20.4335 C   0  0  0  0  0  0  0  0  0  0  0  0
    7.4766  -15.7340   20.4781 O   0  0  0  0  0  0  0  0  0  0  0  0
   11.2428  -17.6355   21.3215 C   0  0  0  0  0  0  0  0  0  0  0  0
   10.8405  -16.8606   22.5572 C   0  0  1  0  0  0  0  0  0  0  0  0
   11.9010  -15.8296   22.9097 C   0  0  0  0  0  0  0  0  0  0  0  0
    9.4829  -16.2142   22.3867 C   0  0  2  0  0  0  0  0  0  0  0  0
    9.5306  -15.1949   21.3580 N   0  0  0  0  0  0  0  0  0  0  0  0
    9.1111  -15.6184   23.6992 C   0  0  0  0  0  0  0  0  0  0  0  0
    9.0972  -14.3692   23.8413 O   0  0  0  0  0  0  0  0  0  0  0  0
    8.7729  -16.4001   24.7927 O   0  0  0  0  0  0  0  0  0  0  0  0
  1  2  1  0
  2  3  2  0
  4  2  1  0
  5  4  1  0
  5  6  1  6
  7  5  1  0
  7 11  1  0
  8  7  2  0
 10 12  1  0
 10 11  1  0
 10  9  1  1
 12 18  1  0
 13 12  2  0
 15 16  1  6
 15 14  1  0
 17 15  1  0
 17 18  1  6
 19 21  1  0
 19 17  1  0
 20 19  2  0
M  END
$$$$
