MPP.pdb
     RDKit          3D

 23 24  0  0  1  0  0  0  0  0999 V2000
   19.9470  -17.1392  -16.4916 C   0  0  0  0  0  0  0  0  0  0  0  0
   20.1003  -18.2500  -15.0858 S   0  0  0  0  0  0  0  0  0  0  0  0
   21.7028  -19.0939  -15.0757 C   0  0  0  0  0  0  0  0  0  0  0  0
   21.8512  -19.9520  -16.3196 C   0  0  0  0  0  0  0  0  0  0  0  0
   23.2656  -19.8417  -16.8591 C   0  0  2  0  0  0  0  0  0  0  0  0
   23.3060  -20.5685  -18.0848 N   0  0  0  0  0  0  0  0  0  0  0  0
   24.2784  -20.1692  -15.8633 C   0  0  0  0  0  0  0  0  0  0  0  0
   24.4892  -21.4193  -15.6609 O   0  0  0  0  0  0  0  0  0  0  0  0
   25.0594  -19.2710  -15.0902 N   0  0  0  0  0  0  0  0  0  0  0  0
   25.0460  -17.8272  -14.9948 C   0  0  0  0  0  0  0  0  0  0  0  0
   26.5262  -17.5336  -15.2317 C   0  0  0  0  0  0  0  0  0  0  0  0
   27.1480  -18.5761  -14.3342 C   0  0  0  0  0  0  0  0  0  0  0  0
   26.1104  -19.6905  -14.2013 C   0  0  1  0  0  0  0  0  0  0  0  0
   25.7563  -19.9451  -12.8095 C   0  0  0  0  0  0  0  0  0  0  0  0
   24.7111  -19.3163  -12.3719 O   0  0  0  0  0  0  0  0  0  0  0  0
   26.4002  -20.7890  -11.8526 N   0  0  0  0  0  0  0  0  0  0  0  0
   27.5965  -21.5544  -12.0487 C   0  0  0  0  0  0  0  0  0  0  0  0
   27.6399  -22.5550  -10.8840 C   0  0  0  0  0  0  0  0  0  0  0  0
   26.9869  -21.7663   -9.7918 C   0  0  0  0  0  0  0  0  0  0  0  0
   25.9226  -20.9880  -10.4962 C   0  0  1  0  0  0  0  0  0  0  0  0
   25.6776  -19.6975   -9.7871 C   0  0  0  0  0  0  0  0  0  0  0  0
   24.8457  -19.6311   -8.7059 O   0  0  0  0  0  0  0  0  0  0  0  0
   26.2517  -18.6736  -10.2068 O   0  0  0  0  0  0  0  0  0  0  0  0
  2  1  1  0
  3  2  1  0
  4  3  1  0
  5  7  1  0
  5  4  1  0
  5  6  1  6
  7  9  1  0
  8  7  2  0
  9 10  1  0
  9 13  1  0
 10 11  1  0
 11 12  1  0
 13 12  1  0
 14 16  1  0
 13 14  1  1
 15 14  2  0
 16 17  1  0
 18 17  1  0
 19 18  1  0
 20 21  1  1
 20 16  1  0
 20 19  1  0
 21 22  1  0
 23 21  2  0
M  END
$$$$
