MPP.pdb
     RDKit          3D

 23 24  0  0  1  0  0  0  0  0999 V2000
   25.3564  -26.2066  -18.4365 C   0  0  0  0  0  0  0  0  0  0  0  0
   25.9886  -26.5456  -16.7875 S   0  0  0  0  0  0  0  0  0  0  0  0
   27.0245  -25.1898  -16.1800 C   0  0  0  0  0  0  0  0  0  0  0  0
   28.4366  -25.6844  -15.9214 C   0  0  0  0  0  0  0  0  0  0  0  0
   29.2535  -25.6096  -17.1984 C   0  0  2  0  0  0  0  0  0  0  0  0
   30.4901  -26.2723  -16.9459 N   0  0  0  0  0  0  0  0  0  0  0  0
   29.3268  -24.2604  -17.7451 C   0  0  0  0  0  0  0  0  0  0  0  0
   30.2939  -23.5301  -17.3214 O   0  0  0  0  0  0  0  0  0  0  0  0
   28.4563  -23.6573  -18.6902 N   0  0  0  0  0  0  0  0  0  0  0  0
   27.2818  -24.1609  -19.3690 C   0  0  0  0  0  0  0  0  0  0  0  0
   27.6543  -23.8381  -20.8148 C   0  0  0  0  0  0  0  0  0  0  0  0
   28.1680  -22.4287  -20.6457 C   0  0  0  0  0  0  0  0  0  0  0  0
   28.6286  -22.3198  -19.1923 C   0  0  1  0  0  0  0  0  0  0  0  0
   27.9516  -21.2398  -18.4833 C   0  0  0  0  0  0  0  0  0  0  0  0
   26.8712  -21.5740  -17.8506 O   0  0  0  0  0  0  0  0  0  0  0  0
   28.3069  -19.8588  -18.3878 N   0  0  0  0  0  0  0  0  0  0  0  0
   29.4797  -19.2337  -18.9256 C   0  0  0  0  0  0  0  0  0  0  0  0
   29.5724  -17.8668  -18.2307 C   0  0  0  0  0  0  0  0  0  0  0  0
   28.1256  -17.5382  -18.0302 C   0  0  0  0  0  0  0  0  0  0  0  0
   27.4961  -18.8577  -17.7185 C   0  0  1  0  0  0  0  0  0  0  0  0
   26.0786  -18.8721  -18.1862 C   0  0  0  0  0  0  0  0  0  0  0  0
   25.0730  -18.3672  -17.4120 O   0  0  0  0  0  0  0  0  0  0  0  0
   25.8300  -19.3598  -19.3062 O   0  0  0  0  0  0  0  0  0  0  0  0
  2  1  1  0
  3  2  1  0
  4  3  1  0
  5  7  1  0
  5  4  1  0
  5  6  1  1
  7  9  1  0
  8  7  2  0
  9 10  1  0
  9 13  1  0
 10 11  1  0
 11 12  1  0
 13 12  1  0
 14 16  1  0
 13 14  1  1
 15 14  2  0
 16 17  1  0
 18 17  1  0
 19 18  1  0
 20 21  1  6
 20 16  1  0
 20 19  1  0
 21 22  1  0
 23 21  2  0
M  END
$$$$
