NDW.pdb
     RDKit          3D

 31 32  0  0  1  0  0  0  0  0999 V2000
    6.6860  -21.9937   24.2296 N   0  0  0  0  0  0  0  0  0  0  0  0
    6.6254  -20.6414   24.6223 C   0  0  0  0  0  0  0  0  0  0  0  0
    5.7835  -20.3425   25.5336 O   0  0  0  0  0  0  0  0  0  0  0  0
    7.4283  -19.5401   24.0978 C   0  0  0  0  0  0  0  0  0  0  0  0
    8.4304  -19.9045   23.0499 C   0  0  2  0  0  0  0  0  0  0  0  0
    9.2801  -21.0059   23.3661 N   0  0  0  0  0  0  0  0  0  0  0  0
    9.2043  -18.7503   22.5218 C   0  0  0  0  0  0  0  0  0  0  0  0
   10.4462  -18.7282   22.4581 O   0  0  0  0  0  0  0  0  0  0  0  0
    8.4719  -17.6127   22.0681 N   0  0  0  0  0  0  0  0  0  0  0  0
    9.0475  -16.2899   21.9058 C   0  0  1  0  0  0  0  0  0  0  0  0
    8.0992  -15.2886   21.3293 C   0  0  0  0  0  0  0  0  0  0  0  0
    7.5137  -15.7839   20.0620 C   0  0  0  0  0  0  0  0  0  0  0  0
    6.3369  -15.5430   19.7693 O   0  0  0  0  0  0  0  0  0  0  0  0
    9.5044  -15.8295   23.2501 C   0  0  0  0  0  0  0  0  0  0  0  0
   10.0220  -14.7028   23.3730 O   0  0  0  0  0  0  0  0  0  0  0  0
    8.2532  -16.5381   19.1530 O   0  0  0  0  0  0  0  0  0  0  0  0
    9.3585  -16.6498   24.3871 N   0  0  0  0  0  0  0  0  0  0  0  0
    9.8281  -16.1092   25.6851 C   0  0  1  0  0  0  0  0  0  0  0  0
    8.6204  -16.1987   26.5750 C   0  0  0  0  0  0  0  0  0  0  0  0
    7.5521  -15.2340   26.3062 C   0  0  0  0  0  0  0  0  0  0  0  0
    6.2517  -15.5725   25.9045 C   0  0  0  0  0  0  0  0  0  0  0  0
    5.5754  -14.4350   25.7403 N   0  0  0  0  0  0  0  0  0  0  0  0
    6.3707  -13.3738   26.0174 C   0  0  0  0  0  0  0  0  0  0  0  0
    6.1170  -12.0190   26.0011 C   0  0  0  0  0  0  0  0  0  0  0  0
    7.0973  -11.1042   26.3436 C   0  0  0  0  0  0  0  0  0  0  0  0
    8.3288  -11.5918   26.6994 C   0  0  0  0  0  0  0  0  0  0  0  0
    8.5769  -12.9346   26.7131 C   0  0  0  0  0  0  0  0  0  0  0  0
    7.6061  -13.8523   26.3726 C   0  0  0  0  0  0  0  0  0  0  0  0
   10.9910  -16.8368   26.1905 C   0  0  0  0  0  0  0  0  0  0  0  0
   11.6380  -17.8688   25.5450 O   0  0  0  0  0  0  0  0  0  0  0  0
   11.4858  -16.5178   27.3390 O   0  0  0  0  0  0  0  0  0  0  0  0
  2  1  1  0
  2  3  2  0
  4  2  1  0
  5  4  1  0
  5  6  1  1
  7  5  1  0
  8  7  2  0
  9  7  1  0
 10  9  1  0
 10 11  1  1
 12 11  1  0
 13 12  2  0
 14 15  2  0
 14 10  1  0
 16 12  1  0
 17 14  1  0
 18 19  1  1
 18 17  1  0
 20 28  1  0
 20 19  1  0
 21 20  2  0
 22 21  1  0
 22 23  1  0
 23 28  2  0
 24 23  1  0
 24 25  2  0
 25 26  1  0
 26 27  2  0
 28 27  1  0
 29 18  1  0
 30 29  1  0
 31 29  2  0
M  END
$$$$
