NDW.pdb
     RDKit          3D

 31 32  0  0  1  0  0  0  0  0999 V2000
    6.5432  -17.0176   17.6988 N   0  0  0  0  0  0  0  0  0  0  0  0
    6.8209  -16.3319   18.8985 C   0  0  0  0  0  0  0  0  0  0  0  0
    6.5814  -15.0786   18.9153 O   0  0  0  0  0  0  0  0  0  0  0  0
    7.3537  -16.9047   20.1316 C   0  0  0  0  0  0  0  0  0  0  0  0
    8.2958  -16.0355   20.9011 C   0  0  2  0  0  0  0  0  0  0  0  0
    9.1649  -15.2216   20.1152 N   0  0  0  0  0  0  0  0  0  0  0  0
    9.0355  -16.7452   21.9776 C   0  0  0  0  0  0  0  0  0  0  0  0
    8.4803  -17.4276   22.8568 O   0  0  0  0  0  0  0  0  0  0  0  0
   10.4577  -16.6283   21.9932 N   0  0  0  0  0  0  0  0  0  0  0  0
   11.3145  -17.2855   22.9634 C   0  0  1  0  0  0  0  0  0  0  0  0
   12.7683  -17.2217   22.6219 C   0  0  0  0  0  0  0  0  0  0  0  0
   13.1527  -18.3448   21.7358 C   0  0  0  0  0  0  0  0  0  0  0  0
   12.3544  -19.2535   21.4797 O   0  0  0  0  0  0  0  0  0  0  0  0
   11.0824  -16.6319   24.2851 C   0  0  0  0  0  0  0  0  0  0  0  0
   11.5312  -15.4887   24.4950 O   0  0  0  0  0  0  0  0  0  0  0  0
   14.4184  -18.4292   21.1588 O   0  0  0  0  0  0  0  0  0  0  0  0
   10.3603  -17.2876   25.3028 N   0  0  0  0  0  0  0  0  0  0  0  0
   10.5554  -16.8136   26.6937 C   0  0  1  0  0  0  0  0  0  0  0  0
   10.0118  -15.4126   26.6805 C   0  0  0  0  0  0  0  0  0  0  0  0
    8.6054  -15.2734   26.2974 C   0  0  0  0  0  0  0  0  0  0  0  0
    7.7071  -16.3407   26.1520 C   0  0  0  0  0  0  0  0  0  0  0  0
    6.5343  -15.8276   25.7785 N   0  0  0  0  0  0  0  0  0  0  0  0
    6.6247  -14.4797   25.6761 C   0  0  0  0  0  0  0  0  0  0  0  0
    5.6854  -13.5288   25.3388 C   0  0  0  0  0  0  0  0  0  0  0  0
    6.0075  -12.1831   25.3154 C   0  0  0  0  0  0  0  0  0  0  0  0
    7.2922  -11.8287   25.6392 C   0  0  0  0  0  0  0  0  0  0  0  0
    8.2204  -12.7737   25.9715 C   0  0  0  0  0  0  0  0  0  0  0  0
    7.9078  -14.1161   25.9964 C   0  0  0  0  0  0  0  0  0  0  0  0
    9.9056  -17.6915   27.6654 C   0  0  0  0  0  0  0  0  0  0  0  0
   10.0165  -17.5970   29.0363 O   0  0  0  0  0  0  0  0  0  0  0  0
    9.1550  -18.6536   27.2451 O   0  0  0  0  0  0  0  0  0  0  0  0
  2  1  1  0
  2  3  2  0
  4  2  1  0
  5  4  1  0
  5  6  1  6
  7  5  1  0
  8  7  2  0
  9  7  1  0
 10  9  1  0
 10 11  1  6
 12 11  1  0
 13 12  2  0
 14 15  2  0
 14 10  1  0
 16 12  1  0
 17 14  1  0
 18 19  1  6
 18 17  1  0
 20 28  1  0
 20 19  1  0
 21 20  2  0
 22 21  1  0
 22 23  1  0
 23 28  2  0
 24 23  1  0
 24 25  2  0
 25 26  1  0
 26 27  2  0
 28 27  1  0
 29 18  1  0
 30 29  1  0
 31 29  2  0
M  END
$$$$
