NDW.pdb
     RDKit          3D

 31 32  0  0  1  0  0  0  0  0999 V2000
    8.7158  -14.3087   17.7151 N   0  0  0  0  0  0  0  0  0  0  0  0
    7.5480  -14.9748   18.1384 C   0  0  0  0  0  0  0  0  0  0  0  0
    6.7140  -15.3091   17.2322 O   0  0  0  0  0  0  0  0  0  0  0  0
    7.1888  -15.3275   19.5092 C   0  0  0  0  0  0  0  0  0  0  0  0
    8.1943  -14.9759   20.5583 C   0  0  2  0  0  0  0  0  0  0  0  0
    9.3617  -14.3017   20.0919 N   0  0  0  0  0  0  0  0  0  0  0  0
    8.5381  -16.0981   21.4706 C   0  0  0  0  0  0  0  0  0  0  0  0
    7.6932  -16.7332   22.1261 O   0  0  0  0  0  0  0  0  0  0  0  0
    9.9144  -16.4551   21.5934 N   0  0  0  0  0  0  0  0  0  0  0  0
   10.4225  -17.4007   22.5707 C   0  0  1  0  0  0  0  0  0  0  0  0
   11.8399  -17.8099   22.3303 C   0  0  0  0  0  0  0  0  0  0  0  0
   12.1918  -18.9977   23.1424 C   0  0  0  0  0  0  0  0  0  0  0  0
   11.3317  -19.5952   23.7996 O   0  0  0  0  0  0  0  0  0  0  0  0
   10.3074  -16.7638   23.9157 C   0  0  0  0  0  0  0  0  0  0  0  0
   10.8871  -15.6837   24.1383 O   0  0  0  0  0  0  0  0  0  0  0  0
   13.4944  -19.4891   23.2047 O   0  0  0  0  0  0  0  0  0  0  0  0
    9.5503  -17.3650   24.9415 N   0  0  0  0  0  0  0  0  0  0  0  0
    9.6384  -16.7684   26.2957 C   0  0  1  0  0  0  0  0  0  0  0  0
    8.2045  -16.5773   26.7033 C   0  0  0  0  0  0  0  0  0  0  0  0
    7.4711  -15.5254   25.9963 C   0  0  0  0  0  0  0  0  0  0  0  0
    6.5590  -15.7489   24.9545 C   0  0  0  0  0  0  0  0  0  0  0  0
    6.1118  -14.5585   24.5529 N   0  0  0  0  0  0  0  0  0  0  0  0
    6.6860  -13.5724   25.2833 C   0  0  0  0  0  0  0  0  0  0  0  0
    6.5301  -12.2033   25.2434 C   0  0  0  0  0  0  0  0  0  0  0  0
    7.2223  -11.3797   26.1138 C   0  0  0  0  0  0  0  0  0  0  0  0
    8.0678  -11.9721   27.0166 C   0  0  0  0  0  0  0  0  0  0  0  0
    8.2207  -13.3286   27.0523 C   0  0  0  0  0  0  0  0  0  0  0  0
    7.5355  -14.1560   26.1883 C   0  0  0  0  0  0  0  0  0  0  0  0
   10.4075  -17.6080   27.2127 C   0  0  0  0  0  0  0  0  0  0  0  0
   11.0168  -18.8023   26.8919 O   0  0  0  0  0  0  0  0  0  0  0  0
   10.5515  -17.2359   28.4401 O   0  0  0  0  0  0  0  0  0  0  0  0
  2  1  1  0
  2  3  2  0
  4  2  1  0
  5  4  1  0
  5  6  1  6
  7  5  1  0
  8  7  2  0
  9  7  1  0
 10  9  1  0
 10 11  1  6
 12 11  1  0
 13 12  2  0
 14 15  2  0
 14 10  1  0
 16 12  1  0
 17 14  1  0
 18 19  1  1
 18 17  1  0
 20 28  1  0
 20 19  1  0
 21 20  2  0
 22 21  1  0
 22 23  1  0
 23 28  2  0
 24 23  1  0
 24 25  2  0
 25 26  1  0
 26 27  2  0
 28 27  1  0
 29 18  1  0
 30 29  1  0
 31 29  2  0
M  END
$$$$
