NDW.pdb
     RDKit          3D

 31 32  0  0  1  0  0  0  0  0999 V2000
    7.9853  -11.9749   17.9924 N   0  0  0  0  0  0  0  0  0  0  0  0
    7.8408  -13.3766   17.9647 C   0  0  0  0  0  0  0  0  0  0  0  0
    7.7923  -13.9290   16.8153 O   0  0  0  0  0  0  0  0  0  0  0  0
    7.7423  -14.2700   19.1157 C   0  0  0  0  0  0  0  0  0  0  0  0
    9.0403  -14.7206   19.7049 C   0  0  2  0  0  0  0  0  0  0  0  0
    9.9827  -15.2605   18.7799 N   0  0  0  0  0  0  0  0  0  0  0  0
    8.8950  -15.5851   20.9055 C   0  0  0  0  0  0  0  0  0  0  0  0
    8.0243  -15.4098   21.7760 O   0  0  0  0  0  0  0  0  0  0  0  0
    9.8103  -16.6696   21.0565 N   0  0  0  0  0  0  0  0  0  0  0  0
    9.7820  -17.6057   22.1656 C   0  0  1  0  0  0  0  0  0  0  0  0
   10.6851  -18.7825   21.9819 C   0  0  0  0  0  0  0  0  0  0  0  0
   10.5367  -19.3554   20.6239 C   0  0  0  0  0  0  0  0  0  0  0  0
    9.4806  -19.2295   19.9935 O   0  0  0  0  0  0  0  0  0  0  0  0
   10.1783  -16.8588   23.3957 C   0  0  0  0  0  0  0  0  0  0  0  0
   11.0030  -15.9285   23.3134 O   0  0  0  0  0  0  0  0  0  0  0  0
   11.5680  -20.0572   20.0027 O   0  0  0  0  0  0  0  0  0  0  0  0
    9.6324  -17.1881   24.6529 N   0  0  0  0  0  0  0  0  0  0  0  0
   10.2244  -16.5386   25.8467 C   0  0  1  0  0  0  0  0  0  0  0  0
    9.7863  -15.1053   25.7361 C   0  0  0  0  0  0  0  0  0  0  0  0
    8.3407  -14.8730   25.7509 C   0  0  0  0  0  0  0  0  0  0  0  0
    7.3699  -15.8616   25.5330 C   0  0  0  0  0  0  0  0  0  0  0  0
    6.1761  -15.2718   25.6047 N   0  0  0  0  0  0  0  0  0  0  0  0
    6.3222  -13.9494   25.8607 C   0  0  0  0  0  0  0  0  0  0  0  0
    5.3901  -12.9483   26.0320 C   0  0  0  0  0  0  0  0  0  0  0  0
    5.7794  -11.6489   26.3060 C   0  0  0  0  0  0  0  0  0  0  0  0
    7.1231  -11.3919   26.4014 C   0  0  0  0  0  0  0  0  0  0  0  0
    8.0436  -12.3859   26.2298 C   0  0  0  0  0  0  0  0  0  0  0  0
    7.6642  -13.6827   25.9558 C   0  0  0  0  0  0  0  0  0  0  0  0
    9.8066  -17.1913   27.0863 C   0  0  0  0  0  0  0  0  0  0  0  0
    8.9383  -18.2578   27.1818 O   0  0  0  0  0  0  0  0  0  0  0  0
   10.2662  -16.7610   28.2130 O   0  0  0  0  0  0  0  0  0  0  0  0
  2  1  1  0
  2  3  2  0
  4  2  1  0
  5  4  1  0
  5  6  1  6
  7  5  1  0
  8  7  2  0
  9  7  1  0
 10  9  1  0
 10 11  1  6
 12 11  1  0
 13 12  2  0
 14 15  2  0
 14 10  1  0
 16 12  1  0
 17 14  1  0
 18 19  1  1
 18 17  1  0
 20 28  1  0
 20 19  1  0
 21 20  2  0
 22 21  1  0
 22 23  1  0
 23 28  2  0
 24 23  1  0
 24 25  2  0
 25 26  1  0
 26 27  2  0
 28 27  1  0
 29 18  1  0
 30 29  1  0
 31 29  2  0
M  END
$$$$
