NDW.pdb
     RDKit          3D

 31 32  0  0  1  0  0  0  0  0999 V2000
   12.7768  -16.1136   16.1758 N   0  0  0  0  0  0  0  0  0  0  0  0
   11.7297  -16.9315   16.6460 C   0  0  0  0  0  0  0  0  0  0  0  0
   11.6118  -18.0832   16.1093 O   0  0  0  0  0  0  0  0  0  0  0  0
   10.7614  -16.6021   17.6884 C   0  0  0  0  0  0  0  0  0  0  0  0
   11.0765  -17.1145   19.0571 C   0  0  2  0  0  0  0  0  0  0  0  0
   11.3809  -18.5057   19.1395 N   0  0  0  0  0  0  0  0  0  0  0  0
   10.0980  -16.7057   20.0990 C   0  0  0  0  0  0  0  0  0  0  0  0
    9.7156  -15.5331   20.2590 O   0  0  0  0  0  0  0  0  0  0  0  0
    9.5783  -17.7218   20.9558 N   0  0  0  0  0  0  0  0  0  0  0  0
    8.6546  -17.4681   22.0465 C   0  0  1  0  0  0  0  0  0  0  0  0
    7.9849  -18.6996   22.5655 C   0  0  0  0  0  0  0  0  0  0  0  0
    8.9737  -19.7747   22.8118 C   0  0  0  0  0  0  0  0  0  0  0  0
    8.6129  -20.9486   22.9556 O   0  0  0  0  0  0  0  0  0  0  0  0
    9.4246  -16.8165   23.1466 C   0  0  0  0  0  0  0  0  0  0  0  0
   10.2285  -15.9029   22.8795 O   0  0  0  0  0  0  0  0  0  0  0  0
   10.3404  -19.5152   22.8945 O   0  0  0  0  0  0  0  0  0  0  0  0
    9.2563  -17.2176   24.4874 N   0  0  0  0  0  0  0  0  0  0  0  0
   10.1021  -16.5569   25.5101 C   0  0  1  0  0  0  0  0  0  0  0  0
    9.7291  -15.1047   25.4080 C   0  0  0  0  0  0  0  0  0  0  0  0
    8.3134  -14.7899   25.6104 C   0  0  0  0  0  0  0  0  0  0  0  0
    7.2767  -15.7345   25.6114 C   0  0  0  0  0  0  0  0  0  0  0  0
    6.1347  -15.0740   25.8061 N   0  0  0  0  0  0  0  0  0  0  0  0
    6.3776  -13.7473   25.9341 C   0  0  0  0  0  0  0  0  0  0  0  0
    5.5278  -12.6850   26.1574 C   0  0  0  0  0  0  0  0  0  0  0  0
    6.0125  -11.3938   26.2704 C   0  0  0  0  0  0  0  0  0  0  0  0
    7.3662  -11.2076   26.1527 C   0  0  0  0  0  0  0  0  0  0  0  0
    8.2048  -12.2622   25.9302 C   0  0  0  0  0  0  0  0  0  0  0  0
    7.7299  -13.5514   25.8157 C   0  0  0  0  0  0  0  0  0  0  0  0
    9.8971  -17.1287   26.8398 C   0  0  0  0  0  0  0  0  0  0  0  0
    8.9478  -18.0711   27.1735 O   0  0  0  0  0  0  0  0  0  0  0  0
   10.6482  -16.7433   27.8161 O   0  0  0  0  0  0  0  0  0  0  0  0
  2  1  1  0
  2  3  2  0
  4  2  1  0
  5  4  1  0
  5  6  1  6
  7  5  1  0
  8  7  2  0
  9  7  1  0
 10  9  1  0
 10 11  1  1
 12 11  1  0
 13 12  2  0
 14 15  2  0
 14 10  1  0
 16 12  1  0
 17 14  1  0
 18 19  1  1
 18 17  1  0
 20 28  1  0
 20 19  1  0
 21 20  2  0
 22 21  1  0
 22 23  1  0
 23 28  2  0
 24 23  1  0
 24 25  2  0
 25 26  1  0
 26 27  2  0
 28 27  1  0
 29 18  1  0
 30 29  1  0
 31 29  2  0
M  END
$$$$
