NDW.pdb
     RDKit          3D

 31 32  0  0  1  0  0  0  0  0999 V2000
    9.1688  -13.7156   16.8895 N   0  0  0  0  0  0  0  0  0  0  0  0
    7.8577  -13.8775   17.3807 C   0  0  0  0  0  0  0  0  0  0  0  0
    6.9142  -13.8656   16.5215 O   0  0  0  0  0  0  0  0  0  0  0  0
    7.4607  -14.0609   18.7740 C   0  0  0  0  0  0  0  0  0  0  0  0
    8.5729  -14.0757   19.7729 C   0  0  2  0  0  0  0  0  0  0  0  0
    9.8693  -13.7794   19.2564 N   0  0  0  0  0  0  0  0  0  0  0  0
    8.5927  -15.2814   20.6423 C   0  0  0  0  0  0  0  0  0  0  0  0
    7.5852  -15.7286   21.2184 O   0  0  0  0  0  0  0  0  0  0  0  0
    9.8402  -15.9516   20.8185 N   0  0  0  0  0  0  0  0  0  0  0  0
   10.0460  -17.0516   21.7431 C   0  0  1  0  0  0  0  0  0  0  0  0
   11.0974  -18.0183   21.3024 C   0  0  0  0  0  0  0  0  0  0  0  0
   10.7809  -18.5696   19.9645 C   0  0  0  0  0  0  0  0  0  0  0  0
    9.8290  -19.3424   19.8050 O   0  0  0  0  0  0  0  0  0  0  0  0
   10.4266  -16.4661   23.0623 C   0  0  0  0  0  0  0  0  0  0  0  0
   11.2092  -15.4976   23.1043 O   0  0  0  0  0  0  0  0  0  0  0  0
   11.5345  -18.2483   18.8372 O   0  0  0  0  0  0  0  0  0  0  0  0
    9.9129  -16.9911   24.2654 N   0  0  0  0  0  0  0  0  0  0  0  0
   10.3111  -16.3238   25.5277 C   0  0  1  0  0  0  0  0  0  0  0  0
    9.8878  -14.8950   25.3334 C   0  0  0  0  0  0  0  0  0  0  0  0
    8.4750  -14.6041   25.5858 C   0  0  0  0  0  0  0  0  0  0  0  0
    7.4343  -15.5376   25.4739 C   0  0  0  0  0  0  0  0  0  0  0  0
    6.2967  -14.9039   25.7608 N   0  0  0  0  0  0  0  0  0  0  0  0
    6.5461  -13.6053   26.0560 C   0  0  0  0  0  0  0  0  0  0  0  0
    5.7026  -12.5778   26.4205 C   0  0  0  0  0  0  0  0  0  0  0  0
    6.1936  -11.3133   26.6943 C   0  0  0  0  0  0  0  0  0  0  0  0
    7.5472  -11.1180   26.5907 C   0  0  0  0  0  0  0  0  0  0  0  0
    8.3796  -12.1380   26.2281 C   0  0  0  0  0  0  0  0  0  0  0  0
    7.8984  -13.4003   25.9529 C   0  0  0  0  0  0  0  0  0  0  0  0
    9.7114  -16.9651   26.6966 C   0  0  0  0  0  0  0  0  0  0  0  0
    9.9942  -16.6668   28.0125 O   0  0  0  0  0  0  0  0  0  0  0  0
    8.8371  -17.8991   26.5259 O   0  0  0  0  0  0  0  0  0  0  0  0
  2  1  1  0
  2  3  2  0
  4  2  1  0
  5  4  1  0
  5  6  1  6
  7  5  1  0
  8  7  2  0
  9  7  1  0
 10  9  1  0
 10 11  1  6
 12 11  1  0
 13 12  2  0
 14 15  2  0
 14 10  1  0
 16 12  1  0
 17 14  1  0
 18 19  1  6
 18 17  1  0
 20 28  1  0
 20 19  1  0
 21 20  2  0
 22 21  1  0
 22 23  1  0
 23 28  2  0
 24 23  1  0
 24 25  2  0
 25 26  1  0
 26 27  2  0
 28 27  1  0
 29 18  1  0
 30 29  1  0
 31 29  2  0
M  END
$$$$
