NDW.pdb
     RDKit          3D

 31 32  0  0  1  0  0  0  0  0999 V2000
   12.1666  -18.4482   17.7878 N   0  0  0  0  0  0  0  0  0  0  0  0
   13.2837  -17.6008   17.9306 C   0  0  0  0  0  0  0  0  0  0  0  0
   13.8618  -17.2226   16.8576 O   0  0  0  0  0  0  0  0  0  0  0  0
   13.8526  -17.1044   19.1807 C   0  0  0  0  0  0  0  0  0  0  0  0
   13.1685  -17.5525   20.4322 C   0  0  2  0  0  0  0  0  0  0  0  0
   12.8318  -18.9376   20.4886 N   0  0  0  0  0  0  0  0  0  0  0  0
   12.0253  -16.6943   20.8403 C   0  0  0  0  0  0  0  0  0  0  0  0
   12.0999  -15.4575   20.9482 O   0  0  0  0  0  0  0  0  0  0  0  0
   10.7820  -17.3357   21.1219 N   0  0  0  0  0  0  0  0  0  0  0  0
    9.6568  -16.6777   21.7609 C   0  0  1  0  0  0  0  0  0  0  0  0
    8.3299  -17.2494   21.3781 C   0  0  0  0  0  0  0  0  0  0  0  0
    8.3122  -17.6314   19.9470 C   0  0  0  0  0  0  0  0  0  0  0  0
    8.1923  -18.8140   19.6068 O   0  0  0  0  0  0  0  0  0  0  0  0
    9.8449  -16.7956   23.2369 C   0  0  0  0  0  0  0  0  0  0  0  0
    9.8634  -17.9224   23.7681 O   0  0  0  0  0  0  0  0  0  0  0  0
    8.4312  -16.6863   18.9298 O   0  0  0  0  0  0  0  0  0  0  0  0
   10.0039  -15.6500   24.0426 N   0  0  0  0  0  0  0  0  0  0  0  0
    9.8675  -15.8210   25.5088 C   0  0  1  0  0  0  0  0  0  0  0  0
    8.4463  -16.2737   25.6919 C   0  0  0  0  0  0  0  0  0  0  0  0
    7.4663  -15.2194   25.9608 C   0  0  0  0  0  0  0  0  0  0  0  0
    6.0965  -15.4359   26.1704 C   0  0  0  0  0  0  0  0  0  0  0  0
    5.5289  -14.2448   26.3637 N   0  0  0  0  0  0  0  0  0  0  0  0
    6.4618  -13.2649   26.2926 C   0  0  0  0  0  0  0  0  0  0  0  0
    6.3571  -11.8980   26.4370 C   0  0  0  0  0  0  0  0  0  0  0  0
    7.4700  -11.0816   26.3368 C   0  0  0  0  0  0  0  0  0  0  0  0
    8.6795  -11.6789   26.0890 C   0  0  0  0  0  0  0  0  0  0  0  0
    8.7791  -13.0332   25.9451 C   0  0  0  0  0  0  0  0  0  0  0  0
    7.6753  -13.8534   26.0428 C   0  0  0  0  0  0  0  0  0  0  0  0
   10.8591  -16.7524   26.0440 C   0  0  0  0  0  0  0  0  0  0  0  0
   11.7703  -17.4728   25.3014 O   0  0  0  0  0  0  0  0  0  0  0  0
   10.9192  -16.9482   27.3183 O   0  0  0  0  0  0  0  0  0  0  0  0
  2  1  1  0
  2  3  2  0
  4  2  1  0
  5  4  1  0
  5  6  1  6
  7  5  1  0
  8  7  2  0
  9  7  1  0
 10  9  1  0
 10 11  1  6
 12 11  1  0
 13 12  2  0
 14 15  2  0
 14 10  1  0
 16 12  1  0
 17 14  1  0
 18 19  1  6
 18 17  1  0
 20 28  1  0
 20 19  1  0
 21 20  2  0
 22 21  1  0
 22 23  1  0
 23 28  2  0
 24 23  1  0
 24 25  2  0
 25 26  1  0
 26 27  2  0
 28 27  1  0
 29 18  1  0
 30 29  1  0
 31 29  2  0
M  END
$$$$
