RRC.pdb
     RDKit          3D

 29 28  0  0  1  0  0  0  0  0999 V2000
   11.7371  -21.3658    2.8796 N   0  0  0  0  0  0  0  0  0  0  0  0
   12.7433  -22.3041    3.2032 C   0  0  0  0  0  0  0  0  0  0  0  0
   12.4805  -23.5765    3.3620 N   0  0  0  0  0  0  0  0  0  0  0  0
   14.1059  -21.9608    3.3825 N   0  0  0  0  0  0  0  0  0  0  0  0
   14.5746  -20.6336    3.2860 C   0  0  0  0  0  0  0  0  0  0  0  0
   15.9729  -20.3936    3.7519 C   0  0  0  0  0  0  0  0  0  0  0  0
   16.0078  -19.1034    4.5417 C   0  0  0  0  0  0  0  0  0  0  0  0
   16.7224  -17.9998    3.8481 C   0  0  2  0  0  0  0  0  0  0  0  0
   17.2330  -18.4513    2.5871 N   0  0  0  0  0  0  0  0  0  0  0  0
   17.9071  -17.6412    4.7029 C   0  0  0  0  0  0  0  0  0  0  0  0
   19.0778  -18.0270    4.4004 O   0  0  0  0  0  0  0  0  0  0  0  0
   13.2789  -24.1955    3.5922 N   0  0  0  0  0  0  0  0  0  0  0  0
   21.1102  -11.4333    6.5035 C   0  0  0  0  0  0  0  0  0  0  0  0
   19.8419  -11.1076    5.9227 N   0  0  0  0  0  0  0  0  0  0  0  0
   19.8050  -10.3809    4.8635 N   0  0  0  0  0  0  0  0  0  0  0  0
   18.6220  -11.5609    6.4790 C   0  0  0  0  0  0  0  0  0  0  0  0
   18.5182  -12.7372    7.3004 C   0  0  0  0  0  0  0  0  0  0  0  0
   18.9111  -13.9939    6.5382 C   0  0  0  0  0  0  0  0  0  0  0  0
   18.5921  -15.1917    7.4062 C   0  0  2  0  0  0  0  0  0  0  0  0
   18.9192  -16.4900    6.7130 N   0  0  0  0  0  0  0  0  0  0  0  0
   17.7720  -16.8644    5.8739 C   0  0  0  0  0  0  0  0  0  0  0  0
   19.2553  -17.5670    7.6582 O   0  0  0  0  0  0  0  0  0  0  0  0
   18.3641  -18.2581    8.2067 N   0  0  0  0  0  0  0  0  0  0  0  0
   18.9017  -10.1579    4.4296 C   0  0  1  0  0  0  0  0  0  0  0  0
   20.6077  -17.8517    7.9735 C   0  0  0  0  0  0  0  0  0  0  0  0
   21.0150  -18.8532    8.9193 S   0  0  0  0  0  0  0  0  0  0  0  0
   21.9002  -19.8545    8.1646 C   0  0  0  0  0  0  0  0  0  0  0  0
   20.9418  -20.2980    6.6641 O   0  0  0  0  0  0  0  0  0  0  0  0
   21.6511  -18.3352   10.1230 O   0  0  0  0  0  0  0  0  0  0  0  0
  2  1  1  0
  2  3  2  0
  4  2  1  0
  5  4  1  0
  6  5  1  0
  7  6  1  0
  8  7  1  0
  8  9  1  6
 10  8  1  0
 10 11  2  0
 13 12  1  0
 14 13  2  0
 15 13  1  0
 16 15  1  0
 17 16  1  0
 17 18  1  0
 19 18  1  6
 19 20  1  0
 19 21  1  0
 20 10  1  0
 21 23  1  0
 22 21  2  0
 23 24  1  0
 24 27  1  0
 25 26  1  0
 24 25  1  1
 27 28  2  0
 27 29  1  0
M  END
$$$$
