RRC.pdb
     RDKit          3D

 29 28  0  0  1  0  0  0  0  0999 V2000
   25.3233  -19.8720  -14.5158 N   0  0  0  0  0  0  0  0  0  0  0  0
   25.5240  -21.2310  -14.1837 C   0  0  0  0  0  0  0  0  0  0  0  0
   26.4642  -21.9504  -14.7423 N   0  0  0  0  0  0  0  0  0  0  0  0
   24.7403  -21.9288  -13.2321 N   0  0  0  0  0  0  0  0  0  0  0  0
   23.6547  -21.3323  -12.5569 C   0  0  0  0  0  0  0  0  0  0  0  0
   23.6055  -21.5375  -11.0787 C   0  0  0  0  0  0  0  0  0  0  0  0
   22.3920  -20.8206  -10.5282 C   0  0  0  0  0  0  0  0  0  0  0  0
   21.1061  -21.3043  -11.0958 C   0  0  2  0  0  0  0  0  0  0  0  0
   20.6257  -20.3914  -12.0911 N   0  0  0  0  0  0  0  0  0  0  0  0
   20.1049  -21.3029   -9.9732 C   0  0  0  0  0  0  0  0  0  0  0  0
   19.4031  -20.2765   -9.7186 O   0  0  0  0  0  0  0  0  0  0  0  0
   26.5275  -22.9441  -14.4559 N   0  0  0  0  0  0  0  0  0  0  0  0
   12.7899  -21.3891   -9.4207 C   0  0  0  0  0  0  0  0  0  0  0  0
   13.5014  -22.0955   -8.3977 N   0  0  0  0  0  0  0  0  0  0  0  0
   13.1006  -22.0078   -7.1799 N   0  0  0  0  0  0  0  0  0  0  0  0
   14.6369  -22.8904   -8.6842 C   0  0  0  0  0  0  0  0  0  0  0  0
   15.4947  -22.6621   -9.8160 C   0  0  0  0  0  0  0  0  0  0  0  0
   16.4872  -23.7986  -10.0101 C   0  0  0  0  0  0  0  0  0  0  0  0
   17.8632  -23.1972  -10.1969 C   0  0  1  0  0  0  0  0  0  0  0  0
   18.5661  -22.9844   -8.8802 N   0  0  0  0  0  0  0  0  0  0  0  0
   19.9016  -22.4358   -9.1559 C   0  0  0  0  0  0  0  0  0  0  0  0
   18.6567  -24.2173   -8.0814 O   0  0  0  0  0  0  0  0  0  0  0  0
   19.0034  -25.3068   -8.5966 N   0  0  0  0  0  0  0  0  0  0  0  0
   13.6170  -22.4932   -6.4371 C   0  0  2  0  0  0  0  0  0  0  0  0
   18.3518  -24.2019   -6.6972 C   0  0  0  0  0  0  0  0  0  0  0  0
   18.3249  -25.3766   -5.8707 S   0  0  0  0  0  0  0  0  0  0  0  0
   18.2854  -24.9020   -4.4116 C   0  0  0  0  0  0  0  0  0  0  0  0
   18.4446  -26.4317   -3.4108 O   0  0  0  0  0  0  0  0  0  0  0  0
   17.2613  -26.3211   -6.1846 O   0  0  0  0  0  0  0  0  0  0  0  0
  2  1  1  0
  2  3  2  0
  4  2  1  0
  5  4  1  0
  6  5  1  0
  7  6  1  0
  8  7  1  0
  8  9  1  6
 10  8  1  0
 10 11  2  0
 13 12  1  0
 14 13  2  0
 15 13  1  0
 16 15  1  0
 17 16  1  0
 17 18  1  0
 19 18  1  1
 19 20  1  0
 19 21  1  0
 20 10  1  0
 21 23  1  0
 22 21  2  0
 23 24  1  0
 24 27  1  0
 25 26  1  0
 24 25  1  1
 27 28  2  0
 27 29  1  0
M  END
$$$$
