RRC.pdb
     RDKit          3D

 29 28  0  0  1  0  0  0  0  0999 V2000
   32.7443  -26.8585  -19.0403 N   0  0  0  0  0  0  0  0  0  0  0  0
   33.6298  -26.2991  -18.0915 C   0  0  0  0  0  0  0  0  0  0  0  0
   34.9282  -26.4328  -18.1905 N   0  0  0  0  0  0  0  0  0  0  0  0
   33.2023  -25.5547  -16.9647 N   0  0  0  0  0  0  0  0  0  0  0  0
   31.8479  -25.4698  -16.5789 C   0  0  0  0  0  0  0  0  0  0  0  0
   30.9170  -24.8583  -17.5735 C   0  0  0  0  0  0  0  0  0  0  0  0
   30.1635  -23.7294  -16.9045 C   0  0  0  0  0  0  0  0  0  0  0  0
   29.0868  -24.1918  -15.9898 C   0  0  2  0  0  0  0  0  0  0  0  0
   28.1985  -25.0834  -16.6760 N   0  0  0  0  0  0  0  0  0  0  0  0
   28.2868  -22.9768  -15.6072 C   0  0  0  0  0  0  0  0  0  0  0  0
   28.8401  -21.9642  -15.0785 O   0  0  0  0  0  0  0  0  0  0  0  0
   35.4997  -26.0538  -17.4139 N   0  0  0  0  0  0  0  0  0  0  0  0
   22.9924  -19.7629  -20.5571 C   0  0  0  0  0  0  0  0  0  0  0  0
   22.4741  -19.9312  -19.2325 N   0  0  0  0  0  0  0  0  0  0  0  0
   21.2017  -19.9320  -19.0520 N   0  0  0  0  0  0  0  0  0  0  0  0
   23.3199  -20.0969  -18.1099 C   0  0  0  0  0  0  0  0  0  0  0  0
   22.8320  -20.4124  -16.7940 C   0  0  0  0  0  0  0  0  0  0  0  0
   23.9647  -20.5288  -15.7851 C   0  0  0  0  0  0  0  0  0  0  0  0
   24.9355  -21.5770  -16.2840 C   0  0  1  0  0  0  0  0  0  0  0  0
   26.0703  -21.7968  -15.3160 N   0  0  0  0  0  0  0  0  0  0  0  0
   26.8925  -22.9075  -15.8168 C   0  0  0  0  0  0  0  0  0  0  0  0
   25.6021  -22.0628  -13.9463 O   0  0  0  0  0  0  0  0  0  0  0  0
   25.0463  -23.1454  -13.6433 N   0  0  0  0  0  0  0  0  0  0  0  0
   20.8193  -20.1244  -18.1189 C   0  0  2  0  0  0  0  0  0  0  0  0
   25.7705  -21.0922  -12.9270 C   0  0  0  0  0  0  0  0  0  0  0  0
   25.2815  -21.2478  -11.5852 S   0  0  0  0  0  0  0  0  0  0  0  0
   26.2960  -20.5715  -10.6529 C   0  0  0  0  0  0  0  0  0  0  0  0
   25.6249  -20.8179   -8.9631 O   0  0  0  0  0  0  0  0  0  0  0  0
   23.9197  -20.7768  -11.3720 O   0  0  0  0  0  0  0  0  0  0  0  0
  2  1  1  0
  2  3  2  0
  4  2  1  0
  5  4  1  0
  6  5  1  0
  7  6  1  0
  8  7  1  0
  8  9  1  6
 10  8  1  0
 10 11  2  0
 13 12  1  0
 14 13  2  0
 15 13  1  0
 16 15  1  0
 17 16  1  0
 17 18  1  0
 19 18  1  6
 19 20  1  0
 19 21  1  0
 20 10  1  0
 21 23  1  0
 22 21  2  0
 23 24  1  0
 24 27  1  0
 25 26  1  0
 24 25  1  1
 27 28  2  0
 27 29  1  0
M  END
$$$$
