RRC.pdb
     RDKit          3D

 29 28  0  0  1  0  0  0  0  0999 V2000
   25.8403  -26.7035  -16.6994 N   0  0  0  0  0  0  0  0  0  0  0  0
   24.5301  -26.2951  -16.3618 C   0  0  0  0  0  0  0  0  0  0  0  0
   23.4707  -26.8974  -16.8395 N   0  0  0  0  0  0  0  0  0  0  0  0
   24.2465  -25.2148  -15.4905 N   0  0  0  0  0  0  0  0  0  0  0  0
   25.2521  -24.5297  -14.7766 C   0  0  0  0  0  0  0  0  0  0  0  0
   25.2888  -23.0470  -14.9499 C   0  0  0  0  0  0  0  0  0  0  0  0
   25.0528  -22.7218  -16.4087 C   0  0  0  0  0  0  0  0  0  0  0  0
   25.2382  -21.2836  -16.7358 C   0  0  2  0  0  0  0  0  0  0  0  0
   26.5472  -20.8484  -16.3463 N   0  0  0  0  0  0  0  0  0  0  0  0
   24.2495  -20.5151  -15.9024 C   0  0  0  0  0  0  0  0  0  0  0  0
   24.5687  -20.0490  -14.7658 O   0  0  0  0  0  0  0  0  0  0  0  0
   22.5489  -26.5554  -16.5126 N   0  0  0  0  0  0  0  0  0  0  0  0
   18.7506  -20.5216  -18.5580 C   0  0  0  0  0  0  0  0  0  0  0  0
   17.7114  -20.5265  -17.5722 N   0  0  0  0  0  0  0  0  0  0  0  0
   16.8391  -21.4702  -17.5848 N   0  0  0  0  0  0  0  0  0  0  0  0
   17.6120  -19.5221  -16.5800 C   0  0  0  0  0  0  0  0  0  0  0  0
   18.4598  -18.3606  -16.5454 C   0  0  0  0  0  0  0  0  0  0  0  0
   19.6494  -18.5578  -15.6178 C   0  0  0  0  0  0  0  0  0  0  0  0
   20.7254  -19.2992  -16.3810 C   0  0  2  0  0  0  0  0  0  0  0  0
   21.9351  -19.5717  -15.5234 N   0  0  0  0  0  0  0  0  0  0  0  0
   22.9294  -20.2788  -16.3431 C   0  0  0  0  0  0  0  0  0  0  0  0
   21.6080  -20.3400  -14.3114 O   0  0  0  0  0  0  0  0  0  0  0  0
   21.3258  -21.5606  -14.3666 N   0  0  0  0  0  0  0  0  0  0  0  0
   16.1066  -21.4968  -16.8661 C   0  0  2  0  0  0  0  0  0  0  0  0
   21.6046  -19.7122  -13.0405 C   0  0  0  0  0  0  0  0  0  0  0  0
   21.3077  -20.3945  -11.8117 S   0  0  0  0  0  0  0  0  0  0  0  0
   21.9104  -19.5594  -10.6737 C   0  0  0  0  0  0  0  0  0  0  0  0
   21.5019  -20.4816   -9.1409 O   0  0  0  0  0  0  0  0  0  0  0  0
   19.8976  -20.6947  -11.6040 O   0  0  0  0  0  0  0  0  0  0  0  0
  2  1  1  0
  2  3  2  0
  4  2  1  0
  5  4  1  0
  6  5  1  0
  7  6  1  0
  8  7  1  0
  8  9  1  1
 10  8  1  0
 10 11  2  0
 13 12  1  0
 14 13  2  0
 15 13  1  0
 16 15  1  0
 17 16  1  0
 17 18  1  0
 19 18  1  6
 19 20  1  0
 19 21  1  0
 20 10  1  0
 21 23  1  0
 22 21  2  0
 23 24  1  0
 24 27  1  0
 25 26  1  0
 24 25  1  1
 27 28  2  0
 27 29  1  0
M  END
$$$$
