RRC.pdb
     RDKit          3D

 29 28  0  0  1  0  0  0  0  0999 V2000
   23.7770  -13.3169  -20.1944 N   0  0  0  0  0  0  0  0  0  0  0  0
   24.6091  -13.7132  -21.2658 C   0  0  0  0  0  0  0  0  0  0  0  0
   25.0765  -12.8543  -22.1360 N   0  0  0  0  0  0  0  0  0  0  0  0
   25.0078  -15.0532  -21.4938 N   0  0  0  0  0  0  0  0  0  0  0  0
   24.8343  -16.0719  -20.5332 C   0  0  0  0  0  0  0  0  0  0  0  0
   24.4786  -15.6231  -19.1542 C   0  0  0  0  0  0  0  0  0  0  0  0
   24.1959  -16.8422  -18.3036 C   0  0  0  0  0  0  0  0  0  0  0  0
   25.2874  -17.8510  -18.3274 C   0  0  2  0  0  0  0  0  0  0  0  0
   25.4733  -18.3531  -19.6571 N   0  0  0  0  0  0  0  0  0  0  0  0
   24.8336  -19.0059  -17.4771 C   0  0  0  0  0  0  0  0  0  0  0  0
   23.7294  -19.5916  -17.6978 O   0  0  0  0  0  0  0  0  0  0  0  0
   25.6281  -13.2381  -22.9246 N   0  0  0  0  0  0  0  0  0  0  0  0
   30.1383  -23.5977  -15.2471 C   0  0  0  0  0  0  0  0  0  0  0  0
   29.7246  -23.4688  -16.6123 N   0  0  0  0  0  0  0  0  0  0  0  0
   30.0277  -24.3952  -17.4499 N   0  0  0  0  0  0  0  0  0  0  0  0
   28.9899  -22.3500  -17.0726 C   0  0  0  0  0  0  0  0  0  0  0  0
   28.2857  -21.4535  -16.1955 C   0  0  0  0  0  0  0  0  0  0  0  0
   27.0915  -22.1293  -15.5383 C   0  0  0  0  0  0  0  0  0  0  0  0
   26.3353  -21.0854  -14.7457 C   0  0  2  0  0  0  0  0  0  0  0  0
   25.1452  -20.5570  -15.5056 N   0  0  0  0  0  0  0  0  0  0  0  0
   25.6097  -19.4880  -16.4010 C   0  0  0  0  0  0  0  0  0  0  0  0
   24.0758  -20.0737  -14.6173 O   0  0  0  0  0  0  0  0  0  0  0  0
   24.2455  -19.0826  -13.8679 N   0  0  0  0  0  0  0  0  0  0  0  0
   29.7960  -24.2799  -18.4434 C   0  0  1  0  0  0  0  0  0  0  0  0
   22.8162  -20.7232  -14.5880 C   0  0  0  0  0  0  0  0  0  0  0  0
   21.7877  -20.4316  -13.6285 S   0  0  0  0  0  0  0  0  0  0  0  0
   20.6394  -19.7535  -14.3884 C   0  0  0  0  0  0  0  0  0  0  0  0
   19.2776  -19.6163  -13.1663 O   0  0  0  0  0  0  0  0  0  0  0  0
   21.3444  -21.5738  -12.8407 O   0  0  0  0  0  0  0  0  0  0  0  0
  2  1  1  0
  2  3  2  0
  4  2  1  0
  5  4  1  0
  6  5  1  0
  7  6  1  0
  8  7  1  0
  8  9  1  6
 10  8  1  0
 10 11  2  0
 13 12  1  0
 14 13  2  0
 15 13  1  0
 16 15  1  0
 17 16  1  0
 17 18  1  0
 19 18  1  6
 19 20  1  0
 19 21  1  0
 20 10  1  0
 21 23  1  0
 22 21  2  0
 23 24  1  0
 24 27  1  0
 25 26  1  0
 24 25  1  1
 27 28  2  0
 27 29  1  0
M  END
$$$$
