RRC.pdb
     RDKit          3D

 29 28  0  0  1  0  0  0  0  0999 V2000
   30.7289  -24.0837  -20.1305 N   0  0  0  0  0  0  0  0  0  0  0  0
   29.5496  -23.5803  -20.7250 C   0  0  0  0  0  0  0  0  0  0  0  0
   29.4949  -23.2564  -21.9920 N   0  0  0  0  0  0  0  0  0  0  0  0
   28.3385  -23.3830  -20.0173 N   0  0  0  0  0  0  0  0  0  0  0  0
   28.1742  -23.7663  -18.6696 C   0  0  0  0  0  0  0  0  0  0  0  0
   28.9121  -22.9518  -17.6587 C   0  0  0  0  0  0  0  0  0  0  0  0
   27.9078  -22.2885  -16.7416 C   0  0  0  0  0  0  0  0  0  0  0  0
   27.6746  -20.8536  -17.0522 C   0  0  2  0  0  0  0  0  0  0  0  0
   28.8403  -20.0801  -16.7401 N   0  0  0  0  0  0  0  0  0  0  0  0
   26.5736  -20.3829  -16.1419 C   0  0  0  0  0  0  0  0  0  0  0  0
   26.8286  -19.8961  -14.9978 O   0  0  0  0  0  0  0  0  0  0  0  0
   28.5956  -22.8786  -22.3415 N   0  0  0  0  0  0  0  0  0  0  0  0
   21.1175  -14.7051  -15.9061 C   0  0  0  0  0  0  0  0  0  0  0  0
   20.2025  -15.7049  -16.3696 N   0  0  0  0  0  0  0  0  0  0  0  0
   19.0682  -15.3418  -16.8523 N   0  0  0  0  0  0  0  0  0  0  0  0
   20.5067  -17.0860  -16.3133 C   0  0  0  0  0  0  0  0  0  0  0  0
   21.6841  -17.6092  -15.6739 C   0  0  0  0  0  0  0  0  0  0  0  0
   21.7668  -19.1234  -15.7959 C   0  0  0  0  0  0  0  0  0  0  0  0
   23.0175  -19.4668  -16.5755 C   0  0  1  0  0  0  0  0  0  0  0  0
   24.1299  -19.9371  -15.6731 N   0  0  0  0  0  0  0  0  0  0  0  0
   25.2145  -20.4607  -16.5156 C   0  0  0  0  0  0  0  0  0  0  0  0
   23.6814  -20.9479  -14.7018 O   0  0  0  0  0  0  0  0  0  0  0  0
   23.1726  -22.0322  -15.0735 N   0  0  0  0  0  0  0  0  0  0  0  0
   18.3980  -16.0522  -17.1689 C   0  0  2  0  0  0  0  0  0  0  0  0
   23.8159  -20.7177  -13.3096 C   0  0  0  0  0  0  0  0  0  0  0  0
   23.4140  -21.6579  -12.3006 S   0  0  0  0  0  0  0  0  0  0  0  0
   24.2793  -21.3892  -11.0618 C   0  0  0  0  0  0  0  0  0  0  0  0
   23.6302  -19.8228  -10.3604 O   0  0  0  0  0  0  0  0  0  0  0  0
   21.9884  -21.6620  -12.0015 O   0  0  0  0  0  0  0  0  0  0  0  0
  2  1  1  0
  2  3  2  0
  4  2  1  0
  5  4  1  0
  6  5  1  0
  7  6  1  0
  8  7  1  0
  8  9  1  1
 10  8  1  0
 10 11  2  0
 13 12  1  0
 14 13  2  0
 15 13  1  0
 16 15  1  0
 17 16  1  0
 17 18  1  0
 19 18  1  6
 19 20  1  0
 19 21  1  0
 20 10  1  0
 21 23  1  0
 22 21  2  0
 23 24  1  0
 24 27  1  0
 25 26  1  0
 24 25  1  1
 27 28  2  0
 27 29  1  0
M  END
$$$$
