RRC.pdb
     RDKit          3D

 29 28  0  0  1  0  0  0  0  0999 V2000
   18.8558  -27.7961  -11.7695 N   0  0  0  0  0  0  0  0  0  0  0  0
   19.2868  -26.7253  -10.9540 C   0  0  0  0  0  0  0  0  0  0  0  0
   19.7672  -26.9181   -9.7518 N   0  0  0  0  0  0  0  0  0  0  0  0
   19.2398  -25.3674  -11.3549 N   0  0  0  0  0  0  0  0  0  0  0  0
   19.2653  -24.9732  -12.7092 C   0  0  0  0  0  0  0  0  0  0  0  0
   20.3000  -25.6256  -13.5656 C   0  0  0  0  0  0  0  0  0  0  0  0
   20.9710  -24.5651  -14.4111 C   0  0  0  0  0  0  0  0  0  0  0  0
   20.2092  -24.2112  -15.6375 C   0  0  2  0  0  0  0  0  0  0  0  0
   19.6420  -25.3873  -16.2289 N   0  0  0  0  0  0  0  0  0  0  0  0
   21.2005  -23.6542  -16.6222 C   0  0  0  0  0  0  0  0  0  0  0  0
   21.8928  -24.4180  -17.3627 O   0  0  0  0  0  0  0  0  0  0  0  0
   20.1168  -26.0838   -9.2466 N   0  0  0  0  0  0  0  0  0  0  0  0
   21.1549  -15.9930  -20.8410 C   0  0  0  0  0  0  0  0  0  0  0  0
   20.8603  -17.3401  -21.2287 N   0  0  0  0  0  0  0  0  0  0  0  0
   20.0694  -17.5489  -22.2199 N   0  0  0  0  0  0  0  0  0  0  0  0
   21.4130  -18.4545  -20.5536 C   0  0  0  0  0  0  0  0  0  0  0  0
   22.3589  -18.3348  -19.4766 C   0  0  0  0  0  0  0  0  0  0  0  0
   22.9234  -19.6874  -19.0686 C   0  0  0  0  0  0  0  0  0  0  0  0
   21.9413  -20.3431  -18.1224 C   0  0  2  0  0  0  0  0  0  0  0  0
   22.4142  -21.7035  -17.6768 N   0  0  0  0  0  0  0  0  0  0  0  0
   21.4057  -22.2650  -16.7667 C   0  0  0  0  0  0  0  0  0  0  0  0
   23.7380  -21.6602  -17.0352 O   0  0  0  0  0  0  0  0  0  0  0  0
   23.9157  -21.0756  -15.9400 N   0  0  0  0  0  0  0  0  0  0  0  0
   19.8396  -18.5110  -22.4948 C   0  0  2  0  0  0  0  0  0  0  0  0
   24.8544  -22.2849  -17.6457 C   0  0  0  0  0  0  0  0  0  0  0  0
   26.1614  -22.3447  -17.0525 S   0  0  0  0  0  0  0  0  0  0  0  0
   26.6276  -23.8049  -17.1317 C   0  0  0  0  0  0  0  0  0  0  0  0
   28.1988  -23.8531  -16.1854 O   0  0  0  0  0  0  0  0  0  0  0  0
   27.1307  -21.4130  -17.6130 O   0  0  0  0  0  0  0  0  0  0  0  0
  2  1  1  0
  2  3  2  0
  4  2  1  0
  5  4  1  0
  6  5  1  0
  7  6  1  0
  8  7  1  0
  8  9  1  6
 10  8  1  0
 10 11  2  0
 13 12  1  0
 14 13  2  0
 15 13  1  0
 16 15  1  0
 17 16  1  0
 17 18  1  0
 19 18  1  6
 19 20  1  0
 19 21  1  0
 20 10  1  0
 21 23  1  0
 22 21  2  0
 23 24  1  0
 24 27  1  0
 25 26  1  0
 24 25  1  6
 27 28  2  0
 27 29  1  0
M  END
$$$$
