RRC.pdb
     RDKit          3D

 29 28  0  0  1  0  0  0  0  0999 V2000
   14.9210  -30.0258   -4.2351 N   0  0  0  0  0  0  0  0  0  0  0  0
   14.2034  -29.8011   -3.0383 C   0  0  0  0  0  0  0  0  0  0  0  0
   13.8627  -30.7803   -2.2393 N   0  0  0  0  0  0  0  0  0  0  0  0
   13.7935  -28.5180   -2.6000 N   0  0  0  0  0  0  0  0  0  0  0  0
   13.5375  -27.4556   -3.4922 C   0  0  0  0  0  0  0  0  0  0  0  0
   14.7359  -26.7788   -4.0714 C   0  0  0  0  0  0  0  0  0  0  0  0
   14.9729  -25.4850   -3.3234 C   0  0  0  0  0  0  0  0  0  0  0  0
   14.5692  -24.2741   -4.0853 C   0  0  2  0  0  0  0  0  0  0  0  0
   15.5188  -23.9986   -5.1231 N   0  0  0  0  0  0  0  0  0  0  0  0
   14.6151  -23.1178   -3.1244 C   0  0  0  0  0  0  0  0  0  0  0  0
   15.6728  -22.4338   -2.9677 O   0  0  0  0  0  0  0  0  0  0  0  0
   13.2303  -30.5458   -1.4528 N   0  0  0  0  0  0  0  0  0  0  0  0
    8.1149  -17.7596   -0.3902 C   0  0  0  0  0  0  0  0  0  0  0  0
    9.0304  -17.9535   -1.4747 N   0  0  0  0  0  0  0  0  0  0  0  0
    8.6841  -17.5961   -2.6595 N   0  0  0  0  0  0  0  0  0  0  0  0
   10.3095  -18.5288   -1.2847 C   0  0  0  0  0  0  0  0  0  0  0  0
   10.6103  -19.4502   -0.2220 C   0  0  0  0  0  0  0  0  0  0  0  0
   12.0509  -19.9349   -0.2863 C   0  0  0  0  0  0  0  0  0  0  0  0
   12.1182  -21.0875   -1.2644 C   0  0  1  0  0  0  0  0  0  0  0  0
   13.5202  -21.6243   -1.4037 N   0  0  0  0  0  0  0  0  0  0  0  0
   13.4912  -22.7427   -2.3569 C   0  0  0  0  0  0  0  0  0  0  0  0
   14.0961  -22.0435   -0.1158 O   0  0  0  0  0  0  0  0  0  0  0  0
   13.9791  -23.2203    0.3013 N   0  0  0  0  0  0  0  0  0  0  0  0
    9.3481  -17.6948   -3.4362 C   0  0  2  0  0  0  0  0  0  0  0  0
   14.8041  -21.1178    0.6913 C   0  0  0  0  0  0  0  0  0  0  0  0
   15.4481  -21.4633    1.9280 S   0  0  0  0  0  0  0  0  0  0  0  0
   16.3249  -20.2695    2.3301 C   0  0  0  0  0  0  0  0  0  0  0  0
   17.5485  -20.1012    0.9732 O   0  0  0  0  0  0  0  0  0  0  0  0
   14.5453  -21.8823    2.9915 O   0  0  0  0  0  0  0  0  0  0  0  0
  2  1  1  0
  2  3  2  0
  4  2  1  0
  5  4  1  0
  6  5  1  0
  7  6  1  0
  8  7  1  0
  8  9  1  6
 10  8  1  0
 10 11  2  0
 13 12  1  0
 14 13  2  0
 15 13  1  0
 16 15  1  0
 17 16  1  0
 17 18  1  0
 19 18  1  6
 19 20  1  0
 19 21  1  0
 20 10  1  0
 21 23  1  0
 22 21  2  0
 23 24  1  0
 24 27  1  0
 25 26  1  0
 24 25  1  1
 27 28  2  0
 27 29  1  0
M  END
$$$$
