RRC.pdb
     RDKit          3D

 29 28  0  0  1  0  0  0  0  0999 V2000
   19.0131  -24.3730   -7.5210 N   0  0  0  0  0  0  0  0  0  0  0  0
   17.6740  -24.7499   -7.7703 C   0  0  0  0  0  0  0  0  0  0  0  0
   16.8307  -24.9979   -6.8003 N   0  0  0  0  0  0  0  0  0  0  0  0
   17.1293  -24.8919   -9.0702 N   0  0  0  0  0  0  0  0  0  0  0  0
   17.8602  -24.5882  -10.2381 C   0  0  0  0  0  0  0  0  0  0  0  0
   17.3254  -23.4762  -11.0791 C   0  0  0  0  0  0  0  0  0  0  0  0
   18.4702  -22.8548  -11.8491 C   0  0  0  0  0  0  0  0  0  0  0  0
   19.2260  -21.8362  -11.0738 C   0  0  2  0  0  0  0  0  0  0  0  0
   18.3225  -20.9308  -10.4267 N   0  0  0  0  0  0  0  0  0  0  0  0
   20.0221  -21.0338  -12.0663 C   0  0  0  0  0  0  0  0  0  0  0  0
   19.5710  -19.9503  -12.5495 O   0  0  0  0  0  0  0  0  0  0  0  0
   15.8612  -25.2419   -7.0722 N   0  0  0  0  0  0  0  0  0  0  0  0
   25.7590  -24.1882  -15.0045 C   0  0  0  0  0  0  0  0  0  0  0  0
   25.9812  -23.2563  -16.0693 N   0  0  0  0  0  0  0  0  0  0  0  0
   26.2065  -23.6998  -17.2543 N   0  0  0  0  0  0  0  0  0  0  0  0
   25.9615  -21.8568  -15.8596 C   0  0  0  0  0  0  0  0  0  0  0  0
   25.6967  -21.2543  -14.5805 C   0  0  0  0  0  0  0  0  0  0  0  0
   24.3427  -20.5612  -14.5528 C   0  0  0  0  0  0  0  0  0  0  0  0
   23.4720  -21.2662  -13.5355 C   0  0  1  0  0  0  0  0  0  0  0  0
   22.0772  -20.6951  -13.4988 N   0  0  0  0  0  0  0  0  0  0  0  0
   21.2993  -21.4467  -12.5036 C   0  0  0  0  0  0  0  0  0  0  0  0
   21.4189  -20.7244  -14.8148 O   0  0  0  0  0  0  0  0  0  0  0  0
   21.0517  -21.8029  -15.3390 N   0  0  0  0  0  0  0  0  0  0  0  0
   26.3797  -23.0396  -18.0212 C   0  0  2  0  0  0  0  0  0  0  0  0
   21.1817  -19.5224  -15.5277 C   0  0  0  0  0  0  0  0  0  0  0  0
   20.5767  -19.4704  -16.8296 S   0  0  0  0  0  0  0  0  0  0  0  0
   19.4168  -18.4685  -16.7495 C   0  0  0  0  0  0  0  0  0  0  0  0
   18.2599  -19.1798  -15.5157 O   0  0  0  0  0  0  0  0  0  0  0  0
   21.4972  -19.1800  -17.9207 O   0  0  0  0  0  0  0  0  0  0  0  0
  2  1  1  0
  2  3  2  0
  4  2  1  0
  5  4  1  0
  6  5  1  0
  7  6  1  0
  8  7  1  0
  8  9  1  6
 10  8  1  0
 10 11  2  0
 13 12  1  0
 14 13  2  0
 15 13  1  0
 16 15  1  0
 17 16  1  0
 17 18  1  0
 19 18  1  1
 19 20  1  0
 19 21  1  0
 20 10  1  0
 21 23  1  0
 22 21  2  0
 23 24  1  0
 24 27  1  0
 25 26  1  0
 24 25  1  6
 27 28  2  0
 27 29  1  0
M  END
$$$$
