RRC.pdb
     RDKit          3D

 29 28  0  0  1  0  0  0  0  0999 V2000
   27.5777  -22.2164  -17.5948 N   0  0  0  0  0  0  0  0  0  0  0  0
   27.3089  -22.2801  -16.2087 C   0  0  0  0  0  0  0  0  0  0  0  0
   27.7950  -21.4038  -15.3666 N   0  0  0  0  0  0  0  0  0  0  0  0
   26.5027  -23.2806  -15.6124 N   0  0  0  0  0  0  0  0  0  0  0  0
   25.9555  -24.3538  -16.3467 C   0  0  0  0  0  0  0  0  0  0  0  0
   24.9350  -23.9948  -17.3761 C   0  0  0  0  0  0  0  0  0  0  0  0
   23.5580  -24.2715  -16.8132 C   0  0  0  0  0  0  0  0  0  0  0  0
   23.3069  -25.7097  -16.5335 C   0  0  2  0  0  0  0  0  0  0  0  0
   23.3255  -26.4651  -17.7516 N   0  0  0  0  0  0  0  0  0  0  0  0
   21.9151  -25.8090  -15.9717 C   0  0  0  0  0  0  0  0  0  0  0  0
   20.9069  -25.9424  -16.7311 O   0  0  0  0  0  0  0  0  0  0  0  0
   27.6352  -21.5828  -14.3586 N   0  0  0  0  0  0  0  0  0  0  0  0
   17.8117  -29.3342  -10.6376 C   0  0  0  0  0  0  0  0  0  0  0  0
   17.3136  -28.2180   -9.8908 N   0  0  0  0  0  0  0  0  0  0  0  0
   16.1802  -28.3184   -9.2933 N   0  0  0  0  0  0  0  0  0  0  0  0
   18.0307  -27.0021   -9.7884 C   0  0  0  0  0  0  0  0  0  0  0  0
   19.2784  -26.7627  -10.4630 C   0  0  0  0  0  0  0  0  0  0  0  0
   19.0674  -26.3788  -11.9200 C   0  0  0  0  0  0  0  0  0  0  0  0
   20.4257  -26.2025  -12.5633 C   0  0  2  0  0  0  0  0  0  0  0  0
   20.3126  -25.8181  -14.0167 N   0  0  0  0  0  0  0  0  0  0  0  0
   21.6677  -25.7584  -14.5828 C   0  0  0  0  0  0  0  0  0  0  0  0
   19.6029  -24.5434  -14.2113 O   0  0  0  0  0  0  0  0  0  0  0  0
   20.0602  -23.4649  -13.7640 N   0  0  0  0  0  0  0  0  0  0  0  0
   15.8256  -27.5314   -8.7376 C   0  0  2  0  0  0  0  0  0  0  0  0
   18.3737  -24.5045  -14.9163 C   0  0  0  0  0  0  0  0  0  0  0  0
   17.6355  -23.2989  -15.1714 S   0  0  0  0  0  0  0  0  0  0  0  0
   16.6409  -23.6076  -16.2989 C   0  0  0  0  0  0  0  0  0  0  0  0
   15.8064  -22.0108  -16.6458 O   0  0  0  0  0  0  0  0  0  0  0  0
   16.9956  -22.7142  -14.0007 O   0  0  0  0  0  0  0  0  0  0  0  0
  2  1  1  0
  2  3  2  0
  4  2  1  0
  5  4  1  0
  6  5  1  0
  7  6  1  0
  8  7  1  0
  8  9  1  6
 10  8  1  0
 10 11  2  0
 13 12  1  0
 14 13  2  0
 15 13  1  0
 16 15  1  0
 17 16  1  0
 17 18  1  0
 19 18  1  6
 19 20  1  0
 19 21  1  0
 20 10  1  0
 21 23  1  0
 22 21  2  0
 23 24  1  0
 24 27  1  0
 25 26  1  0
 24 25  1  1
 27 28  2  0
 27 29  1  0
M  END
$$$$
