PNH.pdb
     RDKit          3D

 26 27  0  0  1  0  0  0  0  0999 V2000
   10.1146  -16.1633   15.0623 N   0  0  0  0  0  0  0  0  0  0  0  0
    9.5607  -16.9337   13.9999 C   0  0  0  0  0  0  0  0  0  0  0  0
    8.0816  -16.5220   14.0681 C   0  0  0  0  0  0  0  0  0  0  0  0
    7.8400  -16.6002   15.5556 C   0  0  0  0  0  0  0  0  0  0  0  0
    9.1588  -16.0210   16.0942 C   0  0  1  0  0  0  0  0  0  0  0  0
    9.4927  -16.6012   17.3957 C   0  0  0  0  0  0  0  0  0  0  0  0
    8.6087  -16.4801   18.3094 O   0  0  0  0  0  0  0  0  0  0  0  0
   13.4878  -20.0102   20.7097 N   0  0  0  0  0  0  0  0  0  0  0  0
   12.2401  -19.6239   20.1217 C   0  0  0  0  0  0  0  0  0  0  0  0
   11.1658  -20.0170   20.6735 O   0  0  0  0  0  0  0  0  0  0  0  0
   12.1257  -18.7932   18.9139 C   0  0  0  0  0  0  0  0  0  0  0  0
   10.9205  -17.8711   18.9547 C   0  0  2  0  0  0  0  0  0  0  0  0
   10.7176  -17.2625   17.6452 N   0  0  0  0  0  0  0  0  0  0  0  0
   11.1287  -16.8211   19.9933 C   0  0  0  0  0  0  0  0  0  0  0  0
   12.0987  -16.0428   19.9852 O   0  0  0  0  0  0  0  0  0  0  0  0
   10.1685  -16.7046   21.0481 N   0  0  0  0  0  0  0  0  0  0  0  0
   10.2724  -15.6757   22.0816 C   0  0  1  0  0  0  0  0  0  0  0  0
    8.8927  -15.0220   22.1495 C   0  0  0  0  0  0  0  0  0  0  0  0
    8.6015  -14.1862   20.9616 C   0  0  0  0  0  0  0  0  0  0  0  0
    9.3809  -13.9164   19.8628 C   0  0  0  0  0  0  0  0  0  0  0  0
    8.6735  -13.1091   19.0639 N   0  0  0  0  0  0  0  0  0  0  0  0
    7.4760  -12.8442   19.5920 C   0  0  0  0  0  0  0  0  0  0  0  0
    7.4352  -13.5078   20.7568 N   0  0  0  0  0  0  0  0  0  0  0  0
   10.6373  -16.2864   23.3835 C   0  0  0  0  0  0  0  0  0  0  0  0
   11.0066  -15.4913   24.4435 O   0  0  0  0  0  0  0  0  0  0  0  0
   10.6156  -17.5314   23.5414 O   0  0  0  0  0  0  0  0  0  0  0  0
  1  2  1  0
  3  2  1  0
  4  5  1  0
  4  3  1  0
  5  1  1  0
  5  6  1  1
  6  7  2  0
  8  9  1  0
  9 11  1  0
 10  9  2  0
 12 11  1  6
 12 14  1  0
 13  6  1  0
 13 12  1  0
 14 15  2  0
 16 14  1  0
 16 17  1  0
 17 24  1  0
 18 19  1  0
 17 18  1  1
 19 20  2  0
 19 23  1  0
 20 21  1  0
 21 22  1  0
 23 22  2  0
 24 25  1  0
 26 24  2  0
M  END
$$$$
