PNH.pdb
     RDKit          3D

 26 27  0  0  1  0  0  0  0  0999 V2000
    8.1084  -14.7419   18.3284 N   0  0  0  0  0  0  0  0  0  0  0  0
    7.0609  -13.7975   18.1288 C   0  0  0  0  0  0  0  0  0  0  0  0
    7.8501  -12.4803   18.0668 C   0  0  0  0  0  0  0  0  0  0  0  0
    8.7866  -12.6624   19.2360 C   0  0  0  0  0  0  0  0  0  0  0  0
    9.1396  -14.1525   19.0951 C   0  0  1  0  0  0  0  0  0  0  0  0
    9.4225  -14.7493   20.4012 C   0  0  0  0  0  0  0  0  0  0  0  0
   10.3371  -14.1855   21.0916 O   0  0  0  0  0  0  0  0  0  0  0  0
    5.9855  -17.2754   21.3089 N   0  0  0  0  0  0  0  0  0  0  0  0
    6.7918  -17.0848   22.4773 C   0  0  0  0  0  0  0  0  0  0  0  0
    6.2758  -16.4942   23.4765 O   0  0  0  0  0  0  0  0  0  0  0  0
    8.1864  -17.5357   22.5932 C   0  0  0  0  0  0  0  0  0  0  0  0
    9.1784  -16.4790   22.1421 C   0  0  2  0  0  0  0  0  0  0  0  0
    8.7324  -15.8837   20.8879 N   0  0  0  0  0  0  0  0  0  0  0  0
   10.5267  -17.0955   21.9786 C   0  0  0  0  0  0  0  0  0  0  0  0
   10.9630  -17.4899   20.8829 O   0  0  0  0  0  0  0  0  0  0  0  0
   11.3558  -17.2404   23.1361 N   0  0  0  0  0  0  0  0  0  0  0  0
   12.8045  -17.0518   23.0811 C   0  0  1  0  0  0  0  0  0  0  0  0
   13.0135  -15.5726   22.7590 C   0  0  0  0  0  0  0  0  0  0  0  0
   13.3591  -15.3447   21.3366 C   0  0  0  0  0  0  0  0  0  0  0  0
   13.4810  -16.2444   20.3055 C   0  0  0  0  0  0  0  0  0  0  0  0
   13.8097  -15.5496   19.2102 N   0  0  0  0  0  0  0  0  0  0  0  0
   13.9061  -14.2459   19.4827 C   0  0  0  0  0  0  0  0  0  0  0  0
   13.6282  -14.1240   20.7891 N   0  0  0  0  0  0  0  0  0  0  0  0
   13.4211  -17.4057   24.3832 C   0  0  0  0  0  0  0  0  0  0  0  0
   14.6842  -17.9489   24.4279 O   0  0  0  0  0  0  0  0  0  0  0  0
   12.8066  -17.2171   25.4612 O   0  0  0  0  0  0  0  0  0  0  0  0
  1  2  1  0
  3  2  1  0
  4  5  1  0
  4  3  1  0
  5  1  1  0
  5  6  1  1
  6  7  2  0
  8  9  1  0
  9 11  1  0
 10  9  2  0
 12 11  1  6
 12 14  1  0
 13  6  1  0
 13 12  1  0
 14 15  2  0
 16 14  1  0
 16 17  1  0
 17 24  1  0
 18 19  1  0
 17 18  1  1
 19 20  2  0
 19 23  1  0
 20 21  1  0
 21 22  1  0
 23 22  2  0
 24 25  1  0
 26 24  2  0
M  END
$$$$
