PNH.pdb
     RDKit          3D

 26 27  0  0  1  0  0  0  0  0999 V2000
    9.2098  -14.3373   17.0023 N   0  0  0  0  0  0  0  0  0  0  0  0
    7.9848  -14.3339   16.2756 C   0  0  0  0  0  0  0  0  0  0  0  0
    7.1197  -13.4097   17.1469 C   0  0  0  0  0  0  0  0  0  0  0  0
    7.4348  -13.9484   18.5208 C   0  0  0  0  0  0  0  0  0  0  0  0
    8.9418  -14.2232   18.3857 C   0  0  1  0  0  0  0  0  0  0  0  0
    9.3484  -15.3420   19.2372 C   0  0  0  0  0  0  0  0  0  0  0  0
    8.9244  -15.3159   20.4416 O   0  0  0  0  0  0  0  0  0  0  0  0
   11.2444  -19.2115   16.5450 N   0  0  0  0  0  0  0  0  0  0  0  0
   10.7041  -19.1558   17.8704 C   0  0  0  0  0  0  0  0  0  0  0  0
    9.5800  -19.7060   18.0872 O   0  0  0  0  0  0  0  0  0  0  0  0
   11.3754  -18.5002   19.0023 C   0  0  0  0  0  0  0  0  0  0  0  0
   10.4878  -17.4811   19.6936 C   0  0  2  0  0  0  0  0  0  0  0  0
   10.1621  -16.4003   18.7704 N   0  0  0  0  0  0  0  0  0  0  0  0
   11.1841  -16.9472   20.8997 C   0  0  0  0  0  0  0  0  0  0  0  0
   12.0181  -16.0261   20.8484 O   0  0  0  0  0  0  0  0  0  0  0  0
   10.8789  -17.5220   22.1743 N   0  0  0  0  0  0  0  0  0  0  0  0
   11.5205  -17.0639   23.4055 C   0  0  1  0  0  0  0  0  0  0  0  0
   10.3805  -16.8014   24.3888 C   0  0  0  0  0  0  0  0  0  0  0  0
    9.6196  -15.5733   24.0610 C   0  0  0  0  0  0  0  0  0  0  0  0
    9.8852  -14.5944   23.1343 C   0  0  0  0  0  0  0  0  0  0  0  0
    8.9007  -13.6921   23.2177 N   0  0  0  0  0  0  0  0  0  0  0  0
    8.0124  -14.0397   24.1522 C   0  0  0  0  0  0  0  0  0  0  0  0
    8.4568  -15.1955   24.6673 N   0  0  0  0  0  0  0  0  0  0  0  0
   12.4431  -18.1032   23.9247 C   0  0  0  0  0  0  0  0  0  0  0  0
   12.5076  -19.3377   23.3211 O   0  0  0  0  0  0  0  0  0  0  0  0
   13.1776  -17.8773   24.9170 O   0  0  0  0  0  0  0  0  0  0  0  0
  1  2  1  0
  3  2  1  0
  4  5  1  0
  4  3  1  0
  5  1  1  0
  5  6  1  1
  6  7  2  0
  8  9  1  0
  9 11  1  0
 10  9  2  0
 12 11  1  6
 12 14  1  0
 13  6  1  0
 13 12  1  0
 14 15  2  0
 16 14  1  0
 16 17  1  0
 17 24  1  0
 18 19  1  0
 17 18  1  1
 19 20  2  0
 19 23  1  0
 20 21  1  0
 21 22  1  0
 23 22  2  0
 24 25  1  0
 26 24  2  0
M  END
$$$$
