PNH.pdb
     RDKit          3D

 26 27  0  0  1  0  0  0  0  0999 V2000
    9.6140  -14.5229   17.8914 N   0  0  0  0  0  0  0  0  0  0  0  0
    8.8478  -14.5176   16.6906 C   0  0  0  0  0  0  0  0  0  0  0  0
    7.9172  -13.3186   16.9319 C   0  0  0  0  0  0  0  0  0  0  0  0
    7.4924  -13.5791   18.3562 C   0  0  0  0  0  0  0  0  0  0  0  0
    8.8143  -14.0734   18.9671 C   0  0  1  0  0  0  0  0  0  0  0  0
    8.5666  -15.0215   20.0543 C   0  0  0  0  0  0  0  0  0  0  0  0
    7.5942  -14.7425   20.8338 O   0  0  0  0  0  0  0  0  0  0  0  0
   10.8670  -19.7921   23.2725 N   0  0  0  0  0  0  0  0  0  0  0  0
    9.8302  -19.0530   22.6162 C   0  0  0  0  0  0  0  0  0  0  0  0
    8.6437  -19.1562   23.0577 O   0  0  0  0  0  0  0  0  0  0  0  0
   10.0565  -18.1751   21.4588 C   0  0  0  0  0  0  0  0  0  0  0  0
    9.1464  -16.9601   21.4640 C   0  0  2  0  0  0  0  0  0  0  0  0
    9.3473  -16.1850   20.2453 N   0  0  0  0  0  0  0  0  0  0  0  0
    9.4315  -16.1265   22.6675 C   0  0  0  0  0  0  0  0  0  0  0  0
   10.4916  -15.4940   22.8180 O   0  0  0  0  0  0  0  0  0  0  0  0
    8.4397  -16.0518   23.6965 N   0  0  0  0  0  0  0  0  0  0  0  0
    8.5210  -15.0769   24.7831 C   0  0  1  0  0  0  0  0  0  0  0  0
    7.0979  -14.5527   24.9709 C   0  0  0  0  0  0  0  0  0  0  0  0
    6.9993  -13.5576   26.0639 C   0  0  0  0  0  0  0  0  0  0  0  0
    7.9846  -13.0190   26.8554 C   0  0  0  0  0  0  0  0  0  0  0  0
    7.3933  -12.1636   27.6973 N   0  0  0  0  0  0  0  0  0  0  0  0
    6.0749  -12.1228   27.4889 C   0  0  0  0  0  0  0  0  0  0  0  0
    5.8369  -12.9796   26.4849 N   0  0  0  0  0  0  0  0  0  0  0  0
    9.0180  -15.7246   26.0218 C   0  0  0  0  0  0  0  0  0  0  0  0
    9.1255  -17.0942   26.0934 O   0  0  0  0  0  0  0  0  0  0  0  0
    9.3480  -15.0400   27.0207 O   0  0  0  0  0  0  0  0  0  0  0  0
  1  2  1  0
  3  2  1  0
  4  5  1  0
  4  3  1  0
  5  1  1  0
  5  6  1  1
  6  7  2  0
  8  9  1  0
  9 11  1  0
 10  9  2  0
 12 11  1  6
 12 14  1  0
 13  6  1  0
 13 12  1  0
 14 15  2  0
 16 14  1  0
 16 17  1  0
 17 24  1  0
 18 19  1  0
 17 18  1  1
 19 20  2  0
 19 23  1  0
 20 21  1  0
 21 22  1  0
 23 22  2  0
 24 25  1  0
 26 24  2  0
M  END
$$$$
