PNH.pdb
     RDKit          3D

 26 27  0  0  1  0  0  0  0  0999 V2000
    8.9643  -14.4714   16.3285 N   0  0  0  0  0  0  0  0  0  0  0  0
    7.5400  -14.4892   16.3175 C   0  0  0  0  0  0  0  0  0  0  0  0
    7.2163  -13.2281   17.1340 C   0  0  0  0  0  0  0  0  0  0  0  0
    8.1827  -13.3852   18.2823 C   0  0  0  0  0  0  0  0  0  0  0  0
    9.4230  -13.9188   17.5462 C   0  0  1  0  0  0  0  0  0  0  0  0
   10.2140  -14.7899   18.4166 C   0  0  0  0  0  0  0  0  0  0  0  0
    9.5723  -15.3967   19.3390 O   0  0  0  0  0  0  0  0  0  0  0  0
   14.1390  -18.4072   17.5424 N   0  0  0  0  0  0  0  0  0  0  0  0
   13.8250  -17.0120   17.4621 C   0  0  0  0  0  0  0  0  0  0  0  0
   13.6253  -16.5036   16.3154 O   0  0  0  0  0  0  0  0  0  0  0  0
   13.7160  -16.1278   18.6318 C   0  0  0  0  0  0  0  0  0  0  0  0
   12.2812  -15.9510   19.0951 C   0  0  2  0  0  0  0  0  0  0  0  0
   11.6087  -14.9631   18.2595 N   0  0  0  0  0  0  0  0  0  0  0  0
   12.2657  -15.5253   20.5244 C   0  0  0  0  0  0  0  0  0  0  0  0
   12.7526  -14.4501   20.9165 O   0  0  0  0  0  0  0  0  0  0  0  0
   11.6636  -16.3943   21.4889 N   0  0  0  0  0  0  0  0  0  0  0  0
   11.6219  -16.0631   22.9123 C   0  0  1  0  0  0  0  0  0  0  0  0
   10.2090  -16.4175   23.3745 C   0  0  0  0  0  0  0  0  0  0  0  0
    9.1849  -15.4989   22.8248 C   0  0  0  0  0  0  0  0  0  0  0  0
    9.3385  -14.3135   22.1476 C   0  0  0  0  0  0  0  0  0  0  0  0
    8.1130  -13.8597   21.8602 N   0  0  0  0  0  0  0  0  0  0  0  0
    7.1755  -14.6930   22.3181 C   0  0  0  0  0  0  0  0  0  0  0  0
    7.8375  -15.6986   22.9093 N   0  0  0  0  0  0  0  0  0  0  0  0
   12.6380  -16.8483   23.6552 C   0  0  0  0  0  0  0  0  0  0  0  0
   13.4240  -17.7651   22.9965 O   0  0  0  0  0  0  0  0  0  0  0  0
   12.7990  -16.6917   24.8901 O   0  0  0  0  0  0  0  0  0  0  0  0
  1  2  1  0
  3  2  1  0
  4  5  1  0
  4  3  1  0
  5  1  1  0
  5  6  1  1
  6  7  2  0
  8  9  1  0
  9 11  1  0
 10  9  2  0
 12 11  1  6
 12 14  1  0
 13  6  1  0
 13 12  1  0
 14 15  2  0
 16 14  1  0
 16 17  1  0
 17 24  1  0
 18 19  1  0
 17 18  1  1
 19 20  2  0
 19 23  1  0
 20 21  1  0
 21 22  1  0
 23 22  2  0
 24 25  1  0
 26 24  2  0
M  END
$$$$
