PNH.pdb
     RDKit          3D

 26 27  0  0  1  0  0  0  0  0999 V2000
    8.0891  -15.0976   18.9347 N   0  0  0  0  0  0  0  0  0  0  0  0
    7.4816  -14.1701   18.0404 C   0  0  0  0  0  0  0  0  0  0  0  0
    8.4873  -13.0089   18.0811 C   0  0  0  0  0  0  0  0  0  0  0  0
    8.7359  -12.9088   19.5662 C   0  0  0  0  0  0  0  0  0  0  0  0
    8.7719  -14.3963   19.9547 C   0  0  1  0  0  0  0  0  0  0  0  0
    8.3005  -14.5907   21.3267 C   0  0  0  0  0  0  0  0  0  0  0  0
    8.9320  -13.9521   22.2346 O   0  0  0  0  0  0  0  0  0  0  0  0
    7.8530  -19.8653   21.8372 N   0  0  0  0  0  0  0  0  0  0  0  0
    8.8254  -18.8188   21.7318 C   0  0  0  0  0  0  0  0  0  0  0  0
   10.0284  -19.0794   22.0451 O   0  0  0  0  0  0  0  0  0  0  0  0
    8.5158  -17.4551   21.2779 C   0  0  0  0  0  0  0  0  0  0  0  0
    7.4936  -16.7657   22.1635 C   0  0  2  0  0  0  0  0  0  0  0  0
    7.2098  -15.4318   21.6472 N   0  0  0  0  0  0  0  0  0  0  0  0
    8.0129  -16.6871   23.5595 C   0  0  0  0  0  0  0  0  0  0  0  0
    7.9857  -17.6486   24.3477 O   0  0  0  0  0  0  0  0  0  0  0  0
    8.5672  -15.4479   24.0128 N   0  0  0  0  0  0  0  0  0  0  0  0
    9.1479  -15.2995   25.3463 C   0  0  1  0  0  0  0  0  0  0  0  0
    7.9605  -15.2414   26.3064 C   0  0  0  0  0  0  0  0  0  0  0  0
    7.2893  -13.9208   26.2998 C   0  0  0  0  0  0  0  0  0  0  0  0
    7.5462  -12.8067   25.5379 C   0  0  0  0  0  0  0  0  0  0  0  0
    6.6666  -11.8664   25.9018 N   0  0  0  0  0  0  0  0  0  0  0  0
    5.8544  -12.3177   26.8608 C   0  0  0  0  0  0  0  0  0  0  0  0
    6.2393  -13.5796   27.1020 N   0  0  0  0  0  0  0  0  0  0  0  0
   10.0286  -16.4523   25.6572 C   0  0  0  0  0  0  0  0  0  0  0  0
   10.7478  -16.4794   26.8295 O   0  0  0  0  0  0  0  0  0  0  0  0
   10.1329  -17.4180   24.8624 O   0  0  0  0  0  0  0  0  0  0  0  0
  1  2  1  0
  3  2  1  0
  4  5  1  0
  4  3  1  0
  5  1  1  0
  5  6  1  1
  6  7  2  0
  8  9  1  0
  9 11  1  0
 10  9  2  0
 12 11  1  6
 12 14  1  0
 13  6  1  0
 13 12  1  0
 14 15  2  0
 16 14  1  0
 16 17  1  0
 17 24  1  0
 18 19  1  0
 17 18  1  1
 19 20  2  0
 19 23  1  0
 20 21  1  0
 21 22  1  0
 23 22  2  0
 24 25  1  0
 26 24  2  0
M  END
$$$$
