PNH.pdb
     RDKit          3D

 26 27  0  0  1  0  0  0  0  0999 V2000
    8.5632  -14.7333   18.0930 N   0  0  0  0  0  0  0  0  0  0  0  0
    7.2041  -14.3072   18.0776 C   0  0  0  0  0  0  0  0  0  0  0  0
    7.3603  -12.8119   17.7594 C   0  0  0  0  0  0  0  0  0  0  0  0
    8.4848  -12.4446   18.6963 C   0  0  0  0  0  0  0  0  0  0  0  0
    9.3840  -13.6858   18.5703 C   0  0  1  0  0  0  0  0  0  0  0  0
   10.1184  -13.9287   19.8128 C   0  0  0  0  0  0  0  0  0  0  0  0
   10.8342  -12.9619   20.2417 O   0  0  0  0  0  0  0  0  0  0  0  0
   10.4977  -15.1854   25.1552 N   0  0  0  0  0  0  0  0  0  0  0  0
   10.5904  -16.1426   24.0936 C   0  0  0  0  0  0  0  0  0  0  0  0
   11.2936  -17.1837   24.2798 O   0  0  0  0  0  0  0  0  0  0  0  0
    9.9156  -15.9949   22.7957 C   0  0  0  0  0  0  0  0  0  0  0  0
   10.7748  -15.2744   21.7724 C   0  0  2  0  0  0  0  0  0  0  0  0
   10.0504  -15.1558   20.5124 N   0  0  0  0  0  0  0  0  0  0  0  0
   12.0502  -16.0217   21.5747 C   0  0  0  0  0  0  0  0  0  0  0  0
   12.0991  -17.1567   21.0685 O   0  0  0  0  0  0  0  0  0  0  0  0
   13.2738  -15.4047   21.9871 N   0  0  0  0  0  0  0  0  0  0  0  0
   14.5669  -16.0708   21.8394 C   0  0  1  0  0  0  0  0  0  0  0  0
   15.5264  -14.9955   21.3311 C   0  0  0  0  0  0  0  0  0  0  0  0
   15.3605  -14.7248   19.8841 C   0  0  0  0  0  0  0  0  0  0  0  0
   14.5080  -15.3001   18.9732 C   0  0  0  0  0  0  0  0  0  0  0  0
   14.7372  -14.7153   17.7918 N   0  0  0  0  0  0  0  0  0  0  0  0
   15.6954  -13.7909   17.8943 C   0  0  0  0  0  0  0  0  0  0  0  0
   16.0751  -13.7992   19.1806 N   0  0  0  0  0  0  0  0  0  0  0  0
   15.0192  -16.6153   23.1433 C   0  0  0  0  0  0  0  0  0  0  0  0
   16.1836  -17.3432   23.2247 O   0  0  0  0  0  0  0  0  0  0  0  0
   14.3530  -16.4229   24.1894 O   0  0  0  0  0  0  0  0  0  0  0  0
  1  2  1  0
  3  2  1  0
  4  5  1  0
  4  3  1  0
  5  1  1  0
  5  6  1  1
  6  7  2  0
  8  9  1  0
  9 11  1  0
 10  9  2  0
 12 11  1  1
 12 14  1  0
 13  6  1  0
 13 12  1  0
 14 15  2  0
 16 14  1  0
 16 17  1  0
 17 24  1  0
 18 19  1  0
 17 18  1  1
 19 20  2  0
 19 23  1  0
 20 21  1  0
 21 22  1  0
 23 22  2  0
 24 25  1  0
 26 24  2  0
M  END
$$$$
