PNH.pdb
     RDKit          3D

 26 27  0  0  1  0  0  0  0  0999 V2000
    8.6248  -13.5840   20.7009 N   0  0  0  0  0  0  0  0  0  0  0  0
    9.0764  -12.4249   20.0071 C   0  0  0  0  0  0  0  0  0  0  0  0
    7.9340  -12.2109   19.0017 C   0  0  0  0  0  0  0  0  0  0  0  0
    7.7300  -13.6224   18.5087 C   0  0  0  0  0  0  0  0  0  0  0  0
    7.8970  -14.4132   19.8170 C   0  0  1  0  0  0  0  0  0  0  0  0
    8.4398  -15.7473   19.5568 C   0  0  0  0  0  0  0  0  0  0  0  0
    7.7630  -16.4857   18.7645 O   0  0  0  0  0  0  0  0  0  0  0  0
    8.5798  -17.1513   16.4573 N   0  0  0  0  0  0  0  0  0  0  0  0
    9.3939  -17.9212   17.3496 C   0  0  0  0  0  0  0  0  0  0  0  0
    9.1682  -19.1672   17.4489 O   0  0  0  0  0  0  0  0  0  0  0  0
   10.4826  -17.3555   18.1599 C   0  0  0  0  0  0  0  0  0  0  0  0
   10.2125  -17.4592   19.6501 C   0  0  2  0  0  0  0  0  0  0  0  0
    9.6432  -16.2089   20.1388 N   0  0  0  0  0  0  0  0  0  0  0  0
   11.4817  -17.7724   20.3681 C   0  0  0  0  0  0  0  0  0  0  0  0
   12.4764  -18.2615   19.8042 O   0  0  0  0  0  0  0  0  0  0  0  0
   11.5579  -17.4980   21.7706 N   0  0  0  0  0  0  0  0  0  0  0  0
   12.6272  -16.6826   22.3446 C   0  0  1  0  0  0  0  0  0  0  0  0
   12.5532  -15.3397   21.6190 C   0  0  0  0  0  0  0  0  0  0  0  0
   13.4508  -15.2804   20.4419 C   0  0  0  0  0  0  0  0  0  0  0  0
   14.5317  -16.0645   20.1189 C   0  0  0  0  0  0  0  0  0  0  0  0
   15.0128  -15.6156   18.9539 N   0  0  0  0  0  0  0  0  0  0  0  0
   14.2963  -14.5806   18.5083 C   0  0  0  0  0  0  0  0  0  0  0  0
   13.3378  -14.3782   19.4243 N   0  0  0  0  0  0  0  0  0  0  0  0
   12.4198  -16.5119   23.8037 C   0  0  0  0  0  0  0  0  0  0  0  0
   11.3039  -17.0382   24.4121 O   0  0  0  0  0  0  0  0  0  0  0  0
   13.2531  -15.8890   24.5058 O   0  0  0  0  0  0  0  0  0  0  0  0
  1  2  1  0
  3  2  1  0
  4  5  1  0
  4  3  1  0
  5  1  1  0
  5  6  1  6
  6  7  2  0
  8  9  1  0
  9 11  1  0
 10  9  2  0
 12 11  1  6
 12 14  1  0
 13  6  1  0
 13 12  1  0
 14 15  2  0
 16 14  1  0
 16 17  1  0
 17 24  1  0
 18 19  1  0
 17 18  1  6
 19 20  2  0
 19 23  1  0
 20 21  1  0
 21 22  1  0
 23 22  2  0
 24 25  1  0
 26 24  2  0
M  END
$$$$
