KQQ.pdb
     RDKit          3D

 28 27  0  0  1  0  0  0  0  0999 V2000
    5.1209  -19.3810   20.9814 N   0  0  0  0  0  0  0  0  0  0  0  0
    6.3593  -18.7350   21.4400 C   0  0  1  0  0  0  0  0  0  0  0  0
    6.6539  -17.5734   20.5544 C   0  0  0  0  0  0  0  0  0  0  0  0
    7.2211  -17.9932   19.2316 C   0  0  0  0  0  0  0  0  0  0  0  0
    7.5212  -16.7842   18.3412 C   0  0  0  0  0  0  0  0  0  0  0  0
    7.9810  -17.2190   16.9752 C   0  0  0  0  0  0  0  0  0  0  0  0
    8.2229  -16.0771   16.1115 N   0  0  0  0  0  0  0  0  0  0  0  0
    6.2077  -18.3008   22.8358 C   0  0  0  0  0  0  0  0  0  0  0  0
    5.1650  -17.7055   23.2316 O   0  0  0  0  0  0  0  0  0  0  0  0
    7.0267  -21.2447   28.1201 N   0  0  0  0  0  0  0  0  0  0  0  0
    6.6193  -21.4909   26.7564 C   0  0  0  0  0  0  0  0  0  0  0  0
    6.2014  -22.6279   26.5289 O   0  0  0  0  0  0  0  0  0  0  0  0
    6.7195  -20.4441   25.7782 C   0  0  0  0  0  0  0  0  0  0  0  0
    7.2696  -19.1252   26.1297 C   0  0  0  0  0  0  0  0  0  0  0  0
    7.2926  -18.0552   25.1067 C   0  0  2  0  0  0  0  0  0  0  0  0
    7.2729  -18.5665   23.7504 N   0  0  0  0  0  0  0  0  0  0  0  0
    8.2506  -16.9459   25.3196 C   0  0  0  0  0  0  0  0  0  0  0  0
    9.3791  -17.0657   24.7956 O   0  0  0  0  0  0  0  0  0  0  0  0
    6.6187  -11.2151   27.1894 N   0  0  0  0  0  0  0  0  0  0  0  0
    6.3230  -11.9180   25.9852 C   0  0  0  0  0  0  0  0  0  0  0  0
    5.4807  -11.5052   25.1913 O   0  0  0  0  0  0  0  0  0  0  0  0
    7.0710  -13.1735   25.7134 C   0  0  0  0  0  0  0  0  0  0  0  0
    8.0685  -13.4826   26.7934 C   0  0  0  0  0  0  0  0  0  0  0  0
    8.8109  -14.7690   26.5577 C   0  0  2  0  0  0  0  0  0  0  0  0
    7.9361  -15.7967   26.0739 N   0  0  0  0  0  0  0  0  0  0  0  0
    9.7013  -15.1557   27.6510 C   0  0  0  0  0  0  0  0  0  0  0  0
    9.5084  -16.2362   28.2535 O   0  0  0  0  0  0  0  0  0  0  0  0
   10.7517  -14.3397   28.0246 O   0  0  0  0  0  0  0  0  0  0  0  0
  2  1  1  6
  3  2  1  0
  4  5  1  0
  4  3  1  0
  6  7  1  0
  6  5  1  0
  8  9  2  0
  8  2  1  0
 10 11  1  0
 11 12  2  0
 13 14  1  0
 13 11  1  0
 15 14  1  1
 15 16  1  0
 16  8  1  0
 17 15  1  0
 18 17  2  0
 20 19  1  0
 20 22  1  0
 21 20  2  0
 23 22  1  0
 24 23  1  1
 24 25  1  0
 25 17  1  0
 26 28  1  0
 26 24  1  0
 27 26  2  0
M  END
$$$$
