KQQ.pdb
     RDKit          3D

 28 27  0  0  1  0  0  0  0  0999 V2000
   12.0221  -18.6356   17.2516 N   0  0  0  0  0  0  0  0  0  0  0  0
   10.6623  -18.4960   17.7928 C   0  0  1  0  0  0  0  0  0  0  0  0
   10.1596  -19.8421   18.1875 C   0  0  0  0  0  0  0  0  0  0  0  0
   11.1561  -20.6061   19.0067 C   0  0  0  0  0  0  0  0  0  0  0  0
   10.6027  -21.9678   19.4358 C   0  0  0  0  0  0  0  0  0  0  0  0
   11.6063  -22.7224   20.2663 C   0  0  0  0  0  0  0  0  0  0  0  0
   11.0652  -23.9892   20.7257 N   0  0  0  0  0  0  0  0  0  0  0  0
   10.6760  -17.5860   18.9467 C   0  0  0  0  0  0  0  0  0  0  0  0
   11.7607  -17.1961   19.4661 O   0  0  0  0  0  0  0  0  0  0  0  0
    6.6186  -12.7991   19.7438 N   0  0  0  0  0  0  0  0  0  0  0  0
    7.4656  -12.8007   20.9137 C   0  0  0  0  0  0  0  0  0  0  0  0
    7.4152  -11.7791   21.6016 O   0  0  0  0  0  0  0  0  0  0  0  0
    8.2884  -13.9422   21.2015 C   0  0  0  0  0  0  0  0  0  0  0  0
    8.4812  -15.0104   20.2078 C   0  0  0  0  0  0  0  0  0  0  0  0
    9.3257  -16.1761   20.5539 C   0  0  2  0  0  0  0  0  0  0  0  0
    9.4260  -17.1433   19.4788 N   0  0  0  0  0  0  0  0  0  0  0  0
    9.1191  -16.7791   21.8908 C   0  0  0  0  0  0  0  0  0  0  0  0
    8.2371  -17.6601   21.9830 O   0  0  0  0  0  0  0  0  0  0  0  0
   14.6526  -19.7146   23.2689 N   0  0  0  0  0  0  0  0  0  0  0  0
   13.2471  -19.9465   23.2184 C   0  0  0  0  0  0  0  0  0  0  0  0
   12.7712  -20.8622   22.5511 O   0  0  0  0  0  0  0  0  0  0  0  0
   12.3665  -19.0437   24.0051 C   0  0  0  0  0  0  0  0  0  0  0  0
   11.5533  -18.1382   23.1244 C   0  0  0  0  0  0  0  0  0  0  0  0
   10.6552  -17.2143   23.9000 C   0  0  2  0  0  0  0  0  0  0  0  0
    9.8640  -16.3984   23.0260 N   0  0  0  0  0  0  0  0  0  0  0  0
   11.3214  -16.5111   24.9951 C   0  0  0  0  0  0  0  0  0  0  0  0
   11.5433  -15.2828   24.8976 O   0  0  0  0  0  0  0  0  0  0  0  0
   11.7080  -17.1900   26.1346 O   0  0  0  0  0  0  0  0  0  0  0  0
  2  1  1  1
  3  2  1  0
  4  5  1  0
  4  3  1  0
  6  7  1  0
  6  5  1  0
  8  9  2  0
  8  2  1  0
 10 11  1  0
 11 12  2  0
 13 14  1  0
 13 11  1  0
 15 14  1  6
 15 16  1  0
 16  8  1  0
 17 15  1  0
 18 17  2  0
 20 19  1  0
 20 22  1  0
 21 20  2  0
 23 22  1  0
 24 23  1  6
 24 25  1  0
 25 17  1  0
 26 28  1  0
 26 24  1  0
 27 26  2  0
M  END
$$$$
