KQQ.pdb
     RDKit          3D

 28 27  0  0  1  0  0  0  0  0999 V2000
    9.1081  -15.9786   19.6247 N   0  0  0  0  0  0  0  0  0  0  0  0
    8.6115  -14.6456   19.9958 C   0  0  1  0  0  0  0  0  0  0  0  0
    7.6488  -14.1829   18.9568 C   0  0  0  0  0  0  0  0  0  0  0  0
    8.2980  -14.0000   17.6179 C   0  0  0  0  0  0  0  0  0  0  0  0
    7.2872  -13.5428   16.5625 C   0  0  0  0  0  0  0  0  0  0  0  0
    7.9699  -13.2363   15.2562 C   0  0  0  0  0  0  0  0  0  0  0  0
    7.0040  -12.9523   14.2099 N   0  0  0  0  0  0  0  0  0  0  0  0
    7.9664  -14.7034   21.3150 C   0  0  0  0  0  0  0  0  0  0  0  0
    6.7304  -14.4777   21.4550 O   0  0  0  0  0  0  0  0  0  0  0  0
    5.7911  -18.3722   25.2198 N   0  0  0  0  0  0  0  0  0  0  0  0
    6.6115  -18.6578   24.0659 C   0  0  0  0  0  0  0  0  0  0  0  0
    6.6688  -19.8456   23.7416 O   0  0  0  0  0  0  0  0  0  0  0  0
    7.2900  -17.5897   23.3865 C   0  0  0  0  0  0  0  0  0  0  0  0
    7.0684  -16.1853   23.7661 C   0  0  0  0  0  0  0  0  0  0  0  0
    8.2146  -15.2482   23.7718 C   0  0  2  0  0  0  0  0  0  0  0  0
    8.7704  -15.0235   22.4520 N   0  0  0  0  0  0  0  0  0  0  0  0
    9.2323  -15.4418   24.8303 C   0  0  0  0  0  0  0  0  0  0  0  0
    8.8217  -15.4692   26.0106 O   0  0  0  0  0  0  0  0  0  0  0  0
   10.3307  -16.0966   29.4522 N   0  0  0  0  0  0  0  0  0  0  0  0
   10.2423  -14.8006   28.8657 C   0  0  0  0  0  0  0  0  0  0  0  0
    9.8264  -13.8349   29.5020 O   0  0  0  0  0  0  0  0  0  0  0  0
   10.6740  -14.6484   27.4514 C   0  0  0  0  0  0  0  0  0  0  0  0
   11.2034  -15.9331   26.8803 C   0  0  0  0  0  0  0  0  0  0  0  0
   11.6941  -15.7901   25.4660 C   0  0  2  0  0  0  0  0  0  0  0  0
   10.6070  -15.5896   24.5529 N   0  0  0  0  0  0  0  0  0  0  0  0
   12.6795  -16.7948   25.0694 C   0  0  0  0  0  0  0  0  0  0  0  0
   12.4813  -17.4847   24.0435 O   0  0  0  0  0  0  0  0  0  0  0  0
   13.8252  -16.9894   25.8165 O   0  0  0  0  0  0  0  0  0  0  0  0
  2  1  1  6
  3  2  1  0
  4  5  1  0
  4  3  1  0
  6  7  1  0
  6  5  1  0
  8  9  2  0
  8  2  1  0
 10 11  1  0
 11 12  2  0
 13 14  1  0
 13 11  1  0
 15 14  1  6
 15 16  1  0
 16  8  1  0
 17 15  1  0
 18 17  2  0
 20 19  1  0
 20 22  1  0
 21 20  2  0
 23 22  1  0
 24 23  1  1
 24 25  1  0
 25 17  1  0
 26 28  1  0
 26 24  1  0
 27 26  2  0
M  END
$$$$
