KQQ.pdb
     RDKit          3D

 28 27  0  0  1  0  0  0  0  0999 V2000
    6.3880  -16.8974   20.5322 N   0  0  0  0  0  0  0  0  0  0  0  0
    7.5179  -16.0066   20.8341 C   0  0  1  0  0  0  0  0  0  0  0  0
    6.9882  -14.6630   21.2008 C   0  0  0  0  0  0  0  0  0  0  0  0
    7.6311  -13.5613   20.4129 C   0  0  0  0  0  0  0  0  0  0  0  0
    7.4538  -13.7721   18.9067 C   0  0  0  0  0  0  0  0  0  0  0  0
    8.2561  -12.7689   18.1216 C   0  0  0  0  0  0  0  0  0  0  0  0
    8.0734  -12.9492   16.6925 N   0  0  0  0  0  0  0  0  0  0  0  0
    8.3167  -16.5692   21.9319 C   0  0  0  0  0  0  0  0  0  0  0  0
    7.7712  -17.1432   22.9173 O   0  0  0  0  0  0  0  0  0  0  0  0
   14.3025  -18.8449   21.4231 N   0  0  0  0  0  0  0  0  0  0  0  0
   14.1010  -18.6424   22.8390 C   0  0  0  0  0  0  0  0  0  0  0  0
   15.0317  -19.0065   23.5606 O   0  0  0  0  0  0  0  0  0  0  0  0
   12.8792  -18.0545   23.3124 C   0  0  0  0  0  0  0  0  0  0  0  0
   11.8903  -17.4979   22.3754 C   0  0  0  0  0  0  0  0  0  0  0  0
   10.6190  -16.9540   22.9044 C   0  0  2  0  0  0  0  0  0  0  0  0
    9.7395  -16.4549   21.8658 N   0  0  0  0  0  0  0  0  0  0  0  0
   10.7101  -16.0742   24.0923 C   0  0  0  0  0  0  0  0  0  0  0  0
   11.1349  -14.9136   23.9045 O   0  0  0  0  0  0  0  0  0  0  0  0
    7.0990  -11.7342   26.3550 N   0  0  0  0  0  0  0  0  0  0  0  0
    6.8865  -13.1416   26.2811 C   0  0  0  0  0  0  0  0  0  0  0  0
    5.8886  -13.6127   25.7400 O   0  0  0  0  0  0  0  0  0  0  0  0
    7.9164  -14.0309   26.8794 C   0  0  0  0  0  0  0  0  0  0  0  0
    8.5513  -14.9293   25.8564 C   0  0  0  0  0  0  0  0  0  0  0  0
    9.6714  -15.7609   26.4180 C   0  0  2  0  0  0  0  0  0  0  0  0
   10.3447  -16.4959   25.3874 N   0  0  0  0  0  0  0  0  0  0  0  0
    9.3099  -16.5257   27.6106 C   0  0  0  0  0  0  0  0  0  0  0  0
    8.8106  -17.6670   27.4860 O   0  0  0  0  0  0  0  0  0  0  0  0
    9.5139  -15.9997   28.8717 O   0  0  0  0  0  0  0  0  0  0  0  0
  2  1  1  1
  3  2  1  0
  4  5  1  0
  4  3  1  0
  6  7  1  0
  6  5  1  0
  8  9  2  0
  8  2  1  0
 10 11  1  0
 11 12  2  0
 13 14  1  0
 13 11  1  0
 15 14  1  6
 15 16  1  0
 16  8  1  0
 17 15  1  0
 18 17  2  0
 20 19  1  0
 20 22  1  0
 21 20  2  0
 23 22  1  0
 24 23  1  6
 24 25  1  0
 25 17  1  0
 26 28  1  0
 26 24  1  0
 27 26  2  0
M  END
$$$$
