KQQ.pdb
     RDKit          3D

 28 27  0  0  1  0  0  0  0  0999 V2000
    5.8396  -20.4013   19.4734 N   0  0  0  0  0  0  0  0  0  0  0  0
    5.5925  -19.4639   20.5786 C   0  0  1  0  0  0  0  0  0  0  0  0
    5.4018  -20.2402   21.8362 C   0  0  0  0  0  0  0  0  0  0  0  0
    4.3842  -21.3308   21.6852 C   0  0  0  0  0  0  0  0  0  0  0  0
    4.1318  -22.0498   23.0133 C   0  0  0  0  0  0  0  0  0  0  0  0
    3.0299  -23.0665   22.8774 C   0  0  0  0  0  0  0  0  0  0  0  0
    2.7030  -23.6650   24.1593 N   0  0  0  0  0  0  0  0  0  0  0  0
    6.7237  -18.5345   20.7065 C   0  0  0  0  0  0  0  0  0  0  0  0
    7.9197  -18.9425   20.6687 O   0  0  0  0  0  0  0  0  0  0  0  0
    6.7863  -12.3495   18.9680 N   0  0  0  0  0  0  0  0  0  0  0  0
    8.0523  -12.6113   19.6121 C   0  0  0  0  0  0  0  0  0  0  0  0
    8.9038  -11.7304   19.4770 O   0  0  0  0  0  0  0  0  0  0  0  0
    8.2457  -13.8322   20.3434 C   0  0  0  0  0  0  0  0  0  0  0  0
    7.2165  -14.8840   20.3528 C   0  0  0  0  0  0  0  0  0  0  0  0
    7.4832  -16.1504   21.0717 C   0  0  2  0  0  0  0  0  0  0  0  0
    6.4454  -17.1433   20.8764 N   0  0  0  0  0  0  0  0  0  0  0  0
    7.9562  -16.0391   22.4708 C   0  0  0  0  0  0  0  0  0  0  0  0
    7.0923  -16.1379   23.3688 O   0  0  0  0  0  0  0  0  0  0  0  0
    9.5604  -20.6525   23.9159 N   0  0  0  0  0  0  0  0  0  0  0  0
   10.5283  -20.1332   24.8243 C   0  0  0  0  0  0  0  0  0  0  0  0
   11.1481  -20.8671   25.5908 O   0  0  0  0  0  0  0  0  0  0  0  0
   10.7708  -18.6667   24.8158 C   0  0  0  0  0  0  0  0  0  0  0  0
    9.9213  -17.9588   23.7989 C   0  0  0  0  0  0  0  0  0  0  0  0
   10.0937  -16.4651   23.8257 C   0  0  2  0  0  0  0  0  0  0  0  0
    9.3096  -15.8297   22.8073 N   0  0  0  0  0  0  0  0  0  0  0  0
   11.4843  -16.0243   23.9239 C   0  0  0  0  0  0  0  0  0  0  0  0
   11.9987  -15.3837   22.9791 O   0  0  0  0  0  0  0  0  0  0  0  0
   12.2344  -16.3090   25.0486 O   0  0  0  0  0  0  0  0  0  0  0  0
  2  1  1  6
  3  2  1  0
  4  5  1  0
  4  3  1  0
  6  7  1  0
  6  5  1  0
  8  9  2  0
  8  2  1  0
 10 11  1  0
 11 12  2  0
 13 14  1  0
 13 11  1  0
 15 14  1  1
 15 16  1  0
 16  8  1  0
 17 15  1  0
 18 17  2  0
 20 19  1  0
 20 22  1  0
 21 20  2  0
 23 22  1  0
 24 23  1  6
 24 25  1  0
 25 17  1  0
 26 28  1  0
 26 24  1  0
 27 26  2  0
M  END
$$$$
