KQQ.pdb
     RDKit          3D

 28 27  0  0  1  0  0  0  0  0999 V2000
    7.6567  -17.6568   20.3586 N   0  0  0  0  0  0  0  0  0  0  0  0
    8.5677  -16.7509   21.0731 C   0  0  1  0  0  0  0  0  0  0  0  0
    8.1151  -15.3469   20.8626 C   0  0  0  0  0  0  0  0  0  0  0  0
    8.4515  -14.8377   19.4932 C   0  0  0  0  0  0  0  0  0  0  0  0
    7.9664  -13.3990   19.2952 C   0  0  0  0  0  0  0  0  0  0  0  0
    8.2767  -12.9096   17.9057 C   0  0  0  0  0  0  0  0  0  0  0  0
    7.7307  -11.5834   17.6791 N   0  0  0  0  0  0  0  0  0  0  0  0
    8.5818  -17.0848   22.5042 C   0  0  0  0  0  0  0  0  0  0  0  0
    7.5127  -17.3182   23.1373 O   0  0  0  0  0  0  0  0  0  0  0  0
   12.6775  -20.7462   25.3877 N   0  0  0  0  0  0  0  0  0  0  0  0
   12.0575  -20.5932   24.0922 C   0  0  0  0  0  0  0  0  0  0  0  0
   12.3920  -21.4257   23.2469 O   0  0  0  0  0  0  0  0  0  0  0  0
   11.1253  -19.5245   23.8652 C   0  0  0  0  0  0  0  0  0  0  0  0
   10.8154  -18.5487   24.9223 C   0  0  0  0  0  0  0  0  0  0  0  0
    9.9629  -17.3814   24.6015 C   0  0  2  0  0  0  0  0  0  0  0  0
    9.8410  -17.1421   23.1771 N   0  0  0  0  0  0  0  0  0  0  0  0
   10.1780  -16.1549   25.4033 C   0  0  0  0  0  0  0  0  0  0  0  0
   11.0980  -15.3931   25.0347 O   0  0  0  0  0  0  0  0  0  0  0  0
    6.2032  -11.7081   27.4066 N   0  0  0  0  0  0  0  0  0  0  0  0
    6.4485  -12.6323   26.3496 C   0  0  0  0  0  0  0  0  0  0  0  0
    5.5753  -12.9222   25.5348 O   0  0  0  0  0  0  0  0  0  0  0  0
    7.8029  -13.2380   26.2582 C   0  0  0  0  0  0  0  0  0  0  0  0
    8.1769  -13.9786   27.5106 C   0  0  0  0  0  0  0  0  0  0  0  0
    9.4952  -14.6938   27.3995 C   0  0  2  0  0  0  0  0  0  0  0  0
    9.4006  -15.8338   26.5351 N   0  0  0  0  0  0  0  0  0  0  0  0
   10.1628  -14.9216   28.6802 C   0  0  0  0  0  0  0  0  0  0  0  0
   10.3525  -13.9597   29.4589 O   0  0  0  0  0  0  0  0  0  0  0  0
   10.5858  -16.1874   29.0373 O   0  0  0  0  0  0  0  0  0  0  0  0
  2  1  1  6
  3  2  1  0
  4  5  1  0
  4  3  1  0
  6  7  1  0
  6  5  1  0
  8  9  2  0
  8  2  1  0
 10 11  1  0
 11 12  2  0
 13 14  1  0
 13 11  1  0
 15 14  1  6
 15 16  1  0
 16  8  1  0
 17 15  1  0
 18 17  2  0
 20 19  1  0
 20 22  1  0
 21 20  2  0
 23 22  1  0
 24 23  1  1
 24 25  1  0
 25 17  1  0
 26 28  1  0
 26 24  1  0
 27 26  2  0
M  END
$$$$
