KQQ.pdb
     RDKit          3D

 28 27  0  0  1  0  0  0  0  0999 V2000
    8.2149  -13.0725   19.0330 N   0  0  0  0  0  0  0  0  0  0  0  0
    7.9089  -14.3166   19.7540 C   0  0  1  0  0  0  0  0  0  0  0  0
    8.4470  -15.4689   18.9776 C   0  0  0  0  0  0  0  0  0  0  0  0
    7.5862  -15.8159   17.8001 C   0  0  0  0  0  0  0  0  0  0  0  0
    6.8523  -17.1426   18.0138 C   0  0  0  0  0  0  0  0  0  0  0  0
    6.0994  -17.5502   16.7755 C   0  0  0  0  0  0  0  0  0  0  0  0
    5.2154  -18.6712   17.0403 N   0  0  0  0  0  0  0  0  0  0  0  0
    8.5010  -14.2721   21.0983 C   0  0  0  0  0  0  0  0  0  0  0  0
    9.7497  -14.3658   21.2722 O   0  0  0  0  0  0  0  0  0  0  0  0
    5.5887  -12.0808   26.5204 N   0  0  0  0  0  0  0  0  0  0  0  0
    6.8849  -12.5964   26.8949 C   0  0  0  0  0  0  0  0  0  0  0  0
    7.2442  -12.3331   28.0442 O   0  0  0  0  0  0  0  0  0  0  0  0
    7.6553  -13.3548   25.9493 C   0  0  0  0  0  0  0  0  0  0  0  0
    7.2370  -13.4657   24.5428 C   0  0  0  0  0  0  0  0  0  0  0  0
    8.0879  -14.2173   23.5925 C   0  0  2  0  0  0  0  0  0  0  0  0
    7.6300  -14.1190   22.2206 N   0  0  0  0  0  0  0  0  0  0  0  0
    8.4972  -15.5824   23.9956 C   0  0  0  0  0  0  0  0  0  0  0  0
    8.3003  -16.4987   23.1685 O   0  0  0  0  0  0  0  0  0  0  0  0
   13.1781  -16.8918   21.5974 N   0  0  0  0  0  0  0  0  0  0  0  0
   13.1446  -16.9104   23.0222 C   0  0  0  0  0  0  0  0  0  0  0  0
   14.1462  -16.6661   23.6911 O   0  0  0  0  0  0  0  0  0  0  0  0
   11.8521  -17.2335   23.6814 C   0  0  0  0  0  0  0  0  0  0  0  0
   11.4109  -16.1493   24.6231 C   0  0  0  0  0  0  0  0  0  0  0  0
   10.2938  -16.5794   25.5333 C   0  0  2  0  0  0  0  0  0  0  0  0
    9.0822  -15.8683   25.2465 N   0  0  0  0  0  0  0  0  0  0  0  0
   10.6667  -16.6549   26.9450 C   0  0  0  0  0  0  0  0  0  0  0  0
   10.7916  -15.6010   27.6093 O   0  0  0  0  0  0  0  0  0  0  0  0
   10.8827  -17.8776   27.5509 O   0  0  0  0  0  0  0  0  0  0  0  0
  2  1  1  6
  3  2  1  0
  4  5  1  0
  4  3  1  0
  6  7  1  0
  6  5  1  0
  8  9  2  0
  8  2  1  0
 10 11  1  0
 11 12  2  0
 13 14  1  0
 13 11  1  0
 15 14  1  1
 15 16  1  0
 16  8  1  0
 17 15  1  0
 18 17  2  0
 20 19  1  0
 20 22  1  0
 21 20  2  0
 23 22  1  0
 24 23  1  6
 24 25  1  0
 25 17  1  0
 26 28  1  0
 26 24  1  0
 27 26  2  0
M  END
$$$$
