KQQ.pdb
     RDKit          3D

 28 27  0  0  1  0  0  0  0  0999 V2000
    4.5752  -20.4921   20.8655 N   0  0  0  0  0  0  0  0  0  0  0  0
    5.8958  -20.1842   21.4334 C   0  0  1  0  0  0  0  0  0  0  0  0
    6.7074  -19.4701   20.4078 C   0  0  0  0  0  0  0  0  0  0  0  0
    6.8154  -20.2414   19.1266 C   0  0  0  0  0  0  0  0  0  0  0  0
    7.7691  -19.5604   18.1410 C   0  0  0  0  0  0  0  0  0  0  0  0
    7.8725  -20.3433   16.8594 C   0  0  0  0  0  0  0  0  0  0  0  0
    8.6555  -19.6294   15.8666 N   0  0  0  0  0  0  0  0  0  0  0  0
    5.7398  -19.3606   22.6404 C   0  0  0  0  0  0  0  0  0  0  0  0
    4.8552  -18.4605   22.7146 O   0  0  0  0  0  0  0  0  0  0  0  0
    7.1545  -21.5084   28.3932 N   0  0  0  0  0  0  0  0  0  0  0  0
    8.1071  -20.4579   28.1187 C   0  0  0  0  0  0  0  0  0  0  0  0
    9.0689  -20.4052   28.8877 O   0  0  0  0  0  0  0  0  0  0  0  0
    7.8928  -19.5668   27.0129 C   0  0  0  0  0  0  0  0  0  0  0  0
    6.6789  -19.6594   26.1861 C   0  0  0  0  0  0  0  0  0  0  0  0
    6.5676  -18.8242   24.9688 C   0  0  2  0  0  0  0  0  0  0  0  0
    6.6165  -19.5974   23.7436 N   0  0  0  0  0  0  0  0  0  0  0  0
    7.3757  -17.5835   24.9320 C   0  0  0  0  0  0  0  0  0  0  0  0
    8.5182  -17.6681   24.4318 O   0  0  0  0  0  0  0  0  0  0  0  0
    5.0161  -11.9479   26.6881 N   0  0  0  0  0  0  0  0  0  0  0  0
    6.3477  -11.5646   26.3539 C   0  0  0  0  0  0  0  0  0  0  0  0
    6.7102  -10.3915   26.4058 O   0  0  0  0  0  0  0  0  0  0  0  0
    7.2941  -12.6337   25.9404 C   0  0  0  0  0  0  0  0  0  0  0  0
    6.6451  -13.9885   25.9244 C   0  0  0  0  0  0  0  0  0  0  0  0
    7.5665  -15.0765   25.4462 C   0  0  2  0  0  0  0  0  0  0  0  0
    6.9083  -16.3501   25.4309 N   0  0  0  0  0  0  0  0  0  0  0  0
    8.8915  -15.0539   26.0641 C   0  0  0  0  0  0  0  0  0  0  0  0
    9.1385  -15.8155   27.0267 O   0  0  0  0  0  0  0  0  0  0  0  0
    9.8713  -14.1999   25.5956 O   0  0  0  0  0  0  0  0  0  0  0  0
  2  1  1  6
  3  2  1  0
  4  5  1  0
  4  3  1  0
  6  7  1  0
  6  5  1  0
  8  9  2  0
  8  2  1  0
 10 11  1  0
 11 12  2  0
 13 14  1  0
 13 11  1  0
 15 14  1  1
 15 16  1  0
 16  8  1  0
 17 15  1  0
 18 17  2  0
 20 19  1  0
 20 22  1  0
 21 20  2  0
 23 22  1  0
 24 23  1  1
 24 25  1  0
 25 17  1  0
 26 28  1  0
 26 24  1  0
 27 26  2  0
M  END
$$$$
