KQQ.pdb
     RDKit          3D

 28 27  0  0  1  0  0  0  0  0999 V2000
    9.9504  -19.9084   16.7115 N   0  0  0  0  0  0  0  0  0  0  0  0
    9.0009  -19.5250   17.7664 C   0  0  1  0  0  0  0  0  0  0  0  0
    8.7073  -20.7189   18.6083 C   0  0  0  0  0  0  0  0  0  0  0  0
    7.8468  -21.7206   17.8984 C   0  0  0  0  0  0  0  0  0  0  0  0
    8.6315  -22.9893   17.5535 C   0  0  0  0  0  0  0  0  0  0  0  0
    7.7332  -24.0324   16.9440 C   0  0  0  0  0  0  0  0  0  0  0  0
    8.4634  -25.2535   16.6540 N   0  0  0  0  0  0  0  0  0  0  0  0
    9.5701  -18.4413   18.5796 C   0  0  0  0  0  0  0  0  0  0  0  0
   10.7932  -18.4292   18.8989 O   0  0  0  0  0  0  0  0  0  0  0  0
    6.9239  -12.3367   21.5423 N   0  0  0  0  0  0  0  0  0  0  0  0
    7.7870  -12.7131   20.4470 C   0  0  0  0  0  0  0  0  0  0  0  0
    7.7676  -11.9536   19.4765 O   0  0  0  0  0  0  0  0  0  0  0  0
    8.5870  -13.9022   20.5407 C   0  0  0  0  0  0  0  0  0  0  0  0
    8.2809  -15.0905   19.7284 C   0  0  0  0  0  0  0  0  0  0  0  0
    9.1619  -16.2767   19.8214 C   0  0  2  0  0  0  0  0  0  0  0  0
    8.7061  -17.3872   19.0089 N   0  0  0  0  0  0  0  0  0  0  0  0
    9.6185  -16.6669   21.1752 C   0  0  0  0  0  0  0  0  0  0  0  0
    8.8203  -17.3314   21.8709 O   0  0  0  0  0  0  0  0  0  0  0  0
   11.0622  -21.1641   23.4687 N   0  0  0  0  0  0  0  0  0  0  0  0
   12.3265  -20.5503   23.7063 C   0  0  0  0  0  0  0  0  0  0  0  0
   13.3511  -21.2176   23.8295 O   0  0  0  0  0  0  0  0  0  0  0  0
   12.3711  -19.0673   23.7983 C   0  0  0  0  0  0  0  0  0  0  0  0
   11.6567  -18.4078   22.6531 C   0  0  0  0  0  0  0  0  0  0  0  0
   11.6131  -16.9092   22.7717 C   0  0  2  0  0  0  0  0  0  0  0  0
   10.8864  -16.3195   21.6855 N   0  0  0  0  0  0  0  0  0  0  0  0
   12.9036  -16.2950   23.0799 C   0  0  0  0  0  0  0  0  0  0  0  0
   13.5680  -16.7082   24.0574 O   0  0  0  0  0  0  0  0  0  0  0  0
   13.3949  -15.2635   22.3030 O   0  0  0  0  0  0  0  0  0  0  0  0
  2  1  1  6
  3  2  1  0
  4  5  1  0
  4  3  1  0
  6  7  1  0
  6  5  1  0
  8  9  2  0
  8  2  1  0
 10 11  1  0
 11 12  2  0
 13 14  1  0
 13 11  1  0
 15 14  1  1
 15 16  1  0
 16  8  1  0
 17 15  1  0
 18 17  2  0
 20 19  1  0
 20 22  1  0
 21 20  2  0
 23 22  1  0
 24 23  1  6
 24 25  1  0
 25 17  1  0
 26 28  1  0
 26 24  1  0
 27 26  2  0
M  END
$$$$
