KQQ.pdb
     RDKit          3D

 28 27  0  0  1  0  0  0  0  0999 V2000
    7.9159  -16.4823   20.0151 N   0  0  0  0  0  0  0  0  0  0  0  0
    9.2680  -15.9059   20.0416 C   0  0  1  0  0  0  0  0  0  0  0  0
    9.3454  -14.8108   19.0340 C   0  0  0  0  0  0  0  0  0  0  0  0
    8.9728  -15.2739   17.6576 C   0  0  0  0  0  0  0  0  0  0  0  0
    7.7498  -14.5221   17.1251 C   0  0  0  0  0  0  0  0  0  0  0  0
    8.1538  -13.4682   16.1289 C   0  0  0  0  0  0  0  0  0  0  0  0
    6.9967  -12.7606   15.6106 N   0  0  0  0  0  0  0  0  0  0  0  0
    9.5668  -15.3974   21.3877 C   0  0  0  0  0  0  0  0  0  0  0  0
   10.6868  -14.8801   21.6636 O   0  0  0  0  0  0  0  0  0  0  0  0
    5.3710  -12.7843   25.4299 N   0  0  0  0  0  0  0  0  0  0  0  0
    6.6051  -12.9122   26.1694 C   0  0  0  0  0  0  0  0  0  0  0  0
    6.6325  -12.3261   27.2534 O   0  0  0  0  0  0  0  0  0  0  0  0
    7.6900  -13.6807   25.6261 C   0  0  0  0  0  0  0  0  0  0  0  0
    7.6304  -14.2182   24.2575 C   0  0  0  0  0  0  0  0  0  0  0  0
    8.7521  -15.0439   23.7554 C   0  0  2  0  0  0  0  0  0  0  0  0
    8.5564  -15.4987   22.3930 N   0  0  0  0  0  0  0  0  0  0  0  0
    9.2793  -16.0836   24.6689 C   0  0  0  0  0  0  0  0  0  0  0  0
    8.8019  -17.2329   24.5522 O   0  0  0  0  0  0  0  0  0  0  0  0
   13.1209  -16.0703   30.9622 N   0  0  0  0  0  0  0  0  0  0  0  0
   11.9625  -15.6615   30.2393 C   0  0  0  0  0  0  0  0  0  0  0  0
   11.3682  -14.6214   30.5139 O   0  0  0  0  0  0  0  0  0  0  0  0
   11.4917  -16.5348   29.1324 C   0  0  0  0  0  0  0  0  0  0  0  0
   11.0937  -15.7443   27.9184 C   0  0  0  0  0  0  0  0  0  0  0  0
   10.6553  -16.6106   26.7700 C   0  0  2  0  0  0  0  0  0  0  0  0
   10.2712  -15.8214   25.6363 N   0  0  0  0  0  0  0  0  0  0  0  0
    9.7283  -17.6775   27.1444 C   0  0  0  0  0  0  0  0  0  0  0  0
    8.5032  -17.4325   27.2261 O   0  0  0  0  0  0  0  0  0  0  0  0
   10.1925  -18.9516   27.4091 O   0  0  0  0  0  0  0  0  0  0  0  0
  2  1  1  1
  3  2  1  0
  4  5  1  0
  4  3  1  0
  6  7  1  0
  6  5  1  0
  8  9  2  0
  8  2  1  0
 10 11  1  0
 11 12  2  0
 13 14  1  0
 13 11  1  0
 15 14  1  1
 15 16  1  0
 16  8  1  0
 17 15  1  0
 18 17  2  0
 20 19  1  0
 20 22  1  0
 21 20  2  0
 23 22  1  0
 24 23  1  1
 24 25  1  0
 25 17  1  0
 26 28  1  0
 26 24  1  0
 27 26  2  0
M  END
$$$$
