CLY.pdb
     RDKit          3D

 27 27  0  0  1  0  0  0  0  0999 V2000
    6.2738  -19.6954   21.6116 N   0  0  0  0  0  0  0  0  0  0  0  0
    6.0928  -18.2874   21.7609 C   0  0  1  0  0  0  0  0  0  0  0  0
    5.2706  -17.9852   22.9982 C   0  0  0  0  0  0  0  0  0  0  0  0
    6.1967  -18.3689   24.5101 S   0  0  0  0  0  0  0  0  0  0  0  0
    7.3199  -17.4978   21.6859 C   0  0  0  0  0  0  0  0  0  0  0  0
    8.4061  -18.1084   21.4952 O   0  0  0  0  0  0  0  0  0  0  0  0
    7.5403  -12.1738   19.8532 C   0  0  0  0  0  0  0  0  0  0  0  0
    7.7607  -13.6647   20.0252 C   0  0  1  0  0  0  0  0  0  0  0  0
    8.5023  -14.1573   18.8284 C   0  0  0  0  0  0  0  0  0  0  0  0
    8.5047  -13.9392   21.3244 C   0  0  0  0  0  0  0  0  0  0  0  0
    8.6348  -15.3970   21.6143 C   0  0  2  0  0  0  0  0  0  0  0  0
    7.4141  -16.0992   21.8071 N   0  0  0  0  0  0  0  0  0  0  0  0
    9.4313  -15.5375   22.8890 C   0  0  0  0  0  0  0  0  0  0  0  0
   10.6156  -15.1166   22.9254 O   0  0  0  0  0  0  0  0  0  0  0  0
    5.2584  -12.1044   27.2641 O   0  0  0  0  0  0  0  0  0  0  0  0
    6.4391  -12.7542   26.8897 C   0  0  0  0  0  0  0  0  0  0  0  0
    6.4422  -13.5697   25.7777 C   0  0  0  0  0  0  0  0  0  0  0  0
    7.6120  -14.2057   25.4175 C   0  0  0  0  0  0  0  0  0  0  0  0
    8.7956  -14.0556   26.1362 C   0  0  0  0  0  0  0  0  0  0  0  0
   10.0229  -14.7669   25.7461 C   0  0  0  0  0  0  0  0  0  0  0  0
    9.7111  -16.1426   25.2744 C   0  0  2  0  0  0  0  0  0  0  0  0
    8.9091  -16.1207   24.0463 N   0  0  0  0  0  0  0  0  0  0  0  0
    9.0972  -17.0056   26.2908 C   0  0  0  0  0  0  0  0  0  0  0  0
    7.9103  -17.6429   26.0087 O   0  0  0  0  0  0  0  0  0  0  0  0
    8.7834  -13.2389   27.2458 C   0  0  0  0  0  0  0  0  0  0  0  0
    7.6126  -12.5995   27.6103 C   0  0  0  0  0  0  0  0  0  0  0  0
    9.6331  -17.1651   27.3930 O   0  0  0  0  0  0  0  0  0  0  0  0
  2  1  1  1
  3  2  1  0
  3  4  1  0
  5  6  2  0
  5  2  1  0
  8  7  1  6
  8  9  1  0
 11 10  1  1
 10  8  1  0
 11 12  1  0
 12  5  1  0
 13 11  1  0
 14 13  2  0
 16 17  2  0
 16 15  1  0
 18 17  1  0
 19 18  2  0
 20 19  1  0
 21 20  1  1
 21 22  1  0
 22 13  1  0
 23 21  1  0
 24 23  1  0
 25 19  1  0
 25 26  2  0
 26 16  1  0
 27 23  2  0
M  END
$$$$
