CLY.pdb
     RDKit          3D

 27 27  0  0  1  0  0  0  0  0999 V2000
    5.5797  -18.5718   22.7947 N   0  0  0  0  0  0  0  0  0  0  0  0
    6.3265  -18.2078   23.9553 C   0  0  1  0  0  0  0  0  0  0  0  0
    7.1620  -19.3769   24.4383 C   0  0  0  0  0  0  0  0  0  0  0  0
    7.9367  -19.0123   26.0377 S   0  0  0  0  0  0  0  0  0  0  0  0
    7.0957  -16.9719   23.8296 C   0  0  0  0  0  0  0  0  0  0  0  0
    7.6415  -16.7245   22.7206 O   0  0  0  0  0  0  0  0  0  0  0  0
    6.1881  -12.7304   27.2210 C   0  0  0  0  0  0  0  0  0  0  0  0
    6.3518  -13.4531   25.8974 C   0  0  1  0  0  0  0  0  0  0  0  0
    5.7341  -12.6066   24.8360 C   0  0  0  0  0  0  0  0  0  0  0  0
    7.8236  -13.7368   25.6323 C   0  0  0  0  0  0  0  0  0  0  0  0
    8.0273  -14.8150   24.6214 C   0  0  2  0  0  0  0  0  0  0  0  0
    7.2927  -16.0120   24.8394 N   0  0  0  0  0  0  0  0  0  0  0  0
    9.4907  -15.1851   24.6405 C   0  0  0  0  0  0  0  0  0  0  0  0
   10.3422  -14.3541   24.2334 O   0  0  0  0  0  0  0  0  0  0  0  0
   10.2019  -16.2446   31.4102 O   0  0  0  0  0  0  0  0  0  0  0  0
   10.6541  -16.1097   30.0935 C   0  0  0  0  0  0  0  0  0  0  0  0
   11.2908  -17.1692   29.4821 C   0  0  0  0  0  0  0  0  0  0  0  0
   11.7327  -17.0253   28.1834 C   0  0  0  0  0  0  0  0  0  0  0  0
   11.5602  -15.8464   27.4621 C   0  0  0  0  0  0  0  0  0  0  0  0
   12.0655  -15.7100   26.0871 C   0  0  0  0  0  0  0  0  0  0  0  0
   11.3941  -16.6764   25.1774 C   0  0  2  0  0  0  0  0  0  0  0  0
    9.9514  -16.4234   25.0949 N   0  0  0  0  0  0  0  0  0  0  0  0
   11.6665  -18.0856   25.4848 C   0  0  0  0  0  0  0  0  0  0  0  0
   12.9702  -18.5187   25.5702 O   0  0  0  0  0  0  0  0  0  0  0  0
   10.9232  -14.7930   28.0807 C   0  0  0  0  0  0  0  0  0  0  0  0
   10.4786  -14.9332   29.3827 C   0  0  0  0  0  0  0  0  0  0  0  0
   10.7409  -18.8839   25.6672 O   0  0  0  0  0  0  0  0  0  0  0  0
  2  1  1  6
  3  2  1  0
  3  4  1  0
  5  6  2  0
  5  2  1  0
  8  7  1  1
  8  9  1  0
 11 10  1  1
 10  8  1  0
 11 12  1  0
 12  5  1  0
 13 11  1  0
 14 13  2  0
 16 17  2  0
 16 15  1  0
 18 17  1  0
 19 18  2  0
 20 19  1  0
 21 20  1  1
 21 22  1  0
 22 13  1  0
 23 21  1  0
 24 23  1  0
 25 19  1  0
 25 26  2  0
 26 16  1  0
 27 23  2  0
M  END
$$$$
