CLY.pdb
     RDKit          3D

 27 27  0  0  1  0  0  0  0  0999 V2000
    8.5054  -19.3257   18.6088 N   0  0  0  0  0  0  0  0  0  0  0  0
    8.0255  -18.8203   19.8544 C   0  0  1  0  0  0  0  0  0  0  0  0
    8.0298  -19.9105   20.9078 C   0  0  0  0  0  0  0  0  0  0  0  0
    7.2721  -19.3330   22.4516 S   0  0  0  0  0  0  0  0  0  0  0  0
    8.6680  -17.5886   20.3073 C   0  0  0  0  0  0  0  0  0  0  0  0
    9.9180  -17.4902   20.1768 O   0  0  0  0  0  0  0  0  0  0  0  0
    6.5590  -12.4857   19.9581 C   0  0  0  0  0  0  0  0  0  0  0  0
    7.5368  -13.6439   19.8971 C   0  0  1  0  0  0  0  0  0  0  0  0
    8.6925  -13.2213   19.0542 C   0  0  0  0  0  0  0  0  0  0  0  0
    7.9589  -14.0495   21.3021 C   0  0  0  0  0  0  0  0  0  0  0  0
    8.7278  -15.3279   21.3238 C   0  0  2  0  0  0  0  0  0  0  0  0
    8.0213  -16.4805   20.8851 N   0  0  0  0  0  0  0  0  0  0  0  0
    9.1454  -15.5829   22.7519 C   0  0  0  0  0  0  0  0  0  0  0  0
    8.4137  -16.2892   23.4915 O   0  0  0  0  0  0  0  0  0  0  0  0
   10.6776  -15.5685   31.0774 O   0  0  0  0  0  0  0  0  0  0  0  0
   10.3771  -15.4425   29.7172 C   0  0  0  0  0  0  0  0  0  0  0  0
   10.4557  -14.2039   29.1161 C   0  0  0  0  0  0  0  0  0  0  0  0
   10.1572  -14.0911   27.7742 C   0  0  0  0  0  0  0  0  0  0  0  0
    9.7777  -15.1842   26.9990 C   0  0  0  0  0  0  0  0  0  0  0  0
    9.4382  -15.0317   25.5756 C   0  0  0  0  0  0  0  0  0  0  0  0
   10.6247  -15.2909   24.7169 C   0  0  2  0  0  0  0  0  0  0  0  0
   10.3218  -15.0649   23.2995 N   0  0  0  0  0  0  0  0  0  0  0  0
   11.2433  -16.6062   24.9217 C   0  0  0  0  0  0  0  0  0  0  0  0
   10.5256  -17.7435   24.6284 O   0  0  0  0  0  0  0  0  0  0  0  0
    9.7018  -16.4179   27.6076 C   0  0  0  0  0  0  0  0  0  0  0  0
   10.0003  -16.5353   28.9528 C   0  0  0  0  0  0  0  0  0  0  0  0
   12.3975  -16.7025   25.3530 O   0  0  0  0  0  0  0  0  0  0  0  0
  2  1  1  6
  3  2  1  0
  3  4  1  0
  5  6  2  0
  5  2  1  0
  8  7  1  1
  8  9  1  0
 11 10  1  1
 10  8  1  0
 11 12  1  0
 12  5  1  0
 13 11  1  0
 14 13  2  0
 16 17  2  0
 16 15  1  0
 18 17  1  0
 19 18  2  0
 20 19  1  0
 21 20  1  1
 21 22  1  0
 22 13  1  0
 23 21  1  0
 24 23  1  0
 25 19  1  0
 25 26  2  0
 26 16  1  0
 27 23  2  0
M  END
$$$$
