CLY.pdb
     RDKit          3D

 27 27  0  0  1  0  0  0  0  0999 V2000
    6.8258  -17.3156   21.9867 N   0  0  0  0  0  0  0  0  0  0  0  0
    7.5870  -16.2988   21.3354 C   0  0  1  0  0  0  0  0  0  0  0  0
    6.7410  -15.5806   20.3026 C   0  0  0  0  0  0  0  0  0  0  0  0
    7.1721  -16.1076   18.6212 S   0  0  0  0  0  0  0  0  0  0  0  0
    8.2873  -15.3838   22.2338 C   0  0  0  0  0  0  0  0  0  0  0  0
    9.3027  -14.7816   21.7918 O   0  0  0  0  0  0  0  0  0  0  0  0
    5.9274  -12.5463   26.3898 C   0  0  0  0  0  0  0  0  0  0  0  0
    6.7473  -12.8927   25.1614 C   0  0  1  0  0  0  0  0  0  0  0  0
    7.0581  -11.6209   24.4468 C   0  0  0  0  0  0  0  0  0  0  0  0
    8.0015  -13.6550   25.5649 C   0  0  0  0  0  0  0  0  0  0  0  0
    8.7142  -14.2472   24.3956 C   0  0  2  0  0  0  0  0  0  0  0  0
    7.9370  -15.1012   23.5670 N   0  0  0  0  0  0  0  0  0  0  0  0
    9.8583  -15.0734   24.9316 C   0  0  0  0  0  0  0  0  0  0  0  0
   10.8790  -14.4939   25.3827 O   0  0  0  0  0  0  0  0  0  0  0  0
   10.7370  -14.7337   31.4581 O   0  0  0  0  0  0  0  0  0  0  0  0
   10.6479  -15.5274   30.3099 C   0  0  0  0  0  0  0  0  0  0  0  0
   11.3274  -16.7263   30.2586 C   0  0  0  0  0  0  0  0  0  0  0  0
   11.2326  -17.5011   29.1215 C   0  0  0  0  0  0  0  0  0  0  0  0
   10.4740  -17.1183   28.0179 C   0  0  0  0  0  0  0  0  0  0  0  0
   10.4117  -17.9507   26.8064 C   0  0  0  0  0  0  0  0  0  0  0  0
   10.9160  -17.2036   25.6233 C   0  0  2  0  0  0  0  0  0  0  0  0
    9.8378  -16.4703   24.9512 N   0  0  0  0  0  0  0  0  0  0  0  0
   11.6728  -18.0226   24.6687 C   0  0  0  0  0  0  0  0  0  0  0  0
   11.2973  -18.0371   23.3446 O   0  0  0  0  0  0  0  0  0  0  0  0
    9.7985  -15.9190   28.0777 C   0  0  0  0  0  0  0  0  0  0  0  0
    9.8909  -15.1392   29.2161 C   0  0  0  0  0  0  0  0  0  0  0  0
   12.6398  -18.6965   25.0405 O   0  0  0  0  0  0  0  0  0  0  0  0
  2  1  1  1
  3  2  1  0
  3  4  1  0
  5  6  2  0
  5  2  1  0
  8  7  1  1
  8  9  1  0
 11 10  1  1
 10  8  1  0
 11 12  1  0
 12  5  1  0
 13 11  1  0
 14 13  2  0
 16 17  2  0
 16 15  1  0
 18 17  1  0
 19 18  2  0
 20 19  1  0
 21 20  1  1
 21 22  1  0
 22 13  1  0
 23 21  1  0
 24 23  1  0
 25 19  1  0
 25 26  2  0
 26 16  1  0
 27 23  2  0
M  END
$$$$
