CLY.pdb
     RDKit          3D

 27 27  0  0  1  0  0  0  0  0999 V2000
    6.3700  -19.4557   21.1222 N   0  0  0  0  0  0  0  0  0  0  0  0
    6.4496  -18.3379   22.0062 C   0  0  1  0  0  0  0  0  0  0  0  0
    6.5318  -18.8037   23.4464 C   0  0  0  0  0  0  0  0  0  0  0  0
    6.3432  -17.4135   24.5966 S   0  0  0  0  0  0  0  0  0  0  0  0
    7.4769  -17.3561   21.6658 C   0  0  0  0  0  0  0  0  0  0  0  0
    8.6164  -17.7819   21.3351 O   0  0  0  0  0  0  0  0  0  0  0  0
    6.8019  -12.4022   19.2470 C   0  0  0  0  0  0  0  0  0  0  0  0
    7.3793  -13.7613   19.5940 C   0  0  1  0  0  0  0  0  0  0  0  0
    8.3217  -14.1483   18.5046 C   0  0  0  0  0  0  0  0  0  0  0  0
    8.0545  -13.7125   20.9573 C   0  0  0  0  0  0  0  0  0  0  0  0
    8.4105  -15.0676   21.4703 C   0  0  2  0  0  0  0  0  0  0  0  0
    7.3206  -15.9578   21.6699 N   0  0  0  0  0  0  0  0  0  0  0  0
    9.0821  -14.8843   22.8098 C   0  0  0  0  0  0  0  0  0  0  0  0
    9.0095  -13.7704   23.3887 O   0  0  0  0  0  0  0  0  0  0  0  0
   10.7836  -15.1788   31.1501 O   0  0  0  0  0  0  0  0  0  0  0  0
   10.3768  -15.2485   29.8137 C   0  0  0  0  0  0  0  0  0  0  0  0
   10.1594  -14.0838   29.1083 C   0  0  0  0  0  0  0  0  0  0  0  0
    9.7585  -14.1641   27.7910 C   0  0  0  0  0  0  0  0  0  0  0  0
    9.5637  -15.3812   27.1425 C   0  0  0  0  0  0  0  0  0  0  0  0
    9.1093  -15.4390   25.7444 C   0  0  0  0  0  0  0  0  0  0  0  0
   10.2464  -15.7231   24.8287 C   0  0  2  0  0  0  0  0  0  0  0  0
    9.7903  -15.9067   23.4465 N   0  0  0  0  0  0  0  0  0  0  0  0
   11.1020  -16.8370   25.2549 C   0  0  0  0  0  0  0  0  0  0  0  0
   11.1883  -17.9625   24.4673 O   0  0  0  0  0  0  0  0  0  0  0  0
    9.7831  -16.5399   27.8548 C   0  0  0  0  0  0  0  0  0  0  0  0
   10.1852  -16.4637   29.1758 C   0  0  0  0  0  0  0  0  0  0  0  0
   11.7432  -16.7748   26.3097 O   0  0  0  0  0  0  0  0  0  0  0  0
  2  1  1  6
  3  2  1  0
  3  4  1  0
  5  6  2  0
  5  2  1  0
  8  7  1  6
  8  9  1  0
 11 10  1  1
 10  8  1  0
 11 12  1  0
 12  5  1  0
 13 11  1  0
 14 13  2  0
 16 17  2  0
 16 15  1  0
 18 17  1  0
 19 18  2  0
 20 19  1  0
 21 20  1  1
 21 22  1  0
 22 13  1  0
 23 21  1  0
 24 23  1  0
 25 19  1  0
 25 26  2  0
 26 16  1  0
 27 23  2  0
M  END
$$$$
