CLY.pdb
     RDKit          3D

 27 27  0  0  1  0  0  0  0  0999 V2000
    7.1404  -15.6513   19.1169 N   0  0  0  0  0  0  0  0  0  0  0  0
    7.1520  -16.1365   20.4592 C   0  0  1  0  0  0  0  0  0  0  0  0
    7.5026  -17.6110   20.4887 C   0  0  0  0  0  0  0  0  0  0  0  0
    6.2470  -18.6005   19.6314 S   0  0  0  0  0  0  0  0  0  0  0  0
    7.9476  -15.3433   21.3935 C   0  0  0  0  0  0  0  0  0  0  0  0
    9.0827  -14.9461   21.0155 O   0  0  0  0  0  0  0  0  0  0  0  0
    5.9150  -13.1050   26.1778 C   0  0  0  0  0  0  0  0  0  0  0  0
    6.6823  -13.0451   24.8706 C   0  0  1  0  0  0  0  0  0  0  0  0
    7.0626  -11.6231   24.6296 C   0  0  0  0  0  0  0  0  0  0  0  0
    7.8906  -13.9689   24.9278 C   0  0  0  0  0  0  0  0  0  0  0  0
    8.4424  -14.2766   23.5762 C   0  0  2  0  0  0  0  0  0  0  0  0
    7.5685  -14.9709   22.6963 N   0  0  0  0  0  0  0  0  0  0  0  0
    9.6590  -15.1492   23.7700 C   0  0  0  0  0  0  0  0  0  0  0  0
   10.7125  -14.8878   23.1352 O   0  0  0  0  0  0  0  0  0  0  0  0
   11.0856  -16.3507   31.9243 O   0  0  0  0  0  0  0  0  0  0  0  0
   11.0717  -16.0644   30.5552 C   0  0  0  0  0  0  0  0  0  0  0  0
   10.6913  -14.8098   30.1276 C   0  0  0  0  0  0  0  0  0  0  0  0
   10.6813  -14.5382   28.7753 C   0  0  0  0  0  0  0  0  0  0  0  0
   11.0420  -15.4859   27.8205 C   0  0  0  0  0  0  0  0  0  0  0  0
   10.9965  -15.1787   26.3824 C   0  0  0  0  0  0  0  0  0  0  0  0
   10.7761  -16.4136   25.5832 C   0  0  2  0  0  0  0  0  0  0  0  0
    9.6713  -16.2483   24.6324 N   0  0  0  0  0  0  0  0  0  0  0  0
   10.6047  -17.6305   26.3859 C   0  0  0  0  0  0  0  0  0  0  0  0
   11.6820  -18.4625   26.5903 O   0  0  0  0  0  0  0  0  0  0  0  0
   11.4208  -16.7367   28.2566 C   0  0  0  0  0  0  0  0  0  0  0  0
   11.4321  -17.0130   29.6116 C   0  0  0  0  0  0  0  0  0  0  0  0
    9.5071  -17.9145   26.8781 O   0  0  0  0  0  0  0  0  0  0  0  0
  2  1  1  6
  3  2  1  0
  3  4  1  0
  5  6  2  0
  5  2  1  0
  8  7  1  1
  8  9  1  0
 11 10  1  1
 10  8  1  0
 11 12  1  0
 12  5  1  0
 13 11  1  0
 14 13  2  0
 16 17  2  0
 16 15  1  0
 18 17  1  0
 19 18  2  0
 20 19  1  0
 21 20  1  1
 21 22  1  0
 22 13  1  0
 23 21  1  0
 24 23  1  0
 25 19  1  0
 25 26  2  0
 26 16  1  0
 27 23  2  0
M  END
$$$$
