CLY.pdb
     RDKit          3D

 27 27  0  0  1  0  0  0  0  0999 V2000
    8.3583  -19.3904   18.9632 N   0  0  0  0  0  0  0  0  0  0  0  0
    8.4754  -18.8856   20.2931 C   0  0  1  0  0  0  0  0  0  0  0  0
    9.0880  -19.9293   21.2061 C   0  0  0  0  0  0  0  0  0  0  0  0
    8.9963  -19.4154   22.9434 S   0  0  0  0  0  0  0  0  0  0  0  0
    9.1262  -17.5819   20.4015 C   0  0  0  0  0  0  0  0  0  0  0  0
   10.1605  -17.3773   19.7104 O   0  0  0  0  0  0  0  0  0  0  0  0
    6.5334  -12.8073   20.3795 C   0  0  0  0  0  0  0  0  0  0  0  0
    7.5348  -13.9189   20.1291 C   0  0  1  0  0  0  0  0  0  0  0  0
    8.2599  -13.6032   18.8644 C   0  0  0  0  0  0  0  0  0  0  0  0
    8.4737  -14.0580   21.3190 C   0  0  0  0  0  0  0  0  0  0  0  0
    9.3636  -15.2507   21.2116 C   0  0  2  0  0  0  0  0  0  0  0  0
    8.7082  -16.5118   21.2139 N   0  0  0  0  0  0  0  0  0  0  0  0
   10.2923  -15.2333   22.4016 C   0  0  0  0  0  0  0  0  0  0  0  0
   10.8685  -14.1615   22.7183 O   0  0  0  0  0  0  0  0  0  0  0  0
   10.6938  -15.0735   30.8742 O   0  0  0  0  0  0  0  0  0  0  0  0
   10.4607  -15.1838   29.4994 C   0  0  0  0  0  0  0  0  0  0  0  0
   10.6762  -14.0926   28.6843 C   0  0  0  0  0  0  0  0  0  0  0  0
   10.4431  -14.2124   27.3301 C   0  0  0  0  0  0  0  0  0  0  0  0
    9.9966  -15.3979   26.7511 C   0  0  0  0  0  0  0  0  0  0  0  0
    9.7296  -15.4910   25.3073 C   0  0  0  0  0  0  0  0  0  0  0  0
   10.8255  -16.2169   24.6113 C   0  0  2  0  0  0  0  0  0  0  0  0
   10.5462  -16.3662   23.1790 N   0  0  0  0  0  0  0  0  0  0  0  0
   11.1771  -17.5064   25.2181 C   0  0  0  0  0  0  0  0  0  0  0  0
   12.0751  -17.5401   26.2607 O   0  0  0  0  0  0  0  0  0  0  0  0
    9.7839  -16.4830   27.5729 C   0  0  0  0  0  0  0  0  0  0  0  0
   10.0164  -16.3670   28.9312 C   0  0  0  0  0  0  0  0  0  0  0  0
   10.6769  -18.5580   24.8040 O   0  0  0  0  0  0  0  0  0  0  0  0
  2  1  1  6
  3  2  1  0
  3  4  1  0
  5  6  2  0
  5  2  1  0
  8  7  1  1
  8  9  1  0
 11 10  1  1
 10  8  1  0
 11 12  1  0
 12  5  1  0
 13 11  1  0
 14 13  2  0
 16 17  2  0
 16 15  1  0
 18 17  1  0
 19 18  2  0
 20 19  1  0
 21 20  1  1
 21 22  1  0
 22 13  1  0
 23 21  1  0
 24 23  1  0
 25 19  1  0
 25 26  2  0
 26 16  1  0
 27 23  2  0
M  END
$$$$
