CLY.pdb
     RDKit          3D

 27 27  0  0  1  0  0  0  0  0999 V2000
    7.9395  -19.3060   18.8330 N   0  0  0  0  0  0  0  0  0  0  0  0
    8.0330  -18.8721   20.1896 C   0  0  1  0  0  0  0  0  0  0  0  0
    8.4454  -20.0212   21.0883 C   0  0  0  0  0  0  0  0  0  0  0  0
    7.8293  -19.7854   22.7781 S   0  0  0  0  0  0  0  0  0  0  0  0
    8.8374  -17.6701   20.3972 C   0  0  0  0  0  0  0  0  0  0  0  0
   10.0252  -17.6724   19.9752 O   0  0  0  0  0  0  0  0  0  0  0  0
    6.7354  -12.5876   20.4045 C   0  0  0  0  0  0  0  0  0  0  0  0
    7.5736  -13.8233   20.1375 C   0  0  1  0  0  0  0  0  0  0  0  0
    8.2421  -13.6443   18.8162 C   0  0  0  0  0  0  0  0  0  0  0  0
    8.5690  -14.0374   21.2689 C   0  0  0  0  0  0  0  0  0  0  0  0
    9.2599  -15.3570   21.1836 C   0  0  2  0  0  0  0  0  0  0  0  0
    8.4130  -16.4883   21.0320 N   0  0  0  0  0  0  0  0  0  0  0  0
   10.0300  -15.5506   22.4675 C   0  0  0  0  0  0  0  0  0  0  0  0
   11.0136  -14.8071   22.7145 O   0  0  0  0  0  0  0  0  0  0  0  0
   11.1609  -14.9250   30.8751 O   0  0  0  0  0  0  0  0  0  0  0  0
   10.7640  -14.9840   29.5352 C   0  0  0  0  0  0  0  0  0  0  0  0
   10.8068  -16.1894   28.8667 C   0  0  0  0  0  0  0  0  0  0  0  0
   10.4131  -16.2362   27.5456 C   0  0  0  0  0  0  0  0  0  0  0  0
    9.9720  -15.1086   26.8572 C   0  0  0  0  0  0  0  0  0  0  0  0
    9.5835  -15.1807   25.4401 C   0  0  0  0  0  0  0  0  0  0  0  0
   10.1580  -16.3910   24.7939 C   0  0  2  0  0  0  0  0  0  0  0  0
    9.6983  -16.5294   23.4077 N   0  0  0  0  0  0  0  0  0  0  0  0
    9.9501  -17.6342   25.5460 C   0  0  0  0  0  0  0  0  0  0  0  0
    9.3842  -18.7189   24.9153 O   0  0  0  0  0  0  0  0  0  0  0  0
    9.9325  -13.9086   27.5329 C   0  0  0  0  0  0  0  0  0  0  0  0
   10.3263  -13.8574   28.8575 C   0  0  0  0  0  0  0  0  0  0  0  0
   10.2768  -17.7166   26.7351 O   0  0  0  0  0  0  0  0  0  0  0  0
  2  1  1  6
  3  2  1  0
  3  4  1  0
  5  6  2  0
  5  2  1  0
  8  7  1  1
  8  9  1  0
 11 10  1  1
 10  8  1  0
 11 12  1  0
 12  5  1  0
 13 11  1  0
 14 13  2  0
 16 17  2  0
 16 15  1  0
 18 17  1  0
 19 18  2  0
 20 19  1  0
 21 20  1  1
 21 22  1  0
 22 13  1  0
 23 21  1  0
 24 23  1  0
 25 19  1  0
 25 26  2  0
 26 16  1  0
 27 23  2  0
M  END
$$$$
