CLY.pdb
     RDKit          3D

 27 27  0  0  1  0  0  0  0  0999 V2000
    8.7290  -19.3751   18.3480 N   0  0  0  0  0  0  0  0  0  0  0  0
    8.5860  -19.0117   19.7209 C   0  0  1  0  0  0  0  0  0  0  0  0
    9.0642  -20.1342   20.6207 C   0  0  0  0  0  0  0  0  0  0  0  0
    8.8435  -19.7104   22.3707 S   0  0  0  0  0  0  0  0  0  0  0  0
    9.1566  -17.7145   20.0767 C   0  0  0  0  0  0  0  0  0  0  0  0
   10.2758  -17.4053   19.5859 O   0  0  0  0  0  0  0  0  0  0  0  0
    6.3700  -12.8058   20.1188 C   0  0  0  0  0  0  0  0  0  0  0  0
    7.5305  -13.7521   19.8762 C   0  0  1  0  0  0  0  0  0  0  0  0
    8.6174  -12.9793   19.2084 C   0  0  0  0  0  0  0  0  0  0  0  0
    7.9823  -14.3765   21.1888 C   0  0  0  0  0  0  0  0  0  0  0  0
    9.0357  -15.4157   20.9975 C   0  0  2  0  0  0  0  0  0  0  0  0
    8.5730  -16.7577   20.9274 N   0  0  0  0  0  0  0  0  0  0  0  0
    9.9748  -15.3332   22.1766 C   0  0  0  0  0  0  0  0  0  0  0  0
   10.5247  -14.2362   22.4512 O   0  0  0  0  0  0  0  0  0  0  0  0
   10.8944  -14.8360   30.5708 O   0  0  0  0  0  0  0  0  0  0  0  0
   10.5595  -14.9733   29.2197 C   0  0  0  0  0  0  0  0  0  0  0  0
   10.2298  -16.2174   28.7248 C   0  0  0  0  0  0  0  0  0  0  0  0
    9.9012  -16.3414   27.3909 C   0  0  0  0  0  0  0  0  0  0  0  0
    9.8894  -15.2542   26.5204 C   0  0  0  0  0  0  0  0  0  0  0  0
    9.5615  -15.4185   25.0956 C   0  0  0  0  0  0  0  0  0  0  0  0
   10.6026  -16.2224   24.4014 C   0  0  2  0  0  0  0  0  0  0  0  0
   10.2666  -16.4319   22.9889 N   0  0  0  0  0  0  0  0  0  0  0  0
   10.9253  -17.4931   25.0616 C   0  0  0  0  0  0  0  0  0  0  0  0
   12.0000  -17.5551   25.9193 O   0  0  0  0  0  0  0  0  0  0  0  0
   10.2201  -14.0149   27.0234 C   0  0  0  0  0  0  0  0  0  0  0  0
   10.5502  -13.8864   28.3602 C   0  0  0  0  0  0  0  0  0  0  0  0
   10.2445  -18.5039   24.8560 O   0  0  0  0  0  0  0  0  0  0  0  0
  2  1  1  6
  3  2  1  0
  3  4  1  0
  5  6  2  0
  5  2  1  0
  8  7  1  1
  8  9  1  0
 11 10  1  1
 10  8  1  0
 11 12  1  0
 12  5  1  0
 13 11  1  0
 14 13  2  0
 16 17  2  0
 16 15  1  0
 18 17  1  0
 19 18  2  0
 20 19  1  0
 21 20  1  1
 21 22  1  0
 22 13  1  0
 23 21  1  0
 24 23  1  0
 25 19  1  0
 25 26  2  0
 26 16  1  0
 27 23  2  0
M  END
$$$$
