CLY.pdb
     RDKit          3D

 27 27  0  0  1  0  0  0  0  0999 V2000
    7.4554  -16.4327   19.5462 N   0  0  0  0  0  0  0  0  0  0  0  0
    7.5063  -16.7775   20.9304 C   0  0  1  0  0  0  0  0  0  0  0  0
    8.3690  -18.0062   21.1409 C   0  0  0  0  0  0  0  0  0  0  0  0
    7.6978  -19.4383   20.2523 S   0  0  0  0  0  0  0  0  0  0  0  0
    7.8545  -15.6771   21.8263 C   0  0  0  0  0  0  0  0  0  0  0  0
    8.6294  -14.7826   21.3920 O   0  0  0  0  0  0  0  0  0  0  0  0
    7.4658  -11.6514   25.1571 C   0  0  0  0  0  0  0  0  0  0  0  0
    7.3289  -12.9395   25.9464 C   0  0  1  0  0  0  0  0  0  0  0  0
    6.4262  -12.6719   27.1032 C   0  0  0  0  0  0  0  0  0  0  0  0
    6.8093  -14.0532   25.0483 C   0  0  0  0  0  0  0  0  0  0  0  0
    7.7487  -14.3787   23.9358 C   0  0  2  0  0  0  0  0  0  0  0  0
    7.4046  -15.5113   23.1491 N   0  0  0  0  0  0  0  0  0  0  0  0
    9.0990  -14.6607   24.5491 C   0  0  0  0  0  0  0  0  0  0  0  0
    9.4886  -13.9712   25.5258 O   0  0  0  0  0  0  0  0  0  0  0  0
   11.3010  -14.4900   31.0432 O   0  0  0  0  0  0  0  0  0  0  0  0
   10.9720  -15.1038   29.8302 C   0  0  0  0  0  0  0  0  0  0  0  0
   11.2202  -16.4496   29.6607 C   0  0  0  0  0  0  0  0  0  0  0  0
   10.8919  -17.0447   28.4605 C   0  0  0  0  0  0  0  0  0  0  0  0
   10.3168  -16.3363   27.4081 C   0  0  0  0  0  0  0  0  0  0  0  0
   10.0013  -16.9895   26.1282 C   0  0  0  0  0  0  0  0  0  0  0  0
   10.7993  -16.3989   25.0207 C   0  0  2  0  0  0  0  0  0  0  0  0
    9.9486  -15.6647   24.0777 N   0  0  0  0  0  0  0  0  0  0  0  0
   11.6611  -17.3575   24.3186 C   0  0  0  0  0  0  0  0  0  0  0  0
   12.7174  -17.9328   24.9879 O   0  0  0  0  0  0  0  0  0  0  0  0
   10.0724  -14.9921   27.5861 C   0  0  0  0  0  0  0  0  0  0  0  0
   10.4001  -14.3917   28.7880 C   0  0  0  0  0  0  0  0  0  0  0  0
   11.4487  -17.6522   23.1373 O   0  0  0  0  0  0  0  0  0  0  0  0
  2  1  1  6
  3  2  1  0
  3  4  1  0
  5  6  2  0
  5  2  1  0
  8  7  1  6
  8  9  1  0
 11 10  1  1
 10  8  1  0
 11 12  1  0
 12  5  1  0
 13 11  1  0
 14 13  2  0
 16 17  2  0
 16 15  1  0
 18 17  1  0
 19 18  2  0
 20 19  1  0
 21 20  1  1
 21 22  1  0
 22 13  1  0
 23 21  1  0
 24 23  1  0
 25 19  1  0
 25 26  2  0
 26 16  1  0
 27 23  2  0
M  END
$$$$
