CLY.pdb
     RDKit          3D

 27 27  0  0  1  0  0  0  0  0999 V2000
    8.9466  -19.1285   18.1117 N   0  0  0  0  0  0  0  0  0  0  0  0
    8.5742  -18.7423   19.4344 C   0  0  1  0  0  0  0  0  0  0  0  0
    8.7067  -19.9136   20.3876 C   0  0  0  0  0  0  0  0  0  0  0  0
    7.8897  -19.5667   21.9697 S   0  0  0  0  0  0  0  0  0  0  0  0
    9.2246  -17.5305   19.9277 C   0  0  0  0  0  0  0  0  0  0  0  0
   10.4490  -17.3704   19.6739 O   0  0  0  0  0  0  0  0  0  0  0  0
    6.5539  -12.7911   20.0096 C   0  0  0  0  0  0  0  0  0  0  0  0
    7.5744  -13.8933   19.7982 C   0  0  1  0  0  0  0  0  0  0  0  0
    8.3945  -13.5331   18.6056 C   0  0  0  0  0  0  0  0  0  0  0  0
    8.4187  -14.0749   21.0517 C   0  0  0  0  0  0  0  0  0  0  0  0
    9.2795  -15.2921   20.9925 C   0  0  2  0  0  0  0  0  0  0  0  0
    8.6119  -16.5050   20.6712 N   0  0  0  0  0  0  0  0  0  0  0  0
    9.8993  -15.4770   22.3566 C   0  0  0  0  0  0  0  0  0  0  0  0
   10.6225  -14.5657   22.8338 O   0  0  0  0  0  0  0  0  0  0  0  0
    7.0803  -11.6660   26.7910 O   0  0  0  0  0  0  0  0  0  0  0  0
    7.6004  -12.9244   26.4714 C   0  0  0  0  0  0  0  0  0  0  0  0
    7.0106  -13.6693   25.4720 C   0  0  0  0  0  0  0  0  0  0  0  0
    7.5317  -14.9090   25.1650 C   0  0  0  0  0  0  0  0  0  0  0  0
    8.6354  -15.4402   25.8280 C   0  0  0  0  0  0  0  0  0  0  0  0
    9.1547  -16.7770   25.4994 C   0  0  0  0  0  0  0  0  0  0  0  0
   10.2426  -16.6894   24.4889 C   0  0  2  0  0  0  0  0  0  0  0  0
    9.7056  -16.6276   23.1252 N   0  0  0  0  0  0  0  0  0  0  0  0
   11.2636  -17.7373   24.6076 C   0  0  0  0  0  0  0  0  0  0  0  0
   11.5533  -18.5251   23.5167 O   0  0  0  0  0  0  0  0  0  0  0  0
    9.2184  -14.6893   26.8250 C   0  0  0  0  0  0  0  0  0  0  0  0
    8.6990  -13.4458   27.1359 C   0  0  0  0  0  0  0  0  0  0  0  0
   11.8635  -17.9186   25.6729 O   0  0  0  0  0  0  0  0  0  0  0  0
  2  1  1  6
  3  2  1  0
  3  4  1  0
  5  6  2  0
  5  2  1  0
  8  7  1  1
  8  9  1  0
 11 10  1  1
 10  8  1  0
 11 12  1  0
 12  5  1  0
 13 11  1  0
 14 13  2  0
 16 17  2  0
 16 15  1  0
 18 17  1  0
 19 18  2  0
 20 19  1  0
 21 20  1  1
 21 22  1  0
 22 13  1  0
 23 21  1  0
 24 23  1  0
 25 19  1  0
 25 26  2  0
 26 16  1  0
 27 23  2  0
M  END
$$$$
