WTY.pdb
     RDKit          3D

 34 36  0  0  1  0  0  0  0  0999 V2000
   28.7748  -21.8569  -15.8322 N   0  0  0  0  0  0  0  0  0  0  0  0
   27.9432  -20.7742  -15.3998 C   0  0  1  0  0  0  0  0  0  0  0  0
   27.3130  -20.0515  -16.5628 C   0  0  0  0  0  0  0  0  0  0  0  0
   27.8858  -18.7117  -16.8162 C   0  0  0  0  0  0  0  0  0  0  0  0
   28.7530  -18.4176  -17.8451 C   0  0  0  0  0  0  0  0  0  0  0  0
   29.0630  -17.1084  -17.8070 N   0  0  0  0  0  0  0  0  0  0  0  0
   28.4193  -16.5270  -16.7730 C   0  0  0  0  0  0  0  0  0  0  0  0
   28.4230  -15.2229  -16.3298 C   0  0  0  0  0  0  0  0  0  0  0  0
   27.6798  -14.8749  -15.2350 C   0  0  0  0  0  0  0  0  0  0  0  0
   26.9455  -15.8577  -14.6084 C   0  0  0  0  0  0  0  0  0  0  0  0
   26.9411  -17.1719  -15.0542 C   0  0  0  0  0  0  0  0  0  0  0  0
   27.6808  -17.5308  -16.1500 C   0  0  0  0  0  0  0  0  0  0  0  0
   26.8736  -21.2957  -14.5134 C   0  0  0  0  0  0  0  0  0  0  0  0
   26.4297  -22.4479  -14.7351 O   0  0  0  0  0  0  0  0  0  0  0  0
   26.9832  -21.5644  -10.8641 C   0  0  0  0  0  0  0  0  0  0  0  0
   25.6378  -20.9798  -11.1896 C   0  0  1  0  0  0  0  0  0  0  0  0
   25.7120  -19.6079  -10.9162 O   0  0  0  0  0  0  0  0  0  0  0  0
   25.2680  -21.1252  -12.6462 C   0  0  2  0  0  0  0  0  0  0  0  0
   26.3342  -20.5554  -13.4352 N   0  0  0  0  0  0  0  0  0  0  0  0
   23.9577  -20.5064  -12.9547 C   0  0  0  0  0  0  0  0  0  0  0  0
   23.9324  -19.3512  -13.4184 O   0  0  0  0  0  0  0  0  0  0  0  0
   19.8626  -26.6641  -14.2999 O   0  0  0  0  0  0  0  0  0  0  0  0
   20.1276  -25.2989  -14.3197 C   0  0  0  0  0  0  0  0  0  0  0  0
   21.2791  -24.7759  -14.8583 C   0  0  0  0  0  0  0  0  0  0  0  0
   21.5262  -23.4212  -14.8700 C   0  0  0  0  0  0  0  0  0  0  0  0
   20.6360  -22.5057  -14.3425 C   0  0  0  0  0  0  0  0  0  0  0  0
   20.8815  -21.0597  -14.3304 C   0  0  0  0  0  0  0  0  0  0  0  0
   21.4852  -20.5685  -13.0747 C   0  0  2  0  0  0  0  0  0  0  0  0
   22.7356  -21.1774  -12.7427 N   0  0  0  0  0  0  0  0  0  0  0  0
   20.5764  -20.7806  -11.9309 C   0  0  0  0  0  0  0  0  0  0  0  0
   20.9462  -21.5185  -10.9811 O   0  0  0  0  0  0  0  0  0  0  0  0
   19.4646  -23.0513  -13.7960 C   0  0  0  0  0  0  0  0  0  0  0  0
   19.2226  -24.4053  -13.7872 C   0  0  0  0  0  0  0  0  0  0  0  0
   19.3081  -20.1875  -11.8631 O   0  0  0  0  0  0  0  0  0  0  0  0
  2  1  1  6
  2 13  1  0
  2  3  1  0
  4  3  1  0
  5  4  2  0
  6  7  1  0
  6  5  1  0
  7 12  2  0
  8  9  2  0
  8  7  1  0
  9 10  1  0
 10 11  2  0
 12  4  1  0
 12 11  1  0
 13 14  2  0
 16 15  1  6
 16 18  1  0
 17 16  1  0
 18 20  1  0
 18 19  1  6
 19 13  1  0
 20 29  1  0
 20 21  2  0
 22 23  1  0
 23 33  2  0
 23 24  1  0
 24 25  2  0
 25 26  1  0
 26 27  1  0
 28 27  1  6
 28 30  1  0
 29 28  1  0
 30 31  2  0
 30 34  1  0
 32 26  2  0
 33 32  1  0
M  END
$$$$
