WTY.pdb
     RDKit          3D

 34 36  0  0  1  0  0  0  0  0999 V2000
   24.7117  -19.6779  -17.4989 N   0  0  0  0  0  0  0  0  0  0  0  0
   23.4088  -19.2464  -17.0906 C   0  0  1  0  0  0  0  0  0  0  0  0
   22.5195  -18.9516  -18.2715 C   0  0  0  0  0  0  0  0  0  0  0  0
   23.0015  -17.8411  -19.1210 C   0  0  0  0  0  0  0  0  0  0  0  0
   23.8155  -17.9988  -20.2208 C   0  0  0  0  0  0  0  0  0  0  0  0
   24.0466  -16.7970  -20.7811 N   0  0  0  0  0  0  0  0  0  0  0  0
   23.4025  -15.8440  -20.0751 C   0  0  0  0  0  0  0  0  0  0  0  0
   23.3413  -14.4796  -20.2531 C   0  0  0  0  0  0  0  0  0  0  0  0
   22.6140  -13.7126  -19.3842 C   0  0  0  0  0  0  0  0  0  0  0  0
   21.9614  -14.3446  -18.3486 C   0  0  0  0  0  0  0  0  0  0  0  0
   22.0223  -15.7192  -18.1686 C   0  0  0  0  0  0  0  0  0  0  0  0
   22.7468  -16.4965  -19.0333 C   0  0  0  0  0  0  0  0  0  0  0  0
   22.7778  -20.2994  -16.2569 C   0  0  0  0  0  0  0  0  0  0  0  0
   22.9936  -21.4989  -16.5543 O   0  0  0  0  0  0  0  0  0  0  0  0
   23.4673  -21.5995  -13.2523 C   0  0  0  0  0  0  0  0  0  0  0  0
   22.0104  -21.2597  -13.1110 C   0  0  1  0  0  0  0  0  0  0  0  0
   21.9413  -20.0251  -12.4528 O   0  0  0  0  0  0  0  0  0  0  0  0
   21.3108  -21.0973  -14.4391 C   0  0  2  0  0  0  0  0  0  0  0  0
   21.9475  -20.0128  -15.1479 N   0  0  0  0  0  0  0  0  0  0  0  0
   19.8544  -20.8771  -14.2804 C   0  0  0  0  0  0  0  0  0  0  0  0
   19.4332  -19.7131  -14.1464 O   0  0  0  0  0  0  0  0  0  0  0  0
   16.8971  -27.5447  -16.7384 O   0  0  0  0  0  0  0  0  0  0  0  0
   16.8709  -26.1920  -16.4158 C   0  0  0  0  0  0  0  0  0  0  0  0
   17.7524  -25.2852  -16.9546 C   0  0  0  0  0  0  0  0  0  0  0  0
   17.7130  -23.9489  -16.6244 C   0  0  0  0  0  0  0  0  0  0  0  0
   16.7889  -23.4372  -15.7339 C   0  0  0  0  0  0  0  0  0  0  0  0
   16.7345  -22.0211  -15.3555 C   0  0  0  0  0  0  0  0  0  0  0  0
   17.5214  -21.6966  -14.1481 C   0  0  2  0  0  0  0  0  0  0  0  0
   18.9251  -21.9378  -14.2753 N   0  0  0  0  0  0  0  0  0  0  0  0
   17.0473  -22.4688  -12.9827 C   0  0  0  0  0  0  0  0  0  0  0  0
   17.7966  -23.3469  -12.4816 O   0  0  0  0  0  0  0  0  0  0  0  0
   15.8946  -24.3721  -15.1910 C   0  0  0  0  0  0  0  0  0  0  0  0
   15.9382  -25.7059  -15.5244 C   0  0  0  0  0  0  0  0  0  0  0  0
   15.7852  -22.2597  -12.4099 O   0  0  0  0  0  0  0  0  0  0  0  0
  2  1  1  6
  2 13  1  0
  2  3  1  0
  4  3  1  0
  5  4  2  0
  6  7  1  0
  6  5  1  0
  7 12  2  0
  8  9  2  0
  8  7  1  0
  9 10  1  0
 10 11  2  0
 12  4  1  0
 12 11  1  0
 13 14  2  0
 16 15  1  6
 16 18  1  0
 17 16  1  0
 18 20  1  0
 18 19  1  1
 19 13  1  0
 20 29  1  0
 20 21  2  0
 22 23  1  0
 23 33  2  0
 23 24  1  0
 24 25  2  0
 25 26  1  0
 26 27  1  0
 28 27  1  6
 28 30  1  0
 29 28  1  0
 30 31  2  0
 30 34  1  0
 32 26  2  0
 33 32  1  0
M  END
$$$$
