WTY.pdb
     RDKit          3D

 34 36  0  0  1  0  0  0  0  0999 V2000
   26.5234  -17.7855  -18.5403 N   0  0  0  0  0  0  0  0  0  0  0  0
   26.3527  -17.3278  -17.1942 C   0  0  1  0  0  0  0  0  0  0  0  0
   25.2387  -16.3185  -17.0817 C   0  0  0  0  0  0  0  0  0  0  0  0
   25.6303  -14.9485  -17.4775 C   0  0  0  0  0  0  0  0  0  0  0  0
   25.1949  -14.3135  -18.6197 C   0  0  0  0  0  0  0  0  0  0  0  0
   25.7169  -13.0738  -18.6678 N   0  0  0  0  0  0  0  0  0  0  0  0
   26.4908  -12.8727  -17.5805 C   0  0  0  0  0  0  0  0  0  0  0  0
   27.2293  -11.7769  -17.1922 C   0  0  0  0  0  0  0  0  0  0  0  0
   27.9494  -11.8197  -16.0295 C   0  0  0  0  0  0  0  0  0  0  0  0
   27.9075  -12.9754  -15.2809 C   0  0  0  0  0  0  0  0  0  0  0  0
   27.1636  -14.0799  -15.6712 C   0  0  0  0  0  0  0  0  0  0  0  0
   26.4382  -14.0473  -16.8329 C   0  0  0  0  0  0  0  0  0  0  0  0
   26.0532  -18.4835  -16.3130 C   0  0  0  0  0  0  0  0  0  0  0  0
   25.0539  -19.1919  -16.5842 O   0  0  0  0  0  0  0  0  0  0  0  0
   27.9552  -21.3132  -16.0673 C   0  0  0  0  0  0  0  0  0  0  0  0
   27.6890  -20.9820  -14.6261 C   0  0  1  0  0  0  0  0  0  0  0  0
   28.8379  -20.3498  -14.1337 O   0  0  0  0  0  0  0  0  0  0  0  0
   26.5384  -20.0215  -14.4442 C   0  0  2  0  0  0  0  0  0  0  0  0
   26.8396  -18.8204  -15.1863 N   0  0  0  0  0  0  0  0  0  0  0  0
   26.2677  -19.7376  -13.0155 C   0  0  0  0  0  0  0  0  0  0  0  0
   26.4161  -18.5754  -12.5946 O   0  0  0  0  0  0  0  0  0  0  0  0
   21.8207  -22.9985   -6.2242 O   0  0  0  0  0  0  0  0  0  0  0  0
   22.4553  -22.2587   -7.2164 C   0  0  0  0  0  0  0  0  0  0  0  0
   23.6487  -21.6095   -7.0069 C   0  0  0  0  0  0  0  0  0  0  0  0
   24.2641  -20.8809   -8.0003 C   0  0  0  0  0  0  0  0  0  0  0  0
   23.7227  -20.7565   -9.2652 C   0  0  0  0  0  0  0  0  0  0  0  0
   24.3510  -19.9757  -10.3362 C   0  0  0  0  0  0  0  0  0  0  0  0
   25.6934  -20.4604  -10.7178 C   0  0  2  0  0  0  0  0  0  0  0  0
   25.8475  -20.7360  -12.1124 N   0  0  0  0  0  0  0  0  0  0  0  0
   26.0394  -21.6948   -9.9858 C   0  0  0  0  0  0  0  0  0  0  0  0
   25.8165  -22.8106  -10.5232 O   0  0  0  0  0  0  0  0  0  0  0  0
   22.5049  -21.4235   -9.4670 C   0  0  0  0  0  0  0  0  0  0  0  0
   21.8947  -22.1502   -8.4713 C   0  0  0  0  0  0  0  0  0  0  0  0
   26.6100  -21.6704   -8.7057 O   0  0  0  0  0  0  0  0  0  0  0  0
  2  1  1  6
  2 13  1  0
  2  3  1  0
  4  3  1  0
  5  4  2  0
  6  7  1  0
  6  5  1  0
  7 12  2  0
  8  9  2  0
  8  7  1  0
  9 10  1  0
 10 11  2  0
 12  4  1  0
 12 11  1  0
 13 14  2  0
 16 15  1  6
 16 18  1  0
 17 16  1  0
 18 20  1  0
 18 19  1  6
 19 13  1  0
 20 29  1  0
 20 21  2  0
 22 23  1  0
 23 33  2  0
 23 24  1  0
 24 25  2  0
 25 26  1  0
 26 27  1  0
 28 27  1  6
 28 30  1  0
 29 28  1  0
 30 31  2  0
 30 34  1  0
 32 26  2  0
 33 32  1  0
M  END
$$$$
