WTY.pdb
     RDKit          3D

 34 36  0  0  1  0  0  0  0  0999 V2000
   18.3895  -28.5138  -12.5891 N   0  0  0  0  0  0  0  0  0  0  0  0
   19.8193  -28.4678  -12.5230 C   0  0  1  0  0  0  0  0  0  0  0  0
   20.3052  -27.3214  -11.6733 C   0  0  0  0  0  0  0  0  0  0  0  0
   19.8527  -25.9943  -12.1436 C   0  0  0  0  0  0  0  0  0  0  0  0
   18.9951  -25.1721  -11.4468 C   0  0  0  0  0  0  0  0  0  0  0  0
   18.8074  -24.0332  -12.1392 N   0  0  0  0  0  0  0  0  0  0  0  0
   19.5230  -24.0827  -13.2824 C   0  0  0  0  0  0  0  0  0  0  0  0
   19.6482  -23.1692  -14.3055 C   0  0  0  0  0  0  0  0  0  0  0  0
   20.4427  -23.4580  -15.3814 C   0  0  0  0  0  0  0  0  0  0  0  0
   21.0964  -24.6705  -15.4001 C   0  0  0  0  0  0  0  0  0  0  0  0
   20.9710  -25.5915  -14.3697 C   0  0  0  0  0  0  0  0  0  0  0  0
   20.1789  -25.3119  -13.2875 C   0  0  0  0  0  0  0  0  0  0  0  0
   20.3295  -29.7420  -11.9591 C   0  0  0  0  0  0  0  0  0  0  0  0
   19.6031  -30.3632  -11.1466 O   0  0  0  0  0  0  0  0  0  0  0  0
   21.4401  -32.6310  -13.9817 C   0  0  0  0  0  0  0  0  0  0  0  0
   22.4755  -32.4163  -12.9141 C   0  0  1  0  0  0  0  0  0  0  0  0
   23.5355  -31.7192  -13.5078 O   0  0  0  0  0  0  0  0  0  0  0  0
   21.9738  -31.5730  -11.7666 C   0  0  2  0  0  0  0  0  0  0  0  0
   21.5922  -30.2847  -12.2946 N   0  0  0  0  0  0  0  0  0  0  0  0
   22.9752  -31.4532  -10.6813 C   0  0  0  0  0  0  0  0  0  0  0  0
   23.7301  -30.4633  -10.6661 O   0  0  0  0  0  0  0  0  0  0  0  0
   21.4937  -37.6319   -6.1387 O   0  0  0  0  0  0  0  0  0  0  0  0
   22.0052  -36.3662   -6.4049 C   0  0  0  0  0  0  0  0  0  0  0  0
   23.2751  -35.9887   -6.0382 C   0  0  0  0  0  0  0  0  0  0  0  0
   23.7665  -34.7312   -6.3094 C   0  0  0  0  0  0  0  0  0  0  0  0
   23.0168  -33.7731   -6.9642 C   0  0  0  0  0  0  0  0  0  0  0  0
   23.5118  -32.4228   -7.2529 C   0  0  0  0  0  0  0  0  0  0  0  0
   24.0660  -32.2700   -8.6138 C   0  0  2  0  0  0  0  0  0  0  0  0
   23.1061  -32.4199   -9.6628 N   0  0  0  0  0  0  0  0  0  0  0  0
   25.1427  -33.2492   -8.8611 C   0  0  0  0  0  0  0  0  0  0  0  0
   24.9621  -34.1591   -9.7113 O   0  0  0  0  0  0  0  0  0  0  0  0
   21.7228  -34.1700   -7.3336 C   0  0  0  0  0  0  0  0  0  0  0  0
   21.2370  -35.4275   -7.0604 C   0  0  0  0  0  0  0  0  0  0  0  0
   26.3666  -33.2036   -8.1791 O   0  0  0  0  0  0  0  0  0  0  0  0
  2  1  1  1
  2 13  1  0
  2  3  1  0
  4  3  1  0
  5  4  2  0
  6  7  1  0
  6  5  1  0
  7 12  2  0
  8  9  2  0
  8  7  1  0
  9 10  1  0
 10 11  2  0
 12  4  1  0
 12 11  1  0
 13 14  2  0
 16 15  1  6
 16 18  1  0
 17 16  1  0
 18 20  1  0
 18 19  1  6
 19 13  1  0
 20 29  1  0
 20 21  2  0
 22 23  1  0
 23 33  2  0
 23 24  1  0
 24 25  2  0
 25 26  1  0
 26 27  1  0
 28 27  1  1
 28 30  1  0
 29 28  1  0
 30 31  2  0
 30 34  1  0
 32 26  2  0
 33 32  1  0
M  END
$$$$
