WTY.pdb
     RDKit          3D

 34 36  0  0  1  0  0  0  0  0999 V2000
   25.8052  -19.4212  -16.5049 N   0  0  0  0  0  0  0  0  0  0  0  0
   26.7873  -19.4730  -15.4641 C   0  0  1  0  0  0  0  0  0  0  0  0
   27.7852  -18.3489  -15.5778 C   0  0  0  0  0  0  0  0  0  0  0  0
   27.3804  -17.2823  -16.5190 C   0  0  0  0  0  0  0  0  0  0  0  0
   27.6315  -17.3024  -17.8731 C   0  0  0  0  0  0  0  0  0  0  0  0
   27.1113  -16.1980  -18.4399 N   0  0  0  0  0  0  0  0  0  0  0  0
   26.5200  -15.4444  -17.4892 C   0  0  0  0  0  0  0  0  0  0  0  0
   25.8631  -14.2371  -17.5777 C   0  0  0  0  0  0  0  0  0  0  0  0
   25.3465  -13.6599  -16.4498 C   0  0  0  0  0  0  0  0  0  0  0  0
   25.5063  -14.3187  -15.2506 C   0  0  0  0  0  0  0  0  0  0  0  0
   26.1679  -15.5353  -15.1604 C   0  0  0  0  0  0  0  0  0  0  0  0
   26.6880  -16.1223  -16.2836 C   0  0  0  0  0  0  0  0  0  0  0  0
   26.1138  -19.3943  -14.1442 C   0  0  0  0  0  0  0  0  0  0  0  0
   25.2151  -18.5330  -13.9882 O   0  0  0  0  0  0  0  0  0  0  0  0
   23.6105  -20.9209  -13.3085 C   0  0  0  0  0  0  0  0  0  0  0  0
   24.4902  -21.2788  -12.1441 C   0  0  1  0  0  0  0  0  0  0  0  0
   25.1140  -22.4921  -12.4617 O   0  0  0  0  0  0  0  0  0  0  0  0
   25.5827  -20.2665  -11.8969 C   0  0  2  0  0  0  0  0  0  0  0  0
   26.4384  -20.2422  -13.0593 N   0  0  0  0  0  0  0  0  0  0  0  0
   26.3401  -20.5532  -10.6563 C   0  0  0  0  0  0  0  0  0  0  0  0
   27.2531  -21.3989  -10.6909 O   0  0  0  0  0  0  0  0  0  0  0  0
   30.3228  -20.0503   -2.8694 O   0  0  0  0  0  0  0  0  0  0  0  0
   29.5292  -19.7652   -3.9754 C   0  0  0  0  0  0  0  0  0  0  0  0
   29.1837  -18.4822   -4.3277 C   0  0  0  0  0  0  0  0  0  0  0  0
   28.3967  -18.2169   -5.4262 C   0  0  0  0  0  0  0  0  0  0  0  0
   27.9062  -19.2197   -6.2401 C   0  0  0  0  0  0  0  0  0  0  0  0
   27.0555  -18.9647   -7.4075 C   0  0  0  0  0  0  0  0  0  0  0  0
   26.8545  -20.1485   -8.2681 C   0  0  2  0  0  0  0  0  0  0  0  0
   26.0656  -19.9033   -9.4352 N   0  0  0  0  0  0  0  0  0  0  0  0
   26.2044  -21.2431   -7.5210 C   0  0  0  0  0  0  0  0  0  0  0  0
   24.9549  -21.3762   -7.5896 O   0  0  0  0  0  0  0  0  0  0  0  0
   28.2657  -20.5246   -5.8707 C   0  0  0  0  0  0  0  0  0  0  0  0
   29.0522  -20.7840   -4.7725 C   0  0  0  0  0  0  0  0  0  0  0  0
   26.9313  -22.1454   -6.7321 O   0  0  0  0  0  0  0  0  0  0  0  0
  2  1  1  6
  2 13  1  0
  2  3  1  0
  4  3  1  0
  5  4  2  0
  6  7  1  0
  6  5  1  0
  7 12  2  0
  8  9  2  0
  8  7  1  0
  9 10  1  0
 10 11  2  0
 12  4  1  0
 12 11  1  0
 13 14  2  0
 16 15  1  6
 16 18  1  0
 17 16  1  0
 18 20  1  0
 18 19  1  6
 19 13  1  0
 20 29  1  0
 20 21  2  0
 22 23  1  0
 23 33  2  0
 23 24  1  0
 24 25  2  0
 25 26  1  0
 26 27  1  0
 28 27  1  1
 28 30  1  0
 29 28  1  0
 30 31  2  0
 30 34  1  0
 32 26  2  0
 33 32  1  0
M  END
$$$$
