WTY.pdb
     RDKit          3D

 34 36  0  0  1  0  0  0  0  0999 V2000
   27.0366  -18.3337  -19.4479 N   0  0  0  0  0  0  0  0  0  0  0  0
   26.4645  -18.0660  -18.1627 C   0  0  1  0  0  0  0  0  0  0  0  0
   26.5455  -16.6036  -17.8059 C   0  0  0  0  0  0  0  0  0  0  0  0
   27.9185  -16.0550  -17.8386 C   0  0  0  0  0  0  0  0  0  0  0  0
   28.2731  -14.8811  -18.4658 C   0  0  0  0  0  0  0  0  0  0  0  0
   29.5884  -14.6586  -18.2859 N   0  0  0  0  0  0  0  0  0  0  0  0
   30.1146  -15.6616  -17.5519 C   0  0  0  0  0  0  0  0  0  0  0  0
   31.4036  -15.8782  -17.1179 C   0  0  0  0  0  0  0  0  0  0  0  0
   31.6942  -16.9930  -16.3797 C   0  0  0  0  0  0  0  0  0  0  0  0
   30.6702  -17.8695  -16.0952 C   0  0  0  0  0  0  0  0  0  0  0  0
   29.3711  -17.6521  -16.5319 C   0  0  0  0  0  0  0  0  0  0  0  0
   29.0692  -16.5387  -17.2708 C   0  0  0  0  0  0  0  0  0  0  0  0
   25.0426  -18.4905  -18.1561 C   0  0  0  0  0  0  0  0  0  0  0  0
   24.3019  -18.0945  -19.0880 O   0  0  0  0  0  0  0  0  0  0  0  0
   23.7332  -21.6029  -18.7588 C   0  0  0  0  0  0  0  0  0  0  0  0
   23.0486  -21.1947  -17.4850 C   0  0  1  0  0  0  0  0  0  0  0  0
   23.7391  -21.8126  -16.4344 O   0  0  0  0  0  0  0  0  0  0  0  0
   23.1001  -19.7060  -17.2384 C   0  0  2  0  0  0  0  0  0  0  0  0
   24.4876  -19.3170  -17.1511 N   0  0  0  0  0  0  0  0  0  0  0  0
   22.3366  -19.3127  -16.0311 C   0  0  0  0  0  0  0  0  0  0  0  0
   22.9288  -19.2545  -14.9375 O   0  0  0  0  0  0  0  0  0  0  0  0
   15.0308  -19.2395  -18.6010 O   0  0  0  0  0  0  0  0  0  0  0  0
   16.0627  -18.8275  -17.7644 C   0  0  0  0  0  0  0  0  0  0  0  0
   17.2379  -18.2992  -18.2432 C   0  0  0  0  0  0  0  0  0  0  0  0
   18.2501  -17.8961  -17.4010 C   0  0  0  0  0  0  0  0  0  0  0  0
   18.1489  -17.9972  -16.0269 C   0  0  0  0  0  0  0  0  0  0  0  0
   19.2172  -17.5877  -15.1091 C   0  0  0  0  0  0  0  0  0  0  0  0
   20.2475  -18.6244  -14.8938 C   0  0  2  0  0  0  0  0  0  0  0  0
   20.9619  -19.0012  -16.0737 N   0  0  0  0  0  0  0  0  0  0  0  0
   19.6542  -19.8524  -14.3291 C   0  0  0  0  0  0  0  0  0  0  0  0
   19.6878  -20.9160  -15.0009 O   0  0  0  0  0  0  0  0  0  0  0  0
   16.9450  -18.5375  -15.5502 C   0  0  0  0  0  0  0  0  0  0  0  0
   15.9371  -18.9384  -16.3958 C   0  0  0  0  0  0  0  0  0  0  0  0
   19.0502  -19.8784  -13.0644 O   0  0  0  0  0  0  0  0  0  0  0  0
  2  1  1  6
  2 13  1  0
  2  3  1  0
  4  3  1  0
  5  4  2  0
  6  7  1  0
  6  5  1  0
  7 12  2  0
  8  9  2  0
  8  7  1  0
  9 10  1  0
 10 11  2  0
 12  4  1  0
 12 11  1  0
 13 14  2  0
 16 15  1  6
 16 18  1  0
 17 16  1  0
 18 20  1  0
 18 19  1  1
 19 13  1  0
 20 29  1  0
 20 21  2  0
 22 23  1  0
 23 33  2  0
 23 24  1  0
 24 25  2  0
 25 26  1  0
 26 27  1  0
 28 27  1  6
 28 30  1  0
 29 28  1  0
 30 31  2  0
 30 34  1  0
 32 26  2  0
 33 32  1  0
M  END
$$$$
