WTY.pdb
     RDKit          3D

 34 36  0  0  1  0  0  0  0  0999 V2000
   28.1185  -21.9960  -10.8396 N   0  0  0  0  0  0  0  0  0  0  0  0
   27.0478  -21.2369  -10.2669 C   0  0  1  0  0  0  0  0  0  0  0  0
   27.5465  -19.9862   -9.5891 C   0  0  0  0  0  0  0  0  0  0  0  0
   28.4188  -20.2447   -8.4232 C   0  0  0  0  0  0  0  0  0  0  0  0
   29.7047  -20.7313   -8.5056 C   0  0  0  0  0  0  0  0  0  0  0  0
   30.2257  -20.8274   -7.2682 N   0  0  0  0  0  0  0  0  0  0  0  0
   29.3113  -20.4146   -6.3654 C   0  0  0  0  0  0  0  0  0  0  0  0
   29.3756  -20.3347   -4.9920 C   0  0  0  0  0  0  0  0  0  0  0  0
   28.2946  -19.8819   -4.2859 C   0  0  0  0  0  0  0  0  0  0  0  0
   27.1660  -19.5181   -4.9871 C   0  0  0  0  0  0  0  0  0  0  0  0
   27.1002  -19.5982   -6.3710 C   0  0  0  0  0  0  0  0  0  0  0  0
   28.1771  -20.0492   -7.0876 C   0  0  0  0  0  0  0  0  0  0  0  0
   26.0829  -20.8626  -11.3303 C   0  0  0  0  0  0  0  0  0  0  0  0
   26.5373  -20.4361  -12.4191 O   0  0  0  0  0  0  0  0  0  0  0  0
   25.5084  -21.9032  -13.7064 C   0  0  0  0  0  0  0  0  0  0  0  0
   24.0589  -21.7592  -13.3373 C   0  0  1  0  0  0  0  0  0  0  0  0
   23.6567  -22.9795  -12.7793 O   0  0  0  0  0  0  0  0  0  0  0  0
   23.8181  -20.6917  -12.2971 C   0  0  2  0  0  0  0  0  0  0  0  0
   24.6807  -20.9639  -11.1720 N   0  0  0  0  0  0  0  0  0  0  0  0
   22.3937  -20.6119  -11.8975 C   0  0  0  0  0  0  0  0  0  0  0  0
   22.0094  -21.2618  -10.9076 O   0  0  0  0  0  0  0  0  0  0  0  0
   20.1139  -17.0688  -18.0047 O   0  0  0  0  0  0  0  0  0  0  0  0
   19.9618  -17.3808  -16.6579 C   0  0  0  0  0  0  0  0  0  0  0  0
   18.8928  -18.1016  -16.1811 C   0  0  0  0  0  0  0  0  0  0  0  0
   18.7570  -18.4021  -14.8441 C   0  0  0  0  0  0  0  0  0  0  0  0
   19.6828  -17.9992  -13.9010 C   0  0  0  0  0  0  0  0  0  0  0  0
   19.5545  -18.2947  -12.4700 C   0  0  0  0  0  0  0  0  0  0  0  0
   20.1453  -19.5894  -12.0738 C   0  0  2  0  0  0  0  0  0  0  0  0
   21.4547  -19.8261  -12.5973 N   0  0  0  0  0  0  0  0  0  0  0  0
   19.2916  -20.7151  -12.5017 C   0  0  0  0  0  0  0  0  0  0  0  0
   18.1293  -20.8183  -12.0305 O   0  0  0  0  0  0  0  0  0  0  0  0
   20.7692  -17.2647  -14.3996 C   0  0  0  0  0  0  0  0  0  0  0  0
   20.9001  -16.9675  -15.7361 C   0  0  0  0  0  0  0  0  0  0  0  0
   19.7301  -21.6802  -13.4188 O   0  0  0  0  0  0  0  0  0  0  0  0
  2  1  1  6
  2 13  1  0
  2  3  1  0
  4  3  1  0
  5  4  2  0
  6  7  1  0
  6  5  1  0
  7 12  2  0
  8  9  2  0
  8  7  1  0
  9 10  1  0
 10 11  2  0
 12  4  1  0
 12 11  1  0
 13 14  2  0
 16 15  1  1
 16 18  1  0
 17 16  1  0
 18 20  1  0
 18 19  1  1
 19 13  1  0
 20 29  1  0
 20 21  2  0
 22 23  1  0
 23 33  2  0
 23 24  1  0
 24 25  2  0
 25 26  1  0
 26 27  1  0
 28 27  1  6
 28 30  1  0
 29 28  1  0
 30 31  2  0
 30 34  1  0
 32 26  2  0
 33 32  1  0
M  END
$$$$
