WTY.pdb
     RDKit          3D

 34 36  0  0  1  0  0  0  0  0999 V2000
   23.2061  -18.5836  -15.6932 N   0  0  0  0  0  0  0  0  0  0  0  0
   23.5431  -19.4757  -14.6249 C   0  0  1  0  0  0  0  0  0  0  0  0
   24.7677  -19.0165  -13.8754 C   0  0  0  0  0  0  0  0  0  0  0  0
   25.9264  -18.7218  -14.7458 C   0  0  0  0  0  0  0  0  0  0  0  0
   26.5454  -19.6463  -15.5576 C   0  0  0  0  0  0  0  0  0  0  0  0
   27.5454  -19.0493  -16.2324 N   0  0  0  0  0  0  0  0  0  0  0  0
   27.6032  -17.7465  -15.8846 C   0  0  0  0  0  0  0  0  0  0  0  0
   28.4502  -16.7420  -16.2974 C   0  0  0  0  0  0  0  0  0  0  0  0
   28.3101  -15.4811  -15.7849 C   0  0  0  0  0  0  0  0  0  0  0  0
   27.3121  -15.2619  -14.8609 C   0  0  0  0  0  0  0  0  0  0  0  0
   26.4581  -16.2734  -14.4444 C   0  0  0  0  0  0  0  0  0  0  0  0
   26.5890  -17.5391  -14.9520 C   0  0  0  0  0  0  0  0  0  0  0  0
   22.4019  -19.5706  -13.6812 C   0  0  0  0  0  0  0  0  0  0  0  0
   22.0501  -18.5325  -13.0709 O   0  0  0  0  0  0  0  0  0  0  0  0
   19.9276  -18.5372  -13.6101 C   0  0  0  0  0  0  0  0  0  0  0  0
   19.4677  -19.9287  -13.2783 C   0  0  1  0  0  0  0  0  0  0  0  0
   19.1740  -20.5619  -14.4927 O   0  0  0  0  0  0  0  0  0  0  0  0
   20.5295  -20.7528  -12.5905 C   0  0  2  0  0  0  0  0  0  0  0  0
   21.6968  -20.7730  -13.4396 N   0  0  0  0  0  0  0  0  0  0  0  0
   20.0549  -22.1185  -12.2672 C   0  0  0  0  0  0  0  0  0  0  0  0
   20.4595  -23.0743  -12.9547 O   0  0  0  0  0  0  0  0  0  0  0  0
   16.1896  -29.0956   -8.4965 O   0  0  0  0  0  0  0  0  0  0  0  0
   16.6928  -27.8220   -8.7402 C   0  0  0  0  0  0  0  0  0  0  0  0
   15.8832  -26.7478   -9.0234 C   0  0  0  0  0  0  0  0  0  0  0  0
   16.3976  -25.4929   -9.2625 C   0  0  0  0  0  0  0  0  0  0  0  0
   17.7547  -25.2355   -9.2333 C   0  0  0  0  0  0  0  0  0  0  0  0
   18.3284  -23.9117   -9.4974 C   0  0  0  0  0  0  0  0  0  0  0  0
   18.7334  -23.7077  -10.9034 C   0  0  2  0  0  0  0  0  0  0  0  0
   19.1603  -22.3775  -11.2082 N   0  0  0  0  0  0  0  0  0  0  0  0
   17.6292  -24.0365  -11.8264 C   0  0  0  0  0  0  0  0  0  0  0  0
   17.5745  -25.1869  -12.3336 O   0  0  0  0  0  0  0  0  0  0  0  0
   18.5706  -26.3394   -8.9429 C   0  0  0  0  0  0  0  0  0  0  0  0
   18.0516  -27.5906   -8.7047 C   0  0  0  0  0  0  0  0  0  0  0  0
   16.6332  -23.1090  -12.1618 O   0  0  0  0  0  0  0  0  0  0  0  0
  2  1  1  6
  2 13  1  0
  2  3  1  0
  4  3  1  0
  5  4  2  0
  6  7  1  0
  6  5  1  0
  7 12  2  0
  8  9  2  0
  8  7  1  0
  9 10  1  0
 10 11  2  0
 12  4  1  0
 12 11  1  0
 13 14  2  0
 16 15  1  6
 16 18  1  0
 17 16  1  0
 18 20  1  0
 18 19  1  6
 19 13  1  0
 20 29  1  0
 20 21  2  0
 22 23  1  0
 23 33  2  0
 23 24  1  0
 24 25  2  0
 25 26  1  0
 26 27  1  0
 28 27  1  1
 28 30  1  0
 29 28  1  0
 30 31  2  0
 30 34  1  0
 32 26  2  0
 33 32  1  0
M  END
$$$$
