WTY.pdb
     RDKit          3D

 34 36  0  0  1  0  0  0  0  0999 V2000
   22.5769  -17.4792  -18.8602 N   0  0  0  0  0  0  0  0  0  0  0  0
   23.2049  -17.0859  -17.6347 C   0  0  1  0  0  0  0  0  0  0  0  0
   22.2626  -16.3197  -16.7419 C   0  0  0  0  0  0  0  0  0  0  0  0
   21.5366  -15.2315  -17.4318 C   0  0  0  0  0  0  0  0  0  0  0  0
   20.1668  -15.1700  -17.5624 C   0  0  0  0  0  0  0  0  0  0  0  0
   19.8312  -14.0438  -18.2188 N   0  0  0  0  0  0  0  0  0  0  0  0
   20.9508  -13.3562  -18.5272 C   0  0  0  0  0  0  0  0  0  0  0  0
   21.1184  -12.1619  -19.1924 C   0  0  0  0  0  0  0  0  0  0  0  0
   22.3778  -11.6651  -19.3907 C   0  0  0  0  0  0  0  0  0  0  0  0
   23.4460  -12.3903  -18.9103 C   0  0  0  0  0  0  0  0  0  0  0  0
   23.2781  -13.5936  -18.2398 C   0  0  0  0  0  0  0  0  0  0  0  0
   22.0215  -14.0995  -18.0350 C   0  0  0  0  0  0  0  0  0  0  0  0
   23.6843  -18.2920  -16.9154 C   0  0  0  0  0  0  0  0  0  0  0  0
   22.9449  -19.3053  -16.8997 O   0  0  0  0  0  0  0  0  0  0  0  0
   26.2907  -20.1773  -17.9715 C   0  0  0  0  0  0  0  0  0  0  0  0
   26.5795  -20.0609  -16.5015 C   0  0  1  0  0  0  0  0  0  0  0  0
   27.5721  -19.0831  -16.3568 O   0  0  0  0  0  0  0  0  0  0  0  0
   25.3842  -19.6055  -15.6995 C   0  0  2  0  0  0  0  0  0  0  0  0
   24.9312  -18.3500  -16.2496 N   0  0  0  0  0  0  0  0  0  0  0  0
   25.6886  -19.5000  -14.2534 C   0  0  0  0  0  0  0  0  0  0  0  0
   25.7903  -18.3699  -13.7410 O   0  0  0  0  0  0  0  0  0  0  0  0
   26.7716  -19.1505   -5.7950 O   0  0  0  0  0  0  0  0  0  0  0  0
   26.3756  -19.3282   -7.1164 C   0  0  0  0  0  0  0  0  0  0  0  0
   25.6327  -20.4092   -7.5276 C   0  0  0  0  0  0  0  0  0  0  0  0
   25.2487  -20.5703   -8.8402 C   0  0  0  0  0  0  0  0  0  0  0  0
   25.5851  -19.6593   -9.8230 C   0  0  0  0  0  0  0  0  0  0  0  0
   25.2001  -19.8146  -11.2299 C   0  0  0  0  0  0  0  0  0  0  0  0
   26.2147  -20.5050  -12.0523 C   0  0  2  0  0  0  0  0  0  0  0  0
   25.8679  -20.6334  -13.4335 N   0  0  0  0  0  0  0  0  0  0  0  0
   26.4793  -21.8633  -11.5383 C   0  0  0  0  0  0  0  0  0  0  0  0
   25.8343  -22.8352  -12.0103 O   0  0  0  0  0  0  0  0  0  0  0  0
   26.3430  -18.5604   -9.3912 C   0  0  0  0  0  0  0  0  0  0  0  0
   26.7236  -18.4042   -8.0787 C   0  0  0  0  0  0  0  0  0  0  0  0
   27.4280  -22.1126  -10.5369 O   0  0  0  0  0  0  0  0  0  0  0  0
  2  1  1  6
  2 13  1  0
  2  3  1  0
  4  3  1  0
  5  4  2  0
  6  7  1  0
  6  5  1  0
  7 12  2  0
  8  9  2  0
  8  7  1  0
  9 10  1  0
 10 11  2  0
 12  4  1  0
 12 11  1  0
 13 14  2  0
 16 15  1  6
 16 18  1  0
 17 16  1  0
 18 20  1  0
 18 19  1  6
 19 13  1  0
 20 29  1  0
 20 21  2  0
 22 23  1  0
 23 33  2  0
 23 24  1  0
 24 25  2  0
 25 26  1  0
 26 27  1  0
 28 27  1  1
 28 30  1  0
 29 28  1  0
 30 31  2  0
 30 34  1  0
 32 26  2  0
 33 32  1  0
M  END
$$$$
