FYN.pdb
     RDKit          3D

 32 33  0  0  1  0  0  0  0  0999 V2000
    7.0442  -16.3632   22.5395 N   0  0  0  0  0  0  0  0  0  0  0  0
    8.3484  -16.5144   21.9743 C   0  0  1  0  0  0  0  0  0  0  0  0
    9.1138  -15.2058   21.9203 C   0  0  0  0  0  0  0  0  0  0  0  0
    8.3842  -14.2327   21.0679 C   0  0  0  0  0  0  0  0  0  0  0  0
    7.7064  -13.1580   21.6055 C   0  0  0  0  0  0  0  0  0  0  0  0
    7.0394  -12.2651   20.8288 C   0  0  0  0  0  0  0  0  0  0  0  0
    7.0220  -12.4113   19.4595 C   0  0  0  0  0  0  0  0  0  0  0  0
    7.6800  -13.4606   18.8893 C   0  0  0  0  0  0  0  0  0  0  0  0
    8.3527  -14.3600   19.6836 C   0  0  0  0  0  0  0  0  0  0  0  0
    9.0876  -17.5117   22.8234 C   0  0  0  0  0  0  0  0  0  0  0  0
    9.0221  -17.3466   24.0689 O   0  0  0  0  0  0  0  0  0  0  0  0
    4.8674  -22.2923   24.7348 O   0  0  0  0  0  0  0  0  0  0  0  0
    6.1345  -21.9242   24.2871 C   0  0  0  0  0  0  0  0  0  0  0  0
    6.2885  -21.3673   23.0499 C   0  0  0  0  0  0  0  0  0  0  0  0
    7.5193  -21.0045   22.6019 C   0  0  0  0  0  0  0  0  0  0  0  0
    8.6931  -21.1688   23.3531 C   0  0  0  0  0  0  0  0  0  0  0  0
   10.0063  -20.8278   22.8680 C   0  0  0  0  0  0  0  0  0  0  0  0
   10.6009  -19.5087   23.1190 C   0  0  2  0  0  0  0  0  0  0  0  0
    9.8167  -18.5772   22.2627 N   0  0  0  0  0  0  0  0  0  0  0  0
   12.0012  -19.3474   22.7222 C   0  0  0  0  0  0  0  0  0  0  0  0
   12.3017  -19.0712   21.5200 O   0  0  0  0  0  0  0  0  0  0  0  0
    8.5220  -21.7300   24.5964 C   0  0  0  0  0  0  0  0  0  0  0  0
    7.2579  -22.1067   25.0650 C   0  0  0  0  0  0  0  0  0  0  0  0
   16.3210  -17.0032   22.2596 N   0  0  0  0  0  0  0  0  0  0  0  0
   15.3502  -16.6045   23.2554 C   0  0  0  0  0  0  0  0  0  0  0  0
   15.6343  -15.6478   23.9844 O   0  0  0  0  0  0  0  0  0  0  0  0
   14.0927  -17.3261   23.3678 C   0  0  0  0  0  0  0  0  0  0  0  0
   14.3453  -18.8284   23.3766 C   0  0  2  0  0  0  0  0  0  0  0  0
   13.0474  -19.4887   23.6767 N   0  0  0  0  0  0  0  0  0  0  0  0
   15.2425  -19.1190   24.5069 C   0  0  0  0  0  0  0  0  0  0  0  0
   16.4468  -19.4576   24.4182 O   0  0  0  0  0  0  0  0  0  0  0  0
   14.7552  -19.0204   25.8246 O   0  0  0  0  0  0  0  0  0  0  0  0
  2  1  1  1
  2  3  1  0
  3  4  1  0
  4  9  1  0
  4  5  2  0
  5  6  1  0
  7  6  2  0
  8  7  1  0
  9  8  2  0
 10  2  1  0
 11 10  2  0
 13 12  1  0
 13 23  2  0
 14 13  1  0
 15 14  2  0
 15 16  1  0
 16 22  2  0
 17 16  1  0
 18 19  1  0
 18 17  1  6
 19 10  1  0
 20 18  1  0
 21 20  2  0
 22 23  1  0
 24 25  1  0
 25 26  2  0
 28 27  1  1
 27 25  1  0
 28 29  1  0
 29 20  1  0
 30 32  1  0
 30 28  1  0
 31 30  2  0
M  END
$$$$
