FYN.pdb
     RDKit          3D

 32 33  0  0  1  0  0  0  0  0999 V2000
    9.5481  -17.3172   19.5966 N   0  0  0  0  0  0  0  0  0  0  0  0
    9.1725  -16.2561   20.4776 C   0  0  1  0  0  0  0  0  0  0  0  0
    7.6790  -15.9908   20.4646 C   0  0  0  0  0  0  0  0  0  0  0  0
    7.4175  -14.5759   20.8329 C   0  0  0  0  0  0  0  0  0  0  0  0
    6.9531  -14.2224   22.0829 C   0  0  0  0  0  0  0  0  0  0  0  0
    6.7145  -12.9292   22.4237 C   0  0  0  0  0  0  0  0  0  0  0  0
    6.9339  -11.9185   21.5143 C   0  0  0  0  0  0  0  0  0  0  0  0
    7.3929  -12.2268   20.2679 C   0  0  0  0  0  0  0  0  0  0  0  0
    7.6317  -13.5391   19.9315 C   0  0  0  0  0  0  0  0  0  0  0  0
    9.6164  -16.6483   21.8600 C   0  0  0  0  0  0  0  0  0  0  0  0
   10.3558  -17.6627   21.9457 O   0  0  0  0  0  0  0  0  0  0  0  0
   10.5958  -14.8492   30.6985 O   0  0  0  0  0  0  0  0  0  0  0  0
   10.2865  -14.9242   29.3420 C   0  0  0  0  0  0  0  0  0  0  0  0
   10.6844  -13.9315   28.4930 C   0  0  0  0  0  0  0  0  0  0  0  0
   10.3885  -13.9931   27.1680 C   0  0  0  0  0  0  0  0  0  0  0  0
    9.6723  -15.0502   26.5858 C   0  0  0  0  0  0  0  0  0  0  0  0
    9.3164  -15.1011   25.1906 C   0  0  0  0  0  0  0  0  0  0  0  0
   10.0681  -15.9236   24.2341 C   0  0  2  0  0  0  0  0  0  0  0  0
    9.2304  -15.9242   23.0036 N   0  0  0  0  0  0  0  0  0  0  0  0
   10.2561  -17.3287   24.6011 C   0  0  0  0  0  0  0  0  0  0  0  0
    9.2660  -18.1227   24.6357 O   0  0  0  0  0  0  0  0  0  0  0  0
    9.2791  -16.0420   27.4528 C   0  0  0  0  0  0  0  0  0  0  0  0
    9.5796  -15.9858   28.8188 C   0  0  0  0  0  0  0  0  0  0  0  0
   13.4870  -19.1493   22.4258 N   0  0  0  0  0  0  0  0  0  0  0  0
   12.6349  -19.9233   23.3022 C   0  0  0  0  0  0  0  0  0  0  0  0
   11.7490  -20.6107   22.7826 O   0  0  0  0  0  0  0  0  0  0  0  0
   12.8411  -19.8716   24.7407 C   0  0  0  0  0  0  0  0  0  0  0  0
   11.6421  -19.2251   25.4228 C   0  0  2  0  0  0  0  0  0  0  0  0
   11.5502  -17.8302   24.9166 N   0  0  0  0  0  0  0  0  0  0  0  0
   11.9458  -19.1374   26.8605 C   0  0  0  0  0  0  0  0  0  0  0  0
   11.5735  -19.9513   27.7390 O   0  0  0  0  0  0  0  0  0  0  0  0
   12.7212  -18.0654   27.3432 O   0  0  0  0  0  0  0  0  0  0  0  0
  2  1  1  6
  2  3  1  0
  3  4  1  0
  4  9  1  0
  4  5  2  0
  5  6  1  0
  7  6  2  0
  8  7  1  0
  9  8  2  0
 10  2  1  0
 11 10  2  0
 13 12  1  0
 13 23  2  0
 14 13  1  0
 15 14  2  0
 15 16  1  0
 16 22  2  0
 17 16  1  0
 18 19  1  0
 18 17  1  1
 19 10  1  0
 20 18  1  0
 21 20  2  0
 22 23  1  0
 24 25  1  0
 25 26  2  0
 28 27  1  6
 27 25  1  0
 28 29  1  0
 29 20  1  0
 30 32  1  0
 30 28  1  0
 31 30  2  0
M  END
$$$$
