FYN.pdb
     RDKit          3D

 32 33  0  0  1  0  0  0  0  0999 V2000
    8.2672  -17.4493   19.8189 N   0  0  0  0  0  0  0  0  0  0  0  0
    9.5589  -16.8383   19.8588 C   0  0  1  0  0  0  0  0  0  0  0  0
    9.7349  -15.7803   18.7861 C   0  0  0  0  0  0  0  0  0  0  0  0
    8.8496  -14.6228   19.0730 C   0  0  0  0  0  0  0  0  0  0  0  0
    7.4752  -14.7230   19.0080 C   0  0  0  0  0  0  0  0  0  0  0  0
    6.6625  -13.6669   19.2714 C   0  0  0  0  0  0  0  0  0  0  0  0
    7.1985  -12.4461   19.6167 C   0  0  0  0  0  0  0  0  0  0  0  0
    8.5527  -12.3061   19.6919 C   0  0  0  0  0  0  0  0  0  0  0  0
    9.3680  -13.3810   19.4234 C   0  0  0  0  0  0  0  0  0  0  0  0
    9.7179  -16.2242   21.2224 C   0  0  0  0  0  0  0  0  0  0  0  0
   10.8420  -15.7240   21.4854 O   0  0  0  0  0  0  0  0  0  0  0  0
    6.6978  -12.1017   28.5912 O   0  0  0  0  0  0  0  0  0  0  0  0
    6.9150  -12.7545   27.3796 C   0  0  0  0  0  0  0  0  0  0  0  0
    6.6735  -14.0941   27.2706 C   0  0  0  0  0  0  0  0  0  0  0  0
    6.8819  -14.7421   26.0943 C   0  0  0  0  0  0  0  0  0  0  0  0
    7.3475  -14.1045   24.9342 C   0  0  0  0  0  0  0  0  0  0  0  0
    7.6131  -14.7925   23.6964 C   0  0  0  0  0  0  0  0  0  0  0  0
    8.8428  -15.5699   23.4965 C   0  0  2  0  0  0  0  0  0  0  0  0
    8.6696  -16.2051   22.1614 N   0  0  0  0  0  0  0  0  0  0  0  0
    9.0743  -16.6636   24.4423 C   0  0  0  0  0  0  0  0  0  0  0  0
    8.3853  -17.7280   24.3763 O   0  0  0  0  0  0  0  0  0  0  0  0
    7.5855  -12.7563   25.0593 C   0  0  0  0  0  0  0  0  0  0  0  0
    7.3737  -12.0816   26.2673 C   0  0  0  0  0  0  0  0  0  0  0  0
   13.4055  -19.4918   27.1364 N   0  0  0  0  0  0  0  0  0  0  0  0
   12.1297  -19.4900   26.4542 C   0  0  0  0  0  0  0  0  0  0  0  0
   11.4263  -20.5017   26.5480 O   0  0  0  0  0  0  0  0  0  0  0  0
   11.7194  -18.3209   25.6929 C   0  0  0  0  0  0  0  0  0  0  0  0
   10.4005  -17.7784   26.2286 C   0  0  2  0  0  0  0  0  0  0  0  0
   10.0790  -16.5567   25.4446 N   0  0  0  0  0  0  0  0  0  0  0  0
   10.6319  -17.3454   27.6164 C   0  0  0  0  0  0  0  0  0  0  0  0
   10.6486  -18.0921   28.6238 O   0  0  0  0  0  0  0  0  0  0  0  0
   10.8621  -15.9832   27.8905 O   0  0  0  0  0  0  0  0  0  0  0  0
  2  1  1  1
  2  3  1  0
  3  4  1  0
  4  9  1  0
  4  5  2  0
  5  6  1  0
  7  6  2  0
  8  7  1  0
  9  8  2  0
 10  2  1  0
 11 10  2  0
 13 12  1  0
 13 23  2  0
 14 13  1  0
 15 14  2  0
 15 16  1  0
 16 22  2  0
 17 16  1  0
 18 19  1  0
 18 17  1  1
 19 10  1  0
 20 18  1  0
 21 20  2  0
 22 23  1  0
 24 25  1  0
 25 26  2  0
 28 27  1  6
 27 25  1  0
 28 29  1  0
 29 20  1  0
 30 32  1  0
 30 28  1  0
 31 30  2  0
M  END
$$$$
