FYN.pdb
     RDKit          3D

 32 33  0  0  1  0  0  0  0  0999 V2000
    5.8889  -17.6345   24.3879 N   0  0  0  0  0  0  0  0  0  0  0  0
    6.5663  -16.3897   24.5749 C   0  0  1  0  0  0  0  0  0  0  0  0
    6.8140  -16.0767   26.0383 C   0  0  0  0  0  0  0  0  0  0  0  0
    6.8863  -14.6058   26.2315 C   0  0  0  0  0  0  0  0  0  0  0  0
    5.7619  -13.8081   26.1802 C   0  0  0  0  0  0  0  0  0  0  0  0
    5.8242  -12.4628   26.3580 C   0  0  0  0  0  0  0  0  0  0  0  0
    7.0330  -11.8484   26.5988 C   0  0  0  0  0  0  0  0  0  0  0  0
    8.1678  -12.6020   26.6572 C   0  0  0  0  0  0  0  0  0  0  0  0
    8.0953  -13.9637   26.4757 C   0  0  0  0  0  0  0  0  0  0  0  0
    7.8734  -16.4801   23.8365 C   0  0  0  0  0  0  0  0  0  0  0  0
    8.2948  -17.6375   23.5803 O   0  0  0  0  0  0  0  0  0  0  0  0
    6.5535  -13.6240   16.9823 O   0  0  0  0  0  0  0  0  0  0  0  0
    7.3115  -13.7369   18.1459 C   0  0  0  0  0  0  0  0  0  0  0  0
    8.1287  -14.8155   18.3289 C   0  0  0  0  0  0  0  0  0  0  0  0
    8.8727  -14.9371   19.4597 C   0  0  0  0  0  0  0  0  0  0  0  0
    8.8598  -13.9919   20.4970 C   0  0  0  0  0  0  0  0  0  0  0  0
    9.6114  -14.1355   21.7178 C   0  0  0  0  0  0  0  0  0  0  0  0
    9.6802  -15.4161   22.4332 C   0  0  2  0  0  0  0  0  0  0  0  0
    8.5942  -15.3351   23.4481 N   0  0  0  0  0  0  0  0  0  0  0  0
   10.9154  -15.6733   23.1762 C   0  0  0  0  0  0  0  0  0  0  0  0
   12.0376  -15.6629   22.5825 O   0  0  0  0  0  0  0  0  0  0  0  0
    8.0330  -12.9117   20.2981 C   0  0  0  0  0  0  0  0  0  0  0  0
    7.2634  -12.7793   19.1364 C   0  0  0  0  0  0  0  0  0  0  0  0
   11.2353  -20.2727   25.7710 N   0  0  0  0  0  0  0  0  0  0  0  0
   11.7013  -19.5578   24.6027 C   0  0  0  0  0  0  0  0  0  0  0  0
   12.6510  -20.0392   23.9752 O   0  0  0  0  0  0  0  0  0  0  0  0
   11.0518  -18.3182   24.2077 C   0  0  0  0  0  0  0  0  0  0  0  0
   11.5539  -17.1630   25.0646 C   0  0  2  0  0  0  0  0  0  0  0  0
   10.8811  -15.9307   24.5756 N   0  0  0  0  0  0  0  0  0  0  0  0
   12.9911  -17.0013   24.7901 C   0  0  0  0  0  0  0  0  0  0  0  0
   13.9006  -16.9514   25.6520 O   0  0  0  0  0  0  0  0  0  0  0  0
   13.4364  -16.8906   23.4585 O   0  0  0  0  0  0  0  0  0  0  0  0
  2  1  1  1
  2  3  1  0
  3  4  1  0
  4  9  1  0
  4  5  2  0
  5  6  1  0
  7  6  2  0
  8  7  1  0
  9  8  2  0
 10  2  1  0
 11 10  2  0
 13 12  1  0
 13 23  2  0
 14 13  1  0
 15 14  2  0
 15 16  1  0
 16 22  2  0
 17 16  1  0
 18 19  1  0
 18 17  1  1
 19 10  1  0
 20 18  1  0
 21 20  2  0
 22 23  1  0
 24 25  1  0
 25 26  2  0
 28 27  1  6
 27 25  1  0
 28 29  1  0
 29 20  1  0
 30 32  1  0
 30 28  1  0
 31 30  2  0
M  END
$$$$
