FYN.pdb
     RDKit          3D

 32 33  0  0  1  0  0  0  0  0999 V2000
    6.3919  -18.4650   27.2474 N   0  0  0  0  0  0  0  0  0  0  0  0
    7.2276  -17.3283   27.0177 C   0  0  1  0  0  0  0  0  0  0  0  0
    8.5314  -17.3998   27.7897 C   0  0  0  0  0  0  0  0  0  0  0  0
    9.2350  -16.0943   27.7081 C   0  0  0  0  0  0  0  0  0  0  0  0
    8.5608  -14.9180   27.4532 C   0  0  0  0  0  0  0  0  0  0  0  0
    9.2009  -13.7221   27.3795 C   0  0  0  0  0  0  0  0  0  0  0  0
   10.5643  -13.6507   27.5607 C   0  0  0  0  0  0  0  0  0  0  0  0
   11.2670  -14.7912   27.8147 C   0  0  0  0  0  0  0  0  0  0  0  0
   10.6105  -15.9979   27.8875 C   0  0  0  0  0  0  0  0  0  0  0  0
    7.5033  -17.2709   25.5404 C   0  0  0  0  0  0  0  0  0  0  0  0
    7.6234  -18.3745   24.9483 O   0  0  0  0  0  0  0  0  0  0  0  0
    7.6818  -12.9057   17.6262 O   0  0  0  0  0  0  0  0  0  0  0  0
    7.5768  -13.3364   18.9471 C   0  0  0  0  0  0  0  0  0  0  0  0
    8.2640  -12.6905   19.9346 C   0  0  0  0  0  0  0  0  0  0  0  0
    8.1701  -13.1014   21.2267 C   0  0  0  0  0  0  0  0  0  0  0  0
    7.3831  -14.1891   21.6350 C   0  0  0  0  0  0  0  0  0  0  0  0
    7.3130  -14.6582   22.9955 C   0  0  0  0  0  0  0  0  0  0  0  0
    7.7355  -16.0154   23.3643 C   0  0  2  0  0  0  0  0  0  0  0  0
    7.6220  -16.0511   24.8481 N   0  0  0  0  0  0  0  0  0  0  0  0
    9.1227  -16.3653   23.0522 C   0  0  0  0  0  0  0  0  0  0  0  0
    9.4901  -16.5276   21.8478 O   0  0  0  0  0  0  0  0  0  0  0  0
    6.6969  -14.8287   20.6300 C   0  0  0  0  0  0  0  0  0  0  0  0
    6.7886  -14.4119   19.2968 C   0  0  0  0  0  0  0  0  0  0  0  0
   14.0683  -17.1183   22.9556 N   0  0  0  0  0  0  0  0  0  0  0  0
   13.4579  -15.8349   22.6851 C   0  0  0  0  0  0  0  0  0  0  0  0
   14.1476  -14.9777   22.1222 O   0  0  0  0  0  0  0  0  0  0  0  0
   12.0778  -15.5948   23.0751 C   0  0  0  0  0  0  0  0  0  0  0  0
   11.4777  -16.8515   23.6928 C   0  0  2  0  0  0  0  0  0  0  0  0
   10.0838  -16.5210   24.0904 N   0  0  0  0  0  0  0  0  0  0  0  0
   12.2195  -17.1319   24.9330 C   0  0  0  0  0  0  0  0  0  0  0  0
   11.8059  -16.9201   26.0979 O   0  0  0  0  0  0  0  0  0  0  0  0
   13.5108  -17.6894   24.8599 O   0  0  0  0  0  0  0  0  0  0  0  0
  2  1  1  6
  2  3  1  0
  3  4  1  0
  4  9  1  0
  4  5  2  0
  5  6  1  0
  7  6  2  0
  8  7  1  0
  9  8  2  0
 10  2  1  0
 11 10  2  0
 13 12  1  0
 13 23  2  0
 14 13  1  0
 15 14  2  0
 15 16  1  0
 16 22  2  0
 17 16  1  0
 18 19  1  0
 18 17  1  1
 19 10  1  0
 20 18  1  0
 21 20  2  0
 22 23  1  0
 24 25  1  0
 25 26  2  0
 28 27  1  1
 27 25  1  0
 28 29  1  0
 29 20  1  0
 30 32  1  0
 30 28  1  0
 31 30  2  0
M  END
$$$$
