FYN.pdb
     RDKit          3D

 32 33  0  0  1  0  0  0  0  0999 V2000
    6.6002  -16.8821   26.0561 N   0  0  0  0  0  0  0  0  0  0  0  0
    6.4469  -16.5062   24.6856 C   0  0  1  0  0  0  0  0  0  0  0  0
    5.8443  -15.1233   24.5261 C   0  0  0  0  0  0  0  0  0  0  0  0
    6.4125  -14.2074   25.5480 C   0  0  0  0  0  0  0  0  0  0  0  0
    5.6788  -13.7867   26.6379 C   0  0  0  0  0  0  0  0  0  0  0  0
    6.1959  -12.9506   27.5753 C   0  0  0  0  0  0  0  0  0  0  0  0
    7.4896  -12.4925   27.4608 C   0  0  0  0  0  0  0  0  0  0  0  0
    8.2478  -12.8853   26.3978 C   0  0  0  0  0  0  0  0  0  0  0  0
    7.7159  -13.7322   25.4532 C   0  0  0  0  0  0  0  0  0  0  0  0
    7.8124  -16.5514   24.0570 C   0  0  0  0  0  0  0  0  0  0  0  0
    8.4431  -17.6350   24.1616 O   0  0  0  0  0  0  0  0  0  0  0  0
    7.0614  -13.8050   16.8943 O   0  0  0  0  0  0  0  0  0  0  0  0
    7.7164  -13.9475   18.1158 C   0  0  0  0  0  0  0  0  0  0  0  0
    7.4060  -13.1235   19.1595 C   0  0  0  0  0  0  0  0  0  0  0  0
    8.0381  -13.2523   20.3556 C   0  0  0  0  0  0  0  0  0  0  0  0
    9.0297  -14.2136   20.6046 C   0  0  0  0  0  0  0  0  0  0  0  0
    9.7355  -14.3276   21.8555 C   0  0  0  0  0  0  0  0  0  0  0  0
    9.6656  -15.5474   22.6702 C   0  0  2  0  0  0  0  0  0  0  0  0
    8.3638  -15.4445   23.3848 N   0  0  0  0  0  0  0  0  0  0  0  0
   10.6903  -15.6895   23.7065 C   0  0  0  0  0  0  0  0  0  0  0  0
   10.3664  -15.7051   24.9340 O   0  0  0  0  0  0  0  0  0  0  0  0
    9.3308  -15.0360   19.5449 C   0  0  0  0  0  0  0  0  0  0  0  0
    8.6846  -14.9095   18.3097 C   0  0  0  0  0  0  0  0  0  0  0  0
   12.4592  -20.3461   24.7807 N   0  0  0  0  0  0  0  0  0  0  0  0
   11.8026  -19.0795   24.5404 C   0  0  0  0  0  0  0  0  0  0  0  0
   10.8756  -18.7608   25.2929 O   0  0  0  0  0  0  0  0  0  0  0  0
   12.2434  -18.2343   23.4422 C   0  0  0  0  0  0  0  0  0  0  0  0
   12.8281  -16.9340   23.9789 C   0  0  2  0  0  0  0  0  0  0  0  0
   12.0637  -15.8207   23.3568 N   0  0  0  0  0  0  0  0  0  0  0  0
   14.2098  -16.8322   23.4816 C   0  0  0  0  0  0  0  0  0  0  0  0
   15.2153  -16.5314   24.1680 O   0  0  0  0  0  0  0  0  0  0  0  0
   14.4803  -17.0877   22.1232 O   0  0  0  0  0  0  0  0  0  0  0  0
  2  1  1  1
  2  3  1  0
  3  4  1  0
  4  9  1  0
  4  5  2  0
  5  6  1  0
  7  6  2  0
  8  7  1  0
  9  8  2  0
 10  2  1  0
 11 10  2  0
 13 12  1  0
 13 23  2  0
 14 13  1  0
 15 14  2  0
 15 16  1  0
 16 22  2  0
 17 16  1  0
 18 19  1  0
 18 17  1  1
 19 10  1  0
 20 18  1  0
 21 20  2  0
 22 23  1  0
 24 25  1  0
 25 26  2  0
 28 27  1  6
 27 25  1  0
 28 29  1  0
 29 20  1  0
 30 32  1  0
 30 28  1  0
 31 30  2  0
M  END
$$$$
