FYN.pdb
     RDKit          3D

 32 33  0  0  1  0  0  0  0  0999 V2000
    7.0802  -17.5337   26.2019 N   0  0  0  0  0  0  0  0  0  0  0  0
    6.6044  -16.9662   24.9793 C   0  0  1  0  0  0  0  0  0  0  0  0
    5.7594  -15.7266   25.2039 C   0  0  0  0  0  0  0  0  0  0  0  0
    6.5357  -14.7234   25.9766 C   0  0  0  0  0  0  0  0  0  0  0  0
    7.6501  -15.0728   26.7110 C   0  0  0  0  0  0  0  0  0  0  0  0
    8.3634  -14.1577   27.4174 C   0  0  0  0  0  0  0  0  0  0  0  0
    7.9865  -12.8331   27.4193 C   0  0  0  0  0  0  0  0  0  0  0  0
    6.8906  -12.4473   26.7057 C   0  0  0  0  0  0  0  0  0  0  0  0
    6.1741  -13.3809   25.9933 C   0  0  0  0  0  0  0  0  0  0  0  0
    7.8108  -16.6265   24.1481 C   0  0  0  0  0  0  0  0  0  0  0  0
    8.7183  -17.4963   24.0938 O   0  0  0  0  0  0  0  0  0  0  0  0
    7.3542  -13.5188   16.4145 O   0  0  0  0  0  0  0  0  0  0  0  0
    7.6917  -13.5889   17.7645 C   0  0  0  0  0  0  0  0  0  0  0  0
    8.7596  -14.3397   18.1653 C   0  0  0  0  0  0  0  0  0  0  0  0
    9.0985  -14.4163   19.4792 C   0  0  0  0  0  0  0  0  0  0  0  0
    8.3986  -13.7497   20.4966 C   0  0  0  0  0  0  0  0  0  0  0  0
    8.7243  -13.8612   21.8956 C   0  0  0  0  0  0  0  0  0  0  0  0
    9.0441  -15.1559   22.5105 C   0  0  2  0  0  0  0  0  0  0  0  0
    7.9271  -15.4024   23.4630 N   0  0  0  0  0  0  0  0  0  0  0  0
   10.2749  -15.2064   23.3023 C   0  0  0  0  0  0  0  0  0  0  0  0
   10.2765  -14.8273   24.5140 O   0  0  0  0  0  0  0  0  0  0  0  0
    7.3267  -12.9976   20.0776 C   0  0  0  0  0  0  0  0  0  0  0  0
    6.9710  -12.9138   18.7264 C   0  0  0  0  0  0  0  0  0  0  0  0
   12.9051  -19.9527   24.3298 N   0  0  0  0  0  0  0  0  0  0  0  0
   12.5782  -18.6097   24.7570 C   0  0  0  0  0  0  0  0  0  0  0  0
   13.0546  -18.2149   25.8269 O   0  0  0  0  0  0  0  0  0  0  0  0
   11.7158  -17.7790   23.9319 C   0  0  0  0  0  0  0  0  0  0  0  0
   12.4035  -16.4574   23.6136 C   0  0  2  0  0  0  0  0  0  0  0  0
   11.4865  -15.6882   22.7316 N   0  0  0  0  0  0  0  0  0  0  0  0
   13.6030  -16.7639   22.8173 C   0  0  0  0  0  0  0  0  0  0  0  0
   13.6140  -17.3200   21.6933 O   0  0  0  0  0  0  0  0  0  0  0  0
   14.8748  -16.4208   23.3158 O   0  0  0  0  0  0  0  0  0  0  0  0
  2  1  1  1
  2  3  1  0
  3  4  1  0
  4  9  1  0
  4  5  2  0
  5  6  1  0
  7  6  2  0
  8  7  1  0
  9  8  2  0
 10  2  1  0
 11 10  2  0
 13 12  1  0
 13 23  2  0
 14 13  1  0
 15 14  2  0
 15 16  1  0
 16 22  2  0
 17 16  1  0
 18 19  1  0
 18 17  1  1
 19 10  1  0
 20 18  1  0
 21 20  2  0
 22 23  1  0
 24 25  1  0
 25 26  2  0
 28 27  1  6
 27 25  1  0
 28 29  1  0
 29 20  1  0
 30 32  1  0
 30 28  1  0
 31 30  2  0
M  END
$$$$
