GDK.pdb
     RDKit          3D

 22 21  0  0  1  0  0  0  0  0999 V2000
   11.8186   -8.3368   -7.8215 N   0  0  0  0  0  0  0  0  0  0  0  0
   13.0471   -7.8491   -7.2736 C   0  0  0  0  0  0  0  0  0  0  0  0
   13.8827   -7.2940   -8.3504 C   0  0  0  0  0  0  0  0  0  0  0  0
   13.4221   -7.2105   -9.5207 O   0  0  0  0  0  0  0  0  0  0  0  0
   15.2157   -6.8377   -8.1244 N   0  0  0  0  0  0  0  0  0  0  0  0
   15.9522   -6.2301   -9.2061 C   0  0  1  0  0  0  0  0  0  0  0  0
   16.7879   -5.0594   -8.6799 C   0  0  0  0  0  0  0  0  0  0  0  0
   15.9369   -3.8664   -8.5340 C   0  0  0  0  0  0  0  0  0  0  0  0
   14.7869   -3.8036   -9.0441 O   0  0  0  0  0  0  0  0  0  0  0  0
   16.8709   -7.2285   -9.7960 C   0  0  0  0  0  0  0  0  0  0  0  0
   17.8028   -7.6872   -9.1226 O   0  0  0  0  0  0  0  0  0  0  0  0
   16.3935   -2.7684   -7.8188 O   0  0  0  0  0  0  0  0  0  0  0  0
   16.7011   -7.6683  -11.1200 N   0  0  0  0  0  0  0  0  0  0  0  0
   17.4959   -8.6579  -11.7791 C   0  0  1  0  0  0  0  0  0  0  0  0
   16.6877   -9.7597  -12.3930 C   0  0  0  0  0  0  0  0  0  0  0  0
   17.3073  -11.1025  -12.3503 C   0  0  0  0  0  0  0  0  0  0  0  0
   16.4627  -12.2054  -12.9216 C   0  0  0  0  0  0  0  0  0  0  0  0
   17.2494  -13.5069  -12.7751 C   0  0  0  0  0  0  0  0  0  0  0  0
   16.4485  -14.6140  -13.2734 N   0  0  0  0  0  0  0  0  0  0  0  0
   18.3320   -7.9640  -12.7856 C   0  0  0  0  0  0  0  0  0  0  0  0
   18.0485   -6.6795  -13.2360 O   0  0  0  0  0  0  0  0  0  0  0  0
   19.3474   -8.5461  -13.2663 O   0  0  0  0  0  0  0  0  0  0  0  0
  2  1  1  0
  3  2  1  0
  4  3  2  0
  5  3  1  0
  6  5  1  0
  6 10  1  0
  6  7  1  1
  8  7  1  0
  8  9  2  0
 10 11  2  0
 12  8  1  0
 13 10  1  0
 13 14  1  0
 14 15  1  6
 15 16  1  0
 16 17  1  0
 17 18  1  0
 18 19  1  0
 20 21  1  0
 20 14  1  0
 22 20  2  0
M  END
$$$$
