GDK.pdb
     RDKit          3D

 22 21  0  0  1  0  0  0  0  0999 V2000
   18.9874  -11.7902  -17.5562 N   0  0  0  0  0  0  0  0  0  0  0  0
   19.2666  -11.9777  -16.1655 C   0  0  0  0  0  0  0  0  0  0  0  0
   18.6207  -10.9113  -15.3835 C   0  0  0  0  0  0  0  0  0  0  0  0
   18.7450  -10.8915  -14.1294 O   0  0  0  0  0  0  0  0  0  0  0  0
   17.8456   -9.8798  -15.9931 N   0  0  0  0  0  0  0  0  0  0  0  0
   17.2940   -8.8272  -15.1749 C   0  0  1  0  0  0  0  0  0  0  0  0
   17.5516   -7.4656  -15.8271 C   0  0  0  0  0  0  0  0  0  0  0  0
   18.9188   -7.0154  -15.5158 C   0  0  0  0  0  0  0  0  0  0  0  0
   19.2668   -6.7063  -14.3454 O   0  0  0  0  0  0  0  0  0  0  0  0
   15.8315   -9.0150  -15.0539 C   0  0  0  0  0  0  0  0  0  0  0  0
   15.1624   -9.3272  -16.0476 O   0  0  0  0  0  0  0  0  0  0  0  0
   19.8676   -6.9213  -16.5241 O   0  0  0  0  0  0  0  0  0  0  0  0
   15.1840   -8.8434  -13.8184 N   0  0  0  0  0  0  0  0  0  0  0  0
   13.7913   -9.0528  -13.5698 C   0  0  1  0  0  0  0  0  0  0  0  0
   13.5091  -10.2749  -12.7507 C   0  0  0  0  0  0  0  0  0  0  0  0
   12.0793  -10.5446  -12.4827 C   0  0  0  0  0  0  0  0  0  0  0  0
   11.8095  -11.7988  -11.7013 C   0  0  0  0  0  0  0  0  0  0  0  0
   10.2933  -11.9626  -11.6083 C   0  0  0  0  0  0  0  0  0  0  0  0
    9.9834  -13.1806  -10.8761 N   0  0  0  0  0  0  0  0  0  0  0  0
   13.2611   -7.8276  -12.9284 C   0  0  0  0  0  0  0  0  0  0  0  0
   11.9188   -7.4710  -12.9922 O   0  0  0  0  0  0  0  0  0  0  0  0
   14.0443   -7.0629  -12.2936 O   0  0  0  0  0  0  0  0  0  0  0  0
  2  1  1  0
  3  2  1  0
  4  3  2  0
  5  3  1  0
  6  5  1  0
  6 10  1  0
  6  7  1  6
  8  7  1  0
  8  9  2  0
 10 11  2  0
 12  8  1  0
 13 10  1  0
 13 14  1  0
 14 15  1  1
 15 16  1  0
 16 17  1  0
 17 18  1  0
 18 19  1  0
 20 21  1  0
 20 14  1  0
 22 20  2  0
M  END
$$$$
