GDK.pdb
     RDKit          3D

 22 21  0  0  1  0  0  0  0  0999 V2000
   25.2927  -22.2154  -14.4923 N   0  0  0  0  0  0  0  0  0  0  0  0
   24.4185  -21.6488  -13.5117 C   0  0  0  0  0  0  0  0  0  0  0  0
   23.2038  -21.1389  -14.1679 C   0  0  0  0  0  0  0  0  0  0  0  0
   23.0865  -21.2224  -15.4200 O   0  0  0  0  0  0  0  0  0  0  0  0
   22.1333  -20.5432  -13.4361 N   0  0  0  0  0  0  0  0  0  0  0  0
   20.9501  -20.1061  -14.1366 C   0  0  1  0  0  0  0  0  0  0  0  0
   19.7234  -20.2396  -13.2293 C   0  0  0  0  0  0  0  0  0  0  0  0
   19.4576  -21.6625  -12.9581 C   0  0  0  0  0  0  0  0  0  0  0  0
   19.4660  -22.1294  -11.7882 O   0  0  0  0  0  0  0  0  0  0  0  0
   21.0988  -18.6823  -14.5101 C   0  0  0  0  0  0  0  0  0  0  0  0
   21.4405  -17.8507  -13.6590 O   0  0  0  0  0  0  0  0  0  0  0  0
   19.1878  -22.5325  -14.0050 O   0  0  0  0  0  0  0  0  0  0  0  0
   20.8562  -18.2549  -15.8267 N   0  0  0  0  0  0  0  0  0  0  0  0
   21.0342  -16.9238  -16.3183 C   0  0  1  0  0  0  0  0  0  0  0  0
   21.4535  -16.8700  -17.7554 C   0  0  0  0  0  0  0  0  0  0  0  0
   21.6736  -15.5134  -18.3033 C   0  0  0  0  0  0  0  0  0  0  0  0
   22.0218  -15.4717  -19.7638 C   0  0  0  0  0  0  0  0  0  0  0  0
   22.3184  -14.0164  -20.1221 C   0  0  0  0  0  0  0  0  0  0  0  0
   22.8042  -13.9456  -21.4913 N   0  0  0  0  0  0  0  0  0  0  0  0
   19.7697  -16.1878  -16.0874 C   0  0  0  0  0  0  0  0  0  0  0  0
   18.5432  -16.8300  -15.9600 O   0  0  0  0  0  0  0  0  0  0  0  0
   19.7857  -14.9256  -16.0002 O   0  0  0  0  0  0  0  0  0  0  0  0
  2  1  1  0
  3  2  1  0
  4  3  2  0
  5  3  1  0
  6  5  1  0
  6 10  1  0
  6  7  1  1
  8  7  1  0
  8  9  2  0
 10 11  2  0
 12  8  1  0
 13 10  1  0
 13 14  1  0
 14 15  1  6
 15 16  1  0
 16 17  1  0
 17 18  1  0
 18 19  1  0
 20 21  1  0
 20 14  1  0
 22 20  2  0
M  END
$$$$
