GDK.pdb
     RDKit          3D

 22 21  0  0  1  0  0  0  0  0999 V2000
   18.6401  -12.9034  -16.8886 N   0  0  0  0  0  0  0  0  0  0  0  0
   18.4505  -11.9109  -15.8756 C   0  0  0  0  0  0  0  0  0  0  0  0
   19.1654  -10.6801  -16.2495 C   0  0  0  0  0  0  0  0  0  0  0  0
   20.0759  -10.7246  -17.1199 O   0  0  0  0  0  0  0  0  0  0  0  0
   18.8682   -9.4152  -15.6595 N   0  0  0  0  0  0  0  0  0  0  0  0
   19.5893   -8.2424  -16.0911 C   0  0  1  0  0  0  0  0  0  0  0  0
   18.8976   -6.9792  -15.5697 C   0  0  0  0  0  0  0  0  0  0  0  0
   17.5949   -6.8140  -16.2364 C   0  0  0  0  0  0  0  0  0  0  0  0
   16.5144   -6.7955  -15.5893 O   0  0  0  0  0  0  0  0  0  0  0  0
   20.9624   -8.2805  -15.5415 C   0  0  0  0  0  0  0  0  0  0  0  0
   21.1427   -8.5197  -14.3403 O   0  0  0  0  0  0  0  0  0  0  0  0
   17.5311   -6.6731  -17.6154 O   0  0  0  0  0  0  0  0  0  0  0  0
   22.0748   -8.0478  -16.3682 N   0  0  0  0  0  0  0  0  0  0  0  0
   23.4448   -8.1897  -15.9834 C   0  0  1  0  0  0  0  0  0  0  0  0
   24.0611   -9.4776  -16.4367 C   0  0  0  0  0  0  0  0  0  0  0  0
   25.4830   -9.6649  -16.0732 C   0  0  0  0  0  0  0  0  0  0  0  0
   26.1018  -10.9359  -16.5808 C   0  0  0  0  0  0  0  0  0  0  0  0
   27.4979  -11.0412  -15.9690 C   0  0  0  0  0  0  0  0  0  0  0  0
   28.1164  -12.2887  -16.3893 N   0  0  0  0  0  0  0  0  0  0  0  0
   24.1810   -7.0152  -16.5052 C   0  0  0  0  0  0  0  0  0  0  0  0
   25.3726   -6.5698  -15.9441 O   0  0  0  0  0  0  0  0  0  0  0  0
   23.7239   -6.3792  -17.4990 O   0  0  0  0  0  0  0  0  0  0  0  0
  2  1  1  0
  3  2  1  0
  4  3  2  0
  5  3  1  0
  6  5  1  0
  6 10  1  0
  6  7  1  1
  8  7  1  0
  8  9  2  0
 10 11  2  0
 12  8  1  0
 13 10  1  0
 13 14  1  0
 14 15  1  6
 15 16  1  0
 16 17  1  0
 17 18  1  0
 18 19  1  0
 20 21  1  0
 20 14  1  0
 22 20  2  0
M  END
$$$$
