GDK.pdb
     RDKit          3D

 22 21  0  0  1  0  0  0  0  0999 V2000
   25.5306  -24.1484  -14.4907 N   0  0  0  0  0  0  0  0  0  0  0  0
   25.7839  -22.7912  -14.8659 C   0  0  0  0  0  0  0  0  0  0  0  0
   24.6090  -21.9633  -14.5492 C   0  0  0  0  0  0  0  0  0  0  0  0
   24.2346  -21.8393  -13.3522 O   0  0  0  0  0  0  0  0  0  0  0  0
   23.8611  -21.2823  -15.5558 N   0  0  0  0  0  0  0  0  0  0  0  0
   22.7914  -20.3949  -15.1685 C   0  0  1  0  0  0  0  0  0  0  0  0
   22.5709  -19.3343  -16.2512 C   0  0  0  0  0  0  0  0  0  0  0  0
   21.4938  -18.4186  -15.8388 C   0  0  0  0  0  0  0  0  0  0  0  0
   20.5354  -18.1318  -16.6042 O   0  0  0  0  0  0  0  0  0  0  0  0
   21.5408  -21.1707  -15.0167 C   0  0  0  0  0  0  0  0  0  0  0  0
   21.2266  -22.0126  -15.8682 O   0  0  0  0  0  0  0  0  0  0  0  0
   21.5141  -17.8433  -14.5761 O   0  0  0  0  0  0  0  0  0  0  0  0
   20.6967  -20.9656  -13.9120 N   0  0  0  0  0  0  0  0  0  0  0  0
   19.5096  -21.7076  -13.6196 C   0  0  1  0  0  0  0  0  0  0  0  0
   19.4937  -22.2870  -12.2382 C   0  0  0  0  0  0  0  0  0  0  0  0
   18.6251  -23.4706  -12.0550 C   0  0  0  0  0  0  0  0  0  0  0  0
   18.7205  -24.1200  -10.7040 C   0  0  0  0  0  0  0  0  0  0  0  0
   17.7979  -25.3379  -10.7156 C   0  0  0  0  0  0  0  0  0  0  0  0
   17.8905  -26.0259   -9.4375 N   0  0  0  0  0  0  0  0  0  0  0  0
   18.3526  -20.8127  -13.8529 C   0  0  0  0  0  0  0  0  0  0  0  0
   17.9540  -20.4224  -15.1264 O   0  0  0  0  0  0  0  0  0  0  0  0
   17.6891  -20.3759  -12.8681 O   0  0  0  0  0  0  0  0  0  0  0  0
  2  1  1  0
  3  2  1  0
  4  3  2  0
  5  3  1  0
  6  5  1  0
  6 10  1  0
  6  7  1  6
  8  7  1  0
  8  9  2  0
 10 11  2  0
 12  8  1  0
 13 10  1  0
 13 14  1  0
 14 15  1  1
 15 16  1  0
 16 17  1  0
 17 18  1  0
 18 19  1  0
 20 21  1  0
 20 14  1  0
 22 20  2  0
M  END
$$$$
