GDK.pdb
     RDKit          3D

 22 21  0  0  1  0  0  0  0  0999 V2000
   15.5611  -10.5688  -14.8419 N   0  0  0  0  0  0  0  0  0  0  0  0
   16.9600  -10.8155  -14.6708 C   0  0  0  0  0  0  0  0  0  0  0  0
   17.4617  -10.0422  -13.5235 C   0  0  0  0  0  0  0  0  0  0  0  0
   17.4782  -10.5634  -12.3761 O   0  0  0  0  0  0  0  0  0  0  0  0
   17.9390   -8.7038  -13.6548 N   0  0  0  0  0  0  0  0  0  0  0  0
   18.3288   -7.9692  -12.4758 C   0  0  1  0  0  0  0  0  0  0  0  0
   19.3149   -6.8589  -12.8510 C   0  0  0  0  0  0  0  0  0  0  0  0
   20.5780   -7.4531  -13.3204 C   0  0  0  0  0  0  0  0  0  0  0  0
   21.3035   -8.1545  -12.5665 O   0  0  0  0  0  0  0  0  0  0  0  0
   17.1330   -7.3431  -11.8701 C   0  0  0  0  0  0  0  0  0  0  0  0
   16.3135   -6.7519  -12.5852 O   0  0  0  0  0  0  0  0  0  0  0  0
   21.0015   -7.2480  -14.6259 O   0  0  0  0  0  0  0  0  0  0  0  0
   16.9105   -7.4093  -10.4840 N   0  0  0  0  0  0  0  0  0  0  0  0
   15.7912   -6.8509   -9.7908 C   0  0  1  0  0  0  0  0  0  0  0  0
   14.8500   -7.8828   -9.2491 C   0  0  0  0  0  0  0  0  0  0  0  0
   13.6380   -7.3528   -8.5865 C   0  0  0  0  0  0  0  0  0  0  0  0
   12.7034   -8.3993   -8.0503 C   0  0  0  0  0  0  0  0  0  0  0  0
   11.5120   -7.6731   -7.4279 C   0  0  0  0  0  0  0  0  0  0  0  0
   10.5752   -8.6502   -6.8958 N   0  0  0  0  0  0  0  0  0  0  0  0
   16.3189   -5.9735   -8.7205 C   0  0  0  0  0  0  0  0  0  0  0  0
   15.6415   -4.8427   -8.2785 O   0  0  0  0  0  0  0  0  0  0  0  0
   17.4276   -6.2467   -8.1753 O   0  0  0  0  0  0  0  0  0  0  0  0
  2  1  1  0
  3  2  1  0
  4  3  2  0
  5  3  1  0
  6  5  1  0
  6 10  1  0
  6  7  1  6
  8  7  1  0
  8  9  2  0
 10 11  2  0
 12  8  1  0
 13 10  1  0
 13 14  1  0
 14 15  1  1
 15 16  1  0
 16 17  1  0
 17 18  1  0
 18 19  1  0
 20 21  1  0
 20 14  1  0
 22 20  2  0
M  END
$$$$
