GDK.pdb
     RDKit          3D

 22 21  0  0  1  0  0  0  0  0999 V2000
   14.5195   -0.5886   -6.0401 N   0  0  0  0  0  0  0  0  0  0  0  0
   14.3398   -2.0078   -6.0665 C   0  0  0  0  0  0  0  0  0  0  0  0
   14.6304   -2.5178   -7.4161 C   0  0  0  0  0  0  0  0  0  0  0  0
   13.6848   -2.7348   -8.2206 O   0  0  0  0  0  0  0  0  0  0  0  0
   15.9597   -2.7825   -7.8626 N   0  0  0  0  0  0  0  0  0  0  0  0
   16.1792   -3.2283   -9.2171 C   0  0  1  0  0  0  0  0  0  0  0  0
   17.5300   -2.7164   -9.7260 C   0  0  0  0  0  0  0  0  0  0  0  0
   17.6448   -2.9685  -11.1724 C   0  0  0  0  0  0  0  0  0  0  0  0
   18.0818   -4.0600  -11.6244 O   0  0  0  0  0  0  0  0  0  0  0  0
   16.2009   -4.7073   -9.2495 C   0  0  0  0  0  0  0  0  0  0  0  0
   16.8747   -5.3355   -8.4226 O   0  0  0  0  0  0  0  0  0  0  0  0
   17.2670   -1.9910  -12.0820 O   0  0  0  0  0  0  0  0  0  0  0  0
   15.4625   -5.4166  -10.2122 N   0  0  0  0  0  0  0  0  0  0  0  0
   15.3924   -6.8403  -10.3278 C   0  0  1  0  0  0  0  0  0  0  0  0
   14.0686   -7.4075   -9.9157 C   0  0  0  0  0  0  0  0  0  0  0  0
   13.9527   -8.8799  -10.0027 C   0  0  0  0  0  0  0  0  0  0  0  0
   12.6252   -9.4348   -9.5715 C   0  0  0  0  0  0  0  0  0  0  0  0
   12.7260  -10.9583   -9.6281 C   0  0  0  0  0  0  0  0  0  0  0  0
   11.4286  -11.5398   -9.3215 N   0  0  0  0  0  0  0  0  0  0  0  0
   15.7297   -7.1937  -11.7261 C   0  0  0  0  0  0  0  0  0  0  0  0
   16.4359   -8.3446  -12.0570 O   0  0  0  0  0  0  0  0  0  0  0  0
   15.3704   -6.4312  -12.6698 O   0  0  0  0  0  0  0  0  0  0  0  0
  2  1  1  0
  3  2  1  0
  4  3  2  0
  5  3  1  0
  6  5  1  0
  6 10  1  0
  6  7  1  1
  8  7  1  0
  8  9  2  0
 10 11  2  0
 12  8  1  0
 13 10  1  0
 13 14  1  0
 14 15  1  6
 15 16  1  0
 16 17  1  0
 17 18  1  0
 18 19  1  0
 20 21  1  0
 20 14  1  0
 22 20  2  0
M  END
$$$$
