GDK.pdb
     RDKit          3D

 22 21  0  0  1  0  0  0  0  0999 V2000
   12.0138  -11.2257   -9.9826 N   0  0  0  0  0  0  0  0  0  0  0  0
   12.9981  -10.7498   -9.0597 C   0  0  0  0  0  0  0  0  0  0  0  0
   13.6002   -9.5097   -9.5750 C   0  0  0  0  0  0  0  0  0  0  0  0
   13.0368   -8.8822  -10.5116 O   0  0  0  0  0  0  0  0  0  0  0  0
   14.8159   -8.9763   -9.0516 N   0  0  0  0  0  0  0  0  0  0  0  0
   15.3710   -7.7752   -9.6268 C   0  0  1  0  0  0  0  0  0  0  0  0
   15.8000   -6.8111   -8.5168 C   0  0  0  0  0  0  0  0  0  0  0  0
   16.2827   -5.5525   -9.1099 C   0  0  0  0  0  0  0  0  0  0  0  0
   16.2714   -5.3565  -10.3541 O   0  0  0  0  0  0  0  0  0  0  0  0
   16.5654   -8.1216  -10.4284 C   0  0  0  0  0  0  0  0  0  0  0  0
   17.5338   -8.6742   -9.8905 O   0  0  0  0  0  0  0  0  0  0  0  0
   16.7683   -4.5397   -8.2950 O   0  0  0  0  0  0  0  0  0  0  0  0
   16.6187   -7.8308  -11.8023 N   0  0  0  0  0  0  0  0  0  0  0  0
   17.6606   -8.2251  -12.6990 C   0  0  1  0  0  0  0  0  0  0  0  0
   17.1749   -9.0494  -13.8517 C   0  0  0  0  0  0  0  0  0  0  0  0
   18.1945   -9.3796  -14.8717 C   0  0  0  0  0  0  0  0  0  0  0  0
   17.6657  -10.0882  -16.0860 C   0  0  0  0  0  0  0  0  0  0  0  0
   18.8339  -10.2720  -17.0534 C   0  0  0  0  0  0  0  0  0  0  0  0
   18.3631  -10.9372  -18.2581 N   0  0  0  0  0  0  0  0  0  0  0  0
   18.3490   -6.9955  -13.1550 C   0  0  0  0  0  0  0  0  0  0  0  0
   17.6625   -5.8311  -13.4802 O   0  0  0  0  0  0  0  0  0  0  0  0
   19.6099   -6.9847  -13.2593 O   0  0  0  0  0  0  0  0  0  0  0  0
  2  1  1  0
  3  2  1  0
  4  3  2  0
  5  3  1  0
  6  5  1  0
  6 10  1  0
  6  7  1  1
  8  7  1  0
  8  9  2  0
 10 11  2  0
 12  8  1  0
 13 10  1  0
 13 14  1  0
 14 15  1  6
 15 16  1  0
 16 17  1  0
 17 18  1  0
 18 19  1  0
 20 21  1  0
 20 14  1  0
 22 20  2  0
M  END
$$$$
