CHG.pdb
     RDKit          3D

 21 21  0  0  1  0  0  0  0  0999 V2000
    8.1225  -13.4830   17.2894 N   0  0  0  0  0  0  0  0  0  0  0  0
    8.5695  -13.4424   18.6760 C   0  0  1  0  0  0  0  0  0  0  0  0
    7.3738  -13.4928   19.5866 C   0  0  0  0  0  0  0  0  0  0  0  0
    7.9906  -13.4469   21.2982 S   0  0  0  0  0  0  0  0  0  0  0  0
    9.5473  -14.5121   18.9298 C   0  0  0  0  0  0  0  0  0  0  0  0
    9.4416  -15.6176   18.2957 O   0  0  0  0  0  0  0  0  0  0  0  0
   10.5898  -14.3034   19.8707 N   0  0  0  0  0  0  0  0  0  0  0  0
   11.5913  -15.3123   20.1397 C   0  0  1  0  0  0  0  0  0  0  0  0
   12.9651  -14.7637   20.0861 C   0  0  0  0  0  0  0  0  0  0  0  0
   13.6324  -14.7337   18.7889 C   0  0  0  0  0  0  0  0  0  0  0  0
   13.3380  -15.4001   17.6234 C   0  0  0  0  0  0  0  0  0  0  0  0
   14.2411  -15.0843   16.6443 N   0  0  0  0  0  0  0  0  0  0  0  0
   15.0817  -14.2210   17.2336 C   0  0  0  0  0  0  0  0  0  0  0  0
   14.7499  -13.9957   18.4928 N   0  0  0  0  0  0  0  0  0  0  0  0
   11.3847  -15.7505   21.5740 C   0  0  0  0  0  0  0  0  0  0  0  0
   11.1815  -14.8656   22.4310 O   0  0  0  0  0  0  0  0  0  0  0  0
   11.4128  -17.0969   21.9702 N   0  0  0  0  0  0  0  0  0  0  0  0
   11.1059  -17.5757   23.2878 C   0  0  0  0  0  0  0  0  0  0  0  0
   12.3164  -17.7240   24.1343 C   0  0  0  0  0  0  0  0  0  0  0  0
   12.3513  -17.5072   25.4976 O   0  0  0  0  0  0  0  0  0  0  0  0
   13.3791  -18.0707   23.5668 O   0  0  0  0  0  0  0  0  0  0  0  0
  2  1  1  6
  3  4  1  0
  3  2  1  0
  5  6  2  0
  5  2  1  0
  7  5  1  0
  8 15  1  0
  8  7  1  0
  8  9  1  1
 10  9  1  0
 11 10  2  0
 12 11  1  0
 13 12  1  0
 13 14  2  0
 14 10  1  0
 15 17  1  0
 16 15  2  0
 17 18  1  0
 18 19  1  0
 19 20  1  0
 21 19  2  0
M  END
$$$$
