CHG.pdb
     RDKit          3D

 21 21  0  0  1  0  0  0  0  0999 V2000
    7.2568  -19.3965   21.2820 N   0  0  0  0  0  0  0  0  0  0  0  0
    8.0786  -18.6224   22.2037 C   0  0  1  0  0  0  0  0  0  0  0  0
    8.6373  -19.5354   23.2601 C   0  0  0  0  0  0  0  0  0  0  0  0
    7.4028  -19.6456   24.5928 S   0  0  0  0  0  0  0  0  0  0  0  0
    9.1100  -17.8761   21.4662 C   0  0  0  0  0  0  0  0  0  0  0  0
    9.7307  -18.4511   20.5072 O   0  0  0  0  0  0  0  0  0  0  0  0
    9.4008  -16.5343   21.8276 N   0  0  0  0  0  0  0  0  0  0  0  0
   10.3671  -15.7385   21.1020 C   0  0  1  0  0  0  0  0  0  0  0  0
    9.8801  -14.3640   20.8475 C   0  0  0  0  0  0  0  0  0  0  0  0
    8.8037  -14.1956   19.8769 C   0  0  0  0  0  0  0  0  0  0  0  0
    8.1990  -15.1149   19.0533 C   0  0  0  0  0  0  0  0  0  0  0  0
    7.2340  -14.5175   18.2879 N   0  0  0  0  0  0  0  0  0  0  0  0
    7.2650  -13.2292   18.6601 C   0  0  0  0  0  0  0  0  0  0  0  0
    8.1766  -13.0097   19.5914 N   0  0  0  0  0  0  0  0  0  0  0  0
   11.5657  -15.5824   22.0136 C   0  0  0  0  0  0  0  0  0  0  0  0
   12.5298  -14.9061   21.5990 O   0  0  0  0  0  0  0  0  0  0  0  0
   11.6318  -16.1623   23.2903 N   0  0  0  0  0  0  0  0  0  0  0  0
   12.7556  -16.0757   24.1785 C   0  0  0  0  0  0  0  0  0  0  0  0
   13.8265  -17.0448   23.8354 C   0  0  0  0  0  0  0  0  0  0  0  0
   15.0974  -16.6957   23.4230 O   0  0  0  0  0  0  0  0  0  0  0  0
   13.5530  -18.2647   23.9281 O   0  0  0  0  0  0  0  0  0  0  0  0
  2  1  1  6
  3  4  1  0
  3  2  1  0
  5  6  2  0
  5  2  1  0
  7  5  1  0
  8 15  1  0
  8  7  1  0
  8  9  1  1
 10  9  1  0
 11 10  2  0
 12 11  1  0
 13 12  1  0
 13 14  2  0
 14 10  1  0
 15 17  1  0
 16 15  2  0
 17 18  1  0
 18 19  1  0
 19 20  1  0
 21 19  2  0
M  END
$$$$
