CHG.pdb
     RDKit          3D

 21 21  0  0  1  0  0  0  0  0999 V2000
    7.2566  -15.2081   18.4262 N   0  0  0  0  0  0  0  0  0  0  0  0
    7.9203  -14.6163   19.5809 C   0  0  1  0  0  0  0  0  0  0  0  0
    8.0474  -13.1319   19.3760 C   0  0  0  0  0  0  0  0  0  0  0  0
    8.9196  -12.4553   20.8229 S   0  0  0  0  0  0  0  0  0  0  0  0
    7.2140  -14.9806   20.8191 C   0  0  0  0  0  0  0  0  0  0  0  0
    5.9623  -14.7383   20.9181 O   0  0  0  0  0  0  0  0  0  0  0  0
    7.9284  -15.5931   21.8822 N   0  0  0  0  0  0  0  0  0  0  0  0
    7.2664  -16.0565   23.0823 C   0  0  1  0  0  0  0  0  0  0  0  0
    6.7947  -17.4538   22.9559 C   0  0  0  0  0  0  0  0  0  0  0  0
    5.6237  -17.7006   22.1210 C   0  0  0  0  0  0  0  0  0  0  0  0
    4.8081  -16.8190   21.4527 C   0  0  0  0  0  0  0  0  0  0  0  0
    3.8105  -17.4867   20.7948 N   0  0  0  0  0  0  0  0  0  0  0  0
    4.0348  -18.7791   21.0749 C   0  0  0  0  0  0  0  0  0  0  0  0
    5.0925  -18.9360   21.8516 N   0  0  0  0  0  0  0  0  0  0  0  0
    8.3181  -16.0798   24.1710 C   0  0  0  0  0  0  0  0  0  0  0  0
    9.5031  -16.2816   23.8333 O   0  0  0  0  0  0  0  0  0  0  0  0
    8.0140  -15.8855   25.5276 N   0  0  0  0  0  0  0  0  0  0  0  0
    8.9812  -15.7724   26.5818 C   0  0  0  0  0  0  0  0  0  0  0  0
    9.4322  -17.0950   27.0829 C   0  0  0  0  0  0  0  0  0  0  0  0
   10.2583  -17.2801   28.1738 O   0  0  0  0  0  0  0  0  0  0  0  0
    9.0323  -18.1122   26.4691 O   0  0  0  0  0  0  0  0  0  0  0  0
  2  1  1  6
  3  4  1  0
  3  2  1  0
  5  6  2  0
  5  2  1  0
  7  5  1  0
  8 15  1  0
  8  7  1  0
  8  9  1  6
 10  9  1  0
 11 10  2  0
 12 11  1  0
 13 12  1  0
 13 14  2  0
 14 10  1  0
 15 17  1  0
 16 15  2  0
 17 18  1  0
 18 19  1  0
 19 20  1  0
 21 19  2  0
M  END
$$$$
