CHG.pdb
     RDKit          3D

 21 21  0  0  1  0  0  0  0  0999 V2000
   15.0588  -13.7880   17.2995 N   0  0  0  0  0  0  0  0  0  0  0  0
   14.0444  -14.8280   17.4161 C   0  0  1  0  0  0  0  0  0  0  0  0
   14.6645  -16.1647   17.1160 C   0  0  0  0  0  0  0  0  0  0  0  0
   15.5302  -16.7133   18.6199 S   0  0  0  0  0  0  0  0  0  0  0  0
   13.3952  -14.7638   18.7349 C   0  0  0  0  0  0  0  0  0  0  0  0
   13.9874  -14.1588   19.6933 O   0  0  0  0  0  0  0  0  0  0  0  0
   12.1262  -15.3715   18.9245 N   0  0  0  0  0  0  0  0  0  0  0  0
   11.4310  -15.3124   20.1920 C   0  0  1  0  0  0  0  0  0  0  0  0
    9.9673  -15.4667   20.0338 C   0  0  0  0  0  0  0  0  0  0  0  0
    9.2208  -14.3338   19.4970 C   0  0  0  0  0  0  0  0  0  0  0  0
    9.6491  -13.0778   19.1388 C   0  0  0  0  0  0  0  0  0  0  0  0
    8.6017  -12.3194   18.6897 N   0  0  0  0  0  0  0  0  0  0  0  0
    7.5390  -13.1327   18.7819 C   0  0  0  0  0  0  0  0  0  0  0  0
    7.8713  -14.3220   19.2527 N   0  0  0  0  0  0  0  0  0  0  0  0
   11.8831  -16.5193   20.9862 C   0  0  0  0  0  0  0  0  0  0  0  0
   11.7257  -17.6471   20.4742 O   0  0  0  0  0  0  0  0  0  0  0  0
   12.4649  -16.4182   22.2597 N   0  0  0  0  0  0  0  0  0  0  0  0
   12.8563  -17.5299   23.0785 C   0  0  0  0  0  0  0  0  0  0  0  0
   13.4710  -17.1024   24.3604 C   0  0  0  0  0  0  0  0  0  0  0  0
   13.7884  -17.9537   25.4003 O   0  0  0  0  0  0  0  0  0  0  0  0
   13.7172  -15.8816   24.5041 O   0  0  0  0  0  0  0  0  0  0  0  0
  2  1  1  1
  3  4  1  0
  3  2  1  0
  5  6  2  0
  5  2  1  0
  7  5  1  0
  8 15  1  0
  8  7  1  0
  8  9  1  6
 10  9  1  0
 11 10  2  0
 12 11  1  0
 13 12  1  0
 13 14  2  0
 14 10  1  0
 15 17  1  0
 16 15  2  0
 17 18  1  0
 18 19  1  0
 19 20  1  0
 21 19  2  0
M  END
$$$$
