CHG.pdb
     RDKit          3D

 21 21  0  0  1  0  0  0  0  0999 V2000
    5.3849  -12.9610   26.3145 N   0  0  0  0  0  0  0  0  0  0  0  0
    6.8016  -12.9414   25.9730 C   0  0  1  0  0  0  0  0  0  0  0  0
    7.6091  -12.6703   27.2124 C   0  0  0  0  0  0  0  0  0  0  0  0
    7.3707  -10.9188   27.6453 S   0  0  0  0  0  0  0  0  0  0  0  0
    7.1794  -14.1861   25.2857 C   0  0  0  0  0  0  0  0  0  0  0  0
    6.5292  -15.2588   25.5349 O   0  0  0  0  0  0  0  0  0  0  0  0
    8.2554  -14.1795   24.3596 N   0  0  0  0  0  0  0  0  0  0  0  0
    8.6458  -15.3672   23.6313 C   0  0  1  0  0  0  0  0  0  0  0  0
    9.2499  -15.0442   22.3191 C   0  0  0  0  0  0  0  0  0  0  0  0
    8.4025  -14.3945   21.3247 C   0  0  0  0  0  0  0  0  0  0  0  0
    7.0464  -14.4837   21.1193 C   0  0  0  0  0  0  0  0  0  0  0  0
    6.6660  -13.7075   20.0578 N   0  0  0  0  0  0  0  0  0  0  0  0
    7.8078  -13.1509   19.6270 C   0  0  0  0  0  0  0  0  0  0  0  0
    8.8443  -13.5354   20.3511 N   0  0  0  0  0  0  0  0  0  0  0  0
    9.7487  -16.0212   24.4362 C   0  0  0  0  0  0  0  0  0  0  0  0
   10.5938  -15.2793   24.9785 O   0  0  0  0  0  0  0  0  0  0  0  0
    9.8543  -17.4122   24.5929 N   0  0  0  0  0  0  0  0  0  0  0  0
   10.7258  -18.0739   25.5216 C   0  0  0  0  0  0  0  0  0  0  0  0
   11.9909  -18.5258   24.8898 C   0  0  0  0  0  0  0  0  0  0  0  0
   13.0006  -19.1978   25.5500 O   0  0  0  0  0  0  0  0  0  0  0  0
   12.1489  -18.2776   23.6713 O   0  0  0  0  0  0  0  0  0  0  0  0
  2  1  1  1
  3  4  1  0
  3  2  1  0
  5  6  2  0
  5  2  1  0
  7  5  1  0
  8 15  1  0
  8  7  1  0
  8  9  1  6
 10  9  1  0
 11 10  2  0
 12 11  1  0
 13 12  1  0
 13 14  2  0
 14 10  1  0
 15 17  1  0
 16 15  2  0
 17 18  1  0
 18 19  1  0
 19 20  1  0
 21 19  2  0
M  END
$$$$
