CHG.pdb
     RDKit          3D

 21 21  0  0  1  0  0  0  0  0999 V2000
    8.5637  -12.8572   18.0930 N   0  0  0  0  0  0  0  0  0  0  0  0
    8.6788  -13.2630   19.4881 C   0  0  1  0  0  0  0  0  0  0  0  0
    7.3044  -13.4772   20.0596 C   0  0  0  0  0  0  0  0  0  0  0  0
    7.5108  -14.0330   21.7803 S   0  0  0  0  0  0  0  0  0  0  0  0
    9.5553  -14.4385   19.6083 C   0  0  0  0  0  0  0  0  0  0  0  0
    9.5718  -15.3037   18.6667 O   0  0  0  0  0  0  0  0  0  0  0  0
   10.3670  -14.5956   20.7624 N   0  0  0  0  0  0  0  0  0  0  0  0
   11.1937  -15.7659   20.9632 C   0  0  1  0  0  0  0  0  0  0  0  0
   12.6354  -15.4624   20.8203 C   0  0  0  0  0  0  0  0  0  0  0  0
   13.1604  -15.2884   19.4701 C   0  0  0  0  0  0  0  0  0  0  0  0
   13.3894  -14.1419   18.7474 C   0  0  0  0  0  0  0  0  0  0  0  0
   13.8813  -14.4429   17.5058 N   0  0  0  0  0  0  0  0  0  0  0  0
   13.9454  -15.7827   17.4897 C   0  0  0  0  0  0  0  0  0  0  0  0
   13.5287  -16.3072   18.6289 N   0  0  0  0  0  0  0  0  0  0  0  0
   11.0072  -16.1805   22.4073 C   0  0  0  0  0  0  0  0  0  0  0  0
   10.9168  -15.2789   23.2662 O   0  0  0  0  0  0  0  0  0  0  0  0
   10.9332  -17.5232   22.8103 N   0  0  0  0  0  0  0  0  0  0  0  0
   10.6683  -17.9694   24.1483 C   0  0  0  0  0  0  0  0  0  0  0  0
   11.8679  -17.8947   25.0197 C   0  0  0  0  0  0  0  0  0  0  0  0
   13.1115  -17.4592   24.6063 O   0  0  0  0  0  0  0  0  0  0  0  0
   11.7377  -18.2532   26.2138 O   0  0  0  0  0  0  0  0  0  0  0  0
  2  1  1  6
  3  4  1  0
  3  2  1  0
  5  6  2  0
  5  2  1  0
  7  5  1  0
  8 15  1  0
  8  7  1  0
  8  9  1  1
 10  9  1  0
 11 10  2  0
 12 11  1  0
 13 12  1  0
 13 14  2  0
 14 10  1  0
 15 17  1  0
 16 15  2  0
 17 18  1  0
 18 19  1  0
 19 20  1  0
 21 19  2  0
M  END
$$$$
