CHG.pdb
     RDKit          3D

 21 21  0  0  1  0  0  0  0  0999 V2000
   -3.3149  -24.3086   21.5099 N   0  0  0  0  0  0  0  0  0  0  0  0
   -4.5619  -24.5864   22.2112 C   0  0  1  0  0  0  0  0  0  0  0  0
   -4.8996  -26.0448   22.0683 C   0  0  0  0  0  0  0  0  0  0  0  0
   -5.7991  -26.2443   20.4989 S   0  0  0  0  0  0  0  0  0  0  0  0
   -4.4733  -24.1377   23.6096 C   0  0  0  0  0  0  0  0  0  0  0  0
   -3.3384  -24.1515   24.1988 O   0  0  0  0  0  0  0  0  0  0  0  0
   -5.6434  -23.6975   24.2825 N   0  0  0  0  0  0  0  0  0  0  0  0
   -5.6047  -23.2050   25.6424 C   0  0  1  0  0  0  0  0  0  0  0  0
   -5.9742  -21.7742   25.7289 C   0  0  0  0  0  0  0  0  0  0  0  0
   -5.0780  -20.8044   25.1083 C   0  0  0  0  0  0  0  0  0  0  0  0
   -3.8613  -20.9854   24.4952 C   0  0  0  0  0  0  0  0  0  0  0  0
   -3.3562  -19.7897   24.0603 N   0  0  0  0  0  0  0  0  0  0  0  0
   -4.2821  -18.8878   24.4188 C   0  0  0  0  0  0  0  0  0  0  0  0
   -5.3045  -19.4537   25.0359 N   0  0  0  0  0  0  0  0  0  0  0  0
   -6.6838  -23.9497   26.3994 C   0  0  0  0  0  0  0  0  0  0  0  0
   -7.8032  -24.0637   25.8584 O   0  0  0  0  0  0  0  0  0  0  0  0
   -6.4746  -24.5089   27.6698 N   0  0  0  0  0  0  0  0  0  0  0  0
   -7.4288  -25.3045   28.3882 C   0  0  0  0  0  0  0  0  0  0  0  0
   -8.1926  -24.5127   29.3849 C   0  0  0  0  0  0  0  0  0  0  0  0
   -8.2989  -24.8311   30.7244 O   0  0  0  0  0  0  0  0  0  0  0  0
   -8.7807  -23.4835   28.9769 O   0  0  0  0  0  0  0  0  0  0  0  0
  2  1  1  1
  3  4  1  0
  3  2  1  0
  5  6  2  0
  5  2  1  0
  7  5  1  0
  8 15  1  0
  8  7  1  0
  8  9  1  6
 10  9  1  0
 11 10  2  0
 12 11  1  0
 13 12  1  0
 13 14  2  0
 14 10  1  0
 15 17  1  0
 16 15  2  0
 17 18  1  0
 18 19  1  0
 19 20  1  0
 21 19  2  0
M  END
$$$$
