CHG.pdb
     RDKit          3D

 21 21  0  0  1  0  0  0  0  0999 V2000
    6.2068  -16.1198   20.3135 N   0  0  0  0  0  0  0  0  0  0  0  0
    7.2921  -15.8197   21.2388 C   0  0  1  0  0  0  0  0  0  0  0  0
    7.3588  -14.3342   21.4635 C   0  0  0  0  0  0  0  0  0  0  0  0
    8.2675  -13.6118   20.0619 S   0  0  0  0  0  0  0  0  0  0  0  0
    7.1360  -16.5955   22.4792 C   0  0  0  0  0  0  0  0  0  0  0  0
    6.1612  -16.3298   23.2631 O   0  0  0  0  0  0  0  0  0  0  0  0
    8.0654  -17.6235   22.7874 N   0  0  0  0  0  0  0  0  0  0  0  0
    7.9374  -18.4403   23.9748 C   0  0  1  0  0  0  0  0  0  0  0  0
    7.5368  -19.8293   23.6566 C   0  0  0  0  0  0  0  0  0  0  0  0
    6.1912  -20.0435   23.1348 C   0  0  0  0  0  0  0  0  0  0  0  0
    5.1696  -19.1495   22.9194 C   0  0  0  0  0  0  0  0  0  0  0  0
    4.0643  -19.7881   22.4251 N   0  0  0  0  0  0  0  0  0  0  0  0
    4.4320  -21.0756   22.3458 C   0  0  0  0  0  0  0  0  0  0  0  0
    5.6753  -21.2565   22.7556 N   0  0  0  0  0  0  0  0  0  0  0  0
    9.3232  -18.5447   24.5753 C   0  0  0  0  0  0  0  0  0  0  0  0
   10.3009  -18.3482   23.8242 O   0  0  0  0  0  0  0  0  0  0  0  0
    9.5459  -18.8502   25.9272 N   0  0  0  0  0  0  0  0  0  0  0  0
   10.8315  -18.8848   26.5642 C   0  0  0  0  0  0  0  0  0  0  0  0
   10.7378  -19.1773   28.0166 C   0  0  0  0  0  0  0  0  0  0  0  0
   11.8165  -19.2288   28.8773 O   0  0  0  0  0  0  0  0  0  0  0  0
    9.5971  -19.3921   28.4902 O   0  0  0  0  0  0  0  0  0  0  0  0
  2  1  1  6
  3  4  1  0
  3  2  1  0
  5  6  2  0
  5  2  1  0
  7  5  1  0
  8 15  1  0
  8  7  1  0
  8  9  1  6
 10  9  1  0
 11 10  2  0
 12 11  1  0
 13 12  1  0
 13 14  2  0
 14 10  1  0
 15 17  1  0
 16 15  2  0
 17 18  1  0
 18 19  1  0
 19 20  1  0
 21 19  2  0
M  END
$$$$
