CHG.pdb
     RDKit          3D

 21 21  0  0  1  0  0  0  0  0999 V2000
    3.5924  -17.2214   22.5493 N   0  0  0  0  0  0  0  0  0  0  0  0
    4.4488  -18.3438   22.1876 C   0  0  1  0  0  0  0  0  0  0  0  0
    4.1343  -18.7779   20.7825 C   0  0  0  0  0  0  0  0  0  0  0  0
    2.4007  -18.3343   20.4508 S   0  0  0  0  0  0  0  0  0  0  0  0
    5.8633  -17.9947   22.3924 C   0  0  0  0  0  0  0  0  0  0  0  0
    6.7680  -18.8353   22.0603 O   0  0  0  0  0  0  0  0  0  0  0  0
    6.2029  -16.7355   22.9533 N   0  0  0  0  0  0  0  0  0  0  0  0
    7.5782  -16.3244   23.1351 C   0  0  1  0  0  0  0  0  0  0  0  0
    7.7575  -14.8692   22.9324 C   0  0  0  0  0  0  0  0  0  0  0  0
    7.7759  -14.3735   21.5602 C   0  0  0  0  0  0  0  0  0  0  0  0
    8.7666  -14.4295   20.6091 C   0  0  0  0  0  0  0  0  0  0  0  0
    8.3598  -13.8241   19.4507 N   0  0  0  0  0  0  0  0  0  0  0  0
    7.1140  -13.4033   19.7155 C   0  0  0  0  0  0  0  0  0  0  0  0
    6.7436  -13.7113   20.9461 N   0  0  0  0  0  0  0  0  0  0  0  0
    7.9127  -16.5761   24.5900 C   0  0  0  0  0  0  0  0  0  0  0  0
    7.0226  -16.3617   25.4388 O   0  0  0  0  0  0  0  0  0  0  0  0
    9.1697  -17.0354   25.0136 N   0  0  0  0  0  0  0  0  0  0  0  0
    9.5076  -17.3868   26.3634 C   0  0  0  0  0  0  0  0  0  0  0  0
   10.9437  -17.7298   26.5183 C   0  0  0  0  0  0  0  0  0  0  0  0
   11.5371  -18.1021   27.7084 O   0  0  0  0  0  0  0  0  0  0  0  0
   11.6641  -17.6763   25.4938 O   0  0  0  0  0  0  0  0  0  0  0  0
  2  1  1  6
  3  4  1  0
  3  2  1  0
  5  6  2  0
  5  2  1  0
  7  5  1  0
  8 15  1  0
  8  7  1  0
  8  9  1  1
 10  9  1  0
 11 10  2  0
 12 11  1  0
 13 12  1  0
 13 14  2  0
 14 10  1  0
 15 17  1  0
 16 15  2  0
 17 18  1  0
 18 19  1  0
 19 20  1  0
 21 19  2  0
M  END
$$$$
