CHG.pdb
     RDKit          3D

 21 21  0  0  1  0  0  0  0  0999 V2000
    7.4975  -12.8382   19.1120 N   0  0  0  0  0  0  0  0  0  0  0  0
    7.7963  -14.1668   19.6313 C   0  0  1  0  0  0  0  0  0  0  0  0
    8.6785  -14.8961   18.6560 C   0  0  0  0  0  0  0  0  0  0  0  0
    8.9242  -16.5810   19.2987 S   0  0  0  0  0  0  0  0  0  0  0  0
    8.3682  -14.0709   20.9834 C   0  0  0  0  0  0  0  0  0  0  0  0
    9.1495  -13.0979   21.2631 O   0  0  0  0  0  0  0  0  0  0  0  0
    8.0463  -15.0551   21.9547 N   0  0  0  0  0  0  0  0  0  0  0  0
    8.6207  -15.0366   23.2825 C   0  0  1  0  0  0  0  0  0  0  0  0
    7.5904  -15.1576   24.3384 C   0  0  0  0  0  0  0  0  0  0  0  0
    6.9790  -13.9283   24.8324 C   0  0  0  0  0  0  0  0  0  0  0  0
    7.2395  -12.6169   24.5136 C   0  0  0  0  0  0  0  0  0  0  0  0
    6.4315  -11.7754   25.2299 N   0  0  0  0  0  0  0  0  0  0  0  0
    5.6827  -12.5949   25.9830 C   0  0  0  0  0  0  0  0  0  0  0  0
    5.9814  -13.8647   25.7714 N   0  0  0  0  0  0  0  0  0  0  0  0
    9.4708  -16.2838   23.3998 C   0  0  0  0  0  0  0  0  0  0  0  0
    9.0326  -17.3383   22.8950 O   0  0  0  0  0  0  0  0  0  0  0  0
   10.7167  -16.2978   24.0465 N   0  0  0  0  0  0  0  0  0  0  0  0
   11.6170  -17.4150   24.0786 C   0  0  0  0  0  0  0  0  0  0  0  0
   11.3310  -18.3426   25.2018 C   0  0  0  0  0  0  0  0  0  0  0  0
   12.1298  -19.4108   25.5594 O   0  0  0  0  0  0  0  0  0  0  0  0
   10.2900  -18.1376   25.8694 O   0  0  0  0  0  0  0  0  0  0  0  0
  2  1  1  6
  3  4  1  0
  3  2  1  0
  5  6  2  0
  5  2  1  0
  7  5  1  0
  8 15  1  0
  8  7  1  0
  8  9  1  1
 10  9  1  0
 11 10  2  0
 12 11  1  0
 13 12  1  0
 13 14  2  0
 14 10  1  0
 15 17  1  0
 16 15  2  0
 17 18  1  0
 18 19  1  0
 19 20  1  0
 21 19  2  0
M  END
$$$$
