KTY.pdb
     RDKit          3D

 29 29  0  0  1  0  0  0  0  0999 V2000
   21.5401  -19.2954  -17.7601 N   0  0  0  0  0  0  0  0  0  0  0  0
   22.4377  -18.5919  -16.8753 C   0  0  1  0  0  0  0  0  0  0  0  0
   21.6765  -17.8371  -15.8510 C   0  0  0  0  0  0  0  0  0  0  0  0
   20.9661  -16.6608  -16.4246 C   0  0  0  0  0  0  0  0  0  0  0  0
   21.6950  -15.3659  -16.4560 C   0  0  0  0  0  0  0  0  0  0  0  0
   20.7638  -14.2408  -16.9753 C   0  0  0  0  0  0  0  0  0  0  0  0
   21.4962  -12.9918  -16.9203 N   0  0  0  0  0  0  0  0  0  0  0  0
   23.3873  -19.5700  -16.2973 C   0  0  0  0  0  0  0  0  0  0  0  0
   22.9276  -20.5734  -15.7077 O   0  0  0  0  0  0  0  0  0  0  0  0
   25.9081  -21.7966  -17.9201 C   0  0  0  0  0  0  0  0  0  0  0  0
   26.6241  -21.0191  -16.8634 C   0  0  1  0  0  0  0  0  0  0  0  0
   27.4833  -20.0479  -17.3730 O   0  0  0  0  0  0  0  0  0  0  0  0
   25.6812  -20.4318  -15.8335 C   0  0  2  0  0  0  0  0  0  0  0  0
   24.8014  -19.4402  -16.3705 N   0  0  0  0  0  0  0  0  0  0  0  0
   26.4770  -19.8323  -14.7291 C   0  0  0  0  0  0  0  0  0  0  0  0
   26.6547  -18.5686  -14.6682 O   0  0  0  0  0  0  0  0  0  0  0  0
   23.0983  -21.5515   -8.7220 O   0  0  0  0  0  0  0  0  0  0  0  0
   24.0502  -20.9460   -9.5351 C   0  0  0  0  0  0  0  0  0  0  0  0
   23.8587  -20.7774  -10.8918 C   0  0  0  0  0  0  0  0  0  0  0  0
   24.8165  -20.1730  -11.6847 C   0  0  0  0  0  0  0  0  0  0  0  0
   25.9946  -19.7225  -11.1266 C   0  0  0  0  0  0  0  0  0  0  0  0
   27.0766  -19.0687  -11.8686 C   0  0  0  0  0  0  0  0  0  0  0  0
   27.9177  -20.0358  -12.6718 C   0  0  2  0  0  0  0  0  0  0  0  0
   27.0779  -20.5946  -13.6955 N   0  0  0  0  0  0  0  0  0  0  0  0
   28.4419  -21.0435  -11.7367 C   0  0  0  0  0  0  0  0  0  0  0  0
   28.0478  -22.3533  -11.8483 O   0  0  0  0  0  0  0  0  0  0  0  0
   26.1619  -19.9029   -9.7678 C   0  0  0  0  0  0  0  0  0  0  0  0
   25.2220  -20.4968   -8.9859 C   0  0  0  0  0  0  0  0  0  0  0  0
   29.2405  -20.7058  -10.8476 O   0  0  0  0  0  0  0  0  0  0  0  0
  2  1  1  6
  2  3  1  0
  4  5  1  0
  4  3  1  0
  6  5  1  0
  7  6  1  0
  8 14  1  0
  8  2  1  0
  9  8  2  0
 11 10  1  6
 12 11  1  0
 13 11  1  0
 13 14  1  6
 15 16  2  0
 15 13  1  0
 17 18  1  0
 18 28  2  0
 19 18  1  0
 19 20  2  0
 20 21  1  0
 21 27  2  0
 21 22  1  0
 23 22  1  1
 23 25  1  0
 23 24  1  0
 24 15  1  0
 25 26  1  0
 28 27  1  0
 29 25  2  0
M  END
$$$$
