KTY.pdb
     RDKit          3D

 29 29  0  0  1  0  0  0  0  0999 V2000
   24.2992  -24.2056  -16.0816 N   0  0  0  0  0  0  0  0  0  0  0  0
   23.9389  -23.7325  -14.7664 C   0  0  1  0  0  0  0  0  0  0  0  0
   23.2680  -24.8038  -13.9915 C   0  0  0  0  0  0  0  0  0  0  0  0
   21.8016  -24.8539  -14.2447 C   0  0  0  0  0  0  0  0  0  0  0  0
   21.0353  -23.5888  -14.0987 C   0  0  0  0  0  0  0  0  0  0  0  0
   19.5246  -23.8492  -14.3284 C   0  0  0  0  0  0  0  0  0  0  0  0
   19.2247  -23.5543  -15.7149 N   0  0  0  0  0  0  0  0  0  0  0  0
   25.1568  -23.2075  -14.1078 C   0  0  0  0  0  0  0  0  0  0  0  0
   26.2573  -23.7404  -14.3734 O   0  0  0  0  0  0  0  0  0  0  0  0
   27.2382  -20.3690  -14.6417 C   0  0  0  0  0  0  0  0  0  0  0  0
   26.7525  -20.2546  -13.2329 C   0  0  1  0  0  0  0  0  0  0  0  0
   25.7345  -19.3174  -13.0696 O   0  0  0  0  0  0  0  0  0  0  0  0
   26.3657  -21.5938  -12.6401 C   0  0  2  0  0  0  0  0  0  0  0  0
   25.1549  -22.1263  -13.1843 N   0  0  0  0  0  0  0  0  0  0  0  0
   26.2178  -21.4509  -11.1670 C   0  0  0  0  0  0  0  0  0  0  0  0
   25.0752  -21.5893  -10.6123 O   0  0  0  0  0  0  0  0  0  0  0  0
   28.4882  -19.2751   -2.8417 O   0  0  0  0  0  0  0  0  0  0  0  0
   28.4642  -19.5022   -4.2135 C   0  0  0  0  0  0  0  0  0  0  0  0
   27.9692  -18.5713   -5.1045 C   0  0  0  0  0  0  0  0  0  0  0  0
   27.9534  -18.8144   -6.4654 C   0  0  0  0  0  0  0  0  0  0  0  0
   28.4381  -20.0062   -6.9622 C   0  0  0  0  0  0  0  0  0  0  0  0
   28.4710  -20.3704   -8.3818 C   0  0  0  0  0  0  0  0  0  0  0  0
   27.1508  -20.9049   -8.8908 C   0  0  2  0  0  0  0  0  0  0  0  0
   27.2992  -21.1599  -10.2974 N   0  0  0  0  0  0  0  0  0  0  0  0
   26.1229  -19.8964   -8.5890 C   0  0  0  0  0  0  0  0  0  0  0  0
   25.2492  -20.0973   -7.5499 O   0  0  0  0  0  0  0  0  0  0  0  0
   28.9276  -20.9207   -6.0505 C   0  0  0  0  0  0  0  0  0  0  0  0
   28.9444  -20.6843   -4.7121 C   0  0  0  0  0  0  0  0  0  0  0  0
   26.0484  -18.8646   -9.2761 O   0  0  0  0  0  0  0  0  0  0  0  0
  2  1  1  6
  2  3  1  0
  4  5  1  0
  4  3  1  0
  6  5  1  0
  7  6  1  0
  8 14  1  0
  8  2  1  0
  9  8  2  0
 11 10  1  6
 12 11  1  0
 13 11  1  0
 13 14  1  6
 15 16  2  0
 15 13  1  0
 17 18  1  0
 18 28  2  0
 19 18  1  0
 19 20  2  0
 20 21  1  0
 21 27  2  0
 21 22  1  0
 23 22  1  6
 23 25  1  0
 23 24  1  0
 24 15  1  0
 25 26  1  0
 28 27  1  0
 29 25  2  0
M  END
$$$$
