KTY.pdb
     RDKit          3D

 29 29  0  0  1  0  0  0  0  0999 V2000
   20.9671  -12.2978  -18.4268 N   0  0  0  0  0  0  0  0  0  0  0  0
   21.0852  -11.2350  -19.3962 C   0  0  1  0  0  0  0  0  0  0  0  0
   19.8470  -11.1248  -20.2041 C   0  0  0  0  0  0  0  0  0  0  0  0
   18.9154  -12.2632  -19.9728 C   0  0  0  0  0  0  0  0  0  0  0  0
   17.4698  -11.9497  -19.8277 C   0  0  0  0  0  0  0  0  0  0  0  0
   16.6476  -13.2589  -19.7148 C   0  0  0  0  0  0  0  0  0  0  0  0
   15.2483  -12.9009  -19.6001 N   0  0  0  0  0  0  0  0  0  0  0  0
   21.4317   -9.9855  -18.6812 C   0  0  0  0  0  0  0  0  0  0  0  0
   20.7343   -8.9668  -18.8848 O   0  0  0  0  0  0  0  0  0  0  0  0
   24.1502   -7.8192  -19.0518 C   0  0  0  0  0  0  0  0  0  0  0  0
   23.0920   -7.4920  -18.0484 C   0  0  1  0  0  0  0  0  0  0  0  0
   21.9147   -7.0113  -18.6178 O   0  0  0  0  0  0  0  0  0  0  0  0
   22.8140   -8.6403  -17.1002 C   0  0  2  0  0  0  0  0  0  0  0  0
   22.5167   -9.8689  -17.7695 N   0  0  0  0  0  0  0  0  0  0  0  0
   21.6746   -8.2777  -16.2157 C   0  0  0  0  0  0  0  0  0  0  0  0
   20.4778   -8.5881  -16.5378 O   0  0  0  0  0  0  0  0  0  0  0  0
   16.7024   -7.1192   -9.1627 O   0  0  0  0  0  0  0  0  0  0  0  0
   17.7781   -7.2098  -10.0393 C   0  0  0  0  0  0  0  0  0  0  0  0
   18.5792   -6.1252  -10.3353 C   0  0  0  0  0  0  0  0  0  0  0  0
   19.6447   -6.2340  -11.2094 C   0  0  0  0  0  0  0  0  0  0  0  0
   19.9291   -7.4435  -11.8083 C   0  0  0  0  0  0  0  0  0  0  0  0
   21.0302   -7.6745  -12.7480 C   0  0  0  0  0  0  0  0  0  0  0  0
   20.7302   -7.1889  -14.1488 C   0  0  2  0  0  0  0  0  0  0  0  0
   21.8274   -7.5832  -14.9890 N   0  0  0  0  0  0  0  0  0  0  0  0
   20.5476   -5.7307  -14.0785 C   0  0  0  0  0  0  0  0  0  0  0  0
   19.2839   -5.2003  -14.0083 O   0  0  0  0  0  0  0  0  0  0  0  0
   19.1131   -8.5129  -11.4959 C   0  0  0  0  0  0  0  0  0  0  0  0
   18.0649   -8.4087  -10.6369 C   0  0  0  0  0  0  0  0  0  0  0  0
   21.5390   -4.9825  -14.0829 O   0  0  0  0  0  0  0  0  0  0  0  0
  2  1  1  1
  2  3  1  0
  4  5  1  0
  4  3  1  0
  6  5  1  0
  7  6  1  0
  8 14  1  0
  8  2  1  0
  9  8  2  0
 11 10  1  6
 12 11  1  0
 13 11  1  0
 13 14  1  6
 15 16  2  0
 15 13  1  0
 17 18  1  0
 18 28  2  0
 19 18  1  0
 19 20  2  0
 20 21  1  0
 21 27  2  0
 21 22  1  0
 23 22  1  1
 23 25  1  0
 23 24  1  0
 24 15  1  0
 25 26  1  0
 28 27  1  0
 29 25  2  0
M  END
$$$$
