KTY.pdb
     RDKit          3D

 29 29  0  0  1  0  0  0  0  0999 V2000
   27.8219  -21.1974  -17.0143 N   0  0  0  0  0  0  0  0  0  0  0  0
   28.0881  -21.7504  -15.7079 C   0  0  1  0  0  0  0  0  0  0  0  0
   29.5134  -22.1399  -15.5859 C   0  0  0  0  0  0  0  0  0  0  0  0
   29.8669  -23.2834  -16.4717 C   0  0  0  0  0  0  0  0  0  0  0  0
   29.3023  -24.6158  -16.1323 C   0  0  0  0  0  0  0  0  0  0  0  0
   29.8388  -25.6894  -17.1134 C   0  0  0  0  0  0  0  0  0  0  0  0
   29.2346  -26.9588  -16.7627 N   0  0  0  0  0  0  0  0  0  0  0  0
   27.6597  -20.7670  -14.6871 C   0  0  0  0  0  0  0  0  0  0  0  0
   27.7057  -19.5497  -14.9730 O   0  0  0  0  0  0  0  0  0  0  0  0
   25.4579  -18.9468  -14.5099 C   0  0  0  0  0  0  0  0  0  0  0  0
   25.1735  -19.7232  -13.2649 C   0  0  1  0  0  0  0  0  0  0  0  0
   24.2622  -20.7604  -13.4519 O   0  0  0  0  0  0  0  0  0  0  0  0
   26.4346  -20.2165  -12.5858 C   0  0  2  0  0  0  0  0  0  0  0  0
   27.1952  -21.1216  -13.3908 N   0  0  0  0  0  0  0  0  0  0  0  0
   26.0708  -20.8862  -11.3085 C   0  0  0  0  0  0  0  0  0  0  0  0
   25.8654  -22.1467  -11.2715 O   0  0  0  0  0  0  0  0  0  0  0  0
   30.7123  -19.8252   -5.3593 O   0  0  0  0  0  0  0  0  0  0  0  0
   29.4488  -19.8662   -5.9388 C   0  0  0  0  0  0  0  0  0  0  0  0
   28.6996  -21.0245   -5.9885 C   0  0  0  0  0  0  0  0  0  0  0  0
   27.4450  -21.0464   -6.5688 C   0  0  0  0  0  0  0  0  0  0  0  0
   26.9138  -19.8966   -7.1148 C   0  0  0  0  0  0  0  0  0  0  0  0
   25.5977  -19.8031   -7.7534 C   0  0  0  0  0  0  0  0  0  0  0  0
   25.4093  -20.7960   -8.8788 C   0  0  2  0  0  0  0  0  0  0  0  0
   25.9297  -20.1974  -10.0772 N   0  0  0  0  0  0  0  0  0  0  0  0
   23.9722  -21.1013   -8.9592 C   0  0  0  0  0  0  0  0  0  0  0  0
   23.2262  -20.6194  -10.0054 O   0  0  0  0  0  0  0  0  0  0  0  0
   27.6829  -18.7513   -7.0524 C   0  0  0  0  0  0  0  0  0  0  0  0
   28.9166  -18.7270   -6.4825 C   0  0  0  0  0  0  0  0  0  0  0  0
   23.4374  -21.7952   -8.0789 O   0  0  0  0  0  0  0  0  0  0  0  0
  2  1  1  6
  2  3  1  0
  4  5  1  0
  4  3  1  0
  6  5  1  0
  7  6  1  0
  8 14  1  0
  8  2  1  0
  9  8  2  0
 11 10  1  6
 12 11  1  0
 13 11  1  0
 13 14  1  6
 15 16  2  0
 15 13  1  0
 17 18  1  0
 18 28  2  0
 19 18  1  0
 19 20  2  0
 20 21  1  0
 21 27  2  0
 21 22  1  0
 23 22  1  1
 23 25  1  0
 23 24  1  0
 24 15  1  0
 25 26  1  0
 28 27  1  0
 29 25  2  0
M  END
$$$$
