KTY.pdb
     RDKit          3D

 29 29  0  0  1  0  0  0  0  0999 V2000
   24.8486  -33.6638   -9.1934 N   0  0  0  0  0  0  0  0  0  0  0  0
   25.2575  -34.3017   -7.9648 C   0  0  1  0  0  0  0  0  0  0  0  0
   26.6881  -34.6862   -8.0268 C   0  0  0  0  0  0  0  0  0  0  0  0
   26.9691  -35.6513   -9.1254 C   0  0  0  0  0  0  0  0  0  0  0  0
   28.3424  -36.2129   -9.2123 C   0  0  0  0  0  0  0  0  0  0  0  0
   28.3549  -37.6762   -8.7010 C   0  0  0  0  0  0  0  0  0  0  0  0
   29.6888  -38.2076   -8.8956 N   0  0  0  0  0  0  0  0  0  0  0  0
   24.9430  -33.3933   -6.8385 C   0  0  0  0  0  0  0  0  0  0  0  0
   24.9814  -32.1585   -7.0373 O   0  0  0  0  0  0  0  0  0  0  0  0
   21.8509  -32.4760   -5.4367 C   0  0  0  0  0  0  0  0  0  0  0  0
   22.6411  -33.0138   -4.2878 C   0  0  1  0  0  0  0  0  0  0  0  0
   22.2558  -34.2949   -3.8984 O   0  0  0  0  0  0  0  0  0  0  0  0
   24.1357  -32.9380   -4.5232 C   0  0  2  0  0  0  0  0  0  0  0  0
   24.5968  -33.8394   -5.5335 N   0  0  0  0  0  0  0  0  0  0  0  0
   24.8456  -33.2280   -3.2488 C   0  0  0  0  0  0  0  0  0  0  0  0
   25.2867  -34.4017   -3.0034 O   0  0  0  0  0  0  0  0  0  0  0  0
   28.3756  -31.9759    4.7695 O   0  0  0  0  0  0  0  0  0  0  0  0
   27.7827  -31.7740    3.5279 C   0  0  0  0  0  0  0  0  0  0  0  0
   26.5744  -31.1214    3.3872 C   0  0  0  0  0  0  0  0  0  0  0  0
   25.9998  -30.9297    2.1444 C   0  0  0  0  0  0  0  0  0  0  0  0
   26.6321  -31.3933    1.0097 C   0  0  0  0  0  0  0  0  0  0  0  0
   26.1174  -31.2466   -0.3550 C   0  0  0  0  0  0  0  0  0  0  0  0
   25.6416  -32.5506   -0.9560 C   0  0  2  0  0  0  0  0  0  0  0  0
   25.0780  -32.2545   -2.2445 N   0  0  0  0  0  0  0  0  0  0  0  0
   24.6711  -33.1378   -0.0189 C   0  0  0  0  0  0  0  0  0  0  0  0
   25.0432  -34.1835    0.7881 O   0  0  0  0  0  0  0  0  0  0  0  0
   27.8393  -32.0426    1.1771 C   0  0  0  0  0  0  0  0  0  0  0  0
   28.4064  -32.2324    2.3977 C   0  0  0  0  0  0  0  0  0  0  0  0
   23.5161  -32.6850    0.0394 O   0  0  0  0  0  0  0  0  0  0  0  0
  2  1  1  6
  2  3  1  0
  4  5  1  0
  4  3  1  0
  6  5  1  0
  7  6  1  0
  8 14  1  0
  8  2  1  0
  9  8  2  0
 11 10  1  6
 12 11  1  0
 13 11  1  0
 13 14  1  6
 15 16  2  0
 15 13  1  0
 17 18  1  0
 18 28  2  0
 19 18  1  0
 19 20  2  0
 20 21  1  0
 21 27  2  0
 21 22  1  0
 23 22  1  1
 23 25  1  0
 23 24  1  0
 24 15  1  0
 25 26  1  0
 28 27  1  0
 29 25  2  0
M  END
$$$$
