KTY.pdb
     RDKit          3D

 29 29  0  0  1  0  0  0  0  0999 V2000
   27.8114  -21.0764  -20.0020 N   0  0  0  0  0  0  0  0  0  0  0  0
   27.7150  -21.9865  -18.8858 C   0  0  1  0  0  0  0  0  0  0  0  0
   28.5243  -23.2039  -19.1330 C   0  0  0  0  0  0  0  0  0  0  0  0
   27.6931  -24.3575  -19.5754 C   0  0  0  0  0  0  0  0  0  0  0  0
   26.8928  -24.1919  -20.8168 C   0  0  0  0  0  0  0  0  0  0  0  0
   26.0735  -25.4769  -21.1001 C   0  0  0  0  0  0  0  0  0  0  0  0
   25.2280  -25.2251  -22.2495 N   0  0  0  0  0  0  0  0  0  0  0  0
   28.1072  -21.2617  -17.6556 C   0  0  0  0  0  0  0  0  0  0  0  0
   29.1976  -20.6480  -17.6449 O   0  0  0  0  0  0  0  0  0  0  0  0
   28.1008  -18.2471  -16.7290 C   0  0  0  0  0  0  0  0  0  0  0  0
   27.2105  -18.8814  -15.7098 C   0  0  1  0  0  0  0  0  0  0  0  0
   25.8550  -18.7830  -16.0166 O   0  0  0  0  0  0  0  0  0  0  0  0
   27.6018  -20.3128  -15.4053 C   0  0  2  0  0  0  0  0  0  0  0  0
   27.3160  -21.2184  -16.4749 N   0  0  0  0  0  0  0  0  0  0  0  0
   26.8889  -20.7634  -14.1801 C   0  0  0  0  0  0  0  0  0  0  0  0
   25.7935  -21.4151  -14.2685 O   0  0  0  0  0  0  0  0  0  0  0  0
   24.6356  -20.2651   -5.5581 O   0  0  0  0  0  0  0  0  0  0  0  0
   25.2937  -20.2980   -6.7828 C   0  0  0  0  0  0  0  0  0  0  0  0
   25.3087  -21.4251   -7.5797 C   0  0  0  0  0  0  0  0  0  0  0  0
   25.9683  -21.4394   -8.7946 C   0  0  0  0  0  0  0  0  0  0  0  0
   26.6310  -20.3135   -9.2367 C   0  0  0  0  0  0  0  0  0  0  0  0
   27.3611  -20.2149  -10.5040 C   0  0  0  0  0  0  0  0  0  0  0  0
   26.5995  -20.7907  -11.6772 C   0  0  2  0  0  0  0  0  0  0  0  0
   27.3573  -20.5112  -12.8658 N   0  0  0  0  0  0  0  0  0  0  0  0
   25.2647  -20.1717  -11.6807 C   0  0  0  0  0  0  0  0  0  0  0  0
   24.1749  -20.8892  -11.2557 O   0  0  0  0  0  0  0  0  0  0  0  0
   26.6011  -19.1994   -8.4215 C   0  0  0  0  0  0  0  0  0  0  0  0
   25.9534  -19.1825   -7.2266 C   0  0  0  0  0  0  0  0  0  0  0  0
   25.1276  -18.9999  -12.0687 O   0  0  0  0  0  0  0  0  0  0  0  0
  2  1  1  6
  2  3  1  0
  4  5  1  0
  4  3  1  0
  6  5  1  0
  7  6  1  0
  8 14  1  0
  8  2  1  0
  9  8  2  0
 11 10  1  6
 12 11  1  0
 13 11  1  0
 13 14  1  6
 15 16  2  0
 15 13  1  0
 17 18  1  0
 18 28  2  0
 19 18  1  0
 19 20  2  0
 20 21  1  0
 21 27  2  0
 21 22  1  0
 23 22  1  1
 23 25  1  0
 23 24  1  0
 24 15  1  0
 25 26  1  0
 28 27  1  0
 29 25  2  0
M  END
$$$$
