RFA.pdb
     RDKit          3D

 28 28  0  0  1  0  0  0  0  0999 V2000
    6.3234  -21.5513   20.5558 N   0  0  0  0  0  0  0  0  0  0  0  0
    7.4028  -21.9626   19.7394 C   0  0  0  0  0  0  0  0  0  0  0  0
    7.1926  -22.6479   18.6920 N   0  0  0  0  0  0  0  0  0  0  0  0
    8.7465  -21.6206   20.0696 N   0  0  0  0  0  0  0  0  0  0  0  0
    9.1353  -20.2627   20.2611 C   0  0  0  0  0  0  0  0  0  0  0  0
    8.5649  -19.6455   21.5147 C   0  0  0  0  0  0  0  0  0  0  0  0
    9.5968  -18.6336   22.0293 C   0  0  0  0  0  0  0  0  0  0  0  0
    9.4012  -17.2971   21.3684 C   0  0  2  0  0  0  0  0  0  0  0  0
   10.3788  -17.0321   20.3327 N   0  0  0  0  0  0  0  0  0  0  0  0
    9.4785  -16.2432   22.3890 C   0  0  0  0  0  0  0  0  0  0  0  0
   10.5971  -15.7210   22.6689 O   0  0  0  0  0  0  0  0  0  0  0  0
    7.9403  -23.0386   18.0783 N   0  0  0  0  0  0  0  0  0  0  0  0
    8.3160  -15.7992   23.0689 C   0  0  2  0  0  0  0  0  0  0  0  0
    8.3481  -14.8106   24.1224 C   0  0  0  0  0  0  0  0  0  0  0  0
    7.0306  -14.0891   24.2263 C   0  0  0  0  0  0  0  0  0  0  0  0
    6.9455  -13.1947   25.3980 C   0  0  0  0  0  0  0  0  0  0  0  0
    6.0794  -13.4650   26.4270 C   0  0  0  0  0  0  0  0  0  0  0  0
    5.9880  -12.6271   27.5446 C   0  0  0  0  0  0  0  0  0  0  0  0
    6.7733  -11.5138   27.6226 C   0  0  0  0  0  0  0  0  0  0  0  0
    7.6441  -11.2348   26.5965 C   0  0  0  0  0  0  0  0  0  0  0  0
    7.7286  -12.0682   25.4950 C   0  0  0  0  0  0  0  0  0  0  0  0
    8.5334  -15.5364   25.4278 O   0  0  0  0  0  0  0  0  0  0  0  0
    8.7077  -14.8862   26.4992 C   0  0  0  0  0  0  0  0  0  0  0  0
    7.9066  -19.0066   26.5093 C   0  0  2  0  0  0  0  0  0  0  0  0
    8.6897  -17.7203   26.6968 N   0  0  0  0  0  0  0  0  0  0  0  0
    8.5169  -16.9463   25.4867 C   0  0  0  0  0  0  0  0  0  0  0  0
   10.1310  -18.0318   26.9284 O   0  0  0  0  0  0  0  0  0  0  0  0
   10.4723  -18.6386   27.9824 O   0  0  0  0  0  0  0  0  0  0  0  0
  2  1  1  0
  3  2  2  0
  4  2  1  0
  5  4  1  0
  6  5  1  0
  6  7  1  0
  8  7  1  0
  8  9  1  6
 10 12  1  0
 10  8  1  0
 11 10  2  0
 13 21  1  0
 13 12  1  0
 13 14  1  6
 15 16  2  0
 15 14  1  0
 17 16  1  0
 18 17  2  0
 19 18  1  0
 19 20  2  0
 20 15  1  0
 21 22  2  0
 24 23  1  1
 25 24  1  0
 25 21  1  0
 26 28  1  0
 26 24  1  0
 27 26  2  0
M  END
$$$$
