RFA.pdb
     RDKit          3D

 28 28  0  0  1  0  0  0  0  0999 V2000
    8.7781  -13.0293   18.8462 N   0  0  0  0  0  0  0  0  0  0  0  0
    8.2489  -13.4463   17.6026 C   0  0  0  0  0  0  0  0  0  0  0  0
    7.8041  -12.5938   16.7743 N   0  0  0  0  0  0  0  0  0  0  0  0
    8.2013  -14.8264   17.2493 N   0  0  0  0  0  0  0  0  0  0  0  0
    8.6992  -15.8301   18.1304 C   0  0  0  0  0  0  0  0  0  0  0  0
    7.8726  -15.9939   19.3826 C   0  0  0  0  0  0  0  0  0  0  0  0
    8.4939  -17.1438   20.1861 C   0  0  0  0  0  0  0  0  0  0  0  0
    7.6922  -17.4130   21.4294 C   0  0  2  0  0  0  0  0  0  0  0  0
    6.3591  -16.8489   21.3736 N   0  0  0  0  0  0  0  0  0  0  0  0
    8.4053  -16.8579   22.5877 C   0  0  0  0  0  0  0  0  0  0  0  0
    9.5571  -16.3557   22.4342 O   0  0  0  0  0  0  0  0  0  0  0  0
    7.4630  -12.8204   15.8148 N   0  0  0  0  0  0  0  0  0  0  0  0
    7.8227  -16.8755   23.8804 C   0  0  1  0  0  0  0  0  0  0  0  0
    8.5087  -16.4020   25.0608 C   0  0  0  0  0  0  0  0  0  0  0  0
    7.5312  -15.8851   26.0827 C   0  0  0  0  0  0  0  0  0  0  0  0
    7.2777  -14.4352   25.9671 C   0  0  0  0  0  0  0  0  0  0  0  0
    8.2786  -13.5742   25.5943 C   0  0  0  0  0  0  0  0  0  0  0  0
    8.0534  -12.1974   25.4796 C   0  0  0  0  0  0  0  0  0  0  0  0
    6.8143  -11.6895   25.7422 C   0  0  0  0  0  0  0  0  0  0  0  0
    5.8052  -12.5443   26.1163 C   0  0  0  0  0  0  0  0  0  0  0  0
    6.0359  -13.9042   26.2275 C   0  0  0  0  0  0  0  0  0  0  0  0
    9.1964  -17.5805   25.6960 O   0  0  0  0  0  0  0  0  0  0  0  0
    8.5197  -18.5681   26.1060 C   0  0  0  0  0  0  0  0  0  0  0  0
   12.7947  -18.5039   26.0622 C   0  0  2  0  0  0  0  0  0  0  0  0
   11.3381  -18.7070   26.4365 N   0  0  0  0  0  0  0  0  0  0  0  0
   10.5991  -17.6114   25.8475 C   0  0  0  0  0  0  0  0  0  0  0  0
   11.1908  -18.7110   27.9218 O   0  0  0  0  0  0  0  0  0  0  0  0
   10.6027  -17.7476   28.4889 O   0  0  0  0  0  0  0  0  0  0  0  0
  2  1  1  0
  3  2  2  0
  4  2  1  0
  5  4  1  0
  6  5  1  0
  6  7  1  0
  8  7  1  0
  8  9  1  6
 10 12  1  0
 10  8  1  0
 11 10  2  0
 13 21  1  0
 13 12  1  0
 13 14  1  1
 15 16  2  0
 15 14  1  0
 17 16  1  0
 18 17  2  0
 19 18  1  0
 19 20  2  0
 20 15  1  0
 21 22  2  0
 24 23  1  6
 25 24  1  0
 25 21  1  0
 26 28  1  0
 26 24  1  0
 27 26  2  0
M  END
$$$$
