RFA.pdb
     RDKit          3D

 28 28  0  0  1  0  0  0  0  0999 V2000
    7.2050  -15.6108   16.2039 N   0  0  0  0  0  0  0  0  0  0  0  0
    7.7653  -14.3527   16.5260 C   0  0  0  0  0  0  0  0  0  0  0  0
    8.3930  -13.6842   15.6485 N   0  0  0  0  0  0  0  0  0  0  0  0
    7.6407  -13.8061   17.8364 N   0  0  0  0  0  0  0  0  0  0  0  0
    8.2237  -14.4548   18.9638 C   0  0  0  0  0  0  0  0  0  0  0  0
    9.5670  -15.0773   18.6704 C   0  0  0  0  0  0  0  0  0  0  0  0
   10.3433  -15.1194   19.9930 C   0  0  0  0  0  0  0  0  0  0  0  0
    9.7754  -16.1709   20.9057 C   0  0  2  0  0  0  0  0  0  0  0  0
    8.4655  -16.6297   20.4907 N   0  0  0  0  0  0  0  0  0  0  0  0
    9.6893  -15.6262   22.2674 C   0  0  0  0  0  0  0  0  0  0  0  0
   10.7422  -15.2504   22.8610 O   0  0  0  0  0  0  0  0  0  0  0  0
    8.8063  -12.7394   15.8055 N   0  0  0  0  0  0  0  0  0  0  0  0
    8.4411  -15.5139   22.9309 C   0  0  1  0  0  0  0  0  0  0  0  0
    8.2817  -14.8478   24.2032 C   0  0  0  0  0  0  0  0  0  0  0  0
    7.1636  -13.8409   24.1494 C   0  0  0  0  0  0  0  0  0  0  0  0
    7.0412  -13.0376   25.3822 C   0  0  0  0  0  0  0  0  0  0  0  0
    8.0682  -12.2292   25.7992 C   0  0  0  0  0  0  0  0  0  0  0  0
    7.9667  -11.4613   26.9651 C   0  0  0  0  0  0  0  0  0  0  0  0
    6.8252  -11.5103   27.7112 C   0  0  0  0  0  0  0  0  0  0  0  0
    5.7909  -12.3172   27.3015 C   0  0  0  0  0  0  0  0  0  0  0  0
    5.8989  -13.0735   26.1476 C   0  0  0  0  0  0  0  0  0  0  0  0
    7.8667  -15.8824   25.2144 O   0  0  0  0  0  0  0  0  0  0  0  0
    6.7102  -15.8447   25.7268 C   0  0  0  0  0  0  0  0  0  0  0  0
    7.6588  -19.0007   25.9280 C   0  0  2  0  0  0  0  0  0  0  0  0
    8.4521  -17.9059   26.6170 N   0  0  0  0  0  0  0  0  0  0  0  0
    8.7495  -16.9095   25.6109 C   0  0  0  0  0  0  0  0  0  0  0  0
    9.7074  -18.4728   27.1921 O   0  0  0  0  0  0  0  0  0  0  0  0
   10.8203  -18.1510   26.6888 O   0  0  0  0  0  0  0  0  0  0  0  0
  2  1  1  0
  3  2  2  0
  4  2  1  0
  5  4  1  0
  6  5  1  0
  6  7  1  0
  8  7  1  0
  8  9  1  6
 10 12  1  0
 10  8  1  0
 11 10  2  0
 13 21  1  0
 13 12  1  0
 13 14  1  1
 15 16  2  0
 15 14  1  0
 17 16  1  0
 18 17  2  0
 19 18  1  0
 19 20  2  0
 20 15  1  0
 21 22  2  0
 24 23  1  1
 25 24  1  0
 25 21  1  0
 26 28  1  0
 26 24  1  0
 27 26  2  0
M  END
$$$$
