RFA.pdb
     RDKit          3D

 28 28  0  0  1  0  0  0  0  0999 V2000
    9.4293  -14.8925   15.3899 N   0  0  0  0  0  0  0  0  0  0  0  0
    8.1723  -14.3067   15.6679 C   0  0  0  0  0  0  0  0  0  0  0  0
    7.6817  -13.4352   14.8865 N   0  0  0  0  0  0  0  0  0  0  0  0
    7.4282  -14.6773   16.8258 N   0  0  0  0  0  0  0  0  0  0  0  0
    7.9463  -15.6157   17.7653 C   0  0  0  0  0  0  0  0  0  0  0  0
    8.8469  -14.9918   18.8032 C   0  0  0  0  0  0  0  0  0  0  0  0
    8.4724  -15.6105   20.1563 C   0  0  0  0  0  0  0  0  0  0  0  0
    7.9487  -14.5565   21.0923 C   0  0  2  0  0  0  0  0  0  0  0  0
    8.1739  -13.2101   20.6076 N   0  0  0  0  0  0  0  0  0  0  0  0
    8.5964  -14.7152   22.4013 C   0  0  0  0  0  0  0  0  0  0  0  0
    9.7949  -14.3394   22.5585 O   0  0  0  0  0  0  0  0  0  0  0  0
    6.7310  -13.0172   14.9855 N   0  0  0  0  0  0  0  0  0  0  0  0
    7.8986  -15.2849   23.4965 C   0  0  1  0  0  0  0  0  0  0  0  0
    8.4865  -15.4495   24.8062 C   0  0  0  0  0  0  0  0  0  0  0  0
    7.4541  -15.2722   25.8878 C   0  0  0  0  0  0  0  0  0  0  0  0
    7.2035  -13.8578   26.2296 C   0  0  0  0  0  0  0  0  0  0  0  0
    6.0100  -13.2594   25.9145 C   0  0  0  0  0  0  0  0  0  0  0  0
    5.7574  -11.9199   26.2328 C   0  0  0  0  0  0  0  0  0  0  0  0
    6.7129  -11.1835   26.8708 C   0  0  0  0  0  0  0  0  0  0  0  0
    7.9118  -11.7744   27.1906 C   0  0  0  0  0  0  0  0  0  0  0  0
    8.1538  -13.0993   26.8725 C   0  0  0  0  0  0  0  0  0  0  0  0
    8.9708  -16.8702   24.9169 O   0  0  0  0  0  0  0  0  0  0  0  0
    8.2391  -17.8252   24.5247 C   0  0  0  0  0  0  0  0  0  0  0  0
   12.1644  -18.4799   24.9649 C   0  0  2  0  0  0  0  0  0  0  0  0
   10.7832  -18.5019   25.5931 N   0  0  0  0  0  0  0  0  0  0  0  0
   10.2407  -17.1676   25.4557 C   0  0  0  0  0  0  0  0  0  0  0  0
   10.8849  -18.8897   27.0309 O   0  0  0  0  0  0  0  0  0  0  0  0
   10.6061  -18.0402   27.9232 O   0  0  0  0  0  0  0  0  0  0  0  0
  2  1  1  0
  3  2  2  0
  4  2  1  0
  5  4  1  0
  6  5  1  0
  6  7  1  0
  8  7  1  0
  8  9  1  6
 10 12  1  0
 10  8  1  0
 11 10  2  0
 13 21  1  0
 13 12  1  0
 13 14  1  6
 15 16  2  0
 15 14  1  0
 17 16  1  0
 18 17  2  0
 19 18  1  0
 19 20  2  0
 20 15  1  0
 21 22  2  0
 24 23  1  6
 25 24  1  0
 25 21  1  0
 26 28  1  0
 26 24  1  0
 27 26  2  0
M  END
$$$$
