RFA.pdb
     RDKit          3D

 28 28  0  0  1  0  0  0  0  0999 V2000
    9.6763  -13.4634   17.7551 N   0  0  0  0  0  0  0  0  0  0  0  0
    8.2620  -13.4763   17.7406 C   0  0  0  0  0  0  0  0  0  0  0  0
    7.6098  -12.3922   17.6400 N   0  0  0  0  0  0  0  0  0  0  0  0
    7.5367  -14.6994   17.8381 N   0  0  0  0  0  0  0  0  0  0  0  0
    7.9538  -15.7346   18.7248 C   0  0  0  0  0  0  0  0  0  0  0  0
    8.4052  -15.2257   20.0721 C   0  0  0  0  0  0  0  0  0  0  0  0
    8.7825  -16.4515   20.9140 C   0  0  0  0  0  0  0  0  0  0  0  0
    7.9311  -16.5249   22.1513 C   0  0  2  0  0  0  0  0  0  0  0  0
    6.6645  -15.8372   22.0056 N   0  0  0  0  0  0  0  0  0  0  0  0
    8.6727  -15.9414   23.2773 C   0  0  0  0  0  0  0  0  0  0  0  0
    9.5510  -15.0564   23.0593 O   0  0  0  0  0  0  0  0  0  0  0  0
    6.5693  -12.3269   17.6010 N   0  0  0  0  0  0  0  0  0  0  0  0
    8.4203  -16.3549   24.6100 C   0  0  1  0  0  0  0  0  0  0  0  0
    9.1046  -15.7941   25.7525 C   0  0  0  0  0  0  0  0  0  0  0  0
    8.1226  -15.3047   26.7836 C   0  0  0  0  0  0  0  0  0  0  0  0
    7.5130  -14.0049   26.4387 C   0  0  0  0  0  0  0  0  0  0  0  0
    6.1853  -13.9178   26.1045 C   0  0  0  0  0  0  0  0  0  0  0  0
    5.5931  -12.6927   25.7761 C   0  0  0  0  0  0  0  0  0  0  0  0
    6.3439  -11.5533   25.7854 C   0  0  0  0  0  0  0  0  0  0  0  0
    7.6750  -11.6305   26.1189 C   0  0  0  0  0  0  0  0  0  0  0  0
    8.2531  -12.8455   26.4424 C   0  0  0  0  0  0  0  0  0  0  0  0
    9.8858  -16.9006   26.4086 O   0  0  0  0  0  0  0  0  0  0  0  0
   10.4762  -16.6978   27.5093 C   0  0  0  0  0  0  0  0  0  0  0  0
   10.4465  -20.4881   25.4863 C   0  0  2  0  0  0  0  0  0  0  0  0
   10.7470  -19.2796   26.3537 N   0  0  0  0  0  0  0  0  0  0  0  0
    9.9768  -18.1786   25.8171 C   0  0  0  0  0  0  0  0  0  0  0  0
   12.2080  -18.9764   26.3144 O   0  0  0  0  0  0  0  0  0  0  0  0
   12.9769  -19.5212   27.1556 O   0  0  0  0  0  0  0  0  0  0  0  0
  2  1  1  0
  3  2  2  0
  4  2  1  0
  5  4  1  0
  6  5  1  0
  6  7  1  0
  8  7  1  0
  8  9  1  6
 10 12  1  0
 10  8  1  0
 11 10  2  0
 13 21  1  0
 13 12  1  0
 13 14  1  6
 15 16  2  0
 15 14  1  0
 17 16  1  0
 18 17  2  0
 19 18  1  0
 19 20  2  0
 20 15  1  0
 21 22  2  0
 24 23  1  1
 25 24  1  0
 25 21  1  0
 26 28  1  0
 26 24  1  0
 27 26  2  0
M  END
$$$$
