RFA.pdb
     RDKit          3D

 28 28  0  0  1  0  0  0  0  0999 V2000
   11.1643  -21.2311   24.4007 N   0  0  0  0  0  0  0  0  0  0  0  0
   11.8708  -21.3481   23.1810 C   0  0  0  0  0  0  0  0  0  0  0  0
   13.0609  -21.7891   23.1667 N   0  0  0  0  0  0  0  0  0  0  0  0
   11.2688  -20.9761   21.9438 N   0  0  0  0  0  0  0  0  0  0  0  0
   11.2161  -19.6129   21.5306 C   0  0  0  0  0  0  0  0  0  0  0  0
   10.2207  -18.7874   22.3087 C   0  0  0  0  0  0  0  0  0  0  0  0
    9.2684  -18.1496   21.2889 C   0  0  0  0  0  0  0  0  0  0  0  0
    9.7051  -16.7481   20.9629 C   0  0  2  0  0  0  0  0  0  0  0  0
   11.0488  -16.6872   20.4251 N   0  0  0  0  0  0  0  0  0  0  0  0
    9.6327  -15.9294   22.1806 C   0  0  0  0  0  0  0  0  0  0  0  0
   10.6945  -15.6371   22.8046 O   0  0  0  0  0  0  0  0  0  0  0  0
   13.6479  -21.8852   22.3097 N   0  0  0  0  0  0  0  0  0  0  0  0
    8.3880  -15.4591   22.6709 C   0  0  1  0  0  0  0  0  0  0  0  0
    8.2724  -14.5652   23.8003 C   0  0  0  0  0  0  0  0  0  0  0  0
    6.9301  -13.8835   23.8144 C   0  0  0  0  0  0  0  0  0  0  0  0
    6.7030  -13.0659   25.0228 C   0  0  0  0  0  0  0  0  0  0  0  0
    5.6671  -13.3470   25.8771 C   0  0  0  0  0  0  0  0  0  0  0  0
    5.4397  -12.5816   27.0269 C   0  0  0  0  0  0  0  0  0  0  0  0
    6.2607  -11.5300   27.3139 C   0  0  0  0  0  0  0  0  0  0  0  0
    7.3013  -11.2408   26.4639 C   0  0  0  0  0  0  0  0  0  0  0  0
    7.5194  -12.0023   25.3292 C   0  0  0  0  0  0  0  0  0  0  0  0
    8.3339  -15.3975   25.0528 O   0  0  0  0  0  0  0  0  0  0  0  0
    8.3718  -14.8391   26.1877 C   0  0  0  0  0  0  0  0  0  0  0  0
    7.5474  -18.8890   25.8192 C   0  0  2  0  0  0  0  0  0  0  0  0
    8.4047  -17.6797   26.1442 N   0  0  0  0  0  0  0  0  0  0  0  0
    8.3501  -16.8073   24.9912 C   0  0  0  0  0  0  0  0  0  0  0  0
    9.8071  -18.1101   26.4201 O   0  0  0  0  0  0  0  0  0  0  0  0
   10.7016  -17.9009   25.5531 O   0  0  0  0  0  0  0  0  0  0  0  0
  2  1  1  0
  3  2  2  0
  4  2  1  0
  5  4  1  0
  6  5  1  0
  6  7  1  0
  8  7  1  0
  8  9  1  1
 10 12  1  0
 10  8  1  0
 11 10  2  0
 13 21  1  0
 13 12  1  0
 13 14  1  1
 15 16  2  0
 15 14  1  0
 17 16  1  0
 18 17  2  0
 19 18  1  0
 19 20  2  0
 20 15  1  0
 21 22  2  0
 24 23  1  1
 25 24  1  0
 25 21  1  0
 26 28  1  0
 26 24  1  0
 27 26  2  0
M  END
$$$$
