RFA.pdb
     RDKit          3D

 28 28  0  0  1  0  0  0  0  0999 V2000
    8.9761  -12.1176   18.3821 N   0  0  0  0  0  0  0  0  0  0  0  0
    8.7299  -13.1909   17.4944 C   0  0  0  0  0  0  0  0  0  0  0  0
    9.3948  -13.3019   16.4190 N   0  0  0  0  0  0  0  0  0  0  0  0
    7.7346  -14.1698   17.7823 N   0  0  0  0  0  0  0  0  0  0  0  0
    8.0384  -15.5619   17.7464 C   0  0  0  0  0  0  0  0  0  0  0  0
    8.7382  -16.0562   18.9889 C   0  0  0  0  0  0  0  0  0  0  0  0
    7.7932  -17.0529   19.6727 C   0  0  0  0  0  0  0  0  0  0  0  0
    8.4502  -17.6596   20.8816 C   0  0  2  0  0  0  0  0  0  0  0  0
    7.6778  -18.7400   21.4602 N   0  0  0  0  0  0  0  0  0  0  0  0
    8.6517  -16.6125   21.8922 C   0  0  0  0  0  0  0  0  0  0  0  0
    9.5154  -15.7082   21.6957 O   0  0  0  0  0  0  0  0  0  0  0  0
    9.3528  -14.1233   15.7773 N   0  0  0  0  0  0  0  0  0  0  0  0
    7.8918  -16.5979   23.0894 C   0  0  1  0  0  0  0  0  0  0  0  0
    8.1017  -15.6331   24.1446 C   0  0  0  0  0  0  0  0  0  0  0  0
    6.7928  -15.2058   24.7538 C   0  0  0  0  0  0  0  0  0  0  0  0
    6.9382  -14.1309   25.7555 C   0  0  0  0  0  0  0  0  0  0  0  0
    7.1547  -12.8330   25.3673 C   0  0  0  0  0  0  0  0  0  0  0  0
    7.2938  -11.8031   26.3050 C   0  0  0  0  0  0  0  0  0  0  0  0
    7.2140  -12.0852   27.6378 C   0  0  0  0  0  0  0  0  0  0  0  0
    6.9972  -13.3826   28.0364 C   0  0  0  0  0  0  0  0  0  0  0  0
    6.8608  -14.3952   27.1031 C   0  0  0  0  0  0  0  0  0  0  0  0
    8.8734  -16.3142   25.2427 O   0  0  0  0  0  0  0  0  0  0  0  0
    8.4182  -17.3627   25.7855 C   0  0  0  0  0  0  0  0  0  0  0  0
   12.3853  -15.9758   26.3690 C   0  0  2  0  0  0  0  0  0  0  0  0
   10.9744  -16.4613   26.6457 N   0  0  0  0  0  0  0  0  0  0  0  0
   10.1114  -15.8041   25.6882 C   0  0  0  0  0  0  0  0  0  0  0  0
   10.5818  -16.1130   28.0430 O   0  0  0  0  0  0  0  0  0  0  0  0
    9.7721  -15.1640   28.2410 O   0  0  0  0  0  0  0  0  0  0  0  0
  2  1  1  0
  3  2  2  0
  4  2  1  0
  5  4  1  0
  6  5  1  0
  6  7  1  0
  8  7  1  0
  8  9  1  1
 10 12  1  0
 10  8  1  0
 11 10  2  0
 13 21  1  0
 13 12  1  0
 13 14  1  1
 15 16  2  0
 15 14  1  0
 17 16  1  0
 18 17  2  0
 19 18  1  0
 19 20  2  0
 20 15  1  0
 21 22  2  0
 24 23  1  6
 25 24  1  0
 25 21  1  0
 26 28  1  0
 26 24  1  0
 27 26  2  0
M  END
$$$$
