RFA.pdb
     RDKit          3D

 28 28  0  0  1  0  0  0  0  0999 V2000
    5.8362  -19.1431   18.3038 N   0  0  0  0  0  0  0  0  0  0  0  0
    6.3103  -18.6825   17.0534 C   0  0  0  0  0  0  0  0  0  0  0  0
    6.0418  -19.3197   15.9891 N   0  0  0  0  0  0  0  0  0  0  0  0
    7.0973  -17.4980   16.9563 N   0  0  0  0  0  0  0  0  0  0  0  0
    6.9455  -16.4339   17.8924 C   0  0  0  0  0  0  0  0  0  0  0  0
    7.3684  -16.8018   19.2937 C   0  0  0  0  0  0  0  0  0  0  0  0
    8.4187  -15.7732   19.7327 C   0  0  0  0  0  0  0  0  0  0  0  0
    7.7950  -14.7224   20.6091 C   0  0  2  0  0  0  0  0  0  0  0  0
    7.8844  -13.3916   20.0440 N   0  0  0  0  0  0  0  0  0  0  0  0
    8.4581  -14.7380   21.9200 C   0  0  0  0  0  0  0  0  0  0  0  0
    9.5803  -14.1702   22.0628 O   0  0  0  0  0  0  0  0  0  0  0  0
    6.3270  -19.0217   15.0309 N   0  0  0  0  0  0  0  0  0  0  0  0
    7.8595  -15.3814   23.0329 C   0  0  2  0  0  0  0  0  0  0  0  0
    8.4205  -15.3387   24.3639 C   0  0  0  0  0  0  0  0  0  0  0  0
    7.3385  -15.2033   25.4020 C   0  0  0  0  0  0  0  0  0  0  0  0
    7.1793  -13.8236   25.9031 C   0  0  0  0  0  0  0  0  0  0  0  0
    6.1358  -13.0389   25.4819 C   0  0  0  0  0  0  0  0  0  0  0  0
    5.9712  -11.7295   25.9485 C   0  0  0  0  0  0  0  0  0  0  0  0
    6.8629  -11.2119   26.8425 C   0  0  0  0  0  0  0  0  0  0  0  0
    7.9115  -11.9904   27.2703 C   0  0  0  0  0  0  0  0  0  0  0  0
    8.0673  -13.2841   26.8043 C   0  0  0  0  0  0  0  0  0  0  0  0
    9.0881  -16.6624   24.6235 O   0  0  0  0  0  0  0  0  0  0  0  0
    8.4201  -17.7354   24.5642 C   0  0  0  0  0  0  0  0  0  0  0  0
   12.5917  -17.7893   24.7895 C   0  0  2  0  0  0  0  0  0  0  0  0
   11.1633  -17.9567   25.2737 N   0  0  0  0  0  0  0  0  0  0  0  0
   10.4623  -16.7369   24.9359 C   0  0  0  0  0  0  0  0  0  0  0  0
   11.1501  -18.1874   26.7483 O   0  0  0  0  0  0  0  0  0  0  0  0
   10.6461  -17.3130   27.5080 O   0  0  0  0  0  0  0  0  0  0  0  0
  2  1  1  0
  3  2  2  0
  4  2  1  0
  5  4  1  0
  6  5  1  0
  6  7  1  0
  8  7  1  0
  8  9  1  6
 10 12  1  0
 10  8  1  0
 11 10  2  0
 13 21  1  0
 13 12  1  0
 13 14  1  6
 15 16  2  0
 15 14  1  0
 17 16  1  0
 18 17  2  0
 19 18  1  0
 19 20  2  0
 20 15  1  0
 21 22  2  0
 24 23  1  6
 25 24  1  0
 25 21  1  0
 26 28  1  0
 26 24  1  0
 27 26  2  0
M  END
$$$$
