RFA.pdb
     RDKit          3D

 28 28  0  0  1  0  0  0  0  0999 V2000
    9.5947  -14.4070   16.5820 N   0  0  0  0  0  0  0  0  0  0  0  0
    8.3763  -13.6922   16.6544 C   0  0  0  0  0  0  0  0  0  0  0  0
    7.6198  -13.6057   15.6390 N   0  0  0  0  0  0  0  0  0  0  0  0
    7.9689  -13.0539   17.8620 N   0  0  0  0  0  0  0  0  0  0  0  0
    7.7028  -13.8093   19.0411 C   0  0  0  0  0  0  0  0  0  0  0  0
    8.5958  -15.0162   19.1955 C   0  0  0  0  0  0  0  0  0  0  0  0
    9.4749  -14.7722   20.4290 C   0  0  0  0  0  0  0  0  0  0  0  0
    9.4788  -15.9817   21.3225 C   0  0  2  0  0  0  0  0  0  0  0  0
    8.2952  -16.8021   21.1658 N   0  0  0  0  0  0  0  0  0  0  0  0
    9.5827  -15.5427   22.7207 C   0  0  0  0  0  0  0  0  0  0  0  0
   10.5368  -14.7892   23.0730 O   0  0  0  0  0  0  0  0  0  0  0  0
    6.7520  -13.0285   15.5928 N   0  0  0  0  0  0  0  0  0  0  0  0
    8.6280  -15.9509   23.6866 C   0  0  1  0  0  0  0  0  0  0  0  0
    8.6365  -15.4783   25.0521 C   0  0  0  0  0  0  0  0  0  0  0  0
    7.2407  -15.1715   25.5260 C   0  0  0  0  0  0  0  0  0  0  0  0
    7.0046  -13.7319   25.7537 C   0  0  0  0  0  0  0  0  0  0  0  0
    7.6420  -12.7859   24.9914 C   0  0  0  0  0  0  0  0  0  0  0  0
    7.4277  -11.4176   25.1948 C   0  0  0  0  0  0  0  0  0  0  0  0
    6.5677  -11.0043   26.1704 C   0  0  0  0  0  0  0  0  0  0  0  0
    5.9244  -11.9447   26.9391 C   0  0  0  0  0  0  0  0  0  0  0  0
    6.1416  -13.2956   26.7318 C   0  0  0  0  0  0  0  0  0  0  0  0
    9.1387  -16.5986   25.9227 O   0  0  0  0  0  0  0  0  0  0  0  0
    9.0764  -16.5032   27.1829 C   0  0  0  0  0  0  0  0  0  0  0  0
   10.0828  -20.1151   25.2553 C   0  0  2  0  0  0  0  0  0  0  0  0
   10.2218  -18.8771   26.1219 N   0  0  0  0  0  0  0  0  0  0  0  0
    9.6855  -17.7710   25.3588 C   0  0  0  0  0  0  0  0  0  0  0  0
   11.6588  -18.6477   26.4539 O   0  0  0  0  0  0  0  0  0  0  0  0
   12.2679  -17.6728   25.9303 O   0  0  0  0  0  0  0  0  0  0  0  0
  2  1  1  0
  3  2  2  0
  4  2  1  0
  5  4  1  0
  6  5  1  0
  6  7  1  0
  8  7  1  0
  8  9  1  1
 10 12  1  0
 10  8  1  0
 11 10  2  0
 13 21  1  0
 13 12  1  0
 13 14  1  1
 15 16  2  0
 15 14  1  0
 17 16  1  0
 18 17  2  0
 19 18  1  0
 19 20  2  0
 20 15  1  0
 21 22  2  0
 24 23  1  1
 25 24  1  0
 25 21  1  0
 26 28  1  0
 26 24  1  0
 27 26  2  0
M  END
$$$$
