RFA.pdb
     RDKit          3D

 28 28  0  0  1  0  0  0  0  0999 V2000
   10.2730  -15.2051   12.7461 N   0  0  0  0  0  0  0  0  0  0  0  0
    9.9862  -16.0914   13.8104 C   0  0  0  0  0  0  0  0  0  0  0  0
    9.1697  -17.0493   13.6477 N   0  0  0  0  0  0  0  0  0  0  0  0
   10.6027  -15.9330   15.0858 N   0  0  0  0  0  0  0  0  0  0  0  0
   11.1756  -17.0443   15.7703 C   0  0  0  0  0  0  0  0  0  0  0  0
   10.3181  -17.5611   16.8996 C   0  0  0  0  0  0  0  0  0  0  0  0
   10.5832  -16.6631   18.1149 C   0  0  0  0  0  0  0  0  0  0  0  0
   10.6613  -17.4847   19.3719 C   0  0  2  0  0  0  0  0  0  0  0  0
    9.5368  -18.3845   19.5278 N   0  0  0  0  0  0  0  0  0  0  0  0
   10.7243  -16.5824   20.5296 C   0  0  0  0  0  0  0  0  0  0  0  0
   11.6842  -15.7642   20.6365 O   0  0  0  0  0  0  0  0  0  0  0  0
    9.0330  -17.8338   14.3217 N   0  0  0  0  0  0  0  0  0  0  0  0
    9.7235  -16.6129   21.5339 C   0  0  1  0  0  0  0  0  0  0  0  0
    9.7102  -15.7090   22.6613 C   0  0  0  0  0  0  0  0  0  0  0  0
    8.3594  -15.0631   22.8197 C   0  0  0  0  0  0  0  0  0  0  0  0
    7.9775  -14.2188   21.6703 C   0  0  0  0  0  0  0  0  0  0  0  0
    8.4862  -12.9526   21.5285 C   0  0  0  0  0  0  0  0  0  0  0  0
    8.1342  -12.1407   20.4439 C   0  0  0  0  0  0  0  0  0  0  0  0
    7.2664  -12.6091   19.5007 C   0  0  0  0  0  0  0  0  0  0  0  0
    6.7515  -13.8764   19.6342 C   0  0  0  0  0  0  0  0  0  0  0  0
    7.1044  -14.6729   20.7094 C   0  0  0  0  0  0  0  0  0  0  0  0
    9.9343  -16.5245   23.9062 O   0  0  0  0  0  0  0  0  0  0  0  0
    9.7511  -16.0089   25.0472 C   0  0  0  0  0  0  0  0  0  0  0  0
   10.2360  -20.0858   24.6938 C   0  0  2  0  0  0  0  0  0  0  0  0
   10.7318  -18.6783   24.9691 N   0  0  0  0  0  0  0  0  0  0  0  0
   10.3500  -17.8710   23.8308 C   0  0  0  0  0  0  0  0  0  0  0  0
   12.2143  -18.6864   25.1428 O   0  0  0  0  0  0  0  0  0  0  0  0
   12.9457  -18.1741   24.2494 O   0  0  0  0  0  0  0  0  0  0  0  0
  2  1  1  0
  3  2  2  0
  4  2  1  0
  5  4  1  0
  6  5  1  0
  6  7  1  0
  8  7  1  0
  8  9  1  1
 10 12  1  0
 10  8  1  0
 11 10  2  0
 13 21  1  0
 13 12  1  0
 13 14  1  6
 15 16  2  0
 15 14  1  0
 17 16  1  0
 18 17  2  0
 19 18  1  0
 19 20  2  0
 20 15  1  0
 21 22  2  0
 24 23  1  1
 25 24  1  0
 25 21  1  0
 26 28  1  0
 26 24  1  0
 27 26  2  0
M  END
$$$$
