RFA.pdb
     RDKit          3D

 28 28  0  0  1  0  0  0  0  0999 V2000
    8.0936  -19.7432   18.2731 N   0  0  0  0  0  0  0  0  0  0  0  0
    8.1987  -18.4704   17.6652 C   0  0  0  0  0  0  0  0  0  0  0  0
    7.3782  -18.1186   16.7631 N   0  0  0  0  0  0  0  0  0  0  0  0
    9.2226  -17.5554   18.0472 N   0  0  0  0  0  0  0  0  0  0  0  0
    9.0506  -16.6793   19.1584 C   0  0  0  0  0  0  0  0  0  0  0  0
    8.3537  -15.3885   18.8034 C   0  0  0  0  0  0  0  0  0  0  0  0
    7.1998  -15.2102   19.7986 C   0  0  0  0  0  0  0  0  0  0  0  0
    7.3313  -13.9038   20.5315 C   0  0  2  0  0  0  0  0  0  0  0  0
    7.9434  -12.8658   19.7276 N   0  0  0  0  0  0  0  0  0  0  0  0
    8.1337  -14.1145   21.7440 C   0  0  0  0  0  0  0  0  0  0  0  0
    9.3596  -13.7992   21.7483 O   0  0  0  0  0  0  0  0  0  0  0  0
    7.4513  -17.2409   16.2039 N   0  0  0  0  0  0  0  0  0  0  0  0
    7.5555  -14.6677   22.9147 C   0  0  1  0  0  0  0  0  0  0  0  0
    8.2849  -14.8349   24.1508 C   0  0  0  0  0  0  0  0  0  0  0  0
    7.3666  -14.7243   25.3389 C   0  0  0  0  0  0  0  0  0  0  0  0
    7.2093  -13.3402   25.8285 C   0  0  0  0  0  0  0  0  0  0  0  0
    5.9631  -12.8059   26.0373 C   0  0  0  0  0  0  0  0  0  0  0  0
    5.7979  -11.4958   26.5019 C   0  0  0  0  0  0  0  0  0  0  0  0
    6.8943  -10.7240   26.7560 C   0  0  0  0  0  0  0  0  0  0  0  0
    8.1469  -11.2506   26.5499 C   0  0  0  0  0  0  0  0  0  0  0  0
    8.3018  -12.5468   26.0904 C   0  0  0  0  0  0  0  0  0  0  0  0
    8.8344  -16.2358   24.1739 O   0  0  0  0  0  0  0  0  0  0  0  0
    8.0647  -17.2251   24.0006 C   0  0  0  0  0  0  0  0  0  0  0  0
   12.2786  -17.6196   24.1198 C   0  0  2  0  0  0  0  0  0  0  0  0
   10.8106  -17.7899   24.4643 N   0  0  0  0  0  0  0  0  0  0  0  0
   10.2085  -16.4765   24.3872 C   0  0  0  0  0  0  0  0  0  0  0  0
   10.6733  -18.3587   25.8375 O   0  0  0  0  0  0  0  0  0  0  0  0
   10.2644  -17.6193   26.7766 O   0  0  0  0  0  0  0  0  0  0  0  0
  2  1  1  0
  3  2  2  0
  4  2  1  0
  5  4  1  0
  6  5  1  0
  6  7  1  0
  8  7  1  0
  8  9  1  6
 10 12  1  0
 10  8  1  0
 11 10  2  0
 13 21  1  0
 13 12  1  0
 13 14  1  1
 15 16  2  0
 15 14  1  0
 17 16  1  0
 18 17  2  0
 19 18  1  0
 19 20  2  0
 20 15  1  0
 21 22  2  0
 24 23  1  6
 25 24  1  0
 25 21  1  0
 26 28  1  0
 26 24  1  0
 27 26  2  0
M  END
$$$$
