RFA.pdb
     RDKit          3D

 28 28  0  0  1  0  0  0  0  0999 V2000
    7.9471  -14.8791   16.8599 N   0  0  0  0  0  0  0  0  0  0  0  0
    7.8121  -13.7279   17.6706 C   0  0  0  0  0  0  0  0  0  0  0  0
    8.1171  -12.5824   17.2172 N   0  0  0  0  0  0  0  0  0  0  0  0
    7.3331  -13.8236   19.0096 N   0  0  0  0  0  0  0  0  0  0  0  0
    8.2303  -13.7951   20.1168 C   0  0  0  0  0  0  0  0  0  0  0  0
    9.3034  -14.8541   20.0478 C   0  0  0  0  0  0  0  0  0  0  0  0
   10.0896  -14.7863   21.3635 C   0  0  0  0  0  0  0  0  0  0  0  0
    9.9327  -16.0649   22.1392 C   0  0  2  0  0  0  0  0  0  0  0  0
    8.7080  -16.7704   21.8212 N   0  0  0  0  0  0  0  0  0  0  0  0
    9.9566  -15.7586   23.5758 C   0  0  0  0  0  0  0  0  0  0  0  0
   10.8736  -15.0233   24.0458 O   0  0  0  0  0  0  0  0  0  0  0  0
    8.1657  -11.7113   17.7892 N   0  0  0  0  0  0  0  0  0  0  0  0
    8.9656  -16.2751   24.4488 C   0  0  1  0  0  0  0  0  0  0  0  0
    8.9723  -16.0421   25.8749 C   0  0  0  0  0  0  0  0  0  0  0  0
    7.5937  -15.6972   26.3722 C   0  0  0  0  0  0  0  0  0  0  0  0
    7.3047  -14.2497   26.3353 C   0  0  0  0  0  0  0  0  0  0  0  0
    7.7638  -13.4160   27.3233 C   0  0  0  0  0  0  0  0  0  0  0  0
    7.4987  -12.0417   27.3017 C   0  0  0  0  0  0  0  0  0  0  0  0
    6.7683  -11.5088   26.2796 C   0  0  0  0  0  0  0  0  0  0  0  0
    6.3041  -12.3361   25.2852 C   0  0  0  0  0  0  0  0  0  0  0  0
    6.5704  -13.6938   25.3138 C   0  0  0  0  0  0  0  0  0  0  0  0
    9.3512  -17.3331   26.5493 O   0  0  0  0  0  0  0  0  0  0  0  0
    9.0916  -17.5119   27.7748 C   0  0  0  0  0  0  0  0  0  0  0  0
   10.9024  -20.4904   25.2630 C   0  0  2  0  0  0  0  0  0  0  0  0
   10.4002  -19.6319   26.4091 N   0  0  0  0  0  0  0  0  0  0  0  0
    9.9987  -18.3650   25.8370 C   0  0  0  0  0  0  0  0  0  0  0  0
   11.4861  -19.4414   27.4153 O   0  0  0  0  0  0  0  0  0  0  0  0
   12.0805  -18.3288   27.4825 O   0  0  0  0  0  0  0  0  0  0  0  0
  2  1  1  0
  3  2  2  0
  4  2  1  0
  5  4  1  0
  6  5  1  0
  6  7  1  0
  8  7  1  0
  8  9  1  6
 10 12  1  0
 10  8  1  0
 11 10  2  0
 13 21  1  0
 13 12  1  0
 13 14  1  1
 15 16  2  0
 15 14  1  0
 17 16  1  0
 18 17  2  0
 19 18  1  0
 19 20  2  0
 20 15  1  0
 21 22  2  0
 24 23  1  6
 25 24  1  0
 25 21  1  0
 26 28  1  0
 26 24  1  0
 27 26  2  0
M  END
$$$$
