RFA.pdb
     RDKit          3D

 28 28  0  0  1  0  0  0  0  0999 V2000
    7.2653  -16.9747   16.0563 N   0  0  0  0  0  0  0  0  0  0  0  0
    8.6362  -16.7571   15.7843 C   0  0  0  0  0  0  0  0  0  0  0  0
    9.2588  -17.5100   14.9742 N   0  0  0  0  0  0  0  0  0  0  0  0
    9.3500  -15.6932   16.4091 N   0  0  0  0  0  0  0  0  0  0  0  0
    8.6634  -14.6383   17.0779 C   0  0  0  0  0  0  0  0  0  0  0  0
    7.7424  -15.1199   18.1723 C   0  0  0  0  0  0  0  0  0  0  0  0
    8.5608  -15.1513   19.4696 C   0  0  0  0  0  0  0  0  0  0  0  0
    8.1551  -14.0235   20.3777 C   0  0  2  0  0  0  0  0  0  0  0  0
    8.6285  -12.7332   19.9200 N   0  0  0  0  0  0  0  0  0  0  0  0
    8.6798  -14.2824   21.7253 C   0  0  0  0  0  0  0  0  0  0  0  0
    9.8636  -13.9401   22.0145 O   0  0  0  0  0  0  0  0  0  0  0  0
   10.2712  -17.4201   14.7388 N   0  0  0  0  0  0  0  0  0  0  0  0
    7.8790  -14.9121   22.7117 C   0  0  1  0  0  0  0  0  0  0  0  0
    8.2854  -15.0416   24.0923 C   0  0  0  0  0  0  0  0  0  0  0  0
    7.1065  -14.8993   25.0180 C   0  0  0  0  0  0  0  0  0  0  0  0
    6.8844  -13.5119   25.4717 C   0  0  0  0  0  0  0  0  0  0  0  0
    5.6358  -12.9461   25.4175 C   0  0  0  0  0  0  0  0  0  0  0  0
    5.4095  -11.6324   25.8447 C   0  0  0  0  0  0  0  0  0  0  0  0
    6.4469  -10.8890   26.3276 C   0  0  0  0  0  0  0  0  0  0  0  0
    7.7014  -11.4473   26.3858 C   0  0  0  0  0  0  0  0  0  0  0  0
    7.9170  -12.7467   25.9615 C   0  0  0  0  0  0  0  0  0  0  0  0
    8.8068  -16.4398   24.2883 O   0  0  0  0  0  0  0  0  0  0  0  0
    8.3882  -17.3842   23.5575 C   0  0  0  0  0  0  0  0  0  0  0  0
   11.6034  -17.9791   24.4330 C   0  0  2  0  0  0  0  0  0  0  0  0
   10.4517  -17.9940   25.4211 N   0  0  0  0  0  0  0  0  0  0  0  0
    9.7662  -16.7274   25.2824 C   0  0  0  0  0  0  0  0  0  0  0  0
   10.9745  -18.1673   26.8084 O   0  0  0  0  0  0  0  0  0  0  0  0
   10.8632  -17.2192   27.6357 O   0  0  0  0  0  0  0  0  0  0  0  0
  2  1  1  0
  3  2  2  0
  4  2  1  0
  5  4  1  0
  6  5  1  0
  6  7  1  0
  8  7  1  0
  8  9  1  6
 10 12  1  0
 10  8  1  0
 11 10  2  0
 13 21  1  0
 13 12  1  0
 13 14  1  1
 15 16  2  0
 15 14  1  0
 17 16  1  0
 18 17  2  0
 19 18  1  0
 19 20  2  0
 20 15  1  0
 21 22  2  0
 24 23  1  6
 25 24  1  0
 25 21  1  0
 26 28  1  0
 26 24  1  0
 27 26  2  0
M  END
$$$$
