YYL.pdb
     RDKit          3D

 33 34  0  0  1  0  0  0  0  0999 V2000
    8.5176  -13.3195   16.0873 O   0  0  0  0  0  0  0  0  0  0  0  0
    8.1637  -13.7246   17.3679 C   0  0  0  0  0  0  0  0  0  0  0  0
    7.7420  -12.7687   18.2815 C   0  0  0  0  0  0  0  0  0  0  0  0
    7.3915  -13.1686   19.5492 C   0  0  0  0  0  0  0  0  0  0  0  0
    7.4506  -14.4932   19.9277 C   0  0  0  0  0  0  0  0  0  0  0  0
    7.0708  -14.9201   21.2982 C   0  0  0  0  0  0  0  0  0  0  0  0
    7.2573  -16.4428   21.3313 C   0  0  2  0  0  0  0  0  0  0  0  0
    6.0144  -17.1107   21.0380 N   0  0  0  0  0  0  0  0  0  0  0  0
    7.6566  -16.7642   22.7349 C   0  0  0  0  0  0  0  0  0  0  0  0
    6.7743  -16.8579   23.5947 O   0  0  0  0  0  0  0  0  0  0  0  0
    7.8750  -15.4164   18.9915 C   0  0  0  0  0  0  0  0  0  0  0  0
    8.2344  -15.0392   17.7058 C   0  0  0  0  0  0  0  0  0  0  0  0
   11.8215  -19.1773   29.9562 O   0  0  0  0  0  0  0  0  0  0  0  0
   11.5149  -18.9049   28.6172 C   0  0  0  0  0  0  0  0  0  0  0  0
   12.4335  -18.2095   27.8611 C   0  0  0  0  0  0  0  0  0  0  0  0
   12.1465  -17.9305   26.5320 C   0  0  0  0  0  0  0  0  0  0  0  0
   10.9649  -18.3483   26.0000 C   0  0  0  0  0  0  0  0  0  0  0  0
   10.6191  -18.0915   24.6057 C   0  0  0  0  0  0  0  0  0  0  0  0
    9.4109  -17.1906   24.4133 C   0  0  2  0  0  0  0  0  0  0  0  0
    9.0216  -16.9580   23.0741 N   0  0  0  0  0  0  0  0  0  0  0  0
    9.6619  -15.9593   25.1953 C   0  0  0  0  0  0  0  0  0  0  0  0
   10.6093  -15.2140   24.7868 O   0  0  0  0  0  0  0  0  0  0  0  0
   10.0505  -19.0525   26.7909 C   0  0  0  0  0  0  0  0  0  0  0  0
   10.3230  -19.3298   28.0927 C   0  0  0  0  0  0  0  0  0  0  0  0
    8.1888  -12.3259   25.0439 C   0  0  0  0  0  0  0  0  0  0  0  0
    7.4233  -13.2176   25.9408 C   0  0  2  0  0  0  0  0  0  0  0  0
    6.0600  -12.6103   26.3108 C   0  0  0  0  0  0  0  0  0  0  0  0
    8.0974  -13.5473   27.2044 C   0  0  0  0  0  0  0  0  0  0  0  0
    9.3284  -14.3485   27.1413 C   0  0  2  0  0  0  0  0  0  0  0  0
    8.9556  -15.5633   26.3189 N   0  0  0  0  0  0  0  0  0  0  0  0
    9.9118  -14.9233   28.3343 C   0  0  0  0  0  0  0  0  0  0  0  0
   10.7445  -14.1627   29.1838 O   0  0  0  0  0  0  0  0  0  0  0  0
    9.7389  -16.0974   28.7052 O   0  0  0  0  0  0  0  0  0  0  0  0
  2  3  2  0
  2  1  1  0
  4  3  1  0
  5  4  2  0
  6  5  1  0
  7  6  1  0
  7  8  1  1
  9 10  2  0
  9  7  1  0
 11  5  1  0
 11 12  2  0
 12  2  1  0
 13 14  1  0
 14 24  2  0
 15 14  1  0
 15 16  2  0
 16 17  1  0
 17 23  2  0
 17 18  1  0
 19 18  1  6
 19 20  1  0
 20  9  1  0
 21 19  1  0
 21 30  1  0
 22 21  2  0
 24 23  1  0
 26 25  1  1
 26 28  1  0
 27 26  1  0
 29 28  1  1
 29 30  1  0
 29 31  1  0
 31 33  2  0
 31 32  1  0
M  END
$$$$
