YYL.pdb
     RDKit          3D

 33 34  0  0  1  0  0  0  0  0999 V2000
    0.4770  -20.1416   21.2514 O   0  0  0  0  0  0  0  0  0  0  0  0
    1.7086  -19.6226   21.6294 C   0  0  0  0  0  0  0  0  0  0  0  0
    2.2756  -18.6140   20.8628 C   0  0  0  0  0  0  0  0  0  0  0  0
    3.4945  -18.0997   21.2361 C   0  0  0  0  0  0  0  0  0  0  0  0
    4.1603  -18.5640   22.3507 C   0  0  0  0  0  0  0  0  0  0  0  0
    5.4768  -18.0050   22.7498 C   0  0  0  0  0  0  0  0  0  0  0  0
    6.3702  -18.1037   21.5062 C   0  0  2  0  0  0  0  0  0  0  0  0
    6.5842  -19.4826   21.1456 N   0  0  0  0  0  0  0  0  0  0  0  0
    7.6781  -17.5027   21.9073 C   0  0  0  0  0  0  0  0  0  0  0  0
    8.6251  -18.2567   22.1547 O   0  0  0  0  0  0  0  0  0  0  0  0
    3.5653  -19.5686   23.0894 C   0  0  0  0  0  0  0  0  0  0  0  0
    2.3361  -20.1049   22.7344 C   0  0  0  0  0  0  0  0  0  0  0  0
    7.7435  -13.4485   16.4558 O   0  0  0  0  0  0  0  0  0  0  0  0
    8.1459  -13.6242   17.7856 C   0  0  0  0  0  0  0  0  0  0  0  0
    9.0042  -14.6612   18.0808 C   0  0  0  0  0  0  0  0  0  0  0  0
    9.4137  -14.8505   19.3935 C   0  0  0  0  0  0  0  0  0  0  0  0
    8.9613  -14.0097   20.3641 C   0  0  0  0  0  0  0  0  0  0  0  0
    9.3699  -14.1574   21.7572 C   0  0  0  0  0  0  0  0  0  0  0  0
    9.0724  -15.5205   22.3585 C   0  0  2  0  0  0  0  0  0  0  0  0
    7.8301  -16.0942   22.0022 N   0  0  0  0  0  0  0  0  0  0  0  0
    9.2921  -15.4058   23.8176 C   0  0  0  0  0  0  0  0  0  0  0  0
   10.4732  -15.1119   24.1897 O   0  0  0  0  0  0  0  0  0  0  0  0
    8.0903  -12.9650   20.0359 C   0  0  0  0  0  0  0  0  0  0  0  0
    7.6842  -12.7725   18.7538 C   0  0  0  0  0  0  0  0  0  0  0  0
    8.9719  -12.3799   26.5685 C   0  0  0  0  0  0  0  0  0  0  0  0
    7.7524  -13.1380   26.2169 C   0  0  2  0  0  0  0  0  0  0  0  0
    6.4805  -12.4023   26.6699 C   0  0  0  0  0  0  0  0  0  0  0  0
    7.6835  -14.4921   26.7838 C   0  0  0  0  0  0  0  0  0  0  0  0
    8.6221  -15.5023   26.2743 C   0  0  2  0  0  0  0  0  0  0  0  0
    8.3259  -15.5908   24.7925 N   0  0  0  0  0  0  0  0  0  0  0  0
    8.5501  -16.8808   26.7087 C   0  0  0  0  0  0  0  0  0  0  0  0
    8.2272  -17.9184   25.8072 O   0  0  0  0  0  0  0  0  0  0  0  0
    8.7580  -17.2619   27.8737 O   0  0  0  0  0  0  0  0  0  0  0  0
  2  3  2  0
  2  1  1  0
  4  3  1  0
  5  4  2  0
  6  5  1  0
  7  6  1  0
  7  8  1  1
  9 10  2  0
  9  7  1  0
 11  5  1  0
 11 12  2  0
 12  2  1  0
 13 14  1  0
 14 24  2  0
 15 14  1  0
 15 16  2  0
 16 17  1  0
 17 23  2  0
 17 18  1  0
 19 18  1  6
 19 20  1  0
 20  9  1  0
 21 19  1  0
 21 30  1  0
 22 21  2  0
 24 23  1  0
 26 25  1  1
 26 28  1  0
 27 26  1  0
 29 28  1  1
 29 30  1  0
 29 31  1  0
 31 33  2  0
 31 32  1  0
M  END
$$$$
