YYL.pdb
     RDKit          3D

 33 34  0  0  1  0  0  0  0  0999 V2000
    9.5998  -12.9549   17.3456 O   0  0  0  0  0  0  0  0  0  0  0  0
    8.7822  -13.5192   18.3163 C   0  0  0  0  0  0  0  0  0  0  0  0
    9.1064  -13.3396   19.6538 C   0  0  0  0  0  0  0  0  0  0  0  0
    8.2978  -13.8977   20.6153 C   0  0  0  0  0  0  0  0  0  0  0  0
    7.1778  -14.6279   20.2780 C   0  0  0  0  0  0  0  0  0  0  0  0
    6.3075  -15.2287   21.3203 C   0  0  0  0  0  0  0  0  0  0  0  0
    6.9627  -16.5642   21.6969 C   0  0  2  0  0  0  0  0  0  0  0  0
    6.8265  -17.5148   20.6223 N   0  0  0  0  0  0  0  0  0  0  0  0
    6.1981  -17.0626   22.8800 C   0  0  0  0  0  0  0  0  0  0  0  0
    5.4864  -18.0637   22.7460 O   0  0  0  0  0  0  0  0  0  0  0  0
    6.8867  -14.7856   18.9366 C   0  0  0  0  0  0  0  0  0  0  0  0
    7.6861  -14.2328   17.9467 C   0  0  0  0  0  0  0  0  0  0  0  0
    9.6800  -20.8514   29.4585 O   0  0  0  0  0  0  0  0  0  0  0  0
    9.2214  -20.1758   28.3208 C   0  0  0  0  0  0  0  0  0  0  0  0
    9.5998  -20.6443   27.0812 C   0  0  0  0  0  0  0  0  0  0  0  0
    9.1548  -19.9872   25.9425 C   0  0  0  0  0  0  0  0  0  0  0  0
    8.3534  -18.8939   26.0702 C   0  0  0  0  0  0  0  0  0  0  0  0
    7.8487  -18.1738   24.9056 C   0  0  0  0  0  0  0  0  0  0  0  0
    6.9232  -17.0149   25.2355 C   0  0  2  0  0  0  0  0  0  0  0  0
    6.2871  -16.4000   24.1325 N   0  0  0  0  0  0  0  0  0  0  0  0
    7.6885  -16.0821   26.0926 C   0  0  0  0  0  0  0  0  0  0  0  0
    8.1892  -16.5728   27.1549 O   0  0  0  0  0  0  0  0  0  0  0  0
    7.9849  -18.4400   27.3413 C   0  0  0  0  0  0  0  0  0  0  0  0
    8.4160  -19.0768   28.4612 C   0  0  0  0  0  0  0  0  0  0  0  0
    6.9409  -11.7559   25.3110 C   0  0  0  0  0  0  0  0  0  0  0  0
    6.5630  -12.5068   26.5271 C   0  0  2  0  0  0  0  0  0  0  0  0
    5.6400  -11.6794   27.4369 C   0  0  0  0  0  0  0  0  0  0  0  0
    7.6938  -12.9455   27.3569 C   0  0  0  0  0  0  0  0  0  0  0  0
    8.6937  -13.8339   26.7468 C   0  0  2  0  0  0  0  0  0  0  0  0
    7.8976  -14.7383   25.8307 N   0  0  0  0  0  0  0  0  0  0  0  0
    9.4585  -14.7653   27.5479 C   0  0  0  0  0  0  0  0  0  0  0  0
    8.9019  -15.9875   27.9839 O   0  0  0  0  0  0  0  0  0  0  0  0
   10.6327  -14.5795   27.9119 O   0  0  0  0  0  0  0  0  0  0  0  0
  2  3  2  0
  2  1  1  0
  4  3  1  0
  5  4  2  0
  6  5  1  0
  7  6  1  0
  7  8  1  6
  9 10  2  0
  9  7  1  0
 11  5  1  0
 11 12  2  0
 12  2  1  0
 13 14  1  0
 14 24  2  0
 15 14  1  0
 15 16  2  0
 16 17  1  0
 17 23  2  0
 17 18  1  0
 19 18  1  6
 19 20  1  0
 20  9  1  0
 21 19  1  0
 21 30  1  0
 22 21  2  0
 24 23  1  0
 26 25  1  6
 26 28  1  0
 27 26  1  0
 29 28  1  1
 29 30  1  0
 29 31  1  0
 31 33  2  0
 31 32  1  0
M  END
$$$$
