YYL.pdb
     RDKit          3D

 33 34  0  0  1  0  0  0  0  0999 V2000
    8.1046  -12.2769   16.2311 O   0  0  0  0  0  0  0  0  0  0  0  0
    7.9884  -12.8916   17.4711 C   0  0  0  0  0  0  0  0  0  0  0  0
    9.1429  -13.2190   18.1685 C   0  0  0  0  0  0  0  0  0  0  0  0
    9.0290  -13.8275   19.3959 C   0  0  0  0  0  0  0  0  0  0  0  0
    7.7971  -14.1168   19.9438 C   0  0  0  0  0  0  0  0  0  0  0  0
    7.6793  -14.7741   21.2700 C   0  0  0  0  0  0  0  0  0  0  0  0
    8.2269  -16.1956   21.0852 C   0  0  2  0  0  0  0  0  0  0  0  0
    7.2698  -17.0196   20.3909 N   0  0  0  0  0  0  0  0  0  0  0  0
    8.4120  -16.7333   22.4669 C   0  0  0  0  0  0  0  0  0  0  0  0
    7.4544  -17.2828   23.0216 O   0  0  0  0  0  0  0  0  0  0  0  0
    6.6701  -13.7763   19.2207 C   0  0  0  0  0  0  0  0  0  0  0  0
    6.7574  -13.1617   17.9800 C   0  0  0  0  0  0  0  0  0  0  0  0
   10.2903  -22.7423   21.6125 O   0  0  0  0  0  0  0  0  0  0  0  0
   10.4458  -21.5846   22.3849 C   0  0  0  0  0  0  0  0  0  0  0  0
   11.1371  -20.5219   21.8445 C   0  0  0  0  0  0  0  0  0  0  0  0
   11.3010  -19.3664   22.5956 C   0  0  0  0  0  0  0  0  0  0  0  0
   10.7765  -19.3032   23.8505 C   0  0  0  0  0  0  0  0  0  0  0  0
   10.9102  -18.1083   24.6775 C   0  0  0  0  0  0  0  0  0  0  0  0
    9.8248  -17.0679   24.4591 C   0  0  2  0  0  0  0  0  0  0  0  0
    9.6623  -16.6156   23.1293 N   0  0  0  0  0  0  0  0  0  0  0  0
   10.0579  -15.9878   25.4437 C   0  0  0  0  0  0  0  0  0  0  0  0
   11.1222  -15.3062   25.2931 O   0  0  0  0  0  0  0  0  0  0  0  0
   10.0792  -20.3973   24.3743 C   0  0  0  0  0  0  0  0  0  0  0  0
    9.9142  -21.5324   23.6462 C   0  0  0  0  0  0  0  0  0  0  0  0
    8.7856  -12.1939   25.7026 C   0  0  0  0  0  0  0  0  0  0  0  0
    7.8539  -13.1546   26.3307 C   0  0  2  0  0  0  0  0  0  0  0  0
    6.5006  -12.4996   26.6528 C   0  0  0  0  0  0  0  0  0  0  0  0
    8.3402  -13.7588   27.5789 C   0  0  0  0  0  0  0  0  0  0  0  0
    9.5470  -14.5960   27.5161 C   0  0  2  0  0  0  0  0  0  0  0  0
    9.2197  -15.6679   26.4988 N   0  0  0  0  0  0  0  0  0  0  0  0
    9.9945  -15.3552   28.6639 C   0  0  0  0  0  0  0  0  0  0  0  0
   10.7296  -14.7471   29.7048 O   0  0  0  0  0  0  0  0  0  0  0  0
    9.7800  -16.5684   28.8306 O   0  0  0  0  0  0  0  0  0  0  0  0
  2  3  2  0
  2  1  1  0
  4  3  1  0
  5  4  2  0
  6  5  1  0
  7  6  1  0
  7  8  1  6
  9 10  2  0
  9  7  1  0
 11  5  1  0
 11 12  2  0
 12  2  1  0
 13 14  1  0
 14 24  2  0
 15 14  1  0
 15 16  2  0
 16 17  1  0
 17 23  2  0
 17 18  1  0
 19 18  1  6
 19 20  1  0
 20  9  1  0
 21 19  1  0
 21 30  1  0
 22 21  2  0
 24 23  1  0
 26 25  1  1
 26 28  1  0
 27 26  1  0
 29 28  1  1
 29 30  1  0
 29 31  1  0
 31 33  2  0
 31 32  1  0
M  END
$$$$
