YYL.pdb
     RDKit          3D

 33 34  0  0  1  0  0  0  0  0999 V2000
   10.4384  -12.4020   17.8826 O   0  0  0  0  0  0  0  0  0  0  0  0
    9.4247  -13.0238   18.6001 C   0  0  0  0  0  0  0  0  0  0  0  0
    8.1200  -12.9317   18.1356 C   0  0  0  0  0  0  0  0  0  0  0  0
    7.1160  -13.5467   18.8450 C   0  0  0  0  0  0  0  0  0  0  0  0
    7.3790  -14.2490   20.0022 C   0  0  0  0  0  0  0  0  0  0  0  0
    6.2908  -14.9117   20.7649 C   0  0  0  0  0  0  0  0  0  0  0  0
    6.5819  -16.4165   20.6917 C   0  0  2  0  0  0  0  0  0  0  0  0
    5.5121  -17.1059   20.0153 N   0  0  0  0  0  0  0  0  0  0  0  0
    6.6324  -16.8814   22.1108 C   0  0  0  0  0  0  0  0  0  0  0  0
    5.5726  -17.1665   22.6785 O   0  0  0  0  0  0  0  0  0  0  0  0
    8.6895  -14.3192   20.4340 C   0  0  0  0  0  0  0  0  0  0  0  0
    9.7211  -13.7076   19.7367 C   0  0  0  0  0  0  0  0  0  0  0  0
    8.4984  -19.9289   29.9585 O   0  0  0  0  0  0  0  0  0  0  0  0
    8.5029  -19.6191   28.5928 C   0  0  0  0  0  0  0  0  0  0  0  0
    7.2947  -19.5252   27.9364 C   0  0  0  0  0  0  0  0  0  0  0  0
    7.2799  -19.2191   26.5827 C   0  0  0  0  0  0  0  0  0  0  0  0
    8.4568  -19.0170   25.9287 C   0  0  0  0  0  0  0  0  0  0  0  0
    8.4967  -18.6813   24.5091 C   0  0  0  0  0  0  0  0  0  0  0  0
    7.9170  -17.3188   24.1687 C   0  0  2  0  0  0  0  0  0  0  0  0
    7.8723  -16.9934   22.7934 N   0  0  0  0  0  0  0  0  0  0  0  0
    8.6284  -16.3261   25.0047 C   0  0  0  0  0  0  0  0  0  0  0  0
    9.8701  -16.1754   24.7692 O   0  0  0  0  0  0  0  0  0  0  0  0
    9.6690  -19.1188   26.6201 C   0  0  0  0  0  0  0  0  0  0  0  0
    9.6929  -19.4182   27.9451 C   0  0  0  0  0  0  0  0  0  0  0  0
    8.4157  -12.0686   24.9294 C   0  0  0  0  0  0  0  0  0  0  0  0
    7.3768  -12.7360   25.7422 C   0  0  2  0  0  0  0  0  0  0  0  0
    6.2929  -11.7447   26.1968 C   0  0  0  0  0  0  0  0  0  0  0  0
    7.8755  -13.4033   26.9529 C   0  0  0  0  0  0  0  0  0  0  0  0
    8.8221  -14.5158   26.7875 C   0  0  2  0  0  0  0  0  0  0  0  0
    8.0549  -15.5615   26.0070 N   0  0  0  0  0  0  0  0  0  0  0  0
    9.3196  -15.2540   27.9285 C   0  0  0  0  0  0  0  0  0  0  0  0
   10.4610  -14.8241   28.6397 O   0  0  0  0  0  0  0  0  0  0  0  0
    8.8052  -16.2966   28.3692 O   0  0  0  0  0  0  0  0  0  0  0  0
  2  3  2  0
  2  1  1  0
  4  3  1  0
  5  4  2  0
  6  5  1  0
  7  6  1  0
  7  8  1  6
  9 10  2  0
  9  7  1  0
 11  5  1  0
 11 12  2  0
 12  2  1  0
 13 14  1  0
 14 24  2  0
 15 14  1  0
 15 16  2  0
 16 17  1  0
 17 23  2  0
 17 18  1  0
 19 18  1  6
 19 20  1  0
 20  9  1  0
 21 19  1  0
 21 30  1  0
 22 21  2  0
 24 23  1  0
 26 25  1  1
 26 28  1  0
 27 26  1  0
 29 28  1  1
 29 30  1  0
 29 31  1  0
 31 33  2  0
 31 32  1  0
M  END
$$$$
