YYL.pdb
     RDKit          3D

 33 34  0  0  1  0  0  0  0  0999 V2000
    7.6031  -12.0308   16.6716 O   0  0  0  0  0  0  0  0  0  0  0  0
    7.6799  -12.8507   17.7900 C   0  0  0  0  0  0  0  0  0  0  0  0
    8.9071  -13.0182   18.4163 C   0  0  0  0  0  0  0  0  0  0  0  0
    8.9841  -13.8296   19.5233 C   0  0  0  0  0  0  0  0  0  0  0  0
    7.8721  -14.4761   20.0201 C   0  0  0  0  0  0  0  0  0  0  0  0
    7.9604  -15.3514   21.2163 C   0  0  0  0  0  0  0  0  0  0  0  0
    9.3797  -15.1662   21.7692 C   0  0  2  0  0  0  0  0  0  0  0  0
   10.3587  -15.4040   20.7387 N   0  0  0  0  0  0  0  0  0  0  0  0
    9.5331  -16.2089   22.8285 C   0  0  0  0  0  0  0  0  0  0  0  0
    8.6197  -16.3606   23.6465 O   0  0  0  0  0  0  0  0  0  0  0  0
    6.6676  -14.2856   19.3706 C   0  0  0  0  0  0  0  0  0  0  0  0
    6.5628  -13.4722   18.2516 C   0  0  0  0  0  0  0  0  0  0  0  0
   10.5522  -22.1868   19.2303 O   0  0  0  0  0  0  0  0  0  0  0  0
   10.8802  -21.4002   20.3415 C   0  0  0  0  0  0  0  0  0  0  0  0
   10.3922  -21.7708   21.5760 C   0  0  0  0  0  0  0  0  0  0  0  0
   10.7070  -21.0030   22.6886 C   0  0  0  0  0  0  0  0  0  0  0  0
   11.4911  -19.8997   22.5409 C   0  0  0  0  0  0  0  0  0  0  0  0
   11.8613  -19.0650   23.6793 C   0  0  0  0  0  0  0  0  0  0  0  0
   10.9024  -17.9198   23.9573 C   0  0  2  0  0  0  0  0  0  0  0  0
   10.7040  -17.0092   22.8940 N   0  0  0  0  0  0  0  0  0  0  0  0
   11.3387  -17.2893   25.2232 C   0  0  0  0  0  0  0  0  0  0  0  0
   12.1748  -16.3352   25.1204 O   0  0  0  0  0  0  0  0  0  0  0  0
   11.9727  -19.5467   21.2756 C   0  0  0  0  0  0  0  0  0  0  0  0
   11.6694  -20.2923   20.1811 C   0  0  0  0  0  0  0  0  0  0  0  0
    8.5066  -13.6660   27.7320 C   0  0  0  0  0  0  0  0  0  0  0  0
    9.5749  -14.5830   28.1829 C   0  0  2  0  0  0  0  0  0  0  0  0
   10.8615  -13.8193   28.5373 C   0  0  0  0  0  0  0  0  0  0  0  0
    9.9507  -15.6177   27.2092 C   0  0  0  0  0  0  0  0  0  0  0  0
   10.8609  -16.6839   27.6519 C   0  0  2  0  0  0  0  0  0  0  0  0
   10.9131  -17.6528   26.4901 N   0  0  0  0  0  0  0  0  0  0  0  0
   10.5314  -17.5334   28.7762 C   0  0  0  0  0  0  0  0  0  0  0  0
    9.5884  -18.5774   28.6556 O   0  0  0  0  0  0  0  0  0  0  0  0
   11.0308  -17.4238   29.9094 O   0  0  0  0  0  0  0  0  0  0  0  0
  2  3  2  0
  2  1  1  0
  4  3  1  0
  5  4  2  0
  6  5  1  0
  7  6  1  0
  7  8  1  6
  9 10  2  0
  9  7  1  0
 11  5  1  0
 11 12  2  0
 12  2  1  0
 13 14  1  0
 14 24  2  0
 15 14  1  0
 15 16  2  0
 16 17  1  0
 17 23  2  0
 17 18  1  0
 19 18  1  6
 19 20  1  0
 20  9  1  0
 21 19  1  0
 21 30  1  0
 22 21  2  0
 24 23  1  0
 26 25  1  6
 26 28  1  0
 27 26  1  0
 29 28  1  6
 29 30  1  0
 29 31  1  0
 31 33  2  0
 31 32  1  0
M  END
$$$$
