YYL.pdb
     RDKit          3D

 33 34  0  0  1  0  0  0  0  0999 V2000
    8.9686  -13.4863   15.6472 O   0  0  0  0  0  0  0  0  0  0  0  0
    8.5272  -13.7552   16.9363 C   0  0  0  0  0  0  0  0  0  0  0  0
    9.3007  -14.5661   17.7551 C   0  0  0  0  0  0  0  0  0  0  0  0
    8.8646  -14.8328   19.0312 C   0  0  0  0  0  0  0  0  0  0  0  0
    7.6807  -14.3130   19.5101 C   0  0  0  0  0  0  0  0  0  0  0  0
    7.2140  -14.6040   20.8894 C   0  0  0  0  0  0  0  0  0  0  0  0
    7.7197  -16.0155   21.2156 C   0  0  2  0  0  0  0  0  0  0  0  0
    6.9991  -17.0003   20.4489 N   0  0  0  0  0  0  0  0  0  0  0  0
    7.4197  -16.2203   22.6650 C   0  0  0  0  0  0  0  0  0  0  0  0
    6.5640  -15.5068   23.1991 O   0  0  0  0  0  0  0  0  0  0  0  0
    6.9372  -13.5101   18.6666 C   0  0  0  0  0  0  0  0  0  0  0  0
    7.3547  -13.2255   17.3746 C   0  0  0  0  0  0  0  0  0  0  0  0
    5.1773  -22.8095   23.0943 O   0  0  0  0  0  0  0  0  0  0  0  0
    5.9290  -21.7773   23.6692 C   0  0  0  0  0  0  0  0  0  0  0  0
    5.4439  -21.1650   24.8046 C   0  0  0  0  0  0  0  0  0  0  0  0
    6.1755  -20.1399   25.3882 C   0  0  0  0  0  0  0  0  0  0  0  0
    7.3573  -19.7587   24.8299 C   0  0  0  0  0  0  0  0  0  0  0  0
    8.1708  -18.6949   25.4099 C   0  0  0  0  0  0  0  0  0  0  0  0
    7.9263  -17.3196   24.8124 C   0  0  2  0  0  0  0  0  0  0  0  0
    8.1035  -17.2142   23.4136 N   0  0  0  0  0  0  0  0  0  0  0  0
    8.7291  -16.3579   25.6004 C   0  0  0  0  0  0  0  0  0  0  0  0
    9.9623  -16.2700   25.2978 O   0  0  0  0  0  0  0  0  0  0  0  0
    7.8259  -20.3977   23.6768 C   0  0  0  0  0  0  0  0  0  0  0  0
    7.1163  -21.4018   23.0988 C   0  0  0  0  0  0  0  0  0  0  0  0
    8.4705  -12.3556   25.3858 C   0  0  0  0  0  0  0  0  0  0  0  0
    7.5946  -12.8627   26.4634 C   0  0  2  0  0  0  0  0  0  0  0  0
    6.6633  -11.7623   26.9982 C   0  0  0  0  0  0  0  0  0  0  0  0
    8.3041  -13.4187   27.6242 C   0  0  0  0  0  0  0  0  0  0  0  0
    9.1283  -14.6186   27.4194 C   0  0  2  0  0  0  0  0  0  0  0  0
    8.2482  -15.5595   26.6249 N   0  0  0  0  0  0  0  0  0  0  0  0
    9.5593  -15.4326   28.5356 C   0  0  0  0  0  0  0  0  0  0  0  0
   10.6268  -15.0308   29.3679 O   0  0  0  0  0  0  0  0  0  0  0  0
    9.0470  -16.5208   28.8506 O   0  0  0  0  0  0  0  0  0  0  0  0
  2  3  2  0
  2  1  1  0
  4  3  1  0
  5  4  2  0
  6  5  1  0
  7  6  1  0
  7  8  1  6
  9 10  2  0
  9  7  1  0
 11  5  1  0
 11 12  2  0
 12  2  1  0
 13 14  1  0
 14 24  2  0
 15 14  1  0
 15 16  2  0
 16 17  1  0
 17 23  2  0
 17 18  1  0
 19 18  1  1
 19 20  1  0
 20  9  1  0
 21 19  1  0
 21 30  1  0
 22 21  2  0
 24 23  1  0
 26 25  1  6
 26 28  1  0
 27 26  1  0
 29 28  1  1
 29 30  1  0
 29 31  1  0
 31 33  2  0
 31 32  1  0
M  END
$$$$
