YYL.pdb
     RDKit          3D

 33 34  0  0  1  0  0  0  0  0999 V2000
    9.3312  -13.8093   16.5649 O   0  0  0  0  0  0  0  0  0  0  0  0
    8.6248  -14.1541   17.7100 C   0  0  0  0  0  0  0  0  0  0  0  0
    7.9972  -13.1529   18.4382 C   0  0  0  0  0  0  0  0  0  0  0  0
    7.2978  -13.4932   19.5717 C   0  0  0  0  0  0  0  0  0  0  0  0
    7.2085  -14.8021   19.9961 C   0  0  0  0  0  0  0  0  0  0  0  0
    6.4517  -15.1645   21.2212 C   0  0  0  0  0  0  0  0  0  0  0  0
    6.5367  -16.6926   21.3316 C   0  0  2  0  0  0  0  0  0  0  0  0
    5.3564  -17.3058   20.7768 N   0  0  0  0  0  0  0  0  0  0  0  0
    6.5869  -16.9834   22.7964 C   0  0  0  0  0  0  0  0  0  0  0  0
    5.5250  -17.0392   23.4256 O   0  0  0  0  0  0  0  0  0  0  0  0
    7.8460  -15.7715   19.2460 C   0  0  0  0  0  0  0  0  0  0  0  0
    8.5582  -15.4549   18.0983 C   0  0  0  0  0  0  0  0  0  0  0  0
    5.1364  -23.0015   24.6581 O   0  0  0  0  0  0  0  0  0  0  0  0
    5.9641  -21.8879   24.8473 C   0  0  0  0  0  0  0  0  0  0  0  0
    5.8509  -21.1772   26.0226 C   0  0  0  0  0  0  0  0  0  0  0  0
    6.6632  -20.0705   26.2274 C   0  0  0  0  0  0  0  0  0  0  0  0
    7.5560  -19.7078   25.2656 C   0  0  0  0  0  0  0  0  0  0  0  0
    8.4412  -18.5601   25.4356 C   0  0  0  0  0  0  0  0  0  0  0  0
    7.9025  -17.2603   24.8625 C   0  0  2  0  0  0  0  0  0  0  0  0
    7.8289  -17.1914   23.4522 N   0  0  0  0  0  0  0  0  0  0  0  0
    8.6746  -16.1616   25.4847 C   0  0  0  0  0  0  0  0  0  0  0  0
    9.8195  -15.9212   24.9832 O   0  0  0  0  0  0  0  0  0  0  0  0
    7.6496  -20.4476   24.0817 C   0  0  0  0  0  0  0  0  0  0  0  0
    6.8584  -21.5320   23.8727 C   0  0  0  0  0  0  0  0  0  0  0  0
    8.1535  -12.2573   24.9514 C   0  0  0  0  0  0  0  0  0  0  0  0
    7.3341  -12.7204   26.0915 C   0  0  2  0  0  0  0  0  0  0  0  0
    6.3574  -11.6308   26.5637 C   0  0  0  0  0  0  0  0  0  0  0  0
    8.1020  -13.1416   27.2716 C   0  0  0  0  0  0  0  0  0  0  0  0
    9.0660  -14.2400   27.1118 C   0  0  2  0  0  0  0  0  0  0  0  0
    8.2528  -15.3880   26.5533 N   0  0  0  0  0  0  0  0  0  0  0  0
    9.7284  -14.8297   28.2553 C   0  0  0  0  0  0  0  0  0  0  0  0
   10.8421  -14.2071   28.8600 O   0  0  0  0  0  0  0  0  0  0  0  0
    9.3887  -15.9000   28.7889 O   0  0  0  0  0  0  0  0  0  0  0  0
  2  3  2  0
  2  1  1  0
  4  3  1  0
  5  4  2  0
  6  5  1  0
  7  6  1  0
  7  8  1  1
  9 10  2  0
  9  7  1  0
 11  5  1  0
 11 12  2  0
 12  2  1  0
 13 14  1  0
 14 24  2  0
 15 14  1  0
 15 16  2  0
 16 17  1  0
 17 23  2  0
 17 18  1  0
 19 18  1  6
 19 20  1  0
 20  9  1  0
 21 19  1  0
 21 30  1  0
 22 21  2  0
 24 23  1  0
 26 25  1  6
 26 28  1  0
 27 26  1  0
 29 28  1  1
 29 30  1  0
 29 31  1  0
 31 33  2  0
 31 32  1  0
M  END
$$$$
