PAH.pdb
     RDKit          3D

 23 24  0  0  1  0  0  0  0  0999 V2000
   19.5858  -11.9902  -17.2328 N   0  0  0  0  0  0  0  0  0  0  0  0
   18.4605  -12.8186  -16.8539 C   0  0  0  0  0  0  0  0  0  0  0  0
   17.3027  -11.8898  -16.6128 C   0  0  0  0  0  0  0  0  0  0  0  0
   17.5802  -10.7542  -17.5485 C   0  0  0  0  0  0  0  0  0  0  0  0
   19.0643  -10.7820  -17.7854 C   0  0  1  0  0  0  0  0  0  0  0  0
   19.6562   -9.5652  -17.1486 C   0  0  0  0  0  0  0  0  0  0  0  0
   19.8687   -9.5177  -15.9105 O   0  0  0  0  0  0  0  0  0  0  0  0
   21.2228   -6.3088  -18.3005 C   0  0  0  0  0  0  0  0  0  0  0  0
   20.5803   -7.2413  -17.2993 C   0  0  2  0  0  0  0  0  0  0  0  0
   20.0059   -8.4104  -17.9014 N   0  0  0  0  0  0  0  0  0  0  0  0
   19.5879   -6.5202  -16.4492 C   0  0  0  0  0  0  0  0  0  0  0  0
   18.3740   -6.6410  -16.7425 O   0  0  0  0  0  0  0  0  0  0  0  0
   19.9505   -5.7237  -15.3508 N   0  0  0  0  0  0  0  0  0  0  0  0
   18.9966   -4.9897  -14.5113 C   0  0  1  0  0  0  0  0  0  0  0  0
   18.3633   -5.8720  -13.4991 C   0  0  0  0  0  0  0  0  0  0  0  0
   19.3592   -6.3252  -12.5127 C   0  0  0  0  0  0  0  0  0  0  0  0
   20.7069   -6.6221  -12.7450 C   0  0  0  0  0  0  0  0  0  0  0  0
   21.2679   -6.9990  -11.5869 N   0  0  0  0  0  0  0  0  0  0  0  0
   20.3536   -6.9584  -10.6333 C   0  0  0  0  0  0  0  0  0  0  0  0
   19.1851   -6.5457  -11.2011 N   0  0  0  0  0  0  0  0  0  0  0  0
   19.6432   -3.8124  -13.9019 C   0  0  0  0  0  0  0  0  0  0  0  0
   21.0358   -3.6570  -13.9511 O   0  0  0  0  0  0  0  0  0  0  0  0
   19.0288   -2.8943  -13.3171 O   0  0  0  0  0  0  0  0  0  0  0  0
  1  2  1  0
  3  2  1  0
  4  3  1  0
  4  5  1  0
  5  6  1  1
  5  1  1  0
  6 10  1  0
  7  6  2  0
  9  8  1  6
  9 11  1  0
 10  9  1  0
 11 13  1  0
 11 12  2  0
 13 14  1  0
 14 15  1  1
 15 16  1  0
 16 17  2  0
 17 18  1  0
 19 18  1  0
 20 16  1  0
 20 19  2  0
 21 14  1  0
 21 22  1  0
 23 21  2  0
M  END
$$$$
