PAH.pdb
     RDKit          3D

 23 24  0  0  1  0  0  0  0  0999 V2000
   18.7203  -12.7722  -18.5755 N   0  0  0  0  0  0  0  0  0  0  0  0
   19.5853  -13.5772  -19.4122 C   0  0  0  0  0  0  0  0  0  0  0  0
   20.8564  -13.7923  -18.6379 C   0  0  0  0  0  0  0  0  0  0  0  0
   20.3920  -13.7738  -17.2145 C   0  0  0  0  0  0  0  0  0  0  0  0
   19.1113  -12.9869  -17.2197 C   0  0  1  0  0  0  0  0  0  0  0  0
   19.3544  -11.7047  -16.4896 C   0  0  0  0  0  0  0  0  0  0  0  0
   19.7758  -11.7010  -15.3052 O   0  0  0  0  0  0  0  0  0  0  0  0
   19.5035   -8.0152  -17.3201 C   0  0  0  0  0  0  0  0  0  0  0  0
   19.3525   -9.2010  -16.3952 C   0  0  2  0  0  0  0  0  0  0  0  0
   19.1244  -10.4360  -17.0896 N   0  0  0  0  0  0  0  0  0  0  0  0
   18.3027   -8.9514  -15.3641 C   0  0  0  0  0  0  0  0  0  0  0  0
   17.1393   -9.3525  -15.6094 O   0  0  0  0  0  0  0  0  0  0  0  0
   18.5584   -8.2959  -14.1487 N   0  0  0  0  0  0  0  0  0  0  0  0
   17.5361   -7.9987  -13.1387 C   0  0  1  0  0  0  0  0  0  0  0  0
   18.0564   -8.1807  -11.7602 C   0  0  0  0  0  0  0  0  0  0  0  0
   16.9891   -7.9538  -10.7705 C   0  0  0  0  0  0  0  0  0  0  0  0
   15.7667   -8.6282  -10.6737 C   0  0  0  0  0  0  0  0  0  0  0  0
   15.0802   -8.1231   -9.6385 N   0  0  0  0  0  0  0  0  0  0  0  0
   15.7967   -7.1671   -9.0732 C   0  0  0  0  0  0  0  0  0  0  0  0
   16.9655   -7.0641   -9.7670 N   0  0  0  0  0  0  0  0  0  0  0  0
   16.9744   -6.6517  -13.3521 C   0  0  0  0  0  0  0  0  0  0  0  0
   15.6132   -6.4016  -13.1274 O   0  0  0  0  0  0  0  0  0  0  0  0
   17.6379   -5.6634  -13.7338 O   0  0  0  0  0  0  0  0  0  0  0  0
  1  2  1  0
  3  2  1  0
  4  3  1  0
  4  5  1  0
  5  6  1  6
  5  1  1  0
  6 10  1  0
  7  6  2  0
  9  8  1  6
  9 11  1  0
 10  9  1  0
 11 13  1  0
 11 12  2  0
 13 14  1  0
 14 15  1  1
 15 16  1  0
 16 17  2  0
 17 18  1  0
 19 18  1  0
 20 16  1  0
 20 19  2  0
 21 14  1  0
 21 22  1  0
 23 21  2  0
M  END
$$$$
