PAH.pdb
     RDKit          3D

 23 24  0  0  1  0  0  0  0  0999 V2000
   24.7199  -14.1582  -19.5871 N   0  0  0  0  0  0  0  0  0  0  0  0
   25.0670  -15.5604  -19.6843 C   0  0  0  0  0  0  0  0  0  0  0  0
   24.2388  -16.2823  -18.6576 C   0  0  0  0  0  0  0  0  0  0  0  0
   22.9974  -15.4486  -18.5783 C   0  0  0  0  0  0  0  0  0  0  0  0
   23.4039  -14.0774  -19.0405 C   0  0  1  0  0  0  0  0  0  0  0  0
   23.3332  -13.1545  -17.8658 C   0  0  0  0  0  0  0  0  0  0  0  0
   22.2500  -12.9562  -17.2594 O   0  0  0  0  0  0  0  0  0  0  0  0
   25.7544  -11.0856  -15.7877 C   0  0  0  0  0  0  0  0  0  0  0  0
   24.3993  -11.5072  -16.3079 C   0  0  2  0  0  0  0  0  0  0  0  0
   24.4745  -12.4602  -17.3782 N   0  0  0  0  0  0  0  0  0  0  0  0
   23.5740  -10.3228  -16.6872 C   0  0  0  0  0  0  0  0  0  0  0  0
   23.7871   -9.8002  -17.8079 O   0  0  0  0  0  0  0  0  0  0  0  0
   22.5836   -9.7767  -15.8547 N   0  0  0  0  0  0  0  0  0  0  0  0
   21.7302   -8.6405  -16.2209 C   0  0  1  0  0  0  0  0  0  0  0  0
   20.3551   -9.0767  -16.5712 C   0  0  0  0  0  0  0  0  0  0  0  0
   19.5306   -7.9211  -16.9650 C   0  0  0  0  0  0  0  0  0  0  0  0
   19.9426   -6.5892  -17.0870 C   0  0  0  0  0  0  0  0  0  0  0  0
   18.8909   -5.8491  -17.4668 N   0  0  0  0  0  0  0  0  0  0  0  0
   17.8356   -6.6348  -17.5927 C   0  0  0  0  0  0  0  0  0  0  0  0
   18.2282   -7.9035  -17.2852 N   0  0  0  0  0  0  0  0  0  0  0  0
   21.7399   -7.6216  -15.1544 C   0  0  0  0  0  0  0  0  0  0  0  0
   21.5312   -6.2686  -15.4573 O   0  0  0  0  0  0  0  0  0  0  0  0
   21.9262   -7.8700  -13.9436 O   0  0  0  0  0  0  0  0  0  0  0  0
  1  2  1  0
  3  2  1  0
  4  3  1  0
  4  5  1  0
  5  6  1  1
  5  1  1  0
  6 10  1  0
  7  6  2  0
  9  8  1  6
  9 11  1  0
 10  9  1  0
 11 13  1  0
 11 12  2  0
 13 14  1  0
 14 15  1  1
 15 16  1  0
 16 17  2  0
 17 18  1  0
 19 18  1  0
 20 16  1  0
 20 19  2  0
 21 14  1  0
 21 22  1  0
 23 21  2  0
M  END
$$$$
