PAH.pdb
     RDKit          3D

 23 24  0  0  1  0  0  0  0  0999 V2000
   24.7431  -32.1565   -8.3266 N   0  0  0  0  0  0  0  0  0  0  0  0
   25.5635  -32.2229   -9.5177 C   0  0  0  0  0  0  0  0  0  0  0  0
   26.6814  -33.1832   -9.2187 C   0  0  0  0  0  0  0  0  0  0  0  0
   26.0577  -34.1351   -8.2456 C   0  0  0  0  0  0  0  0  0  0  0  0
   24.9286  -33.3754   -7.6076 C   0  0  1  0  0  0  0  0  0  0  0  0
   25.2827  -33.1400   -6.1738 C   0  0  0  0  0  0  0  0  0  0  0  0
   25.9021  -32.1053   -5.8187 O   0  0  0  0  0  0  0  0  0  0  0  0
   24.0093  -34.0410   -2.8701 C   0  0  0  0  0  0  0  0  0  0  0  0
   25.2085  -33.8101   -3.7608 C   0  0  2  0  0  0  0  0  0  0  0  0
   24.9415  -34.0637   -5.1478 N   0  0  0  0  0  0  0  0  0  0  0  0
   26.3933  -34.5812   -3.2820 C   0  0  0  0  0  0  0  0  0  0  0  0
   26.6236  -35.6894   -3.8235 O   0  0  0  0  0  0  0  0  0  0  0  0
   27.2485  -34.1253   -2.2657 N   0  0  0  0  0  0  0  0  0  0  0  0
   28.3600  -34.9050   -1.7090 C   0  0  1  0  0  0  0  0  0  0  0  0
   29.1546  -34.1125   -0.7370 C   0  0  0  0  0  0  0  0  0  0  0  0
   30.3397  -34.8698   -0.2986 C   0  0  0  0  0  0  0  0  0  0  0  0
   30.9272  -35.9676   -0.9373 C   0  0  0  0  0  0  0  0  0  0  0  0
   31.9854  -36.3661   -0.2166 N   0  0  0  0  0  0  0  0  0  0  0  0
   32.1030  -35.5842    0.8424 C   0  0  0  0  0  0  0  0  0  0  0  0
   31.0948  -34.6681    0.7915 N   0  0  0  0  0  0  0  0  0  0  0  0
   27.8665  -36.1689   -1.1304 C   0  0  0  0  0  0  0  0  0  0  0  0
   28.5973  -37.3561   -1.2795 O   0  0  0  0  0  0  0  0  0  0  0  0
   26.8014  -36.2807   -0.4858 O   0  0  0  0  0  0  0  0  0  0  0  0
  1  2  1  0
  3  2  1  0
  4  3  1  0
  4  5  1  0
  5  6  1  1
  5  1  1  0
  6 10  1  0
  7  6  2  0
  9  8  1  1
  9 11  1  0
 10  9  1  0
 11 13  1  0
 11 12  2  0
 13 14  1  0
 14 15  1  1
 15 16  1  0
 16 17  2  0
 17 18  1  0
 19 18  1  0
 20 16  1  0
 20 19  2  0
 21 14  1  0
 21 22  1  0
 23 21  2  0
M  END
$$$$
