PAH.pdb
     RDKit          3D

 23 24  0  0  1  0  0  0  0  0999 V2000
   29.7873  -20.2584  -10.0201 N   0  0  0  0  0  0  0  0  0  0  0  0
   30.9142  -21.0121   -9.5120 C   0  0  0  0  0  0  0  0  0  0  0  0
   30.8759  -22.3545  -10.1887 C   0  0  0  0  0  0  0  0  0  0  0  0
   30.2537  -22.0463  -11.5153 C   0  0  0  0  0  0  0  0  0  0  0  0
   29.4584  -20.7885  -11.3039 C   0  0  1  0  0  0  0  0  0  0  0  0
   28.0082  -21.1343  -11.4203 C   0  0  0  0  0  0  0  0  0  0  0  0
   27.5671  -21.7595  -12.4178 O   0  0  0  0  0  0  0  0  0  0  0  0
   24.9237  -20.9311   -9.2111 C   0  0  0  0  0  0  0  0  0  0  0  0
   25.6757  -21.1397  -10.5055 C   0  0  2  0  0  0  0  0  0  0  0  0
   27.0619  -20.7783  -10.4202 N   0  0  0  0  0  0  0  0  0  0  0  0
   24.9987  -20.4470  -11.6410 C   0  0  0  0  0  0  0  0  0  0  0  0
   25.0604  -19.1943  -11.6781 O   0  0  0  0  0  0  0  0  0  0  0  0
   24.3058  -21.1282  -12.6549 N   0  0  0  0  0  0  0  0  0  0  0  0
   23.6190  -20.4705  -13.7725 C   0  0  1  0  0  0  0  0  0  0  0  0
   23.7896  -21.2223  -15.0412 C   0  0  0  0  0  0  0  0  0  0  0  0
   23.0600  -20.5605  -16.1365 C   0  0  0  0  0  0  0  0  0  0  0  0
   22.2211  -19.4443  -16.0423 C   0  0  0  0  0  0  0  0  0  0  0  0
   21.7530  -19.1563  -17.2654 N   0  0  0  0  0  0  0  0  0  0  0  0
   22.2466  -20.0256  -18.1300 C   0  0  0  0  0  0  0  0  0  0  0  0
   23.0468  -20.8851  -17.4379 N   0  0  0  0  0  0  0  0  0  0  0  0
   22.1995  -20.2409  -13.4440 C   0  0  0  0  0  0  0  0  0  0  0  0
   21.5539  -19.0641  -13.8493 O   0  0  0  0  0  0  0  0  0  0  0  0
   21.4848  -21.0432  -12.8052 O   0  0  0  0  0  0  0  0  0  0  0  0
  1  2  1  0
  3  2  1  0
  4  3  1  0
  4  5  1  0
  5  6  1  1
  5  1  1  0
  6 10  1  0
  7  6  2  0
  9  8  1  1
  9 11  1  0
 10  9  1  0
 11 13  1  0
 11 12  2  0
 13 14  1  0
 14 15  1  6
 15 16  1  0
 16 17  2  0
 17 18  1  0
 19 18  1  0
 20 16  1  0
 20 19  2  0
 21 14  1  0
 21 22  1  0
 23 21  2  0
M  END
$$$$
