PAH.pdb
     RDKit          3D

 23 24  0  0  1  0  0  0  0  0999 V2000
   26.4498  -18.1621  -15.1858 N   0  0  0  0  0  0  0  0  0  0  0  0
   27.5774  -17.2564  -15.2509 C   0  0  0  0  0  0  0  0  0  0  0  0
   28.8167  -18.1020  -15.1485 C   0  0  0  0  0  0  0  0  0  0  0  0
   28.3947  -19.3964  -15.7720 C   0  0  0  0  0  0  0  0  0  0  0  0
   26.8989  -19.4415  -15.6315 C   0  0  1  0  0  0  0  0  0  0  0  0
   26.5587  -20.5305  -14.6647 C   0  0  0  0  0  0  0  0  0  0  0  0
   26.4817  -21.7289  -15.0364 O   0  0  0  0  0  0  0  0  0  0  0  0
   26.1120  -21.0757  -10.9715 C   0  0  0  0  0  0  0  0  0  0  0  0
   25.7063  -21.2403  -12.4182 C   0  0  2  0  0  0  0  0  0  0  0  0
   26.3072  -20.2711  -13.2892 N   0  0  0  0  0  0  0  0  0  0  0  0
   24.2209  -21.2598  -12.5635 C   0  0  0  0  0  0  0  0  0  0  0  0
   23.5839  -22.1221  -11.9116 O   0  0  0  0  0  0  0  0  0  0  0  0
   23.5167  -20.3667  -13.3873 N   0  0  0  0  0  0  0  0  0  0  0  0
   22.0657  -20.4093  -13.6023 C   0  0  1  0  0  0  0  0  0  0  0  0
   21.4675  -19.0507  -13.5850 C   0  0  0  0  0  0  0  0  0  0  0  0
   20.0218  -19.1187  -13.8595 C   0  0  0  0  0  0  0  0  0  0  0  0
   19.0843  -19.9652  -13.2570 C   0  0  0  0  0  0  0  0  0  0  0  0
   17.8782  -19.7134  -13.7861 N   0  0  0  0  0  0  0  0  0  0  0  0
   17.9966  -18.7560  -14.6895 C   0  0  0  0  0  0  0  0  0  0  0  0
   19.3096  -18.3924  -14.7338 N   0  0  0  0  0  0  0  0  0  0  0  0
   21.7477  -21.1455  -14.8403 C   0  0  0  0  0  0  0  0  0  0  0  0
   20.6581  -22.0266  -14.8874 O   0  0  0  0  0  0  0  0  0  0  0  0
   22.3956  -21.0478  -15.9048 O   0  0  0  0  0  0  0  0  0  0  0  0
  1  2  1  0
  3  2  1  0
  4  3  1  0
  4  5  1  0
  5  6  1  1
  5  1  1  0
  6 10  1  0
  7  6  2  0
  9  8  1  1
  9 11  1  0
 10  9  1  0
 11 13  1  0
 11 12  2  0
 13 14  1  0
 14 15  1  6
 15 16  1  0
 16 17  2  0
 17 18  1  0
 19 18  1  0
 20 16  1  0
 20 19  2  0
 21 14  1  0
 21 22  1  0
 23 21  2  0
M  END
$$$$
