PAH.pdb
     RDKit          3D

 23 24  0  0  1  0  0  0  0  0999 V2000
   26.0314  -24.8847  -19.0285 N   0  0  0  0  0  0  0  0  0  0  0  0
   24.8660  -24.0531  -18.8133 C   0  0  0  0  0  0  0  0  0  0  0  0
   24.2995  -24.4417  -17.4757 C   0  0  0  0  0  0  0  0  0  0  0  0
   25.5104  -24.8761  -16.7094 C   0  0  0  0  0  0  0  0  0  0  0  0
   26.5182  -25.2835  -17.7474 C   0  0  1  0  0  0  0  0  0  0  0  0
   26.7098  -26.7634  -17.6489 C   0  0  0  0  0  0  0  0  0  0  0  0
   26.0206  -27.5554  -18.3402 O   0  0  0  0  0  0  0  0  0  0  0  0
   29.1767  -29.1300  -15.9978 C   0  0  0  0  0  0  0  0  0  0  0  0
   27.8993  -28.7618  -16.7170 C   0  0  2  0  0  0  0  0  0  0  0  0
   27.6709  -27.3464  -16.7778 N   0  0  0  0  0  0  0  0  0  0  0  0
   26.7268  -29.4806  -16.1372 C   0  0  0  0  0  0  0  0  0  0  0  0
   25.8705  -28.7978  -15.5249 O   0  0  0  0  0  0  0  0  0  0  0  0
   26.5443  -30.8688  -16.2464 N   0  0  0  0  0  0  0  0  0  0  0  0
   25.4299  -31.6064  -15.6401 C   0  0  1  0  0  0  0  0  0  0  0  0
   24.1579  -31.3783  -16.3709 C   0  0  0  0  0  0  0  0  0  0  0  0
   23.0590  -32.1330  -15.7439 C   0  0  0  0  0  0  0  0  0  0  0  0
   22.4068  -31.8375  -14.5415 C   0  0  0  0  0  0  0  0  0  0  0  0
   21.4669  -32.7688  -14.3245 N   0  0  0  0  0  0  0  0  0  0  0  0
   21.4852  -33.6380  -15.3200 C   0  0  0  0  0  0  0  0  0  0  0  0
   22.4605  -33.2478  -16.1888 N   0  0  0  0  0  0  0  0  0  0  0  0
   25.7602  -33.0392  -15.5244 C   0  0  0  0  0  0  0  0  0  0  0  0
   26.9925  -33.5273  -15.9817 O   0  0  0  0  0  0  0  0  0  0  0  0
   25.0012  -33.9000  -15.0291 O   0  0  0  0  0  0  0  0  0  0  0  0
  1  2  1  0
  3  2  1  0
  4  3  1  0
  4  5  1  0
  5  6  1  6
  5  1  1  0
  6 10  1  0
  7  6  2  0
  9  8  1  1
  9 11  1  0
 10  9  1  0
 11 13  1  0
 11 12  2  0
 13 14  1  0
 14 15  1  6
 15 16  1  0
 16 17  2  0
 17 18  1  0
 19 18  1  0
 20 16  1  0
 20 19  2  0
 21 14  1  0
 21 22  1  0
 23 21  2  0
M  END
$$$$
