MIH.pdb
     RDKit          3D

 27 27  0  0  1  0  0  0  0  0999 V2000
    6.5561  -18.0584   28.1552 C   0  0  0  0  0  0  0  0  0  0  0  0
    7.4737  -19.2604   27.2326 S   0  0  0  0  0  0  0  0  0  0  0  0
    7.0904  -19.4694   25.5185 C   0  0  0  0  0  0  0  0  0  0  0  0
    6.2178  -18.4514   24.8948 C   0  0  0  0  0  0  0  0  0  0  0  0
    5.9275  -18.6183   23.4535 C   0  0  2  0  0  0  0  0  0  0  0  0
    5.8076  -19.9583   22.9921 N   0  0  0  0  0  0  0  0  0  0  0  0
    6.9230  -17.8750   22.6188 C   0  0  0  0  0  0  0  0  0  0  0  0
    7.7209  -18.5143   21.9160 O   0  0  0  0  0  0  0  0  0  0  0  0
    8.0762  -12.4297   19.9969 C   0  0  0  0  0  0  0  0  0  0  0  0
    8.5136  -13.7711   20.4749 C   0  0  0  0  0  0  0  0  0  0  0  0
    7.4879  -14.4342   21.3952 C   0  0  2  0  0  0  0  0  0  0  0  0
    7.3758  -13.5064   22.5761 C   0  0  0  0  0  0  0  0  0  0  0  0
    8.0313  -15.7785   21.8020 C   0  0  2  0  0  0  0  0  0  0  0  0
    6.9928  -16.4757   22.5972 N   0  0  0  0  0  0  0  0  0  0  0  0
    9.2773  -15.7092   22.6077 C   0  0  0  0  0  0  0  0  0  0  0  0
    9.1571  -15.8758   23.8794 O   0  0  0  0  0  0  0  0  0  0  0  0
   10.5806  -15.4842   22.1397 N   0  0  0  0  0  0  0  0  0  0  0  0
   11.6963  -16.3845   22.4310 C   0  0  1  0  0  0  0  0  0  0  0  0
   11.3933  -17.7981   22.1255 C   0  0  0  0  0  0  0  0  0  0  0  0
   11.1772  -18.5759   23.3612 C   0  0  0  0  0  0  0  0  0  0  0  0
   11.1225  -18.1500   24.6777 C   0  0  0  0  0  0  0  0  0  0  0  0
   10.9315  -19.1631   25.5200 N   0  0  0  0  0  0  0  0  0  0  0  0
   10.8599  -20.2675   24.7473 C   0  0  0  0  0  0  0  0  0  0  0  0
   11.0047  -19.9293   23.4632 N   0  0  0  0  0  0  0  0  0  0  0  0
   12.9349  -15.8685   21.8158 C   0  0  0  0  0  0  0  0  0  0  0  0
   12.9099  -15.3798   20.6679 O   0  0  0  0  0  0  0  0  0  0  0  0
   14.1705  -15.8960   22.4625 O   0  0  0  0  0  0  0  0  0  0  0  0
  1  2  1  0
  3  4  1  0
  3  2  1  0
  4  5  1  0
  5  6  1  6
  5  7  1  0
  7  8  2  0
  9 10  1  0
 11 10  1  0
 11 12  1  1
 13 11  1  0
 14  7  1  0
 13 14  1  1
 15 13  1  0
 15 16  2  0
 17 15  1  0
 18 17  1  0
 18 19  1  6
 20 19  1  0
 21 20  2  0
 22 23  1  0
 22 21  1  0
 23 24  2  0
 24 20  1  0
 25 18  1  0
 26 25  2  0
 27 25  1  0
M  END
$$$$
