MIH.pdb
     RDKit          3D

 27 27  0  0  1  0  0  0  0  0999 V2000
    7.3635  -10.4448   26.5140 C   0  0  0  0  0  0  0  0  0  0  0  0
    5.7743  -11.1362   26.8806 S   0  0  0  0  0  0  0  0  0  0  0  0
    5.4871  -12.8336   26.4741 C   0  0  0  0  0  0  0  0  0  0  0  0
    6.5794  -13.5552   25.7864 C   0  0  0  0  0  0  0  0  0  0  0  0
    6.2698  -14.9158   25.2940 C   0  0  2  0  0  0  0  0  0  0  0  0
    5.9035  -15.8694   26.2838 N   0  0  0  0  0  0  0  0  0  0  0  0
    7.3906  -15.4489   24.4575 C   0  0  0  0  0  0  0  0  0  0  0  0
    8.0215  -16.4415   24.8524 O   0  0  0  0  0  0  0  0  0  0  0  0
    7.3423  -13.3615   19.6637 C   0  0  0  0  0  0  0  0  0  0  0  0
    7.4985  -14.5644   20.5286 C   0  0  0  0  0  0  0  0  0  0  0  0
    8.9063  -14.6945   21.1117 C   0  0  2  0  0  0  0  0  0  0  0  0
    9.6891  -15.4380   20.0619 C   0  0  0  0  0  0  0  0  0  0  0  0
    8.8074  -15.4874   22.3882 C   0  0  2  0  0  0  0  0  0  0  0  0
    7.7610  -14.8694   23.2366 N   0  0  0  0  0  0  0  0  0  0  0  0
   10.0726  -15.5455   23.1643 C   0  0  0  0  0  0  0  0  0  0  0  0
   10.5431  -14.4258   23.5936 O   0  0  0  0  0  0  0  0  0  0  0  0
   10.8190  -16.6884   23.4886 N   0  0  0  0  0  0  0  0  0  0  0  0
   12.1244  -16.6251   24.1459 C   0  0  1  0  0  0  0  0  0  0  0  0
   12.1694  -17.3797   25.4156 C   0  0  0  0  0  0  0  0  0  0  0  0
   11.2743  -16.7797   26.4242 C   0  0  0  0  0  0  0  0  0  0  0  0
   11.3022  -15.5182   26.9947 C   0  0  0  0  0  0  0  0  0  0  0  0
   10.3311  -15.3568   27.8910 N   0  0  0  0  0  0  0  0  0  0  0  0
    9.6575  -16.5264   27.9092 C   0  0  0  0  0  0  0  0  0  0  0  0
   10.2100  -17.3783   27.0413 N   0  0  0  0  0  0  0  0  0  0  0  0
   13.1908  -16.9654   23.1837 C   0  0  0  0  0  0  0  0  0  0  0  0
   12.9018  -17.2845   22.0125 O   0  0  0  0  0  0  0  0  0  0  0  0
   14.5451  -16.9509   23.5172 O   0  0  0  0  0  0  0  0  0  0  0  0
  1  2  1  0
  3  4  1  0
  3  2  1  0
  4  5  1  0
  5  6  1  1
  5  7  1  0
  7  8  2  0
  9 10  1  0
 11 10  1  0
 11 12  1  6
 13 11  1  0
 14  7  1  0
 13 14  1  1
 15 13  1  0
 15 16  2  0
 17 15  1  0
 18 17  1  0
 18 19  1  1
 20 19  1  0
 21 20  2  0
 22 23  1  0
 22 21  1  0
 23 24  2  0
 24 20  1  0
 25 18  1  0
 26 25  2  0
 27 25  1  0
M  END
$$$$
