MIH.pdb
     RDKit          3D

 27 27  0  0  1  0  0  0  0  0999 V2000
    3.6369  -19.4794   20.0590 C   0  0  0  0  0  0  0  0  0  0  0  0
    4.9024  -18.9504   21.1801 S   0  0  0  0  0  0  0  0  0  0  0  0
    6.2640  -18.0281   20.5289 C   0  0  0  0  0  0  0  0  0  0  0  0
    7.2015  -17.4321   21.5049 C   0  0  0  0  0  0  0  0  0  0  0  0
    7.5471  -16.0067   21.3089 C   0  0  2  0  0  0  0  0  0  0  0  0
    8.2802  -15.6986   20.1297 N   0  0  0  0  0  0  0  0  0  0  0  0
    8.2521  -15.4581   22.5098 C   0  0  0  0  0  0  0  0  0  0  0  0
    9.4924  -15.4614   22.5373 O   0  0  0  0  0  0  0  0  0  0  0  0
    7.3934  -11.9004   27.4966 C   0  0  0  0  0  0  0  0  0  0  0  0
    8.1546  -12.9365   26.7440 C   0  0  0  0  0  0  0  0  0  0  0  0
    7.4043  -13.4423   25.5111 C   0  0  2  0  0  0  0  0  0  0  0  0
    6.1807  -14.1267   26.0608 C   0  0  0  0  0  0  0  0  0  0  0  0
    8.3006  -14.4142   24.7899 C   0  0  2  0  0  0  0  0  0  0  0  0
    7.5649  -14.9364   23.6140 N   0  0  0  0  0  0  0  0  0  0  0  0
    8.7406  -15.5635   25.6216 C   0  0  0  0  0  0  0  0  0  0  0  0
    7.8522  -16.4542   25.8988 O   0  0  0  0  0  0  0  0  0  0  0  0
   10.0228  -15.7944   26.1421 N   0  0  0  0  0  0  0  0  0  0  0  0
   10.3748  -17.0078   26.8795 C   0  0  1  0  0  0  0  0  0  0  0  0
   11.6405  -17.6166   26.4202 C   0  0  0  0  0  0  0  0  0  0  0  0
   11.4454  -18.3694   25.1656 C   0  0  0  0  0  0  0  0  0  0  0  0
   10.2860  -18.6078   24.4469 C   0  0  0  0  0  0  0  0  0  0  0  0
   10.5145  -19.3554   23.3693 N   0  0  0  0  0  0  0  0  0  0  0  0
   11.8398  -19.6110   23.3806 C   0  0  0  0  0  0  0  0  0  0  0  0
   12.4019  -19.0296   24.4438 N   0  0  0  0  0  0  0  0  0  0  0  0
   10.2987  -16.7557   28.3319 C   0  0  0  0  0  0  0  0  0  0  0  0
   10.3453  -15.5882   28.7700 O   0  0  0  0  0  0  0  0  0  0  0  0
   10.1740  -17.7777   29.2728 O   0  0  0  0  0  0  0  0  0  0  0  0
  1  2  1  0
  3  4  1  0
  3  2  1  0
  4  5  1  0
  5  6  1  6
  5  7  1  0
  7  8  2  0
  9 10  1  0
 11 10  1  0
 11 12  1  1
 13 11  1  0
 14  7  1  0
 13 14  1  6
 15 13  1  0
 15 16  2  0
 17 15  1  0
 18 17  1  0
 18 19  1  1
 20 19  1  0
 21 20  2  0
 22 23  1  0
 22 21  1  0
 23 24  2  0
 24 20  1  0
 25 18  1  0
 26 25  2  0
 27 25  1  0
M  END
$$$$
