STV.pdb
     RDKit          3D

 21 20  0  0  1  0  0  0  0  0999 V2000
   17.1671  -10.4776  -19.7503 O   0  0  0  0  0  0  0  0  0  0  0  0
   17.7177   -9.9888  -18.5674 C   0  0  0  0  0  0  0  0  0  0  0  0
   18.3596  -11.1109  -17.7711 C   0  0  2  0  0  0  0  0  0  0  0  0
   17.2908  -11.9011  -17.2038 N   0  0  0  0  0  0  0  0  0  0  0  0
   19.2141  -10.5947  -16.6753 C   0  0  0  0  0  0  0  0  0  0  0  0
   18.8065  -10.6122  -15.4762 O   0  0  0  0  0  0  0  0  0  0  0  0
   23.5173   -9.6319  -14.5585 C   0  0  0  0  0  0  0  0  0  0  0  0
   22.6467  -10.2741  -15.6167 C   0  0  1  0  0  0  0  0  0  0  0  0
   22.5776  -11.6577  -15.4732 O   0  0  0  0  0  0  0  0  0  0  0  0
   21.3245   -9.6261  -15.7756 C   0  0  2  0  0  0  0  0  0  0  0  0
   20.5011  -10.0585  -16.8418 N   0  0  0  0  0  0  0  0  0  0  0  0
   21.5220   -8.1613  -15.8752 C   0  0  0  0  0  0  0  0  0  0  0  0
   21.9546   -7.7074  -16.9808 O   0  0  0  0  0  0  0  0  0  0  0  0
   19.4176   -5.3898  -16.2223 C   0  0  0  0  0  0  0  0  0  0  0  0
   20.2681   -5.0417  -15.0113 C   0  0  2  0  0  0  0  0  0  0  0  0
   20.6070   -3.5694  -15.0790 C   0  0  0  0  0  0  0  0  0  0  0  0
   21.5546   -5.8419  -15.0018 C   0  0  2  0  0  0  0  0  0  0  0  0
   21.2573   -7.2474  -14.8169 N   0  0  0  0  0  0  0  0  0  0  0  0
   22.4289   -5.3328  -13.9223 C   0  0  0  0  0  0  0  0  0  0  0  0
   22.3490   -5.8973  -12.6584 O   0  0  0  0  0  0  0  0  0  0  0  0
   23.2515   -4.3954  -14.1123 O   0  0  0  0  0  0  0  0  0  0  0  0
  2  1  1  0
  3  2  1  0
  3  4  1  1
  5 11  1  0
  5  3  1  0
  6  5  2  0
  8  7  1  1
  9  8  1  0
 10  8  1  0
 10 12  1  0
 10 11  1  6
 12 18  1  0
 13 12  2  0
 15 16  1  6
 15 14  1  0
 17 15  1  0
 17 18  1  1
 19 20  1  0
 19 17  1  0
 21 19  2  0
M  END
$$$$
