STV.pdb
     RDKit          3D

 21 20  0  0  1  0  0  0  0  0999 V2000
   25.6200  -19.8343   -8.7205 O   0  0  0  0  0  0  0  0  0  0  0  0
   25.7211  -19.7720  -10.1087 C   0  0  0  0  0  0  0  0  0  0  0  0
   25.1510  -21.0272  -10.7447 C   0  0  2  0  0  0  0  0  0  0  0  0
   26.1042  -22.0910  -10.5251 N   0  0  0  0  0  0  0  0  0  0  0  0
   24.9370  -20.8622  -12.2022 C   0  0  0  0  0  0  0  0  0  0  0  0
   25.7813  -21.3101  -13.0333 O   0  0  0  0  0  0  0  0  0  0  0  0
   21.9268  -22.0944  -14.4348 C   0  0  0  0  0  0  0  0  0  0  0  0
   22.2133  -20.6205  -14.6242 C   0  0  1  0  0  0  0  0  0  0  0  0
   21.1921  -19.8170  -14.1228 O   0  0  0  0  0  0  0  0  0  0  0  0
   23.5647  -20.2128  -14.1763 C   0  0  2  0  0  0  0  0  0  0  0  0
   23.8312  -20.2240  -12.7868 N   0  0  0  0  0  0  0  0  0  0  0  0
   23.8589  -18.8659  -14.7183 C   0  0  0  0  0  0  0  0  0  0  0  0
   23.4871  -17.8672  -14.0256 O   0  0  0  0  0  0  0  0  0  0  0  0
   26.9497  -17.9257  -17.3221 C   0  0  0  0  0  0  0  0  0  0  0  0
   26.1908  -16.9395  -16.4488 C   0  0  2  0  0  0  0  0  0  0  0  0
   26.7471  -17.0254  -15.0452 C   0  0  0  0  0  0  0  0  0  0  0  0
   24.7127  -17.2707  -16.4124 C   0  0  2  0  0  0  0  0  0  0  0  0
   24.5257  -18.6318  -15.9536 N   0  0  0  0  0  0  0  0  0  0  0  0
   24.1440  -17.0783  -17.7646 C   0  0  0  0  0  0  0  0  0  0  0  0
   24.0541  -15.7981  -18.2895 O   0  0  0  0  0  0  0  0  0  0  0  0
   23.7344  -18.0456  -18.4631 O   0  0  0  0  0  0  0  0  0  0  0  0
  2  1  1  0
  3  2  1  0
  3  4  1  6
  5 11  1  0
  5  3  1  0
  6  5  2  0
  8  7  1  1
  9  8  1  0
 10  8  1  0
 10 12  1  0
 10 11  1  1
 12 18  1  0
 13 12  2  0
 15 16  1  1
 15 14  1  0
 17 15  1  0
 17 18  1  6
 19 20  1  0
 19 17  1  0
 21 19  2  0
M  END
$$$$
