STV.pdb
     RDKit          3D

 21 20  0  0  1  0  0  0  0  0999 V2000
   15.3107  -11.1553  -16.7243 O   0  0  0  0  0  0  0  0  0  0  0  0
   16.5165  -10.5305  -16.4131 C   0  0  0  0  0  0  0  0  0  0  0  0
   17.6414  -11.0773  -17.2739 C   0  0  2  0  0  0  0  0  0  0  0  0
   17.9008  -12.4292  -16.8340 N   0  0  0  0  0  0  0  0  0  0  0  0
   18.8822  -10.2776  -17.1383 C   0  0  0  0  0  0  0  0  0  0  0  0
   19.8341  -10.6821  -16.4072 O   0  0  0  0  0  0  0  0  0  0  0  0
   21.9885   -6.6553  -18.5293 C   0  0  0  0  0  0  0  0  0  0  0  0
   20.7250   -7.4483  -18.7841 C   0  0  1  0  0  0  0  0  0  0  0  0
   20.7573   -8.1113  -20.0085 O   0  0  0  0  0  0  0  0  0  0  0  0
   20.3241   -8.3127  -17.6504 C   0  0  2  0  0  0  0  0  0  0  0  0
   19.1221   -9.0487  -17.7740 N   0  0  0  0  0  0  0  0  0  0  0  0
   20.2666   -7.4881  -16.4211 C   0  0  0  0  0  0  0  0  0  0  0  0
   19.2623   -6.7215  -16.2823 O   0  0  0  0  0  0  0  0  0  0  0  0
   22.5037   -8.3173  -12.9658 C   0  0  0  0  0  0  0  0  0  0  0  0
   21.1942   -7.5452  -12.9772 C   0  0  2  0  0  0  0  0  0  0  0  0
   20.0572   -8.5422  -12.9628 C   0  0  0  0  0  0  0  0  0  0  0  0
   21.0794   -6.6872  -14.2207 C   0  0  2  0  0  0  0  0  0  0  0  0
   21.2590   -7.5070  -15.4012 N   0  0  0  0  0  0  0  0  0  0  0  0
   22.0925   -5.6108  -14.1568 C   0  0  0  0  0  0  0  0  0  0  0  0
   21.8893   -4.5343  -13.3070 O   0  0  0  0  0  0  0  0  0  0  0  0
   23.1437   -5.6379  -14.8538 O   0  0  0  0  0  0  0  0  0  0  0  0
  2  1  1  0
  3  2  1  0
  3  4  1  1
  5 11  1  0
  5  3  1  0
  6  5  2  0
  8  7  1  1
  9  8  1  0
 10  8  1  0
 10 12  1  0
 10 11  1  6
 12 18  1  0
 13 12  2  0
 15 16  1  6
 15 14  1  0
 17 15  1  0
 17 18  1  6
 19 20  1  0
 19 17  1  0
 21 19  2  0
M  END
$$$$
