STV.pdb
     RDKit          3D

 21 20  0  0  1  0  0  0  0  0999 V2000
   15.8398  -15.1523  -13.8430 O   0  0  0  0  0  0  0  0  0  0  0  0
   16.7857  -14.2640  -14.3504 C   0  0  0  0  0  0  0  0  0  0  0  0
   16.2551  -13.5658  -15.5897 C   0  0  2  0  0  0  0  0  0  0  0  0
   16.1251  -14.5665  -16.6242 N   0  0  0  0  0  0  0  0  0  0  0  0
   17.1708  -12.4993  -16.0603 C   0  0  0  0  0  0  0  0  0  0  0  0
   18.0328  -12.7380  -16.9570 O   0  0  0  0  0  0  0  0  0  0  0  0
   16.3723   -9.2476  -17.9175 C   0  0  0  0  0  0  0  0  0  0  0  0
   17.2001   -8.9547  -16.6850 C   0  0  1  0  0  0  0  0  0  0  0  0
   16.4722   -8.2757  -15.7109 O   0  0  0  0  0  0  0  0  0  0  0  0
   17.9345  -10.1313  -16.1659 C   0  0  2  0  0  0  0  0  0  0  0  0
   17.1795  -11.1777  -15.5857 N   0  0  0  0  0  0  0  0  0  0  0  0
   18.9508   -9.6663  -15.1936 C   0  0  0  0  0  0  0  0  0  0  0  0
   18.6360   -9.7017  -13.9627 O   0  0  0  0  0  0  0  0  0  0  0  0
   23.0102   -9.2270  -16.1712 C   0  0  0  0  0  0  0  0  0  0  0  0
   22.5122   -9.4941  -14.7600 C   0  0  2  0  0  0  0  0  0  0  0  0
   22.3413  -10.9874  -14.5935 C   0  0  0  0  0  0  0  0  0  0  0  0
   21.1788   -8.8170  -14.5164 C   0  0  2  0  0  0  0  0  0  0  0  0
   20.2418   -9.1896  -15.5562 N   0  0  0  0  0  0  0  0  0  0  0  0
   21.3836   -7.3522  -14.4797 C   0  0  0  0  0  0  0  0  0  0  0  0
   20.8713   -6.5674  -15.5014 O   0  0  0  0  0  0  0  0  0  0  0  0
   22.0131   -6.7869  -13.5439 O   0  0  0  0  0  0  0  0  0  0  0  0
  2  1  1  0
  3  2  1  0
  3  4  1  6
  5 11  1  0
  5  3  1  0
  6  5  2  0
  8  7  1  6
  9  8  1  0
 10  8  1  0
 10 12  1  0
 10 11  1  1
 12 18  1  0
 13 12  2  0
 15 16  1  6
 15 14  1  0
 17 15  1  0
 17 18  1  6
 19 20  1  0
 19 17  1  0
 21 19  2  0
M  END
$$$$
