STV.pdb
     RDKit          3D

 21 20  0  0  1  0  0  0  0  0999 V2000
   16.1732  -11.7892  -17.7718 O   0  0  0  0  0  0  0  0  0  0  0  0
   17.2094  -11.0486  -17.2070 C   0  0  0  0  0  0  0  0  0  0  0  0
   18.4095  -11.9347  -16.9241 C   0  0  2  0  0  0  0  0  0  0  0  0
   17.9956  -12.9211  -15.9524 N   0  0  0  0  0  0  0  0  0  0  0  0
   19.5508  -11.1639  -16.3756 C   0  0  0  0  0  0  0  0  0  0  0  0
   19.9024  -11.3036  -15.1668 O   0  0  0  0  0  0  0  0  0  0  0  0
   23.3874  -10.7586  -17.6381 C   0  0  0  0  0  0  0  0  0  0  0  0
   22.6500   -9.4519  -17.4399 C   0  0  1  0  0  0  0  0  0  0  0  0
   22.4108   -8.7944  -18.6442 O   0  0  0  0  0  0  0  0  0  0  0  0
   21.4516   -9.5678  -16.5776 C   0  0  2  0  0  0  0  0  0  0  0  0
   20.3243  -10.2437  -17.1012 N   0  0  0  0  0  0  0  0  0  0  0  0
   21.0474   -8.2112  -16.1409 C   0  0  0  0  0  0  0  0  0  0  0  0
   19.9281   -7.7763  -16.5575 O   0  0  0  0  0  0  0  0  0  0  0  0
   19.7050   -5.0775  -13.1888 C   0  0  0  0  0  0  0  0  0  0  0  0
   20.3210   -6.3770  -13.6817 C   0  0  2  0  0  0  0  0  0  0  0  0
   21.0787   -7.0063  -12.5342 C   0  0  0  0  0  0  0  0  0  0  0  0
   21.2825   -6.1239  -14.8250 C   0  0  2  0  0  0  0  0  0  0  0  0
   21.8313   -7.3803  -15.2922 N   0  0  0  0  0  0  0  0  0  0  0  0
   22.3511   -5.2120  -14.3609 C   0  0  0  0  0  0  0  0  0  0  0  0
   22.1540   -3.8413  -14.4300 O   0  0  0  0  0  0  0  0  0  0  0  0
   23.4447   -5.6407  -13.9006 O   0  0  0  0  0  0  0  0  0  0  0  0
  2  1  1  0
  3  2  1  0
  3  4  1  1
  5 11  1  0
  5  3  1  0
  6  5  2  0
  8  7  1  6
  9  8  1  0
 10  8  1  0
 10 12  1  0
 10 11  1  6
 12 18  1  0
 13 12  2  0
 15 16  1  1
 15 14  1  0
 17 15  1  0
 17 18  1  1
 19 20  1  0
 19 17  1  0
 21 19  2  0
M  END
$$$$
