STV.pdb
     RDKit          3D

 21 20  0  0  1  0  0  0  0  0999 V2000
   18.8373   -2.2843  -16.0039 O   0  0  0  0  0  0  0  0  0  0  0  0
   18.9836   -3.4410  -15.2410 C   0  0  0  0  0  0  0  0  0  0  0  0
   17.7292   -4.2933  -15.3136 C   0  0  2  0  0  0  0  0  0  0  0  0
   16.7028   -3.6123  -14.5576 N   0  0  0  0  0  0  0  0  0  0  0  0
   17.9411   -5.6421  -14.7364 C   0  0  0  0  0  0  0  0  0  0  0  0
   17.8146   -5.8386  -13.4915 O   0  0  0  0  0  0  0  0  0  0  0  0
   16.6923   -9.1480  -16.2764 C   0  0  0  0  0  0  0  0  0  0  0  0
   17.3542   -9.0186  -14.9216 C   0  0  1  0  0  0  0  0  0  0  0  0
   17.6545  -10.2581  -14.3618 O   0  0  0  0  0  0  0  0  0  0  0  0
   18.4880   -8.0661  -14.8999 C   0  0  2  0  0  0  0  0  0  0  0  0
   18.2872   -6.7875  -15.4713 N   0  0  0  0  0  0  0  0  0  0  0  0
   19.6600   -8.7075  -15.5398 C   0  0  0  0  0  0  0  0  0  0  0  0
   19.7758   -8.5808  -16.7992 O   0  0  0  0  0  0  0  0  0  0  0  0
   23.0325  -10.4516  -13.4703 C   0  0  0  0  0  0  0  0  0  0  0  0
   23.0414   -9.8454  -14.8644 C   0  0  2  0  0  0  0  0  0  0  0  0
   23.2642   -8.3556  -14.7308 C   0  0  0  0  0  0  0  0  0  0  0  0
   21.7216  -10.0833  -15.5695 C   0  0  2  0  0  0  0  0  0  0  0  0
   20.6494   -9.4465  -14.8326 N   0  0  0  0  0  0  0  0  0  0  0  0
   21.4972  -11.5407  -15.6896 C   0  0  0  0  0  0  0  0  0  0  0  0
   22.2403  -12.2708  -16.6046 O   0  0  0  0  0  0  0  0  0  0  0  0
   20.6465  -12.1481  -14.9833 O   0  0  0  0  0  0  0  0  0  0  0  0
  2  1  1  0
  3  2  1  0
  3  4  1  1
  5 11  1  0
  5  3  1  0
  6  5  2  0
  8  7  1  6
  9  8  1  0
 10  8  1  0
 10 12  1  0
 10 11  1  6
 12 18  1  0
 13 12  2  0
 15 16  1  1
 15 14  1  0
 17 15  1  0
 17 18  1  1
 19 20  1  0
 19 17  1  0
 21 19  2  0
M  END
$$$$
