STV.pdb
     RDKit          3D

 21 20  0  0  1  0  0  0  0  0999 V2000
   26.6069  -14.6637  -18.1456 O   0  0  0  0  0  0  0  0  0  0  0  0
   25.6990  -15.7205  -18.1324 C   0  0  0  0  0  0  0  0  0  0  0  0
   26.3905  -17.0167  -17.7491 C   0  0  2  0  0  0  0  0  0  0  0  0
   27.2983  -17.3529  -18.8221 N   0  0  0  0  0  0  0  0  0  0  0  0
   25.4254  -18.1268  -17.5658 C   0  0  0  0  0  0  0  0  0  0  0  0
   25.0171  -18.7978  -18.5594 O   0  0  0  0  0  0  0  0  0  0  0  0
   25.7697  -21.4540  -15.8529 C   0  0  0  0  0  0  0  0  0  0  0  0
   24.5363  -20.7642  -15.3113 C   0  0  1  0  0  0  0  0  0  0  0  0
   24.6741  -20.4160  -13.9698 O   0  0  0  0  0  0  0  0  0  0  0  0
   24.0477  -19.6576  -16.1656 C   0  0  2  0  0  0  0  0  0  0  0  0
   24.8885  -18.5321  -16.3332 N   0  0  0  0  0  0  0  0  0  0  0  0
   22.7302  -19.2106  -15.6570 C   0  0  0  0  0  0  0  0  0  0  0  0
   22.7256  -18.2621  -14.8108 O   0  0  0  0  0  0  0  0  0  0  0  0
   19.8641  -17.7095  -17.4152 C   0  0  0  0  0  0  0  0  0  0  0  0
   19.3057  -18.8667  -16.6028 C   0  0  2  0  0  0  0  0  0  0  0  0
   17.9944  -18.4262  -15.9917 C   0  0  0  0  0  0  0  0  0  0  0  0
   20.2575  -19.2607  -15.4917 C   0  0  2  0  0  0  0  0  0  0  0  0
   21.4872  -19.7757  -16.0581 N   0  0  0  0  0  0  0  0  0  0  0  0
   19.6003  -20.2691  -14.6314 C   0  0  0  0  0  0  0  0  0  0  0  0
   18.9464  -19.8591  -13.4796 O   0  0  0  0  0  0  0  0  0  0  0  0
   19.6139  -21.4993  -14.9108 O   0  0  0  0  0  0  0  0  0  0  0  0
  2  1  1  0
  3  2  1  0
  3  4  1  6
  5 11  1  0
  5  3  1  0
  6  5  2  0
  8  7  1  6
  9  8  1  0
 10  8  1  0
 10 12  1  0
 10 11  1  1
 12 18  1  0
 13 12  2  0
 15 16  1  1
 15 14  1  0
 17 15  1  0
 17 18  1  6
 19 20  1  0
 19 17  1  0
 21 19  2  0
M  END
$$$$
