STV.pdb
     RDKit          3D

 21 20  0  0  1  0  0  0  0  0999 V2000
   26.8122  -21.0069  -10.8146 O   0  0  0  0  0  0  0  0  0  0  0  0
   26.9273  -21.9661  -11.8186 C   0  0  0  0  0  0  0  0  0  0  0  0
   27.0158  -21.3061  -13.1831 C   0  0  2  0  0  0  0  0  0  0  0  0
   28.1825  -20.4533  -13.1729 N   0  0  0  0  0  0  0  0  0  0  0  0
   25.8182  -20.4847  -13.4805 C   0  0  0  0  0  0  0  0  0  0  0  0
   25.7347  -19.2912  -13.0646 O   0  0  0  0  0  0  0  0  0  0  0  0
   21.9193  -19.0816  -16.0521 C   0  0  0  0  0  0  0  0  0  0  0  0
   23.2148  -19.8453  -15.8830 C   0  0  1  0  0  0  0  0  0  0  0  0
   24.2580  -19.2806  -16.6128 O   0  0  0  0  0  0  0  0  0  0  0  0
   23.5615  -20.1271  -14.4710 C   0  0  2  0  0  0  0  0  0  0  0  0
   24.7053  -20.9204  -14.2176 N   0  0  0  0  0  0  0  0  0  0  0  0
   22.3873  -20.7384  -13.8062 C   0  0  0  0  0  0  0  0  0  0  0  0
   22.1904  -21.9789  -14.0003 O   0  0  0  0  0  0  0  0  0  0  0  0
   19.2484  -21.1440  -10.1439 C   0  0  0  0  0  0  0  0  0  0  0  0
   20.4098  -20.4537  -10.8406 C   0  0  2  0  0  0  0  0  0  0  0  0
   20.2734  -18.9633  -10.6232 C   0  0  0  0  0  0  0  0  0  0  0  0
   20.3967  -20.7360  -12.3292 C   0  0  2  0  0  0  0  0  0  0  0  0
   21.4809  -20.0238  -12.9736 N   0  0  0  0  0  0  0  0  0  0  0  0
   19.0859  -20.3313  -12.8832 C   0  0  0  0  0  0  0  0  0  0  0  0
   18.9241  -19.0471  -13.3801 O   0  0  0  0  0  0  0  0  0  0  0  0
   18.1018  -21.1198  -12.9200 O   0  0  0  0  0  0  0  0  0  0  0  0
  2  1  1  0
  3  2  1  0
  3  4  1  1
  5 11  1  0
  5  3  1  0
  6  5  2  0
  8  7  1  1
  9  8  1  0
 10  8  1  0
 10 12  1  0
 10 11  1  6
 12 18  1  0
 13 12  2  0
 15 16  1  6
 15 14  1  0
 17 15  1  0
 17 18  1  6
 19 20  1  0
 19 17  1  0
 21 19  2  0
M  END
$$$$
