STV.pdb
     RDKit          3D

 21 20  0  0  1  0  0  0  0  0999 V2000
   18.3130  -15.1214  -18.8959 O   0  0  0  0  0  0  0  0  0  0  0  0
   18.9631  -14.1278  -18.1669 C   0  0  0  0  0  0  0  0  0  0  0  0
   20.2038  -14.6836  -17.4910 C   0  0  2  0  0  0  0  0  0  0  0  0
   19.7939  -15.8358  -16.7210 N   0  0  0  0  0  0  0  0  0  0  0  0
   20.8317  -13.6935  -16.5838 C   0  0  0  0  0  0  0  0  0  0  0  0
   20.3061  -13.4195  -15.4645 O   0  0  0  0  0  0  0  0  0  0  0  0
   24.5502  -10.7263  -15.1330 C   0  0  0  0  0  0  0  0  0  0  0  0
   24.0519  -11.8391  -16.0295 C   0  0  1  0  0  0  0  0  0  0  0  0
   24.7717  -13.0186  -15.8544 O   0  0  0  0  0  0  0  0  0  0  0  0
   22.5836  -12.0270  -15.9876 C   0  0  2  0  0  0  0  0  0  0  0  0
   22.0160  -12.9897  -16.8553 N   0  0  0  0  0  0  0  0  0  0  0  0
   21.9301  -10.7177  -16.2180 C   0  0  0  0  0  0  0  0  0  0  0  0
   21.9461  -10.2612  -17.4041 O   0  0  0  0  0  0  0  0  0  0  0  0
   18.5477   -9.6331  -16.2582 C   0  0  0  0  0  0  0  0  0  0  0  0
   19.2361   -8.6746  -15.2999 C   0  0  2  0  0  0  0  0  0  0  0  0
   18.6886   -7.2864  -15.5451 C   0  0  0  0  0  0  0  0  0  0  0  0
   20.7339   -8.6592  -15.5281 C   0  0  2  0  0  0  0  0  0  0  0  0
   21.2939   -9.9539  -15.1994 N   0  0  0  0  0  0  0  0  0  0  0  0
   21.3348   -7.5899  -14.7008 C   0  0  0  0  0  0  0  0  0  0  0  0
   21.8566   -7.9048  -13.4554 O   0  0  0  0  0  0  0  0  0  0  0  0
   21.3899   -6.3916  -15.0914 O   0  0  0  0  0  0  0  0  0  0  0  0
  2  1  1  0
  3  2  1  0
  3  4  1  1
  5 11  1  0
  5  3  1  0
  6  5  2  0
  8  7  1  1
  9  8  1  0
 10  8  1  0
 10 12  1  0
 10 11  1  6
 12 18  1  0
 13 12  2  0
 15 16  1  6
 15 14  1  0
 17 15  1  0
 17 18  1  1
 19 20  1  0
 19 17  1  0
 21 19  2  0
M  END
$$$$
