STV.pdb
     RDKit          3D

 21 20  0  0  1  0  0  0  0  0999 V2000
   17.3564  -16.6804  -14.7906 O   0  0  0  0  0  0  0  0  0  0  0  0
   18.2559  -15.6655  -15.1101 C   0  0  0  0  0  0  0  0  0  0  0  0
   18.0794  -15.2272  -16.5531 C   0  0  2  0  0  0  0  0  0  0  0  0
   18.4615  -16.3415  -17.3903 N   0  0  0  0  0  0  0  0  0  0  0  0
   18.9284  -14.0584  -16.8854 C   0  0  0  0  0  0  0  0  0  0  0  0
   20.0687  -14.2183  -17.4130 O   0  0  0  0  0  0  0  0  0  0  0  0
   18.2735  -11.1174  -19.3170 C   0  0  0  0  0  0  0  0  0  0  0  0
   18.6706  -10.6010  -17.9510 C   0  0  1  0  0  0  0  0  0  0  0  0
   17.6231   -9.9417  -17.3123 O   0  0  0  0  0  0  0  0  0  0  0  0
   19.3419  -11.6123  -17.1027 C   0  0  2  0  0  0  0  0  0  0  0  0
   18.5764  -12.7176  -16.6620 N   0  0  0  0  0  0  0  0  0  0  0  0
   19.9341  -10.9303  -15.9285 C   0  0  0  0  0  0  0  0  0  0  0  0
   19.3538  -11.0916  -14.8092 O   0  0  0  0  0  0  0  0  0  0  0  0
   23.8912   -9.4415  -15.6473 C   0  0  0  0  0  0  0  0  0  0  0  0
   22.9785   -9.7934  -14.4836 C   0  0  2  0  0  0  0  0  0  0  0  0
   23.0638  -11.2851  -14.2500 C   0  0  0  0  0  0  0  0  0  0  0  0
   21.5408   -9.4255  -14.7892 C   0  0  2  0  0  0  0  0  0  0  0  0
   21.1004  -10.1167  -15.9836 N   0  0  0  0  0  0  0  0  0  0  0  0
   21.4450   -7.9583  -14.9533 C   0  0  0  0  0  0  0  0  0  0  0  0
   21.5346   -7.1412  -13.8367 O   0  0  0  0  0  0  0  0  0  0  0  0
   21.2832   -7.4195  -16.0824 O   0  0  0  0  0  0  0  0  0  0  0  0
  2  1  1  0
  3  2  1  0
  3  4  1  6
  5 11  1  0
  5  3  1  0
  6  5  2  0
  8  7  1  6
  9  8  1  0
 10  8  1  0
 10 12  1  0
 10 11  1  1
 12 18  1  0
 13 12  2  0
 15 16  1  6
 15 14  1  0
 17 15  1  0
 17 18  1  6
 19 20  1  0
 19 17  1  0
 21 19  2  0
M  END
$$$$
