ALS.pdb
     RDKit          3D

 20 19  0  0  1  0  0  0  0  0999 V2000
    7.8792  -13.9019   20.3158 C   0  0  0  0  0  0  0  0  0  0  0  0
    7.9312  -15.1786   21.1551 C   0  0  2  0  0  0  0  0  0  0  0  0
    6.5746  -15.6609   21.2628 N   0  0  0  0  0  0  0  0  0  0  0  0
    8.4553  -14.8850   22.4908 C   0  0  0  0  0  0  0  0  0  0  0  0
    9.6984  -14.5962   22.5884 O   0  0  0  0  0  0  0  0  0  0  0  0
    5.7622  -12.1845   26.7523 C   0  0  0  0  0  0  0  0  0  0  0  0
    6.7634  -12.5826   25.6958 C   0  0  1  0  0  0  0  0  0  0  0  0
    7.9210  -11.5790   25.8127 C   0  0  0  0  0  0  0  0  0  0  0  0
    7.3310  -13.9241   25.9309 C   0  0  0  0  0  0  0  0  0  0  0  0
    8.2225  -14.5080   24.9083 C   0  0  2  0  0  0  0  0  0  0  0  0
    7.6616  -14.9042   23.6721 N   0  0  0  0  0  0  0  0  0  0  0  0
    8.8746  -15.7136   25.5494 C   0  0  0  0  0  0  0  0  0  0  0  0
    8.1666  -16.7252   25.7646 O   0  0  0  0  0  0  0  0  0  0  0  0
   12.9231  -18.1282   26.4993 O   0  0  0  0  0  0  0  0  0  0  0  0
   12.3806  -16.9365   26.0183 C   0  0  0  0  0  0  0  0  0  0  0  0
   10.9179  -16.9149   26.3981 C   0  0  2  0  0  0  0  0  0  0  0  0
   10.2452  -15.7372   25.9111 N   0  0  0  0  0  0  0  0  0  0  0  0
   10.7905  -17.0713   27.8609 C   0  0  0  0  0  0  0  0  0  0  0  0
   11.1478  -18.2234   28.5419 O   0  0  0  0  0  0  0  0  0  0  0  0
   10.3347  -16.1108   28.5233 O   0  0  0  0  0  0  0  0  0  0  0  0
  2  1  1  6
  2  4  1  0
  3  2  1  0
  4  5  2  0
  7  6  1  1
  7  9  1  0
  8  7  1  0
 10  9  1  1
 10 12  1  0
 11 10  1  0
 11  4  1  0
 12 13  2  0
 15 14  1  0
 16 15  1  1
 16 18  1  0
 17 16  1  0
 17 12  1  0
 18 20  2  0
 18 19  1  0
M  END
$$$$
