ALS.pdb
     RDKit          3D

 20 19  0  0  1  0  0  0  0  0999 V2000
   10.3036  -18.7050   16.2372 C   0  0  0  0  0  0  0  0  0  0  0  0
    9.8175  -17.2721   16.0194 C   0  0  2  0  0  0  0  0  0  0  0  0
   10.4869  -16.7810   14.8383 N   0  0  0  0  0  0  0  0  0  0  0  0
   10.1738  -16.4369   17.1686 C   0  0  0  0  0  0  0  0  0  0  0  0
   11.3900  -16.0497   17.2642 O   0  0  0  0  0  0  0  0  0  0  0  0
    6.6445  -13.0179   20.1843 C   0  0  0  0  0  0  0  0  0  0  0  0
    7.7978  -13.4844   19.3304 C   0  0  1  0  0  0  0  0  0  0  0  0
    8.6758  -12.2456   19.0946 C   0  0  0  0  0  0  0  0  0  0  0  0
    8.6395  -14.4851   20.0138 C   0  0  0  0  0  0  0  0  0  0  0  0
    9.6675  -15.2022   19.2325 C   0  0  2  0  0  0  0  0  0  0  0  0
    9.2469  -16.0386   18.1727 N   0  0  0  0  0  0  0  0  0  0  0  0
   10.4505  -16.0367   20.2226 C   0  0  0  0  0  0  0  0  0  0  0  0
   10.0926  -17.2230   20.4105 O   0  0  0  0  0  0  0  0  0  0  0  0
   14.2795  -16.4658   23.1686 O   0  0  0  0  0  0  0  0  0  0  0  0
   13.6108  -15.6206   22.2831 C   0  0  0  0  0  0  0  0  0  0  0  0
   12.3237  -16.3046   21.8833 C   0  0  2  0  0  0  0  0  0  0  0  0
   11.5637  -15.5271   20.9375 N   0  0  0  0  0  0  0  0  0  0  0  0
   11.5470  -16.6316   23.0959 C   0  0  0  0  0  0  0  0  0  0  0  0
   11.8150  -17.7229   23.9058 O   0  0  0  0  0  0  0  0  0  0  0  0
   10.5938  -15.8824   23.4105 O   0  0  0  0  0  0  0  0  0  0  0  0
  2  1  1  1
  2  4  1  0
  3  2  1  0
  4  5  2  0
  7  6  1  1
  7  9  1  0
  8  7  1  0
 10  9  1  1
 10 12  1  0
 11 10  1  0
 11  4  1  0
 12 13  2  0
 15 14  1  0
 16 15  1  1
 16 18  1  0
 17 16  1  0
 17 12  1  0
 18 20  2  0
 18 19  1  0
M  END
$$$$
