ALS.pdb
     RDKit          3D

 20 19  0  0  1  0  0  0  0  0999 V2000
    7.6715  -13.5392   19.9388 C   0  0  0  0  0  0  0  0  0  0  0  0
    7.6150  -14.8306   20.7549 C   0  0  2  0  0  0  0  0  0  0  0  0
    6.2239  -15.2078   20.8403 N   0  0  0  0  0  0  0  0  0  0  0  0
    8.1451  -14.6021   22.1010 C   0  0  0  0  0  0  0  0  0  0  0  0
    9.3916  -14.3319   22.2080 O   0  0  0  0  0  0  0  0  0  0  0  0
    5.6380  -12.1931   26.6533 C   0  0  0  0  0  0  0  0  0  0  0  0
    6.5722  -12.5469   25.5223 C   0  0  1  0  0  0  0  0  0  0  0  0
    7.7650  -11.5860   25.6446 C   0  0  0  0  0  0  0  0  0  0  0  0
    7.1086  -13.9164   25.6387 C   0  0  0  0  0  0  0  0  0  0  0  0
    7.9495  -14.4458   24.5459 C   0  0  2  0  0  0  0  0  0  0  0  0
    7.3536  -14.6645   23.2822 N   0  0  0  0  0  0  0  0  0  0  0  0
    8.5189  -15.7568   25.0429 C   0  0  0  0  0  0  0  0  0  0  0  0
    7.7425  -16.7339   25.1573 O   0  0  0  0  0  0  0  0  0  0  0  0
   11.8386  -16.9724   23.7797 O   0  0  0  0  0  0  0  0  0  0  0  0
   11.8890  -17.3081   25.1326 C   0  0  0  0  0  0  0  0  0  0  0  0
   10.4872  -17.1894   25.6849 C   0  0  2  0  0  0  0  0  0  0  0  0
    9.8868  -15.9153   25.3799 N   0  0  0  0  0  0  0  0  0  0  0  0
   10.5078  -17.4691   27.1346 C   0  0  0  0  0  0  0  0  0  0  0  0
   10.9613  -18.6596   27.6785 O   0  0  0  0  0  0  0  0  0  0  0  0
   10.0930  -16.5826   27.9164 O   0  0  0  0  0  0  0  0  0  0  0  0
  2  1  1  6
  2  4  1  0
  3  2  1  0
  4  5  2  0
  7  6  1  1
  7  9  1  0
  8  7  1  0
 10  9  1  1
 10 12  1  0
 11 10  1  0
 11  4  1  0
 12 13  2  0
 15 14  1  0
 16 15  1  1
 16 18  1  0
 17 16  1  0
 17 12  1  0
 18 20  2  0
 18 19  1  0
M  END
$$$$
