DFC.pdb
     RDKit          3D

 26 26  0  0  1  0  0  0  0  0999 V2000
   10.3251  -16.9849   19.9634 N   0  0  0  0  0  0  0  0  0  0  0  0
    9.5166  -17.6081   21.0333 C   0  0  1  0  0  0  0  0  0  0  0  0
   10.2756  -18.8446   21.4609 C   0  0  0  0  0  0  0  0  0  0  0  0
   10.1528  -19.9610   20.5221 C   0  0  0  0  0  0  0  0  0  0  0  0
   10.5175  -21.0977   20.8917 O   0  0  0  0  0  0  0  0  0  0  0  0
    9.5753  -16.6305   22.1557 C   0  0  0  0  0  0  0  0  0  0  0  0
   10.7015  -16.1091   22.3917 O   0  0  0  0  0  0  0  0  0  0  0  0
    9.6546  -19.8173   19.2455 O   0  0  0  0  0  0  0  0  0  0  0  0
    8.4746  -16.2578   22.9552 N   0  0  0  0  0  0  0  0  0  0  0  0
    8.5367  -15.2499   24.0211 C   0  0  1  0  0  0  0  0  0  0  0  0
    7.3020  -14.4494   24.0758 C   0  0  0  0  0  0  0  0  0  0  0  0
    7.1317  -13.5077   25.1886 C   0  0  0  0  0  0  0  0  0  0  0  0
    7.8098  -12.2901   25.2310 C   0  0  0  0  0  0  0  0  0  0  0  0
    7.6270  -11.3928   26.2335 C   0  0  0  0  0  0  0  0  0  0  0  0
    6.7369  -11.6750   27.2667 C   0  0  0  0  0  0  0  0  0  0  0  0
    6.0602  -12.8768   27.2352 C   0  0  0  0  0  0  0  0  0  0  0  0
    6.2631  -13.7543   26.2207 C   0  0  0  0  0  0  0  0  0  0  0  0
    9.0200  -15.8471   25.2618 C   0  0  0  0  0  0  0  0  0  0  0  0
    8.3634  -16.8643   25.6984 O   0  0  0  0  0  0  0  0  0  0  0  0
   10.1141  -15.4749   26.0561 N   0  0  0  0  0  0  0  0  0  0  0  0
   10.5076  -16.2277   27.2470 C   0  0  1  0  0  0  0  0  0  0  0  0
   11.9752  -16.6082   27.1759 C   0  0  0  0  0  0  0  0  0  0  0  0
   12.2171  -17.5463   25.6418 S   0  0  0  0  0  0  0  0  0  0  0  0
   10.2965  -15.4209   28.4530 C   0  0  0  0  0  0  0  0  0  0  0  0
   10.5434  -15.9325   29.7391 O   0  0  0  0  0  0  0  0  0  0  0  0
    9.8894  -14.2498   28.3769 O   0  0  0  0  0  0  0  0  0  0  0  0
  2  1  1  6
  2  6  1  0
  2  3  1  0
  3  4  1  0
  4  5  2  0
  6  7  2  0
  8  4  1  0
  9 10  1  0
  9  6  1  0
 10 18  1  0
 11 12  1  0
 10 11  1  1
 12 17  2  0
 13 14  2  0
 13 12  1  0
 14 15  1  0
 15 16  2  0
 17 16  1  0
 18 19  2  0
 20 21  1  0
 20 18  1  0
 21 24  1  0
 21 22  1  6
 23 22  1  0
 24 26  2  0
 24 25  1  0
M  END
$$$$
