DFC.pdb
     RDKit          3D

 26 26  0  0  1  0  0  0  0  0999 V2000
   10.7226  -16.1226   19.5305 N   0  0  0  0  0  0  0  0  0  0  0  0
    9.7962  -16.9164   20.3661 C   0  0  1  0  0  0  0  0  0  0  0  0
   10.4716  -18.2527   20.5806 C   0  0  0  0  0  0  0  0  0  0  0  0
   10.7497  -18.9746   19.3379 C   0  0  0  0  0  0  0  0  0  0  0  0
   11.5987  -19.8916   19.3546 O   0  0  0  0  0  0  0  0  0  0  0  0
    9.7777  -16.2037   21.6739 C   0  0  0  0  0  0  0  0  0  0  0  0
   10.8968  -16.0103   22.2272 O   0  0  0  0  0  0  0  0  0  0  0  0
   10.1195  -18.6888   18.1464 O   0  0  0  0  0  0  0  0  0  0  0  0
    8.6127  -15.7403   22.3202 N   0  0  0  0  0  0  0  0  0  0  0  0
    8.6143  -15.0118   23.5950 C   0  0  1  0  0  0  0  0  0  0  0  0
    7.5240  -14.0237   23.6503 C   0  0  0  0  0  0  0  0  0  0  0  0
    7.2468  -13.3640   24.9317 C   0  0  0  0  0  0  0  0  0  0  0  0
    6.2260  -13.7985   25.7762 C   0  0  0  0  0  0  0  0  0  0  0  0
    5.9888  -13.2231   26.9829 C   0  0  0  0  0  0  0  0  0  0  0  0
    6.7785  -12.1605   27.4147 C   0  0  0  0  0  0  0  0  0  0  0  0
    7.7917  -11.7219   26.5874 C   0  0  0  0  0  0  0  0  0  0  0  0
    8.0054  -12.3162   25.3868 C   0  0  0  0  0  0  0  0  0  0  0  0
    8.7544  -15.9388   24.7133 C   0  0  0  0  0  0  0  0  0  0  0  0
    7.8223  -16.8163   24.8467 O   0  0  0  0  0  0  0  0  0  0  0  0
    9.7731  -16.0199   25.6737 N   0  0  0  0  0  0  0  0  0  0  0  0
    9.8122  -17.0767   26.6846 C   0  0  1  0  0  0  0  0  0  0  0  0
   10.9593  -18.0325   26.4119 C   0  0  0  0  0  0  0  0  0  0  0  0
   12.3147  -17.0610   25.6971 S   0  0  0  0  0  0  0  0  0  0  0  0
    9.9982  -16.4990   28.0192 C   0  0  0  0  0  0  0  0  0  0  0  0
   10.0342  -17.2994   29.1745 O   0  0  0  0  0  0  0  0  0  0  0  0
   10.1311  -15.2735   28.1738 O   0  0  0  0  0  0  0  0  0  0  0  0
  2  1  1  6
  2  6  1  0
  2  3  1  0
  3  4  1  0
  4  5  2  0
  6  7  2  0
  8  4  1  0
  9 10  1  0
  9  6  1  0
 10 18  1  0
 11 12  1  0
 10 11  1  1
 12 17  2  0
 13 14  2  0
 13 12  1  0
 14 15  1  0
 15 16  2  0
 17 16  1  0
 18 19  2  0
 20 21  1  0
 20 18  1  0
 21 24  1  0
 21 22  1  6
 23 22  1  0
 24 26  2  0
 24 25  1  0
M  END
$$$$
