DFC.pdb
     RDKit          3D

 26 26  0  0  1  0  0  0  0  0999 V2000
   10.2906  -16.0705   19.2005 N   0  0  0  0  0  0  0  0  0  0  0  0
    9.1552  -16.6429   19.9555 C   0  0  1  0  0  0  0  0  0  0  0  0
    9.4382  -18.1242   20.0717 C   0  0  0  0  0  0  0  0  0  0  0  0
    8.4787  -18.8394   20.9148 C   0  0  0  0  0  0  0  0  0  0  0  0
    8.9060  -19.4762   21.9015 O   0  0  0  0  0  0  0  0  0  0  0  0
    9.2818  -16.0500   21.3162 C   0  0  0  0  0  0  0  0  0  0  0  0
   10.4503  -15.9676   21.7894 O   0  0  0  0  0  0  0  0  0  0  0  0
    7.1227  -18.8456   20.6701 O   0  0  0  0  0  0  0  0  0  0  0  0
    8.2010  -15.5841   22.0935 N   0  0  0  0  0  0  0  0  0  0  0  0
    8.3517  -14.8895   23.3783 C   0  0  1  0  0  0  0  0  0  0  0  0
    7.2229  -13.9786   23.6320 C   0  0  0  0  0  0  0  0  0  0  0  0
    7.1250  -13.3418   24.9506 C   0  0  0  0  0  0  0  0  0  0  0  0
    7.8686  -12.2081   25.2761 C   0  0  0  0  0  0  0  0  0  0  0  0
    7.7537  -11.5857   26.4773 C   0  0  0  0  0  0  0  0  0  0  0  0
    6.8696  -12.0773   27.4344 C   0  0  0  0  0  0  0  0  0  0  0  0
    6.1285  -13.1987   27.1235 C   0  0  0  0  0  0  0  0  0  0  0  0
    6.2642  -13.7998   25.9149 C   0  0  0  0  0  0  0  0  0  0  0  0
    8.7186  -15.8328   24.4295 C   0  0  0  0  0  0  0  0  0  0  0  0
    7.9283  -16.8346   24.5978 O   0  0  0  0  0  0  0  0  0  0  0  0
    9.8250  -15.8121   25.2909 N   0  0  0  0  0  0  0  0  0  0  0  0
   10.0557  -16.8531   26.2924 C   0  0  1  0  0  0  0  0  0  0  0  0
   11.3655  -17.5711   26.0224 C   0  0  0  0  0  0  0  0  0  0  0  0
   11.5168  -17.7627   24.2245 S   0  0  0  0  0  0  0  0  0  0  0  0
   10.1181  -16.2652   27.6340 C   0  0  0  0  0  0  0  0  0  0  0  0
   10.2377  -17.0611   28.7868 O   0  0  0  0  0  0  0  0  0  0  0  0
   10.0669  -15.0348   27.7971 O   0  0  0  0  0  0  0  0  0  0  0  0
  2  1  1  6
  2  6  1  0
  2  3  1  0
  3  4  1  0
  4  5  2  0
  6  7  2  0
  8  4  1  0
  9 10  1  0
  9  6  1  0
 10 18  1  0
 11 12  1  0
 10 11  1  1
 12 17  2  0
 13 14  2  0
 13 12  1  0
 14 15  1  0
 15 16  2  0
 17 16  1  0
 18 19  2  0
 20 21  1  0
 20 18  1  0
 21 24  1  0
 21 22  1  6
 23 22  1  0
 24 26  2  0
 24 25  1  0
M  END
$$$$
