DFC.pdb
     RDKit          3D

 26 26  0  0  1  0  0  0  0  0999 V2000
   10.3413  -18.0176   20.1064 N   0  0  0  0  0  0  0  0  0  0  0  0
    9.8729  -18.4139   21.4518 C   0  0  1  0  0  0  0  0  0  0  0  0
   10.9962  -19.2229   22.0612 C   0  0  0  0  0  0  0  0  0  0  0  0
   11.2566  -20.4827   21.3625 C   0  0  0  0  0  0  0  0  0  0  0  0
   10.3867  -21.3791   21.3990 O   0  0  0  0  0  0  0  0  0  0  0  0
    9.7809  -17.1305   22.2023 C   0  0  0  0  0  0  0  0  0  0  0  0
   10.6792  -16.2737   21.9673 O   0  0  0  0  0  0  0  0  0  0  0  0
   12.4199  -20.7285   20.6661 O   0  0  0  0  0  0  0  0  0  0  0  0
    8.7743  -16.8180   23.1396 N   0  0  0  0  0  0  0  0  0  0  0  0
    8.7239  -15.5660   23.9051 C   0  0  1  0  0  0  0  0  0  0  0  0
    7.3394  -15.2042   24.2523 C   0  0  0  0  0  0  0  0  0  0  0  0
    7.1099  -13.9549   24.9875 C   0  0  0  0  0  0  0  0  0  0  0  0
    7.5675  -12.7271   24.5107 C   0  0  0  0  0  0  0  0  0  0  0  0
    7.3235  -11.5602   25.1606 C   0  0  0  0  0  0  0  0  0  0  0  0
    6.5932  -11.5633   26.3463 C   0  0  0  0  0  0  0  0  0  0  0  0
    6.1352  -12.7724   26.8276 C   0  0  0  0  0  0  0  0  0  0  0  0
    6.3944  -13.9227   26.1568 C   0  0  0  0  0  0  0  0  0  0  0  0
    9.7157  -15.5810   24.9754 C   0  0  0  0  0  0  0  0  0  0  0  0
   10.6094  -14.6556   24.9375 O   0  0  0  0  0  0  0  0  0  0  0  0
    9.8360  -16.4636   26.0586 N   0  0  0  0  0  0  0  0  0  0  0  0
   10.5092  -16.0881   27.3019 C   0  0  1  0  0  0  0  0  0  0  0  0
    9.7258  -15.0089   28.0268 C   0  0  0  0  0  0  0  0  0  0  0  0
   10.9167  -13.7602   28.5874 S   0  0  0  0  0  0  0  0  0  0  0  0
   10.6268  -17.2496   28.1889 C   0  0  0  0  0  0  0  0  0  0  0  0
    9.9623  -18.4587   27.9182 O   0  0  0  0  0  0  0  0  0  0  0  0
   11.3229  -17.2026   29.2167 O   0  0  0  0  0  0  0  0  0  0  0  0
  2  1  1  6
  2  6  1  0
  2  3  1  0
  3  4  1  0
  4  5  2  0
  6  7  2  0
  8  4  1  0
  9 10  1  0
  9  6  1  0
 10 18  1  0
 11 12  1  0
 10 11  1  1
 12 17  2  0
 13 14  2  0
 13 12  1  0
 14 15  1  0
 15 16  2  0
 17 16  1  0
 18 19  2  0
 20 21  1  0
 20 18  1  0
 21 24  1  0
 21 22  1  1
 23 22  1  0
 24 26  2  0
 24 25  1  0
M  END
$$$$
