DFC.pdb
     RDKit          3D

 26 26  0  0  1  0  0  0  0  0999 V2000
    8.5970  -16.7789   19.9071 N   0  0  0  0  0  0  0  0  0  0  0  0
    9.8497  -17.1573   20.5958 C   0  0  1  0  0  0  0  0  0  0  0  0
   10.9739  -16.7175   19.6845 C   0  0  0  0  0  0  0  0  0  0  0  0
   10.9994  -17.4241   18.4027 C   0  0  0  0  0  0  0  0  0  0  0  0
   10.0750  -18.2231   18.1404 O   0  0  0  0  0  0  0  0  0  0  0  0
    9.8816  -16.2886   21.8054 C   0  0  0  0  0  0  0  0  0  0  0  0
   11.0162  -16.0785   22.3196 O   0  0  0  0  0  0  0  0  0  0  0  0
   11.9984  -17.2510   17.4696 O   0  0  0  0  0  0  0  0  0  0  0  0
    8.7475  -15.6976   22.4004 N   0  0  0  0  0  0  0  0  0  0  0  0
    8.7707  -14.9816   23.6821 C   0  0  1  0  0  0  0  0  0  0  0  0
    7.6226  -14.0682   23.8079 C   0  0  0  0  0  0  0  0  0  0  0  0
    7.3727  -13.4395   25.1103 C   0  0  0  0  0  0  0  0  0  0  0  0
    8.1062  -12.3371   25.5469 C   0  0  0  0  0  0  0  0  0  0  0  0
    7.8546  -11.7212   26.7305 C   0  0  0  0  0  0  0  0  0  0  0  0
    6.8338  -12.1877   27.5548 C   0  0  0  0  0  0  0  0  0  0  0  0
    6.1012  -13.2780   27.1331 C   0  0  0  0  0  0  0  0  0  0  0  0
    6.3752  -13.8734   25.9453 C   0  0  0  0  0  0  0  0  0  0  0  0
    9.0317  -15.9069   24.7799 C   0  0  0  0  0  0  0  0  0  0  0  0
    8.2471  -16.9234   24.8674 O   0  0  0  0  0  0  0  0  0  0  0  0
   10.0299  -15.8547   25.7634 N   0  0  0  0  0  0  0  0  0  0  0  0
   10.1986  -16.9095   26.7630 C   0  0  1  0  0  0  0  0  0  0  0  0
   11.4788  -17.6843   26.5090 C   0  0  0  0  0  0  0  0  0  0  0  0
   11.6845  -18.8539   27.8807 S   0  0  0  0  0  0  0  0  0  0  0  0
   10.2669  -16.3308   28.1083 C   0  0  0  0  0  0  0  0  0  0  0  0
    9.9944  -17.0936   29.2576 O   0  0  0  0  0  0  0  0  0  0  0  0
   10.5701  -15.1381   28.2779 O   0  0  0  0  0  0  0  0  0  0  0  0
  2  1  1  6
  2  6  1  0
  2  3  1  0
  3  4  1  0
  4  5  2  0
  6  7  2  0
  8  4  1  0
  9 10  1  0
  9  6  1  0
 10 18  1  0
 11 12  1  0
 10 11  1  1
 12 17  2  0
 13 14  2  0
 13 12  1  0
 14 15  1  0
 15 16  2  0
 17 16  1  0
 18 19  2  0
 20 21  1  0
 20 18  1  0
 21 24  1  0
 21 22  1  6
 23 22  1  0
 24 26  2  0
 24 25  1  0
M  END
$$$$
