DFC.pdb
     RDKit          3D

 26 26  0  0  1  0  0  0  0  0999 V2000
   10.9382  -16.7481   20.2972 N   0  0  0  0  0  0  0  0  0  0  0  0
    9.9512  -17.3444   21.2230 C   0  0  1  0  0  0  0  0  0  0  0  0
   10.6187  -18.5684   21.8097 C   0  0  0  0  0  0  0  0  0  0  0  0
   10.9012  -19.6115   20.8223 C   0  0  0  0  0  0  0  0  0  0  0  0
   11.1892  -19.2698   19.6552 O   0  0  0  0  0  0  0  0  0  0  0  0
    9.8138  -16.3381   22.3126 C   0  0  0  0  0  0  0  0  0  0  0  0
   10.8484  -15.6725   22.5999 O   0  0  0  0  0  0  0  0  0  0  0  0
   10.8624  -20.9566   21.1188 O   0  0  0  0  0  0  0  0  0  0  0  0
    8.6251  -16.0866   23.0290 N   0  0  0  0  0  0  0  0  0  0  0  0
    8.4964  -15.0644   24.0752 C   0  0  1  0  0  0  0  0  0  0  0  0
    7.1896  -14.3892   24.0085 C   0  0  0  0  0  0  0  0  0  0  0  0
    6.8620  -13.4027   25.0447 C   0  0  0  0  0  0  0  0  0  0  0  0
    7.4565  -12.1418   25.0730 C   0  0  0  0  0  0  0  0  0  0  0  0
    7.1292  -11.2064   26.0010 C   0  0  0  0  0  0  0  0  0  0  0  0
    6.1694  -11.4919   26.9688 C   0  0  0  0  0  0  0  0  0  0  0  0
    5.5743  -12.7364   26.9506 C   0  0  0  0  0  0  0  0  0  0  0  0
    5.9214  -13.6514   26.0111 C   0  0  0  0  0  0  0  0  0  0  0  0
    8.9266  -15.5956   25.3645 C   0  0  0  0  0  0  0  0  0  0  0  0
    8.7936  -14.8122   26.3769 O   0  0  0  0  0  0  0  0  0  0  0  0
    9.4648  -16.8545   25.6683 N   0  0  0  0  0  0  0  0  0  0  0  0
    9.8143  -17.2464   27.0337 C   0  0  1  0  0  0  0  0  0  0  0  0
    8.5655  -17.5880   27.8260 C   0  0  0  0  0  0  0  0  0  0  0  0
    7.6563  -18.8464   26.8869 S   0  0  0  0  0  0  0  0  0  0  0  0
   10.6891  -18.4229   27.0183 C   0  0  0  0  0  0  0  0  0  0  0  0
   11.0811  -19.0389   25.8168 O   0  0  0  0  0  0  0  0  0  0  0  0
   11.1156  -18.9177   28.0750 O   0  0  0  0  0  0  0  0  0  0  0  0
  2  1  1  6
  2  6  1  0
  2  3  1  0
  3  4  1  0
  4  5  2  0
  6  7  2  0
  8  4  1  0
  9 10  1  0
  9  6  1  0
 10 18  1  0
 11 12  1  0
 10 11  1  1
 12 17  2  0
 13 14  2  0
 13 12  1  0
 14 15  1  0
 15 16  2  0
 17 16  1  0
 18 19  2  0
 20 21  1  0
 20 18  1  0
 21 24  1  0
 21 22  1  1
 23 22  1  0
 24 26  2  0
 24 25  1  0
M  END
$$$$
