DFC.pdb
     RDKit          3D

 26 26  0  0  1  0  0  0  0  0999 V2000
    9.8603  -18.1196   20.8366 N   0  0  0  0  0  0  0  0  0  0  0  0
   11.1037  -17.3552   21.0737 C   0  0  1  0  0  0  0  0  0  0  0  0
   11.4199  -16.6608   19.7677 C   0  0  0  0  0  0  0  0  0  0  0  0
   12.0451  -17.5365   18.7752 C   0  0  0  0  0  0  0  0  0  0  0  0
   12.0650  -18.7675   18.9898 O   0  0  0  0  0  0  0  0  0  0  0  0
   10.7104  -16.3092   22.0586 C   0  0  0  0  0  0  0  0  0  0  0  0
   11.5606  -15.4038   22.2902 O   0  0  0  0  0  0  0  0  0  0  0  0
   12.6165  -17.0663   17.6128 O   0  0  0  0  0  0  0  0  0  0  0  0
    9.4735  -16.2669   22.7352 N   0  0  0  0  0  0  0  0  0  0  0  0
    9.1651  -15.3347   23.8268 C   0  0  1  0  0  0  0  0  0  0  0  0
    7.7572  -14.9052   23.7847 C   0  0  0  0  0  0  0  0  0  0  0  0
    7.2780  -13.9872   24.8248 C   0  0  0  0  0  0  0  0  0  0  0  0
    6.4891  -14.4276   25.8868 C   0  0  0  0  0  0  0  0  0  0  0  0
    6.0765  -13.5957   26.8773 C   0  0  0  0  0  0  0  0  0  0  0  0
    6.4405  -12.2517   26.8545 C   0  0  0  0  0  0  0  0  0  0  0  0
    7.2211  -11.8046   25.8085 C   0  0  0  0  0  0  0  0  0  0  0  0
    7.6186  -12.6589   24.8325 C   0  0  0  0  0  0  0  0  0  0  0  0
    9.6887  -15.8384   25.0924 C   0  0  0  0  0  0  0  0  0  0  0  0
    9.9101  -17.1047   25.1541 O   0  0  0  0  0  0  0  0  0  0  0  0
    9.9971  -15.1349   26.2657 N   0  0  0  0  0  0  0  0  0  0  0  0
   10.5806  -15.7872   27.4378 C   0  0  1  0  0  0  0  0  0  0  0  0
   10.9247  -14.7613   28.5022 C   0  0  0  0  0  0  0  0  0  0  0  0
   10.5708  -13.1225   27.8086 S   0  0  0  0  0  0  0  0  0  0  0  0
    9.6335  -16.7486   28.0106 C   0  0  0  0  0  0  0  0  0  0  0  0
    9.9940  -17.6046   29.0661 O   0  0  0  0  0  0  0  0  0  0  0  0
    8.4724  -16.8390   27.5784 O   0  0  0  0  0  0  0  0  0  0  0  0
  2  1  1  6
  2  6  1  0
  2  3  1  0
  3  4  1  0
  4  5  2  0
  6  7  2  0
  8  4  1  0
  9 10  1  0
  9  6  1  0
 10 18  1  0
 11 12  1  0
 10 11  1  1
 12 17  2  0
 13 14  2  0
 13 12  1  0
 14 15  1  0
 15 16  2  0
 17 16  1  0
 18 19  2  0
 20 21  1  0
 20 18  1  0
 21 24  1  0
 21 22  1  1
 23 22  1  0
 24 26  2  0
 24 25  1  0
M  END
$$$$
