GCS.pdb
     RDKit          3D

 17 16  0  0  1  0  0  0  0  0999 V2000
   -2.9330  -27.2765   25.7370 N   0  0  0  0  0  0  0  0  0  0  0  0
   -2.7824  -25.9373   26.2486 C   0  0  0  0  0  0  0  0  0  0  0  0
   -3.8236  -25.7456   27.3092 C   0  0  0  0  0  0  0  0  0  0  0  0
   -5.0602  -25.8325   27.0564 O   0  0  0  0  0  0  0  0  0  0  0  0
   -3.4768  -25.4554   28.6575 N   0  0  0  0  0  0  0  0  0  0  0  0
   -4.5014  -25.2992   29.6708 C   0  0  1  0  0  0  0  0  0  0  0  0
   -3.7643  -25.2835   31.0159 C   0  0  0  0  0  0  0  0  0  0  0  0
   -5.0521  -25.1965   32.2956 S   0  0  0  0  0  0  0  0  0  0  0  0
   -5.1713  -24.0070   29.5124 C   0  0  0  0  0  0  0  0  0  0  0  0
   -4.4964  -22.9957   29.1559 O   0  0  0  0  0  0  0  0  0  0  0  0
   -8.5860  -21.4620   27.8622 O   0  0  0  0  0  0  0  0  0  0  0  0
   -8.0079  -22.6852   28.1852 C   0  0  0  0  0  0  0  0  0  0  0  0
   -7.2191  -22.5160   29.4905 C   0  0  2  0  0  0  0  0  0  0  0  0
   -6.5520  -23.7757   29.7284 N   0  0  0  0  0  0  0  0  0  0  0  0
   -8.1643  -22.1645   30.5675 C   0  0  0  0  0  0  0  0  0  0  0  0
   -8.6488  -23.1071   31.2392 O   0  0  0  0  0  0  0  0  0  0  0  0
   -8.5482  -20.8749   30.8829 O   0  0  0  0  0  0  0  0  0  0  0  0
  1  2  1  0
  2  3  1  0
  3  4  2  0
  5  6  1  0
  5  3  1  0
  7  8  1  0
  6  7  1  1
  9 14  1  0
  9  6  1  0
 10  9  2  0
 12 11  1  0
 13 14  1  0
 13 12  1  6
 15 13  1  0
 16 15  2  0
 17 15  1  0
M  END
$$$$
