GCS.pdb
     RDKit          3D

 17 16  0  0  1  0  0  0  0  0999 V2000
    6.3133  -19.0414   18.5850 N   0  0  0  0  0  0  0  0  0  0  0  0
    6.2215  -18.7456   19.9929 C   0  0  0  0  0  0  0  0  0  0  0  0
    7.3642  -17.8378   20.3331 C   0  0  0  0  0  0  0  0  0  0  0  0
    8.4010  -17.7677   19.6114 O   0  0  0  0  0  0  0  0  0  0  0  0
    7.3441  -17.0060   21.4865 N   0  0  0  0  0  0  0  0  0  0  0  0
    8.4808  -16.1704   21.8195 C   0  0  1  0  0  0  0  0  0  0  0  0
    7.9617  -15.1347   22.8249 C   0  0  0  0  0  0  0  0  0  0  0  0
    6.8475  -14.0420   21.8932 S   0  0  0  0  0  0  0  0  0  0  0  0
    9.5105  -16.9673   22.4891 C   0  0  0  0  0  0  0  0  0  0  0  0
    9.1642  -17.8721   23.3055 O   0  0  0  0  0  0  0  0  0  0  0  0
   14.0769  -18.5214   22.3741 O   0  0  0  0  0  0  0  0  0  0  0  0
   13.1222  -17.6138   21.9272 C   0  0  0  0  0  0  0  0  0  0  0  0
   11.9096  -17.6887   22.8645 C   0  0  2  0  0  0  0  0  0  0  0  0
   10.9062  -16.8142   22.3015 N   0  0  0  0  0  0  0  0  0  0  0  0
   12.3331  -17.2684   24.2139 C   0  0  0  0  0  0  0  0  0  0  0  0
   11.5667  -17.5409   25.1692 O   0  0  0  0  0  0  0  0  0  0  0  0
   13.5097  -16.5993   24.4927 O   0  0  0  0  0  0  0  0  0  0  0  0
  1  2  1  0
  2  3  1  0
  3  4  2  0
  5  6  1  0
  5  3  1  0
  7  8  1  0
  6  7  1  1
  9 14  1  0
  9  6  1  0
 10  9  2  0
 12 11  1  0
 13 14  1  0
 13 12  1  6
 15 13  1  0
 16 15  2  0
 17 15  1  0
M  END
$$$$
