GCS.pdb
     RDKit          3D

 17 16  0  0  1  0  0  0  0  0999 V2000
    6.7122  -14.1724   20.4700 N   0  0  0  0  0  0  0  0  0  0  0  0
    6.0305  -14.3573   21.7265 C   0  0  0  0  0  0  0  0  0  0  0  0
    7.0532  -14.2189   22.8131 C   0  0  0  0  0  0  0  0  0  0  0  0
    8.2901  -14.1334   22.5610 O   0  0  0  0  0  0  0  0  0  0  0  0
    6.6876  -14.1761   24.1867 N   0  0  0  0  0  0  0  0  0  0  0  0
    7.6935  -14.0184   25.2185 C   0  0  1  0  0  0  0  0  0  0  0  0
    6.9260  -13.7192   26.5125 C   0  0  0  0  0  0  0  0  0  0  0  0
    6.3448  -12.0032   26.3686 S   0  0  0  0  0  0  0  0  0  0  0  0
    8.4187  -15.2760   25.4088 C   0  0  0  0  0  0  0  0  0  0  0  0
    7.7685  -16.3467   25.5991 O   0  0  0  0  0  0  0  0  0  0  0  0
   12.6671  -17.6001   25.0356 O   0  0  0  0  0  0  0  0  0  0  0  0
   11.9498  -16.4106   24.9628 C   0  0  0  0  0  0  0  0  0  0  0  0
   10.5331  -16.6687   25.4927 C   0  0  2  0  0  0  0  0  0  0  0  0
    9.8289  -15.4101   25.3995 N   0  0  0  0  0  0  0  0  0  0  0  0
   10.6334  -17.1591   26.8806 C   0  0  0  0  0  0  0  0  0  0  0  0
   10.3699  -16.3461   27.7993 O   0  0  0  0  0  0  0  0  0  0  0  0
   10.9959  -18.4453   27.2327 O   0  0  0  0  0  0  0  0  0  0  0  0
  1  2  1  0
  2  3  1  0
  3  4  2  0
  5  6  1  0
  5  3  1  0
  7  8  1  0
  6  7  1  1
  9 14  1  0
  9  6  1  0
 10  9  2  0
 12 11  1  0
 13 14  1  0
 13 12  1  1
 15 13  1  0
 16 15  2  0
 17 15  1  0
M  END
$$$$
