GCS.pdb
     RDKit          3D

 17 16  0  0  1  0  0  0  0  0999 V2000
    7.4672  -14.5023   20.1788 N   0  0  0  0  0  0  0  0  0  0  0  0
    6.5711  -14.2135   21.2703 C   0  0  0  0  0  0  0  0  0  0  0  0
    7.4086  -14.0416   22.5010 C   0  0  0  0  0  0  0  0  0  0  0  0
    8.6497  -14.2872   22.5056 O   0  0  0  0  0  0  0  0  0  0  0  0
    6.8525  -13.5928   23.7306 N   0  0  0  0  0  0  0  0  0  0  0  0
    7.6457  -13.5799   24.9438 C   0  0  1  0  0  0  0  0  0  0  0  0
    6.8343  -12.7775   25.9688 C   0  0  0  0  0  0  0  0  0  0  0  0
    7.8549  -12.7003   27.4707 S   0  0  0  0  0  0  0  0  0  0  0  0
    7.7965  -14.9419   25.4594 C   0  0  0  0  0  0  0  0  0  0  0  0
    6.7644  -15.6485   25.6618 O   0  0  0  0  0  0  0  0  0  0  0  0
   11.0693  -17.0522   24.8999 O   0  0  0  0  0  0  0  0  0  0  0  0
    9.9031  -17.7244   25.2506 C   0  0  0  0  0  0  0  0  0  0  0  0
    9.1682  -16.8939   26.3111 C   0  0  2  0  0  0  0  0  0  0  0  0
    9.0326  -15.5635   25.7631 N   0  0  0  0  0  0  0  0  0  0  0  0
    9.9607  -16.9148   27.5554 C   0  0  0  0  0  0  0  0  0  0  0  0
   10.1302  -18.0266   28.1118 O   0  0  0  0  0  0  0  0  0  0  0  0
   10.5243  -15.7987   28.1440 O   0  0  0  0  0  0  0  0  0  0  0  0
  1  2  1  0
  2  3  1  0
  3  4  2  0
  5  6  1  0
  5  3  1  0
  7  8  1  0
  6  7  1  1
  9 14  1  0
  9  6  1  0
 10  9  2  0
 12 11  1  0
 13 14  1  0
 13 12  1  6
 15 13  1  0
 16 15  2  0
 17 15  1  0
M  END
$$$$
