GCS.pdb
     RDKit          3D

 17 16  0  0  1  0  0  0  0  0999 V2000
    8.5701  -13.0150   18.6991 N   0  0  0  0  0  0  0  0  0  0  0  0
    7.7134  -13.7644   19.5836 C   0  0  0  0  0  0  0  0  0  0  0  0
    8.4644  -13.9691   20.8641 C   0  0  0  0  0  0  0  0  0  0  0  0
    9.7114  -13.7723   20.9473 O   0  0  0  0  0  0  0  0  0  0  0  0
    7.8149  -14.3960   22.0550 N   0  0  0  0  0  0  0  0  0  0  0  0
    8.5602  -14.5706   23.2859 C   0  0  1  0  0  0  0  0  0  0  0  0
    7.5215  -14.5458   24.4142 C   0  0  0  0  0  0  0  0  0  0  0  0
    7.0004  -12.8127   24.5818 S   0  0  0  0  0  0  0  0  0  0  0  0
    9.2051  -15.8850   23.3000 C   0  0  0  0  0  0  0  0  0  0  0  0
    8.5721  -16.8934   22.8667 O   0  0  0  0  0  0  0  0  0  0  0  0
   13.1151  -16.1107   23.3476 O   0  0  0  0  0  0  0  0  0  0  0  0
   12.4380  -17.2236   22.8599 C   0  0  0  0  0  0  0  0  0  0  0  0
   11.1735  -17.4273   23.7050 C   0  0  2  0  0  0  0  0  0  0  0  0
   10.5166  -16.1416   23.7697 N   0  0  0  0  0  0  0  0  0  0  0  0
   11.5734  -17.9254   25.0350 C   0  0  0  0  0  0  0  0  0  0  0  0
   11.3282  -17.1915   26.0227 O   0  0  0  0  0  0  0  0  0  0  0  0
   12.1956  -19.1382   25.2626 O   0  0  0  0  0  0  0  0  0  0  0  0
  1  2  1  0
  2  3  1  0
  3  4  2  0
  5  6  1  0
  5  3  1  0
  7  8  1  0
  6  7  1  1
  9 14  1  0
  9  6  1  0
 10  9  2  0
 12 11  1  0
 13 14  1  0
 13 12  1  6
 15 13  1  0
 16 15  2  0
 17 15  1  0
M  END
$$$$
