GCS.pdb
     RDKit          3D

 17 16  0  0  1  0  0  0  0  0999 V2000
   -4.9053  -22.3604   29.5947 N   0  0  0  0  0  0  0  0  0  0  0  0
   -5.5252  -22.5179   30.8866 C   0  0  0  0  0  0  0  0  0  0  0  0
   -4.4348  -22.8131   31.8712 C   0  0  0  0  0  0  0  0  0  0  0  0
   -3.2392  -23.0090   31.5069 O   0  0  0  0  0  0  0  0  0  0  0  0
   -4.6861  -22.8889   33.2689 N   0  0  0  0  0  0  0  0  0  0  0  0
   -3.6345  -23.2635   34.1935 C   0  0  1  0  0  0  0  0  0  0  0  0
   -3.8711  -22.4313   35.4600 C   0  0  0  0  0  0  0  0  0  0  0  0
   -2.5028  -22.8296   36.5880 S   0  0  0  0  0  0  0  0  0  0  0  0
   -3.7643  -24.6763   34.5555 C   0  0  0  0  0  0  0  0  0  0  0  0
   -4.8276  -25.0806   35.1133 O   0  0  0  0  0  0  0  0  0  0  0  0
   -0.8935  -27.2278   33.4901 O   0  0  0  0  0  0  0  0  0  0  0  0
   -2.0836  -27.8833   33.7878 C   0  0  0  0  0  0  0  0  0  0  0  0
   -2.8637  -27.0316   34.7980 C   0  0  2  0  0  0  0  0  0  0  0  0
   -2.7763  -25.6665   34.3316 N   0  0  0  0  0  0  0  0  0  0  0  0
   -2.2584  -27.2134   36.1312 C   0  0  0  0  0  0  0  0  0  0  0  0
   -1.6317  -26.2409   36.6168 O   0  0  0  0  0  0  0  0  0  0  0  0
   -2.3359  -28.3757   36.8747 O   0  0  0  0  0  0  0  0  0  0  0  0
  1  2  1  0
  2  3  1  0
  3  4  2  0
  5  6  1  0
  5  3  1  0
  7  8  1  0
  6  7  1  1
  9 14  1  0
  9  6  1  0
 10  9  2  0
 12 11  1  0
 13 14  1  0
 13 12  1  6
 15 13  1  0
 16 15  2  0
 17 15  1  0
M  END
$$$$
