GCS.pdb
     RDKit          3D

 17 16  0  0  1  0  0  0  0  0999 V2000
    4.6883  -18.4178   20.5577 N   0  0  0  0  0  0  0  0  0  0  0  0
    4.7334  -17.0071   20.8504 C   0  0  0  0  0  0  0  0  0  0  0  0
    6.1719  -16.5892   20.8098 C   0  0  0  0  0  0  0  0  0  0  0  0
    7.1120  -17.4327   20.7349 O   0  0  0  0  0  0  0  0  0  0  0  0
    6.5575  -15.2211   20.8531 N   0  0  0  0  0  0  0  0  0  0  0  0
    7.9526  -14.8391   20.7592 C   0  0  1  0  0  0  0  0  0  0  0  0
    7.9584  -13.3306   20.4813 C   0  0  0  0  0  0  0  0  0  0  0  0
    7.3758  -13.1308   18.7713 S   0  0  0  0  0  0  0  0  0  0  0  0
    8.6211  -15.0603   22.0429 C   0  0  0  0  0  0  0  0  0  0  0  0
    8.1968  -14.4629   23.0766 O   0  0  0  0  0  0  0  0  0  0  0  0
   10.2392  -18.3719   22.9536 O   0  0  0  0  0  0  0  0  0  0  0  0
   10.0842  -17.4768   24.0070 C   0  0  0  0  0  0  0  0  0  0  0  0
   10.4305  -16.0706   23.4998 C   0  0  2  0  0  0  0  0  0  0  0  0
    9.7368  -15.9100   22.2422 N   0  0  0  0  0  0  0  0  0  0  0  0
   11.8954  -15.9720   23.3542 C   0  0  0  0  0  0  0  0  0  0  0  0
   12.5832  -16.0216   24.4025 O   0  0  0  0  0  0  0  0  0  0  0  0
   12.5548  -15.8296   22.1481 O   0  0  0  0  0  0  0  0  0  0  0  0
  1  2  1  0
  2  3  1  0
  3  4  2  0
  5  6  1  0
  5  3  1  0
  7  8  1  0
  6  7  1  1
  9 14  1  0
  9  6  1  0
 10  9  2  0
 12 11  1  0
 13 14  1  0
 13 12  1  6
 15 13  1  0
 16 15  2  0
 17 15  1  0
M  END
$$$$
