GCS.pdb
     RDKit          3D

 17 16  0  0  1  0  0  0  0  0999 V2000
    9.8714  -16.0303   25.4537 N   0  0  0  0  0  0  0  0  0  0  0  0
   10.0124  -14.9317   24.5311 C   0  0  0  0  0  0  0  0  0  0  0  0
    9.0975  -15.2002   23.3750 C   0  0  0  0  0  0  0  0  0  0  0  0
    8.3350  -16.2094   23.3454 O   0  0  0  0  0  0  0  0  0  0  0  0
    9.0374  -14.3342   22.2486 N   0  0  0  0  0  0  0  0  0  0  0  0
    8.1832  -14.6430   21.1190 C   0  0  1  0  0  0  0  0  0  0  0  0
    8.0127  -13.3278   20.3482 C   0  0  0  0  0  0  0  0  0  0  0  0
    6.9400  -13.7092   18.9314 S   0  0  0  0  0  0  0  0  0  0  0  0
    8.8496  -15.5984   20.2321 C   0  0  0  0  0  0  0  0  0  0  0  0
   10.0585  -15.4056   19.9053 O   0  0  0  0  0  0  0  0  0  0  0  0
    6.7347  -18.6234   18.7564 O   0  0  0  0  0  0  0  0  0  0  0  0
    8.0708  -18.9929   18.8708 C   0  0  0  0  0  0  0  0  0  0  0  0
    8.9267  -17.7196   18.8493 C   0  0  2  0  0  0  0  0  0  0  0  0
    8.2463  -16.7584   19.6871 N   0  0  0  0  0  0  0  0  0  0  0  0
    9.0528  -17.2627   17.4521 C   0  0  0  0  0  0  0  0  0  0  0  0
    8.3827  -16.2579   17.1119 O   0  0  0  0  0  0  0  0  0  0  0  0
    9.8545  -17.8641   16.5006 O   0  0  0  0  0  0  0  0  0  0  0  0
  1  2  1  0
  2  3  1  0
  3  4  2  0
  5  6  1  0
  5  3  1  0
  7  8  1  0
  6  7  1  6
  9 14  1  0
  9  6  1  0
 10  9  2  0
 12 11  1  0
 13 14  1  0
 13 12  1  6
 15 13  1  0
 16 15  2  0
 17 15  1  0
M  END
$$$$
