GCS.pdb
     RDKit          3D

 17 16  0  0  1  0  0  0  0  0999 V2000
    7.9677  -13.9664   18.1903 N   0  0  0  0  0  0  0  0  0  0  0  0
    7.0932  -14.2498   19.3006 C   0  0  0  0  0  0  0  0  0  0  0  0
    7.9361  -14.2637   20.5396 C   0  0  0  0  0  0  0  0  0  0  0  0
    9.1980  -14.1868   20.4913 O   0  0  0  0  0  0  0  0  0  0  0  0
    7.3619  -14.3639   21.8367 N   0  0  0  0  0  0  0  0  0  0  0  0
    8.2008  -14.4553   23.0153 C   0  0  1  0  0  0  0  0  0  0  0  0
    7.3274  -13.9977   24.1903 C   0  0  0  0  0  0  0  0  0  0  0  0
    8.3825  -14.0865   25.6675 S   0  0  0  0  0  0  0  0  0  0  0  0
    8.5793  -15.8492   23.2552 C   0  0  0  0  0  0  0  0  0  0  0  0
    7.6949  -16.7542   23.1903 O   0  0  0  0  0  0  0  0  0  0  0  0
   10.8971  -17.8313   21.5419 O   0  0  0  0  0  0  0  0  0  0  0  0
   11.3754  -18.0112   22.8357 C   0  0  0  0  0  0  0  0  0  0  0  0
   10.2473  -17.6706   23.8185 C   0  0  2  0  0  0  0  0  0  0  0  0
    9.8883  -16.2941   23.5637 N   0  0  0  0  0  0  0  0  0  0  0  0
   10.7427  -17.8807   25.1923 C   0  0  0  0  0  0  0  0  0  0  0  0
   10.8233  -16.8733   25.9360 O   0  0  0  0  0  0  0  0  0  0  0  0
   11.1211  -19.1049   25.7099 O   0  0  0  0  0  0  0  0  0  0  0  0
  1  2  1  0
  2  3  1  0
  3  4  2  0
  5  6  1  0
  5  3  1  0
  7  8  1  0
  6  7  1  1
  9 14  1  0
  9  6  1  0
 10  9  2  0
 12 11  1  0
 13 14  1  0
 13 12  1  6
 15 13  1  0
 16 15  2  0
 17 15  1  0
M  END
$$$$
