GCS.pdb
     RDKit          3D

 17 16  0  0  1  0  0  0  0  0999 V2000
    7.1568  -13.8719   19.8378 N   0  0  0  0  0  0  0  0  0  0  0  0
    6.3385  -13.8274   21.0237 C   0  0  0  0  0  0  0  0  0  0  0  0
    7.2625  -13.8386   22.2035 C   0  0  0  0  0  0  0  0  0  0  0  0
    8.5016  -14.0632   22.0809 O   0  0  0  0  0  0  0  0  0  0  0  0
    6.7954  -13.5973   23.5248 N   0  0  0  0  0  0  0  0  0  0  0  0
    7.7176  -13.5543   24.6424 C   0  0  1  0  0  0  0  0  0  0  0  0
    6.9699  -12.8445   25.7782 C   0  0  0  0  0  0  0  0  0  0  0  0
    8.1420  -12.7362   27.1630 S   0  0  0  0  0  0  0  0  0  0  0  0
    8.0266  -14.9134   25.0907 C   0  0  0  0  0  0  0  0  0  0  0  0
    7.0843  -15.6775   25.4562 O   0  0  0  0  0  0  0  0  0  0  0  0
   11.3638  -16.5931   23.9251 O   0  0  0  0  0  0  0  0  0  0  0  0
   10.3397  -17.4556   24.3020 C   0  0  0  0  0  0  0  0  0  0  0  0
    9.6131  -16.8439   25.5072 C   0  0  2  0  0  0  0  0  0  0  0  0
    9.3269  -15.4717   25.1555 N   0  0  0  0  0  0  0  0  0  0  0  0
   10.4899  -16.9537   26.6887 C   0  0  0  0  0  0  0  0  0  0  0  0
   10.8988  -15.8852   27.2039 O   0  0  0  0  0  0  0  0  0  0  0  0
   10.8873  -18.1472   27.2610 O   0  0  0  0  0  0  0  0  0  0  0  0
  1  2  1  0
  2  3  1  0
  3  4  2  0
  5  6  1  0
  5  3  1  0
  7  8  1  0
  6  7  1  1
  9 14  1  0
  9  6  1  0
 10  9  2  0
 12 11  1  0
 13 14  1  0
 13 12  1  6
 15 13  1  0
 16 15  2  0
 17 15  1  0
M  END
$$$$
