RGG.pdb
     RDKit          3D

 20 19  0  0  1  0  0  0  0  0999 V2000
    0.8879  -25.0865   25.2409 N   0  0  0  0  0  0  0  0  0  0  0  0
    0.9587  -24.9659   23.8017 C   0  0  0  0  0  0  0  0  0  0  0  0
   -0.0607  -24.7039   23.0964 N   0  0  0  0  0  0  0  0  0  0  0  0
    2.2210  -25.1528   23.1910 N   0  0  0  0  0  0  0  0  0  0  0  0
    3.4312  -25.3970   23.9869 C   0  0  0  0  0  0  0  0  0  0  0  0
    4.0887  -24.0896   24.3168 C   0  0  0  0  0  0  0  0  0  0  0  0
    5.3411  -24.2133   25.1053 C   0  0  0  0  0  0  0  0  0  0  0  0
    6.0287  -22.9156   25.3649 C   0  0  2  0  0  0  0  0  0  0  0  0
    5.3776  -21.7815   24.7372 N   0  0  0  0  0  0  0  0  0  0  0  0
    7.3709  -23.0187   24.6843 C   0  0  0  0  0  0  0  0  0  0  0  0
    8.2460  -23.7662   25.1338 O   0  0  0  0  0  0  0  0  0  0  0  0
   -0.0710  -24.5887   22.0866 N   0  0  0  0  0  0  0  0  0  0  0  0
    7.5836  -22.2334   23.5239 C   0  0  0  0  0  0  0  0  0  0  0  0
    8.8167  -22.4395   22.7968 C   0  0  0  0  0  0  0  0  0  0  0  0
    9.8191  -21.4750   23.3418 O   0  0  0  0  0  0  0  0  0  0  0  0
   10.3074  -20.5412   22.6598 N   0  0  0  0  0  0  0  0  0  0  0  0
   10.2555  -21.6046   24.7005 C   0  0  0  0  0  0  0  0  0  0  0  0
   11.1927  -20.6685   25.2511 C   0  0  0  0  0  0  0  0  0  0  0  0
   12.5675  -20.8671   24.7865 O   0  0  0  0  0  0  0  0  0  0  0  0
   13.5967  -20.1185   25.3203 O   0  0  0  0  0  0  0  0  0  0  0  0
  2  1  1  0
  3  2  2  0
  4  2  1  0
  5  4  1  0
  6  5  1  0
  7  6  1  0
  8 10  1  0
  8  7  1  0
  8  9  1  6
 10 12  1  0
 11 10  2  0
 12 13  1  0
 13 14  1  0
 14 16  1  0
 14 15  2  0
 16 17  1  0
 17 18  1  0
 18 19  1  0
 20 18  2  0
M  END
$$$$
