RGG.pdb
     RDKit          3D

 20 19  0  0  1  0  0  0  0  0999 V2000
    7.4019  -11.7853   21.6759 N   0  0  0  0  0  0  0  0  0  0  0  0
    7.5502  -12.8965   20.7627 C   0  0  0  0  0  0  0  0  0  0  0  0
    7.5482  -12.7404   19.5054 N   0  0  0  0  0  0  0  0  0  0  0  0
    7.6999  -14.1873   21.3221 N   0  0  0  0  0  0  0  0  0  0  0  0
    8.5890  -15.1884   20.7180 C   0  0  0  0  0  0  0  0  0  0  0  0
    7.8000  -16.4145   20.3652 C   0  0  0  0  0  0  0  0  0  0  0  0
    8.5500  -17.4203   19.5706 C   0  0  0  0  0  0  0  0  0  0  0  0
    9.0321  -18.5876   20.3639 C   0  0  2  0  0  0  0  0  0  0  0  0
    8.8614  -18.4233   21.7950 N   0  0  0  0  0  0  0  0  0  0  0  0
   10.5249  -18.6386   20.1538 C   0  0  0  0  0  0  0  0  0  0  0  0
   11.0751  -17.8565   19.3714 O   0  0  0  0  0  0  0  0  0  0  0  0
    7.6797  -13.4749   18.8152 N   0  0  0  0  0  0  0  0  0  0  0  0
   11.2600  -19.6078   20.8810 C   0  0  0  0  0  0  0  0  0  0  0  0
   12.6924  -19.6438   20.6835 C   0  0  0  0  0  0  0  0  0  0  0  0
   13.3099  -18.8205   21.7664 O   0  0  0  0  0  0  0  0  0  0  0  0
   14.4560  -19.0470   22.2255 N   0  0  0  0  0  0  0  0  0  0  0  0
   12.5781  -17.7195   22.3190 C   0  0  0  0  0  0  0  0  0  0  0  0
   12.6041  -17.4703   23.7315 C   0  0  0  0  0  0  0  0  0  0  0  0
   13.7254  -16.6323   24.1625 O   0  0  0  0  0  0  0  0  0  0  0  0
   13.7800  -16.1558   25.4567 O   0  0  0  0  0  0  0  0  0  0  0  0
  2  1  1  0
  3  2  2  0
  4  2  1  0
  5  4  1  0
  6  5  1  0
  7  6  1  0
  8 10  1  0
  8  7  1  0
  8  9  1  1
 10 12  1  0
 11 10  2  0
 12 13  1  0
 13 14  1  0
 14 16  1  0
 14 15  2  0
 16 17  1  0
 17 18  1  0
 18 19  1  0
 20 18  2  0
M  END
$$$$
