RGG.pdb
     RDKit          3D

 20 19  0  0  1  0  0  0  0  0999 V2000
    7.1840  -12.6710   17.7705 N   0  0  0  0  0  0  0  0  0  0  0  0
    7.9446  -13.6734   17.0582 C   0  0  0  0  0  0  0  0  0  0  0  0
    8.2154  -13.5641   15.8254 N   0  0  0  0  0  0  0  0  0  0  0  0
    8.3859  -14.8013   17.7894 N   0  0  0  0  0  0  0  0  0  0  0  0
    7.8184  -15.1364   19.1021 C   0  0  0  0  0  0  0  0  0  0  0  0
    8.2230  -14.0968   20.1052 C   0  0  0  0  0  0  0  0  0  0  0  0
    7.8157  -14.3985   21.5011 C   0  0  0  0  0  0  0  0  0  0  0  0
    8.1848  -15.7684   21.9612 C   0  0  2  0  0  0  0  0  0  0  0  0
    7.0949  -16.4731   22.6089 N   0  0  0  0  0  0  0  0  0  0  0  0
    9.2188  -15.5739   23.0421 C   0  0  0  0  0  0  0  0  0  0  0  0
   10.2758  -14.9820   22.7995 O   0  0  0  0  0  0  0  0  0  0  0  0
    8.8056  -14.1938   15.2885 N   0  0  0  0  0  0  0  0  0  0  0  0
    8.9313  -16.0913   24.3298 C   0  0  0  0  0  0  0  0  0  0  0  0
    9.9826  -16.0324   25.3214 C   0  0  0  0  0  0  0  0  0  0  0  0
   10.5278  -17.4152   25.4720 O   0  0  0  0  0  0  0  0  0  0  0  0
   10.0635  -18.4024   24.8510 N   0  0  0  0  0  0  0  0  0  0  0  0
   11.6287  -17.6460   26.3595 C   0  0  0  0  0  0  0  0  0  0  0  0
   12.2107  -18.9530   26.4649 C   0  0  0  0  0  0  0  0  0  0  0  0
   11.7714  -19.7012   27.6449 O   0  0  0  0  0  0  0  0  0  0  0  0
   12.2405  -20.9792   27.8721 O   0  0  0  0  0  0  0  0  0  0  0  0
  2  1  1  0
  3  2  2  0
  4  2  1  0
  5  4  1  0
  6  5  1  0
  7  6  1  0
  8 10  1  0
  8  7  1  0
  8  9  1  1
 10 12  1  0
 11 10  2  0
 12 13  1  0
 13 14  1  0
 14 16  1  0
 14 15  2  0
 16 17  1  0
 17 18  1  0
 18 19  1  0
 20 18  2  0
M  END
$$$$
