RGG.pdb
     RDKit          3D

 20 19  0  0  1  0  0  0  0  0999 V2000
    9.5382  -12.7255   19.1988 N   0  0  0  0  0  0  0  0  0  0  0  0
    8.7446  -13.2937   18.1319 C   0  0  0  0  0  0  0  0  0  0  0  0
    9.2452  -13.5994   17.0089 N   0  0  0  0  0  0  0  0  0  0  0  0
    7.3676  -13.5022   18.3808 N   0  0  0  0  0  0  0  0  0  0  0  0
    6.8648  -13.7830   19.7321 C   0  0  0  0  0  0  0  0  0  0  0  0
    7.4407  -15.0779   20.2242 C   0  0  0  0  0  0  0  0  0  0  0  0
    6.9071  -15.5291   21.5345 C   0  0  0  0  0  0  0  0  0  0  0  0
    7.4298  -16.8521   21.9826 C   0  0  2  0  0  0  0  0  0  0  0  0
    6.9004  -17.9693   21.2237 N   0  0  0  0  0  0  0  0  0  0  0  0
    6.9035  -17.0490   23.3825 C   0  0  0  0  0  0  0  0  0  0  0  0
    5.7127  -17.3180   23.5726 O   0  0  0  0  0  0  0  0  0  0  0  0
    8.7340  -13.9656   16.2104 N   0  0  0  0  0  0  0  0  0  0  0  0
    7.8191  -16.9142   24.4558 C   0  0  0  0  0  0  0  0  0  0  0  0
    7.2870  -16.5102   25.7386 C   0  0  0  0  0  0  0  0  0  0  0  0
    8.3007  -15.6181   26.3778 O   0  0  0  0  0  0  0  0  0  0  0  0
    9.4313  -15.4024   25.8770 N   0  0  0  0  0  0  0  0  0  0  0  0
    7.9883  -14.9711   27.6175 C   0  0  0  0  0  0  0  0  0  0  0  0
    8.7945  -13.8816   28.0876 C   0  0  0  0  0  0  0  0  0  0  0  0
   10.0226  -14.3053   28.7641 O   0  0  0  0  0  0  0  0  0  0  0  0
   10.9021  -13.3651   29.2616 O   0  0  0  0  0  0  0  0  0  0  0  0
  2  1  1  0
  3  2  2  0
  4  2  1  0
  5  4  1  0
  6  5  1  0
  7  6  1  0
  8 10  1  0
  8  7  1  0
  8  9  1  6
 10 12  1  0
 11 10  2  0
 12 13  1  0
 13 14  1  0
 14 16  1  0
 14 15  2  0
 16 17  1  0
 17 18  1  0
 18 19  1  0
 20 18  2  0
M  END
$$$$
