RGG.pdb
     RDKit          3D

 20 19  0  0  1  0  0  0  0  0999 V2000
    9.4504  -14.2826   17.0438 N   0  0  0  0  0  0  0  0  0  0  0  0
    8.0982  -13.7770   17.1270 C   0  0  0  0  0  0  0  0  0  0  0  0
    7.2923  -13.8447   16.1518 N   0  0  0  0  0  0  0  0  0  0  0  0
    7.6925  -13.1930   18.3500 N   0  0  0  0  0  0  0  0  0  0  0  0
    8.3186  -13.5666   19.6251 C   0  0  0  0  0  0  0  0  0  0  0  0
    7.2634  -14.0229   20.5890 C   0  0  0  0  0  0  0  0  0  0  0  0
    7.7797  -14.4136   21.9255 C   0  0  0  0  0  0  0  0  0  0  0  0
    8.0635  -15.8709   22.0673 C   0  0  2  0  0  0  0  0  0  0  0  0
    6.9269  -16.6369   22.5424 N   0  0  0  0  0  0  0  0  0  0  0  0
    9.0939  -15.9840   23.1631 C   0  0  0  0  0  0  0  0  0  0  0  0
    8.7451  -16.0689   24.3453 O   0  0  0  0  0  0  0  0  0  0  0  0
    6.3274  -13.5251   16.1550 N   0  0  0  0  0  0  0  0  0  0  0  0
   10.4598  -15.9885   22.7854 C   0  0  0  0  0  0  0  0  0  0  0  0
   11.4384  -16.2087   23.8274 C   0  0  0  0  0  0  0  0  0  0  0  0
   12.7846  -16.2024   23.1796 O   0  0  0  0  0  0  0  0  0  0  0  0
   12.9423  -16.1435   21.9357 N   0  0  0  0  0  0  0  0  0  0  0  0
   13.9601  -16.2661   23.9964 C   0  0  0  0  0  0  0  0  0  0  0  0
   15.1699  -15.6212   23.5738 C   0  0  0  0  0  0  0  0  0  0  0  0
   16.3016  -15.8391   24.4777 O   0  0  0  0  0  0  0  0  0  0  0  0
   17.5618  -15.3934   24.1338 O   0  0  0  0  0  0  0  0  0  0  0  0
  2  1  1  0
  3  2  2  0
  4  2  1  0
  5  4  1  0
  6  5  1  0
  7  6  1  0
  8 10  1  0
  8  7  1  0
  8  9  1  1
 10 12  1  0
 11 10  2  0
 12 13  1  0
 13 14  1  0
 14 16  1  0
 14 15  2  0
 16 17  1  0
 17 18  1  0
 18 19  1  0
 20 18  2  0
M  END
$$$$
