RGG.pdb
     RDKit          3D

 20 19  0  0  1  0  0  0  0  0999 V2000
    9.9709  -13.6330   18.8275 N   0  0  0  0  0  0  0  0  0  0  0  0
    8.8343  -12.7855   19.1114 C   0  0  0  0  0  0  0  0  0  0  0  0
    8.9434  -11.5288   19.2293 N   0  0  0  0  0  0  0  0  0  0  0  0
    7.5732  -13.4098   19.2572 N   0  0  0  0  0  0  0  0  0  0  0  0
    6.9902  -13.6645   20.5812 C   0  0  0  0  0  0  0  0  0  0  0  0
    7.3547  -15.0475   21.0338 C   0  0  0  0  0  0  0  0  0  0  0  0
    6.9352  -15.3705   22.4213 C   0  0  0  0  0  0  0  0  0  0  0  0
    8.0645  -15.6958   23.3395 C   0  0  2  0  0  0  0  0  0  0  0  0
    8.9517  -16.7207   22.8230 N   0  0  0  0  0  0  0  0  0  0  0  0
    7.4339  -16.3092   24.5649 C   0  0  0  0  0  0  0  0  0  0  0  0
    6.5842  -15.6869   25.2108 O   0  0  0  0  0  0  0  0  0  0  0  0
    8.1924  -10.8868   19.4679 N   0  0  0  0  0  0  0  0  0  0  0  0
    7.8511  -17.6108   24.9393 C   0  0  0  0  0  0  0  0  0  0  0  0
    7.3015  -18.1615   26.1586 C   0  0  0  0  0  0  0  0  0  0  0  0
    8.3786  -18.1106   27.1927 O   0  0  0  0  0  0  0  0  0  0  0  0
    9.4957  -17.5762   26.9877 N   0  0  0  0  0  0  0  0  0  0  0  0
    8.1461  -18.6918   28.4816 C   0  0  0  0  0  0  0  0  0  0  0  0
    9.1562  -18.6239   29.4980 C   0  0  0  0  0  0  0  0  0  0  0  0
   10.2254  -19.6115   29.3344 O   0  0  0  0  0  0  0  0  0  0  0  0
   11.2025  -19.7447   30.2999 O   0  0  0  0  0  0  0  0  0  0  0  0
  2  1  1  0
  3  2  2  0
  4  2  1  0
  5  4  1  0
  6  5  1  0
  7  6  1  0
  8 10  1  0
  8  7  1  0
  8  9  1  6
 10 12  1  0
 11 10  2  0
 12 13  1  0
 13 14  1  0
 14 16  1  0
 14 15  2  0
 16 17  1  0
 17 18  1  0
 18 19  1  0
 20 18  2  0
M  END
$$$$
