RGG.pdb
     RDKit          3D

 20 19  0  0  1  0  0  0  0  0999 V2000
    7.3570  -13.8040   17.5266 N   0  0  0  0  0  0  0  0  0  0  0  0
    8.5498  -13.2605   18.1371 C   0  0  0  0  0  0  0  0  0  0  0  0
    9.6282  -13.1074   17.4901 N   0  0  0  0  0  0  0  0  0  0  0  0
    8.4784  -12.8982   19.5028 N   0  0  0  0  0  0  0  0  0  0  0  0
    7.2787  -13.1653   20.3071 C   0  0  0  0  0  0  0  0  0  0  0  0
    7.2936  -14.5906   20.7747 C   0  0  0  0  0  0  0  0  0  0  0  0
    8.4321  -14.9336   21.6645 C   0  0  0  0  0  0  0  0  0  0  0  0
    8.4260  -16.3452   22.1456 C   0  0  2  0  0  0  0  0  0  0  0  0
    7.4566  -16.5931   23.1958 N   0  0  0  0  0  0  0  0  0  0  0  0
    9.7690  -16.5629   22.7970 C   0  0  0  0  0  0  0  0  0  0  0  0
    9.9120  -16.3897   24.0120 O   0  0  0  0  0  0  0  0  0  0  0  0
   10.4933  -12.7222   17.8594 N   0  0  0  0  0  0  0  0  0  0  0  0
   10.8451  -16.9688   21.9689 C   0  0  0  0  0  0  0  0  0  0  0  0
   12.0956  -17.2996   22.6159 C   0  0  0  0  0  0  0  0  0  0  0  0
   13.0451  -16.1784   22.3447 O   0  0  0  0  0  0  0  0  0  0  0  0
   12.7603  -15.2090   21.5999 N   0  0  0  0  0  0  0  0  0  0  0  0
   14.3430  -16.1916   22.9517 C   0  0  0  0  0  0  0  0  0  0  0  0
   15.3297  -15.2230   22.5693 C   0  0  0  0  0  0  0  0  0  0  0  0
   16.6282  -15.4152   23.2191 O   0  0  0  0  0  0  0  0  0  0  0  0
   17.6828  -14.5740   22.9275 O   0  0  0  0  0  0  0  0  0  0  0  0
  2  1  1  0
  3  2  2  0
  4  2  1  0
  5  4  1  0
  6  5  1  0
  7  6  1  0
  8 10  1  0
  8  7  1  0
  8  9  1  1
 10 12  1  0
 11 10  2  0
 12 13  1  0
 13 14  1  0
 14 16  1  0
 14 15  2  0
 16 17  1  0
 17 18  1  0
 18 19  1  0
 20 18  2  0
M  END
$$$$
