RGG.pdb
     RDKit          3D

 20 19  0  0  1  0  0  0  0  0999 V2000
    2.2060  -20.6489   16.7121 N   0  0  0  0  0  0  0  0  0  0  0  0
    0.8963  -20.5640   16.1052 C   0  0  0  0  0  0  0  0  0  0  0  0
    0.7275  -20.1398   14.9234 N   0  0  0  0  0  0  0  0  0  0  0  0
   -0.2124  -20.9746   16.8821 N   0  0  0  0  0  0  0  0  0  0  0  0
   -0.0554  -21.4068   18.2771 C   0  0  0  0  0  0  0  0  0  0  0  0
   -0.7697  -20.4488   19.1840 C   0  0  0  0  0  0  0  0  0  0  0  0
    0.0973  -19.8056   20.2039 C   0  0  0  0  0  0  0  0  0  0  0  0
    1.3715  -20.5343   20.4679 C   0  0  2  0  0  0  0  0  0  0  0  0
    1.3173  -21.3860   21.6409 N   0  0  0  0  0  0  0  0  0  0  0  0
    2.3893  -19.4732   20.8047 C   0  0  0  0  0  0  0  0  0  0  0  0
    2.7247  -18.6357   19.9606 O   0  0  0  0  0  0  0  0  0  0  0  0
   -0.1672  -20.0291   14.4539 N   0  0  0  0  0  0  0  0  0  0  0  0
    2.9374  -19.4769   22.1116 C   0  0  0  0  0  0  0  0  0  0  0  0
    3.9541  -18.4926   22.4105 C   0  0  0  0  0  0  0  0  0  0  0  0
    5.2472  -19.2245   22.5664 O   0  0  0  0  0  0  0  0  0  0  0  0
    5.7396  -19.9393   21.6596 N   0  0  0  0  0  0  0  0  0  0  0  0
    5.9727  -19.1191   23.7975 C   0  0  0  0  0  0  0  0  0  0  0  0
    7.1843  -19.8631   23.9886 C   0  0  0  0  0  0  0  0  0  0  0  0
    7.8239  -19.6264   25.2848 O   0  0  0  0  0  0  0  0  0  0  0  0
    8.9843  -20.2944   25.6197 O   0  0  0  0  0  0  0  0  0  0  0  0
  2  1  1  0
  3  2  2  0
  4  2  1  0
  5  4  1  0
  6  5  1  0
  7  6  1  0
  8 10  1  0
  8  7  1  0
  8  9  1  1
 10 12  1  0
 11 10  2  0
 12 13  1  0
 13 14  1  0
 14 16  1  0
 14 15  2  0
 16 17  1  0
 17 18  1  0
 18 19  1  0
 20 18  2  0
M  END
$$$$
