CLA.pdb
     RDKit          3D

 20 19  0  0  1  0  0  0  0  0999 V2000
   19.9992  -13.0368  -19.3443 N   0  0  0  0  0  0  0  0  0  0  0  0
   20.5717  -11.7401  -19.5722 C   0  0  1  0  0  0  0  0  0  0  0  0
   19.9022  -11.0601  -20.7372 C   0  0  0  0  0  0  0  0  0  0  0  0
   20.3998  -11.8936  -22.2694 S   0  0  0  0  0  0  0  0  0  0  0  0
   20.5605  -10.9467  -18.3424 C   0  0  0  0  0  0  0  0  0  0  0  0
   19.5493  -11.0058  -17.5978 O   0  0  0  0  0  0  0  0  0  0  0  0
   22.1872  -10.9522  -14.0661 C   0  0  0  0  0  0  0  0  0  0  0  0
   23.1489  -10.7084  -15.2485 C   0  0  2  0  0  0  0  0  0  0  0  0
   24.5319  -10.7457  -14.6543 C   0  0  0  0  0  0  0  0  0  0  0  0
   22.8261   -9.3906  -15.8901 C   0  0  0  0  0  0  0  0  0  0  0  0
   21.6007   -9.3468  -16.7092 C   0  0  2  0  0  0  0  0  0  0  0  0
   21.6308  -10.0991  -17.9232 N   0  0  0  0  0  0  0  0  0  0  0  0
   21.1674   -7.9401  -17.0031 C   0  0  0  0  0  0  0  0  0  0  0  0
   21.8002   -7.2181  -17.8051 O   0  0  0  0  0  0  0  0  0  0  0  0
   18.1761   -6.1135  -17.3501 C   0  0  0  0  0  0  0  0  0  0  0  0
   19.5176   -6.0687  -16.6417 C   0  0  2  0  0  0  0  0  0  0  0  0
   20.0170   -7.3962  -16.3681 N   0  0  0  0  0  0  0  0  0  0  0  0
   19.4024   -5.2632  -15.3951 C   0  0  0  0  0  0  0  0  0  0  0  0
   19.2722   -5.8090  -14.2762 O   0  0  0  0  0  0  0  0  0  0  0  0
   19.4384   -3.8870  -15.4621 O   0  0  0  0  0  0  0  0  0  0  0  0
  2  1  1  1
  2  3  1  0
  4  3  1  0
  5  2  1  0
  5  6  2  0
  8  7  1  1
  8 10  1  0
  9  8  1  0
 11 10  1  6
 11 12  1  0
 11 13  1  0
 12  5  1  0
 13 14  2  0
 16 15  1  1
 17 13  1  0
 17 16  1  0
 18 16  1  0
 19 18  2  0
 20 18  1  0
M  END
$$$$
