CLA.pdb
     RDKit          3D

 20 19  0  0  1  0  0  0  0  0999 V2000
   28.0486  -21.0493  -13.6196 N   0  0  0  0  0  0  0  0  0  0  0  0
   27.4718  -20.0740  -12.7381 C   0  0  1  0  0  0  0  0  0  0  0  0
   26.6865  -19.0515  -13.5165 C   0  0  0  0  0  0  0  0  0  0  0  0
   27.7187  -18.4228  -14.8691 S   0  0  0  0  0  0  0  0  0  0  0  0
   26.7005  -20.7263  -11.6790 C   0  0  0  0  0  0  0  0  0  0  0  0
   26.3496  -21.9227  -11.8405 O   0  0  0  0  0  0  0  0  0  0  0  0
   28.1625  -21.0064   -7.3560 C   0  0  0  0  0  0  0  0  0  0  0  0
   27.2869  -19.7980   -7.7501 C   0  0  2  0  0  0  0  0  0  0  0  0
   27.3548  -18.8548   -6.5784 C   0  0  0  0  0  0  0  0  0  0  0  0
   25.8910  -20.2670   -8.0399 C   0  0  0  0  0  0  0  0  0  0  0  0
   25.6442  -20.7785   -9.4008 C   0  0  2  0  0  0  0  0  0  0  0  0
   26.3133  -20.0917  -10.4596 N   0  0  0  0  0  0  0  0  0  0  0  0
   24.1789  -20.8716   -9.7123 C   0  0  0  0  0  0  0  0  0  0  0  0
   23.3787  -21.4191   -8.9219 O   0  0  0  0  0  0  0  0  0  0  0  0
   21.8936  -19.1667  -12.1462 C   0  0  0  0  0  0  0  0  0  0  0  0
   22.2637  -20.3454  -11.2646 C   0  0  2  0  0  0  0  0  0  0  0  0
   23.6677  -20.3332  -10.9254 N   0  0  0  0  0  0  0  0  0  0  0  0
   21.8770  -21.6170  -11.9352 C   0  0  0  0  0  0  0  0  0  0  0  0
   20.6795  -21.8866  -12.1803 O   0  0  0  0  0  0  0  0  0  0  0  0
   22.8493  -22.5240  -12.2983 O   0  0  0  0  0  0  0  0  0  0  0  0
  2  1  1  6
  2  3  1  0
  4  3  1  0
  5  2  1  0
  5  6  2  0
  8  7  1  1
  8 10  1  0
  9  8  1  0
 11 10  1  1
 11 12  1  0
 11 13  1  0
 12  5  1  0
 13 14  2  0
 16 15  1  6
 17 13  1  0
 17 16  1  0
 18 16  1  0
 19 18  2  0
 20 18  1  0
M  END
$$$$
