CLA.pdb
     RDKit          3D

 20 19  0  0  1  0  0  0  0  0999 V2000
   17.3394  -11.2480  -16.4499 N   0  0  0  0  0  0  0  0  0  0  0  0
   18.0401  -10.1536  -17.0602 C   0  0  1  0  0  0  0  0  0  0  0  0
   17.0904   -9.0339  -17.3948 C   0  0  0  0  0  0  0  0  0  0  0  0
   16.0092   -9.5657  -18.7507 S   0  0  0  0  0  0  0  0  0  0  0  0
   19.1715   -9.7370  -16.2303 C   0  0  0  0  0  0  0  0  0  0  0  0
   18.9401   -9.2941  -15.0767 O   0  0  0  0  0  0  0  0  0  0  0  0
   22.7362  -11.4549  -13.9577 C   0  0  0  0  0  0  0  0  0  0  0  0
   22.9295  -11.4459  -15.4890 C   0  0  2  0  0  0  0  0  0  0  0  0
   24.2534  -12.1216  -15.7297 C   0  0  0  0  0  0  0  0  0  0  0  0
   22.8991  -10.0306  -15.9871 C   0  0  0  0  0  0  0  0  0  0  0  0
   21.6172   -9.3159  -15.8433 C   0  0  2  0  0  0  0  0  0  0  0  0
   20.5371   -9.7987  -16.6438 N   0  0  0  0  0  0  0  0  0  0  0  0
   21.7689   -7.8367  -16.0473 C   0  0  0  0  0  0  0  0  0  0  0  0
   22.1204   -7.3644  -17.1511 O   0  0  0  0  0  0  0  0  0  0  0  0
   20.2357   -4.8729  -15.3172 C   0  0  0  0  0  0  0  0  0  0  0  0
   21.6032   -5.4999  -15.1164 C   0  0  2  0  0  0  0  0  0  0  0  0
   21.5131   -6.9349  -14.9778 N   0  0  0  0  0  0  0  0  0  0  0  0
   22.2735   -4.8807  -13.9401 C   0  0  0  0  0  0  0  0  0  0  0  0
   22.6349   -3.6824  -13.9520 O   0  0  0  0  0  0  0  0  0  0  0  0
   22.5062   -5.6330  -12.8089 O   0  0  0  0  0  0  0  0  0  0  0  0
  2  1  1  1
  2  3  1  0
  4  3  1  0
  5  2  1  0
  5  6  2  0
  8  7  1  1
  8 10  1  0
  9  8  1  0
 11 10  1  6
 11 12  1  0
 11 13  1  0
 12  5  1  0
 13 14  2  0
 16 15  1  1
 17 13  1  0
 17 16  1  0
 18 16  1  0
 19 18  2  0
 20 18  1  0
M  END
$$$$
