CLA.pdb
     RDKit          3D

 20 19  0  0  1  0  0  0  0  0999 V2000
   25.3888  -11.7557  -18.1368 N   0  0  0  0  0  0  0  0  0  0  0  0
   25.3819  -11.0825  -16.8688 C   0  0  1  0  0  0  0  0  0  0  0  0
   26.7034  -10.4050  -16.6188 C   0  0  0  0  0  0  0  0  0  0  0  0
   27.9553  -11.6698  -16.2677 S   0  0  0  0  0  0  0  0  0  0  0  0
   24.2315  -10.1836  -16.7669 C   0  0  0  0  0  0  0  0  0  0  0  0
   23.9499   -9.4533  -17.7508 O   0  0  0  0  0  0  0  0  0  0  0  0
   19.7877  -10.5622  -16.9082 C   0  0  0  0  0  0  0  0  0  0  0  0
   20.4284  -11.0043  -15.5754 C   0  0  2  0  0  0  0  0  0  0  0  0
   19.3067  -11.6076  -14.7722 C   0  0  0  0  0  0  0  0  0  0  0  0
   21.0520   -9.8160  -14.9036 C   0  0  0  0  0  0  0  0  0  0  0  0
   22.2377   -9.2405  -15.5650 C   0  0  2  0  0  0  0  0  0  0  0  0
   23.3955  -10.0758  -15.6140 N   0  0  0  0  0  0  0  0  0  0  0  0
   22.6096   -7.9030  -14.9945 C   0  0  0  0  0  0  0  0  0  0  0  0
   23.1789   -7.8039  -13.8850 O   0  0  0  0  0  0  0  0  0  0  0  0
   22.3863   -4.3269  -16.2718 C   0  0  0  0  0  0  0  0  0  0  0  0
   22.6576   -5.3933  -15.2265 C   0  0  2  0  0  0  0  0  0  0  0  0
   22.3185   -6.7105  -15.7127 N   0  0  0  0  0  0  0  0  0  0  0  0
   21.9213   -5.0696  -13.9738 C   0  0  0  0  0  0  0  0  0  0  0  0
   20.7771   -5.5271  -13.7536 O   0  0  0  0  0  0  0  0  0  0  0  0
   22.5015   -4.2501  -13.0296 O   0  0  0  0  0  0  0  0  0  0  0  0
  2  1  1  6
  2  3  1  0
  4  3  1  0
  5  2  1  0
  5  6  2  0
  8  7  1  6
  8 10  1  0
  9  8  1  0
 11 10  1  1
 11 12  1  0
 11 13  1  0
 12  5  1  0
 13 14  2  0
 16 15  1  6
 17 13  1  0
 17 16  1  0
 18 16  1  0
 19 18  2  0
 20 18  1  0
M  END
$$$$
