CLA.pdb
     RDKit          3D

 20 19  0  0  1  0  0  0  0  0999 V2000
   18.6968  -12.3888  -17.9872 N   0  0  0  0  0  0  0  0  0  0  0  0
   19.0671  -11.0506  -18.3521 C   0  0  1  0  0  0  0  0  0  0  0  0
   18.1045  -10.4897  -19.3653 C   0  0  0  0  0  0  0  0  0  0  0  0
   18.4802  -11.2024  -20.9904 S   0  0  0  0  0  0  0  0  0  0  0  0
   19.2214  -10.2139  -17.1613 C   0  0  0  0  0  0  0  0  0  0  0  0
   18.3119  -10.2294  -16.2935 O   0  0  0  0  0  0  0  0  0  0  0  0
   21.0225   -9.8242  -13.0348 C   0  0  0  0  0  0  0  0  0  0  0  0
   21.9559   -9.7535  -14.2620 C   0  0  2  0  0  0  0  0  0  0  0  0
   23.3541   -9.7963  -13.7051 C   0  0  0  0  0  0  0  0  0  0  0  0
   21.6738   -8.4960  -15.0312 C   0  0  0  0  0  0  0  0  0  0  0  0
   20.4179   -8.4719  -15.8038 C   0  0  2  0  0  0  0  0  0  0  0  0
   20.3465   -9.3702  -16.9122 N   0  0  0  0  0  0  0  0  0  0  0  0
   20.0608   -7.0868  -16.2585 C   0  0  0  0  0  0  0  0  0  0  0  0
   20.8055   -6.4425  -17.0299 O   0  0  0  0  0  0  0  0  0  0  0  0
   16.8882   -5.0634  -16.1840 C   0  0  0  0  0  0  0  0  0  0  0  0
   18.3956   -5.1947  -16.3018 C   0  0  2  0  0  0  0  0  0  0  0  0
   18.8558   -6.4747  -15.8158 N   0  0  0  0  0  0  0  0  0  0  0  0
   19.0569   -4.0705  -15.5839 C   0  0  0  0  0  0  0  0  0  0  0  0
   19.7108   -4.2627  -14.5340 O   0  0  0  0  0  0  0  0  0  0  0  0
   18.9537   -2.7873  -16.0761 O   0  0  0  0  0  0  0  0  0  0  0  0
  2  1  1  1
  2  3  1  0
  4  3  1  0
  5  2  1  0
  5  6  2  0
  8  7  1  1
  8 10  1  0
  9  8  1  0
 11 10  1  6
 11 12  1  0
 11 13  1  0
 12  5  1  0
 13 14  2  0
 16 15  1  1
 17 13  1  0
 17 16  1  0
 18 16  1  0
 19 18  2  0
 20 18  1  0
M  END
$$$$
