CLA.pdb
     RDKit          3D

 20 19  0  0  1  0  0  0  0  0999 V2000
   17.6376  -12.7795  -16.2614 N   0  0  0  0  0  0  0  0  0  0  0  0
   18.1446  -11.6979  -17.0578 C   0  0  1  0  0  0  0  0  0  0  0  0
   17.1688  -11.3355  -18.1460 C   0  0  0  0  0  0  0  0  0  0  0  0
   17.0720  -12.7069  -19.3293 S   0  0  0  0  0  0  0  0  0  0  0  0
   18.5274  -10.5674  -16.2107 C   0  0  0  0  0  0  0  0  0  0  0  0
   17.6959  -10.1351  -15.3728 O   0  0  0  0  0  0  0  0  0  0  0  0
   21.3074   -9.5375  -12.6103 C   0  0  0  0  0  0  0  0  0  0  0  0
   21.9340   -9.8329  -13.9896 C   0  0  2  0  0  0  0  0  0  0  0  0
   23.4202   -9.8803  -13.7526 C   0  0  0  0  0  0  0  0  0  0  0  0
   21.5330   -8.7602  -14.9595 C   0  0  0  0  0  0  0  0  0  0  0  0
   20.1390   -8.8022  -15.4389 C   0  0  2  0  0  0  0  0  0  0  0  0
   19.7951   -9.9122  -16.2696 N   0  0  0  0  0  0  0  0  0  0  0  0
   19.7361   -7.5256  -16.1176 C   0  0  0  0  0  0  0  0  0  0  0  0
   20.2056   -7.2042  -17.2317 O   0  0  0  0  0  0  0  0  0  0  0  0
   16.9874   -5.0395  -15.8384 C   0  0  0  0  0  0  0  0  0  0  0  0
   18.4582   -5.3540  -16.0409 C   0  0  2  0  0  0  0  0  0  0  0  0
   18.8029   -6.6482  -15.4997 N   0  0  0  0  0  0  0  0  0  0  0  0
   19.2912   -4.2748  -15.4426 C   0  0  0  0  0  0  0  0  0  0  0  0
   20.0526   -4.5000  -14.4749 O   0  0  0  0  0  0  0  0  0  0  0  0
   19.2309   -2.9974  -15.9566 O   0  0  0  0  0  0  0  0  0  0  0  0
  2  1  1  1
  2  3  1  0
  4  3  1  0
  5  2  1  0
  5  6  2  0
  8  7  1  1
  8 10  1  0
  9  8  1  0
 11 10  1  6
 11 12  1  0
 11 13  1  0
 12  5  1  0
 13 14  2  0
 16 15  1  1
 17 13  1  0
 17 16  1  0
 18 16  1  0
 19 18  2  0
 20 18  1  0
M  END
$$$$
