CLA.pdb
     RDKit          3D

 20 19  0  0  1  0  0  0  0  0999 V2000
   19.4568  -12.8361  -18.9256 N   0  0  0  0  0  0  0  0  0  0  0  0
   19.8252  -11.4785  -19.2123 C   0  0  1  0  0  0  0  0  0  0  0  0
   18.9512  -10.9077  -20.2977 C   0  0  0  0  0  0  0  0  0  0  0  0
   19.5438   -9.2453  -20.7162 S   0  0  0  0  0  0  0  0  0  0  0  0
   19.8408  -10.6773  -17.9876 C   0  0  0  0  0  0  0  0  0  0  0  0
   18.8395  -10.7197  -17.2285 O   0  0  0  0  0  0  0  0  0  0  0  0
   21.6476  -10.8968  -14.0516 C   0  0  0  0  0  0  0  0  0  0  0  0
   22.6404  -10.3590  -15.1040 C   0  0  2  0  0  0  0  0  0  0  0  0
   23.9648  -10.2641  -14.3939 C   0  0  0  0  0  0  0  0  0  0  0  0
   22.1567   -9.0329  -15.6139 C   0  0  0  0  0  0  0  0  0  0  0  0
   20.9077   -9.0516  -16.3977 C   0  0  2  0  0  0  0  0  0  0  0  0
   20.9268   -9.8400  -17.5888 N   0  0  0  0  0  0  0  0  0  0  0  0
   20.4226   -7.6686  -16.7209 C   0  0  0  0  0  0  0  0  0  0  0  0
   21.0371   -6.9347  -17.5263 O   0  0  0  0  0  0  0  0  0  0  0  0
   17.2100   -5.8169  -16.3557 C   0  0  0  0  0  0  0  0  0  0  0  0
   18.7275   -5.8365  -16.3678 C   0  0  2  0  0  0  0  0  0  0  0  0
   19.2425   -7.1613  -16.1105 N   0  0  0  0  0  0  0  0  0  0  0  0
   19.2519   -4.8487  -15.3851 C   0  0  0  0  0  0  0  0  0  0  0  0
   18.9838   -3.6297  -15.4801 O   0  0  0  0  0  0  0  0  0  0  0  0
   20.0502   -5.2736  -14.3450 O   0  0  0  0  0  0  0  0  0  0  0  0
  2  1  1  1
  2  3  1  0
  4  3  1  0
  5  2  1  0
  5  6  2  0
  8  7  1  1
  8 10  1  0
  9  8  1  0
 11 10  1  6
 11 12  1  0
 11 13  1  0
 12  5  1  0
 13 14  2  0
 16 15  1  1
 17 13  1  0
 17 16  1  0
 18 16  1  0
 19 18  2  0
 20 18  1  0
M  END
$$$$
