NYI.pdb
     RDKit          3D

 29 29  0  0  1  0  0  0  0  0999 V2000
   21.5474  -14.8919  -18.5991 N   0  0  0  0  0  0  0  0  0  0  0  0
   22.4497  -14.8290  -17.5058 C   0  0  0  0  0  0  0  0  0  0  0  0
   22.8730  -15.9204  -17.0513 O   0  0  0  0  0  0  0  0  0  0  0  0
   22.8828  -13.5263  -16.9154 C   0  0  0  0  0  0  0  0  0  0  0  0
   22.1431  -12.3820  -17.6191 C   0  0  2  0  0  0  0  0  0  0  0  0
   22.5557  -12.3163  -18.9844 N   0  0  0  0  0  0  0  0  0  0  0  0
   22.3619  -11.1230  -16.8619 C   0  0  0  0  0  0  0  0  0  0  0  0
   21.9739  -11.0606  -15.6811 O   0  0  0  0  0  0  0  0  0  0  0  0
   28.5945  -12.1840  -15.9646 O   0  0  0  0  0  0  0  0  0  0  0  0
   27.6091  -11.2101  -16.1657 C   0  0  0  0  0  0  0  0  0  0  0  0
   27.0000  -10.5917  -15.0947 C   0  0  0  0  0  0  0  0  0  0  0  0
   26.0211   -9.6242  -15.2869 C   0  0  0  0  0  0  0  0  0  0  0  0
   25.6172   -9.2413  -16.5493 C   0  0  0  0  0  0  0  0  0  0  0  0
   24.5864   -8.2224  -16.7550 C   0  0  0  0  0  0  0  0  0  0  0  0
   23.1659   -8.7788  -16.6535 C   0  0  2  0  0  0  0  0  0  0  0  0
   22.9996   -9.9702  -17.4228 N   0  0  0  0  0  0  0  0  0  0  0  0
   22.1649   -7.7289  -16.9655 C   0  0  0  0  0  0  0  0  0  0  0  0
   22.1484   -7.2910  -18.1477 O   0  0  0  0  0  0  0  0  0  0  0  0
   26.2325   -9.8657  -17.6176 C   0  0  0  0  0  0  0  0  0  0  0  0
   27.2116  -10.8335  -17.4306 C   0  0  0  0  0  0  0  0  0  0  0  0
   16.4456   -6.6879  -17.0981 C   0  0  0  0  0  0  0  0  0  0  0  0
   17.7693   -5.9643  -16.9463 C   0  0  0  0  0  0  0  0  0  0  0  0
   18.8874   -6.9278  -16.6196 C   0  0  2  0  0  0  0  0  0  0  0  0
   18.4711   -7.7624  -15.4562 C   0  0  0  0  0  0  0  0  0  0  0  0
   20.2228   -6.2393  -16.4536 C   0  0  2  0  0  0  0  0  0  0  0  0
   21.2510   -7.1990  -16.0512 N   0  0  0  0  0  0  0  0  0  0  0  0
   20.1885   -5.1597  -15.4368 C   0  0  0  0  0  0  0  0  0  0  0  0
   20.6241   -5.3333  -14.2484 O   0  0  0  0  0  0  0  0  0  0  0  0
   19.6860   -3.8938  -15.6990 O   0  0  0  0  0  0  0  0  0  0  0  0
  2  1  1  0
  3  2  2  0
  4  5  1  0
  4  2  1  0
  5  6  1  6
  7  5  1  0
  7  8  2  0
  9 10  1  0
 10 11  2  0
 11 12  1  0
 13 12  2  0
 13 14  1  0
 15 14  1  6
 15 16  1  0
 16  7  1  0
 17 18  2  0
 17 15  1  0
 19 13  1  0
 20 10  1  0
 20 19  2  0
 22 21  1  0
 23 22  1  0
 23 24  1  1
 25 26  1  1
 25 23  1  0
 26 17  1  0
 27 25  1  0
 28 27  2  0
 29 27  1  0
M  END
$$$$
