NYI.pdb
     RDKit          3D

 29 29  0  0  1  0  0  0  0  0999 V2000
   28.9336  -22.7261  -19.1898 N   0  0  0  0  0  0  0  0  0  0  0  0
   29.4708  -23.3024  -18.0097 C   0  0  0  0  0  0  0  0  0  0  0  0
   30.5214  -23.9795  -18.1320 O   0  0  0  0  0  0  0  0  0  0  0  0
   28.8223  -23.1168  -16.6762 C   0  0  0  0  0  0  0  0  0  0  0  0
   27.6267  -22.1677  -16.8238 C   0  0  2  0  0  0  0  0  0  0  0  0
   28.0881  -20.8800  -17.2330 N   0  0  0  0  0  0  0  0  0  0  0  0
   26.8551  -22.1564  -15.5546 C   0  0  0  0  0  0  0  0  0  0  0  0
   26.3804  -23.2272  -15.1342 O   0  0  0  0  0  0  0  0  0  0  0  0
   23.5357  -20.7033   -7.5897 O   0  0  0  0  0  0  0  0  0  0  0  0
   24.2508  -20.5814   -8.7870 C   0  0  0  0  0  0  0  0  0  0  0  0
   23.7398  -19.8571   -9.8428 C   0  0  0  0  0  0  0  0  0  0  0  0
   24.4441  -19.7319  -11.0342 C   0  0  0  0  0  0  0  0  0  0  0  0
   25.6780  -20.3226  -11.2134 C   0  0  0  0  0  0  0  0  0  0  0  0
   26.4223  -20.1925  -12.4672 C   0  0  0  0  0  0  0  0  0  0  0  0
   25.8148  -21.0049  -13.6112 C   0  0  2  0  0  0  0  0  0  0  0  0
   26.6276  -20.9708  -14.7847 N   0  0  0  0  0  0  0  0  0  0  0  0
   24.4075  -20.6023  -13.8545 C   0  0  0  0  0  0  0  0  0  0  0  0
   24.2138  -19.4225  -14.2550 O   0  0  0  0  0  0  0  0  0  0  0  0
   26.1833  -21.0469  -10.1505 C   0  0  0  0  0  0  0  0  0  0  0  0
   25.4831  -21.1750   -8.9574 C   0  0  0  0  0  0  0  0  0  0  0  0
   21.4502  -21.9987  -17.5370 C   0  0  0  0  0  0  0  0  0  0  0  0
   22.0703  -21.2918  -16.3477 C   0  0  0  0  0  0  0  0  0  0  0  0
   21.2998  -21.5742  -15.0782 C   0  0  2  0  0  0  0  0  0  0  0  0
   19.8710  -21.2086  -15.2978 C   0  0  0  0  0  0  0  0  0  0  0  0
   21.9301  -20.9416  -13.8586 C   0  0  2  0  0  0  0  0  0  0  0  0
   23.2967  -21.4298  -13.6729 N   0  0  0  0  0  0  0  0  0  0  0  0
   21.1758  -21.2227  -12.6126 C   0  0  0  0  0  0  0  0  0  0  0  0
   21.3438  -22.2997  -11.9464 O   0  0  0  0  0  0  0  0  0  0  0  0
   20.2414  -20.3447  -12.0835 O   0  0  0  0  0  0  0  0  0  0  0  0
  2  1  1  0
  3  2  2  0
  4  5  1  0
  4  2  1  0
  5  6  1  1
  7  5  1  0
  7  8  2  0
  9 10  1  0
 10 11  2  0
 11 12  1  0
 13 12  2  0
 13 14  1  0
 15 14  1  1
 15 16  1  0
 16  7  1  0
 17 18  2  0
 17 15  1  0
 19 13  1  0
 20 10  1  0
 20 19  2  0
 22 21  1  0
 23 22  1  0
 23 24  1  6
 25 26  1  1
 25 23  1  0
 26 17  1  0
 27 25  1  0
 28 27  2  0
 29 27  1  0
M  END
$$$$
