NYI.pdb
     RDKit          3D

 29 29  0  0  1  0  0  0  0  0999 V2000
   26.0704  -21.4347  -10.2953 N   0  0  0  0  0  0  0  0  0  0  0  0
   25.0112  -21.4010  -11.2389 C   0  0  0  0  0  0  0  0  0  0  0  0
   23.9621  -22.0243  -10.9423 O   0  0  0  0  0  0  0  0  0  0  0  0
   25.1299  -20.6590  -12.5307 C   0  0  0  0  0  0  0  0  0  0  0  0
   23.8642  -20.8914  -13.3648 C   0  0  2  0  0  0  0  0  0  0  0  0
   23.8009  -22.2608  -13.7635 N   0  0  0  0  0  0  0  0  0  0  0  0
   23.8458  -19.9318  -14.4985 C   0  0  0  0  0  0  0  0  0  0  0  0
   24.6306  -20.1126  -15.4472 O   0  0  0  0  0  0  0  0  0  0  0  0
   17.6574  -16.7827  -12.1720 O   0  0  0  0  0  0  0  0  0  0  0  0
   18.5945  -17.0470  -13.1780 C   0  0  0  0  0  0  0  0  0  0  0  0
   18.7749  -18.3279  -13.6548 C   0  0  0  0  0  0  0  0  0  0  0  0
   19.7032  -18.5973  -14.6532 C   0  0  0  0  0  0  0  0  0  0  0  0
   20.4811  -17.6024  -15.2086 C   0  0  0  0  0  0  0  0  0  0  0  0
   21.4597  -17.8832  -16.2604 C   0  0  0  0  0  0  0  0  0  0  0  0
   22.8902  -17.9957  -15.7327 C   0  0  2  0  0  0  0  0  0  0  0  0
   22.9671  -18.8029  -14.5573 N   0  0  0  0  0  0  0  0  0  0  0  0
   23.4988  -16.6524  -15.5683 C   0  0  0  0  0  0  0  0  0  0  0  0
   23.4253  -16.1301  -14.4231 O   0  0  0  0  0  0  0  0  0  0  0  0
   20.2943  -16.3213  -14.7254 C   0  0  0  0  0  0  0  0  0  0  0  0
   19.3675  -16.0467  -13.7275 C   0  0  0  0  0  0  0  0  0  0  0  0
   28.4116  -15.4657  -16.6640 C   0  0  0  0  0  0  0  0  0  0  0  0
   27.0009  -15.5025  -16.1097 C   0  0  0  0  0  0  0  0  0  0  0  0
   26.1091  -14.5037  -16.8112 C   0  0  2  0  0  0  0  0  0  0  0  0
   26.7189  -13.1491  -16.6823 C   0  0  0  0  0  0  0  0  0  0  0  0
   24.6683  -14.5897  -16.3621 C   0  0  2  0  0  0  0  0  0  0  0  0
   24.1393  -15.9357  -16.5822 N   0  0  0  0  0  0  0  0  0  0  0  0
   23.7871  -13.6344  -17.0772 C   0  0  0  0  0  0  0  0  0  0  0  0
   23.5768  -12.4511  -16.6440 O   0  0  0  0  0  0  0  0  0  0  0  0
   23.1329  -13.9523  -18.2581 O   0  0  0  0  0  0  0  0  0  0  0  0
  2  1  1  0
  3  2  2  0
  4  5  1  0
  4  2  1  0
  5  6  1  6
  7  5  1  0
  7  8  2  0
  9 10  1  0
 10 11  2  0
 11 12  1  0
 13 12  2  0
 13 14  1  0
 15 14  1  1
 15 16  1  0
 16  7  1  0
 17 18  2  0
 17 15  1  0
 19 13  1  0
 20 10  1  0
 20 19  2  0
 22 21  1  0
 23 22  1  0
 23 24  1  1
 25 26  1  6
 25 23  1  0
 26 17  1  0
 27 25  1  0
 28 27  2  0
 29 27  1  0
M  END
$$$$
