NYI.pdb
     RDKit          3D

 29 29  0  0  1  0  0  0  0  0999 V2000
   26.4940  -20.9413  -19.4462 N   0  0  0  0  0  0  0  0  0  0  0  0
   27.0827  -20.4721  -18.2435 C   0  0  0  0  0  0  0  0  0  0  0  0
   28.1293  -19.7861  -18.3497 O   0  0  0  0  0  0  0  0  0  0  0  0
   26.4904  -20.7754  -16.9054 C   0  0  0  0  0  0  0  0  0  0  0  0
   27.4780  -21.6257  -16.0969 C   0  0  2  0  0  0  0  0  0  0  0  0
   27.5973  -22.9162  -16.6959 N   0  0  0  0  0  0  0  0  0  0  0  0
   27.0432  -21.6579  -14.6770 C   0  0  0  0  0  0  0  0  0  0  0  0
   26.0980  -22.4020  -14.3581 O   0  0  0  0  0  0  0  0  0  0  0  0
   26.2507  -20.1390   -5.9764 O   0  0  0  0  0  0  0  0  0  0  0  0
   26.7341  -20.2047   -7.2886 C   0  0  0  0  0  0  0  0  0  0  0  0
   27.4812  -21.2833   -7.7116 C   0  0  0  0  0  0  0  0  0  0  0  0
   27.9642  -21.3550   -9.0126 C   0  0  0  0  0  0  0  0  0  0  0  0
   27.7200  -20.3572   -9.9335 C   0  0  0  0  0  0  0  0  0  0  0  0
   28.2274  -20.4300  -11.3047 C   0  0  0  0  0  0  0  0  0  0  0  0
   27.1821  -20.9253  -12.3045 C   0  0  2  0  0  0  0  0  0  0  0  0
   27.6583  -20.8728  -13.6496 N   0  0  0  0  0  0  0  0  0  0  0  0
   25.8896  -20.2237  -12.1069 C   0  0  0  0  0  0  0  0  0  0  0  0
   25.7996  -19.0545  -12.5702 O   0  0  0  0  0  0  0  0  0  0  0  0
   26.9704  -19.2794   -9.5018 C   0  0  0  0  0  0  0  0  0  0  0  0
   26.4852  -19.2031   -8.2023 C   0  0  0  0  0  0  0  0  0  0  0  0
   20.9489  -19.9409  -14.4691 C   0  0  0  0  0  0  0  0  0  0  0  0
   21.5161  -19.6972  -13.0843 C   0  0  0  0  0  0  0  0  0  0  0  0
   22.8623  -20.3641  -12.9171 C   0  0  2  0  0  0  0  0  0  0  0  0
   22.7384  -21.7936  -13.3226 C   0  0  0  0  0  0  0  0  0  0  0  0
   23.4546  -20.1495  -11.5430 C   0  0  2  0  0  0  0  0  0  0  0  0
   24.7797  -20.7625  -11.4515 N   0  0  0  0  0  0  0  0  0  0  0  0
   22.6155  -20.7212  -10.4616 C   0  0  0  0  0  0  0  0  0  0  0  0
   22.9986  -21.7190   -9.7617 O   0  0  0  0  0  0  0  0  0  0  0  0
   21.3651  -20.2191  -10.1332 O   0  0  0  0  0  0  0  0  0  0  0  0
  2  1  1  0
  3  2  2  0
  4  5  1  0
  4  2  1  0
  5  6  1  6
  7  5  1  0
  7  8  2  0
  9 10  1  0
 10 11  2  0
 11 12  1  0
 13 12  2  0
 13 14  1  0
 15 14  1  1
 15 16  1  0
 16  7  1  0
 17 18  2  0
 17 15  1  0
 19 13  1  0
 20 10  1  0
 20 19  2  0
 22 21  1  0
 23 22  1  0
 23 24  1  1
 25 26  1  6
 25 23  1  0
 26 17  1  0
 27 25  1  0
 28 27  2  0
 29 27  1  0
M  END
$$$$
