NYI.pdb
     RDKit          3D

 29 29  0  0  1  0  0  0  0  0999 V2000
   28.5430  -19.2989  -19.7092 N   0  0  0  0  0  0  0  0  0  0  0  0
   27.1348  -19.1713  -19.5913 C   0  0  0  0  0  0  0  0  0  0  0  0
   26.5621  -18.3971  -20.3975 O   0  0  0  0  0  0  0  0  0  0  0  0
   26.3594  -19.9211  -18.5571 C   0  0  0  0  0  0  0  0  0  0  0  0
   27.3266  -20.7495  -17.7027 C   0  0  2  0  0  0  0  0  0  0  0  0
   27.7462  -21.8996  -18.4374 N   0  0  0  0  0  0  0  0  0  0  0  0
   26.6790  -21.0668  -16.4041 C   0  0  0  0  0  0  0  0  0  0  0  0
   25.8297  -21.9756  -16.3661 O   0  0  0  0  0  0  0  0  0  0  0  0
   24.1937  -21.0190   -7.8914 O   0  0  0  0  0  0  0  0  0  0  0  0
   24.9058  -20.8376   -9.0831 C   0  0  0  0  0  0  0  0  0  0  0  0
   24.7942  -19.6652   -9.7996 C   0  0  0  0  0  0  0  0  0  0  0  0
   25.4981  -19.4784  -10.9832 C   0  0  0  0  0  0  0  0  0  0  0  0
   26.3346  -20.4507  -11.4914 C   0  0  0  0  0  0  0  0  0  0  0  0
   27.0774  -20.2568  -12.7378 C   0  0  0  0  0  0  0  0  0  0  0  0
   26.2931  -20.6919  -13.9761 C   0  0  2  0  0  0  0  0  0  0  0  0
   26.9826  -20.3776  -15.1863 N   0  0  0  0  0  0  0  0  0  0  0  0
   24.9057  -20.1673  -13.9326 C   0  0  0  0  0  0  0  0  0  0  0  0
   24.7623  -18.9234  -14.0801 O   0  0  0  0  0  0  0  0  0  0  0  0
   26.4411  -21.6229  -10.7673 C   0  0  0  0  0  0  0  0  0  0  0  0
   25.7396  -21.8145   -9.5835 C   0  0  0  0  0  0  0  0  0  0  0  0
   19.8378  -19.3974  -16.3222 C   0  0  0  0  0  0  0  0  0  0  0  0
   20.4184  -19.5850  -14.9342 C   0  0  0  0  0  0  0  0  0  0  0  0
   21.8041  -20.1861  -14.9954 C   0  0  2  0  0  0  0  0  0  0  0  0
   21.7448  -21.4362  -15.8061 C   0  0  0  0  0  0  0  0  0  0  0  0
   22.4304  -20.3518  -13.6296 C   0  0  2  0  0  0  0  0  0  0  0  0
   23.7621  -20.9469  -13.7421 N   0  0  0  0  0  0  0  0  0  0  0  0
   21.6243  -21.2127  -12.7300 C   0  0  0  0  0  0  0  0  0  0  0  0
   21.8809  -22.4539  -12.5698 O   0  0  0  0  0  0  0  0  0  0  0  0
   20.5429  -20.7380  -12.0028 O   0  0  0  0  0  0  0  0  0  0  0  0
  2  1  1  0
  3  2  2  0
  4  5  1  0
  4  2  1  0
  5  6  1  6
  7  5  1  0
  7  8  2  0
  9 10  1  0
 10 11  2  0
 11 12  1  0
 13 12  2  0
 13 14  1  0
 15 14  1  1
 15 16  1  0
 16  7  1  0
 17 18  2  0
 17 15  1  0
 19 13  1  0
 20 10  1  0
 20 19  2  0
 22 21  1  0
 23 22  1  0
 23 24  1  1
 25 26  1  6
 25 23  1  0
 26 17  1  0
 27 25  1  0
 28 27  2  0
 29 27  1  0
M  END
$$$$
