NYI.pdb
     RDKit          3D

 29 29  0  0  1  0  0  0  0  0999 V2000
   30.2293  -18.5769  -14.3950 N   0  0  0  0  0  0  0  0  0  0  0  0
   28.8776  -18.8179  -14.7530 C   0  0  0  0  0  0  0  0  0  0  0  0
   28.4611  -18.2776  -15.8074 O   0  0  0  0  0  0  0  0  0  0  0  0
   27.9822  -19.6753  -13.9186 C   0  0  0  0  0  0  0  0  0  0  0  0
   28.7311  -20.1041  -12.6509 C   0  0  2  0  0  0  0  0  0  0  0  0
   29.7924  -20.9923  -13.0018 N   0  0  0  0  0  0  0  0  0  0  0  0
   27.7608  -20.6768  -11.6829 C   0  0  0  0  0  0  0  0  0  0  0  0
   27.4633  -21.8815  -11.7768 O   0  0  0  0  0  0  0  0  0  0  0  0
   29.1226  -20.4366   -4.4782 O   0  0  0  0  0  0  0  0  0  0  0  0
   28.2474  -20.2028   -5.5455 C   0  0  0  0  0  0  0  0  0  0  0  0
   27.4374  -21.2092   -6.0266 C   0  0  0  0  0  0  0  0  0  0  0  0
   26.5663  -20.9840   -7.0858 C   0  0  0  0  0  0  0  0  0  0  0  0
   26.4732  -19.7520   -7.6997 C   0  0  0  0  0  0  0  0  0  0  0  0
   25.5566  -19.5118   -8.8155 C   0  0  0  0  0  0  0  0  0  0  0  0
   25.9070  -20.3227  -10.0634 C   0  0  2  0  0  0  0  0  0  0  0  0
   27.1460  -19.9106  -10.6412 N   0  0  0  0  0  0  0  0  0  0  0  0
   24.7773  -20.3244  -11.0255 C   0  0  0  0  0  0  0  0  0  0  0  0
   24.6361  -19.2950  -11.7397 O   0  0  0  0  0  0  0  0  0  0  0  0
   27.2884  -18.7485   -7.2116 C   0  0  0  0  0  0  0  0  0  0  0  0
   28.1608  -18.9685   -6.1530 C   0  0  0  0  0  0  0  0  0  0  0  0
   24.3260  -24.0865  -14.5485 C   0  0  0  0  0  0  0  0  0  0  0  0
   24.2728  -22.7947  -13.7565 C   0  0  0  0  0  0  0  0  0  0  0  0
   22.9341  -22.6228  -13.0757 C   0  0  2  0  0  0  0  0  0  0  0  0
   21.8589  -22.7582  -14.0999 C   0  0  0  0  0  0  0  0  0  0  0  0
   22.8574  -21.3610  -12.2469 C   0  0  2  0  0  0  0  0  0  0  0  0
   23.8712  -21.3746  -11.1923 N   0  0  0  0  0  0  0  0  0  0  0  0
   21.5345  -21.1792  -11.6009 C   0  0  0  0  0  0  0  0  0  0  0  0
   21.2882  -21.6149  -10.4254 O   0  0  0  0  0  0  0  0  0  0  0  0
   20.4773  -20.5284  -12.2193 O   0  0  0  0  0  0  0  0  0  0  0  0
  2  1  1  0
  3  2  2  0
  4  5  1  0
  4  2  1  0
  5  6  1  6
  7  5  1  0
  7  8  2  0
  9 10  1  0
 10 11  2  0
 11 12  1  0
 13 12  2  0
 13 14  1  0
 15 14  1  1
 15 16  1  0
 16  7  1  0
 17 18  2  0
 17 15  1  0
 19 13  1  0
 20 10  1  0
 20 19  2  0
 22 21  1  0
 23 22  1  0
 23 24  1  6
 25 26  1  1
 25 23  1  0
 26 17  1  0
 27 25  1  0
 28 27  2  0
 29 27  1  0
M  END
$$$$
