NYI.pdb
     RDKit          3D

 29 29  0  0  1  0  0  0  0  0999 V2000
   17.9556  -21.5062  -14.5816 N   0  0  0  0  0  0  0  0  0  0  0  0
   18.9335  -21.1420  -15.5430 C   0  0  0  0  0  0  0  0  0  0  0  0
   18.7082  -21.4620  -16.7363 O   0  0  0  0  0  0  0  0  0  0  0  0
   20.1792  -20.4098  -15.1616 C   0  0  0  0  0  0  0  0  0  0  0  0
   20.2519  -20.2984  -13.6338 C   0  0  2  0  0  0  0  0  0  0  0  0
   19.3443  -19.2916  -13.1857 N   0  0  0  0  0  0  0  0  0  0  0  0
   21.6617  -20.0623  -13.2299 C   0  0  0  0  0  0  0  0  0  0  0  0
   22.1650  -18.9442  -13.4424 O   0  0  0  0  0  0  0  0  0  0  0  0
   29.3157  -20.0889   -8.9195 O   0  0  0  0  0  0  0  0  0  0  0  0
   28.0853  -20.4843   -9.4578 C   0  0  0  0  0  0  0  0  0  0  0  0
   26.9006  -20.0852   -8.8767 C   0  0  0  0  0  0  0  0  0  0  0  0
   25.6757  -20.4740   -9.4057 C   0  0  0  0  0  0  0  0  0  0  0  0
   25.5902  -21.2714  -10.5283 C   0  0  0  0  0  0  0  0  0  0  0  0
   24.3014  -21.6825  -11.0878 C   0  0  0  0  0  0  0  0  0  0  0  0
   23.8194  -20.7690  -12.2150 C   0  0  2  0  0  0  0  0  0  0  0  0
   22.4769  -21.0599  -12.6050 N   0  0  0  0  0  0  0  0  0  0  0  0
   24.7789  -20.7770  -13.3469 C   0  0  0  0  0  0  0  0  0  0  0  0
   24.7062  -21.7477  -14.1482 O   0  0  0  0  0  0  0  0  0  0  0  0
   26.7821  -21.6672  -11.1048 C   0  0  0  0  0  0  0  0  0  0  0  0
   28.0091  -21.2812  -10.5799 C   0  0  0  0  0  0  0  0  0  0  0  0
   28.2909  -16.8043  -16.5876 C   0  0  0  0  0  0  0  0  0  0  0  0
   27.8670  -18.2358  -16.3235 C   0  0  0  0  0  0  0  0  0  0  0  0
   27.0086  -18.3344  -15.0832 C   0  0  2  0  0  0  0  0  0  0  0  0
   27.7560  -17.7381  -13.9390 C   0  0  0  0  0  0  0  0  0  0  0  0
   26.4950  -19.7347  -14.8372 C   0  0  2  0  0  0  0  0  0  0  0  0
   25.7447  -19.7955  -13.5828 N   0  0  0  0  0  0  0  0  0  0  0  0
   27.5837  -20.7395  -14.7627 C   0  0  0  0  0  0  0  0  0  0  0  0
   28.2111  -21.1379  -15.8018 O   0  0  0  0  0  0  0  0  0  0  0  0
   27.9972  -21.3150  -13.5704 O   0  0  0  0  0  0  0  0  0  0  0  0
  2  1  1  0
  3  2  2  0
  4  5  1  0
  4  2  1  0
  5  6  1  6
  7  5  1  0
  7  8  2  0
  9 10  1  0
 10 11  2  0
 11 12  1  0
 13 12  2  0
 13 14  1  0
 15 14  1  1
 15 16  1  0
 16  7  1  0
 17 18  2  0
 17 15  1  0
 19 13  1  0
 20 10  1  0
 20 19  2  0
 22 21  1  0
 23 22  1  0
 23 24  1  1
 25 26  1  1
 25 23  1  0
 26 17  1  0
 27 25  1  0
 28 27  2  0
 29 27  1  0
M  END
$$$$
