NYI.pdb
     RDKit          3D

 29 29  0  0  1  0  0  0  0  0999 V2000
   15.9067  -12.9585  -16.8199 N   0  0  0  0  0  0  0  0  0  0  0  0
   17.1020  -12.9837  -16.0558 C   0  0  0  0  0  0  0  0  0  0  0  0
   17.1045  -13.6980  -15.0229 O   0  0  0  0  0  0  0  0  0  0  0  0
   18.3092  -12.1985  -16.4550 C   0  0  0  0  0  0  0  0  0  0  0  0
   17.9712  -11.3404  -17.6802 C   0  0  2  0  0  0  0  0  0  0  0  0
   18.0798  -12.1338  -18.8622 N   0  0  0  0  0  0  0  0  0  0  0  0
   18.8370  -10.1334  -17.6825 C   0  0  0  0  0  0  0  0  0  0  0  0
   20.0237  -10.2498  -18.0386 O   0  0  0  0  0  0  0  0  0  0  0  0
   18.6163   -7.7322  -23.7851 O   0  0  0  0  0  0  0  0  0  0  0  0
   18.6262   -7.4446  -22.4150 C   0  0  0  0  0  0  0  0  0  0  0  0
   17.5723   -7.8182  -21.6086 C   0  0  0  0  0  0  0  0  0  0  0  0
   17.5755   -7.5359  -20.2478 C   0  0  0  0  0  0  0  0  0  0  0  0
   18.6259   -6.8737  -19.6464 C   0  0  0  0  0  0  0  0  0  0  0  0
   18.6321   -6.5751  -18.2134 C   0  0  0  0  0  0  0  0  0  0  0  0
   19.2359   -7.6986  -17.3703 C   0  0  2  0  0  0  0  0  0  0  0  0
   18.3748   -8.8350  -17.2941 N   0  0  0  0  0  0  0  0  0  0  0  0
   19.6633   -7.1906  -16.0432 C   0  0  0  0  0  0  0  0  0  0  0  0
   18.7675   -7.0693  -15.1643 O   0  0  0  0  0  0  0  0  0  0  0  0
   19.6784   -6.5027  -20.4616 C   0  0  0  0  0  0  0  0  0  0  0  0
   19.6799   -6.7826  -21.8224 C   0  0  0  0  0  0  0  0  0  0  0  0
   23.2073   -9.7711  -13.5309 C   0  0  0  0  0  0  0  0  0  0  0  0
   22.1011   -8.8725  -14.0483 C   0  0  0  0  0  0  0  0  0  0  0  0
   22.4286   -7.4139  -13.8240 C   0  0  2  0  0  0  0  0  0  0  0  0
   22.7809   -7.2210  -12.3880 C   0  0  0  0  0  0  0  0  0  0  0  0
   21.3502   -6.4870  -14.3367 C   0  0  2  0  0  0  0  0  0  0  0  0
   20.9732   -6.8419  -15.7050 N   0  0  0  0  0  0  0  0  0  0  0  0
   21.7700   -5.0643  -14.3373 C   0  0  0  0  0  0  0  0  0  0  0  0
   22.2201   -4.4905  -15.3863 O   0  0  0  0  0  0  0  0  0  0  0  0
   21.7050   -4.2593  -13.2098 O   0  0  0  0  0  0  0  0  0  0  0  0
  2  1  1  0
  3  2  2  0
  4  5  1  0
  4  2  1  0
  5  6  1  6
  7  5  1  0
  7  8  2  0
  9 10  1  0
 10 11  2  0
 11 12  1  0
 13 12  2  0
 13 14  1  0
 15 14  1  1
 15 16  1  0
 16  7  1  0
 17 18  2  0
 17 15  1  0
 19 13  1  0
 20 10  1  0
 20 19  2  0
 22 21  1  0
 23 22  1  0
 23 24  1  1
 25 26  1  6
 25 23  1  0
 26 17  1  0
 27 25  1  0
 28 27  2  0
 29 27  1  0
M  END
$$$$
