NYI.pdb
     RDKit          3D

 29 29  0  0  1  0  0  0  0  0999 V2000
   25.8988  -21.4260   -9.4633 N   0  0  0  0  0  0  0  0  0  0  0  0
   26.8255  -20.8752  -10.3859 C   0  0  0  0  0  0  0  0  0  0  0  0
   27.9302  -20.4933   -9.9266 O   0  0  0  0  0  0  0  0  0  0  0  0
   26.5097  -20.7514  -11.8413 C   0  0  0  0  0  0  0  0  0  0  0  0
   25.0933  -21.2806  -12.0976 C   0  0  2  0  0  0  0  0  0  0  0  0
   25.0352  -22.6676  -11.7639 N   0  0  0  0  0  0  0  0  0  0  0  0
   24.7088  -20.9814  -13.5008 C   0  0  0  0  0  0  0  0  0  0  0  0
   24.6866  -21.9128  -14.3259 O   0  0  0  0  0  0  0  0  0  0  0  0
   19.2716  -18.3023  -10.9988 O   0  0  0  0  0  0  0  0  0  0  0  0
   20.0547  -18.6687  -12.1000 C   0  0  0  0  0  0  0  0  0  0  0  0
   20.0947  -17.8805  -13.2302 C   0  0  0  0  0  0  0  0  0  0  0  0
   20.8697  -18.2382  -14.3269 C   0  0  0  0  0  0  0  0  0  0  0  0
   21.6288  -19.3902  -14.3344 C   0  0  0  0  0  0  0  0  0  0  0  0
   22.4462  -19.7695  -15.4880 C   0  0  0  0  0  0  0  0  0  0  0  0
   23.9301  -19.4522  -15.3007 C   0  0  2  0  0  0  0  0  0  0  0  0
   24.3603  -19.6696  -13.9567 N   0  0  0  0  0  0  0  0  0  0  0  0
   24.2475  -18.0955  -15.8111 C   0  0  0  0  0  0  0  0  0  0  0  0
   24.0373  -17.1292  -15.0290 O   0  0  0  0  0  0  0  0  0  0  0  0
   21.5834  -20.1748  -13.1977 C   0  0  0  0  0  0  0  0  0  0  0  0
   20.8102  -19.8216  -12.0988 C   0  0  0  0  0  0  0  0  0  0  0  0
   29.0776  -17.9202  -17.1124 C   0  0  0  0  0  0  0  0  0  0  0  0
   27.6619  -17.5998  -16.6743 C   0  0  0  0  0  0  0  0  0  0  0  0
   26.9055  -16.8638  -17.7566 C   0  0  2  0  0  0  0  0  0  0  0  0
   27.6940  -15.6626  -18.1550 C   0  0  0  0  0  0  0  0  0  0  0  0
   25.4713  -16.5762  -17.3754 C   0  0  2  0  0  0  0  0  0  0  0  0
   24.7568  -17.8187  -17.0823 N   0  0  0  0  0  0  0  0  0  0  0  0
   24.7257  -15.8664  -18.4434 C   0  0  0  0  0  0  0  0  0  0  0  0
   24.1432  -16.4908  -19.3936 O   0  0  0  0  0  0  0  0  0  0  0  0
   24.6067  -14.4853  -18.4886 O   0  0  0  0  0  0  0  0  0  0  0  0
  2  1  1  0
  3  2  2  0
  4  5  1  0
  4  2  1  0
  5  6  1  6
  7  5  1  0
  7  8  2  0
  9 10  1  0
 10 11  2  0
 11 12  1  0
 13 12  2  0
 13 14  1  0
 15 14  1  1
 15 16  1  0
 16  7  1  0
 17 18  2  0
 17 15  1  0
 19 13  1  0
 20 10  1  0
 20 19  2  0
 22 21  1  0
 23 22  1  0
 23 24  1  1
 25 26  1  6
 25 23  1  0
 26 17  1  0
 27 25  1  0
 28 27  2  0
 29 27  1  0
M  END
$$$$
