NYI.pdb
     RDKit          3D

 29 29  0  0  1  0  0  0  0  0999 V2000
   29.2268  -20.4052  -20.6477 N   0  0  0  0  0  0  0  0  0  0  0  0
   29.3461  -19.0622  -20.2057 C   0  0  0  0  0  0  0  0  0  0  0  0
   30.3073  -18.3943  -20.6611 O   0  0  0  0  0  0  0  0  0  0  0  0
   28.3756  -18.4607  -19.2416 C   0  0  0  0  0  0  0  0  0  0  0  0
   27.3700  -19.5320  -18.8025 C   0  0  2  0  0  0  0  0  0  0  0  0
   26.4353  -19.7683  -19.8555 N   0  0  0  0  0  0  0  0  0  0  0  0
   26.7432  -19.1151  -17.5221 C   0  0  0  0  0  0  0  0  0  0  0  0
   27.4793  -18.8566  -16.5526 O   0  0  0  0  0  0  0  0  0  0  0  0
   18.7990  -20.0879  -17.9258 O   0  0  0  0  0  0  0  0  0  0  0  0
   19.9855  -19.4616  -17.5258 C   0  0  0  0  0  0  0  0  0  0  0  0
   20.9984  -19.2265  -18.4308 C   0  0  0  0  0  0  0  0  0  0  0  0
   22.1788  -18.6053  -18.0407 C   0  0  0  0  0  0  0  0  0  0  0  0
   22.3891  -18.1986  -16.7392 C   0  0  0  0  0  0  0  0  0  0  0  0
   23.6313  -17.5440  -16.3253 C   0  0  0  0  0  0  0  0  0  0  0  0
   24.7827  -18.5264  -16.1096 C   0  0  2  0  0  0  0  0  0  0  0  0
   25.3276  -18.9944  -17.3437 N   0  0  0  0  0  0  0  0  0  0  0  0
   24.3788  -19.6184  -15.1897 C   0  0  0  0  0  0  0  0  0  0  0  0
   24.0543  -20.7166  -15.7171 O   0  0  0  0  0  0  0  0  0  0  0  0
   21.3690  -18.4378  -15.8381 C   0  0  0  0  0  0  0  0  0  0  0  0
   20.1872  -19.0584  -16.2232 C   0  0  0  0  0  0  0  0  0  0  0  0
   25.9582  -21.8931   -9.7770 C   0  0  0  0  0  0  0  0  0  0  0  0
   24.9270  -21.8901  -10.8885 C   0  0  0  0  0  0  0  0  0  0  0  0
   25.1284  -20.7177  -11.8212 C   0  0  2  0  0  0  0  0  0  0  0  0
   25.1997  -19.4699  -11.0079 C   0  0  0  0  0  0  0  0  0  0  0  0
   24.1144  -20.6808  -12.9415 C   0  0  2  0  0  0  0  0  0  0  0  0
   24.3339  -19.5146  -13.7972 N   0  0  0  0  0  0  0  0  0  0  0  0
   22.7167  -20.6234  -12.4479 C   0  0  0  0  0  0  0  0  0  0  0  0
   22.0309  -19.5460  -12.4770 O   0  0  0  0  0  0  0  0  0  0  0  0
   22.0573  -21.7252  -11.9235 O   0  0  0  0  0  0  0  0  0  0  0  0
  2  1  1  0
  3  2  2  0
  4  5  1  0
  4  2  1  0
  5  6  1  6
  7  5  1  0
  7  8  2  0
  9 10  1  0
 10 11  2  0
 11 12  1  0
 13 12  2  0
 13 14  1  0
 15 14  1  6
 15 16  1  0
 16  7  1  0
 17 18  2  0
 17 15  1  0
 19 13  1  0
 20 10  1  0
 20 19  2  0
 22 21  1  0
 23 22  1  0
 23 24  1  1
 25 26  1  6
 25 23  1  0
 26 17  1  0
 27 25  1  0
 28 27  2  0
 29 27  1  0
M  END
$$$$
