NYI.pdb
     RDKit          3D

 29 29  0  0  1  0  0  0  0  0999 V2000
   27.8686  -21.3480  -21.7863 N   0  0  0  0  0  0  0  0  0  0  0  0
   27.8533  -20.8392  -20.4619 C   0  0  0  0  0  0  0  0  0  0  0  0
   28.3992  -19.7243  -20.2721 O   0  0  0  0  0  0  0  0  0  0  0  0
   27.2177  -21.5897  -19.3366 C   0  0  0  0  0  0  0  0  0  0  0  0
   28.2277  -21.7340  -18.1916 C   0  0  2  0  0  0  0  0  0  0  0  0
   29.0686  -22.8614  -18.4373 N   0  0  0  0  0  0  0  0  0  0  0  0
   27.4944  -21.7985  -16.9015 C   0  0  0  0  0  0  0  0  0  0  0  0
   26.5902  -22.6434  -16.7696 O   0  0  0  0  0  0  0  0  0  0  0  0
   24.7652  -20.5370   -8.5683 O   0  0  0  0  0  0  0  0  0  0  0  0
   25.5092  -20.5202   -9.7541 C   0  0  0  0  0  0  0  0  0  0  0  0
   25.6436  -19.3595  -10.4856 C   0  0  0  0  0  0  0  0  0  0  0  0
   26.3806  -19.3355  -11.6636 C   0  0  0  0  0  0  0  0  0  0  0  0
   27.0066  -20.4642  -12.1511 C   0  0  0  0  0  0  0  0  0  0  0  0
   27.7836  -20.4420  -13.3916 C   0  0  0  0  0  0  0  0  0  0  0  0
   27.0272  -21.0314  -14.5824 C   0  0  2  0  0  0  0  0  0  0  0  0
   27.7751  -20.9343  -15.7949 N   0  0  0  0  0  0  0  0  0  0  0  0
   25.6644  -20.4525  -14.6802 C   0  0  0  0  0  0  0  0  0  0  0  0
   25.5754  -19.2784  -15.1312 O   0  0  0  0  0  0  0  0  0  0  0  0
   26.8671  -21.6236  -11.4121 C   0  0  0  0  0  0  0  0  0  0  0  0
   26.1315  -21.6526  -10.2339 C   0  0  0  0  0  0  0  0  0  0  0  0
   21.1480  -22.5846  -16.8090 C   0  0  0  0  0  0  0  0  0  0  0  0
   22.0329  -22.2760  -15.6172 C   0  0  0  0  0  0  0  0  0  0  0  0
   22.4205  -20.8152  -15.5848 C   0  0  2  0  0  0  0  0  0  0  0  0
   23.1121  -20.4783  -16.8621 C   0  0  0  0  0  0  0  0  0  0  0  0
   23.1876  -20.4413  -14.3371 C   0  0  2  0  0  0  0  0  0  0  0  0
   24.4883  -21.1104  -14.3118 N   0  0  0  0  0  0  0  0  0  0  0  0
   22.4679  -20.8037  -13.0916 C   0  0  0  0  0  0  0  0  0  0  0  0
   21.3990  -20.2060  -12.7277 O   0  0  0  0  0  0  0  0  0  0  0  0
   22.8979  -21.8091  -12.2385 O   0  0  0  0  0  0  0  0  0  0  0  0
  2  1  1  0
  3  2  2  0
  4  5  1  0
  4  2  1  0
  5  6  1  6
  7  5  1  0
  7  8  2  0
  9 10  1  0
 10 11  2  0
 11 12  1  0
 13 12  2  0
 13 14  1  0
 15 14  1  1
 15 16  1  0
 16  7  1  0
 17 18  2  0
 17 15  1  0
 19 13  1  0
 20 10  1  0
 20 19  2  0
 22 21  1  0
 23 22  1  0
 23 24  1  6
 25 26  1  6
 25 23  1  0
 26 17  1  0
 27 25  1  0
 28 27  2  0
 29 27  1  0
M  END
$$$$
