NYI.pdb
     RDKit          3D

 29 29  0  0  1  0  0  0  0  0999 V2000
   27.1115  -18.1418  -17.8463 N   0  0  0  0  0  0  0  0  0  0  0  0
   27.2060  -19.5268  -18.1399 C   0  0  0  0  0  0  0  0  0  0  0  0
   27.9374  -19.8572  -19.1058 O   0  0  0  0  0  0  0  0  0  0  0  0
   26.4715  -20.5538  -17.3405 C   0  0  0  0  0  0  0  0  0  0  0  0
   27.3565  -21.0155  -16.1762 C   0  0  2  0  0  0  0  0  0  0  0  0
   28.1547  -22.1229  -16.5944 N   0  0  0  0  0  0  0  0  0  0  0  0
   26.4993  -21.3011  -14.9972 C   0  0  0  0  0  0  0  0  0  0  0  0
   26.2260  -22.4854  -14.7299 O   0  0  0  0  0  0  0  0  0  0  0  0
   30.9783  -21.8682  -10.4492 O   0  0  0  0  0  0  0  0  0  0  0  0
   29.6968  -21.4020  -10.7661 C   0  0  0  0  0  0  0  0  0  0  0  0
   28.5813  -21.9386  -10.1592 C   0  0  0  0  0  0  0  0  0  0  0  0
   27.3063  -21.4807  -10.4689 C   0  0  0  0  0  0  0  0  0  0  0  0
   27.1003  -20.4756  -11.3913 C   0  0  0  0  0  0  0  0  0  0  0  0
   25.7585  -19.9912  -11.7196 C   0  0  0  0  0  0  0  0  0  0  0  0
   25.1925  -20.6145  -12.9958 C   0  0  2  0  0  0  0  0  0  0  0  0
   25.9679  -20.2790  -14.1469 N   0  0  0  0  0  0  0  0  0  0  0  0
   23.7500  -20.2988  -13.1419 C   0  0  0  0  0  0  0  0  0  0  0  0
   23.4511  -19.0967  -13.3772 O   0  0  0  0  0  0  0  0  0  0  0  0
   28.2234  -19.9430  -11.9952 C   0  0  0  0  0  0  0  0  0  0  0  0
   29.5001  -20.3973  -11.6890 C   0  0  0  0  0  0  0  0  0  0  0  0
   19.6825  -23.6167  -15.1787 C   0  0  0  0  0  0  0  0  0  0  0  0
   20.9607  -23.0052  -14.6390 C   0  0  0  0  0  0  0  0  0  0  0  0
   20.8952  -21.4950  -14.6525 C   0  0  2  0  0  0  0  0  0  0  0  0
   21.6392  -20.9974  -15.8451 C   0  0  0  0  0  0  0  0  0  0  0  0
   21.3259  -20.8792  -13.3410 C   0  0  2  0  0  0  0  0  0  0  0  0
   22.7136  -21.2298  -13.0381 N   0  0  0  0  0  0  0  0  0  0  0  0
   20.4882  -21.3193  -12.1986 C   0  0  0  0  0  0  0  0  0  0  0  0
   19.2844  -20.9192  -12.0467 O   0  0  0  0  0  0  0  0  0  0  0  0
   20.9454  -22.1900  -11.2206 O   0  0  0  0  0  0  0  0  0  0  0  0
  2  1  1  0
  3  2  2  0
  4  5  1  0
  4  2  1  0
  5  6  1  6
  7  5  1  0
  7  8  2  0
  9 10  1  0
 10 11  2  0
 11 12  1  0
 13 12  2  0
 13 14  1  0
 15 14  1  1
 15 16  1  0
 16  7  1  0
 17 18  2  0
 17 15  1  0
 19 13  1  0
 20 10  1  0
 20 19  2  0
 22 21  1  0
 23 22  1  0
 23 24  1  6
 25 26  1  1
 25 23  1  0
 26 17  1  0
 27 25  1  0
 28 27  2  0
 29 27  1  0
M  END
$$$$
