NYI.pdb
     RDKit          3D

 29 29  0  0  1  0  0  0  0  0999 V2000
   28.6475  -18.7794  -20.0719 N   0  0  0  0  0  0  0  0  0  0  0  0
   27.5009  -17.9995  -20.3729 C   0  0  0  0  0  0  0  0  0  0  0  0
   27.5888  -17.2051  -21.3416 O   0  0  0  0  0  0  0  0  0  0  0  0
   26.2404  -18.1120  -19.5781 C   0  0  0  0  0  0  0  0  0  0  0  0
   26.4468  -19.1238  -18.4443 C   0  0  2  0  0  0  0  0  0  0  0  0
   26.6610  -20.4224  -18.9976 N   0  0  0  0  0  0  0  0  0  0  0  0
   25.2946  -19.0490  -17.5099 C   0  0  0  0  0  0  0  0  0  0  0  0
   25.0701  -17.9751  -16.9225 O   0  0  0  0  0  0  0  0  0  0  0  0
   20.2788  -15.9536  -20.3659 O   0  0  0  0  0  0  0  0  0  0  0  0
   20.6998  -17.0222  -19.5654 C   0  0  0  0  0  0  0  0  0  0  0  0
   20.4123  -17.0493  -18.2174 C   0  0  0  0  0  0  0  0  0  0  0  0
   20.8270  -18.1068  -17.4168 C   0  0  0  0  0  0  0  0  0  0  0  0
   21.5404  -19.1699  -17.9309 C   0  0  0  0  0  0  0  0  0  0  0  0
   21.9786  -20.2853  -17.0901 C   0  0  0  0  0  0  0  0  0  0  0  0
   23.3021  -20.0121  -16.3752 C   0  0  2  0  0  0  0  0  0  0  0  0
   24.4233  -20.1546  -17.2479 N   0  0  0  0  0  0  0  0  0  0  0  0
   23.4097  -20.8229  -15.1370 C   0  0  0  0  0  0  0  0  0  0  0  0
   23.4643  -22.0745  -15.2788 O   0  0  0  0  0  0  0  0  0  0  0  0
   21.8246  -19.1353  -19.2829 C   0  0  0  0  0  0  0  0  0  0  0  0
   21.4121  -18.0805  -20.0874 C   0  0  0  0  0  0  0  0  0  0  0  0
   26.0574  -21.8880  -10.1461 C   0  0  0  0  0  0  0  0  0  0  0  0
   24.6333  -21.4408  -10.4117 C   0  0  0  0  0  0  0  0  0  0  0  0
   24.5438  -20.6142  -11.6741 C   0  0  2  0  0  0  0  0  0  0  0  0
   24.3225  -19.1892  -11.2948 C   0  0  0  0  0  0  0  0  0  0  0  0
   23.5419  -21.1641  -12.6634 C   0  0  2  0  0  0  0  0  0  0  0  0
   23.4541  -20.3015  -13.8417 N   0  0  0  0  0  0  0  0  0  0  0  0
   22.1793  -21.2878  -12.0904 C   0  0  0  0  0  0  0  0  0  0  0  0
   21.2987  -20.3730  -12.2315 O   0  0  0  0  0  0  0  0  0  0  0  0
   21.7643  -22.3956  -11.3664 O   0  0  0  0  0  0  0  0  0  0  0  0
  2  1  1  0
  3  2  2  0
  4  5  1  0
  4  2  1  0
  5  6  1  6
  7  5  1  0
  7  8  2  0
  9 10  1  0
 10 11  2  0
 11 12  1  0
 13 12  2  0
 13 14  1  0
 15 14  1  6
 15 16  1  0
 16  7  1  0
 17 18  2  0
 17 15  1  0
 19 13  1  0
 20 10  1  0
 20 19  2  0
 22 21  1  0
 23 22  1  0
 23 24  1  1
 25 26  1  6
 25 23  1  0
 26 17  1  0
 27 25  1  0
 28 27  2  0
 29 27  1  0
M  END
$$$$
