TQH.pdb
     RDKit          3D

 27 27  0  0  1  0  0  0  0  0999 V2000
   22.2355   -8.2295  -14.4218 C   0  0  0  0  0  0  0  0  0  0  0  0
   22.5636   -9.1875  -15.5634 C   0  0  1  0  0  0  0  0  0  0  0  0
   23.7055   -9.8781  -15.1859 O   0  0  0  0  0  0  0  0  0  0  0  0
   21.4329  -10.1676  -15.6670 C   0  0  2  0  0  0  0  0  0  0  0  0
   21.7554  -11.1604  -16.6683 N   0  0  0  0  0  0  0  0  0  0  0  0
   20.1369   -9.5725  -15.9513 C   0  0  0  0  0  0  0  0  0  0  0  0
   19.8231   -9.3786  -17.1752 O   0  0  0  0  0  0  0  0  0  0  0  0
   15.0444  -10.9244  -13.8738 N   0  0  0  0  0  0  0  0  0  0  0  0
   14.5152   -9.8092  -14.5583 C   0  0  0  0  0  0  0  0  0  0  0  0
   13.2700   -9.7035  -14.6563 O   0  0  0  0  0  0  0  0  0  0  0  0
   15.4675   -8.7900  -15.1440 C   0  0  0  0  0  0  0  0  0  0  0  0
   16.8441   -9.3184  -14.8546 C   0  0  0  0  0  0  0  0  0  0  0  0
   17.9712   -8.4683  -15.3925 C   0  0  2  0  0  0  0  0  0  0  0  0
   19.1892   -9.1885  -14.9732 N   0  0  0  0  0  0  0  0  0  0  0  0
   18.0697   -7.1325  -14.7895 C   0  0  0  0  0  0  0  0  0  0  0  0
   18.2700   -6.9796  -13.5312 O   0  0  0  0  0  0  0  0  0  0  0  0
   17.9619   -5.9074  -15.5060 N   0  0  0  0  0  0  0  0  0  0  0  0
   18.1377   -4.5952  -14.8573 C   0  0  1  0  0  0  0  0  0  0  0  0
   19.2316   -3.8284  -15.5174 C   0  0  0  0  0  0  0  0  0  0  0  0
   20.5339   -4.4791  -15.3055 C   0  0  0  0  0  0  0  0  0  0  0  0
   21.3061   -5.2033  -16.1939 C   0  0  0  0  0  0  0  0  0  0  0  0
   22.4244   -5.6578  -15.6097 N   0  0  0  0  0  0  0  0  0  0  0  0
   22.3613   -5.2155  -14.3313 C   0  0  0  0  0  0  0  0  0  0  0  0
   21.2411   -4.5134  -14.1395 N   0  0  0  0  0  0  0  0  0  0  0  0
   16.8799   -3.8584  -14.8081 C   0  0  0  0  0  0  0  0  0  0  0  0
   16.7573   -2.6322  -14.1700 O   0  0  0  0  0  0  0  0  0  0  0  0
   15.8520   -4.3166  -15.3495 O   0  0  0  0  0  0  0  0  0  0  0  0
  2  1  1  1
  2  4  1  0
  3  2  1  0
  4  6  1  0
  4  5  1  6
  6  7  2  0
  6 14  1  0
  8  9  1  0
  9 10  2  0
 11  9  1  0
 12 11  1  0
 13 15  1  0
 13 12  1  1
 14 13  1  0
 15 16  2  0
 17 18  1  0
 17 15  1  0
 18 19  1  6
 20 19  1  0
 21 20  2  0
 22 21  1  0
 23 22  1  0
 23 24  2  0
 24 20  1  0
 25 18  1  0
 26 25  1  0
 27 25  2  0
M  END
$$$$
