TQH.pdb
     RDKit          3D

 27 27  0  0  1  0  0  0  0  0999 V2000
   27.8531  -15.9868  -15.3581 C   0  0  0  0  0  0  0  0  0  0  0  0
   26.5226  -15.4575  -15.8854 C   0  0  1  0  0  0  0  0  0  0  0  0
   26.8180  -14.6701  -16.9882 O   0  0  0  0  0  0  0  0  0  0  0  0
   25.7215  -16.6375  -16.3500 C   0  0  2  0  0  0  0  0  0  0  0  0
   26.4265  -17.2950  -17.4283 N   0  0  0  0  0  0  0  0  0  0  0  0
   24.3611  -16.3257  -16.7580 C   0  0  0  0  0  0  0  0  0  0  0  0
   24.1602  -16.0122  -17.9809 O   0  0  0  0  0  0  0  0  0  0  0  0
   19.5271  -18.9455  -14.9572 N   0  0  0  0  0  0  0  0  0  0  0  0
   18.7834  -17.8750  -15.4987 C   0  0  0  0  0  0  0  0  0  0  0  0
   17.5328  -17.9175  -15.4239 O   0  0  0  0  0  0  0  0  0  0  0  0
   19.5218  -16.7236  -16.1452 C   0  0  0  0  0  0  0  0  0  0  0  0
   20.9801  -17.0121  -15.9258 C   0  0  0  0  0  0  0  0  0  0  0  0
   21.9175  -15.9426  -16.4357 C   0  0  2  0  0  0  0  0  0  0  0  0
   23.2343  -16.3422  -15.9023 N   0  0  0  0  0  0  0  0  0  0  0  0
   21.6605  -14.5994  -15.8995 C   0  0  0  0  0  0  0  0  0  0  0  0
   21.8098  -14.3371  -14.6522 O   0  0  0  0  0  0  0  0  0  0  0  0
   21.2375  -13.4825  -16.6737 N   0  0  0  0  0  0  0  0  0  0  0  0
   20.9478  -12.1684  -16.0713 C   0  0  1  0  0  0  0  0  0  0  0  0
   21.6346  -11.0839  -16.8281 C   0  0  0  0  0  0  0  0  0  0  0  0
   21.3295   -9.7647  -16.2528 C   0  0  0  0  0  0  0  0  0  0  0  0
   21.7256   -9.2232  -15.0445 C   0  0  0  0  0  0  0  0  0  0  0  0
   21.2165   -7.9947  -14.8707 N   0  0  0  0  0  0  0  0  0  0  0  0
   20.4863   -7.7527  -15.9852 C   0  0  0  0  0  0  0  0  0  0  0  0
   20.5466   -8.7988  -16.8139 N   0  0  0  0  0  0  0  0  0  0  0  0
   19.5111  -11.9500  -15.9477 C   0  0  0  0  0  0  0  0  0  0  0  0
   18.9532  -11.2242  -14.9047 O   0  0  0  0  0  0  0  0  0  0  0  0
   18.7206  -12.4186  -16.7934 O   0  0  0  0  0  0  0  0  0  0  0  0
  2  1  1  6
  2  4  1  0
  3  2  1  0
  4  6  1  0
  4  5  1  6
  6  7  2  0
  6 14  1  0
  8  9  1  0
  9 10  2  0
 11  9  1  0
 12 11  1  0
 13 15  1  0
 13 12  1  1
 14 13  1  0
 15 16  2  0
 17 18  1  0
 17 15  1  0
 18 19  1  6
 20 19  1  0
 21 20  2  0
 22 21  1  0
 23 22  1  0
 23 24  2  0
 24 20  1  0
 25 18  1  0
 26 25  1  0
 27 25  2  0
M  END
$$$$
