TQH.pdb
     RDKit          3D

 27 27  0  0  1  0  0  0  0  0999 V2000
   29.9033  -10.3136  -17.2720 C   0  0  0  0  0  0  0  0  0  0  0  0
   28.4033  -10.0837  -17.1123 C   0  0  1  0  0  0  0  0  0  0  0  0
   28.0886   -8.9715  -17.8786 O   0  0  0  0  0  0  0  0  0  0  0  0
   27.7012  -11.2731  -17.6977 C   0  0  2  0  0  0  0  0  0  0  0  0
   28.1619  -11.4763  -19.0536 N   0  0  0  0  0  0  0  0  0  0  0  0
   26.2494  -11.1970  -17.6682 C   0  0  0  0  0  0  0  0  0  0  0  0
   25.6471  -10.8411  -18.7382 O   0  0  0  0  0  0  0  0  0  0  0  0
   22.8062  -14.8812  -14.8123 N   0  0  0  0  0  0  0  0  0  0  0  0
   21.7219  -14.0164  -15.0747 C   0  0  0  0  0  0  0  0  0  0  0  0
   20.5676  -14.3933  -14.7634 O   0  0  0  0  0  0  0  0  0  0  0  0
   21.9945  -12.6747  -15.7185 C   0  0  0  0  0  0  0  0  0  0  0  0
   23.4818  -12.6281  -15.9278 C   0  0  0  0  0  0  0  0  0  0  0  0
   23.9766  -11.4035  -16.6614 C   0  0  2  0  0  0  0  0  0  0  0  0
   25.4452  -11.4879  -16.5409 N   0  0  0  0  0  0  0  0  0  0  0  0
   23.5980  -10.1264  -16.0421 C   0  0  0  0  0  0  0  0  0  0  0  0
   24.2464   -9.6493  -15.0428 O   0  0  0  0  0  0  0  0  0  0  0  0
   22.5149   -9.3067  -16.4671 N   0  0  0  0  0  0  0  0  0  0  0  0
   22.1491   -8.0588  -15.7724 C   0  0  1  0  0  0  0  0  0  0  0  0
   22.8330   -6.8924  -16.3988 C   0  0  0  0  0  0  0  0  0  0  0  0
   22.4534   -5.6376  -15.7310 C   0  0  0  0  0  0  0  0  0  0  0  0
   21.6484   -5.4431  -14.6246 C   0  0  0  0  0  0  0  0  0  0  0  0
   21.5239   -4.1393  -14.3357 N   0  0  0  0  0  0  0  0  0  0  0  0
   22.2608   -3.4968  -15.2726 C   0  0  0  0  0  0  0  0  0  0  0  0
   22.8180   -4.3783  -16.1075 N   0  0  0  0  0  0  0  0  0  0  0  0
   20.7011   -7.8972  -15.7056 C   0  0  0  0  0  0  0  0  0  0  0  0
   20.0741   -7.1990  -14.6833 O   0  0  0  0  0  0  0  0  0  0  0  0
   19.9640   -8.3920  -16.5840 O   0  0  0  0  0  0  0  0  0  0  0  0
  2  1  1  6
  2  4  1  0
  3  2  1  0
  4  6  1  0
  4  5  1  6
  6  7  2  0
  6 14  1  0
  8  9  1  0
  9 10  2  0
 11  9  1  0
 12 11  1  0
 13 15  1  0
 13 12  1  1
 14 13  1  0
 15 16  2  0
 17 18  1  0
 17 15  1  0
 18 19  1  6
 20 19  1  0
 21 20  2  0
 22 21  1  0
 23 22  1  0
 23 24  2  0
 24 20  1  0
 25 18  1  0
 26 25  1  0
 27 25  2  0
M  END
$$$$
