TQH.pdb
     RDKit          3D

 27 27  0  0  1  0  0  0  0  0999 V2000
   19.3552  -12.3284  -18.4256 C   0  0  0  0  0  0  0  0  0  0  0  0
   20.4162  -13.2973  -17.9116 C   0  0  1  0  0  0  0  0  0  0  0  0
   20.2874  -14.4590  -18.6581 O   0  0  0  0  0  0  0  0  0  0  0  0
   21.7573  -12.6938  -18.2069 C   0  0  2  0  0  0  0  0  0  0  0  0
   22.7906  -13.6548  -17.8895 N   0  0  0  0  0  0  0  0  0  0  0  0
   22.0194  -11.4344  -17.5290 C   0  0  0  0  0  0  0  0  0  0  0  0
   22.3660  -11.4777  -16.2993 O   0  0  0  0  0  0  0  0  0  0  0  0
   22.8464   -6.0195  -20.1826 N   0  0  0  0  0  0  0  0  0  0  0  0
   24.0063   -6.8041  -20.0056 C   0  0  0  0  0  0  0  0  0  0  0  0
   25.0246   -6.5272  -20.6823 O   0  0  0  0  0  0  0  0  0  0  0  0
   23.9750   -7.9434  -19.0107 C   0  0  0  0  0  0  0  0  0  0  0  0
   22.5920   -7.9216  -18.4236 C   0  0  0  0  0  0  0  0  0  0  0  0
   22.3419   -8.9666  -17.3615 C   0  0  2  0  0  0  0  0  0  0  0  0
   21.9205  -10.1559  -18.1272 N   0  0  0  0  0  0  0  0  0  0  0  0
   21.2280   -8.6606  -16.4542 C   0  0  0  0  0  0  0  0  0  0  0  0
   20.0174   -8.9608  -16.7562 O   0  0  0  0  0  0  0  0  0  0  0  0
   21.3624   -8.0255  -15.1876 N   0  0  0  0  0  0  0  0  0  0  0  0
   20.2570   -7.9636  -14.2141 C   0  0  1  0  0  0  0  0  0  0  0  0
   19.7606   -9.3329  -13.8992 C   0  0  0  0  0  0  0  0  0  0  0  0
   18.6689   -9.2846  -12.9143 C   0  0  0  0  0  0  0  0  0  0  0  0
   17.9478   -8.1971  -12.4588 C   0  0  0  0  0  0  0  0  0  0  0  0
   17.0459   -8.5623  -11.5358 N   0  0  0  0  0  0  0  0  0  0  0  0
   17.1968   -9.9015  -11.4034 C   0  0  0  0  0  0  0  0  0  0  0  0
   18.1594  -10.3415  -12.2186 N   0  0  0  0  0  0  0  0  0  0  0  0
   20.6435   -7.2141  -13.0240 C   0  0  0  0  0  0  0  0  0  0  0  0
   21.9442   -7.1998  -12.5405 O   0  0  0  0  0  0  0  0  0  0  0  0
   19.7994   -6.5479  -12.3890 O   0  0  0  0  0  0  0  0  0  0  0  0
  2  1  1  6
  2  4  1  0
  3  2  1  0
  4  6  1  0
  4  5  1  1
  6  7  2  0
  6 14  1  0
  8  9  1  0
  9 10  2  0
 11  9  1  0
 12 11  1  0
 13 15  1  0
 13 12  1  6
 14 13  1  0
 15 16  2  0
 17 18  1  0
 17 15  1  0
 18 19  1  1
 20 19  1  0
 21 20  2  0
 22 21  1  0
 23 22  1  0
 23 24  2  0
 24 20  1  0
 25 18  1  0
 26 25  1  0
 27 25  2  0
M  END
$$$$
