TQH.pdb
     RDKit          3D

 27 27  0  0  1  0  0  0  0  0999 V2000
   15.1098  -10.0138  -15.2607 C   0  0  0  0  0  0  0  0  0  0  0  0
   15.0512  -11.3506  -14.5272 C   0  0  1  0  0  0  0  0  0  0  0  0
   13.7168  -11.7267  -14.4940 O   0  0  0  0  0  0  0  0  0  0  0  0
   15.8022  -12.3511  -15.3550 C   0  0  2  0  0  0  0  0  0  0  0  0
   15.6676  -13.6603  -14.7550 N   0  0  0  0  0  0  0  0  0  0  0  0
   17.2068  -12.0370  -15.5616 C   0  0  0  0  0  0  0  0  0  0  0  0
   18.0088  -12.2089  -14.5810 O   0  0  0  0  0  0  0  0  0  0  0  0
   22.0789  -12.3388  -18.6256 N   0  0  0  0  0  0  0  0  0  0  0  0
   21.1710  -13.4196  -18.6316 C   0  0  0  0  0  0  0  0  0  0  0  0
   21.6228  -14.5792  -18.7820 O   0  0  0  0  0  0  0  0  0  0  0  0
   19.6950  -13.1371  -18.4571 C   0  0  0  0  0  0  0  0  0  0  0  0
   19.5967  -11.6541  -18.2358 C   0  0  0  0  0  0  0  0  0  0  0  0
   19.2032  -11.2511  -16.8339 C   0  0  2  0  0  0  0  0  0  0  0  0
   17.7598  -11.5528  -16.7707 N   0  0  0  0  0  0  0  0  0  0  0  0
   19.3231   -9.8138  -16.5555 C   0  0  0  0  0  0  0  0  0  0  0  0
   18.3856   -8.9926  -16.8614 O   0  0  0  0  0  0  0  0  0  0  0  0
   20.4465   -9.1968  -15.9367 N   0  0  0  0  0  0  0  0  0  0  0  0
   20.5117   -7.7454  -15.6859 C   0  0  1  0  0  0  0  0  0  0  0  0
   21.7048   -7.4113  -14.8580 C   0  0  0  0  0  0  0  0  0  0  0  0
   21.7712   -5.9667  -14.5875 C   0  0  0  0  0  0  0  0  0  0  0  0
   20.8752   -4.9702  -14.9260 C   0  0  0  0  0  0  0  0  0  0  0  0
   21.3076   -3.7675  -14.5196 N   0  0  0  0  0  0  0  0  0  0  0  0
   22.4956   -4.0040  -13.9142 C   0  0  0  0  0  0  0  0  0  0  0  0
   22.7810   -5.3086  -13.9489 N   0  0  0  0  0  0  0  0  0  0  0  0
   20.4593   -6.9917  -16.9335 C   0  0  0  0  0  0  0  0  0  0  0  0
   19.6387   -5.8856  -17.1036 O   0  0  0  0  0  0  0  0  0  0  0  0
   21.1654   -7.3242  -17.9084 O   0  0  0  0  0  0  0  0  0  0  0  0
  2  1  1  6
  2  4  1  0
  3  2  1  0
  4  6  1  0
  4  5  1  1
  6  7  2  0
  6 14  1  0
  8  9  1  0
  9 10  2  0
 11  9  1  0
 12 11  1  0
 13 15  1  0
 13 12  1  6
 14 13  1  0
 15 16  2  0
 17 18  1  0
 17 15  1  0
 18 19  1  6
 20 19  1  0
 21 20  2  0
 22 21  1  0
 23 22  1  0
 23 24  2  0
 24 20  1  0
 25 18  1  0
 26 25  1  0
 27 25  2  0
M  END
$$$$
