IID.pdb
     RDKit          3D

 25 24  0  0  1  0  0  0  0  0999 V2000
   30.0246  -19.1759  -16.9672 C   0  0  0  0  0  0  0  0  0  0  0  0
   28.5766  -18.8165  -16.6523 C   0  0  0  0  0  0  0  0  0  0  0  0
   27.8808  -19.8927  -15.8703 C   0  0  2  0  0  0  0  0  0  0  0  0
   28.0877  -21.2079  -16.5792 C   0  0  0  0  0  0  0  0  0  0  0  0
   26.4336  -19.6106  -15.5841 C   0  0  2  0  0  0  0  0  0  0  0  0
   26.3183  -18.2198  -15.0901 N   0  0  0  0  0  0  0  0  0  0  0  0
   25.8281  -20.4594  -14.5451 C   0  0  0  0  0  0  0  0  0  0  0  0
   25.7015  -21.7188  -14.7630 O   0  0  0  0  0  0  0  0  0  0  0  0
   26.8517  -20.6914   -9.3707 C   0  0  0  0  0  0  0  0  0  0  0  0
   26.4201  -21.0370  -10.7932 C   0  0  0  0  0  0  0  0  0  0  0  0
   24.9959  -20.6539  -11.0382 C   0  0  2  0  0  0  0  0  0  0  0  0
   24.0576  -21.1622   -9.9718 C   0  0  0  0  0  0  0  0  0  0  0  0
   24.5010  -20.8778  -12.4313 C   0  0  2  0  0  0  0  0  0  0  0  0
   25.3542  -20.0365  -13.2873 N   0  0  0  0  0  0  0  0  0  0  0  0
   23.1082  -20.5148  -12.6821 C   0  0  0  0  0  0  0  0  0  0  0  0
   22.7479  -19.2869  -12.6215 O   0  0  0  0  0  0  0  0  0  0  0  0
   22.0601  -21.4196  -13.0031 N   0  0  0  0  0  0  0  0  0  0  0  0
   20.7961  -20.9630  -13.5709 C   0  0  1  0  0  0  0  0  0  0  0  0
   20.9953  -20.1949  -14.8282 C   0  0  0  0  0  0  0  0  0  0  0  0
   19.6939  -19.7865  -15.3922 C   0  0  0  0  0  0  0  0  0  0  0  0
   18.8469  -19.0613  -14.8166 O   0  0  0  0  0  0  0  0  0  0  0  0
   19.8801  -22.0989  -13.8117 C   0  0  0  0  0  0  0  0  0  0  0  0
   20.4051  -23.3862  -13.6605 O   0  0  0  0  0  0  0  0  0  0  0  0
   19.3591  -20.2386  -16.6799 O   0  0  0  0  0  0  0  0  0  0  0  0
   18.6775  -21.9916  -14.1388 O   0  0  0  0  0  0  0  0  0  0  0  0
  2  1  1  0
  3  2  1  0
  3  5  1  0
  3  4  1  6
  5  7  1  0
  5  6  1  1
  7  8  2  0
 10  9  1  0
 11 12  1  1
 11 13  1  0
 11 10  1  0
 13 14  1  6
 14  7  1  0
 15 17  1  0
 15 13  1  0
 16 15  2  0
 18 19  1  6
 18 17  1  0
 19 20  1  0
 20 24  1  0
 20 21  2  0
 22 23  1  0
 22 18  1  0
 25 22  2  0
M  END
$$$$
