IID.pdb
     RDKit          3D

 25 24  0  0  1  0  0  0  0  0999 V2000
   25.2441  -26.1797  -16.5224 C   0  0  0  0  0  0  0  0  0  0  0  0
   25.9143  -24.8169  -16.6586 C   0  0  0  0  0  0  0  0  0  0  0  0
   25.0812  -23.7128  -16.0748 C   0  0  2  0  0  0  0  0  0  0  0  0
   23.6700  -23.8572  -16.5872 C   0  0  0  0  0  0  0  0  0  0  0  0
   25.6391  -22.3358  -16.2949 C   0  0  2  0  0  0  0  0  0  0  0  0
   27.0107  -22.2939  -15.7394 N   0  0  0  0  0  0  0  0  0  0  0  0
   24.9003  -21.2514  -15.6280 C   0  0  0  0  0  0  0  0  0  0  0  0
   24.9475  -21.1589  -14.3478 O   0  0  0  0  0  0  0  0  0  0  0  0
   25.3731  -16.1921  -16.5308 C   0  0  0  0  0  0  0  0  0  0  0  0
   25.0887  -17.5335  -15.8609 C   0  0  0  0  0  0  0  0  0  0  0  0
   23.6677  -17.9523  -16.0627 C   0  0  2  0  0  0  0  0  0  0  0  0
   22.6794  -16.8642  -15.7232 C   0  0  0  0  0  0  0  0  0  0  0  0
   23.3062  -19.2899  -15.5007 C   0  0  2  0  0  0  0  0  0  0  0  0
   24.1179  -20.2607  -16.2539 N   0  0  0  0  0  0  0  0  0  0  0  0
   21.9034  -19.6786  -15.6243 C   0  0  0  0  0  0  0  0  0  0  0  0
   21.4276  -19.9952  -16.7709 O   0  0  0  0  0  0  0  0  0  0  0  0
   20.9650  -19.7483  -14.5590 N   0  0  0  0  0  0  0  0  0  0  0  0
   19.5648  -20.0885  -14.7879 C   0  0  1  0  0  0  0  0  0  0  0  0
   18.9958  -20.8874  -13.6705 C   0  0  0  0  0  0  0  0  0  0  0  0
   17.5648  -21.1588  -13.9099 C   0  0  0  0  0  0  0  0  0  0  0  0
   16.8858  -20.6979  -14.8592 O   0  0  0  0  0  0  0  0  0  0  0  0
   18.7511  -18.8730  -15.0063 C   0  0  0  0  0  0  0  0  0  0  0  0
   17.7231  -18.9535  -15.9510 O   0  0  0  0  0  0  0  0  0  0  0  0
   16.8910  -22.0011  -13.0094 O   0  0  0  0  0  0  0  0  0  0  0  0
   18.9152  -17.7853  -14.4108 O   0  0  0  0  0  0  0  0  0  0  0  0
  2  1  1  0
  3  2  1  0
  3  5  1  0
  3  4  1  6
  5  7  1  0
  5  6  1  1
  7  8  2  0
 10  9  1  0
 11 12  1  1
 11 13  1  0
 11 10  1  0
 13 14  1  6
 14  7  1  0
 15 17  1  0
 15 13  1  0
 16 15  2  0
 18 19  1  1
 18 17  1  0
 19 20  1  0
 20 24  1  0
 20 21  2  0
 22 23  1  0
 22 18  1  0
 25 22  2  0
M  END
$$$$
