IID.pdb
     RDKit          3D

 25 24  0  0  1  0  0  0  0  0999 V2000
   20.8866  -20.8201   -9.4424 C   0  0  0  0  0  0  0  0  0  0  0  0
   22.3381  -21.0156   -9.0183 C   0  0  0  0  0  0  0  0  0  0  0  0
   23.3043  -20.6048  -10.0914 C   0  0  2  0  0  0  0  0  0  0  0  0
   22.9267  -21.3108  -11.3697 C   0  0  0  0  0  0  0  0  0  0  0  0
   24.7490  -20.7975   -9.7285 C   0  0  2  0  0  0  0  0  0  0  0  0
   25.0111  -20.0799   -8.4605 N   0  0  0  0  0  0  0  0  0  0  0  0
   25.7122  -20.2599  -10.7031 C   0  0  0  0  0  0  0  0  0  0  0  0
   25.8734  -18.9884  -10.7855 O   0  0  0  0  0  0  0  0  0  0  0  0
   30.5499  -21.8327  -10.7916 C   0  0  0  0  0  0  0  0  0  0  0  0
   29.2848  -20.9925  -10.9416 C   0  0  0  0  0  0  0  0  0  0  0  0
   28.7509  -21.0567  -12.3367 C   0  0  2  0  0  0  0  0  0  0  0  0
   29.7866  -20.7169  -13.3797 C   0  0  0  0  0  0  0  0  0  0  0  0
   27.4352  -20.3801  -12.5528 C   0  0  2  0  0  0  0  0  0  0  0  0
   26.5130  -21.0061  -11.5904 N   0  0  0  0  0  0  0  0  0  0  0  0
   26.8576  -20.5146  -13.8879 C   0  0  0  0  0  0  0  0  0  0  0  0
   26.5841  -21.6775  -14.3508 O   0  0  0  0  0  0  0  0  0  0  0  0
   26.5501  -19.4436  -14.7704 N   0  0  0  0  0  0  0  0  0  0  0  0
   25.8865  -19.6674  -16.0504 C   0  0  1  0  0  0  0  0  0  0  0  0
   24.7490  -18.7330  -16.2590 C   0  0  0  0  0  0  0  0  0  0  0  0
   23.4790  -19.4807  -16.3427 C   0  0  0  0  0  0  0  0  0  0  0  0
   22.4379  -19.2212  -15.6921 O   0  0  0  0  0  0  0  0  0  0  0  0
   26.8439  -19.5573  -17.1722 C   0  0  0  0  0  0  0  0  0  0  0  0
   26.6333  -20.3897  -18.2760 O   0  0  0  0  0  0  0  0  0  0  0  0
   23.4128  -20.5772  -17.2188 O   0  0  0  0  0  0  0  0  0  0  0  0
   27.8221  -18.7784  -17.2044 O   0  0  0  0  0  0  0  0  0  0  0  0
  2  1  1  0
  3  2  1  0
  3  5  1  0
  3  4  1  6
  5  7  1  0
  5  6  1  1
  7  8  2  0
 10  9  1  0
 11 12  1  6
 11 13  1  0
 11 10  1  0
 13 14  1  1
 14  7  1  0
 15 17  1  0
 15 13  1  0
 16 15  2  0
 18 19  1  6
 18 17  1  0
 19 20  1  0
 20 24  1  0
 20 21  2  0
 22 23  1  0
 22 18  1  0
 25 22  2  0
M  END
$$$$
