IID.pdb
     RDKit          3D

 25 24  0  0  1  0  0  0  0  0999 V2000
   28.4302  -17.9907  -17.9561 C   0  0  0  0  0  0  0  0  0  0  0  0
   28.8163  -18.7576  -16.6961 C   0  0  0  0  0  0  0  0  0  0  0  0
   27.6217  -19.3349  -15.9934 C   0  0  2  0  0  0  0  0  0  0  0  0
   26.6069  -18.2366  -15.7959 C   0  0  0  0  0  0  0  0  0  0  0  0
   27.9458  -20.0599  -14.7186 C   0  0  2  0  0  0  0  0  0  0  0  0
   28.8878  -21.1580  -15.0330 N   0  0  0  0  0  0  0  0  0  0  0  0
   26.7955  -20.6931  -14.0534 C   0  0  0  0  0  0  0  0  0  0  0  0
   26.3040  -21.7717  -14.5481 O   0  0  0  0  0  0  0  0  0  0  0  0
   26.4193  -20.8481   -8.6977 C   0  0  0  0  0  0  0  0  0  0  0  0
   26.3239  -21.2738  -10.1602 C   0  0  0  0  0  0  0  0  0  0  0  0
   25.1118  -20.6956  -10.8174 C   0  0  2  0  0  0  0  0  0  0  0  0
   23.8396  -20.9751  -10.0564 C   0  0  0  0  0  0  0  0  0  0  0  0
   24.9994  -20.9418  -12.2880 C   0  0  2  0  0  0  0  0  0  0  0  0
   26.1452  -20.2386  -12.8889 N   0  0  0  0  0  0  0  0  0  0  0  0
   23.7805  -20.4527  -12.9278 C   0  0  0  0  0  0  0  0  0  0  0  0
   23.5657  -19.1926  -13.0124 O   0  0  0  0  0  0  0  0  0  0  0  0
   22.7592  -21.2623  -13.4950 N   0  0  0  0  0  0  0  0  0  0  0  0
   21.5915  -20.6819  -14.1496 C   0  0  1  0  0  0  0  0  0  0  0  0
   21.4132  -21.1993  -15.5319 C   0  0  0  0  0  0  0  0  0  0  0  0
   20.1483  -20.7015  -16.1074 C   0  0  0  0  0  0  0  0  0  0  0  0
   19.0158  -21.2095  -15.9236 O   0  0  0  0  0  0  0  0  0  0  0  0
   20.3651  -20.9200  -13.3581 C   0  0  0  0  0  0  0  0  0  0  0  0
   20.4020  -21.9550  -12.4183 O   0  0  0  0  0  0  0  0  0  0  0  0
   20.1982  -19.5650  -16.9322 O   0  0  0  0  0  0  0  0  0  0  0  0
   19.3042  -20.2666  -13.4682 O   0  0  0  0  0  0  0  0  0  0  0  0
  2  1  1  0
  3  2  1  0
  3  5  1  0
  3  4  1  1
  5  7  1  0
  5  6  1  6
  7  8  2  0
 10  9  1  0
 11 12  1  1
 11 13  1  0
 11 10  1  0
 13 14  1  6
 14  7  1  0
 15 17  1  0
 15 13  1  0
 16 15  2  0
 18 19  1  6
 18 17  1  0
 19 20  1  0
 20 24  1  0
 20 21  2  0
 22 23  1  0
 22 18  1  0
 25 22  2  0
M  END
$$$$
