IID.pdb
     RDKit          3D

 25 24  0  0  1  0  0  0  0  0999 V2000
   23.4117  -18.9897  -16.5877 C   0  0  0  0  0  0  0  0  0  0  0  0
   22.3041  -18.9105  -15.5427 C   0  0  0  0  0  0  0  0  0  0  0  0
   22.3967  -20.0160  -14.5312 C   0  0  2  0  0  0  0  0  0  0  0  0
   22.4701  -21.3311  -15.2663 C   0  0  0  0  0  0  0  0  0  0  0  0
   21.3135  -19.9937  -13.4911 C   0  0  2  0  0  0  0  0  0  0  0  0
   21.2144  -18.6192  -12.9501 N   0  0  0  0  0  0  0  0  0  0  0  0
   21.5474  -20.8683  -12.3305 C   0  0  0  0  0  0  0  0  0  0  0  0
   21.4953  -22.1420  -12.4877 O   0  0  0  0  0  0  0  0  0  0  0  0
   25.4800  -19.9090   -8.8482 C   0  0  0  0  0  0  0  0  0  0  0  0
   24.4861  -20.6420   -9.7449 C   0  0  0  0  0  0  0  0  0  0  0  0
   23.1527  -20.7777   -9.0825 C   0  0  2  0  0  0  0  0  0  0  0  0
   23.2437  -21.3412   -7.6860 C   0  0  0  0  0  0  0  0  0  0  0  0
   22.0823  -21.4061   -9.9161 C   0  0  2  0  0  0  0  0  0  0  0  0
   21.8364  -20.4564  -11.0143 N   0  0  0  0  0  0  0  0  0  0  0  0
   20.8111  -21.6589   -9.2418 C   0  0  0  0  0  0  0  0  0  0  0  0
   19.9962  -20.6927   -9.0330 O   0  0  0  0  0  0  0  0  0  0  0  0
   20.3584  -22.9215   -8.7714 N   0  0  0  0  0  0  0  0  0  0  0  0
   19.0546  -23.0842   -8.1371 C   0  0  1  0  0  0  0  0  0  0  0  0
   18.0781  -23.7554   -9.0351 C   0  0  0  0  0  0  0  0  0  0  0  0
   16.8013  -23.9797   -8.3293 C   0  0  0  0  0  0  0  0  0  0  0  0
   16.1699  -23.1148   -7.6753 O   0  0  0  0  0  0  0  0  0  0  0  0
   19.1708  -23.8323   -6.8667 C   0  0  0  0  0  0  0  0  0  0  0  0
   18.0450  -23.8625   -6.0376 O   0  0  0  0  0  0  0  0  0  0  0  0
   16.2313  -25.2629   -8.3836 O   0  0  0  0  0  0  0  0  0  0  0  0
   20.1970  -24.4360   -6.4830 O   0  0  0  0  0  0  0  0  0  0  0  0
  2  1  1  0
  3  2  1  0
  3  5  1  0
  3  4  1  6
  5  7  1  0
  5  6  1  1
  7  8  2  0
 10  9  1  0
 11 12  1  1
 11 13  1  0
 11 10  1  0
 13 14  1  6
 14  7  1  0
 15 17  1  0
 15 13  1  0
 16 15  2  0
 18 19  1  6
 18 17  1  0
 19 20  1  0
 20 24  1  0
 20 21  2  0
 22 23  1  0
 22 18  1  0
 25 22  2  0
M  END
$$$$
