IID.pdb
     RDKit          3D

 25 24  0  0  1  0  0  0  0  0999 V2000
   23.6151  -16.8078  -17.6847 C   0  0  0  0  0  0  0  0  0  0  0  0
   23.6971  -18.2880  -18.0413 C   0  0  0  0  0  0  0  0  0  0  0  0
   23.2308  -19.1698  -16.9194 C   0  0  2  0  0  0  0  0  0  0  0  0
   21.8775  -18.6854  -16.4621 C   0  0  0  0  0  0  0  0  0  0  0  0
   24.2110  -19.3016  -15.7890 C   0  0  2  0  0  0  0  0  0  0  0  0
   25.4743  -19.8532  -16.3290 N   0  0  0  0  0  0  0  0  0  0  0  0
   23.7991  -20.2164  -14.7120 C   0  0  0  0  0  0  0  0  0  0  0  0
   23.5074  -21.4328  -15.0032 O   0  0  0  0  0  0  0  0  0  0  0  0
   26.1891  -20.6294   -9.9699 C   0  0  0  0  0  0  0  0  0  0  0  0
   25.4304  -20.9420  -11.2566 C   0  0  0  0  0  0  0  0  0  0  0  0
   23.9739  -20.6345  -11.1182 C   0  0  2  0  0  0  0  0  0  0  0  0
   23.3638  -21.2233   -9.8704 C   0  0  0  0  0  0  0  0  0  0  0  0
   23.1522  -20.8496  -12.3487 C   0  0  2  0  0  0  0  0  0  0  0  0
   23.6850  -19.9030  -13.3429 N   0  0  0  0  0  0  0  0  0  0  0  0
   21.7184  -20.6049  -12.2121 C   0  0  0  0  0  0  0  0  0  0  0  0
   21.2225  -19.4872  -12.5944 O   0  0  0  0  0  0  0  0  0  0  0  0
   20.7685  -21.5168  -11.6769 N   0  0  0  0  0  0  0  0  0  0  0  0
   19.3613  -21.4756  -12.0602 C   0  0  1  0  0  0  0  0  0  0  0  0
   19.1792  -21.6244  -13.5282 C   0  0  0  0  0  0  0  0  0  0  0  0
   17.7449  -21.5844  -13.8745 C   0  0  0  0  0  0  0  0  0  0  0  0
   17.0224  -22.5855  -14.0984 O   0  0  0  0  0  0  0  0  0  0  0  0
   18.5852  -22.5126  -11.3464 C   0  0  0  0  0  0  0  0  0  0  0  0
   17.2317  -22.2498  -11.1125 O   0  0  0  0  0  0  0  0  0  0  0  0
   17.1206  -20.3289  -13.9654 O   0  0  0  0  0  0  0  0  0  0  0  0
   19.0492  -23.6006  -10.9396 O   0  0  0  0  0  0  0  0  0  0  0  0
  2  1  1  0
  3  2  1  0
  3  5  1  0
  3  4  1  1
  5  7  1  0
  5  6  1  6
  7  8  2  0
 10  9  1  0
 11 12  1  1
 11 13  1  0
 11 10  1  0
 13 14  1  6
 14  7  1  0
 15 17  1  0
 15 13  1  0
 16 15  2  0
 18 19  1  6
 18 17  1  0
 19 20  1  0
 20 24  1  0
 20 21  2  0
 22 23  1  0
 22 18  1  0
 25 22  2  0
M  END
$$$$
