RVE.pdb
     RDKit          3D

 28 27  0  0  1  0  0  0  0  0999 V2000
    7.0943  -13.5638   15.9783 N   0  0  0  0  0  0  0  0  0  0  0  0
    8.3110  -14.1047   16.4676 C   0  0  0  0  0  0  0  0  0  0  0  0
    9.0026  -14.8803   15.7028 N   0  0  0  0  0  0  0  0  0  0  0  0
    8.7626  -13.7911   17.7975 N   0  0  0  0  0  0  0  0  0  0  0  0
    8.0425  -14.2982   18.9388 C   0  0  0  0  0  0  0  0  0  0  0  0
    7.1613  -13.2421   19.5593 C   0  0  0  0  0  0  0  0  0  0  0  0
    6.3481  -13.7691   20.7152 C   0  0  0  0  0  0  0  0  0  0  0  0
    7.1566  -14.7229   21.5783 C   0  0  2  0  0  0  0  0  0  0  0  0
    6.2731  -15.8577   21.8279 N   0  0  0  0  0  0  0  0  0  0  0  0
    7.4777  -14.1198   22.8920 C   0  0  0  0  0  0  0  0  0  0  0  0
    7.1615  -12.9335   23.1332 O   0  0  0  0  0  0  0  0  0  0  0  0
    9.9606  -15.2135   15.9167 C   0  0  0  0  0  0  0  0  0  0  0  0
    6.7986  -12.3978   24.8889 C   0  0  1  0  0  0  0  0  0  0  0  0
    7.1339  -13.6076   25.7321 C   0  0  0  0  0  0  0  0  0  0  0  0
    7.1798  -13.2197   27.1828 C   0  0  2  0  0  0  0  0  0  0  0  0
    8.3753  -14.2950   25.2425 N   0  0  0  0  0  0  0  0  0  0  0  0
    8.1521  -14.8559   23.9245 C   0  0  0  0  0  0  0  0  0  0  0  0
    8.9307  -15.2804   26.1879 O   0  0  0  0  0  0  0  0  0  0  0  0
    8.1832  -16.1767   26.6547 N   0  0  0  0  0  0  0  0  0  0  0  0
   10.2723  -15.3028   26.6249 C   0  0  1  0  0  0  0  0  0  0  0  0
   11.1025  -16.4808   26.4350 C   0  0  0  0  0  0  0  0  0  0  0  0
   12.3225  -16.2436   25.6674 C   0  0  0  0  0  0  0  0  0  0  0  0
   13.2086  -17.4455   25.5799 C   0  0  0  0  0  0  0  0  0  0  0  0
   14.4744  -17.2712   24.8820 O   0  0  0  0  0  0  0  0  0  0  0  0
   14.7585  -16.1588   24.3785 C   0  0  0  0  0  0  0  0  0  0  0  0
   11.3586  -17.1504   27.7328 O   0  0  0  0  0  0  0  0  0  0  0  0
   11.1097  -16.5824   28.8137 O   0  0  0  0  0  0  0  0  0  0  0  0
   15.3691  -18.3068   24.7602 O   0  0  0  0  0  0  0  0  0  0  0  0
  2  1  1  0
  3  2  2  0
  4  2  1  0
  5  4  1  0
  6  7  1  0
  6  5  1  0
  7  8  1  0
  8 10  1  0
  8  9  1  1
 10 11  2  0
 13 14  1  1
 13 12  1  0
 15 13  1  0
 15 16  1  1
 16 10  1  0
 17 15  1  0
 18 17  2  0
 19 17  1  0
 20 19  1  0
 20 21  1  1
 21 22  1  0
 23 22  1  0
 23 27  1  0
 24 23  2  0
 25 20  1  0
 25 28  1  0
 26 25  2  0
M  END
$$$$
