RVE.pdb
     RDKit          3D

 28 27  0  0  1  0  0  0  0  0999 V2000
   10.8881  -17.3367   12.5273 N   0  0  0  0  0  0  0  0  0  0  0  0
   10.7449  -18.7367   12.7061 C   0  0  0  0  0  0  0  0  0  0  0  0
   11.4325  -19.5354   11.9617 N   0  0  0  0  0  0  0  0  0  0  0  0
    9.8451  -19.2535   13.7031 N   0  0  0  0  0  0  0  0  0  0  0  0
    9.9583  -18.8120   15.0708 C   0  0  0  0  0  0  0  0  0  0  0  0
    8.9168  -17.7749   15.4124 C   0  0  0  0  0  0  0  0  0  0  0  0
    9.0049  -17.3126   16.8455 C   0  0  0  0  0  0  0  0  0  0  0  0
    8.6194  -15.8497   16.9853 C   0  0  2  0  0  0  0  0  0  0  0  0
    9.1832  -15.1901   15.8115 N   0  0  0  0  0  0  0  0  0  0  0  0
    9.2501  -15.2381   18.1772 C   0  0  0  0  0  0  0  0  0  0  0  0
   10.0551  -14.2894   18.0454 O   0  0  0  0  0  0  0  0  0  0  0  0
   11.4217  -20.5688   12.0431 C   0  0  0  0  0  0  0  0  0  0  0  0
    6.7835  -13.7812   20.7823 C   0  0  1  0  0  0  0  0  0  0  0  0
    8.2354  -13.5760   20.4127 C   0  0  0  0  0  0  0  0  0  0  0  0
    8.3334  -13.0438   19.0112 C   0  0  1  0  0  0  0  0  0  0  0  0
    9.0475  -14.8149   20.6554 N   0  0  0  0  0  0  0  0  0  0  0  0
    8.9705  -15.6984   19.5087 C   0  0  0  0  0  0  0  0  0  0  0  0
    8.7319  -15.5037   21.9200 O   0  0  0  0  0  0  0  0  0  0  0  0
    7.7158  -16.2410   21.9840 N   0  0  0  0  0  0  0  0  0  0  0  0
    9.4991  -15.4024   23.1000 C   0  0  1  0  0  0  0  0  0  0  0  0
   10.5023  -16.4014   23.4295 C   0  0  0  0  0  0  0  0  0  0  0  0
   11.5392  -16.5746   22.4152 C   0  0  0  0  0  0  0  0  0  0  0  0
   12.5016  -17.6739   22.7359 C   0  0  0  0  0  0  0  0  0  0  0  0
   13.6318  -17.8333   21.8321 O   0  0  0  0  0  0  0  0  0  0  0  0
   14.2205  -16.8194   21.3881 C   0  0  0  0  0  0  0  0  0  0  0  0
   11.0549  -16.1556   24.7831 O   0  0  0  0  0  0  0  0  0  0  0  0
   11.0808  -15.0100   25.2729 O   0  0  0  0  0  0  0  0  0  0  0  0
   14.0685  -19.0789   21.4505 O   0  0  0  0  0  0  0  0  0  0  0  0
  2  1  1  0
  3  2  2  0
  4  2  1  0
  5  4  1  0
  6  7  1  0
  6  5  1  0
  7  8  1  0
  8 10  1  0
  8  9  1  6
 10 11  2  0
 13 14  1  6
 13 12  1  0
 15 13  1  0
 15 16  1  6
 16 10  1  0
 17 15  1  0
 18 17  2  0
 19 17  1  0
 20 19  1  0
 20 21  1  1
 21 22  1  0
 23 22  1  0
 23 27  1  0
 24 23  2  0
 25 20  1  0
 25 28  1  0
 26 25  2  0
M  END
$$$$
