RVE.pdb
     RDKit          3D

 28 27  0  0  1  0  0  0  0  0999 V2000
    2.5818  -19.2115   21.6876 N   0  0  0  0  0  0  0  0  0  0  0  0
    2.0565  -19.7502   20.4851 C   0  0  0  0  0  0  0  0  0  0  0  0
    0.7966  -19.6192   20.2394 N   0  0  0  0  0  0  0  0  0  0  0  0
    2.9191  -20.4319   19.5567 N   0  0  0  0  0  0  0  0  0  0  0  0
    4.3445  -20.4374   19.7719 C   0  0  0  0  0  0  0  0  0  0  0  0
    5.0462  -19.4248   18.9007 C   0  0  0  0  0  0  0  0  0  0  0  0
    5.8199  -18.4065   19.7005 C   0  0  0  0  0  0  0  0  0  0  0  0
    6.4850  -17.3781   18.8014 C   0  0  2  0  0  0  0  0  0  0  0  0
    7.1054  -18.1496   17.7288 N   0  0  0  0  0  0  0  0  0  0  0  0
    7.5701  -16.6633   19.5116 C   0  0  0  0  0  0  0  0  0  0  0  0
    8.7116  -17.1699   19.5881 O   0  0  0  0  0  0  0  0  0  0  0  0
    0.3247  -19.9739   19.3873 C   0  0  0  0  0  0  0  0  0  0  0  0
    6.8866  -13.0315   21.8802 C   0  0  1  0  0  0  0  0  0  0  0  0
    8.0928  -13.2424   20.9928 C   0  0  0  0  0  0  0  0  0  0  0  0
    7.8968  -12.5235   19.6883 C   0  0  1  0  0  0  0  0  0  0  0  0
    8.4220  -14.6995   20.8455 N   0  0  0  0  0  0  0  0  0  0  0  0
    7.3628  -15.3839   20.1304 C   0  0  0  0  0  0  0  0  0  0  0  0
    8.7714  -15.3690   22.1116 O   0  0  0  0  0  0  0  0  0  0  0  0
    7.8724  -15.9499   22.7708 N   0  0  0  0  0  0  0  0  0  0  0  0
   10.0702  -15.4147   22.6613 C   0  0  1  0  0  0  0  0  0  0  0  0
   10.3985  -16.3417   23.7317 C   0  0  0  0  0  0  0  0  0  0  0  0
   10.5080  -17.7365   23.3115 C   0  0  0  0  0  0  0  0  0  0  0  0
   10.9524  -18.6510   24.4088 C   0  0  0  0  0  0  0  0  0  0  0  0
   11.1571  -20.0469   24.0493 O   0  0  0  0  0  0  0  0  0  0  0  0
   11.4030  -20.3525   22.8586 C   0  0  0  0  0  0  0  0  0  0  0  0
   11.5879  -15.8699   24.4807 O   0  0  0  0  0  0  0  0  0  0  0  0
   12.3153  -14.9621   24.0339 O   0  0  0  0  0  0  0  0  0  0  0  0
   11.0835  -21.0433   24.9924 O   0  0  0  0  0  0  0  0  0  0  0  0
  2  1  1  0
  3  2  2  0
  4  2  1  0
  5  4  1  0
  6  7  1  0
  6  5  1  0
  7  8  1  0
  8 10  1  0
  8  9  1  6
 10 11  2  0
 13 14  1  6
 13 12  1  0
 15 13  1  0
 15 16  1  6
 16 10  1  0
 17 15  1  0
 18 17  2  0
 19 17  1  0
 20 19  1  0
 20 21  1  1
 21 22  1  0
 23 22  1  0
 23 27  1  0
 24 23  2  0
 25 20  1  0
 25 28  1  0
 26 25  2  0
M  END
$$$$
