RVE.pdb
     RDKit          3D

 28 27  0  0  1  0  0  0  0  0999 V2000
   10.2244  -23.1379   18.5745 N   0  0  0  0  0  0  0  0  0  0  0  0
    9.7766  -23.2587   17.2338 C   0  0  0  0  0  0  0  0  0  0  0  0
   10.2542  -24.2051   16.4981 N   0  0  0  0  0  0  0  0  0  0  0  0
    8.8051  -22.3373   16.7065 N   0  0  0  0  0  0  0  0  0  0  0  0
    8.3028  -21.2707   17.5360 C   0  0  0  0  0  0  0  0  0  0  0  0
    9.2199  -20.0725   17.5239 C   0  0  0  0  0  0  0  0  0  0  0  0
    8.7258  -18.9532   18.4060 C   0  0  0  0  0  0  0  0  0  0  0  0
    9.1226  -17.5930   17.8576 C   0  0  2  0  0  0  0  0  0  0  0  0
   10.3776  -17.8167   17.1467 N   0  0  0  0  0  0  0  0  0  0  0  0
    9.4024  -16.6328   18.9496 C   0  0  0  0  0  0  0  0  0  0  0  0
   10.5412  -16.5815   19.4651 O   0  0  0  0  0  0  0  0  0  0  0  0
    9.9768  -24.3812   15.5150 C   0  0  0  0  0  0  0  0  0  0  0  0
    7.5051  -12.9975   19.2757 C   0  0  1  0  0  0  0  0  0  0  0  0
    7.6136  -13.7462   20.5852 C   0  0  0  0  0  0  0  0  0  0  0  0
    7.7796  -12.7715   21.7163 C   0  0  2  0  0  0  0  0  0  0  0  0
    8.6753  -14.8058   20.5291 N   0  0  0  0  0  0  0  0  0  0  0  0
    8.3987  -15.7374   19.4534 C   0  0  0  0  0  0  0  0  0  0  0  0
    8.9167  -15.4851   21.8151 O   0  0  0  0  0  0  0  0  0  0  0  0
    8.1020  -16.3543   22.2160 N   0  0  0  0  0  0  0  0  0  0  0  0
   10.0200  -15.2342   22.6583 C   0  0  1  0  0  0  0  0  0  0  0  0
   10.2665  -16.0538   23.8333 C   0  0  0  0  0  0  0  0  0  0  0  0
   11.6767  -16.1952   24.1871 C   0  0  0  0  0  0  0  0  0  0  0  0
   12.5057  -16.7808   23.0882 C   0  0  0  0  0  0  0  0  0  0  0  0
   13.9378  -16.8745   23.3330 O   0  0  0  0  0  0  0  0  0  0  0  0
   14.6740  -17.4550   22.5007 C   0  0  0  0  0  0  0  0  0  0  0  0
    9.4297  -15.5979   24.9692 O   0  0  0  0  0  0  0  0  0  0  0  0
    8.7988  -14.5245   24.9177 O   0  0  0  0  0  0  0  0  0  0  0  0
   14.5034  -16.3394   24.4651 O   0  0  0  0  0  0  0  0  0  0  0  0
  2  1  1  0
  3  2  2  0
  4  2  1  0
  5  4  1  0
  6  7  1  0
  6  5  1  0
  7  8  1  0
  8 10  1  0
  8  9  1  1
 10 11  2  0
 13 14  1  6
 13 12  1  0
 15 13  1  0
 15 16  1  6
 16 10  1  0
 17 15  1  0
 18 17  2  0
 19 17  1  0
 20 19  1  0
 20 21  1  1
 21 22  1  0
 23 22  1  0
 23 27  1  0
 24 23  2  0
 25 20  1  0
 25 28  1  0
 26 25  2  0
M  END
$$$$
