RVE.pdb
     RDKit          3D

 28 27  0  0  1  0  0  0  0  0999 V2000
    8.5519  -18.8552   17.9597 N   0  0  0  0  0  0  0  0  0  0  0  0
    7.3881  -18.0720   17.7483 C   0  0  0  0  0  0  0  0  0  0  0  0
    6.2401  -18.6589   17.6991 N   0  0  0  0  0  0  0  0  0  0  0  0
    7.4913  -16.6453   17.5911 N   0  0  0  0  0  0  0  0  0  0  0  0
    6.8208  -15.7700   18.5199 C   0  0  0  0  0  0  0  0  0  0  0  0
    7.3449  -15.9375   19.9250 C   0  0  0  0  0  0  0  0  0  0  0  0
    8.2704  -14.8201   20.3373 C   0  0  0  0  0  0  0  0  0  0  0  0
    7.5545  -13.7886   21.1927 C   0  0  2  0  0  0  0  0  0  0  0  0
    7.7338  -12.5194   20.4944 N   0  0  0  0  0  0  0  0  0  0  0  0
    8.1947  -13.6525   22.5210 C   0  0  0  0  0  0  0  0  0  0  0  0
    9.3728  -13.2412   22.6119 O   0  0  0  0  0  0  0  0  0  0  0  0
    5.3302  -18.1651   17.6446 C   0  0  0  0  0  0  0  0  0  0  0  0
    5.9344  -13.6289   26.1785 C   0  0  1  0  0  0  0  0  0  0  0  0
    7.2917  -13.0050   25.9431 C   0  0  0  0  0  0  0  0  0  0  0  0
    7.1259  -11.5850   25.4815 C   0  0  1  0  0  0  0  0  0  0  0  0
    8.1375  -13.8494   25.0349 N   0  0  0  0  0  0  0  0  0  0  0  0
    7.5046  -13.9803   23.7372 C   0  0  0  0  0  0  0  0  0  0  0  0
    8.5222  -15.1518   25.6085 O   0  0  0  0  0  0  0  0  0  0  0  0
    7.7544  -16.1375   25.4708 N   0  0  0  0  0  0  0  0  0  0  0  0
    9.7171  -15.3919   26.3197 C   0  0  1  0  0  0  0  0  0  0  0  0
   10.2565  -16.7358   26.4463 C   0  0  0  0  0  0  0  0  0  0  0  0
   11.4696  -16.9763   25.6688 C   0  0  0  0  0  0  0  0  0  0  0  0
   12.0721  -18.3230   25.9155 C   0  0  0  0  0  0  0  0  0  0  0  0
   13.3340  -18.6037   25.2457 O   0  0  0  0  0  0  0  0  0  0  0  0
   13.7340  -17.8460   24.3306 C   0  0  0  0  0  0  0  0  0  0  0  0
   10.4048  -17.1034   27.8750 O   0  0  0  0  0  0  0  0  0  0  0  0
   10.6745  -18.2707   28.2178 O   0  0  0  0  0  0  0  0  0  0  0  0
   14.0997  -19.6897   25.5953 O   0  0  0  0  0  0  0  0  0  0  0  0
  2  1  1  0
  3  2  2  0
  4  2  1  0
  5  4  1  0
  6  7  1  0
  6  5  1  0
  7  8  1  0
  8 10  1  0
  8  9  1  6
 10 11  2  0
 13 14  1  6
 13 12  1  0
 15 13  1  0
 15 16  1  6
 16 10  1  0
 17 15  1  0
 18 17  2  0
 19 17  1  0
 20 19  1  0
 20 21  1  1
 21 22  1  0
 23 22  1  0
 23 27  1  0
 24 23  2  0
 25 20  1  0
 25 28  1  0
 26 25  2  0
M  END
$$$$
