PPS.pdb
     RDKit          3D

 21 22  0  0  1  0  0  0  0  0999 V2000
   26.3107  -21.3795   -9.1623 N   0  0  0  0  0  0  0  0  0  0  0  0
   25.1570  -20.8342   -9.8288 C   0  0  0  0  0  0  0  0  0  0  0  0
   25.4529  -19.3744   -9.9247 C   0  0  0  0  0  0  0  0  0  0  0  0
   26.1093  -19.1170   -8.5652 C   0  0  0  0  0  0  0  0  0  0  0  0
   26.8788  -20.3971   -8.3007 C   0  0  1  0  0  0  0  0  0  0  0  0
   26.8541  -20.7166   -6.8683 C   0  0  0  0  0  0  0  0  0  0  0  0
   26.0768  -21.6474   -6.4584 O   0  0  0  0  0  0  0  0  0  0  0  0
   27.6349  -20.0678   -5.8759 N   0  0  0  0  0  0  0  0  0  0  0  0
   28.5894  -19.0278   -6.1781 C   0  0  0  0  0  0  0  0  0  0  0  0
   29.1631  -18.5347   -4.8689 C   0  0  0  0  0  0  0  0  0  0  0  0
   28.7923  -19.6367   -3.8682 C   0  0  0  0  0  0  0  0  0  0  0  0
   27.6068  -20.3254   -4.4446 C   0  0  1  0  0  0  0  0  0  0  0  0
   26.3170  -19.9393   -3.8430 C   0  0  0  0  0  0  0  0  0  0  0  0
   25.6894  -18.9853   -4.3705 O   0  0  0  0  0  0  0  0  0  0  0  0
   22.4470  -21.2572   -1.3862 O   0  0  0  0  0  0  0  0  0  0  0  0
   23.6934  -21.6182   -1.8846 C   0  0  0  0  0  0  0  0  0  0  0  0
   24.4241  -20.3284   -2.2318 C   0  0  2  0  0  0  0  0  0  0  0  0
   25.7450  -20.5672   -2.7203 N   0  0  0  0  0  0  0  0  0  0  0  0
   24.5116  -19.5300   -0.9869 C   0  0  0  0  0  0  0  0  0  0  0  0
   25.5506  -19.6358   -0.2882 O   0  0  0  0  0  0  0  0  0  0  0  0
   23.4830  -18.6780   -0.5813 O   0  0  0  0  0  0  0  0  0  0  0  0
  1  2  1  0
  3  2  1  0
  4  5  1  0
  4  3  1  0
  5  1  1  0
  6  8  1  0
  5  6  1  1
  7  6  2  0
  8 12  1  0
  9 10  1  0
  9  8  1  0
 10 11  1  0
 11 12  1  0
 12 13  1  1
 13 14  2  0
 13 18  1  0
 15 16  1  0
 17 19  1  0
 17 16  1  1
 18 17  1  0
 19 21  1  0
 20 19  2  0
M  END
$$$$
