PPS.pdb
     RDKit          3D

 21 22  0  0  1  0  0  0  0  0999 V2000
   28.2303  -20.9247  -15.0758 N   0  0  0  0  0  0  0  0  0  0  0  0
   28.1739  -20.0220  -16.1959 C   0  0  0  0  0  0  0  0  0  0  0  0
   28.2083  -18.6677  -15.5692 C   0  0  0  0  0  0  0  0  0  0  0  0
   27.3187  -18.8883  -14.3423 C   0  0  0  0  0  0  0  0  0  0  0  0
   27.6326  -20.3153  -13.9350 C   0  0  1  0  0  0  0  0  0  0  0  0
   26.4250  -20.9733  -13.4220 C   0  0  0  0  0  0  0  0  0  0  0  0
   25.8579  -21.8671  -14.1417 O   0  0  0  0  0  0  0  0  0  0  0  0
   25.8178  -20.6976  -12.1687 N   0  0  0  0  0  0  0  0  0  0  0  0
   26.3747  -19.7751  -11.2080 C   0  0  0  0  0  0  0  0  0  0  0  0
   25.4159  -19.6901  -10.0419 C   0  0  0  0  0  0  0  0  0  0  0  0
   24.5185  -20.9221  -10.2148 C   0  0  0  0  0  0  0  0  0  0  0  0
   24.5811  -21.2696  -11.6595 C   0  0  1  0  0  0  0  0  0  0  0  0
   23.4119  -20.8388  -12.4481 C   0  0  0  0  0  0  0  0  0  0  0  0
   23.4520  -19.6973  -12.9752 O   0  0  0  0  0  0  0  0  0  0  0  0
   19.9642  -23.0046  -12.4432 O   0  0  0  0  0  0  0  0  0  0  0  0
   20.1624  -22.3805  -13.6694 C   0  0  0  0  0  0  0  0  0  0  0  0
   21.1286  -21.2283  -13.4308 C   0  0  2  0  0  0  0  0  0  0  0  0
   22.2578  -21.6198  -12.6484 N   0  0  0  0  0  0  0  0  0  0  0  0
   20.3810  -20.1786  -12.6999 C   0  0  0  0  0  0  0  0  0  0  0  0
   20.6775  -19.9705  -11.4967 O   0  0  0  0  0  0  0  0  0  0  0  0
   19.3728  -19.4294  -13.3087 O   0  0  0  0  0  0  0  0  0  0  0  0
  1  2  1  0
  3  2  1  0
  4  5  1  0
  4  3  1  0
  5  1  1  0
  6  8  1  0
  5  6  1  6
  7  6  2  0
  8 12  1  0
  9 10  1  0
  9  8  1  0
 10 11  1  0
 11 12  1  0
 12 13  1  6
 13 14  2  0
 13 18  1  0
 15 16  1  0
 17 19  1  0
 17 16  1  1
 18 17  1  0
 19 21  1  0
 20 19  2  0
M  END
$$$$
