PPS.pdb
     RDKit          3D

 21 22  0  0  1  0  0  0  0  0999 V2000
   21.4129  -11.9724  -16.8927 N   0  0  0  0  0  0  0  0  0  0  0  0
   20.1831  -12.4668  -17.4545 C   0  0  0  0  0  0  0  0  0  0  0  0
   20.1787  -11.9248  -18.8452 C   0  0  0  0  0  0  0  0  0  0  0  0
   20.7486  -10.5219  -18.6163 C   0  0  0  0  0  0  0  0  0  0  0  0
   21.7572  -10.7317  -17.5029 C   0  0  1  0  0  0  0  0  0  0  0  0
   21.7757   -9.5672  -16.6097 C   0  0  0  0  0  0  0  0  0  0  0  0
   20.9268   -9.5112  -15.6532 O   0  0  0  0  0  0  0  0  0  0  0  0
   22.6737   -8.4728  -16.7174 N   0  0  0  0  0  0  0  0  0  0  0  0
   23.7558   -8.4310  -17.6720 C   0  0  0  0  0  0  0  0  0  0  0  0
   24.4372   -7.0880  -17.5372 C   0  0  0  0  0  0  0  0  0  0  0  0
   23.9469   -6.5628  -16.1819 C   0  0  0  0  0  0  0  0  0  0  0  0
   22.6569   -7.2556  -15.9213 C   0  0  1  0  0  0  0  0  0  0  0  0
   21.4560   -6.4422  -16.1877 C   0  0  0  0  0  0  0  0  0  0  0  0
   20.8907   -6.5842  -17.3024 O   0  0  0  0  0  0  0  0  0  0  0  0
   17.6878   -3.9550  -14.6932 O   0  0  0  0  0  0  0  0  0  0  0  0
   18.7800   -4.7370  -14.3355 C   0  0  0  0  0  0  0  0  0  0  0  0
   19.7384   -4.7298  -15.5185 C   0  0  2  0  0  0  0  0  0  0  0  0
   20.9034   -5.5206  -15.2782 N   0  0  0  0  0  0  0  0  0  0  0  0
   20.1512   -3.3234  -15.7348 C   0  0  0  0  0  0  0  0  0  0  0  0
   21.3188   -2.9930  -15.4089 O   0  0  0  0  0  0  0  0  0  0  0  0
   19.2860   -2.3752  -16.2833 O   0  0  0  0  0  0  0  0  0  0  0  0
  1  2  1  0
  3  2  1  0
  4  5  1  0
  4  3  1  0
  5  1  1  0
  6  8  1  0
  5  6  1  1
  7  6  2  0
  8 12  1  0
  9 10  1  0
  9  8  1  0
 10 11  1  0
 11 12  1  0
 12 13  1  6
 13 14  2  0
 13 18  1  0
 15 16  1  0
 17 19  1  0
 17 16  1  1
 18 17  1  0
 19 21  1  0
 20 19  2  0
M  END
$$$$
