PPS.pdb
     RDKit          3D

 21 22  0  0  1  0  0  0  0  0999 V2000
   27.9616  -19.5119  -15.4451 N   0  0  0  0  0  0  0  0  0  0  0  0
   27.6599  -18.3842  -16.2876 C   0  0  0  0  0  0  0  0  0  0  0  0
   27.5692  -17.2377  -15.3362 C   0  0  0  0  0  0  0  0  0  0  0  0
   26.8549  -17.8941  -14.1513 C   0  0  0  0  0  0  0  0  0  0  0  0
   27.4083  -19.3064  -14.1483 C   0  0  1  0  0  0  0  0  0  0  0  0
   26.3669  -20.2580  -13.7430 C   0  0  0  0  0  0  0  0  0  0  0  0
   25.8378  -21.0084  -14.6349 O   0  0  0  0  0  0  0  0  0  0  0  0
   25.8846  -20.4215  -12.4178 N   0  0  0  0  0  0  0  0  0  0  0  0
   26.4375  -19.7185  -11.2845 C   0  0  0  0  0  0  0  0  0  0  0  0
   25.6212  -20.0922  -10.0679 C   0  0  0  0  0  0  0  0  0  0  0  0
   24.8636  -21.3515  -10.5076 C   0  0  0  0  0  0  0  0  0  0  0  0
   24.7949  -21.2857  -11.9918 C   0  0  1  0  0  0  0  0  0  0  0  0
   23.4969  -20.8374  -12.5292 C   0  0  0  0  0  0  0  0  0  0  0  0
   23.3187  -19.5998  -12.6672 O   0  0  0  0  0  0  0  0  0  0  0  0
   21.6357  -22.5682  -15.3729 O   0  0  0  0  0  0  0  0  0  0  0  0
   20.6406  -22.3105  -14.4371 C   0  0  0  0  0  0  0  0  0  0  0  0
   21.2032  -21.2869  -13.4605 C   0  0  2  0  0  0  0  0  0  0  0  0
   22.4483  -21.7018  -12.8965 N   0  0  0  0  0  0  0  0  0  0  0  0
   20.2113  -21.1353  -12.3705 C   0  0  0  0  0  0  0  0  0  0  0  0
   20.5200  -21.5554  -11.2273 O   0  0  0  0  0  0  0  0  0  0  0  0
   18.9638  -20.5462  -12.5831 O   0  0  0  0  0  0  0  0  0  0  0  0
  1  2  1  0
  3  2  1  0
  4  5  1  0
  4  3  1  0
  5  1  1  0
  6  8  1  0
  5  6  1  6
  7  6  2  0
  8 12  1  0
  9 10  1  0
  9  8  1  0
 10 11  1  0
 11 12  1  0
 12 13  1  1
 13 14  2  0
 13 18  1  0
 15 16  1  0
 17 19  1  0
 17 16  1  6
 18 17  1  0
 19 21  1  0
 20 19  2  0
M  END
$$$$
