PPS.pdb
     RDKit          3D

 21 22  0  0  1  0  0  0  0  0999 V2000
   18.8727  -10.3063  -18.1097 N   0  0  0  0  0  0  0  0  0  0  0  0
   18.6290   -9.4164  -19.2148 C   0  0  0  0  0  0  0  0  0  0  0  0
   19.9376   -9.3644  -19.9308 C   0  0  0  0  0  0  0  0  0  0  0  0
   20.9169   -9.3457  -18.7536 C   0  0  0  0  0  0  0  0  0  0  0  0
   20.2421  -10.2316  -17.7236 C   0  0  1  0  0  0  0  0  0  0  0  0
   20.4947   -9.7197  -16.3714 C   0  0  0  0  0  0  0  0  0  0  0  0
   19.5561   -9.0965  -15.7637 O   0  0  0  0  0  0  0  0  0  0  0  0
   21.7174   -9.8587  -15.6634 N   0  0  0  0  0  0  0  0  0  0  0  0
   22.8792  -10.5136  -16.2162 C   0  0  0  0  0  0  0  0  0  0  0  0
   23.9975  -10.3981  -15.2052 C   0  0  0  0  0  0  0  0  0  0  0  0
   23.2777  -10.0209  -13.9041 C   0  0  0  0  0  0  0  0  0  0  0  0
   21.9997   -9.3829  -14.3182 C   0  0  1  0  0  0  0  0  0  0  0  0
   21.9942   -7.9100  -14.2448 C   0  0  0  0  0  0  0  0  0  0  0  0
   22.0667   -7.3824  -13.1052 O   0  0  0  0  0  0  0  0  0  0  0  0
   21.4464   -5.5186  -17.5721 O   0  0  0  0  0  0  0  0  0  0  0  0
   22.4626   -5.0946  -16.7236 C   0  0  0  0  0  0  0  0  0  0  0  0
   22.1487   -5.6508  -15.3415 C   0  0  2  0  0  0  0  0  0  0  0  0
   21.9134   -7.0596  -15.3638 N   0  0  0  0  0  0  0  0  0  0  0  0
   20.9223   -4.9685  -14.8667 C   0  0  0  0  0  0  0  0  0  0  0  0
   20.9878   -3.7382  -14.6202 O   0  0  0  0  0  0  0  0  0  0  0  0
   19.7175   -5.6513  -14.6910 O   0  0  0  0  0  0  0  0  0  0  0  0
  1  2  1  0
  3  2  1  0
  4  5  1  0
  4  3  1  0
  5  1  1  0
  6  8  1  0
  5  6  1  1
  7  6  2  0
  8 12  1  0
  9 10  1  0
  9  8  1  0
 10 11  1  0
 11 12  1  0
 12 13  1  6
 13 14  2  0
 13 18  1  0
 15 16  1  0
 17 19  1  0
 17 16  1  6
 18 17  1  0
 19 21  1  0
 20 19  2  0
M  END
$$$$
