PPS.pdb
     RDKit          3D

 21 22  0  0  1  0  0  0  0  0999 V2000
   17.5271  -16.0946    2.6322 N   0  0  0  0  0  0  0  0  0  0  0  0
   16.6520  -15.0555    3.1086 C   0  0  0  0  0  0  0  0  0  0  0  0
   17.5405  -14.1879    3.9368 C   0  0  0  0  0  0  0  0  0  0  0  0
   18.4127  -15.2376    4.6315 C   0  0  0  0  0  0  0  0  0  0  0  0
   18.5730  -16.3138    3.5746 C   0  0  1  0  0  0  0  0  0  0  0  0
   18.5963  -17.6406    4.2017 C   0  0  0  0  0  0  0  0  0  0  0  0
   17.6003  -18.4243    4.0217 O   0  0  0  0  0  0  0  0  0  0  0  0
   19.6514  -18.1411    5.0091 N   0  0  0  0  0  0  0  0  0  0  0  0
   20.8445  -17.3846    5.3062 C   0  0  0  0  0  0  0  0  0  0  0  0
   21.6919  -18.2116    6.2466 C   0  0  0  0  0  0  0  0  0  0  0  0
   21.1093  -19.6248    6.1178 C   0  0  0  0  0  0  0  0  0  0  0  0
   19.7086  -19.4449    5.6514 C   0  0  1  0  0  0  0  0  0  0  0  0
   18.6860  -19.5828    6.7049 C   0  0  0  0  0  0  0  0  0  0  0  0
   18.3286  -18.5401    7.3112 O   0  0  0  0  0  0  0  0  0  0  0  0
   16.7438  -23.1289    7.2866 O   0  0  0  0  0  0  0  0  0  0  0  0
   16.0432  -22.0029    7.7033 C   0  0  0  0  0  0  0  0  0  0  0  0
   17.0768  -20.9484    8.0746 C   0  0  2  0  0  0  0  0  0  0  0  0
   18.0860  -20.8015    7.0744 N   0  0  0  0  0  0  0  0  0  0  0  0
   17.7148  -21.3906    9.3365 C   0  0  0  0  0  0  0  0  0  0  0  0
   18.9343  -21.6920    9.3087 O   0  0  0  0  0  0  0  0  0  0  0  0
   17.0026  -21.4776   10.5339 O   0  0  0  0  0  0  0  0  0  0  0  0
  1  2  1  0
  3  2  1  0
  4  5  1  0
  4  3  1  0
  5  1  1  0
  6  8  1  0
  5  6  1  1
  7  6  2  0
  8 12  1  0
  9 10  1  0
  9  8  1  0
 10 11  1  0
 11 12  1  0
 12 13  1  1
 13 14  2  0
 13 18  1  0
 15 16  1  0
 17 19  1  0
 17 16  1  6
 18 17  1  0
 19 21  1  0
 20 19  2  0
M  END
$$$$
