RVL.pdb
     RDKit          3D

 27 26  0  0  1  0  0  0  0  0999 V2000
   18.6780  -24.9961   -6.9357 N   0  0  0  0  0  0  0  0  0  0  0  0
   17.3257  -24.8952   -7.4868 C   0  0  0  0  0  0  0  0  0  0  0  0
   16.4295  -25.6964   -7.0945 N   0  0  0  0  0  0  0  0  0  0  0  0
   17.0205  -23.9034   -8.4386 N   0  0  0  0  0  0  0  0  0  0  0  0
   17.9207  -23.1804   -9.2374 C   0  0  0  0  0  0  0  0  0  0  0  0
   19.2914  -23.6683   -9.4675 C   0  0  0  0  0  0  0  0  0  0  0  0
   19.7677  -23.3462  -10.8558 C   0  0  0  0  0  0  0  0  0  0  0  0
   19.9323  -21.9079  -11.2090 C   0  0  2  0  0  0  0  0  0  0  0  0
   18.6794  -21.3272  -11.6798 N   0  0  0  0  0  0  0  0  0  0  0  0
   20.8544  -21.8289  -12.3894 C   0  0  0  0  0  0  0  0  0  0  0  0
   21.6354  -22.7948  -12.6273 O   0  0  0  0  0  0  0  0  0  0  0  0
   15.4705  -25.7246   -7.3756 C   0  0  0  0  0  0  0  0  0  0  0  0
   20.4260  -18.5810  -15.0457 C   0  0  1  0  0  0  0  0  0  0  0  0
   21.0677  -19.8562  -15.5179 C   0  0  0  0  0  0  0  0  0  0  0  0
   21.9536  -19.6796  -16.7028 C   0  0  1  0  0  0  0  0  0  0  0  0
   21.7502  -20.5847  -14.3771 N   0  0  0  0  0  0  0  0  0  0  0  0
   20.8692  -20.7045  -13.2376 C   0  0  0  0  0  0  0  0  0  0  0  0
   23.0111  -19.8459  -13.9909 O   0  0  0  0  0  0  0  0  0  0  0  0
   22.9451  -18.7280  -13.4239 C   0  0  0  0  0  0  0  0  0  0  0  0
   26.9128  -22.0354  -11.1583 C   0  0  1  0  0  0  0  0  0  0  0  0
   25.8234  -21.0426  -11.6896 C   0  0  0  0  0  0  0  0  0  0  0  0
   25.5872  -20.1476  -10.5617 C   0  0  0  0  0  0  0  0  0  0  0  0
   26.2743  -20.6080  -12.9912 C   0  0  2  0  0  0  0  0  0  0  0  0
   25.5571  -19.7309  -13.9049 N   0  0  0  0  0  0  0  0  0  0  0  0
   24.2766  -20.4016  -14.2612 C   0  0  0  0  0  0  0  0  0  0  0  0
   26.2464  -19.3319  -15.1442 O   0  0  0  0  0  0  0  0  0  0  0  0
   27.2850  -18.4439  -15.2144 O   0  0  0  0  0  0  0  0  0  0  0  0
  1  2  1  0
  2  3  2  0
  4  2  1  0
  5  4  1  0
  6  5  1  0
  7  6  1  0
  8 10  1  0
  8  7  1  0
  8  9  1  6
 10 11  2  0
 10 16  1  0
 13 12  1  6
 13 14  1  0
 15 13  1  0
 15 16  1  6
 17 18  2  0
 17 15  1  0
 20 22  1  0
 20 19  1  1
 21 20  1  0
 23 22  1  1
 23 24  1  0
 24 17  1  0
 25 23  1  0
 26 25  1  0
 27 25  2  0
M  END
$$$$
