RVL.pdb
     RDKit          3D

 27 26  0  0  1  0  0  0  0  0999 V2000
   20.3297  -22.3416  -12.4119 N   0  0  0  0  0  0  0  0  0  0  0  0
   19.1479  -22.3289  -13.2756 C   0  0  0  0  0  0  0  0  0  0  0  0
   18.3023  -23.2652  -13.1917 N   0  0  0  0  0  0  0  0  0  0  0  0
   18.9468  -21.2733  -14.1857 N   0  0  0  0  0  0  0  0  0  0  0  0
   19.8090  -20.1972  -14.4495 C   0  0  0  0  0  0  0  0  0  0  0  0
   20.9780  -20.3602  -15.3310 C   0  0  0  0  0  0  0  0  0  0  0  0
   22.2647  -20.1159  -14.5945 C   0  0  0  0  0  0  0  0  0  0  0  0
   23.5275  -20.5518  -15.2547 C   0  0  2  0  0  0  0  0  0  0  0  0
   23.2927  -21.6560  -16.1791 N   0  0  0  0  0  0  0  0  0  0  0  0
   24.4227  -21.1260  -14.1971 C   0  0  0  0  0  0  0  0  0  0  0  0
   24.1026  -22.2176  -13.6445 O   0  0  0  0  0  0  0  0  0  0  0  0
   17.4314  -23.3461  -13.6759 C   0  0  0  0  0  0  0  0  0  0  0  0
   28.7722  -21.2600  -11.9060 C   0  0  2  0  0  0  0  0  0  0  0  0
   27.9073  -20.8236  -13.0560 C   0  0  0  0  0  0  0  0  0  0  0  0
   28.2464  -21.4853  -14.3472 C   0  0  1  0  0  0  0  0  0  0  0  0
   26.4354  -20.9302  -12.7097 N   0  0  0  0  0  0  0  0  0  0  0  0
   25.6105  -20.4774  -13.8068 C   0  0  0  0  0  0  0  0  0  0  0  0
   26.1505  -20.1170  -11.4677 O   0  0  0  0  0  0  0  0  0  0  0  0
   25.2563  -19.2361  -11.4753 C   0  0  0  0  0  0  0  0  0  0  0  0
   22.7478  -21.2001   -8.4151 C   0  0  1  0  0  0  0  0  0  0  0  0
   23.8793  -20.1395   -8.1930 C   0  0  0  0  0  0  0  0  0  0  0  0
   23.7531  -19.7845   -6.7834 C   0  0  0  0  0  0  0  0  0  0  0  0
   25.0734  -20.6933   -8.7876 C   0  0  2  0  0  0  0  0  0  0  0  0
   26.3584  -20.0240   -8.9279 N   0  0  0  0  0  0  0  0  0  0  0  0
   26.8834  -20.3369  -10.2854 C   0  0  0  0  0  0  0  0  0  0  0  0
   27.3982  -20.3355   -7.9320 O   0  0  0  0  0  0  0  0  0  0  0  0
   27.6405  -19.6115   -6.7965 O   0  0  0  0  0  0  0  0  0  0  0  0
  1  2  1  0
  2  3  2  0
  4  2  1  0
  5  4  1  0
  6  5  1  0
  7  6  1  0
  8 10  1  0
  8  7  1  0
  8  9  1  6
 10 11  2  0
 10 16  1  0
 13 12  1  6
 13 14  1  0
 15 13  1  0
 15 16  1  6
 17 18  2  0
 17 15  1  0
 20 22  1  0
 20 19  1  6
 21 20  1  0
 23 22  1  6
 23 24  1  0
 24 17  1  0
 25 23  1  0
 26 25  1  0
 27 25  2  0
M  END
$$$$
