RVL.pdb
     RDKit          3D

 27 26  0  0  1  0  0  0  0  0999 V2000
   31.8753  -25.1681  -15.3534 N   0  0  0  0  0  0  0  0  0  0  0  0
   31.7206  -25.0216  -16.8016 C   0  0  0  0  0  0  0  0  0  0  0  0
   32.0241  -25.9842  -17.5632 N   0  0  0  0  0  0  0  0  0  0  0  0
   31.2242  -23.8203  -17.3432 N   0  0  0  0  0  0  0  0  0  0  0  0
   30.2915  -22.9441  -16.7656 C   0  0  0  0  0  0  0  0  0  0  0  0
   30.3886  -22.5607  -15.3466 C   0  0  0  0  0  0  0  0  0  0  0  0
   29.3817  -21.5044  -14.9886 C   0  0  0  0  0  0  0  0  0  0  0  0
   27.9607  -21.7559  -15.3606 C   0  0  2  0  0  0  0  0  0  0  0  0
   27.6524  -21.2210  -16.6826 N   0  0  0  0  0  0  0  0  0  0  0  0
   27.0954  -20.9691  -14.4215 C   0  0  0  0  0  0  0  0  0  0  0  0
   27.0324  -19.7123  -14.5480 O   0  0  0  0  0  0  0  0  0  0  0  0
   32.0023  -26.0020  -18.5626 C   0  0  0  0  0  0  0  0  0  0  0  0
   23.1704  -20.3414  -11.8172 C   0  0  2  0  0  0  0  0  0  0  0  0
   24.0485  -21.0498  -12.8112 C   0  0  0  0  0  0  0  0  0  0  0  0
   23.7393  -20.7166  -14.2301 C   0  0  1  0  0  0  0  0  0  0  0  0
   25.5158  -20.8753  -12.4727 N   0  0  0  0  0  0  0  0  0  0  0  0
   26.3522  -21.5983  -13.4038 C   0  0  0  0  0  0  0  0  0  0  0  0
   25.7668  -21.3530  -11.0608 O   0  0  0  0  0  0  0  0  0  0  0  0
   25.5437  -22.5470  -10.7440 C   0  0  0  0  0  0  0  0  0  0  0  0
   28.7134  -20.4012   -6.3413 C   0  0  2  0  0  0  0  0  0  0  0  0
   27.3571  -19.6478   -6.5587 C   0  0  0  0  0  0  0  0  0  0  0  0
   27.5355  -18.3927   -5.8363 C   0  0  0  0  0  0  0  0  0  0  0  0
   27.0673  -19.7384   -7.9708 C   0  0  1  0  0  0  0  0  0  0  0  0
   26.3430  -20.8113   -8.6365 N   0  0  0  0  0  0  0  0  0  0  0  0
   26.2548  -20.4659  -10.0819 C   0  0  0  0  0  0  0  0  0  0  0  0
   24.9930  -21.1289   -8.1397 O   0  0  0  0  0  0  0  0  0  0  0  0
   24.6757  -22.2105   -7.3641 O   0  0  0  0  0  0  0  0  0  0  0  0
  1  2  1  0
  2  3  2  0
  4  2  1  0
  5  4  1  0
  6  5  1  0
  7  6  1  0
  8 10  1  0
  8  7  1  0
  8  9  1  6
 10 11  2  0
 10 16  1  0
 13 12  1  6
 13 14  1  0
 15 13  1  0
 15 16  1  1
 17 18  2  0
 17 15  1  0
 20 22  1  0
 20 19  1  1
 21 20  1  0
 23 22  1  6
 23 24  1  0
 24 17  1  0
 25 23  1  0
 26 25  1  0
 27 25  2  0
M  END
$$$$
