RVL.pdb
     RDKit          3D

 27 26  0  0  1  0  0  0  0  0999 V2000
   29.8335  -21.0012  -21.0493 N   0  0  0  0  0  0  0  0  0  0  0  0
   29.3150  -19.6657  -21.3498 C   0  0  0  0  0  0  0  0  0  0  0  0
   29.4762  -19.1780  -22.5053 N   0  0  0  0  0  0  0  0  0  0  0  0
   28.6289  -18.9332  -20.3621 N   0  0  0  0  0  0  0  0  0  0  0  0
   28.2189  -19.3819  -19.0966 C   0  0  0  0  0  0  0  0  0  0  0  0
   26.9860  -20.1718  -18.9345 C   0  0  0  0  0  0  0  0  0  0  0  0
   26.7261  -20.5022  -17.4919 C   0  0  0  0  0  0  0  0  0  0  0  0
   27.8852  -20.9533  -16.6710 C   0  0  2  0  0  0  0  0  0  0  0  0
   28.5272  -22.1268  -17.2537 N   0  0  0  0  0  0  0  0  0  0  0  0
   27.3544  -21.4273  -15.3507 C   0  0  0  0  0  0  0  0  0  0  0  0
   26.9180  -22.6101  -15.2505 O   0  0  0  0  0  0  0  0  0  0  0  0
   29.2277  -18.2627  -22.8215 C   0  0  0  0  0  0  0  0  0  0  0  0
   29.0530  -21.6991  -12.1171 C   0  0  2  0  0  0  0  0  0  0  0  0
   27.8489  -20.8392  -11.8496 C   0  0  0  0  0  0  0  0  0  0  0  0
   28.1796  -19.4140  -11.5674 C   0  0  2  0  0  0  0  0  0  0  0  0
   26.8067  -20.9962  -12.9391 N   0  0  0  0  0  0  0  0  0  0  0  0
   27.3317  -20.5856  -14.2217 C   0  0  0  0  0  0  0  0  0  0  0  0
   25.5835  -20.1811  -12.5867 O   0  0  0  0  0  0  0  0  0  0  0  0
   25.4962  -18.9797  -12.9396 C   0  0  0  0  0  0  0  0  0  0  0  0
   21.9974  -18.7696  -15.0303 C   0  0  2  0  0  0  0  0  0  0  0  0
   21.6251  -20.0225  -14.1666 C   0  0  0  0  0  0  0  0  0  0  0  0
   20.8677  -20.8667  -15.0845 C   0  0  0  0  0  0  0  0  0  0  0  0
   22.8415  -20.4308  -13.5032 C   0  0  1  0  0  0  0  0  0  0  0  0
   23.0959  -20.3994  -12.0703 N   0  0  0  0  0  0  0  0  0  0  0  0
   24.5251  -20.7583  -11.8587 C   0  0  0  0  0  0  0  0  0  0  0  0
   22.2580  -21.2558  -11.2133 O   0  0  0  0  0  0  0  0  0  0  0  0
   21.1234  -20.8491  -10.5658 O   0  0  0  0  0  0  0  0  0  0  0  0
  1  2  1  0
  2  3  2  0
  4  2  1  0
  5  4  1  0
  6  5  1  0
  7  6  1  0
  8 10  1  0
  8  7  1  0
  8  9  1  6
 10 11  2  0
 10 16  1  0
 13 12  1  1
 13 14  1  0
 15 13  1  0
 15 16  1  1
 17 18  2  0
 17 15  1  0
 20 22  1  0
 20 19  1  1
 21 20  1  0
 23 22  1  6
 23 24  1  0
 24 17  1  0
 25 23  1  0
 26 25  1  0
 27 25  2  0
M  END
$$$$
