RVL.pdb
     RDKit          3D

 27 26  0  0  1  0  0  0  0  0999 V2000
   28.1660  -29.0887  -18.4277 N   0  0  0  0  0  0  0  0  0  0  0  0
   27.8970  -29.0928  -16.9888 C   0  0  0  0  0  0  0  0  0  0  0  0
   28.3893  -30.0040  -16.2635 N   0  0  0  0  0  0  0  0  0  0  0  0
   27.1056  -28.0803  -16.4131 N   0  0  0  0  0  0  0  0  0  0  0  0
   26.4347  -27.0401  -17.0757 C   0  0  0  0  0  0  0  0  0  0  0  0
   27.1782  -25.9189  -17.6757 C   0  0  0  0  0  0  0  0  0  0  0  0
   27.6159  -24.9259  -16.6365 C   0  0  0  0  0  0  0  0  0  0  0  0
   28.4489  -23.7772  -17.0917 C   0  0  2  0  0  0  0  0  0  0  0  0
   29.8640  -24.1296  -17.1382 N   0  0  0  0  0  0  0  0  0  0  0  0
   28.3591  -22.7041  -16.0477 C   0  0  0  0  0  0  0  0  0  0  0  0
   29.1907  -22.6998  -15.0950 O   0  0  0  0  0  0  0  0  0  0  0  0
   28.2985  -30.1121  -15.2738 C   0  0  0  0  0  0  0  0  0  0  0  0
   26.6829  -18.2015  -14.9132 C   0  0  2  0  0  0  0  0  0  0  0  0
   27.0241  -19.2960  -15.8862 C   0  0  0  0  0  0  0  0  0  0  0  0
   28.0954  -18.9269  -16.8536 C   0  0  1  0  0  0  0  0  0  0  0  0
   27.3035  -20.6025  -15.1700 N   0  0  0  0  0  0  0  0  0  0  0  0
   27.3706  -21.7024  -16.1053 C   0  0  0  0  0  0  0  0  0  0  0  0
   26.2249  -20.8528  -14.1409 O   0  0  0  0  0  0  0  0  0  0  0  0
   25.0646  -21.1699  -14.4997 C   0  0  0  0  0  0  0  0  0  0  0  0
   25.1113  -21.6122   -8.6169 C   0  0  2  0  0  0  0  0  0  0  0  0
   25.3876  -20.1845   -9.1997 C   0  0  0  0  0  0  0  0  0  0  0  0
   25.9483  -19.4493   -8.0709 C   0  0  0  0  0  0  0  0  0  0  0  0
   26.0696  -20.3871  -10.4567 C   0  0  1  0  0  0  0  0  0  0  0  0
   25.4644  -20.8216  -11.7072 N   0  0  0  0  0  0  0  0  0  0  0  0
   26.5070  -20.7346  -12.7663 C   0  0  0  0  0  0  0  0  0  0  0  0
   24.2610  -20.1051  -12.1638 O   0  0  0  0  0  0  0  0  0  0  0  0
   23.0024  -20.6389  -12.2188 O   0  0  0  0  0  0  0  0  0  0  0  0
  1  2  1  0
  2  3  2  0
  4  2  1  0
  5  4  1  0
  6  5  1  0
  7  6  1  0
  8 10  1  0
  8  7  1  0
  8  9  1  1
 10 11  2  0
 10 16  1  0
 13 12  1  6
 13 14  1  0
 15 13  1  0
 15 16  1  6
 17 18  2  0
 17 15  1  0
 20 22  1  0
 20 19  1  1
 21 20  1  0
 23 22  1  1
 23 24  1  0
 24 17  1  0
 25 23  1  0
 26 25  1  0
 27 25  2  0
M  END
$$$$
