GRF.pdb
     RDKit          3D

 27 27  0  0  1  0  0  0  0  0999 V2000
   24.3913  -23.9078  -14.9877 N   0  0  0  0  0  0  0  0  0  0  0  0
   24.2385  -22.6140  -14.4042 C   0  0  0  0  0  0  0  0  0  0  0  0
   25.3684  -22.2866  -13.4695 C   0  0  0  0  0  0  0  0  0  0  0  0
   25.9552  -23.2071  -12.8900 O   0  0  0  0  0  0  0  0  0  0  0  0
   26.1000  -19.8931  -15.9863 N   0  0  0  0  0  0  0  0  0  0  0  0
   26.6194  -18.7470  -16.6602 C   0  0  0  0  0  0  0  0  0  0  0  0
   26.4862  -18.6049  -17.9401 N   0  0  0  0  0  0  0  0  0  0  0  0
   27.2987  -17.7272  -15.9465 N   0  0  0  0  0  0  0  0  0  0  0  0
   27.9809  -18.0487  -14.6739 C   0  0  0  0  0  0  0  0  0  0  0  0
   26.9934  -18.4400  -13.6401 C   0  0  0  0  0  0  0  0  0  0  0  0
   27.4347  -19.2544  -12.4984 C   0  0  0  0  0  0  0  0  0  0  0  0
   26.7354  -20.5623  -12.2638 C   0  0  2  0  0  0  0  0  0  0  0  0
   25.7687  -20.9446  -13.2441 N   0  0  0  0  0  0  0  0  0  0  0  0
   26.2665  -20.6611  -10.8721 C   0  0  0  0  0  0  0  0  0  0  0  0
   25.3551  -19.9088  -10.4783 O   0  0  0  0  0  0  0  0  0  0  0  0
   26.9953  -17.8216  -18.4043 N   0  0  0  0  0  0  0  0  0  0  0  0
   26.8444  -21.5993   -9.9949 C   0  0  2  0  0  0  0  0  0  0  0  0
   26.9324  -21.3262   -8.5542 C   0  0  0  0  0  0  0  0  0  0  0  0
   28.1573  -20.4821   -8.2642 C   0  0  0  0  0  0  0  0  0  0  0  0
   28.2679  -20.0715   -6.8525 C   0  0  0  0  0  0  0  0  0  0  0  0
   27.6768  -18.9232   -6.3568 C   0  0  0  0  0  0  0  0  0  0  0  0
   27.7847  -18.5678   -5.0525 C   0  0  0  0  0  0  0  0  0  0  0  0
   28.5037  -19.3760   -4.2013 C   0  0  0  0  0  0  0  0  0  0  0  0
   29.1026  -20.5308   -4.6813 C   0  0  0  0  0  0  0  0  0  0  0  0
   28.9887  -20.8827   -6.0005 C   0  0  0  0  0  0  0  0  0  0  0  0
   25.6786  -20.6938   -8.1240 O   0  0  0  0  0  0  0  0  0  0  0  0
   25.2403  -19.6392   -8.7000 O   0  0  0  0  0  0  0  0  0  0  0  0
  2  1  1  0
  3  2  1  0
  3 13  1  0
  4  3  2  0
  5  6  1  0
  6  8  1  0
  6  7  2  0
  8  9  1  0
  9 10  1  0
 12 11  1  6
 11 10  1  0
 13 12  1  0
 14 15  2  0
 14 12  1  0
 16 14  1  0
 17 16  1  0
 17 25  1  0
 17 18  1  6
 19 18  1  0
 20 19  2  0
 21 20  1  0
 22 23  1  0
 22 21  2  0
 23 24  2  0
 24 19  1  0
 25 26  2  0
 25 27  1  0
M  END
$$$$
