GRF.pdb
     RDKit          3D

 27 27  0  0  1  0  0  0  0  0999 V2000
   27.6469  -15.9605  -19.4068 N   0  0  0  0  0  0  0  0  0  0  0  0
   27.1181  -15.7017  -18.1065 C   0  0  0  0  0  0  0  0  0  0  0  0
   26.1939  -16.7958  -17.6521 C   0  0  0  0  0  0  0  0  0  0  0  0
   25.3866  -17.2735  -18.4568 O   0  0  0  0  0  0  0  0  0  0  0  0
   23.6324  -23.1143  -13.7207 N   0  0  0  0  0  0  0  0  0  0  0  0
   25.0495  -23.1069  -13.8917 C   0  0  0  0  0  0  0  0  0  0  0  0
   25.6547  -24.0709  -14.5086 N   0  0  0  0  0  0  0  0  0  0  0  0
   25.8389  -22.0413  -13.3897 N   0  0  0  0  0  0  0  0  0  0  0  0
   25.1844  -20.8131  -12.8884 C   0  0  0  0  0  0  0  0  0  0  0  0
   24.7593  -19.9533  -14.0185 C   0  0  0  0  0  0  0  0  0  0  0  0
   25.7178  -18.9979  -14.5930 C   0  0  0  0  0  0  0  0  0  0  0  0
   25.2767  -18.2007  -15.7865 C   0  0  2  0  0  0  0  0  0  0  0  0
   26.2344  -17.2849  -16.3213 N   0  0  0  0  0  0  0  0  0  0  0  0
   23.9395  -17.6267  -15.5655 C   0  0  0  0  0  0  0  0  0  0  0  0
   23.7711  -16.8034  -14.6459 O   0  0  0  0  0  0  0  0  0  0  0  0
   26.6796  -23.9792  -14.6798 N   0  0  0  0  0  0  0  0  0  0  0  0
   22.8611  -18.0060  -16.3882 C   0  0  1  0  0  0  0  0  0  0  0  0
   21.5418  -17.3786  -16.2346 C   0  0  0  0  0  0  0  0  0  0  0  0
   21.3339  -16.3442  -17.3226 C   0  0  0  0  0  0  0  0  0  0  0  0
   19.9580  -15.8174  -17.3782 C   0  0  0  0  0  0  0  0  0  0  0  0
   18.9990  -16.3144  -18.2425 C   0  0  0  0  0  0  0  0  0  0  0  0
   17.7364  -15.8202  -18.2720 C   0  0  0  0  0  0  0  0  0  0  0  0
   17.4043  -14.7949  -17.4157 C   0  0  0  0  0  0  0  0  0  0  0  0
   18.3532  -14.2849  -16.5427 C   0  0  0  0  0  0  0  0  0  0  0  0
   19.6267  -14.7900  -16.5191 C   0  0  0  0  0  0  0  0  0  0  0  0
   20.5218  -18.4351  -16.2380 O   0  0  0  0  0  0  0  0  0  0  0  0
   19.4151  -18.2855  -15.6145 O   0  0  0  0  0  0  0  0  0  0  0  0
  2  1  1  0
  3  2  1  0
  3 13  1  0
  4  3  2  0
  5  6  1  0
  6  8  1  0
  6  7  2  0
  8  9  1  0
  9 10  1  0
 12 11  1  1
 11 10  1  0
 13 12  1  0
 14 15  2  0
 14 12  1  0
 16 14  1  0
 17 16  1  0
 17 25  1  0
 17 18  1  6
 19 18  1  0
 20 19  2  0
 21 20  1  0
 22 23  1  0
 22 21  2  0
 23 24  2  0
 24 19  1  0
 25 26  2  0
 25 27  1  0
M  END
$$$$
