GRF.pdb
     RDKit          3D

 27 27  0  0  1  0  0  0  0  0999 V2000
   27.9091  -22.9646  -17.1752 N   0  0  0  0  0  0  0  0  0  0  0  0
   27.8371  -21.7161  -16.4870 C   0  0  0  0  0  0  0  0  0  0  0  0
   26.6484  -21.6522  -15.5702 C   0  0  0  0  0  0  0  0  0  0  0  0
   25.6379  -22.3068  -15.8495 O   0  0  0  0  0  0  0  0  0  0  0  0
   24.4609  -19.4890   -8.7597 N   0  0  0  0  0  0  0  0  0  0  0  0
   24.6730  -20.8473   -8.3758 C   0  0  0  0  0  0  0  0  0  0  0  0
   23.8656  -21.4468   -7.5603 N   0  0  0  0  0  0  0  0  0  0  0  0
   25.7770  -21.5827   -8.8768 N   0  0  0  0  0  0  0  0  0  0  0  0
   26.7196  -20.9437   -9.8209 C   0  0  0  0  0  0  0  0  0  0  0  0
   26.3853  -21.3121  -11.2172 C   0  0  0  0  0  0  0  0  0  0  0  0
   25.8441  -20.2855  -12.1200 C   0  0  0  0  0  0  0  0  0  0  0  0
   25.5419  -20.6903  -13.5340 C   0  0  2  0  0  0  0  0  0  0  0  0
   26.6691  -20.8561  -14.3964 N   0  0  0  0  0  0  0  0  0  0  0  0
   24.4606  -19.8634  -14.0938 C   0  0  0  0  0  0  0  0  0  0  0  0
   24.7389  -18.7767  -14.6355 O   0  0  0  0  0  0  0  0  0  0  0  0
   24.0887  -22.4256   -7.2771 N   0  0  0  0  0  0  0  0  0  0  0  0
   23.1235  -20.2992  -14.0171 C   0  0  2  0  0  0  0  0  0  0  0  0
   22.1381  -19.8813  -15.0231 C   0  0  0  0  0  0  0  0  0  0  0  0
   22.6210  -20.2653  -16.4074 C   0  0  0  0  0  0  0  0  0  0  0  0
   21.6588  -19.9421  -17.4767 C   0  0  0  0  0  0  0  0  0  0  0  0
   21.8607  -20.2947  -18.7991 C   0  0  0  0  0  0  0  0  0  0  0  0
   20.9588  -19.9941  -19.7663 C   0  0  0  0  0  0  0  0  0  0  0  0
   19.8112  -19.3189  -19.4173 C   0  0  0  0  0  0  0  0  0  0  0  0
   19.5927  -18.9579  -18.0965 C   0  0  0  0  0  0  0  0  0  0  0  0
   20.5089  -19.2655  -17.1254 C   0  0  0  0  0  0  0  0  0  0  0  0
   20.8405  -20.4759  -14.6772 O   0  0  0  0  0  0  0  0  0  0  0  0
   20.7171  -21.7378  -14.5089 O   0  0  0  0  0  0  0  0  0  0  0  0
  2  1  1  0
  3  2  1  0
  3 13  1  0
  4  3  2  0
  5  6  1  0
  6  8  1  0
  6  7  2  0
  8  9  1  0
  9 10  1  0
 12 11  1  1
 11 10  1  0
 13 12  1  0
 14 15  2  0
 14 12  1  0
 16 14  1  0
 17 16  1  0
 17 25  1  0
 17 18  1  6
 19 18  1  0
 20 19  2  0
 21 20  1  0
 22 23  1  0
 22 21  2  0
 23 24  2  0
 24 19  1  0
 25 26  2  0
 25 27  1  0
M  END
$$$$
