GRF.pdb
     RDKit          3D

 27 27  0  0  1  0  0  0  0  0999 V2000
   25.3113  -14.8825  -15.8506 N   0  0  0  0  0  0  0  0  0  0  0  0
   26.1654  -15.6082  -14.9667 C   0  0  0  0  0  0  0  0  0  0  0  0
   26.0582  -17.0916  -15.1799 C   0  0  0  0  0  0  0  0  0  0  0  0
   25.1053  -17.5385  -15.8278 O   0  0  0  0  0  0  0  0  0  0  0  0
   27.6865  -24.8792  -15.6199 N   0  0  0  0  0  0  0  0  0  0  0  0
   26.9640  -24.1268  -16.5943 C   0  0  0  0  0  0  0  0  0  0  0  0
   25.8845  -24.5936  -17.1356 N   0  0  0  0  0  0  0  0  0  0  0  0
   27.4081  -22.8427  -17.0001 N   0  0  0  0  0  0  0  0  0  0  0  0
   28.5580  -22.2115  -16.3165 C   0  0  0  0  0  0  0  0  0  0  0  0
   28.1329  -21.6180  -15.0265 C   0  0  0  0  0  0  0  0  0  0  0  0
   28.2109  -20.1609  -14.8470 C   0  0  0  0  0  0  0  0  0  0  0  0
   26.9199  -19.4038  -14.7249 C   0  0  2  0  0  0  0  0  0  0  0  0
   27.0286  -17.9809  -14.6513 N   0  0  0  0  0  0  0  0  0  0  0  0
   26.0578  -20.0049  -13.6944 C   0  0  0  0  0  0  0  0  0  0  0  0
   26.5171  -20.2082  -12.5544 O   0  0  0  0  0  0  0  0  0  0  0  0
   25.4601  -24.0615  -17.9261 N   0  0  0  0  0  0  0  0  0  0  0  0
   24.7252  -20.3460  -13.9966 C   0  0  1  0  0  0  0  0  0  0  0  0
   23.8650  -20.9805  -12.9890 C   0  0  0  0  0  0  0  0  0  0  0  0
   23.6868  -20.0509  -11.8053 C   0  0  0  0  0  0  0  0  0  0  0  0
   24.7019  -20.2380  -10.7525 C   0  0  0  0  0  0  0  0  0  0  0  0
   25.5164  -19.2132  -10.3053 C   0  0  0  0  0  0  0  0  0  0  0  0
   26.4390  -19.4052   -9.3300 C   0  0  0  0  0  0  0  0  0  0  0  0
   26.5647  -20.6572   -8.7720 C   0  0  0  0  0  0  0  0  0  0  0  0
   25.7562  -21.6959   -9.2081 C   0  0  0  0  0  0  0  0  0  0  0  0
   24.8265  -21.4935  -10.1940 C   0  0  0  0  0  0  0  0  0  0  0  0
   22.5964  -21.3521  -13.6290 O   0  0  0  0  0  0  0  0  0  0  0  0
   22.2261  -20.8069  -14.7252 O   0  0  0  0  0  0  0  0  0  0  0  0
  2  1  1  0
  3  2  1  0
  3 13  1  0
  4  3  2  0
  5  6  1  0
  6  8  1  0
  6  7  2  0
  8  9  1  0
  9 10  1  0
 12 11  1  1
 11 10  1  0
 13 12  1  0
 14 15  2  0
 14 12  1  0
 16 14  1  0
 17 16  1  0
 17 25  1  0
 17 18  1  6
 19 18  1  0
 20 19  2  0
 21 20  1  0
 22 23  1  0
 22 21  2  0
 23 24  2  0
 24 19  1  0
 25 26  2  0
 25 27  1  0
M  END
$$$$
