GRF.pdb
     RDKit          3D

 27 27  0  0  1  0  0  0  0  0999 V2000
   19.9595  -21.1335  -11.7398 N   0  0  0  0  0  0  0  0  0  0  0  0
   20.9926  -20.1499  -11.6876 C   0  0  0  0  0  0  0  0  0  0  0  0
   22.3508  -20.7747  -11.5384 C   0  0  0  0  0  0  0  0  0  0  0  0
   22.5711  -21.5101  -10.5698 O   0  0  0  0  0  0  0  0  0  0  0  0
   24.5475  -25.3248  -14.2874 N   0  0  0  0  0  0  0  0  0  0  0  0
   24.9311  -24.9797  -15.6183 C   0  0  0  0  0  0  0  0  0  0  0  0
   24.3734  -25.5410  -16.6430 N   0  0  0  0  0  0  0  0  0  0  0  0
   25.9370  -24.0096  -15.8588 N   0  0  0  0  0  0  0  0  0  0  0  0
   26.3512  -23.0940  -14.7732 C   0  0  0  0  0  0  0  0  0  0  0  0
   25.3219  -22.0503  -14.5537 C   0  0  0  0  0  0  0  0  0  0  0  0
   25.5726  -20.9925  -13.5639 C   0  0  0  0  0  0  0  0  0  0  0  0
   24.7245  -20.9824  -12.3249 C   0  0  2  0  0  0  0  0  0  0  0  0
   23.3775  -20.5339  -12.4871 N   0  0  0  0  0  0  0  0  0  0  0  0
   25.4455  -20.3579  -11.2039 C   0  0  0  0  0  0  0  0  0  0  0  0
   25.4377  -19.1178  -11.0859 O   0  0  0  0  0  0  0  0  0  0  0  0
   24.6396  -25.2052  -17.5941 N   0  0  0  0  0  0  0  0  0  0  0  0
   26.1374  -21.1575  -10.2735 C   0  0  1  0  0  0  0  0  0  0  0  0
   27.0623  -20.5539   -9.3050 C   0  0  0  0  0  0  0  0  0  0  0  0
   26.5009  -20.6894   -7.9037 C   0  0  0  0  0  0  0  0  0  0  0  0
   27.3870  -20.1429   -6.8597 C   0  0  0  0  0  0  0  0  0  0  0  0
   28.1992  -20.9397   -6.0729 C   0  0  0  0  0  0  0  0  0  0  0  0
   29.0128  -20.4157   -5.1228 C   0  0  0  0  0  0  0  0  0  0  0  0
   29.0275  -19.0515   -4.9400 C   0  0  0  0  0  0  0  0  0  0  0  0
   28.2199  -18.2379   -5.7200 C   0  0  0  0  0  0  0  0  0  0  0  0
   27.4007  -18.7754   -6.6778 C   0  0  0  0  0  0  0  0  0  0  0  0
   28.3788  -21.1849   -9.4644 O   0  0  0  0  0  0  0  0  0  0  0  0
   28.4854  -22.4013   -9.8453 O   0  0  0  0  0  0  0  0  0  0  0  0
  2  1  1  0
  3  2  1  0
  3 13  1  0
  4  3  2  0
  5  6  1  0
  6  8  1  0
  6  7  2  0
  8  9  1  0
  9 10  1  0
 12 11  1  6
 11 10  1  0
 13 12  1  0
 14 15  2  0
 14 12  1  0
 16 14  1  0
 17 16  1  0
 17 25  1  0
 17 18  1  1
 19 18  1  0
 20 19  2  0
 21 20  1  0
 22 23  1  0
 22 21  2  0
 23 24  2  0
 24 19  1  0
 25 26  2  0
 25 27  1  0
M  END
$$$$
