GRF.pdb
     RDKit          3D

 27 27  0  0  1  0  0  0  0  0999 V2000
   25.4949  -21.0592  -18.4978 N   0  0  0  0  0  0  0  0  0  0  0  0
   25.7056  -20.0438  -17.5170 C   0  0  0  0  0  0  0  0  0  0  0  0
   26.0979  -20.6246  -16.1879 C   0  0  0  0  0  0  0  0  0  0  0  0
   25.4041  -21.5210  -15.6953 O   0  0  0  0  0  0  0  0  0  0  0  0
   31.9227  -23.2447  -12.8168 N   0  0  0  0  0  0  0  0  0  0  0  0
   32.0247  -22.7129  -11.4962 C   0  0  0  0  0  0  0  0  0  0  0  0
   32.8191  -23.2411  -10.6208 N   0  0  0  0  0  0  0  0  0  0  0  0
   31.2570  -21.5877  -11.1019 N   0  0  0  0  0  0  0  0  0  0  0  0
   30.8301  -20.5968  -12.1139 C   0  0  0  0  0  0  0  0  0  0  0  0
   29.4529  -20.8889  -12.5776 C   0  0  0  0  0  0  0  0  0  0  0  0
   28.8358  -20.0166  -13.5874 C   0  0  0  0  0  0  0  0  0  0  0  0
   27.4801  -20.4013  -14.1058 C   0  0  2  0  0  0  0  0  0  0  0  0
   27.2456  -20.1617  -15.4949 N   0  0  0  0  0  0  0  0  0  0  0  0
   26.4200  -19.9061  -13.2128 C   0  0  0  0  0  0  0  0  0  0  0  0
   25.9343  -18.7756  -13.4073 O   0  0  0  0  0  0  0  0  0  0  0  0
   32.8433  -22.8262   -9.6640 N   0  0  0  0  0  0  0  0  0  0  0  0
   25.9599  -20.7055  -12.1484 C   0  0  2  0  0  0  0  0  0  0  0  0
   24.7923  -20.3003  -11.3546 C   0  0  0  0  0  0  0  0  0  0  0  0
   23.5451  -20.3431  -12.2147 C   0  0  0  0  0  0  0  0  0  0  0  0
   22.3027  -20.0895  -11.4623 C   0  0  0  0  0  0  0  0  0  0  0  0
   21.8896  -18.8192  -11.1028 C   0  0  0  0  0  0  0  0  0  0  0  0
   20.7389  -18.6075  -10.4170 C   0  0  0  0  0  0  0  0  0  0  0  0
   19.9632  -19.6907  -10.0710 C   0  0  0  0  0  0  0  0  0  0  0  0
   20.3622  -20.9711  -10.4234 C   0  0  0  0  0  0  0  0  0  0  0  0
   21.5263  -21.1763  -11.1164 C   0  0  0  0  0  0  0  0  0  0  0  0
   24.7102  -21.1683  -10.1727 O   0  0  0  0  0  0  0  0  0  0  0  0
   25.1472  -22.3700  -10.2054 O   0  0  0  0  0  0  0  0  0  0  0  0
  2  1  1  0
  3  2  1  0
  3 13  1  0
  4  3  2  0
  5  6  1  0
  6  8  1  0
  6  7  2  0
  8  9  1  0
  9 10  1  0
 12 11  1  1
 11 10  1  0
 13 12  1  0
 14 15  2  0
 14 12  1  0
 16 14  1  0
 17 16  1  0
 17 25  1  0
 17 18  1  6
 19 18  1  0
 20 19  2  0
 21 20  1  0
 22 23  1  0
 22 21  2  0
 23 24  2  0
 24 19  1  0
 25 26  2  0
 25 27  1  0
M  END
$$$$
