GRF.pdb
     RDKit          3D

 27 27  0  0  1  0  0  0  0  0999 V2000
   24.2518  -31.7301   -8.7669 N   0  0  0  0  0  0  0  0  0  0  0  0
   25.3846  -32.5966   -8.7074 C   0  0  0  0  0  0  0  0  0  0  0  0
   25.3689  -33.4514   -7.4718 C   0  0  0  0  0  0  0  0  0  0  0  0
   24.4767  -33.2803   -6.6338 O   0  0  0  0  0  0  0  0  0  0  0  0
   23.5440  -40.9595   -8.2833 N   0  0  0  0  0  0  0  0  0  0  0  0
   24.8659  -40.5445   -7.9403 C   0  0  0  0  0  0  0  0  0  0  0  0
   25.8582  -41.3756   -7.9715 N   0  0  0  0  0  0  0  0  0  0  0  0
   25.1329  -39.2066   -7.5536 N   0  0  0  0  0  0  0  0  0  0  0  0
   24.0112  -38.2811   -7.2824 C   0  0  0  0  0  0  0  0  0  0  0  0
   24.5194  -36.9156   -7.0098 C   0  0  0  0  0  0  0  0  0  0  0  0
   25.8712  -36.7507   -6.4558 C   0  0  0  0  0  0  0  0  0  0  0  0
   26.3345  -35.3549   -6.1528 C   0  0  2  0  0  0  0  0  0  0  0  0
   26.3571  -34.4454   -7.2547 N   0  0  0  0  0  0  0  0  0  0  0  0
   27.5703  -35.3772   -5.3535 C   0  0  0  0  0  0  0  0  0  0  0  0
   28.6690  -35.4971   -5.9281 O   0  0  0  0  0  0  0  0  0  0  0  0
   26.8250  -40.9914   -7.8946 N   0  0  0  0  0  0  0  0  0  0  0  0
   27.5088  -35.2634   -3.9510 C   0  0  1  0  0  0  0  0  0  0  0  0
   28.7370  -35.1987   -3.1478 C   0  0  0  0  0  0  0  0  0  0  0  0
   29.5798  -34.0193   -3.5900 C   0  0  0  0  0  0  0  0  0  0  0  0
   30.8757  -34.4090   -4.1753 C   0  0  0  0  0  0  0  0  0  0  0  0
   31.8884  -34.9915   -3.4344 C   0  0  0  0  0  0  0  0  0  0  0  0
   33.0706  -35.3494   -3.9944 C   0  0  0  0  0  0  0  0  0  0  0  0
   33.2637  -35.1248   -5.3387 C   0  0  0  0  0  0  0  0  0  0  0  0
   32.2592  -34.5420   -6.0963 C   0  0  0  0  0  0  0  0  0  0  0  0
   31.0676  -34.1834   -5.5228 C   0  0  0  0  0  0  0  0  0  0  0  0
   28.3617  -35.1422   -1.7290 O   0  0  0  0  0  0  0  0  0  0  0  0
   27.1393  -35.2410   -1.3657 O   0  0  0  0  0  0  0  0  0  0  0  0
  2  1  1  0
  3  2  1  0
  3 13  1  0
  4  3  2  0
  5  6  1  0
  6  8  1  0
  6  7  2  0
  8  9  1  0
  9 10  1  0
 12 11  1  6
 11 10  1  0
 13 12  1  0
 14 15  2  0
 14 12  1  0
 16 14  1  0
 17 16  1  0
 17 25  1  0
 17 18  1  1
 19 18  1  0
 20 19  2  0
 21 20  1  0
 22 23  1  0
 22 21  2  0
 23 24  2  0
 24 19  1  0
 25 26  2  0
 25 27  1  0
M  END
$$$$
