GRF.pdb
     RDKit          3D

 27 27  0  0  1  0  0  0  0  0999 V2000
   18.0591  -29.3025    2.1598 N   0  0  0  0  0  0  0  0  0  0  0  0
   16.7088  -28.8876    1.9547 C   0  0  0  0  0  0  0  0  0  0  0  0
   16.6289  -27.4678    1.4698 C   0  0  0  0  0  0  0  0  0  0  0  0
   17.6658  -26.8919    1.1224 O   0  0  0  0  0  0  0  0  0  0  0  0
   13.5741  -21.3947   -2.7740 N   0  0  0  0  0  0  0  0  0  0  0  0
   13.1165  -22.6911   -3.1580 C   0  0  0  0  0  0  0  0  0  0  0  0
   13.2100  -23.0986   -4.3833 N   0  0  0  0  0  0  0  0  0  0  0  0
   12.5442  -23.5735   -2.2070 N   0  0  0  0  0  0  0  0  0  0  0  0
   12.5724  -23.2255   -0.7695 C   0  0  0  0  0  0  0  0  0  0  0  0
   13.8529  -23.6527   -0.1571 C   0  0  0  0  0  0  0  0  0  0  0  0
   14.0173  -25.0535    0.2580 C   0  0  0  0  0  0  0  0  0  0  0  0
   15.2607  -25.4134    1.0189 C   0  0  2  0  0  0  0  0  0  0  0  0
   15.3884  -26.7830    1.4057 N   0  0  0  0  0  0  0  0  0  0  0  0
   15.5083  -24.4471    2.1013 C   0  0  0  0  0  0  0  0  0  0  0  0
   14.8467  -24.5242    3.1539 O   0  0  0  0  0  0  0  0  0  0  0  0
   12.9347  -24.0817   -4.5976 N   0  0  0  0  0  0  0  0  0  0  0  0
   16.4859  -23.4451    1.9463 C   0  0  2  0  0  0  0  0  0  0  0  0
   16.8096  -22.5337    3.0519 C   0  0  0  0  0  0  0  0  0  0  0  0
   18.3135  -22.4051    3.1895 C   0  0  0  0  0  0  0  0  0  0  0  0
   18.9707  -23.6442    3.6438 C   0  0  0  0  0  0  0  0  0  0  0  0
   19.6506  -24.4904    2.7863 C   0  0  0  0  0  0  0  0  0  0  0  0
   20.2548  -25.6220    3.2266 C   0  0  0  0  0  0  0  0  0  0  0  0
   20.1870  -25.9331    4.5657 C   0  0  0  0  0  0  0  0  0  0  0  0
   19.5097  -25.0960    5.4393 C   0  0  0  0  0  0  0  0  0  0  0  0
   18.9020  -23.9545    4.9864 C   0  0  0  0  0  0  0  0  0  0  0  0
   16.1390  -21.2502    2.8073 O   0  0  0  0  0  0  0  0  0  0  0  0
   15.3916  -21.0812    1.7832 O   0  0  0  0  0  0  0  0  0  0  0  0
  2  1  1  0
  3  2  1  0
  3 13  1  0
  4  3  2  0
  5  6  1  0
  6  8  1  0
  6  7  2  0
  8  9  1  0
  9 10  1  0
 12 11  1  1
 11 10  1  0
 13 12  1  0
 14 15  2  0
 14 12  1  0
 16 14  1  0
 17 16  1  0
 17 25  1  0
 17 18  1  1
 19 18  1  0
 20 19  2  0
 21 20  1  0
 22 23  1  0
 22 21  2  0
 23 24  2  0
 24 19  1  0
 25 26  2  0
 25 27  1  0
M  END
$$$$
