GRF.pdb
     RDKit          3D

 27 27  0  0  1  0  0  0  0  0999 V2000
   28.8569  -23.0717  -17.5761 N   0  0  0  0  0  0  0  0  0  0  0  0
   28.4106  -23.1499  -16.2225 C   0  0  0  0  0  0  0  0  0  0  0  0
   26.9189  -23.0034  -16.1174 C   0  0  0  0  0  0  0  0  0  0  0  0
   26.3362  -22.2245  -16.8799 O   0  0  0  0  0  0  0  0  0  0  0  0
   20.9158  -27.0244  -15.9614 N   0  0  0  0  0  0  0  0  0  0  0  0
   21.9894  -27.5883  -15.2085 C   0  0  0  0  0  0  0  0  0  0  0  0
   22.5959  -28.6606  -15.6065 N   0  0  0  0  0  0  0  0  0  0  0  0
   22.4248  -26.9898  -13.9990 N   0  0  0  0  0  0  0  0  0  0  0  0
   21.8328  -25.7082  -13.5570 C   0  0  0  0  0  0  0  0  0  0  0  0
   22.5964  -24.5652  -14.1115 C   0  0  0  0  0  0  0  0  0  0  0  0
   24.0536  -24.6839  -14.2667 C   0  0  0  0  0  0  0  0  0  0  0  0
   24.7793  -23.5456  -14.9242 C   0  0  2  0  0  0  0  0  0  0  0  0
   26.1747  -23.7414  -15.1617 N   0  0  0  0  0  0  0  0  0  0  0  0
   24.4433  -22.2680  -14.2752 C   0  0  0  0  0  0  0  0  0  0  0  0
   24.7735  -22.0784  -13.0891 O   0  0  0  0  0  0  0  0  0  0  0  0
   23.3053  -29.0892  -14.9730 N   0  0  0  0  0  0  0  0  0  0  0  0
   23.7546  -21.2695  -14.9911 C   0  0  1  0  0  0  0  0  0  0  0  0
   23.3779  -20.0056  -14.3442 C   0  0  0  0  0  0  0  0  0  0  0  0
   23.9785  -18.8396  -15.1037 C   0  0  0  0  0  0  0  0  0  0  0  0
   25.4496  -18.7804  -15.0233 C   0  0  0  0  0  0  0  0  0  0  0  0
   26.1275  -18.5554  -13.8386 C   0  0  0  0  0  0  0  0  0  0  0  0
   27.4819  -18.5123  -13.7855 C   0  0  0  0  0  0  0  0  0  0  0  0
   28.1983  -18.6985  -14.9461 C   0  0  0  0  0  0  0  0  0  0  0  0
   27.5349  -18.9254  -16.1423 C   0  0  0  0  0  0  0  0  0  0  0  0
   26.1661  -18.9675  -16.1874 C   0  0  0  0  0  0  0  0  0  0  0  0
   21.9130  -19.9468  -14.2575 O   0  0  0  0  0  0  0  0  0  0  0  0
   21.1794  -20.7401  -14.9420 O   0  0  0  0  0  0  0  0  0  0  0  0
  2  1  1  0
  3  2  1  0
  3 13  1  0
  4  3  2  0
  5  6  1  0
  6  8  1  0
  6  7  2  0
  8  9  1  0
  9 10  1  0
 12 11  1  1
 11 10  1  0
 13 12  1  0
 14 15  2  0
 14 12  1  0
 16 14  1  0
 17 16  1  0
 17 25  1  0
 17 18  1  1
 19 18  1  0
 20 19  2  0
 21 20  1  0
 22 23  1  0
 22 21  2  0
 23 24  2  0
 24 19  1  0
 25 26  2  0
 25 27  1  0
M  END
$$$$
