GRF.pdb
     RDKit          3D

 27 27  0  0  1  0  0  0  0  0999 V2000
   27.6924  -16.5321  -14.8738 N   0  0  0  0  0  0  0  0  0  0  0  0
   27.9873  -17.8756  -14.4924 C   0  0  0  0  0  0  0  0  0  0  0  0
   26.9442  -18.4345  -13.5665 C   0  0  0  0  0  0  0  0  0  0  0  0
   26.1065  -17.6709  -13.0739 O   0  0  0  0  0  0  0  0  0  0  0  0
   23.4778  -25.8229  -12.8858 N   0  0  0  0  0  0  0  0  0  0  0  0
   22.8773  -24.5823  -13.2569 C   0  0  0  0  0  0  0  0  0  0  0  0
   21.6169  -24.3624  -13.0589 N   0  0  0  0  0  0  0  0  0  0  0  0
   23.6448  -23.5510  -13.8553 N   0  0  0  0  0  0  0  0  0  0  0  0
   25.0995  -23.7350  -14.0509 C   0  0  0  0  0  0  0  0  0  0  0  0
   25.8593  -22.7298  -13.2704 C   0  0  0  0  0  0  0  0  0  0  0  0
   25.1664  -21.5297  -12.7792 C   0  0  0  0  0  0  0  0  0  0  0  0
   26.0110  -20.3863  -12.2956 C   0  0  2  0  0  0  0  0  0  0  0  0
   26.9076  -19.8170  -13.2516 N   0  0  0  0  0  0  0  0  0  0  0  0
   26.6245  -20.7037  -10.9959 C   0  0  0  0  0  0  0  0  0  0  0  0
   27.7317  -21.2735  -10.9644 O   0  0  0  0  0  0  0  0  0  0  0  0
   21.2368  -23.4220  -13.3024 N   0  0  0  0  0  0  0  0  0  0  0  0
   25.9637  -20.3646   -9.7992 C   0  0  2  0  0  0  0  0  0  0  0  0
   26.5717  -20.6610   -8.4952 C   0  0  0  0  0  0  0  0  0  0  0  0
   27.3964  -19.4772   -8.0308 C   0  0  0  0  0  0  0  0  0  0  0  0
   27.9241  -19.6287   -6.6624 C   0  0  0  0  0  0  0  0  0  0  0  0
   28.8686  -20.5811   -6.3240 C   0  0  0  0  0  0  0  0  0  0  0  0
   29.3465  -20.6984   -5.0602 C   0  0  0  0  0  0  0  0  0  0  0  0
   28.8754  -19.8431   -4.0900 C   0  0  0  0  0  0  0  0  0  0  0  0
   27.9287  -18.8824   -4.4119 C   0  0  0  0  0  0  0  0  0  0  0  0
   27.4511  -18.7705   -5.6912 C   0  0  0  0  0  0  0  0  0  0  0  0
   25.5027  -21.0254   -7.5564 O   0  0  0  0  0  0  0  0  0  0  0  0
   24.2972  -20.6438   -7.7491 O   0  0  0  0  0  0  0  0  0  0  0  0
  2  1  1  0
  3  2  1  0
  3 13  1  0
  4  3  2  0
  5  6  1  0
  6  8  1  0
  6  7  2  0
  8  9  1  0
  9 10  1  0
 12 11  1  6
 11 10  1  0
 13 12  1  0
 14 15  2  0
 14 12  1  0
 16 14  1  0
 17 16  1  0
 17 25  1  0
 17 18  1  6
 19 18  1  0
 20 19  2  0
 21 20  1  0
 22 23  1  0
 22 21  2  0
 23 24  2  0
 24 19  1  0
 25 26  2  0
 25 27  1  0
M  END
$$$$
