ITL.pdb
     RDKit          3D

 24 23  0  0  1  0  0  0  0  0999 V2000
    7.7261  -22.3480   25.1400 C   0  0  0  0  0  0  0  0  0  0  0  0
    7.9349  -21.6046   23.8537 C   0  0  0  0  0  0  0  0  0  0  0  0
    8.1719  -20.1481   24.0798 C   0  0  2  0  0  0  0  0  0  0  0  0
    7.0106  -19.5862   24.8852 C   0  0  0  0  0  0  0  0  0  0  0  0
    8.3945  -19.3684   22.8136 C   0  0  2  0  0  0  0  0  0  0  0  0
    9.5841  -19.9567   22.1695 N   0  0  0  0  0  0  0  0  0  0  0  0
    8.7011  -17.9445   23.0587 C   0  0  0  0  0  0  0  0  0  0  0  0
    9.8426  -17.6321   23.4836 O   0  0  0  0  0  0  0  0  0  0  0  0
    8.6191  -14.7360   20.8641 C   0  0  0  0  0  0  0  0  0  0  0  0
    7.7343  -14.5593   22.0753 C   0  0  1  0  0  0  0  0  0  0  0  0
    6.4363  -14.9367   21.6716 O   0  0  0  0  0  0  0  0  0  0  0  0
    8.1854  -15.4928   23.2038 C   0  0  2  0  0  0  0  0  0  0  0  0
    7.8042  -16.8630   22.8528 N   0  0  0  0  0  0  0  0  0  0  0  0
    7.4833  -15.0780   24.4467 C   0  0  0  0  0  0  0  0  0  0  0  0
    6.3681  -15.5846   24.7839 O   0  0  0  0  0  0  0  0  0  0  0  0
   10.0388  -13.7244   29.3175 C   0  0  0  0  0  0  0  0  0  0  0  0
    9.1560  -14.2611   28.2077 C   0  0  2  0  0  0  0  0  0  0  0  0
    9.8324  -15.2975   27.3492 C   0  0  0  0  0  0  0  0  0  0  0  0
    8.3709  -13.2369   27.5055 C   0  0  0  0  0  0  0  0  0  0  0  0
    7.3626  -13.5957   26.5073 C   0  0  2  0  0  0  0  0  0  0  0  0
    8.0336  -14.1079   25.2917 N   0  0  0  0  0  0  0  0  0  0  0  0
    6.3730  -12.6302   26.0870 C   0  0  0  0  0  0  0  0  0  0  0  0
    5.2710  -12.2315   26.8321 O   0  0  0  0  0  0  0  0  0  0  0  0
    6.4552  -12.0651   24.9599 O   0  0  0  0  0  0  0  0  0  0  0  0
  2  1  1  0
  3  5  1  0
  3  2  1  0
  3  4  1  6
  5  6  1  1
  7  5  1  0
  8  7  2  0
 10  9  1  6
 10 12  1  0
 11 10  1  0
 12 14  1  0
 12 13  1  6
 13  7  1  0
 14 15  2  0
 17 16  1  6
 17 19  1  0
 18 17  1  0
 20 19  1  1
 20 21  1  0
 20 22  1  0
 21 14  1  0
 22 24  2  0
 22 23  1  0
M  END
$$$$
