ITL.pdb
     RDKit          3D

 24 23  0  0  1  0  0  0  0  0999 V2000
    7.6187  -12.0563   26.6759 C   0  0  0  0  0  0  0  0  0  0  0  0
    7.1798  -13.4434   26.3096 C   0  0  0  0  0  0  0  0  0  0  0  0
    6.7660  -13.5411   24.8785 C   0  0  2  0  0  0  0  0  0  0  0  0
    5.5991  -12.5942   24.6444 C   0  0  0  0  0  0  0  0  0  0  0  0
    6.4382  -14.9411   24.4386 C   0  0  2  0  0  0  0  0  0  0  0  0
    5.4785  -15.4708   25.4259 N   0  0  0  0  0  0  0  0  0  0  0  0
    7.6096  -15.8408   24.4557 C   0  0  0  0  0  0  0  0  0  0  0  0
    7.8513  -16.5056   25.4953 O   0  0  0  0  0  0  0  0  0  0  0  0
    9.2949  -17.4917   21.0927 C   0  0  0  0  0  0  0  0  0  0  0  0
   10.3154  -17.0904   22.1314 C   0  0  1  0  0  0  0  0  0  0  0  0
   10.8012  -15.8261   21.7365 O   0  0  0  0  0  0  0  0  0  0  0  0
    9.6496  -16.9505   23.5044 C   0  0  2  0  0  0  0  0  0  0  0  0
    8.5142  -16.0335   23.3782 N   0  0  0  0  0  0  0  0  0  0  0  0
   10.6533  -16.3823   24.4421 C   0  0  0  0  0  0  0  0  0  0  0  0
   10.9913  -15.1584   24.3966 O   0  0  0  0  0  0  0  0  0  0  0  0
    9.5163  -14.7918   29.3072 C   0  0  0  0  0  0  0  0  0  0  0  0
   10.8012  -15.1705   28.5969 C   0  0  2  0  0  0  0  0  0  0  0  0
   11.8227  -14.0640   28.5710 C   0  0  0  0  0  0  0  0  0  0  0  0
   10.6079  -15.9158   27.3456 C   0  0  0  0  0  0  0  0  0  0  0  0
   11.6917  -16.6913   26.7409 C   0  0  2  0  0  0  0  0  0  0  0  0
   11.2628  -17.1846   25.4131 N   0  0  0  0  0  0  0  0  0  0  0  0
   12.2808  -17.8032   27.4515 C   0  0  0  0  0  0  0  0  0  0  0  0
   13.5539  -17.8198   28.0057 O   0  0  0  0  0  0  0  0  0  0  0  0
   11.6408  -18.8800   27.6170 O   0  0  0  0  0  0  0  0  0  0  0  0
  2  1  1  0
  3  5  1  0
  3  2  1  0
  3  4  1  1
  5  6  1  1
  7  5  1  0
  8  7  2  0
 10  9  1  6
 10 12  1  0
 11 10  1  0
 12 14  1  0
 12 13  1  6
 13  7  1  0
 14 15  2  0
 17 16  1  6
 17 19  1  0
 18 17  1  0
 20 19  1  1
 20 21  1  0
 20 22  1  0
 21 14  1  0
 22 24  2  0
 22 23  1  0
M  END
$$$$
