ITL.pdb
     RDKit          3D

 24 23  0  0  1  0  0  0  0  0999 V2000
    7.4052  -11.8936   18.1446 C   0  0  0  0  0  0  0  0  0  0  0  0
    8.0919  -13.2275   18.1400 C   0  0  0  0  0  0  0  0  0  0  0  0
    7.9859  -13.9174   19.4597 C   0  0  2  0  0  0  0  0  0  0  0  0
    8.5796  -13.0139   20.5294 C   0  0  0  0  0  0  0  0  0  0  0  0
    8.6138  -15.2835   19.4795 C   0  0  2  0  0  0  0  0  0  0  0  0
    7.8862  -16.0876   18.4794 N   0  0  0  0  0  0  0  0  0  0  0  0
    8.4579  -15.9717   20.7771 C   0  0  0  0  0  0  0  0  0  0  0  0
    7.3042  -16.2922   21.1613 O   0  0  0  0  0  0  0  0  0  0  0  0
    9.6524  -19.1560   22.1177 C   0  0  0  0  0  0  0  0  0  0  0  0
   10.0435  -18.1469   23.1713 C   0  0  1  0  0  0  0  0  0  0  0  0
   11.4085  -17.8630   22.9553 O   0  0  0  0  0  0  0  0  0  0  0  0
    9.2415  -16.8536   22.9921 C   0  0  2  0  0  0  0  0  0  0  0  0
    9.5174  -16.3176   21.6570 N   0  0  0  0  0  0  0  0  0  0  0  0
    9.6971  -15.8876   24.0260 C   0  0  0  0  0  0  0  0  0  0  0  0
   10.6480  -15.0741   23.8064 O   0  0  0  0  0  0  0  0  0  0  0  0
    6.2452  -13.2118   25.8924 C   0  0  0  0  0  0  0  0  0  0  0  0
    7.3566  -13.5648   26.8614 C   0  0  2  0  0  0  0  0  0  0  0  0
    7.2790  -12.8142   28.1649 C   0  0  0  0  0  0  0  0  0  0  0  0
    8.6863  -13.6787   26.2470 C   0  0  0  0  0  0  0  0  0  0  0  0
    9.4792  -14.9036   26.3589 C   0  0  2  0  0  0  0  0  0  0  0  0
    9.0877  -15.8435   25.2848 N   0  0  0  0  0  0  0  0  0  0  0  0
    9.5101  -15.6447   27.5991 C   0  0  0  0  0  0  0  0  0  0  0  0
   10.0506  -15.1897   28.7946 O   0  0  0  0  0  0  0  0  0  0  0  0
    9.0246  -16.8089   27.6718 O   0  0  0  0  0  0  0  0  0  0  0  0
  2  1  1  0
  3  5  1  0
  3  2  1  0
  3  4  1  1
  5  6  1  6
  7  5  1  0
  8  7  2  0
 10  9  1  6
 10 12  1  0
 11 10  1  0
 12 14  1  0
 12 13  1  6
 13  7  1  0
 14 15  2  0
 17 16  1  6
 17 19  1  0
 18 17  1  0
 20 19  1  1
 20 21  1  0
 20 22  1  0
 21 14  1  0
 22 24  2  0
 22 23  1  0
M  END
$$$$
