ITL.pdb
     RDKit          3D

 24 23  0  0  1  0  0  0  0  0999 V2000
    7.7714  -11.7858   19.4735 C   0  0  0  0  0  0  0  0  0  0  0  0
    7.7036  -13.2832   19.5380 C   0  0  0  0  0  0  0  0  0  0  0  0
    9.0355  -13.9154   19.3034 C   0  0  2  0  0  0  0  0  0  0  0  0
    9.5528  -13.4690   17.9447 C   0  0  0  0  0  0  0  0  0  0  0  0
    9.0227  -15.4141   19.4246 C   0  0  2  0  0  0  0  0  0  0  0  0
    8.0668  -15.9025   18.4126 N   0  0  0  0  0  0  0  0  0  0  0  0
    8.5331  -15.8831   20.7369 C   0  0  0  0  0  0  0  0  0  0  0  0
    7.2933  -15.9717   20.9276 O   0  0  0  0  0  0  0  0  0  0  0  0
    8.8617  -19.0906   22.2606 C   0  0  0  0  0  0  0  0  0  0  0  0
    9.2879  -18.1483   23.3614 C   0  0  1  0  0  0  0  0  0  0  0  0
   10.6979  -18.1166   23.3269 O   0  0  0  0  0  0  0  0  0  0  0  0
    8.7608  -16.7361   23.0859 C   0  0  2  0  0  0  0  0  0  0  0  0
    9.3526  -16.2558   21.8349 N   0  0  0  0  0  0  0  0  0  0  0  0
    9.1860  -15.8631   24.2114 C   0  0  0  0  0  0  0  0  0  0  0  0
   10.2113  -15.1176   24.1271 O   0  0  0  0  0  0  0  0  0  0  0  0
    7.9002  -12.1763   26.0116 C   0  0  0  0  0  0  0  0  0  0  0  0
    6.9969  -13.3063   26.4656 C   0  0  2  0  0  0  0  0  0  0  0  0
    5.6989  -12.8343   27.0665 C   0  0  0  0  0  0  0  0  0  0  0  0
    7.6898  -14.3939   27.1696 C   0  0  0  0  0  0  0  0  0  0  0  0
    8.8666  -15.0490   26.5974 C   0  0  2  0  0  0  0  0  0  0  0  0
    8.4640  -15.8348   25.4097 N   0  0  0  0  0  0  0  0  0  0  0  0
    9.7051  -15.8936   27.4172 C   0  0  0  0  0  0  0  0  0  0  0  0
    9.8616  -17.2647   27.2624 O   0  0  0  0  0  0  0  0  0  0  0  0
   10.3773  -15.4103   28.3717 O   0  0  0  0  0  0  0  0  0  0  0  0
  2  1  1  0
  3  5  1  0
  3  2  1  0
  3  4  1  6
  5  6  1  6
  7  5  1  0
  8  7  2  0
 10  9  1  6
 10 12  1  0
 11 10  1  0
 12 14  1  0
 12 13  1  6
 13  7  1  0
 14 15  2  0
 17 16  1  1
 17 19  1  0
 18 17  1  0
 20 19  1  1
 20 21  1  0
 20 22  1  0
 21 14  1  0
 22 24  2  0
 22 23  1  0
M  END
$$$$
