ITL.pdb
     RDKit          3D

 24 23  0  0  1  0  0  0  0  0999 V2000
    8.2740  -11.8403   18.0156 C   0  0  0  0  0  0  0  0  0  0  0  0
    8.6577  -13.2886   18.0951 C   0  0  0  0  0  0  0  0  0  0  0  0
    8.2116  -13.9176   19.3734 C   0  0  2  0  0  0  0  0  0  0  0  0
    8.7517  -13.0959   20.5337 C   0  0  0  0  0  0  0  0  0  0  0  0
    8.5917  -15.3669   19.4986 C   0  0  2  0  0  0  0  0  0  0  0  0
    7.9044  -16.0711   18.3995 N   0  0  0  0  0  0  0  0  0  0  0  0
    8.1234  -15.9799   20.7582 C   0  0  0  0  0  0  0  0  0  0  0  0
    6.8884  -16.1341   20.9376 O   0  0  0  0  0  0  0  0  0  0  0  0
    8.3277  -19.2668   22.2050 C   0  0  0  0  0  0  0  0  0  0  0  0
    8.8699  -18.3619   23.2861 C   0  0  1  0  0  0  0  0  0  0  0  0
   10.2740  -18.3882   23.1523 O   0  0  0  0  0  0  0  0  0  0  0  0
    8.3855  -16.9245   23.0684 C   0  0  2  0  0  0  0  0  0  0  0  0
    8.9591  -16.4262   21.8160 N   0  0  0  0  0  0  0  0  0  0  0  0
    8.8721  -16.1021   24.2070 C   0  0  0  0  0  0  0  0  0  0  0  0
   10.0052  -15.5281   24.1793 O   0  0  0  0  0  0  0  0  0  0  0  0
    7.9648  -12.1957   25.9574 C   0  0  0  0  0  0  0  0  0  0  0  0
    6.8972  -13.2023   26.3394 C   0  0  2  0  0  0  0  0  0  0  0  0
    5.6415  -12.5709   26.8809 C   0  0  0  0  0  0  0  0  0  0  0  0
    7.4013  -14.3817   27.0560 C   0  0  0  0  0  0  0  0  0  0  0  0
    8.5257  -15.1661   26.5440 C   0  0  2  0  0  0  0  0  0  0  0  0
    8.0906  -15.9327   25.3552 N   0  0  0  0  0  0  0  0  0  0  0  0
    9.2405  -16.0735   27.4124 C   0  0  0  0  0  0  0  0  0  0  0  0
    9.1640  -17.4593   27.3657 O   0  0  0  0  0  0  0  0  0  0  0  0
   10.0144  -15.6376   28.3110 O   0  0  0  0  0  0  0  0  0  0  0  0
  2  1  1  0
  3  5  1  0
  3  2  1  0
  3  4  1  1
  5  6  1  6
  7  5  1  0
  8  7  2  0
 10  9  1  6
 10 12  1  0
 11 10  1  0
 12 14  1  0
 12 13  1  6
 13  7  1  0
 14 15  2  0
 17 16  1  1
 17 19  1  0
 18 17  1  0
 20 19  1  1
 20 21  1  0
 20 22  1  0
 21 14  1  0
 22 24  2  0
 22 23  1  0
M  END
$$$$
