ITL.pdb
     RDKit          3D

 24 23  0  0  1  0  0  0  0  0999 V2000
    7.4536  -20.6900   27.9715 C   0  0  0  0  0  0  0  0  0  0  0  0
    7.1064  -20.7499   26.5132 C   0  0  0  0  0  0  0  0  0  0  0  0
    7.4795  -19.4949   25.7959 C   0  0  2  0  0  0  0  0  0  0  0  0
    6.8886  -18.3119   26.5471 C   0  0  0  0  0  0  0  0  0  0  0  0
    7.0784  -19.4852   24.3468 C   0  0  2  0  0  0  0  0  0  0  0  0
    7.5462  -20.7642   23.7797 N   0  0  0  0  0  0  0  0  0  0  0  0
    7.7328  -18.4099   23.5738 C   0  0  0  0  0  0  0  0  0  0  0  0
    8.9149  -18.5773   23.1789 O   0  0  0  0  0  0  0  0  0  0  0  0
    7.5347  -14.3226   20.7846 C   0  0  0  0  0  0  0  0  0  0  0  0
    6.8472  -15.4297   21.5482 C   0  0  1  0  0  0  0  0  0  0  0  0
    6.3284  -16.3124   20.5776 O   0  0  0  0  0  0  0  0  0  0  0  0
    7.8612  -16.1911   22.4084 C   0  0  2  0  0  0  0  0  0  0  0  0
    7.1366  -17.1700   23.2226 N   0  0  0  0  0  0  0  0  0  0  0  0
    8.5404  -15.2068   23.2912 C   0  0  0  0  0  0  0  0  0  0  0  0
    8.9514  -14.0881   22.8512 O   0  0  0  0  0  0  0  0  0  0  0  0
    5.6672  -12.3572   26.6887 C   0  0  0  0  0  0  0  0  0  0  0  0
    7.1561  -12.5976   26.5317 C   0  0  2  0  0  0  0  0  0  0  0  0
    7.9673  -11.3298   26.4756 C   0  0  0  0  0  0  0  0  0  0  0  0
    7.5045  -13.6442   25.5612 C   0  0  0  0  0  0  0  0  0  0  0  0
    8.7099  -14.4598   25.7143 C   0  0  2  0  0  0  0  0  0  0  0  0
    8.7503  -15.4839   24.6466 N   0  0  0  0  0  0  0  0  0  0  0  0
    8.9908  -15.1226   26.9673 C   0  0  0  0  0  0  0  0  0  0  0  0
    8.6998  -16.4488   27.2586 O   0  0  0  0  0  0  0  0  0  0  0  0
    9.5437  -14.5030   27.9196 O   0  0  0  0  0  0  0  0  0  0  0  0
  2  1  1  0
  3  5  1  0
  3  2  1  0
  3  4  1  1
  5  6  1  6
  7  5  1  0
  8  7  2  0
 10  9  1  6
 10 12  1  0
 11 10  1  0
 12 14  1  0
 12 13  1  1
 13  7  1  0
 14 15  2  0
 17 16  1  6
 17 19  1  0
 18 17  1  0
 20 19  1  1
 20 21  1  0
 20 22  1  0
 21 14  1  0
 22 24  2  0
 22 23  1  0
M  END
$$$$
