ITL.pdb
     RDKit          3D

 24 23  0  0  1  0  0  0  0  0999 V2000
    8.0939  -11.9027   18.0704 C   0  0  0  0  0  0  0  0  0  0  0  0
    8.5214  -13.3346   18.2036 C   0  0  0  0  0  0  0  0  0  0  0  0
    8.0525  -13.9431   19.4836 C   0  0  2  0  0  0  0  0  0  0  0  0
    8.5804  -13.1087   20.6403 C   0  0  0  0  0  0  0  0  0  0  0  0
    8.4218  -15.3928   19.6344 C   0  0  2  0  0  0  0  0  0  0  0  0
    7.6914  -16.1177   18.5774 N   0  0  0  0  0  0  0  0  0  0  0  0
    7.9891  -15.9676   20.9245 C   0  0  0  0  0  0  0  0  0  0  0  0
    6.7638  -16.1730   21.1188 O   0  0  0  0  0  0  0  0  0  0  0  0
   10.2030  -18.4140   23.4460 C   0  0  0  0  0  0  0  0  0  0  0  0
    8.6995  -18.2697   23.4462 C   0  0  1  0  0  0  0  0  0  0  0  0
    8.2637  -18.7031   24.7160 O   0  0  0  0  0  0  0  0  0  0  0  0
    8.3067  -16.7989   23.2709 C   0  0  2  0  0  0  0  0  0  0  0  0
    8.8499  -16.3223   21.9966 N   0  0  0  0  0  0  0  0  0  0  0  0
    8.9068  -16.0300   24.3927 C   0  0  0  0  0  0  0  0  0  0  0  0
   10.1166  -15.6431   24.3646 O   0  0  0  0  0  0  0  0  0  0  0  0
    7.7804  -12.1293   25.7361 C   0  0  0  0  0  0  0  0  0  0  0  0
    6.8820  -13.1180   26.4534 C   0  0  2  0  0  0  0  0  0  0  0  0
    5.6804  -12.4798   27.0993 C   0  0  0  0  0  0  0  0  0  0  0  0
    7.5979  -14.1251   27.2482 C   0  0  0  0  0  0  0  0  0  0  0  0
    8.6751  -14.9312   26.6723 C   0  0  2  0  0  0  0  0  0  0  0  0
    8.1513  -15.7052   25.5248 N   0  0  0  0  0  0  0  0  0  0  0  0
    9.4342  -15.8385   27.5023 C   0  0  0  0  0  0  0  0  0  0  0  0
   10.3947  -15.4646   28.4328 O   0  0  0  0  0  0  0  0  0  0  0  0
    9.2612  -17.0877   27.4249 O   0  0  0  0  0  0  0  0  0  0  0  0
  2  1  1  0
  3  5  1  0
  3  2  1  0
  3  4  1  1
  5  6  1  6
  7  5  1  0
  8  7  2  0
 10  9  1  1
 10 12  1  0
 11 10  1  0
 12 14  1  0
 12 13  1  6
 13  7  1  0
 14 15  2  0
 17 16  1  1
 17 19  1  0
 18 17  1  0
 20 19  1  1
 20 21  1  0
 20 22  1  0
 21 14  1  0
 22 24  2  0
 22 23  1  0
M  END
$$$$
