ITL.pdb
     RDKit          3D

 24 23  0  0  1  0  0  0  0  0999 V2000
    7.5181  -11.8910   19.2660 C   0  0  0  0  0  0  0  0  0  0  0  0
    7.8783  -13.3412   19.1309 C   0  0  0  0  0  0  0  0  0  0  0  0
    7.9710  -14.0218   20.4564 C   0  0  2  0  0  0  0  0  0  0  0  0
    8.9796  -13.2758   21.3162 C   0  0  0  0  0  0  0  0  0  0  0  0
    8.3010  -15.4857   20.3622 C   0  0  2  0  0  0  0  0  0  0  0  0
    7.2060  -16.1078   19.5940 N   0  0  0  0  0  0  0  0  0  0  0  0
    8.3347  -16.1558   21.6781 C   0  0  0  0  0  0  0  0  0  0  0  0
    7.2729  -16.2376   22.3467 O   0  0  0  0  0  0  0  0  0  0  0  0
    9.1044  -19.6041   22.5602 C   0  0  0  0  0  0  0  0  0  0  0  0
    9.9565  -18.7838   23.4995 C   0  0  1  0  0  0  0  0  0  0  0  0
   11.2421  -18.7337   22.9206 O   0  0  0  0  0  0  0  0  0  0  0  0
    9.4110  -17.3555   23.6016 C   0  0  2  0  0  0  0  0  0  0  0  0
    9.4848  -16.7347   22.2768 N   0  0  0  0  0  0  0  0  0  0  0  0
   10.2695  -16.6067   24.5566 C   0  0  0  0  0  0  0  0  0  0  0  0
   11.2569  -15.9112   24.1622 O   0  0  0  0  0  0  0  0  0  0  0  0
    8.2570  -13.8459   26.4507 C   0  0  0  0  0  0  0  0  0  0  0  0
    9.1892  -14.2442   27.5782 C   0  0  2  0  0  0  0  0  0  0  0  0
    9.1057  -13.3359   28.7768 C   0  0  0  0  0  0  0  0  0  0  0  0
   10.5367  -14.6367   27.1438 C   0  0  0  0  0  0  0  0  0  0  0  0
   10.9009  -16.0410   26.9523 C   0  0  2  0  0  0  0  0  0  0  0  0
   10.0150  -16.6447   25.9320 N   0  0  0  0  0  0  0  0  0  0  0  0
   10.9500  -16.9446   28.0790 C   0  0  0  0  0  0  0  0  0  0  0  0
   10.2191  -18.1190   28.2006 O   0  0  0  0  0  0  0  0  0  0  0  0
   11.6969  -16.7063   29.0699 O   0  0  0  0  0  0  0  0  0  0  0  0
  2  1  1  0
  3  5  1  0
  3  2  1  0
  3  4  1  1
  5  6  1  6
  7  5  1  0
  8  7  2  0
 10  9  1  6
 10 12  1  0
 11 10  1  0
 12 14  1  0
 12 13  1  6
 13  7  1  0
 14 15  2  0
 17 16  1  6
 17 19  1  0
 18 17  1  0
 20 19  1  1
 20 21  1  0
 20 22  1  0
 21 14  1  0
 22 24  2  0
 22 23  1  0
M  END
$$$$
