ITL.pdb
     RDKit          3D

 24 23  0  0  1  0  0  0  0  0999 V2000
    5.7353  -11.4768   26.0499 C   0  0  0  0  0  0  0  0  0  0  0  0
    5.4630  -12.7882   25.3739 C   0  0  0  0  0  0  0  0  0  0  0  0
    6.6922  -13.6280   25.2631 C   0  0  2  0  0  0  0  0  0  0  0  0
    7.7421  -12.8520   24.4829 C   0  0  0  0  0  0  0  0  0  0  0  0
    6.4458  -14.9833   24.6603 C   0  0  2  0  0  0  0  0  0  0  0  0
    5.4122  -15.6251   25.4945 N   0  0  0  0  0  0  0  0  0  0  0  0
    7.6345  -15.8590   24.7032 C   0  0  0  0  0  0  0  0  0  0  0  0
    7.8639  -16.5229   25.7462 O   0  0  0  0  0  0  0  0  0  0  0  0
    9.5194  -17.2237   21.2547 C   0  0  0  0  0  0  0  0  0  0  0  0
   10.4365  -17.0084   22.4354 C   0  0  1  0  0  0  0  0  0  0  0  0
   10.9936  -15.7228   22.2704 O   0  0  0  0  0  0  0  0  0  0  0  0
    9.6352  -17.0294   23.7414 C   0  0  2  0  0  0  0  0  0  0  0  0
    8.5691  -16.0290   23.6479 N   0  0  0  0  0  0  0  0  0  0  0  0
   10.5607  -16.6762   24.8498 C   0  0  0  0  0  0  0  0  0  0  0  0
   11.2857  -15.6338   24.8072 O   0  0  0  0  0  0  0  0  0  0  0  0
    9.9671  -14.5162   29.5919 C   0  0  0  0  0  0  0  0  0  0  0  0
   10.8393  -15.0372   28.4664 C   0  0  2  0  0  0  0  0  0  0  0  0
   10.9297  -14.0987   27.2918 C   0  0  0  0  0  0  0  0  0  0  0  0
   10.6475  -16.4606   28.1569 C   0  0  0  0  0  0  0  0  0  0  0  0
   11.4813  -17.1490   27.1707 C   0  0  2  0  0  0  0  0  0  0  0  0
   10.6632  -17.4879   25.9849 N   0  0  0  0  0  0  0  0  0  0  0  0
   12.2271  -18.3304   27.5400 C   0  0  0  0  0  0  0  0  0  0  0  0
   11.8262  -19.6396   27.3086 O   0  0  0  0  0  0  0  0  0  0  0  0
   13.3426  -18.2369   28.1261 O   0  0  0  0  0  0  0  0  0  0  0  0
  2  1  1  0
  3  5  1  0
  3  2  1  0
  3  4  1  6
  5  6  1  1
  7  5  1  0
  8  7  2  0
 10  9  1  6
 10 12  1  0
 11 10  1  0
 12 14  1  0
 12 13  1  6
 13  7  1  0
 14 15  2  0
 17 16  1  1
 17 19  1  0
 18 17  1  0
 20 19  1  1
 20 21  1  0
 20 22  1  0
 21 14  1  0
 22 24  2  0
 22 23  1  0
M  END
$$$$
