WNF.pdb
     RDKit          3D

 34 36  0  0  1  0  0  0  0  0999 V2000
   23.7618  -23.0786  -17.2865 N   0  0  0  0  0  0  0  0  0  0  0  0
   22.5313  -23.4372  -17.9166 C   0  0  1  0  0  0  0  0  0  0  0  0
   22.5861  -23.2722  -19.4343 C   0  0  0  0  0  0  0  0  0  0  0  0
   22.9276  -21.8916  -19.8417 C   0  0  0  0  0  0  0  0  0  0  0  0
   24.1862  -21.3108  -19.7714 C   0  0  0  0  0  0  0  0  0  0  0  0
   24.1132  -20.0498  -20.2330 N   0  0  0  0  0  0  0  0  0  0  0  0
   22.8502  -19.7686  -20.6082 C   0  0  0  0  0  0  0  0  0  0  0  0
   22.2829  -18.6172  -21.1400 C   0  0  0  0  0  0  0  0  0  0  0  0
   20.9365  -18.6192  -21.4344 C   0  0  0  0  0  0  0  0  0  0  0  0
   20.1927  -19.7511  -21.1974 C   0  0  0  0  0  0  0  0  0  0  0  0
   20.7600  -20.9057  -20.6648 C   0  0  0  0  0  0  0  0  0  0  0  0
   22.1081  -20.9063  -20.3686 C   0  0  0  0  0  0  0  0  0  0  0  0
   22.1120  -24.8288  -17.6144 C   0  0  0  0  0  0  0  0  0  0  0  0
   20.9873  -25.1833  -18.1052 O   0  0  0  0  0  0  0  0  0  0  0  0
   25.7717  -27.6778  -17.3009 N   0  0  0  0  0  0  0  0  0  0  0  0
   24.4083  -28.0107  -17.4483 C   0  0  0  0  0  0  0  0  0  0  0  0
   23.9042  -28.3099  -18.5742 O   0  0  0  0  0  0  0  0  0  0  0  0
   23.4860  -28.0280  -16.2713 C   0  0  0  0  0  0  0  0  0  0  0  0
   22.3296  -27.1003  -16.6233 C   0  0  2  0  0  0  0  0  0  0  0  0
   22.8450  -25.7555  -16.8493 N   0  0  0  0  0  0  0  0  0  0  0  0
   21.3590  -27.1216  -15.5034 C   0  0  0  0  0  0  0  0  0  0  0  0
   20.6829  -28.1658  -15.3053 O   0  0  0  0  0  0  0  0  0  0  0  0
   21.1616  -26.0112  -14.6439 N   0  0  0  0  0  0  0  0  0  0  0  0
   20.1288  -25.9792  -13.6006 C   0  0  1  0  0  0  0  0  0  0  0  0
   20.5127  -25.0603  -12.4965 C   0  0  0  0  0  0  0  0  0  0  0  0
   19.4581  -25.0096  -11.4664 C   0  0  0  0  0  0  0  0  0  0  0  0
   18.5263  -23.9627  -11.4616 C   0  0  0  0  0  0  0  0  0  0  0  0
   17.5218  -23.8948  -10.5371 C   0  0  0  0  0  0  0  0  0  0  0  0
   17.3674  -24.8446   -9.5620 C   0  0  0  0  0  0  0  0  0  0  0  0
   18.2684  -25.8910   -9.5368 C   0  0  0  0  0  0  0  0  0  0  0  0
   19.2817  -25.9574  -10.4721 C   0  0  0  0  0  0  0  0  0  0  0  0
   18.8681  -25.5526  -14.2221 C   0  0  0  0  0  0  0  0  0  0  0  0
   17.7625  -26.0099  -13.8750 O   0  0  0  0  0  0  0  0  0  0  0  0
   18.8726  -24.5876  -15.2581 O   0  0  0  0  0  0  0  0  0  0  0  0
  2  1  1  1
  3  2  1  0
  4  5  2  0
  4  3  1  0
  6  5  1  0
  7 12  2  0
  7  6  1  0
  8  7  1  0
  9 10  1  0
  9  8  2  0
 10 11  2  0
 11 12  1  0
 12  4  1  0
 13  2  1  0
 14 13  2  0
 16 15  1  0
 17 16  2  0
 19 18  1  1
 18 16  1  0
 19 20  1  0
 20 13  1  0
 21 19  1  0
 22 21  2  0
 23 21  1  0
 24 23  1  0
 24 25  1  1
 25 26  1  0
 26 31  1  0
 27 26  2  0
 27 28  1  0
 28 29  2  0
 29 30  1  0
 31 30  2  0
 32 34  1  0
 32 24  1  0
 33 32  2  0
M  END
$$$$
