WNF.pdb
     RDKit          3D

 34 36  0  0  1  0  0  0  0  0999 V2000
   23.3354  -19.4024  -18.5335 N   0  0  0  0  0  0  0  0  0  0  0  0
   24.4677  -19.8646  -17.7960 C   0  0  1  0  0  0  0  0  0  0  0  0
   24.9005  -18.8752  -16.7154 C   0  0  0  0  0  0  0  0  0  0  0  0
   25.6696  -17.7373  -17.2650 C   0  0  0  0  0  0  0  0  0  0  0  0
   25.1780  -16.4605  -17.4983 C   0  0  0  0  0  0  0  0  0  0  0  0
   26.1655  -15.6947  -17.9950 N   0  0  0  0  0  0  0  0  0  0  0  0
   27.2986  -16.4157  -18.1019 C   0  0  0  0  0  0  0  0  0  0  0  0
   28.5675  -16.0742  -18.5532 C   0  0  0  0  0  0  0  0  0  0  0  0
   29.5525  -17.0382  -18.5475 C   0  0  0  0  0  0  0  0  0  0  0  0
   29.2589  -18.3043  -18.0987 C   0  0  0  0  0  0  0  0  0  0  0  0
   27.9878  -18.6477  -17.6459 C   0  0  0  0  0  0  0  0  0  0  0  0
   26.9994  -17.6844  -17.6510 C   0  0  0  0  0  0  0  0  0  0  0  0
   24.2399  -21.1840  -17.1550 C   0  0  0  0  0  0  0  0  0  0  0  0
   23.0827  -21.6925  -17.3390 O   0  0  0  0  0  0  0  0  0  0  0  0
   24.2556  -25.7641  -15.4194 N   0  0  0  0  0  0  0  0  0  0  0  0
   25.6283  -25.4729  -15.5690 C   0  0  0  0  0  0  0  0  0  0  0  0
   26.5237  -26.3660  -15.4602 O   0  0  0  0  0  0  0  0  0  0  0  0
   26.0950  -24.0839  -15.8676 C   0  0  0  0  0  0  0  0  0  0  0  0
   24.8532  -23.2016  -15.8349 C   0  0  2  0  0  0  0  0  0  0  0  0
   25.1809  -21.8912  -16.3832 N   0  0  0  0  0  0  0  0  0  0  0  0
   24.3949  -23.0956  -14.4294 C   0  0  0  0  0  0  0  0  0  0  0  0
   23.9298  -24.1202  -13.8633 O   0  0  0  0  0  0  0  0  0  0  0  0
   24.4603  -21.8844  -13.6951 N   0  0  0  0  0  0  0  0  0  0  0  0
   23.9687  -21.7551  -12.3175 C   0  0  1  0  0  0  0  0  0  0  0  0
   25.0445  -21.2783  -11.4086 C   0  0  0  0  0  0  0  0  0  0  0  0
   26.0155  -20.4423  -12.1393 C   0  0  0  0  0  0  0  0  0  0  0  0
   25.7740  -19.0733  -12.3184 C   0  0  0  0  0  0  0  0  0  0  0  0
   26.6612  -18.2630  -12.9699 C   0  0  0  0  0  0  0  0  0  0  0  0
   27.8369  -18.7410  -13.4858 C   0  0  0  0  0  0  0  0  0  0  0  0
   28.1075  -20.0860  -13.3276 C   0  0  0  0  0  0  0  0  0  0  0  0
   27.2098  -20.9020  -12.6687 C   0  0  0  0  0  0  0  0  0  0  0  0
   22.8367  -20.8190  -12.3250 C   0  0  0  0  0  0  0  0  0  0  0  0
   22.5002  -20.1839  -13.3425 O   0  0  0  0  0  0  0  0  0  0  0  0
   22.0780  -20.6056  -11.1489 O   0  0  0  0  0  0  0  0  0  0  0  0
  2  1  1  1
  3  2  1  0
  4  5  2  0
  4  3  1  0
  6  5  1  0
  7 12  2  0
  7  6  1  0
  8  7  1  0
  9 10  1  0
  9  8  2  0
 10 11  2  0
 11 12  1  0
 12  4  1  0
 13  2  1  0
 14 13  2  0
 16 15  1  0
 17 16  2  0
 19 18  1  1
 18 16  1  0
 19 20  1  0
 20 13  1  0
 21 19  1  0
 22 21  2  0
 23 21  1  0
 24 23  1  0
 24 25  1  1
 25 26  1  0
 26 31  1  0
 27 26  2  0
 27 28  1  0
 28 29  2  0
 29 30  1  0
 31 30  2  0
 32 34  1  0
 32 24  1  0
 33 32  2  0
M  END
$$$$
