WNF.pdb
     RDKit          3D

 34 36  0  0  1  0  0  0  0  0999 V2000
   24.5386  -19.9380  -17.2730 N   0  0  0  0  0  0  0  0  0  0  0  0
   24.4394  -20.8327  -16.1642 C   0  0  1  0  0  0  0  0  0  0  0  0
   25.2988  -20.3894  -14.9815 C   0  0  0  0  0  0  0  0  0  0  0  0
   26.6571  -19.9723  -15.3936 C   0  0  0  0  0  0  0  0  0  0  0  0
   27.1812  -18.6915  -15.2892 C   0  0  0  0  0  0  0  0  0  0  0  0
   28.4419  -18.6944  -15.7573 N   0  0  0  0  0  0  0  0  0  0  0  0
   28.7772  -19.9320  -16.1708 C   0  0  0  0  0  0  0  0  0  0  0  0
   29.9508  -20.4317  -16.7216 C   0  0  0  0  0  0  0  0  0  0  0  0
   30.0080  -21.7680  -17.0540 C   0  0  0  0  0  0  0  0  0  0  0  0
   28.9119  -22.5685  -16.8341 C   0  0  0  0  0  0  0  0  0  0  0  0
   27.7354  -22.0690  -16.2820 C   0  0  0  0  0  0  0  0  0  0  0  0
   27.6752  -20.7311  -15.9486 C   0  0  0  0  0  0  0  0  0  0  0  0
   23.0449  -21.0078  -15.6865 C   0  0  0  0  0  0  0  0  0  0  0  0
   22.7279  -20.3276  -14.6529 O   0  0  0  0  0  0  0  0  0  0  0  0
   23.4059  -26.3710  -15.0188 N   0  0  0  0  0  0  0  0  0  0  0  0
   22.8407  -25.3580  -15.8225 C   0  0  0  0  0  0  0  0  0  0  0  0
   22.0587  -25.6193  -16.7876 O   0  0  0  0  0  0  0  0  0  0  0  0
   23.1395  -23.9147  -15.5695 C   0  0  0  0  0  0  0  0  0  0  0  0
   21.8188  -23.1721  -15.7314 C   0  0  2  0  0  0  0  0  0  0  0  0
   22.0782  -21.8447  -16.2752 N   0  0  0  0  0  0  0  0  0  0  0  0
   21.1660  -23.0895  -14.4033 C   0  0  0  0  0  0  0  0  0  0  0  0
   21.8366  -23.3811  -13.3777 O   0  0  0  0  0  0  0  0  0  0  0  0
   19.8142  -22.6934  -14.2412 N   0  0  0  0  0  0  0  0  0  0  0  0
   19.1467  -22.6381  -12.9345 C   0  0  1  0  0  0  0  0  0  0  0  0
   19.0475  -21.2381  -12.4438 C   0  0  0  0  0  0  0  0  0  0  0  0
   18.6368  -20.3296  -13.5309 C   0  0  0  0  0  0  0  0  0  0  0  0
   19.6008  -19.6157  -14.2558 C   0  0  0  0  0  0  0  0  0  0  0  0
   19.2597  -18.7827  -15.2844 C   0  0  0  0  0  0  0  0  0  0  0  0
   17.9573  -18.5965  -15.6662 C   0  0  0  0  0  0  0  0  0  0  0  0
   16.9806  -19.2845  -14.9733 C   0  0  0  0  0  0  0  0  0  0  0  0
   17.3280  -20.1257  -13.9352 C   0  0  0  0  0  0  0  0  0  0  0  0
   17.8136  -23.2376  -13.0795 C   0  0  0  0  0  0  0  0  0  0  0  0
   17.0454  -23.4030  -12.1128 O   0  0  0  0  0  0  0  0  0  0  0  0
   17.3522  -23.6553  -14.3512 O   0  0  0  0  0  0  0  0  0  0  0  0
  2  1  1  6
  3  2  1  0
  4  5  2  0
  4  3  1  0
  6  5  1  0
  7 12  2  0
  7  6  1  0
  8  7  1  0
  9 10  1  0
  9  8  2  0
 10 11  2  0
 11 12  1  0
 12  4  1  0
 13  2  1  0
 14 13  2  0
 16 15  1  0
 17 16  2  0
 19 18  1  1
 18 16  1  0
 19 20  1  0
 20 13  1  0
 21 19  1  0
 22 21  2  0
 23 21  1  0
 24 23  1  0
 24 25  1  6
 25 26  1  0
 26 31  1  0
 27 26  2  0
 27 28  1  0
 28 29  2  0
 29 30  1  0
 31 30  2  0
 32 34  1  0
 32 24  1  0
 33 32  2  0
M  END
$$$$
