WNF.pdb
     RDKit          3D

 34 36  0  0  1  0  0  0  0  0999 V2000
   16.0410  -17.1994    4.3361 N   0  0  0  0  0  0  0  0  0  0  0  0
   16.4595  -18.0723    5.3862 C   0  0  1  0  0  0  0  0  0  0  0  0
   17.2864  -19.2482    4.8691 C   0  0  0  0  0  0  0  0  0  0  0  0
   16.4752  -20.2140    4.0959 C   0  0  0  0  0  0  0  0  0  0  0  0
   15.1615  -20.0298    3.6880 C   0  0  0  0  0  0  0  0  0  0  0  0
   14.7586  -21.1156    3.0046 N   0  0  0  0  0  0  0  0  0  0  0  0
   15.7570  -22.0180    2.9426 C   0  0  0  0  0  0  0  0  0  0  0  0
   15.8264  -23.2747    2.3540 C   0  0  0  0  0  0  0  0  0  0  0  0
   17.0026  -23.9861    2.4518 C   0  0  0  0  0  0  0  0  0  0  0  0
   18.0710  -23.4401    3.1235 C   0  0  0  0  0  0  0  0  0  0  0  0
   18.0028  -22.1808    3.7135 C   0  0  0  0  0  0  0  0  0  0  0  0
   16.8259  -21.4664    3.6175 C   0  0  0  0  0  0  0  0  0  0  0  0
   17.2450  -17.3769    6.4364 C   0  0  0  0  0  0  0  0  0  0  0  0
   18.2932  -16.7713    6.0291 O   0  0  0  0  0  0  0  0  0  0  0  0
   18.9934  -15.2519   10.6058 N   0  0  0  0  0  0  0  0  0  0  0  0
   18.0741  -16.2019   11.0996 C   0  0  0  0  0  0  0  0  0  0  0  0
   17.7734  -16.2740   12.3307 O   0  0  0  0  0  0  0  0  0  0  0  0
   17.4038  -17.1762   10.1842 C   0  0  0  0  0  0  0  0  0  0  0  0
   17.8910  -16.8442    8.7791 C   0  0  2  0  0  0  0  0  0  0  0  0
   16.9246  -17.3396    7.8067 N   0  0  0  0  0  0  0  0  0  0  0  0
   19.2181  -17.4752    8.5859 C   0  0  0  0  0  0  0  0  0  0  0  0
   19.2706  -18.6818    8.2281 O   0  0  0  0  0  0  0  0  0  0  0  0
   20.4332  -16.7728    8.7872 N   0  0  0  0  0  0  0  0  0  0  0  0
   21.7529  -17.3685    8.5433 C   0  0  1  0  0  0  0  0  0  0  0  0
   22.6465  -16.4157    7.8330 C   0  0  0  0  0  0  0  0  0  0  0  0
   22.7396  -15.1390    8.5659 C   0  0  0  0  0  0  0  0  0  0  0  0
   21.8371  -14.1017    8.2939 C   0  0  0  0  0  0  0  0  0  0  0  0
   21.8783  -12.9137    8.9685 C   0  0  0  0  0  0  0  0  0  0  0  0
   22.8033  -12.6672    9.9485 C   0  0  0  0  0  0  0  0  0  0  0  0
   23.7087  -13.6677   10.2428 C   0  0  0  0  0  0  0  0  0  0  0  0
   23.6645  -14.8669    9.5603 C   0  0  0  0  0  0  0  0  0  0  0  0
   22.3242  -17.7541    9.8404 C   0  0  0  0  0  0  0  0  0  0  0  0
   21.8487  -17.3639   10.9238 O   0  0  0  0  0  0  0  0  0  0  0  0
   23.4585  -18.5993    9.8990 O   0  0  0  0  0  0  0  0  0  0  0  0
  2  1  1  6
  3  2  1  0
  4  5  2  0
  4  3  1  0
  6  5  1  0
  7 12  2  0
  7  6  1  0
  8  7  1  0
  9 10  1  0
  9  8  2  0
 10 11  2  0
 11 12  1  0
 12  4  1  0
 13  2  1  0
 14 13  2  0
 16 15  1  0
 17 16  2  0
 19 18  1  1
 18 16  1  0
 19 20  1  0
 20 13  1  0
 21 19  1  0
 22 21  2  0
 23 21  1  0
 24 23  1  0
 24 25  1  1
 25 26  1  0
 26 31  1  0
 27 26  2  0
 27 28  1  0
 28 29  2  0
 29 30  1  0
 31 30  2  0
 32 34  1  0
 32 24  1  0
 33 32  2  0
M  END
$$$$
