WNF.pdb
     RDKit          3D

 34 36  0  0  1  0  0  0  0  0999 V2000
   28.2606  -21.3261  -16.2479 N   0  0  0  0  0  0  0  0  0  0  0  0
   27.6303  -20.4421  -15.3200 C   0  0  1  0  0  0  0  0  0  0  0  0
   26.6345  -19.5024  -15.9976 C   0  0  0  0  0  0  0  0  0  0  0  0
   27.2989  -18.3714  -16.6817 C   0  0  0  0  0  0  0  0  0  0  0  0
   27.7819  -18.3783  -17.9828 C   0  0  0  0  0  0  0  0  0  0  0  0
   28.3141  -17.1746  -18.2591 N   0  0  0  0  0  0  0  0  0  0  0  0
   28.2037  -16.3650  -17.1880 C   0  0  0  0  0  0  0  0  0  0  0  0
   28.5969  -15.0478  -16.9856 C   0  0  0  0  0  0  0  0  0  0  0  0
   28.3480  -14.4645  -15.7620 C   0  0  0  0  0  0  0  0  0  0  0  0
   27.7212  -15.1933  -14.7788 C   0  0  0  0  0  0  0  0  0  0  0  0
   27.3263  -16.5131  -14.9804 C   0  0  0  0  0  0  0  0  0  0  0  0
   27.5749  -17.0999  -16.2047 C   0  0  0  0  0  0  0  0  0  0  0  0
   26.9252  -21.1586  -14.2278 C   0  0  0  0  0  0  0  0  0  0  0  0
   26.3408  -22.2422  -14.5682 O   0  0  0  0  0  0  0  0  0  0  0  0
   25.1227  -22.0421   -8.8034 N   0  0  0  0  0  0  0  0  0  0  0  0
   24.8244  -21.0972   -9.8082 C   0  0  0  0  0  0  0  0  0  0  0  0
   23.6393  -20.7020  -10.0329 O   0  0  0  0  0  0  0  0  0  0  0  0
   25.9033  -20.5110  -10.6618 C   0  0  0  0  0  0  0  0  0  0  0  0
   25.7281  -21.1207  -12.0472 C   0  0  2  0  0  0  0  0  0  0  0  0
   26.8584  -20.7401  -12.8855 N   0  0  0  0  0  0  0  0  0  0  0  0
   24.4502  -20.6281  -12.6139 C   0  0  0  0  0  0  0  0  0  0  0  0
   24.2729  -19.3858  -12.7227 O   0  0  0  0  0  0  0  0  0  0  0  0
   23.4178  -21.5016  -13.0399 N   0  0  0  0  0  0  0  0  0  0  0  0
   22.1494  -21.0264  -13.6070 C   0  0  1  0  0  0  0  0  0  0  0  0
   22.1081  -21.2401  -15.0779 C   0  0  0  0  0  0  0  0  0  0  0  0
   20.8260  -20.7745  -15.6392 C   0  0  0  0  0  0  0  0  0  0  0  0
   19.8070  -21.6926  -15.9276 C   0  0  0  0  0  0  0  0  0  0  0  0
   18.5981  -21.2959  -16.4269 C   0  0  0  0  0  0  0  0  0  0  0  0
   18.3120  -19.9792  -16.6748 C   0  0  0  0  0  0  0  0  0  0  0  0
   19.2936  -19.0467  -16.4022 C   0  0  0  0  0  0  0  0  0  0  0  0
   20.5135  -19.4502  -15.8975 C   0  0  0  0  0  0  0  0  0  0  0  0
   21.0559  -21.7477  -12.9425 C   0  0  0  0  0  0  0  0  0  0  0  0
   21.1379  -22.9524  -12.6358 O   0  0  0  0  0  0  0  0  0  0  0  0
   19.8488  -21.0799  -12.6242 O   0  0  0  0  0  0  0  0  0  0  0  0
  2  1  1  6
  3  2  1  0
  4  5  2  0
  4  3  1  0
  6  5  1  0
  7 12  2  0
  7  6  1  0
  8  7  1  0
  9 10  1  0
  9  8  2  0
 10 11  2  0
 11 12  1  0
 12  4  1  0
 13  2  1  0
 14 13  2  0
 16 15  1  0
 17 16  2  0
 19 18  1  1
 18 16  1  0
 19 20  1  0
 20 13  1  0
 21 19  1  0
 22 21  2  0
 23 21  1  0
 24 23  1  0
 24 25  1  6
 25 26  1  0
 26 31  1  0
 27 26  2  0
 27 28  1  0
 28 29  2  0
 29 30  1  0
 31 30  2  0
 32 34  1  0
 32 24  1  0
 33 32  2  0
M  END
$$$$
