WNF.pdb
     RDKit          3D

 34 36  0  0  1  0  0  0  0  0999 V2000
   27.6684  -22.4066  -14.1300 N   0  0  0  0  0  0  0  0  0  0  0  0
   26.6685  -21.5413  -13.5905 C   0  0  1  0  0  0  0  0  0  0  0  0
   27.2675  -20.2933  -12.9444 C   0  0  0  0  0  0  0  0  0  0  0  0
   28.1518  -20.6157  -11.8031 C   0  0  0  0  0  0  0  0  0  0  0  0
   29.5086  -20.8976  -11.8799 C   0  0  0  0  0  0  0  0  0  0  0  0
   29.9773  -21.1363  -10.6423 N   0  0  0  0  0  0  0  0  0  0  0  0
   28.9809  -21.0241   -9.7424 C   0  0  0  0  0  0  0  0  0  0  0  0
   28.9670  -21.1748   -8.3613 C   0  0  0  0  0  0  0  0  0  0  0  0
   27.7775  -20.9949   -7.6889 C   0  0  0  0  0  0  0  0  0  0  0  0
   26.6422  -20.6728   -8.3947 C   0  0  0  0  0  0  0  0  0  0  0  0
   26.6549  -20.5212   -9.7787 C   0  0  0  0  0  0  0  0  0  0  0  0
   27.8447  -20.7013  -10.4545 C   0  0  0  0  0  0  0  0  0  0  0  0
   25.6720  -21.1090  -14.6024 C   0  0  0  0  0  0  0  0  0  0  0  0
   26.1354  -20.4149  -15.5693 O   0  0  0  0  0  0  0  0  0  0  0  0
   26.2656  -21.5552  -17.9864 N   0  0  0  0  0  0  0  0  0  0  0  0
   25.0120  -21.0488  -17.5821 C   0  0  0  0  0  0  0  0  0  0  0  0
   24.6867  -19.8341  -17.7554 O   0  0  0  0  0  0  0  0  0  0  0  0
   23.9983  -21.9305  -16.9254 C   0  0  0  0  0  0  0  0  0  0  0  0
   23.4580  -21.1454  -15.7365 C   0  0  2  0  0  0  0  0  0  0  0  0
   24.2956  -21.4022  -14.5713 N   0  0  0  0  0  0  0  0  0  0  0  0
   22.0588  -21.5708  -15.4955 C   0  0  0  0  0  0  0  0  0  0  0  0
   21.8287  -22.7809  -15.2321 O   0  0  0  0  0  0  0  0  0  0  0  0
   20.9671  -20.6676  -15.5490 N   0  0  0  0  0  0  0  0  0  0  0  0
   20.4008  -20.0238  -14.3569 C   0  0  1  0  0  0  0  0  0  0  0  0
   21.4547  -19.3239  -13.5758 C   0  0  0  0  0  0  0  0  0  0  0  0
   21.2529  -19.5225  -12.1282 C   0  0  0  0  0  0  0  0  0  0  0  0
   21.4781  -20.7793  -11.5502 C   0  0  0  0  0  0  0  0  0  0  0  0
   21.3236  -20.9954  -10.2094 C   0  0  0  0  0  0  0  0  0  0  0  0
   20.9394  -19.9974   -9.3530 C   0  0  0  0  0  0  0  0  0  0  0  0
   20.7087  -18.7455   -9.8886 C   0  0  0  0  0  0  0  0  0  0  0  0
   20.8661  -18.5300  -11.2430 C   0  0  0  0  0  0  0  0  0  0  0  0
   19.3640  -19.0817  -14.7985 C   0  0  0  0  0  0  0  0  0  0  0  0
   19.5062  -18.3494  -15.7963 O   0  0  0  0  0  0  0  0  0  0  0  0
   18.1449  -18.9752  -14.0865 O   0  0  0  0  0  0  0  0  0  0  0  0
  2  1  1  6
  3  2  1  0
  4  5  2  0
  4  3  1  0
  6  5  1  0
  7 12  2  0
  7  6  1  0
  8  7  1  0
  9 10  1  0
  9  8  2  0
 10 11  2  0
 11 12  1  0
 12  4  1  0
 13  2  1  0
 14 13  2  0
 16 15  1  0
 17 16  2  0
 19 18  1  6
 18 16  1  0
 19 20  1  0
 20 13  1  0
 21 19  1  0
 22 21  2  0
 23 21  1  0
 24 23  1  0
 24 25  1  6
 25 26  1  0
 26 31  1  0
 27 26  2  0
 27 28  1  0
 28 29  2  0
 29 30  1  0
 31 30  2  0
 32 34  1  0
 32 24  1  0
 33 32  2  0
M  END
$$$$
