WNF.pdb
     RDKit          3D

 34 36  0  0  1  0  0  0  0  0999 V2000
   24.9695  -18.4193  -17.8942 N   0  0  0  0  0  0  0  0  0  0  0  0
   25.5379  -19.0820  -16.7640 C   0  0  1  0  0  0  0  0  0  0  0  0
   25.5483  -18.1989  -15.5174 C   0  0  0  0  0  0  0  0  0  0  0  0
   26.4796  -17.0561  -15.6410 C   0  0  0  0  0  0  0  0  0  0  0  0
   26.2209  -15.7502  -15.2488 C   0  0  0  0  0  0  0  0  0  0  0  0
   27.3004  -14.9921  -15.5107 N   0  0  0  0  0  0  0  0  0  0  0  0
   28.2699  -15.7461  -16.0643 C   0  0  0  0  0  0  0  0  0  0  0  0
   29.5489  -15.4247  -16.5016 C   0  0  0  0  0  0  0  0  0  0  0  0
   30.3351  -16.4229  -17.0353 C   0  0  0  0  0  0  0  0  0  0  0  0
   29.8396  -17.7027  -17.1213 C   0  0  0  0  0  0  0  0  0  0  0  0
   28.5582  -18.0262  -16.6832 C   0  0  0  0  0  0  0  0  0  0  0  0
   27.7686  -17.0283  -16.1487 C   0  0  0  0  0  0  0  0  0  0  0  0
   24.8441  -20.3511  -16.4297 C   0  0  0  0  0  0  0  0  0  0  0  0
   23.7294  -20.5416  -17.0234 O   0  0  0  0  0  0  0  0  0  0  0  0
   23.1495  -24.7949  -15.1784 N   0  0  0  0  0  0  0  0  0  0  0  0
   24.5502  -24.9176  -15.0578 C   0  0  0  0  0  0  0  0  0  0  0  0
   25.1210  -26.0446  -14.9336 O   0  0  0  0  0  0  0  0  0  0  0  0
   25.4351  -23.7123  -15.0728 C   0  0  0  0  0  0  0  0  0  0  0  0
   24.5137  -22.5101  -15.2384 C   0  0  2  0  0  0  0  0  0  0  0  0
   25.3149  -21.3283  -15.5325 N   0  0  0  0  0  0  0  0  0  0  0  0
   23.7441  -22.3377  -13.9835 C   0  0  0  0  0  0  0  0  0  0  0  0
   23.9549  -23.1308  -13.0279 O   0  0  0  0  0  0  0  0  0  0  0  0
   22.7789  -21.3127  -13.8154 N   0  0  0  0  0  0  0  0  0  0  0  0
   22.1134  -21.0411  -12.5350 C   0  0  1  0  0  0  0  0  0  0  0  0
   22.6425  -19.7998  -11.9103 C   0  0  0  0  0  0  0  0  0  0  0  0
   24.0020  -20.0179  -11.3812 C   0  0  0  0  0  0  0  0  0  0  0  0
   25.1169  -19.8687  -12.2173 C   0  0  0  0  0  0  0  0  0  0  0  0
   26.3924  -20.0402  -11.7571 C   0  0  0  0  0  0  0  0  0  0  0  0
   26.6555  -20.3682  -10.4532 C   0  0  0  0  0  0  0  0  0  0  0  0
   25.5800  -20.5234   -9.6008 C   0  0  0  0  0  0  0  0  0  0  0  0
   24.2928  -20.3490  -10.0683 C   0  0  0  0  0  0  0  0  0  0  0  0
   20.6711  -20.9259  -12.7879 C   0  0  0  0  0  0  0  0  0  0  0  0
   19.8379  -20.8071  -11.8694 O   0  0  0  0  0  0  0  0  0  0  0  0
   20.1739  -20.9479  -14.1134 O   0  0  0  0  0  0  0  0  0  0  0  0
  2  1  1  6
  3  2  1  0
  4  5  2  0
  4  3  1  0
  6  5  1  0
  7 12  2  0
  7  6  1  0
  8  7  1  0
  9 10  1  0
  9  8  2  0
 10 11  2  0
 11 12  1  0
 12  4  1  0
 13  2  1  0
 14 13  2  0
 16 15  1  0
 17 16  2  0
 19 18  1  1
 18 16  1  0
 19 20  1  0
 20 13  1  0
 21 19  1  0
 22 21  2  0
 23 21  1  0
 24 23  1  0
 24 25  1  6
 25 26  1  0
 26 31  1  0
 27 26  2  0
 27 28  1  0
 28 29  2  0
 29 30  1  0
 31 30  2  0
 32 34  1  0
 32 24  1  0
 33 32  2  0
M  END
$$$$
