VAE.pdb
     RDKit          3D

 22 21  0  0  1  0  0  0  0  0999 V2000
    7.3468  -14.6520   17.8271 C   0  0  0  0  0  0  0  0  0  0  0  0
    7.8157  -14.7506   19.2430 C   0  0  2  0  0  0  0  0  0  0  0  0
    7.2547  -16.0479   19.8100 C   0  0  0  0  0  0  0  0  0  0  0  0
    7.4329  -13.5797   20.0810 C   0  0  2  0  0  0  0  0  0  0  0  0
    7.9490  -12.3487   19.4493 N   0  0  0  0  0  0  0  0  0  0  0  0
    7.9875  -13.6325   21.4271 C   0  0  0  0  0  0  0  0  0  0  0  0
    9.2375  -13.5232   21.6000 O   0  0  0  0  0  0  0  0  0  0  0  0
    6.7756  -13.7064   24.9710 C   0  0  0  0  0  0  0  0  0  0  0  0
    7.8179  -13.8933   23.8712 C   0  0  2  0  0  0  0  0  0  0  0  0
    7.1598  -13.7998   22.5599 N   0  0  0  0  0  0  0  0  0  0  0  0
    8.3841  -15.2462   24.0005 C   0  0  0  0  0  0  0  0  0  0  0  0
    7.7765  -16.2340   23.5395 O   0  0  0  0  0  0  0  0  0  0  0  0
    9.6218  -15.4170   24.6515 N   0  0  0  0  0  0  0  0  0  0  0  0
   10.2326  -16.7644   24.6876 C   0  0  1  0  0  0  0  0  0  0  0  0
   11.6090  -16.7116   24.1234 C   0  0  0  0  0  0  0  0  0  0  0  0
   12.3383  -18.0081   24.2103 C   0  0  0  0  0  0  0  0  0  0  0  0
   13.6902  -17.8799   23.6279 C   0  0  0  0  0  0  0  0  0  0  0  0
   14.6077  -17.2947   24.2845 O   0  0  0  0  0  0  0  0  0  0  0  0
   10.1927  -17.1890   26.1159 C   0  0  0  0  0  0  0  0  0  0  0  0
   10.4582  -18.4990   26.4263 O   0  0  0  0  0  0  0  0  0  0  0  0
   13.9427  -18.3957   22.3736 O   0  0  0  0  0  0  0  0  0  0  0  0
    9.9177  -16.3671   27.0390 O   0  0  0  0  0  0  0  0  0  0  0  0
  2  3  1  1
  2  1  1  0
  4  6  1  0
  4  2  1  0
  4  5  1  6
  6 10  1  0
  7  6  2  0
  9  8  1  1
  9 11  1  0
 10  9  1  0
 11 13  1  0
 11 12  2  0
 13 14  1  0
 14 15  1  1
 14 19  1  0
 16 17  1  0
 16 15  1  0
 17 21  1  0
 18 17  2  0
 19 20  1  0
 22 19  2  0
M  END
$$$$
