VAE.pdb
     RDKit          3D

 22 21  0  0  1  0  0  0  0  0999 V2000
    6.8450  -16.5561   20.4646 C   0  0  0  0  0  0  0  0  0  0  0  0
    7.3930  -16.0535   21.7613 C   0  0  2  0  0  0  0  0  0  0  0  0
    6.6269  -16.7580   22.8731 C   0  0  0  0  0  0  0  0  0  0  0  0
    7.3215  -14.5723   21.9050 C   0  0  2  0  0  0  0  0  0  0  0  0
    8.0851  -13.9467   20.8066 N   0  0  0  0  0  0  0  0  0  0  0  0
    7.8970  -14.0891   23.1530 C   0  0  0  0  0  0  0  0  0  0  0  0
    9.1519  -14.1175   23.3228 O   0  0  0  0  0  0  0  0  0  0  0  0
    6.7495  -12.4203   26.3156 C   0  0  0  0  0  0  0  0  0  0  0  0
    7.7575  -13.1386   25.4219 C   0  0  2  0  0  0  0  0  0  0  0  0
    7.0851  -13.5791   24.1909 N   0  0  0  0  0  0  0  0  0  0  0  0
    8.2313  -14.3364   26.1350 C   0  0  0  0  0  0  0  0  0  0  0  0
    7.4747  -15.3147   26.3023 O   0  0  0  0  0  0  0  0  0  0  0  0
    9.5505  -14.3690   26.6285 N   0  0  0  0  0  0  0  0  0  0  0  0
    9.9940  -15.5445   27.4106 C   0  0  1  0  0  0  0  0  0  0  0  0
   11.1809  -16.1656   26.7617 C   0  0  0  0  0  0  0  0  0  0  0  0
   10.8861  -16.7640   25.4293 C   0  0  0  0  0  0  0  0  0  0  0  0
   12.1033  -17.3764   24.8578 C   0  0  0  0  0  0  0  0  0  0  0  0
   12.0546  -17.9302   23.7149 O   0  0  0  0  0  0  0  0  0  0  0  0
   10.2672  -15.0366   28.7851 C   0  0  0  0  0  0  0  0  0  0  0  0
   10.5751  -15.9353   29.7754 O   0  0  0  0  0  0  0  0  0  0  0  0
   13.2823  -17.3428   25.5732 O   0  0  0  0  0  0  0  0  0  0  0  0
   10.2177  -13.7997   29.0513 O   0  0  0  0  0  0  0  0  0  0  0  0
  2  3  1  1
  2  1  1  0
  4  6  1  0
  4  2  1  0
  4  5  1  6
  6 10  1  0
  7  6  2  0
  9  8  1  1
  9 11  1  0
 10  9  1  0
 11 13  1  0
 11 12  2  0
 13 14  1  0
 14 15  1  6
 14 19  1  0
 16 17  1  0
 16 15  1  0
 17 21  1  0
 18 17  2  0
 19 20  1  0
 22 19  2  0
M  END
$$$$
