VAE.pdb
     RDKit          3D

 22 21  0  0  1  0  0  0  0  0999 V2000
    8.8486  -19.5687   19.4953 C   0  0  0  0  0  0  0  0  0  0  0  0
    7.4520  -19.0385   19.5453 C   0  0  2  0  0  0  0  0  0  0  0  0
    6.6023  -19.9331   18.6526 C   0  0  0  0  0  0  0  0  0  0  0  0
    7.3424  -17.6077   19.1444 C   0  0  2  0  0  0  0  0  0  0  0  0
    7.7900  -17.4665   17.7442 N   0  0  0  0  0  0  0  0  0  0  0  0
    8.1737  -16.7220   19.9487 C   0  0  0  0  0  0  0  0  0  0  0  0
    9.3819  -16.5227   19.6248 O   0  0  0  0  0  0  0  0  0  0  0  0
    7.7647  -14.3421   22.8191 C   0  0  0  0  0  0  0  0  0  0  0  0
    8.5702  -15.1675   21.8187 C   0  0  2  0  0  0  0  0  0  0  0  0
    7.6626  -16.0671   21.0916 N   0  0  0  0  0  0  0  0  0  0  0  0
    9.5257  -15.9968   22.5718 C   0  0  0  0  0  0  0  0  0  0  0  0
    9.2172  -17.1519   22.9296 O   0  0  0  0  0  0  0  0  0  0  0  0
   10.7953  -15.4735   22.8863 N   0  0  0  0  0  0  0  0  0  0  0  0
   11.8467  -16.3912   23.3786 C   0  0  1  0  0  0  0  0  0  0  0  0
   13.1899  -15.8667   23.0096 C   0  0  0  0  0  0  0  0  0  0  0  0
   14.3153  -16.6952   23.5267 C   0  0  0  0  0  0  0  0  0  0  0  0
   15.6111  -16.1375   23.0872 C   0  0  0  0  0  0  0  0  0  0  0  0
   16.5686  -16.0354   23.9168 O   0  0  0  0  0  0  0  0  0  0  0  0
   11.6349  -16.4972   24.8503 C   0  0  0  0  0  0  0  0  0  0  0  0
   12.1817  -17.5600   25.5245 O   0  0  0  0  0  0  0  0  0  0  0  0
   15.7681  -15.7302   21.7786 O   0  0  0  0  0  0  0  0  0  0  0  0
   10.9620  -15.6303   25.4822 O   0  0  0  0  0  0  0  0  0  0  0  0
  2  3  1  6
  2  1  1  0
  4  6  1  0
  4  2  1  0
  4  5  1  6
  6 10  1  0
  7  6  2  0
  9  8  1  1
  9 11  1  0
 10  9  1  0
 11 13  1  0
 11 12  2  0
 13 14  1  0
 14 15  1  1
 14 19  1  0
 16 17  1  0
 16 15  1  0
 17 21  1  0
 18 17  2  0
 19 20  1  0
 22 19  2  0
M  END
$$$$
