VAE.pdb
     RDKit          3D

 22 21  0  0  1  0  0  0  0  0999 V2000
    7.7625  -16.2430   20.9076 C   0  0  0  0  0  0  0  0  0  0  0  0
    6.6385  -15.2578   20.8973 C   0  0  2  0  0  0  0  0  0  0  0  0
    5.9773  -15.3487   19.5284 C   0  0  0  0  0  0  0  0  0  0  0  0
    7.0646  -13.8636   21.2045 C   0  0  2  0  0  0  0  0  0  0  0  0
    8.0376  -13.4238   20.1844 N   0  0  0  0  0  0  0  0  0  0  0  0
    7.7188  -13.7365   22.4999 C   0  0  0  0  0  0  0  0  0  0  0  0
    8.9767  -13.8569   22.5869 O   0  0  0  0  0  0  0  0  0  0  0  0
    6.8135  -12.8951   26.0439 C   0  0  0  0  0  0  0  0  0  0  0  0
    7.7207  -13.4464   24.9466 C   0  0  2  0  0  0  0  0  0  0  0  0
    6.9812  -13.4750   23.6763 N   0  0  0  0  0  0  0  0  0  0  0  0
    8.0758  -14.8315   25.2975 C   0  0  0  0  0  0  0  0  0  0  0  0
    7.2554  -15.7572   25.1317 O   0  0  0  0  0  0  0  0  0  0  0  0
    9.3539  -15.1040   25.8239 N   0  0  0  0  0  0  0  0  0  0  0  0
    9.7587  -16.5125   26.0296 C   0  0  1  0  0  0  0  0  0  0  0  0
   11.0138  -16.7930   25.2802 C   0  0  0  0  0  0  0  0  0  0  0  0
   11.5532  -18.1624   25.5135 C   0  0  0  0  0  0  0  0  0  0  0  0
   12.4737  -18.5471   24.4236 C   0  0  0  0  0  0  0  0  0  0  0  0
   13.4536  -17.7931   24.1291 O   0  0  0  0  0  0  0  0  0  0  0  0
    9.8972  -16.6829   27.5039 C   0  0  0  0  0  0  0  0  0  0  0  0
    9.9809  -17.9515   28.0203 O   0  0  0  0  0  0  0  0  0  0  0  0
   12.2585  -19.7222   23.7338 O   0  0  0  0  0  0  0  0  0  0  0  0
    9.9362  -15.6836   28.2808 O   0  0  0  0  0  0  0  0  0  0  0  0
  2  3  1  6
  2  1  1  0
  4  6  1  0
  4  2  1  0
  4  5  1  6
  6 10  1  0
  7  6  2  0
  9  8  1  1
  9 11  1  0
 10  9  1  0
 11 13  1  0
 11 12  2  0
 13 14  1  0
 14 15  1  6
 14 19  1  0
 16 17  1  0
 16 15  1  0
 17 21  1  0
 18 17  2  0
 19 20  1  0
 22 19  2  0
M  END
$$$$
