VAE.pdb
     RDKit          3D

 22 21  0  0  1  0  0  0  0  0999 V2000
    7.9000  -16.0407   21.6398 C   0  0  0  0  0  0  0  0  0  0  0  0
    6.7623  -15.0740   21.5677 C   0  0  2  0  0  0  0  0  0  0  0  0
    6.1301  -15.2300   20.1911 C   0  0  0  0  0  0  0  0  0  0  0  0
    7.1618  -13.6622   21.8264 C   0  0  2  0  0  0  0  0  0  0  0  0
    8.2088  -13.2753   20.8594 N   0  0  0  0  0  0  0  0  0  0  0  0
    7.7158  -13.4583   23.1583 C   0  0  0  0  0  0  0  0  0  0  0  0
    8.9568  -13.6150   23.3571 O   0  0  0  0  0  0  0  0  0  0  0  0
    6.5591  -12.2012   26.5013 C   0  0  0  0  0  0  0  0  0  0  0  0
    7.5605  -12.8303   25.5357 C   0  0  2  0  0  0  0  0  0  0  0  0
    6.8983  -13.0814   24.2474 N   0  0  0  0  0  0  0  0  0  0  0  0
    7.9814  -14.1272   26.0913 C   0  0  0  0  0  0  0  0  0  0  0  0
    7.2675  -15.1403   25.9456 O   0  0  0  0  0  0  0  0  0  0  0  0
    9.2008  -14.2150   26.7913 N   0  0  0  0  0  0  0  0  0  0  0  0
    9.6991  -15.5478   27.1980 C   0  0  1  0  0  0  0  0  0  0  0  0
   10.8057  -15.9710   26.2970 C   0  0  0  0  0  0  0  0  0  0  0  0
   11.4615  -17.2419   26.7158 C   0  0  0  0  0  0  0  0  0  0  0  0
   12.5368  -17.6040   25.7693 C   0  0  0  0  0  0  0  0  0  0  0  0
   12.5210  -18.7403   25.2002 O   0  0  0  0  0  0  0  0  0  0  0  0
   10.1147  -15.4072   28.6226 C   0  0  0  0  0  0  0  0  0  0  0  0
   10.3919  -16.5388   29.3476 O   0  0  0  0  0  0  0  0  0  0  0  0
   13.5506  -16.7039   25.5141 O   0  0  0  0  0  0  0  0  0  0  0  0
   10.2129  -14.2696   29.1700 O   0  0  0  0  0  0  0  0  0  0  0  0
  2  3  1  6
  2  1  1  0
  4  6  1  0
  4  2  1  0
  4  5  1  6
  6 10  1  0
  7  6  2  0
  9  8  1  1
  9 11  1  0
 10  9  1  0
 11 13  1  0
 11 12  2  0
 13 14  1  0
 14 15  1  6
 14 19  1  0
 16 17  1  0
 16 15  1  0
 17 21  1  0
 18 17  2  0
 19 20  1  0
 22 19  2  0
M  END
$$$$
