VAE.pdb
     RDKit          3D

 22 21  0  0  1  0  0  0  0  0999 V2000
    7.2357  -14.9009   18.2197 C   0  0  0  0  0  0  0  0  0  0  0  0
    7.7245  -14.9207   19.6321 C   0  0  2  0  0  0  0  0  0  0  0  0
    7.0955  -16.1331   20.3055 C   0  0  0  0  0  0  0  0  0  0  0  0
    7.4306  -13.6676   20.3826 C   0  0  2  0  0  0  0  0  0  0  0  0
    8.0806  -12.5335   19.6955 N   0  0  0  0  0  0  0  0  0  0  0  0
    7.9374  -13.6853   21.7483 C   0  0  0  0  0  0  0  0  0  0  0  0
    9.1813  -13.5793   21.9620 O   0  0  0  0  0  0  0  0  0  0  0  0
    6.5972  -13.5312   25.2361 C   0  0  0  0  0  0  0  0  0  0  0  0
    7.6761  -13.8181   24.1947 C   0  0  2  0  0  0  0  0  0  0  0  0
    7.0692  -13.8145   22.8556 N   0  0  0  0  0  0  0  0  0  0  0  0
    8.2116  -15.1659   24.4479 C   0  0  0  0  0  0  0  0  0  0  0  0
    7.5439  -16.1784   24.1537 O   0  0  0  0  0  0  0  0  0  0  0  0
    9.4885  -15.3036   25.0271 N   0  0  0  0  0  0  0  0  0  0  0  0
   10.0054  -16.6616   25.3074 C   0  0  1  0  0  0  0  0  0  0  0  0
   11.4559  -16.7286   24.9802 C   0  0  0  0  0  0  0  0  0  0  0  0
   11.7312  -16.8874   23.5243 C   0  0  0  0  0  0  0  0  0  0  0  0
   13.1834  -16.8116   23.2624 C   0  0  0  0  0  0  0  0  0  0  0  0
   14.0071  -17.0048   24.2108 O   0  0  0  0  0  0  0  0  0  0  0  0
    9.7091  -16.9189   26.7454 C   0  0  0  0  0  0  0  0  0  0  0  0
    9.9329  -18.1732   27.2549 O   0  0  0  0  0  0  0  0  0  0  0  0
   13.6315  -16.5288   21.9887 O   0  0  0  0  0  0  0  0  0  0  0  0
    9.2558  -16.0062   27.4972 O   0  0  0  0  0  0  0  0  0  0  0  0
  2  3  1  1
  2  1  1  0
  4  6  1  0
  4  2  1  0
  4  5  1  6
  6 10  1  0
  7  6  2  0
  9  8  1  1
  9 11  1  0
 10  9  1  0
 11 13  1  0
 11 12  2  0
 13 14  1  0
 14 15  1  1
 14 19  1  0
 16 17  1  0
 16 15  1  0
 17 21  1  0
 18 17  2  0
 19 20  1  0
 22 19  2  0
M  END
$$$$
