EAF.pdb
     RDKit          3D

 26 26  0  0  1  0  0  0  0  0999 V2000
    7.4364  -18.8257   20.9629 N   0  0  0  0  0  0  0  0  0  0  0  0
    8.8169  -18.7326   20.6778 C   0  0  1  0  0  0  0  0  0  0  0  0
    9.1402  -19.0515   19.2620 C   0  0  0  0  0  0  0  0  0  0  0  0
    8.3541  -18.2656   18.2851 C   0  0  0  0  0  0  0  0  0  0  0  0
    8.6785  -18.3888   16.8584 C   0  0  0  0  0  0  0  0  0  0  0  0
    9.4189  -17.6241   16.2068 O   0  0  0  0  0  0  0  0  0  0  0  0
    9.3182  -17.3798   21.0743 C   0  0  0  0  0  0  0  0  0  0  0  0
   10.5069  -17.0544   20.8428 O   0  0  0  0  0  0  0  0  0  0  0  0
    8.1374  -19.4482   16.0894 O   0  0  0  0  0  0  0  0  0  0  0  0
    7.9842  -14.1144   21.5762 C   0  0  0  0  0  0  0  0  0  0  0  0
    9.0206  -15.1443   22.0254 C   0  0  2  0  0  0  0  0  0  0  0  0
    8.4673  -16.4573   21.7096 N   0  0  0  0  0  0  0  0  0  0  0  0
    9.3147  -14.9766   23.4661 C   0  0  0  0  0  0  0  0  0  0  0  0
    9.8751  -13.9690   23.9663 O   0  0  0  0  0  0  0  0  0  0  0  0
    8.9345  -16.0277   24.3275 N   0  0  0  0  0  0  0  0  0  0  0  0
    9.0854  -15.9408   25.7833 C   0  0  1  0  0  0  0  0  0  0  0  0
    7.6487  -15.9232   26.3106 C   0  0  0  0  0  0  0  0  0  0  0  0
    7.1310  -14.5523   26.2865 C   0  0  0  0  0  0  0  0  0  0  0  0
    5.9390  -14.2009   25.7001 C   0  0  0  0  0  0  0  0  0  0  0  0
    5.5079  -12.8817   25.7239 C   0  0  0  0  0  0  0  0  0  0  0  0
    6.2685  -11.9100   26.3344 C   0  0  0  0  0  0  0  0  0  0  0  0
    7.4770  -12.2517   26.9316 C   0  0  0  0  0  0  0  0  0  0  0  0
    7.8959  -13.5600   26.9035 C   0  0  0  0  0  0  0  0  0  0  0  0
    9.8474  -17.1087   26.2373 C   0  0  0  0  0  0  0  0  0  0  0  0
   10.2570  -17.2146   27.5472 O   0  0  0  0  0  0  0  0  0  0  0  0
   10.1313  -18.0209   25.4325 O   0  0  0  0  0  0  0  0  0  0  0  0
  2  1  1  6
  3  2  1  0
  4  3  1  0
  5  9  1  0
  5  4  1  0
  6  5  2  0
  7  8  2  0
  7  2  1  0
 11 10  1  1
 11 12  1  0
 12  7  1  0
 13 11  1  0
 14 13  2  0
 15 13  1  0
 16 15  1  0
 17 18  1  0
 16 17  1  1
 18 23  2  0
 19 20  2  0
 19 18  1  0
 20 21  1  0
 21 22  2  0
 23 22  1  0
 24 25  1  0
 24 16  1  0
 26 24  2  0
M  END
$$$$
