EAF.pdb
     RDKit          3D

 26 26  0  0  1  0  0  0  0  0999 V2000
    6.4926  -14.3720   19.6414 N   0  0  0  0  0  0  0  0  0  0  0  0
    7.6279  -14.9908   20.2107 C   0  0  1  0  0  0  0  0  0  0  0  0
    8.8283  -14.1135   20.2113 C   0  0  0  0  0  0  0  0  0  0  0  0
    9.7064  -14.3130   19.0369 C   0  0  0  0  0  0  0  0  0  0  0  0
   11.1123  -14.6720   19.2619 C   0  0  0  0  0  0  0  0  0  0  0  0
   12.1035  -13.9794   18.9531 O   0  0  0  0  0  0  0  0  0  0  0  0
    7.2930  -15.4805   21.5843 C   0  0  0  0  0  0  0  0  0  0  0  0
    6.6351  -14.7569   22.3693 O   0  0  0  0  0  0  0  0  0  0  0  0
   11.4478  -15.9010   19.8809 O   0  0  0  0  0  0  0  0  0  0  0  0
    7.2759  -18.6958   23.3478 C   0  0  0  0  0  0  0  0  0  0  0  0
    7.3185  -17.1678   23.3571 C   0  0  2  0  0  0  0  0  0  0  0  0
    7.7094  -16.7537   22.0133 N   0  0  0  0  0  0  0  0  0  0  0  0
    8.2540  -16.6904   24.3998 C   0  0  0  0  0  0  0  0  0  0  0  0
    9.4501  -16.3668   24.1897 O   0  0  0  0  0  0  0  0  0  0  0  0
    7.7566  -16.5963   25.7170 N   0  0  0  0  0  0  0  0  0  0  0  0
    8.5935  -16.1667   26.8415 C   0  0  1  0  0  0  0  0  0  0  0  0
    7.6141  -15.4892   27.8028 C   0  0  0  0  0  0  0  0  0  0  0  0
    7.2341  -14.1757   27.2755 C   0  0  0  0  0  0  0  0  0  0  0  0
    5.9508  -13.8457   26.9116 C   0  0  0  0  0  0  0  0  0  0  0  0
    5.6636  -12.5769   26.4274 C   0  0  0  0  0  0  0  0  0  0  0  0
    6.6598  -11.6346   26.3057 C   0  0  0  0  0  0  0  0  0  0  0  0
    7.9630  -11.9552   26.6701 C   0  0  0  0  0  0  0  0  0  0  0  0
    8.2382  -13.2133   27.1486 C   0  0  0  0  0  0  0  0  0  0  0  0
    9.2332  -17.3535   27.4186 C   0  0  0  0  0  0  0  0  0  0  0  0
    8.8612  -18.6170   27.0184 O   0  0  0  0  0  0  0  0  0  0  0  0
   10.1258  -17.2242   28.2830 O   0  0  0  0  0  0  0  0  0  0  0  0
  2  1  1  1
  3  2  1  0
  4  3  1  0
  5  9  1  0
  5  4  1  0
  6  5  2  0
  7  8  2  0
  7  2  1  0
 11 10  1  6
 11 12  1  0
 12  7  1  0
 13 11  1  0
 14 13  2  0
 15 13  1  0
 16 15  1  0
 17 18  1  0
 16 17  1  1
 18 23  2  0
 19 20  2  0
 19 18  1  0
 20 21  1  0
 21 22  2  0
 23 22  1  0
 24 25  1  0
 24 16  1  0
 26 24  2  0
M  END
$$$$
