EAF.pdb
     RDKit          3D

 26 26  0  0  1  0  0  0  0  0999 V2000
    6.7461  -20.1673   21.9510 N   0  0  0  0  0  0  0  0  0  0  0  0
    6.1528  -18.9363   22.3091 C   0  0  1  0  0  0  0  0  0  0  0  0
    5.7630  -18.8748   23.7426 C   0  0  0  0  0  0  0  0  0  0  0  0
    6.7339  -19.5295   24.6474 C   0  0  0  0  0  0  0  0  0  0  0  0
    6.5495  -19.3907   26.0975 C   0  0  0  0  0  0  0  0  0  0  0  0
    6.4721  -20.3269   26.9190 O   0  0  0  0  0  0  0  0  0  0  0  0
    7.0659  -17.8132   21.9298 C   0  0  0  0  0  0  0  0  0  0  0  0
    8.2147  -18.0553   21.4891 O   0  0  0  0  0  0  0  0  0  0  0  0
    6.4421  -18.1070   26.6865 O   0  0  0  0  0  0  0  0  0  0  0  0
    6.6576  -14.2644   21.1392 C   0  0  0  0  0  0  0  0  0  0  0  0
    7.5425  -15.4443   21.5405 C   0  0  2  0  0  0  0  0  0  0  0  0
    6.6509  -16.4756   22.0613 N   0  0  0  0  0  0  0  0  0  0  0  0
    8.5554  -15.0091   22.5280 C   0  0  0  0  0  0  0  0  0  0  0  0
    9.4026  -14.1026   22.3273 O   0  0  0  0  0  0  0  0  0  0  0  0
    8.5600  -15.6648   23.7774 N   0  0  0  0  0  0  0  0  0  0  0  0
    9.4118  -15.2283   24.8881 C   0  0  1  0  0  0  0  0  0  0  0  0
    8.5168  -15.3581   26.1228 C   0  0  0  0  0  0  0  0  0  0  0  0
    7.7196  -14.1391   26.2847 C   0  0  0  0  0  0  0  0  0  0  0  0
    8.2623  -12.9084   26.5658 C   0  0  0  0  0  0  0  0  0  0  0  0
    7.4442  -11.7947   26.6968 C   0  0  0  0  0  0  0  0  0  0  0  0
    6.0805  -11.9092   26.5472 C   0  0  0  0  0  0  0  0  0  0  0  0
    5.5179  -13.1488   26.2629 C   0  0  0  0  0  0  0  0  0  0  0  0
    6.3351  -14.2458   26.1347 C   0  0  0  0  0  0  0  0  0  0  0  0
   10.5870  -16.1041   24.9384 C   0  0  0  0  0  0  0  0  0  0  0  0
   10.7137  -17.1608   24.0653 O   0  0  0  0  0  0  0  0  0  0  0  0
   11.4864  -15.8952   25.7798 O   0  0  0  0  0  0  0  0  0  0  0  0
  2  1  1  1
  3  2  1  0
  4  3  1  0
  5  9  1  0
  5  4  1  0
  6  5  2  0
  7  8  2  0
  7  2  1  0
 11 10  1  1
 11 12  1  0
 12  7  1  0
 13 11  1  0
 14 13  2  0
 15 13  1  0
 16 15  1  0
 17 18  1  0
 16 17  1  1
 18 23  2  0
 19 20  2  0
 19 18  1  0
 20 21  1  0
 21 22  2  0
 23 22  1  0
 24 25  1  0
 24 16  1  0
 26 24  2  0
M  END
$$$$
