EAF.pdb
     RDKit          3D

 26 26  0  0  1  0  0  0  0  0999 V2000
   10.4557  -18.1274   21.9914 N   0  0  0  0  0  0  0  0  0  0  0  0
    9.1531  -17.9778   21.4654 C   0  0  1  0  0  0  0  0  0  0  0  0
    8.8973  -18.8523   20.2905 C   0  0  0  0  0  0  0  0  0  0  0  0
   10.0025  -18.8578   19.3064 C   0  0  0  0  0  0  0  0  0  0  0  0
    9.8948  -19.7318   18.1314 C   0  0  0  0  0  0  0  0  0  0  0  0
    8.8788  -20.3661   17.7811 O   0  0  0  0  0  0  0  0  0  0  0  0
    8.1481  -18.1945   22.5525 C   0  0  0  0  0  0  0  0  0  0  0  0
    6.9215  -18.1576   22.2945 O   0  0  0  0  0  0  0  0  0  0  0  0
   11.0058  -19.9182   17.2728 O   0  0  0  0  0  0  0  0  0  0  0  0
    8.0901  -19.4817   25.9798 C   0  0  0  0  0  0  0  0  0  0  0  0
    7.5213  -18.5763   24.8875 C   0  0  2  0  0  0  0  0  0  0  0  0
    8.5625  -18.4418   23.8738 N   0  0  0  0  0  0  0  0  0  0  0  0
    7.1109  -17.2768   25.4648 C   0  0  0  0  0  0  0  0  0  0  0  0
    6.2490  -17.1394   26.3691 O   0  0  0  0  0  0  0  0  0  0  0  0
    7.7382  -16.1195   24.9566 N   0  0  0  0  0  0  0  0  0  0  0  0
    7.3951  -14.7730   25.4244 C   0  0  1  0  0  0  0  0  0  0  0  0
    8.7491  -14.0973   25.6533 C   0  0  0  0  0  0  0  0  0  0  0  0
    9.1538  -14.2644   27.0519 C   0  0  0  0  0  0  0  0  0  0  0  0
   10.1539  -15.1153   27.4568 C   0  0  0  0  0  0  0  0  0  0  0  0
   10.4889  -15.2148   28.8001 C   0  0  0  0  0  0  0  0  0  0  0  0
    9.8239  -14.4633   29.7425 C   0  0  0  0  0  0  0  0  0  0  0  0
    8.8095  -13.5982   29.3468 C   0  0  0  0  0  0  0  0  0  0  0  0
    8.4846  -13.5059   28.0150 C   0  0  0  0  0  0  0  0  0  0  0  0
    6.5954  -14.1150   24.3860 C   0  0  0  0  0  0  0  0  0  0  0  0
    6.0166  -12.8877   24.6170 O   0  0  0  0  0  0  0  0  0  0  0  0
    6.4336  -14.6682   23.2777 O   0  0  0  0  0  0  0  0  0  0  0  0
  2  1  1  1
  3  2  1  0
  4  3  1  0
  5  9  1  0
  5  4  1  0
  6  5  2  0
  7  8  2  0
  7  2  1  0
 11 10  1  1
 11 12  1  0
 12  7  1  0
 13 11  1  0
 14 13  2  0
 15 13  1  0
 16 15  1  0
 17 18  1  0
 16 17  1  6
 18 23  2  0
 19 20  2  0
 19 18  1  0
 20 21  1  0
 21 22  2  0
 23 22  1  0
 24 25  1  0
 24 16  1  0
 26 24  2  0
M  END
$$$$
