EAF.pdb
     RDKit          3D

 26 26  0  0  1  0  0  0  0  0999 V2000
    7.4687  -14.1314   18.5437 N   0  0  0  0  0  0  0  0  0  0  0  0
    8.5789  -14.4011   19.3746 C   0  0  1  0  0  0  0  0  0  0  0  0
    9.3537  -13.1808   19.7227 C   0  0  0  0  0  0  0  0  0  0  0  0
   10.4132  -12.8542   18.7425 C   0  0  0  0  0  0  0  0  0  0  0  0
   11.7973  -12.7304   19.2167 C   0  0  0  0  0  0  0  0  0  0  0  0
   12.2371  -13.1440   20.3090 O   0  0  0  0  0  0  0  0  0  0  0  0
    8.1223  -15.1395   20.5933 C   0  0  0  0  0  0  0  0  0  0  0  0
    7.0772  -14.7871   21.1901 O   0  0  0  0  0  0  0  0  0  0  0  0
   12.7759  -12.0956   18.4133 O   0  0  0  0  0  0  0  0  0  0  0  0
    8.7336  -18.3209   22.2569 C   0  0  0  0  0  0  0  0  0  0  0  0
    8.4077  -16.8298   22.3402 C   0  0  2  0  0  0  0  0  0  0  0  0
    8.8552  -16.2348   21.0851 N   0  0  0  0  0  0  0  0  0  0  0  0
    9.0615  -16.2305   23.5250 C   0  0  0  0  0  0  0  0  0  0  0  0
   10.2327  -15.7749   23.5381 O   0  0  0  0  0  0  0  0  0  0  0  0
    8.3073  -16.1725   24.7162 N   0  0  0  0  0  0  0  0  0  0  0  0
    8.8539  -15.6297   25.9637 C   0  0  1  0  0  0  0  0  0  0  0  0
    7.6214  -15.1737   26.7481 C   0  0  0  0  0  0  0  0  0  0  0  0
    7.3311  -13.7708   26.4392 C   0  0  0  0  0  0  0  0  0  0  0  0
    8.2108  -12.9382   25.7904 C   0  0  0  0  0  0  0  0  0  0  0  0
    7.8629  -11.6212   25.5235 C   0  0  0  0  0  0  0  0  0  0  0  0
    6.6336  -11.1333   25.9054 C   0  0  0  0  0  0  0  0  0  0  0  0
    5.7336  -11.9648   26.5630 C   0  0  0  0  0  0  0  0  0  0  0  0
    6.0862  -13.2671   26.8229 C   0  0  0  0  0  0  0  0  0  0  0  0
    9.6011  -16.6948   26.6404 C   0  0  0  0  0  0  0  0  0  0  0  0
    9.4087  -18.0143   26.2989 O   0  0  0  0  0  0  0  0  0  0  0  0
   10.4225  -16.4091   27.5372 O   0  0  0  0  0  0  0  0  0  0  0  0
  2  1  1  1
  3  2  1  0
  4  3  1  0
  5  9  1  0
  5  4  1  0
  6  5  2  0
  7  8  2  0
  7  2  1  0
 11 10  1  6
 11 12  1  0
 12  7  1  0
 13 11  1  0
 14 13  2  0
 15 13  1  0
 16 15  1  0
 17 18  1  0
 16 17  1  1
 18 23  2  0
 19 20  2  0
 19 18  1  0
 20 21  1  0
 21 22  2  0
 23 22  1  0
 24 25  1  0
 24 16  1  0
 26 24  2  0
M  END
$$$$
