EAF.pdb
     RDKit          3D

 26 26  0  0  1  0  0  0  0  0999 V2000
    6.7793  -19.9177   21.0409 N   0  0  0  0  0  0  0  0  0  0  0  0
    6.8275  -19.0294   22.1383 C   0  0  1  0  0  0  0  0  0  0  0  0
    7.4326  -19.6384   23.3522 C   0  0  0  0  0  0  0  0  0  0  0  0
    6.5817  -20.6732   23.9808 C   0  0  0  0  0  0  0  0  0  0  0  0
    6.3883  -20.6371   25.4359 C   0  0  0  0  0  0  0  0  0  0  0  0
    5.6263  -21.3762   26.0921 O   0  0  0  0  0  0  0  0  0  0  0  0
    7.5321  -17.7732   21.7329 C   0  0  0  0  0  0  0  0  0  0  0  0
    8.6616  -17.8299   21.1911 O   0  0  0  0  0  0  0  0  0  0  0  0
    7.0990  -19.7043   26.2303 O   0  0  0  0  0  0  0  0  0  0  0  0
    6.7675  -14.2296   21.2581 C   0  0  0  0  0  0  0  0  0  0  0  0
    7.7455  -15.3363   21.6522 C   0  0  2  0  0  0  0  0  0  0  0  0
    6.9406  -16.5160   21.9526 N   0  0  0  0  0  0  0  0  0  0  0  0
    8.5743  -14.8999   22.7980 C   0  0  0  0  0  0  0  0  0  0  0  0
    9.4086  -13.9608   22.7571 O   0  0  0  0  0  0  0  0  0  0  0  0
    8.4070  -15.5940   24.0151 N   0  0  0  0  0  0  0  0  0  0  0  0
    9.2035  -15.2879   25.2074 C   0  0  1  0  0  0  0  0  0  0  0  0
    8.1795  -15.2454   26.3440 C   0  0  0  0  0  0  0  0  0  0  0  0
    7.5245  -13.9346   26.3693 C   0  0  0  0  0  0  0  0  0  0  0  0
    6.1618  -13.7654   26.3181 C   0  0  0  0  0  0  0  0  0  0  0  0
    5.6115  -12.4916   26.3554 C   0  0  0  0  0  0  0  0  0  0  0  0
    6.4233  -11.3832   26.4437 C   0  0  0  0  0  0  0  0  0  0  0  0
    7.8040  -11.5400   26.4961 C   0  0  0  0  0  0  0  0  0  0  0  0
    8.3401  -12.8045   26.4589 C   0  0  0  0  0  0  0  0  0  0  0  0
   10.2033  -16.3473   25.3772 C   0  0  0  0  0  0  0  0  0  0  0  0
   10.1961  -17.4574   24.5633 O   0  0  0  0  0  0  0  0  0  0  0  0
   11.0738  -16.2480   26.2677 O   0  0  0  0  0  0  0  0  0  0  0  0
  2  1  1  6
  3  2  1  0
  4  3  1  0
  5  9  1  0
  5  4  1  0
  6  5  2  0
  7  8  2  0
  7  2  1  0
 11 10  1  1
 11 12  1  0
 12  7  1  0
 13 11  1  0
 14 13  2  0
 15 13  1  0
 16 15  1  0
 17 18  1  0
 16 17  1  1
 18 23  2  0
 19 20  2  0
 19 18  1  0
 20 21  1  0
 21 22  2  0
 23 22  1  0
 24 25  1  0
 24 16  1  0
 26 24  2  0
M  END
$$$$
