MHH.pdb
     RDKit          3D

 29 30  0  0  1  0  0  0  0  0999 V2000
   28.2324  -11.8708  -14.9016 C   0  0  0  0  0  0  0  0  0  0  0  0
   27.9517  -12.9491  -16.3138 S   0  0  0  0  0  0  0  0  0  0  0  0
   26.5473  -14.0838  -16.0021 C   0  0  0  0  0  0  0  0  0  0  0  0
   25.4405  -13.2833  -15.3833 C   0  0  0  0  0  0  0  0  0  0  0  0
   24.0677  -13.8509  -15.5954 C   0  0  2  0  0  0  0  0  0  0  0  0
   24.2298  -14.9930  -16.4835 N   0  0  0  0  0  0  0  0  0  0  0  0
   23.0971  -12.8825  -16.1446 C   0  0  0  0  0  0  0  0  0  0  0  0
   23.0569  -12.6112  -17.3523 O   0  0  0  0  0  0  0  0  0  0  0  0
   22.1940  -12.2517  -15.2704 N   0  0  0  0  0  0  0  0  0  0  0  0
   21.2140  -11.2765  -15.6740 C   0  0  1  0  0  0  0  0  0  0  0  0
   19.8470  -11.8315  -15.4630 C   0  0  0  0  0  0  0  0  0  0  0  0
   19.5535  -13.0219  -16.2792 C   0  0  0  0  0  0  0  0  0  0  0  0
   19.2687  -14.2566  -15.7029 C   0  0  0  0  0  0  0  0  0  0  0  0
   19.0465  -15.1343  -16.6973 N   0  0  0  0  0  0  0  0  0  0  0  0
   19.1811  -14.4978  -17.8699 C   0  0  0  0  0  0  0  0  0  0  0  0
   19.4883  -13.2195  -17.5916 N   0  0  0  0  0  0  0  0  0  0  0  0
   21.4095   -9.9632  -15.0154 C   0  0  0  0  0  0  0  0  0  0  0  0
   21.5998   -9.8185  -13.7810 O   0  0  0  0  0  0  0  0  0  0  0  0
   21.3809   -8.7969  -15.8271 N   0  0  0  0  0  0  0  0  0  0  0  0
   21.5682   -7.4588  -15.2920 C   0  0  1  0  0  0  0  0  0  0  0  0
   21.8354   -6.5580  -16.4873 C   0  0  0  0  0  0  0  0  0  0  0  0
   22.0960   -5.1692  -16.1390 C   0  0  0  0  0  0  0  0  0  0  0  0
   23.0465   -4.7204  -15.2559 C   0  0  0  0  0  0  0  0  0  0  0  0
   22.9952   -3.3772  -15.1896 N   0  0  0  0  0  0  0  0  0  0  0  0
   22.0129   -3.0032  -16.0322 C   0  0  0  0  0  0  0  0  0  0  0  0
   21.4660   -4.0856  -16.6090 N   0  0  0  0  0  0  0  0  0  0  0  0
   20.4145   -7.0064  -14.5003 C   0  0  0  0  0  0  0  0  0  0  0  0
   20.5978   -6.4915  -13.3760 O   0  0  0  0  0  0  0  0  0  0  0  0
   19.1421   -7.1470  -14.9902 O   0  0  0  0  0  0  0  0  0  0  0  0
  2  1  1  0
  3  4  1  0
  3  2  1  0
  4  5  1  0
  5  6  1  6
  7  8  2  0
  7  5  1  0
  9  7  1  0
 10  9  1  0
 10 11  1  1
 12 16  1  0
 12 11  1  0
 13 12  2  0
 14 13  1  0
 14 15  1  0
 15 16  2  0
 17 10  1  0
 18 17  2  0
 19 17  1  0
 20 21  1  6
 20 19  1  0
 21 22  1  0
 22 26  1  0
 22 23  2  0
 23 24  1  0
 25 24  1  0
 26 25  2  0
 27 20  1  0
 28 27  2  0
 29 27  1  0
M  END
$$$$
