MHH.pdb
     RDKit          3D

 29 30  0  0  1  0  0  0  0  0999 V2000
   24.4648  -17.5135  -22.1701 C   0  0  0  0  0  0  0  0  0  0  0  0
   23.5322  -16.0518  -21.6912 S   0  0  0  0  0  0  0  0  0  0  0  0
   22.5516  -16.3684  -20.1762 C   0  0  0  0  0  0  0  0  0  0  0  0
   21.8274  -15.1027  -19.8267 C   0  0  0  0  0  0  0  0  0  0  0  0
   22.4180  -14.3454  -18.6736 C   0  0  2  0  0  0  0  0  0  0  0  0
   22.5548  -15.3008  -17.5838 N   0  0  0  0  0  0  0  0  0  0  0  0
   21.6231  -13.1723  -18.2570 C   0  0  0  0  0  0  0  0  0  0  0  0
   21.3765  -12.2407  -19.0348 O   0  0  0  0  0  0  0  0  0  0  0  0
   21.1335  -13.1131  -16.9401 N   0  0  0  0  0  0  0  0  0  0  0  0
   20.3506  -12.0271  -16.4088 C   0  0  1  0  0  0  0  0  0  0  0  0
   19.4569  -12.5412  -15.3326 C   0  0  0  0  0  0  0  0  0  0  0  0
   18.2673  -13.2512  -15.8328 C   0  0  0  0  0  0  0  0  0  0  0  0
   17.9216  -13.2471  -17.1812 C   0  0  0  0  0  0  0  0  0  0  0  0
   16.7997  -13.9753  -17.3213 N   0  0  0  0  0  0  0  0  0  0  0  0
   16.4316  -14.4332  -16.1159 C   0  0  0  0  0  0  0  0  0  0  0  0
   17.3355  -13.9818  -15.2299 N   0  0  0  0  0  0  0  0  0  0  0  0
   21.1842  -10.8841  -15.9672 C   0  0  0  0  0  0  0  0  0  0  0  0
   22.2604  -11.0057  -15.3285 O   0  0  0  0  0  0  0  0  0  0  0  0
   20.7417   -9.5713  -16.2844 N   0  0  0  0  0  0  0  0  0  0  0  0
   21.4577   -8.3762  -15.8710 C   0  0  1  0  0  0  0  0  0  0  0  0
   21.4486   -7.4408  -17.0697 C   0  0  0  0  0  0  0  0  0  0  0  0
   22.0882   -6.1564  -16.8267 C   0  0  0  0  0  0  0  0  0  0  0  0
   23.3822   -5.9618  -16.4115 C   0  0  0  0  0  0  0  0  0  0  0  0
   23.6199   -4.6423  -16.2951 N   0  0  0  0  0  0  0  0  0  0  0  0
   22.4711   -4.0285  -16.6390 C   0  0  0  0  0  0  0  0  0  0  0  0
   21.5412   -4.9421  -16.9616 N   0  0  0  0  0  0  0  0  0  0  0  0
   20.8674   -7.7557  -14.6756 C   0  0  0  0  0  0  0  0  0  0  0  0
   19.6584   -7.9379  -14.4155 O   0  0  0  0  0  0  0  0  0  0  0  0
   21.6370   -6.9801  -13.8478 O   0  0  0  0  0  0  0  0  0  0  0  0
  2  1  1  0
  3  4  1  0
  3  2  1  0
  4  5  1  0
  5  6  1  1
  7  8  2  0
  7  5  1  0
  9  7  1  0
 10  9  1  0
 10 11  1  1
 12 16  1  0
 12 11  1  0
 13 12  2  0
 14 13  1  0
 14 15  1  0
 15 16  2  0
 17 10  1  0
 18 17  2  0
 19 17  1  0
 20 21  1  6
 20 19  1  0
 21 22  1  0
 22 26  1  0
 22 23  2  0
 23 24  1  0
 25 24  1  0
 26 25  2  0
 27 20  1  0
 28 27  2  0
 29 27  1  0
M  END
$$$$
