MHH.pdb
     RDKit          3D

 29 30  0  0  1  0  0  0  0  0999 V2000
   45.7680  -12.3976   -5.2992 C   0  0  0  0  0  0  0  0  0  0  0  0
   45.5124  -10.6667   -5.7164 S   0  0  0  0  0  0  0  0  0  0  0  0
   45.7530  -10.3833   -7.5105 C   0  0  0  0  0  0  0  0  0  0  0  0
   44.6119   -9.5414   -7.9981 C   0  0  0  0  0  0  0  0  0  0  0  0
   43.2702  -10.2095   -7.9269 C   0  0  2  0  0  0  0  0  0  0  0  0
   43.3627  -11.4027   -8.7559 N   0  0  0  0  0  0  0  0  0  0  0  0
   42.1486   -9.3490   -8.3550 C   0  0  0  0  0  0  0  0  0  0  0  0
   41.7154   -9.3692   -9.5149 O   0  0  0  0  0  0  0  0  0  0  0  0
   41.5574   -8.4830   -7.4179 N   0  0  0  0  0  0  0  0  0  0  0  0
   40.5313   -7.5215   -7.7295 C   0  0  1  0  0  0  0  0  0  0  0  0
   39.3479   -7.7592   -6.8553 C   0  0  0  0  0  0  0  0  0  0  0  0
   38.5372   -8.9233   -7.2516 C   0  0  0  0  0  0  0  0  0  0  0  0
   38.1916   -9.9214   -6.3450 C   0  0  0  0  0  0  0  0  0  0  0  0
   37.4568  -10.8374   -7.0006 N   0  0  0  0  0  0  0  0  0  0  0  0
   37.3301  -10.4514   -8.2787 C   0  0  0  0  0  0  0  0  0  0  0  0
   37.9927   -9.2894   -8.4071 N   0  0  0  0  0  0  0  0  0  0  0  0
   41.0202   -6.1237   -7.6683 C   0  0  0  0  0  0  0  0  0  0  0  0
   41.6732   -5.6502   -6.7038 O   0  0  0  0  0  0  0  0  0  0  0  0
   40.7346   -5.2663   -8.7652 N   0  0  0  0  0  0  0  0  0  0  0  0
   41.1087   -3.8622   -8.7871 C   0  0  1  0  0  0  0  0  0  0  0  0
   41.3394   -3.5079  -10.2476 C   0  0  0  0  0  0  0  0  0  0  0  0
   41.6806   -2.1114  -10.4740 C   0  0  0  0  0  0  0  0  0  0  0  0
   42.7897   -1.4605   -9.9932 C   0  0  0  0  0  0  0  0  0  0  0  0
   42.7699   -0.1800  -10.4069 N   0  0  0  0  0  0  0  0  0  0  0  0
   41.6484   -0.0465  -11.1412 C   0  0  0  0  0  0  0  0  0  0  0  0
   40.9862   -1.2140  -11.1842 N   0  0  0  0  0  0  0  0  0  0  0  0
   40.0940   -3.0031   -8.1589 C   0  0  0  0  0  0  0  0  0  0  0  0
   40.4331   -1.9115   -7.6530 O   0  0  0  0  0  0  0  0  0  0  0  0
   38.7807   -3.3946   -8.1266 O   0  0  0  0  0  0  0  0  0  0  0  0
  2  1  1  0
  3  4  1  0
  3  2  1  0
  4  5  1  0
  5  6  1  6
  7  8  2  0
  7  5  1  0
  9  7  1  0
 10  9  1  0
 10 11  1  1
 12 16  1  0
 12 11  1  0
 13 12  2  0
 14 13  1  0
 14 15  1  0
 15 16  2  0
 17 10  1  0
 18 17  2  0
 19 17  1  0
 20 21  1  6
 20 19  1  0
 21 22  1  0
 22 26  1  0
 22 23  2  0
 23 24  1  0
 25 24  1  0
 26 25  2  0
 27 20  1  0
 28 27  2  0
 29 27  1  0
M  END
$$$$
