MHH.pdb
     RDKit          3D

 29 30  0  0  1  0  0  0  0  0999 V2000
   27.6516  -11.9035  -14.7806 C   0  0  0  0  0  0  0  0  0  0  0  0
   27.7241  -13.2865  -15.9286 S   0  0  0  0  0  0  0  0  0  0  0  0
   26.0600  -13.6780  -16.5877 C   0  0  0  0  0  0  0  0  0  0  0  0
   25.2819  -12.3980  -16.6565 C   0  0  0  0  0  0  0  0  0  0  0  0
   23.7952  -12.5660  -16.5428 C   0  0  2  0  0  0  0  0  0  0  0  0
   23.4049  -13.4839  -17.6032 N   0  0  0  0  0  0  0  0  0  0  0  0
   23.0404  -11.2994  -16.6300 C   0  0  0  0  0  0  0  0  0  0  0  0
   23.2590  -10.4687  -17.5221 O   0  0  0  0  0  0  0  0  0  0  0  0
   22.0462  -11.0307  -15.6725 N   0  0  0  0  0  0  0  0  0  0  0  0
   21.2740   -9.8161  -15.6169 C   0  0  1  0  0  0  0  0  0  0  0  0
   19.9373  -10.1058  -15.0247 C   0  0  0  0  0  0  0  0  0  0  0  0
   19.0487  -10.8809  -15.9073 C   0  0  0  0  0  0  0  0  0  0  0  0
   19.0629  -10.7199  -17.2899 C   0  0  0  0  0  0  0  0  0  0  0  0
   18.1497  -11.5580  -17.8119 N   0  0  0  0  0  0  0  0  0  0  0  0
   17.5668  -12.2349  -16.8117 C   0  0  0  0  0  0  0  0  0  0  0  0
   18.1275  -11.8080  -15.6675 N   0  0  0  0  0  0  0  0  0  0  0  0
   21.9855   -8.7177  -14.9212 C   0  0  0  0  0  0  0  0  0  0  0  0
   22.5285   -8.8367  -13.7934 O   0  0  0  0  0  0  0  0  0  0  0  0
   22.0593   -7.4538  -15.5670 N   0  0  0  0  0  0  0  0  0  0  0  0
   22.8383   -6.3446  -15.0428 C   0  0  1  0  0  0  0  0  0  0  0  0
   23.4324   -5.6363  -16.2499 C   0  0  0  0  0  0  0  0  0  0  0  0
   24.3589   -6.4513  -17.0213 C   0  0  0  0  0  0  0  0  0  0  0  0
   25.3007   -7.3099  -16.5108 C   0  0  0  0  0  0  0  0  0  0  0  0
   25.9712   -7.8899  -17.5233 N   0  0  0  0  0  0  0  0  0  0  0  0
   25.4401   -7.3864  -18.6543 C   0  0  0  0  0  0  0  0  0  0  0  0
   24.4634   -6.5148  -18.3544 N   0  0  0  0  0  0  0  0  0  0  0  0
   22.0334   -5.4413  -14.2071 C   0  0  0  0  0  0  0  0  0  0  0  0
   20.7957   -5.6014  -14.1352 O   0  0  0  0  0  0  0  0  0  0  0  0
   22.6347   -4.4268  -13.5082 O   0  0  0  0  0  0  0  0  0  0  0  0
  2  1  1  0
  3  4  1  0
  3  2  1  0
  4  5  1  0
  5  6  1  6
  7  8  2  0
  7  5  1  0
  9  7  1  0
 10  9  1  0
 10 11  1  1
 12 16  1  0
 12 11  1  0
 13 12  2  0
 14 13  1  0
 14 15  1  0
 15 16  2  0
 17 10  1  0
 18 17  2  0
 19 17  1  0
 20 21  1  6
 20 19  1  0
 21 22  1  0
 22 26  1  0
 22 23  2  0
 23 24  1  0
 25 24  1  0
 26 25  2  0
 27 20  1  0
 28 27  2  0
 29 27  1  0
M  END
$$$$
