MHH.pdb
     RDKit          3D

 29 30  0  0  1  0  0  0  0  0999 V2000
   29.8008  -10.6350  -17.8761 C   0  0  0  0  0  0  0  0  0  0  0  0
   30.7314   -9.1044  -18.0401 S   0  0  0  0  0  0  0  0  0  0  0  0
   30.0033   -8.0311  -19.3343 C   0  0  0  0  0  0  0  0  0  0  0  0
   28.6348   -7.6247  -18.8757 C   0  0  0  0  0  0  0  0  0  0  0  0
   27.8832   -6.7620  -19.8465 C   0  0  2  0  0  0  0  0  0  0  0  0
   28.7262   -5.6028  -20.1013 N   0  0  0  0  0  0  0  0  0  0  0  0
   26.5446   -6.3538  -19.3740 C   0  0  0  0  0  0  0  0  0  0  0  0
   26.3738   -5.3276  -18.7023 O   0  0  0  0  0  0  0  0  0  0  0  0
   25.4343   -7.1541  -19.6969 N   0  0  0  0  0  0  0  0  0  0  0  0
   24.0779   -6.8616  -19.3105 C   0  0  1  0  0  0  0  0  0  0  0  0
   23.2189   -6.7999  -20.5269 C   0  0  0  0  0  0  0  0  0  0  0  0
   21.8158   -6.4481  -20.2497 C   0  0  0  0  0  0  0  0  0  0  0  0
   21.4404   -5.1603  -19.8781 C   0  0  0  0  0  0  0  0  0  0  0  0
   20.1077   -5.1554  -19.6972 N   0  0  0  0  0  0  0  0  0  0  0  0
   19.6368   -6.3871  -19.9408 C   0  0  0  0  0  0  0  0  0  0  0  0
   20.6897   -7.1530  -20.2736 N   0  0  0  0  0  0  0  0  0  0  0  0
   23.5598   -7.8004  -18.2875 C   0  0  0  0  0  0  0  0  0  0  0  0
   23.5927   -9.0521  -18.4027 O   0  0  0  0  0  0  0  0  0  0  0  0
   22.9919   -7.2543  -17.1046 N   0  0  0  0  0  0  0  0  0  0  0  0
   22.3126   -8.0655  -16.1085 C   0  0  1  0  0  0  0  0  0  0  0  0
   23.3650   -8.4388  -15.0766 C   0  0  0  0  0  0  0  0  0  0  0  0
   24.2213   -9.5462  -15.4741 C   0  0  0  0  0  0  0  0  0  0  0  0
   24.1591  -10.2322  -16.6617 C   0  0  0  0  0  0  0  0  0  0  0  0
   25.1065  -11.1879  -16.6752 N   0  0  0  0  0  0  0  0  0  0  0  0
   25.7492  -11.0874  -15.4955 C   0  0  0  0  0  0  0  0  0  0  0  0
   25.2160  -10.0943  -14.7655 N   0  0  0  0  0  0  0  0  0  0  0  0
   21.1654   -7.3691  -15.5075 C   0  0  0  0  0  0  0  0  0  0  0  0
   21.1302   -6.1196  -15.5058 O   0  0  0  0  0  0  0  0  0  0  0  0
   20.1370   -8.0842  -14.9506 O   0  0  0  0  0  0  0  0  0  0  0  0
  2  1  1  0
  3  4  1  0
  3  2  1  0
  4  5  1  0
  5  6  1  1
  7  8  2  0
  7  5  1  0
  9  7  1  0
 10  9  1  0
 10 11  1  6
 12 16  1  0
 12 11  1  0
 13 12  2  0
 14 13  1  0
 14 15  1  0
 15 16  2  0
 17 10  1  0
 18 17  2  0
 19 17  1  0
 20 21  1  1
 20 19  1  0
 21 22  1  0
 22 26  1  0
 22 23  2  0
 23 24  1  0
 25 24  1  0
 26 25  2  0
 27 20  1  0
 28 27  2  0
 29 27  1  0
M  END
$$$$
