MHH.pdb
     RDKit          3D

 29 30  0  0  1  0  0  0  0  0999 V2000
   14.1308  -16.5050  -15.6492 C   0  0  0  0  0  0  0  0  0  0  0  0
   15.4070  -15.2578  -15.4220 S   0  0  0  0  0  0  0  0  0  0  0  0
   16.9020  -15.6655  -16.3995 C   0  0  0  0  0  0  0  0  0  0  0  0
   17.9530  -14.6461  -16.0756 C   0  0  0  0  0  0  0  0  0  0  0  0
   19.2518  -14.8382  -16.8021 C   0  0  2  0  0  0  0  0  0  0  0  0
   19.8285  -16.0728  -16.2899 N   0  0  0  0  0  0  0  0  0  0  0  0
   20.1932  -13.7095  -16.6554 C   0  0  0  0  0  0  0  0  0  0  0  0
   20.9052  -13.5789  -15.6506 O   0  0  0  0  0  0  0  0  0  0  0  0
   20.2822  -12.7574  -17.6866 N   0  0  0  0  0  0  0  0  0  0  0  0
   21.2402  -11.6825  -17.7240 C   0  0  1  0  0  0  0  0  0  0  0  0
   21.5641  -11.3570  -19.1419 C   0  0  0  0  0  0  0  0  0  0  0  0
   22.5191  -12.2892  -19.7651 C   0  0  0  0  0  0  0  0  0  0  0  0
   23.1359  -13.3043  -19.0393 C   0  0  0  0  0  0  0  0  0  0  0  0
   23.9429  -13.9786  -19.8775 N   0  0  0  0  0  0  0  0  0  0  0  0
   23.8547  -13.4258  -21.0961 C   0  0  0  0  0  0  0  0  0  0  0  0
   22.9865  -12.4042  -21.0037 N   0  0  0  0  0  0  0  0  0  0  0  0
   20.8014  -10.4985  -16.9478 C   0  0  0  0  0  0  0  0  0  0  0  0
   19.6017  -10.2490  -16.6664 O   0  0  0  0  0  0  0  0  0  0  0  0
   21.7957   -9.5903  -16.4936 N   0  0  0  0  0  0  0  0  0  0  0  0
   21.4789   -8.3738  -15.7646 C   0  0  1  0  0  0  0  0  0  0  0  0
   22.8023   -7.6622  -15.5322 C   0  0  0  0  0  0  0  0  0  0  0  0
   22.6752   -6.3694  -14.8762 C   0  0  0  0  0  0  0  0  0  0  0  0
   21.6310   -5.9629  -14.0830 C   0  0  0  0  0  0  0  0  0  0  0  0
   21.8601   -4.7087  -13.6518 N   0  0  0  0  0  0  0  0  0  0  0  0
   23.0449   -4.3470  -14.1810 C   0  0  0  0  0  0  0  0  0  0  0  0
   23.5416   -5.3500  -14.9231 N   0  0  0  0  0  0  0  0  0  0  0  0
   20.5103   -7.5293  -16.4794 C   0  0  0  0  0  0  0  0  0  0  0  0
   20.6982   -7.2541  -17.6842 O   0  0  0  0  0  0  0  0  0  0  0  0
   19.4046   -7.0444  -15.8302 O   0  0  0  0  0  0  0  0  0  0  0  0
  2  1  1  0
  3  4  1  0
  3  2  1  0
  4  5  1  0
  5  6  1  1
  7  8  2  0
  7  5  1  0
  9  7  1  0
 10  9  1  0
 10 11  1  6
 12 16  1  0
 12 11  1  0
 13 12  2  0
 14 13  1  0
 14 15  1  0
 15 16  2  0
 17 10  1  0
 18 17  2  0
 19 17  1  0
 20 21  1  6
 20 19  1  0
 21 22  1  0
 22 26  1  0
 22 23  2  0
 23 24  1  0
 25 24  1  0
 26 25  2  0
 27 20  1  0
 28 27  2  0
 29 27  1  0
M  END
$$$$
