MHH.pdb
     RDKit          3D

 29 30  0  0  1  0  0  0  0  0999 V2000
   26.3562  -19.4110   -7.4100 C   0  0  0  0  0  0  0  0  0  0  0  0
   27.3471  -20.8954   -7.6340 S   0  0  0  0  0  0  0  0  0  0  0  0
   27.6934  -21.1896   -9.4090 C   0  0  0  0  0  0  0  0  0  0  0  0
   26.6690  -20.4385  -10.2059 C   0  0  0  0  0  0  0  0  0  0  0  0
   25.9402  -21.2676  -11.2223 C   0  0  2  0  0  0  0  0  0  0  0  0
   26.9621  -21.9562  -11.9975 N   0  0  0  0  0  0  0  0  0  0  0  0
   25.0416  -20.4886  -12.0983 C   0  0  0  0  0  0  0  0  0  0  0  0
   24.1500  -19.7621  -11.6391 O   0  0  0  0  0  0  0  0  0  0  0  0
   25.2043  -20.5756  -13.4924 N   0  0  0  0  0  0  0  0  0  0  0  0
   24.4160  -19.8471  -14.4528 C   0  0  1  0  0  0  0  0  0  0  0  0
   25.0984  -19.8760  -15.7775 C   0  0  0  0  0  0  0  0  0  0  0  0
   26.2906  -19.0144  -15.8537 C   0  0  0  0  0  0  0  0  0  0  0  0
   26.6307  -18.1374  -14.8276 C   0  0  0  0  0  0  0  0  0  0  0  0
   27.7573  -17.4978  -15.1885 N   0  0  0  0  0  0  0  0  0  0  0  0
   28.1337  -17.9398  -16.3973 C   0  0  0  0  0  0  0  0  0  0  0  0
   27.2301  -18.8579  -16.7802 N   0  0  0  0  0  0  0  0  0  0  0  0
   23.0132  -20.3209  -14.5180 C   0  0  0  0  0  0  0  0  0  0  0  0
   22.6844  -21.5318  -14.6003 O   0  0  0  0  0  0  0  0  0  0  0  0
   21.9766  -19.3492  -14.4853 N   0  0  0  0  0  0  0  0  0  0  0  0
   20.5665  -19.7004  -14.4688 C   0  0  1  0  0  0  0  0  0  0  0  0
   19.9342  -18.8634  -13.3681 C   0  0  0  0  0  0  0  0  0  0  0  0
   20.1864  -19.3602  -12.0238 C   0  0  0  0  0  0  0  0  0  0  0  0
   20.9070  -20.4822  -11.6970 C   0  0  0  0  0  0  0  0  0  0  0  0
   20.9273  -20.6254  -10.3589 N   0  0  0  0  0  0  0  0  0  0  0  0
   20.2190  -19.5910   -9.8661 C   0  0  0  0  0  0  0  0  0  0  0  0
   19.7686  -18.8226  -10.8712 N   0  0  0  0  0  0  0  0  0  0  0  0
   19.9212  -19.4856  -15.7725 C   0  0  0  0  0  0  0  0  0  0  0  0
   20.4972  -18.7988  -16.6437 O   0  0  0  0  0  0  0  0  0  0  0  0
   18.6929  -20.0348  -16.0347 O   0  0  0  0  0  0  0  0  0  0  0  0
  2  1  1  0
  3  4  1  0
  3  2  1  0
  4  5  1  0
  5  6  1  6
  7  8  2  0
  7  5  1  0
  9  7  1  0
 10  9  1  0
 10 11  1  6
 12 16  1  0
 12 11  1  0
 13 12  2  0
 14 13  1  0
 14 15  1  0
 15 16  2  0
 17 10  1  0
 18 17  2  0
 19 17  1  0
 20 21  1  1
 20 19  1  0
 21 22  1  0
 22 26  1  0
 22 23  2  0
 23 24  1  0
 25 24  1  0
 26 25  2  0
 27 20  1  0
 28 27  2  0
 29 27  1  0
M  END
$$$$
