MHH.pdb
     RDKit          3D

 29 30  0  0  1  0  0  0  0  0999 V2000
   28.3091   -7.9028  -18.2996 C   0  0  0  0  0  0  0  0  0  0  0  0
   28.2421   -9.4747  -17.4278 S   0  0  0  0  0  0  0  0  0  0  0  0
   27.2243  -10.6900  -18.3466 C   0  0  0  0  0  0  0  0  0  0  0  0
   25.8088  -10.1952  -18.3460 C   0  0  0  0  0  0  0  0  0  0  0  0
   24.9159  -10.8632  -17.3419 C   0  0  2  0  0  0  0  0  0  0  0  0
   24.9311  -12.2834  -17.6618 N   0  0  0  0  0  0  0  0  0  0  0  0
   23.5362  -10.3362  -17.3224 C   0  0  0  0  0  0  0  0  0  0  0  0
   22.7312  -10.5789  -18.2316 O   0  0  0  0  0  0  0  0  0  0  0  0
   23.1270   -9.5366  -16.2404 N   0  0  0  0  0  0  0  0  0  0  0  0
   21.8532   -8.8698  -16.1546 C   0  0  1  0  0  0  0  0  0  0  0  0
   21.1778   -9.2540  -14.8828 C   0  0  0  0  0  0  0  0  0  0  0  0
   20.4862  -10.5530  -14.9429 C   0  0  0  0  0  0  0  0  0  0  0  0
   20.4792  -11.3294  -16.0982 C   0  0  0  0  0  0  0  0  0  0  0  0
   19.7736  -12.4449  -15.8410 N   0  0  0  0  0  0  0  0  0  0  0  0
   19.3403  -12.3961  -14.5728 C   0  0  0  0  0  0  0  0  0  0  0  0
   19.7841  -11.2410  -14.0488 N   0  0  0  0  0  0  0  0  0  0  0  0
   21.9637   -7.4018  -16.3265 C   0  0  0  0  0  0  0  0  0  0  0  0
   22.8048   -6.6861  -15.7255 O   0  0  0  0  0  0  0  0  0  0  0  0
   21.0658   -6.7640  -17.2247 N   0  0  0  0  0  0  0  0  0  0  0  0
   21.0689   -5.3295  -17.4571 C   0  0  1  0  0  0  0  0  0  0  0  0
   20.6918   -5.1359  -18.9173 C   0  0  0  0  0  0  0  0  0  0  0  0
   21.6961   -5.6083  -19.8586 C   0  0  0  0  0  0  0  0  0  0  0  0
   22.9941   -5.1697  -19.9458 C   0  0  0  0  0  0  0  0  0  0  0  0
   23.6244   -5.8343  -20.9319 N   0  0  0  0  0  0  0  0  0  0  0  0
   22.7121   -6.6800  -21.4489 C   0  0  0  0  0  0  0  0  0  0  0  0
   21.5432   -6.5460  -20.8016 N   0  0  0  0  0  0  0  0  0  0  0  0
   20.1619   -4.6134  -16.5478 C   0  0  0  0  0  0  0  0  0  0  0  0
   19.4684   -5.2567  -15.7305 O   0  0  0  0  0  0  0  0  0  0  0  0
   20.0747   -3.2462  -16.5935 O   0  0  0  0  0  0  0  0  0  0  0  0
  2  1  1  0
  3  4  1  0
  3  2  1  0
  4  5  1  0
  5  6  1  6
  7  8  2  0
  7  5  1  0
  9  7  1  0
 10  9  1  0
 10 11  1  1
 12 16  1  0
 12 11  1  0
 13 12  2  0
 14 13  1  0
 14 15  1  0
 15 16  2  0
 17 10  1  0
 18 17  2  0
 19 17  1  0
 20 21  1  6
 20 19  1  0
 21 22  1  0
 22 26  1  0
 22 23  2  0
 23 24  1  0
 25 24  1  0
 26 25  2  0
 27 20  1  0
 28 27  2  0
 29 27  1  0
M  END
$$$$
