FME.pdb
     RDKit          3D

 29 29  0  0  1  0  0  0  0  0999 V2000
    7.9225  -16.7408   26.7577 N   0  0  0  0  0  0  0  0  0  0  0  0
    6.8297  -16.6778   25.8141 C   0  0  1  0  0  0  0  0  0  0  0  0
    5.8614  -15.5711   26.1320 C   0  0  0  0  0  0  0  0  0  0  0  0
    6.5345  -14.2757   26.2550 C   0  0  0  0  0  0  0  0  0  0  0  0
    5.9069  -13.1498   25.7910 C   0  0  0  0  0  0  0  0  0  0  0  0
    6.5234  -11.9132   25.8980 C   0  0  0  0  0  0  0  0  0  0  0  0
    7.7859  -11.7985   26.4771 C   0  0  0  0  0  0  0  0  0  0  0  0
    8.4032  -12.9381   26.9383 C   0  0  0  0  0  0  0  0  0  0  0  0
    7.7997  -14.1733   26.8373 C   0  0  0  0  0  0  0  0  0  0  0  0
    7.3242  -16.4319   24.4298 C   0  0  0  0  0  0  0  0  0  0  0  0
    6.4961  -16.4755   23.4852 O   0  0  0  0  0  0  0  0  0  0  0  0
    8.4045  -12.6371   19.6366 C   0  0  0  0  0  0  0  0  0  0  0  0
    7.3424  -12.7942   21.0731 S   0  0  0  0  0  0  0  0  0  0  0  0
    7.4315  -14.4414   21.8297 C   0  0  0  0  0  0  0  0  0  0  0  0
    8.8689  -14.6606   22.2125 C   0  0  0  0  0  0  0  0  0  0  0  0
    9.0698  -16.0565   22.7178 C   0  0  2  0  0  0  0  0  0  0  0  0
    8.6723  -16.1535   24.1300 N   0  0  0  0  0  0  0  0  0  0  0  0
   10.4442  -16.5724   22.6317 C   0  0  0  0  0  0  0  0  0  0  0  0
   11.4850  -15.8494   22.8137 O   0  0  0  0  0  0  0  0  0  0  0  0
   10.6834  -17.9458   22.3318 N   0  0  0  0  0  0  0  0  0  0  0  0
   11.9544  -18.3228   21.7104 C   0  0  1  0  0  0  0  0  0  0  0  0
   12.1145  -17.6161   20.3922 C   0  0  0  0  0  0  0  0  0  0  0  0
   13.4446  -17.9119   19.7880 C   0  0  0  0  0  0  0  0  0  0  0  0
   13.5850  -17.2240   18.4577 C   0  0  0  0  0  0  0  0  0  0  0  0
   14.7109  -17.2167   17.9117 O   0  0  0  0  0  0  0  0  0  0  0  0
   13.0571  -18.1139   22.6683 C   0  0  0  0  0  0  0  0  0  0  0  0
   14.2270  -18.4716   22.5062 O   0  0  0  0  0  0  0  0  0  0  0  0
   12.5159  -16.6114   17.8382 O   0  0  0  0  0  0  0  0  0  0  0  0
   12.7528  -17.4483   23.8747 O   0  0  0  0  0  0  0  0  0  0  0  0
  2  1  1  1
  2  3  1  0
  3  4  1  0
  4  9  2  0
  5  4  1  0
  5  6  2  0
  6  7  1  0
  7  8  2  0
  9  8  1  0
 10 11  2  0
 10  2  1  0
 13 12  1  0
 14 15  1  0
 14 13  1  0
 16 15  1  1
 16 17  1  0
 17 10  1  0
 18 16  1  0
 18 20  1  0
 19 18  2  0
 21 20  1  0
 21 26  1  0
 21 22  1  6
 23 22  1  0
 24 23  1  0
 25 24  2  0
 26 27  2  0
 26 29  1  0
 28 24  1  0
M  END
$$$$
