FME.pdb
     RDKit          3D

 29 29  0  0  1  0  0  0  0  0999 V2000
    8.6757  -16.2887   21.8935 N   0  0  0  0  0  0  0  0  0  0  0  0
    9.6163  -15.1954   21.9860 C   0  0  1  0  0  0  0  0  0  0  0  0
    8.9349  -13.8543   22.0108 C   0  0  0  0  0  0  0  0  0  0  0  0
    8.2120  -13.5863   20.7651 C   0  0  0  0  0  0  0  0  0  0  0  0
    7.0106  -14.2061   20.5430 C   0  0  0  0  0  0  0  0  0  0  0  0
    6.3079  -13.9667   19.3727 C   0  0  0  0  0  0  0  0  0  0  0  0
    6.8121  -13.0953   18.4090 C   0  0  0  0  0  0  0  0  0  0  0  0
    8.0196  -12.4805   18.6464 C   0  0  0  0  0  0  0  0  0  0  0  0
    8.7273  -12.7109   19.8068 C   0  0  0  0  0  0  0  0  0  0  0  0
   10.4310  -15.2868   23.2305 C   0  0  0  0  0  0  0  0  0  0  0  0
   11.4506  -14.5586   23.3295 O   0  0  0  0  0  0  0  0  0  0  0  0
    7.3817  -11.1491   26.3549 C   0  0  0  0  0  0  0  0  0  0  0  0
    6.7433  -12.8153   26.1742 S   0  0  0  0  0  0  0  0  0  0  0  0
    7.9685  -14.0823   26.6069 C   0  0  0  0  0  0  0  0  0  0  0  0
    8.4961  -14.6297   25.3097 C   0  0  0  0  0  0  0  0  0  0  0  0
    9.6463  -15.5561   25.5610 C   0  0  2  0  0  0  0  0  0  0  0  0
   10.1137  -16.1484   24.2991 N   0  0  0  0  0  0  0  0  0  0  0  0
    9.3735  -16.6754   26.4750 C   0  0  0  0  0  0  0  0  0  0  0  0
    8.8666  -16.5299   27.6416 O   0  0  0  0  0  0  0  0  0  0  0  0
    9.6720  -18.0147   26.0871 N   0  0  0  0  0  0  0  0  0  0  0  0
    9.5188  -19.0869   27.0722 C   0  0  1  0  0  0  0  0  0  0  0  0
    9.4683  -20.4213   26.3795 C   0  0  0  0  0  0  0  0  0  0  0  0
   10.6650  -20.6162   25.5125 C   0  0  0  0  0  0  0  0  0  0  0  0
   10.6945  -22.0149   24.9600 C   0  0  0  0  0  0  0  0  0  0  0  0
    9.6649  -22.4506   24.3980 O   0  0  0  0  0  0  0  0  0  0  0  0
   10.5606  -18.9614   28.1094 C   0  0  0  0  0  0  0  0  0  0  0  0
   10.6301  -19.6323   29.1428 O   0  0  0  0  0  0  0  0  0  0  0  0
   11.8147  -22.8134   25.0586 O   0  0  0  0  0  0  0  0  0  0  0  0
   11.5662  -17.9924   27.9068 O   0  0  0  0  0  0  0  0  0  0  0  0
  2  1  1  1
  2  3  1  0
  3  4  1  0
  4  9  2  0
  5  4  1  0
  5  6  2  0
  6  7  1  0
  7  8  2  0
  9  8  1  0
 10 11  2  0
 10  2  1  0
 13 12  1  0
 14 15  1  0
 14 13  1  0
 16 15  1  6
 16 17  1  0
 17 10  1  0
 18 16  1  0
 18 20  1  0
 19 18  2  0
 21 20  1  0
 21 26  1  0
 21 22  1  6
 23 22  1  0
 24 23  1  0
 25 24  2  0
 26 27  2  0
 26 29  1  0
 28 24  1  0
M  END
$$$$
