FME.pdb
     RDKit          3D

 29 29  0  0  1  0  0  0  0  0999 V2000
    6.5833  -17.6448   26.3284 N   0  0  0  0  0  0  0  0  0  0  0  0
    6.8520  -16.4885   25.5041 C   0  0  1  0  0  0  0  0  0  0  0  0
    7.8901  -15.5828   26.1087 C   0  0  0  0  0  0  0  0  0  0  0  0
    7.3611  -14.2408   26.3646 C   0  0  0  0  0  0  0  0  0  0  0  0
    8.1897  -13.2849   26.8903 C   0  0  0  0  0  0  0  0  0  0  0  0
    7.7120  -12.0080   27.1392 C   0  0  0  0  0  0  0  0  0  0  0  0
    6.3867  -11.6800   26.8593 C   0  0  0  0  0  0  0  0  0  0  0  0
    5.5669  -12.6507   26.3318 C   0  0  0  0  0  0  0  0  0  0  0  0
    6.0311  -13.9241   26.0800 C   0  0  0  0  0  0  0  0  0  0  0  0
    7.3598  -16.8881   24.1611 C   0  0  0  0  0  0  0  0  0  0  0  0
    7.3823  -18.1113   23.8728 O   0  0  0  0  0  0  0  0  0  0  0  0
    7.4119  -12.3445   21.8604 C   0  0  0  0  0  0  0  0  0  0  0  0
    8.3678  -12.8302   20.4228 S   0  0  0  0  0  0  0  0  0  0  0  0
    8.9486  -14.5469   20.5188 C   0  0  0  0  0  0  0  0  0  0  0  0
    7.7442  -15.3905   20.8323 C   0  0  0  0  0  0  0  0  0  0  0  0
    8.0900  -16.4440   21.8398 C   0  0  2  0  0  0  0  0  0  0  0  0
    7.8148  -15.9624   23.2014 N   0  0  0  0  0  0  0  0  0  0  0  0
    9.4884  -16.8990   21.8296 C   0  0  0  0  0  0  0  0  0  0  0  0
   10.0424  -17.4637   20.8230 O   0  0  0  0  0  0  0  0  0  0  0  0
   10.3138  -16.7244   22.9792 N   0  0  0  0  0  0  0  0  0  0  0  0
   11.6267  -17.3715   23.0118 C   0  0  1  0  0  0  0  0  0  0  0  0
   12.6689  -16.4547   22.4319 C   0  0  0  0  0  0  0  0  0  0  0  0
   13.6555  -16.0456   23.4716 C   0  0  0  0  0  0  0  0  0  0  0  0
   14.9925  -15.7562   22.8460 C   0  0  0  0  0  0  0  0  0  0  0  0
   15.2695  -14.5686   22.5656 O   0  0  0  0  0  0  0  0  0  0  0  0
   11.9097  -17.8529   24.3775 C   0  0  0  0  0  0  0  0  0  0  0  0
   12.8312  -18.6092   24.6962 O   0  0  0  0  0  0  0  0  0  0  0  0
   15.9037  -16.7566   22.5797 O   0  0  0  0  0  0  0  0  0  0  0  0
   11.0560  -17.4133   25.4116 O   0  0  0  0  0  0  0  0  0  0  0  0
  2  1  1  1
  2  3  1  0
  3  4  1  0
  4  9  2  0
  5  4  1  0
  5  6  2  0
  6  7  1  0
  7  8  2  0
  9  8  1  0
 10 11  2  0
 10  2  1  0
 13 12  1  0
 14 15  1  0
 14 13  1  0
 16 15  1  6
 16 17  1  0
 17 10  1  0
 18 16  1  0
 18 20  1  0
 19 18  2  0
 21 20  1  0
 21 26  1  0
 21 22  1  1
 23 22  1  0
 24 23  1  0
 25 24  2  0
 26 27  2  0
 26 29  1  0
 28 24  1  0
M  END
$$$$
