FME.pdb
     RDKit          3D

 29 29  0  0  1  0  0  0  0  0999 V2000
    5.8942  -19.9117   23.3030 N   0  0  0  0  0  0  0  0  0  0  0  0
    6.3128  -19.0641   24.3961 C   0  0  1  0  0  0  0  0  0  0  0  0
    7.2608  -19.7630   25.3322 C   0  0  0  0  0  0  0  0  0  0  0  0
    6.5492  -20.5501   26.3423 C   0  0  0  0  0  0  0  0  0  0  0  0
    6.4665  -21.9095   26.1941 C   0  0  0  0  0  0  0  0  0  0  0  0
    5.7999  -22.6749   27.1377 C   0  0  0  0  0  0  0  0  0  0  0  0
    5.2066  -22.0743   28.2465 C   0  0  0  0  0  0  0  0  0  0  0  0
    5.2980  -20.7083   28.3814 C   0  0  0  0  0  0  0  0  0  0  0  0
    5.9586  -19.9369   27.4493 C   0  0  0  0  0  0  0  0  0  0  0  0
    7.0176  -17.8488   23.8988 C   0  0  0  0  0  0  0  0  0  0  0  0
    7.7326  -17.9541   22.8704 O   0  0  0  0  0  0  0  0  0  0  0  0
    7.6146  -11.9339   27.6497 C   0  0  0  0  0  0  0  0  0  0  0  0
    6.4339  -12.5691   26.4586 S   0  0  0  0  0  0  0  0  0  0  0  0
    6.7884  -14.2804   25.9695 C   0  0  0  0  0  0  0  0  0  0  0  0
    7.4527  -14.2128   24.6223 C   0  0  0  0  0  0  0  0  0  0  0  0
    7.9301  -15.5700   24.2046 C   0  0  2  0  0  0  0  0  0  0  0  0
    6.9211  -16.5903   24.5247 N   0  0  0  0  0  0  0  0  0  0  0  0
    9.1896  -16.0176   24.8178 C   0  0  0  0  0  0  0  0  0  0  0  0
    9.2522  -16.6350   25.9376 O   0  0  0  0  0  0  0  0  0  0  0  0
   10.4360  -15.7746   24.1691 N   0  0  0  0  0  0  0  0  0  0  0  0
   11.6274  -16.4846   24.6380 C   0  0  1  0  0  0  0  0  0  0  0  0
   12.6670  -16.5226   23.5514 C   0  0  0  0  0  0  0  0  0  0  0  0
   13.2365  -15.1660   23.3122 C   0  0  0  0  0  0  0  0  0  0  0  0
   14.2231  -15.2000   22.1773 C   0  0  0  0  0  0  0  0  0  0  0  0
   15.4356  -15.0418   22.4429 O   0  0  0  0  0  0  0  0  0  0  0  0
   12.0815  -15.9033   25.9158 C   0  0  0  0  0  0  0  0  0  0  0  0
   13.0081  -16.3301   26.6102 O   0  0  0  0  0  0  0  0  0  0  0  0
   13.8249  -15.3987   20.8719 O   0  0  0  0  0  0  0  0  0  0  0  0
   11.4010  -14.7612   26.3886 O   0  0  0  0  0  0  0  0  0  0  0  0
  2  1  1  6
  2  3  1  0
  3  4  1  0
  4  9  2  0
  5  4  1  0
  5  6  2  0
  6  7  1  0
  7  8  2  0
  9  8  1  0
 10 11  2  0
 10  2  1  0
 13 12  1  0
 14 15  1  0
 14 13  1  0
 16 15  1  1
 16 17  1  0
 17 10  1  0
 18 16  1  0
 18 20  1  0
 19 18  2  0
 21 20  1  0
 21 26  1  0
 21 22  1  6
 23 22  1  0
 24 23  1  0
 25 24  2  0
 26 27  2  0
 26 29  1  0
 28 24  1  0
M  END
$$$$
