FME.pdb
     RDKit          3D

 29 29  0  0  1  0  0  0  0  0999 V2000
    7.6994  -16.5380   21.9483 N   0  0  0  0  0  0  0  0  0  0  0  0
    9.0666  -16.4087   21.4982 C   0  0  1  0  0  0  0  0  0  0  0  0
    9.1677  -15.7210   20.1639 C   0  0  0  0  0  0  0  0  0  0  0  0
    8.3257  -14.5237   20.1018 C   0  0  0  0  0  0  0  0  0  0  0  0
    8.9188  -13.2888   20.1016 C   0  0  0  0  0  0  0  0  0  0  0  0
    8.1427  -12.1422   20.0418 C   0  0  0  0  0  0  0  0  0  0  0  0
    6.7531  -12.2293   19.9814 C   0  0  0  0  0  0  0  0  0  0  0  0
    6.1723  -13.4763   19.9825 C   0  0  0  0  0  0  0  0  0  0  0  0
    6.9341  -14.6237   20.0416 C   0  0  0  0  0  0  0  0  0  0  0  0
    9.8782  -15.6073   22.4574 C   0  0  0  0  0  0  0  0  0  0  0  0
   10.3103  -14.4883   22.0821 O   0  0  0  0  0  0  0  0  0  0  0  0
    7.0231  -11.7555   26.8391 C   0  0  0  0  0  0  0  0  0  0  0  0
    7.8468  -12.7061   25.5608 S   0  0  0  0  0  0  0  0  0  0  0  0
    7.2501  -14.4176   25.4705 C   0  0  0  0  0  0  0  0  0  0  0  0
    8.0255  -15.0848   24.3685 C   0  0  0  0  0  0  0  0  0  0  0  0
    9.3537  -15.5581   24.8744 C   0  0  2  0  0  0  0  0  0  0  0  0
   10.1837  -16.0431   23.7619 N   0  0  0  0  0  0  0  0  0  0  0  0
    9.3066  -16.6419   25.8672 C   0  0  0  0  0  0  0  0  0  0  0  0
    8.9638  -16.4695   27.0885 O   0  0  0  0  0  0  0  0  0  0  0  0
    9.6525  -17.9753   25.4987 N   0  0  0  0  0  0  0  0  0  0  0  0
   10.3327  -18.8255   26.4775 C   0  0  1  0  0  0  0  0  0  0  0  0
   11.5578  -19.4439   25.8614 C   0  0  0  0  0  0  0  0  0  0  0  0
   11.2909  -19.8685   24.4577 C   0  0  0  0  0  0  0  0  0  0  0  0
   12.5390  -20.4228   23.8273 C   0  0  0  0  0  0  0  0  0  0  0  0
   13.3945  -19.6156   23.4005 O   0  0  0  0  0  0  0  0  0  0  0  0
   10.5753  -18.0612   27.7161 C   0  0  0  0  0  0  0  0  0  0  0  0
   10.0552  -18.2857   28.8124 O   0  0  0  0  0  0  0  0  0  0  0  0
   12.7558  -21.7799   23.7122 O   0  0  0  0  0  0  0  0  0  0  0  0
   11.4790  -16.9797   27.6460 O   0  0  0  0  0  0  0  0  0  0  0  0
  2  1  1  1
  2  3  1  0
  3  4  1  0
  4  9  2  0
  5  4  1  0
  5  6  2  0
  6  7  1  0
  7  8  2  0
  9  8  1  0
 10 11  2  0
 10  2  1  0
 13 12  1  0
 14 15  1  0
 14 13  1  0
 16 15  1  6
 16 17  1  0
 17 10  1  0
 18 16  1  0
 18 20  1  0
 19 18  2  0
 21 20  1  0
 21 26  1  0
 21 22  1  6
 23 22  1  0
 24 23  1  0
 25 24  2  0
 26 27  2  0
 26 29  1  0
 28 24  1  0
M  END
$$$$
