FME.pdb
     RDKit          3D

 29 29  0  0  1  0  0  0  0  0999 V2000
    6.3458  -18.4077   25.6733 N   0  0  0  0  0  0  0  0  0  0  0  0
    6.6176  -17.0198   25.3757 C   0  0  1  0  0  0  0  0  0  0  0  0
    7.0614  -16.2500   26.5898 C   0  0  0  0  0  0  0  0  0  0  0  0
    6.9641  -14.8028   26.3839 C   0  0  0  0  0  0  0  0  0  0  0  0
    8.1129  -14.0646   26.2746 C   0  0  0  0  0  0  0  0  0  0  0  0
    8.0457  -12.6944   26.0779 C   0  0  0  0  0  0  0  0  0  0  0  0
    6.8127  -12.0509   25.9891 C   0  0  0  0  0  0  0  0  0  0  0  0
    5.6680  -12.8056   26.1009 C   0  0  0  0  0  0  0  0  0  0  0  0
    5.7227  -14.1691   26.2966 C   0  0  0  0  0  0  0  0  0  0  0  0
    7.7019  -16.8865   24.3621 C   0  0  0  0  0  0  0  0  0  0  0  0
    8.5830  -17.7814   24.3114 O   0  0  0  0  0  0  0  0  0  0  0  0
    8.2777  -11.2317   19.5597 C   0  0  0  0  0  0  0  0  0  0  0  0
    7.5665  -12.8631   19.7805 S   0  0  0  0  0  0  0  0  0  0  0  0
    8.4474  -13.8452   21.0268 C   0  0  0  0  0  0  0  0  0  0  0  0
    7.7409  -15.1700   21.1071 C   0  0  0  0  0  0  0  0  0  0  0  0
    8.3846  -16.0457   22.1381 C   0  0  2  0  0  0  0  0  0  0  0  0
    7.7865  -15.8077   23.4599 N   0  0  0  0  0  0  0  0  0  0  0  0
    9.8369  -15.8782   22.2976 C   0  0  0  0  0  0  0  0  0  0  0  0
   10.6899  -16.1967   21.3976 O   0  0  0  0  0  0  0  0  0  0  0  0
   10.3741  -15.3356   23.5019 N   0  0  0  0  0  0  0  0  0  0  0  0
   11.6380  -15.8674   24.0149 C   0  0  1  0  0  0  0  0  0  0  0  0
   11.3993  -17.1723   24.7242 C   0  0  0  0  0  0  0  0  0  0  0  0
   12.6891  -17.8111   25.1115 C   0  0  0  0  0  0  0  0  0  0  0  0
   12.4431  -19.1419   25.7679 C   0  0  0  0  0  0  0  0  0  0  0  0
   11.2617  -19.5411   25.8708 O   0  0  0  0  0  0  0  0  0  0  0  0
   12.6326  -15.9218   22.9264 C   0  0  0  0  0  0  0  0  0  0  0  0
   13.8121  -15.5696   23.0126 O   0  0  0  0  0  0  0  0  0  0  0  0
   13.4760  -19.9179   26.2505 O   0  0  0  0  0  0  0  0  0  0  0  0
   12.2028  -16.4186   21.6775 O   0  0  0  0  0  0  0  0  0  0  0  0
  2  1  1  1
  2  3  1  0
  3  4  1  0
  4  9  2  0
  5  4  1  0
  5  6  2  0
  6  7  1  0
  7  8  2  0
  9  8  1  0
 10 11  2  0
 10  2  1  0
 13 12  1  0
 14 15  1  0
 14 13  1  0
 16 15  1  6
 16 17  1  0
 17 10  1  0
 18 16  1  0
 18 20  1  0
 19 18  2  0
 21 20  1  0
 21 26  1  0
 21 22  1  6
 23 22  1  0
 24 23  1  0
 25 24  2  0
 26 27  2  0
 26 29  1  0
 28 24  1  0
M  END
$$$$
