FME.pdb
     RDKit          3D

 29 29  0  0  1  0  0  0  0  0999 V2000
    6.1837  -17.6683   22.9276 N   0  0  0  0  0  0  0  0  0  0  0  0
    6.9184  -16.5656   22.3506 C   0  0  1  0  0  0  0  0  0  0  0  0
    6.0121  -15.5229   21.7549 C   0  0  0  0  0  0  0  0  0  0  0  0
    6.7668  -14.4738   21.0649 C   0  0  0  0  0  0  0  0  0  0  0  0
    7.2200  -14.7034   19.7926 C   0  0  0  0  0  0  0  0  0  0  0  0
    7.9346  -13.7252   19.1195 C   0  0  0  0  0  0  0  0  0  0  0  0
    8.2010  -12.4988   19.7255 C   0  0  0  0  0  0  0  0  0  0  0  0
    7.7395  -12.2832   21.0033 C   0  0  0  0  0  0  0  0  0  0  0  0
    7.0276  -13.2488   21.6826 C   0  0  0  0  0  0  0  0  0  0  0  0
    7.7520  -15.8759   23.3755 C   0  0  0  0  0  0  0  0  0  0  0  0
    7.3631  -14.7616   23.8078 O   0  0  0  0  0  0  0  0  0  0  0  0
   10.2779  -13.3627   29.5657 C   0  0  0  0  0  0  0  0  0  0  0  0
    9.3072  -13.5562   28.0702 S   0  0  0  0  0  0  0  0  0  0  0  0
    9.6258  -15.1335   27.2310 C   0  0  0  0  0  0  0  0  0  0  0  0
    8.8845  -15.0816   25.9240 C   0  0  0  0  0  0  0  0  0  0  0  0
    9.7464  -15.5954   24.8117 C   0  0  2  0  0  0  0  0  0  0  0  0
    8.9524  -16.4120   23.8820 N   0  0  0  0  0  0  0  0  0  0  0  0
   10.8913  -16.4212   25.2239 C   0  0  0  0  0  0  0  0  0  0  0  0
   10.7994  -17.4021   26.0415 O   0  0  0  0  0  0  0  0  0  0  0  0
   12.1957  -16.1552   24.7129 N   0  0  0  0  0  0  0  0  0  0  0  0
   12.9063  -17.2186   24.0003 C   0  0  1  0  0  0  0  0  0  0  0  0
   12.0634  -17.7319   22.8649 C   0  0  0  0  0  0  0  0  0  0  0  0
   12.8254  -18.7085   22.0358 C   0  0  0  0  0  0  0  0  0  0  0  0
   12.4292  -20.1176   22.3822 C   0  0  0  0  0  0  0  0  0  0  0  0
   13.1998  -20.7878   23.1052 O   0  0  0  0  0  0  0  0  0  0  0  0
   14.2504  -16.7469   23.6157 C   0  0  0  0  0  0  0  0  0  0  0  0
   15.1081  -17.4174   23.0346 O   0  0  0  0  0  0  0  0  0  0  0  0
   11.2536  -20.6765   21.9265 O   0  0  0  0  0  0  0  0  0  0  0  0
   14.5889  -15.4155   23.9380 O   0  0  0  0  0  0  0  0  0  0  0  0
  2  1  1  1
  2  3  1  0
  3  4  1  0
  4  9  2  0
  5  4  1  0
  5  6  2  0
  6  7  1  0
  7  8  2  0
  9  8  1  0
 10 11  2  0
 10  2  1  0
 13 12  1  0
 14 15  1  0
 14 13  1  0
 16 15  1  1
 16 17  1  0
 17 10  1  0
 18 16  1  0
 18 20  1  0
 19 18  2  0
 21 20  1  0
 21 26  1  0
 21 22  1  6
 23 22  1  0
 24 23  1  0
 25 24  2  0
 26 27  2  0
 26 29  1  0
 28 24  1  0
M  END
$$$$
