FME.pdb
     RDKit          3D

 29 29  0  0  1  0  0  0  0  0999 V2000
    7.8332  -19.3291   27.1315 N   0  0  0  0  0  0  0  0  0  0  0  0
    8.3157  -17.9701   27.2255 C   0  0  1  0  0  0  0  0  0  0  0  0
    9.7982  -17.9045   27.4733 C   0  0  0  0  0  0  0  0  0  0  0  0
   10.2294  -16.5561   27.8504 C   0  0  0  0  0  0  0  0  0  0  0  0
   10.5724  -15.6650   26.8681 C   0  0  0  0  0  0  0  0  0  0  0  0
   10.9816  -14.3834   27.2008 C   0  0  0  0  0  0  0  0  0  0  0  0
   11.0497  -13.9850   28.5346 C   0  0  0  0  0  0  0  0  0  0  0  0
   10.7021  -14.8912   29.5096 C   0  0  0  0  0  0  0  0  0  0  0  0
   10.2935  -16.1685   29.1905 C   0  0  0  0  0  0  0  0  0  0  0  0
    8.0565  -17.2160   25.9664 C   0  0  0  0  0  0  0  0  0  0  0  0
    7.7081  -17.8622   24.9463 O   0  0  0  0  0  0  0  0  0  0  0  0
    7.0670  -10.8054   25.2281 C   0  0  0  0  0  0  0  0  0  0  0  0
    5.9164  -11.8415   26.1330 S   0  0  0  0  0  0  0  0  0  0  0  0
    6.1533  -13.6085   25.7934 C   0  0  0  0  0  0  0  0  0  0  0  0
    7.3743  -13.7183   24.9229 C   0  0  0  0  0  0  0  0  0  0  0  0
    7.6935  -15.1556   24.6465 C   0  0  2  0  0  0  0  0  0  0  0  0
    8.1831  -15.8164   25.8652 N   0  0  0  0  0  0  0  0  0  0  0  0
    8.7037  -15.3937   23.6046 C   0  0  0  0  0  0  0  0  0  0  0  0
    8.5386  -15.0832   22.3736 O   0  0  0  0  0  0  0  0  0  0  0  0
    9.9515  -16.0008   23.9328 N   0  0  0  0  0  0  0  0  0  0  0  0
   10.9191  -16.2510   22.8629 C   0  0  1  0  0  0  0  0  0  0  0  0
   12.2852  -16.4869   23.4469 C   0  0  0  0  0  0  0  0  0  0  0  0
   12.8829  -15.2114   23.9344 C   0  0  0  0  0  0  0  0  0  0  0  0
   14.3257  -15.4134   24.3085 C   0  0  0  0  0  0  0  0  0  0  0  0
   15.1264  -15.7595   23.4113 O   0  0  0  0  0  0  0  0  0  0  0  0
   10.4217  -17.3273   21.9848 C   0  0  0  0  0  0  0  0  0  0  0  0
    9.6775  -18.2494   22.3293 O   0  0  0  0  0  0  0  0  0  0  0  0
   14.7764  -15.2279   25.5986 O   0  0  0  0  0  0  0  0  0  0  0  0
   10.8293  -17.3046   20.6340 O   0  0  0  0  0  0  0  0  0  0  0  0
  2  1  1  6
  2  3  1  0
  3  4  1  0
  4  9  2  0
  5  4  1  0
  5  6  2  0
  6  7  1  0
  7  8  2  0
  9  8  1  0
 10 11  2  0
 10  2  1  0
 13 12  1  0
 14 15  1  0
 14 13  1  0
 16 15  1  1
 16 17  1  0
 17 10  1  0
 18 16  1  0
 18 20  1  0
 19 18  2  0
 21 20  1  0
 21 26  1  0
 21 22  1  1
 23 22  1  0
 24 23  1  0
 25 24  2  0
 26 27  2  0
 26 29  1  0
 28 24  1  0
M  END
$$$$
