FME.pdb
     RDKit          3D

 29 29  0  0  1  0  0  0  0  0999 V2000
    8.5362  -15.5601   19.0975 N   0  0  0  0  0  0  0  0  0  0  0  0
    7.8846  -16.1965   20.2196 C   0  0  1  0  0  0  0  0  0  0  0  0
    8.1396  -17.6786   20.2648 C   0  0  0  0  0  0  0  0  0  0  0  0
    7.4331  -18.3202   21.3762 C   0  0  0  0  0  0  0  0  0  0  0  0
    8.1581  -18.9225   22.3703 C   0  0  0  0  0  0  0  0  0  0  0  0
    7.5117  -19.5344   23.4325 C   0  0  0  0  0  0  0  0  0  0  0  0
    6.1199  -19.5454   23.5037 C   0  0  0  0  0  0  0  0  0  0  0  0
    5.4056  -18.9365   22.4980 C   0  0  0  0  0  0  0  0  0  0  0  0
    6.0379  -18.3248   21.4366 C   0  0  0  0  0  0  0  0  0  0  0  0
    8.3680  -15.6375   21.5138 C   0  0  0  0  0  0  0  0  0  0  0  0
    9.6003  -15.4311   21.6501 O   0  0  0  0  0  0  0  0  0  0  0  0
    6.5550  -11.6113   28.0496 C   0  0  0  0  0  0  0  0  0  0  0  0
    6.1125  -12.3873   26.4945 S   0  0  0  0  0  0  0  0  0  0  0  0
    7.5099  -13.2513   25.7236 C   0  0  0  0  0  0  0  0  0  0  0  0
    7.0107  -13.7891   24.4113 C   0  0  0  0  0  0  0  0  0  0  0  0
    8.0696  -14.6139   23.7459 C   0  0  2  0  0  0  0  0  0  0  0  0
    7.5116  -15.3300   22.5894 N   0  0  0  0  0  0  0  0  0  0  0  0
    8.7149  -15.6259   24.5955 C   0  0  0  0  0  0  0  0  0  0  0  0
    8.1227  -16.6804   25.0155 O   0  0  0  0  0  0  0  0  0  0  0  0
   10.0731  -15.4700   25.0009 N   0  0  0  0  0  0  0  0  0  0  0  0
   10.8069  -16.6426   25.4806 C   0  0  1  0  0  0  0  0  0  0  0  0
   12.1615  -16.7060   24.8295 C   0  0  0  0  0  0  0  0  0  0  0  0
   12.9682  -17.8282   25.3879 C   0  0  0  0  0  0  0  0  0  0  0  0
   14.4034  -17.7146   24.9521 C   0  0  0  0  0  0  0  0  0  0  0  0
   14.8083  -16.6074   24.5328 O   0  0  0  0  0  0  0  0  0  0  0  0
   10.8229  -16.6497   26.9559 C   0  0  0  0  0  0  0  0  0  0  0  0
   10.4189  -15.7382   27.6831 O   0  0  0  0  0  0  0  0  0  0  0  0
   15.2675  -18.7883   25.0044 O   0  0  0  0  0  0  0  0  0  0  0  0
   11.3439  -17.7949   27.5949 O   0  0  0  0  0  0  0  0  0  0  0  0
  2  1  1  6
  2  3  1  0
  3  4  1  0
  4  9  2  0
  5  4  1  0
  5  6  2  0
  6  7  1  0
  7  8  2  0
  9  8  1  0
 10 11  2  0
 10  2  1  0
 13 12  1  0
 14 15  1  0
 14 13  1  0
 16 15  1  1
 16 17  1  0
 17 10  1  0
 18 16  1  0
 18 20  1  0
 19 18  2  0
 21 20  1  0
 21 26  1  0
 21 22  1  6
 23 22  1  0
 24 23  1  0
 25 24  2  0
 26 27  2  0
 26 29  1  0
 28 24  1  0
M  END
$$$$
