FME.pdb
     RDKit          3D

 29 29  0  0  1  0  0  0  0  0999 V2000
    6.3484  -16.7005   20.4529 N   0  0  0  0  0  0  0  0  0  0  0  0
    7.5112  -16.8107   21.3041 C   0  0  1  0  0  0  0  0  0  0  0  0
    8.6827  -16.0273   20.7775 C   0  0  0  0  0  0  0  0  0  0  0  0
    8.3142  -14.6475   20.4510 C   0  0  0  0  0  0  0  0  0  0  0  0
    7.0732  -14.1861   20.8030 C   0  0  0  0  0  0  0  0  0  0  0  0
    6.7030  -12.8840   20.5060 C   0  0  0  0  0  0  0  0  0  0  0  0
    7.5850  -12.0292   19.8474 C   0  0  0  0  0  0  0  0  0  0  0  0
    8.8274  -12.5071   19.5004 C   0  0  0  0  0  0  0  0  0  0  0  0
    9.2066  -13.8003   19.7907 C   0  0  0  0  0  0  0  0  0  0  0  0
    7.2297  -16.2948   22.6736 C   0  0  0  0  0  0  0  0  0  0  0  0
    6.3155  -15.4436   22.8130 O   0  0  0  0  0  0  0  0  0  0  0  0
    5.7742  -11.5093   26.2210 C   0  0  0  0  0  0  0  0  0  0  0  0
    7.2968  -12.3509   25.7858 S   0  0  0  0  0  0  0  0  0  0  0  0
    7.3577  -14.0523   26.4144 C   0  0  0  0  0  0  0  0  0  0  0  0
    7.0516  -14.9516   25.2490 C   0  0  0  0  0  0  0  0  0  0  0  0
    8.2749  -15.7128   24.8388 C   0  0  2  0  0  0  0  0  0  0  0  0
    7.9376  -16.7148   23.8170 N   0  0  0  0  0  0  0  0  0  0  0  0
    8.9690  -16.4307   25.9184 C   0  0  0  0  0  0  0  0  0  0  0  0
    9.3293  -15.8812   27.0171 O   0  0  0  0  0  0  0  0  0  0  0  0
    9.2802  -17.8156   25.7821 N   0  0  0  0  0  0  0  0  0  0  0  0
   10.6836  -18.2315   25.8160 C   0  0  1  0  0  0  0  0  0  0  0  0
   11.4292  -17.6277   24.6574 C   0  0  0  0  0  0  0  0  0  0  0  0
   12.8530  -17.3712   25.0166 C   0  0  0  0  0  0  0  0  0  0  0  0
   13.7195  -17.3910   23.7873 C   0  0  0  0  0  0  0  0  0  0  0  0
   14.3703  -16.3599   23.5059 O   0  0  0  0  0  0  0  0  0  0  0  0
   11.2557  -17.9423   27.1450 C   0  0  0  0  0  0  0  0  0  0  0  0
   11.0134  -16.9448   27.8298 O   0  0  0  0  0  0  0  0  0  0  0  0
   13.8096  -18.5038   22.9776 O   0  0  0  0  0  0  0  0  0  0  0  0
   12.1578  -18.8844   27.6833 O   0  0  0  0  0  0  0  0  0  0  0  0
  2  1  1  6
  2  3  1  0
  3  4  1  0
  4  9  2  0
  5  4  1  0
  5  6  2  0
  6  7  1  0
  7  8  2  0
  9  8  1  0
 10 11  2  0
 10  2  1  0
 13 12  1  0
 14 15  1  0
 14 13  1  0
 16 15  1  1
 16 17  1  0
 17 10  1  0
 18 16  1  0
 18 20  1  0
 19 18  2  0
 21 20  1  0
 21 26  1  0
 21 22  1  6
 23 22  1  0
 24 23  1  0
 25 24  2  0
 26 27  2  0
 26 29  1  0
 28 24  1  0
M  END
$$$$
