DFE.pdb
     RDKit          3D

 29 29  0  0  1  0  0  0  0  0999 V2000
   28.4746  -20.8683  -15.1460 N   0  0  0  0  0  0  0  0  0  0  0  0
   27.7258  -19.9568  -14.3310 C   0  0  1  0  0  0  0  0  0  0  0  0
   27.1178  -18.8654  -15.1394 C   0  0  0  0  0  0  0  0  0  0  0  0
   28.0971  -18.0093  -15.8163 C   0  0  0  0  0  0  0  0  0  0  0  0
   29.3179  -18.1476  -15.6809 O   0  0  0  0  0  0  0  0  0  0  0  0
   26.7220  -20.7118  -13.5374 C   0  0  0  0  0  0  0  0  0  0  0  0
   26.3236  -21.8434  -13.9338 O   0  0  0  0  0  0  0  0  0  0  0  0
   27.6168  -16.9822  -16.6595 O   0  0  0  0  0  0  0  0  0  0  0  0
   26.2223  -20.1465  -12.3409 N   0  0  0  0  0  0  0  0  0  0  0  0
   25.1701  -20.7146  -11.5709 C   0  0  1  0  0  0  0  0  0  0  0  0
   25.1894  -20.3549  -10.0923 C   0  0  0  0  0  0  0  0  0  0  0  0
   26.5091  -20.6288   -9.4874 C   0  0  0  0  0  0  0  0  0  0  0  0
   26.8106  -20.0029   -8.2983 C   0  0  0  0  0  0  0  0  0  0  0  0
   28.0337  -20.2178   -7.7061 C   0  0  0  0  0  0  0  0  0  0  0  0
   28.9606  -21.0556   -8.2945 C   0  0  0  0  0  0  0  0  0  0  0  0
   28.6492  -21.6693   -9.4730 C   0  0  0  0  0  0  0  0  0  0  0  0
   27.4075  -21.4566  -10.0828 C   0  0  0  0  0  0  0  0  0  0  0  0
   23.8160  -20.5583  -12.1439 C   0  0  0  0  0  0  0  0  0  0  0  0
   23.4461  -19.3941  -12.4773 O   0  0  0  0  0  0  0  0  0  0  0  0
   22.9209  -21.6255  -12.3382 N   0  0  0  0  0  0  0  0  0  0  0  0
   21.6485  -21.3696  -13.0188 C   0  0  1  0  0  0  0  0  0  0  0  0
   21.0706  -22.6694  -13.5126 C   0  0  0  0  0  0  0  0  0  0  0  0
   19.7883  -22.4244  -14.2540 C   0  0  0  0  0  0  0  0  0  0  0  0
   19.2202  -23.7078  -14.7789 C   0  0  0  0  0  0  0  0  0  0  0  0
   19.8118  -24.7635  -14.5336 O   0  0  0  0  0  0  0  0  0  0  0  0
   20.7302  -20.7478  -12.0498 C   0  0  0  0  0  0  0  0  0  0  0  0
   19.7069  -20.0982  -12.4583 O   0  0  0  0  0  0  0  0  0  0  0  0
   18.0686  -23.6643  -15.5096 O   0  0  0  0  0  0  0  0  0  0  0  0
   20.8996  -20.8230  -10.6965 O   0  0  0  0  0  0  0  0  0  0  0  0
  2  1  1  6
  2  3  1  0
  4  3  1  0
  4  8  1  0
  5  4  2  0
  6  2  1  0
  6  7  2  0
  9  6  1  0
 10  9  1  0
 11 12  1  0
 10 11  1  1
 12 17  2  0
 13 12  1  0
 13 14  2  0
 14 15  1  0
 15 16  2  0
 17 16  1  0
 18 10  1  0
 19 18  2  0
 20 18  1  0
 21 20  1  0
 21 22  1  1
 22 23  1  0
 23 24  1  0
 24 28  1  0
 25 24  2  0
 26 21  1  0
 27 26  2  0
 29 26  1  0
M  END
$$$$
