DFE.pdb
     RDKit          3D

 29 29  0  0  1  0  0  0  0  0999 V2000
   20.0131  -14.6299  -19.9170 N   0  0  0  0  0  0  0  0  0  0  0  0
   20.6822  -13.4455  -20.3701 C   0  0  1  0  0  0  0  0  0  0  0  0
   19.7621  -12.5417  -21.1124 C   0  0  0  0  0  0  0  0  0  0  0  0
   19.1704  -13.1470  -22.3097 C   0  0  0  0  0  0  0  0  0  0  0  0
   19.6854  -14.0995  -22.9058 O   0  0  0  0  0  0  0  0  0  0  0  0
   21.3394  -12.7764  -19.2178 C   0  0  0  0  0  0  0  0  0  0  0  0
   20.7072  -12.6139  -18.1361 O   0  0  0  0  0  0  0  0  0  0  0  0
   17.9570  -12.6127  -22.7985 O   0  0  0  0  0  0  0  0  0  0  0  0
   22.6737  -12.3261  -19.3514 N   0  0  0  0  0  0  0  0  0  0  0  0
   23.3868  -11.6363  -18.3323 C   0  0  1  0  0  0  0  0  0  0  0  0
   24.8613  -11.9966  -18.2234 C   0  0  0  0  0  0  0  0  0  0  0  0
   25.5285  -11.2235  -17.1558 C   0  0  0  0  0  0  0  0  0  0  0  0
   25.4068  -11.6810  -15.8626 C   0  0  0  0  0  0  0  0  0  0  0  0
   26.0000  -10.9847  -14.8348 C   0  0  0  0  0  0  0  0  0  0  0  0
   26.7158   -9.8316  -15.0900 C   0  0  0  0  0  0  0  0  0  0  0  0
   26.8284   -9.3891  -16.3761 C   0  0  0  0  0  0  0  0  0  0  0  0
   26.2282  -10.0907  -17.4279 C   0  0  0  0  0  0  0  0  0  0  0  0
   23.1888  -10.1712  -18.3076 C   0  0  0  0  0  0  0  0  0  0  0  0
   23.4160   -9.5260  -19.3732 O   0  0  0  0  0  0  0  0  0  0  0  0
   22.7642   -9.4583  -17.1720 N   0  0  0  0  0  0  0  0  0  0  0  0
   22.5164   -8.0187  -17.2894 C   0  0  1  0  0  0  0  0  0  0  0  0
   21.3058   -7.6474  -16.4747 C   0  0  0  0  0  0  0  0  0  0  0  0
   20.9547   -6.2032  -16.6864 C   0  0  0  0  0  0  0  0  0  0  0  0
   19.7459   -5.8236  -15.8864 C   0  0  0  0  0  0  0  0  0  0  0  0
   19.3328   -4.6617  -15.9493 O   0  0  0  0  0  0  0  0  0  0  0  0
   23.7018   -7.3090  -16.7795 C   0  0  0  0  0  0  0  0  0  0  0  0
   24.2647   -7.6919  -15.6967 O   0  0  0  0  0  0  0  0  0  0  0  0
   19.1442   -6.7759  -15.1164 O   0  0  0  0  0  0  0  0  0  0  0  0
   24.2641   -6.2343  -17.4075 O   0  0  0  0  0  0  0  0  0  0  0  0
  2  1  1  1
  2  3  1  0
  4  3  1  0
  4  8  1  0
  5  4  2  0
  6  2  1  0
  6  7  2  0
  9  6  1  0
 10  9  1  0
 11 12  1  0
 10 11  1  6
 12 17  2  0
 13 12  1  0
 13 14  2  0
 14 15  1  0
 15 16  2  0
 17 16  1  0
 18 10  1  0
 19 18  2  0
 20 18  1  0
 21 20  1  0
 21 22  1  1
 22 23  1  0
 23 24  1  0
 24 28  1  0
 25 24  2  0
 26 21  1  0
 27 26  2  0
 29 26  1  0
M  END
$$$$
