DFE.pdb
     RDKit          3D

 29 29  0  0  1  0  0  0  0  0999 V2000
   12.9020   -8.8085   -8.7299 N   0  0  0  0  0  0  0  0  0  0  0  0
   13.9790   -9.4101   -9.4606 C   0  0  1  0  0  0  0  0  0  0  0  0
   13.4820  -10.2533  -10.5815 C   0  0  0  0  0  0  0  0  0  0  0  0
   12.7945  -11.4741  -10.1488 C   0  0  0  0  0  0  0  0  0  0  0  0
   12.6258  -11.7648   -8.9593 O   0  0  0  0  0  0  0  0  0  0  0  0
   14.9230   -8.3545   -9.9103 C   0  0  0  0  0  0  0  0  0  0  0  0
   14.4807   -7.2809  -10.4081 O   0  0  0  0  0  0  0  0  0  0  0  0
   12.3054  -12.3530  -11.1413 O   0  0  0  0  0  0  0  0  0  0  0  0
   16.3143   -8.5705   -9.7744 N   0  0  0  0  0  0  0  0  0  0  0  0
   17.3098   -7.6974  -10.2935 C   0  0  1  0  0  0  0  0  0  0  0  0
   18.7261   -7.9804   -9.8139 C   0  0  0  0  0  0  0  0  0  0  0  0
   19.7047   -7.0828  -10.4614 C   0  0  0  0  0  0  0  0  0  0  0  0
   19.6884   -5.7531  -10.1034 C   0  0  0  0  0  0  0  0  0  0  0  0
   20.5727   -4.8782  -10.6914 C   0  0  0  0  0  0  0  0  0  0  0  0
   21.4757   -5.3230  -11.6369 C   0  0  0  0  0  0  0  0  0  0  0  0
   21.4811   -6.6432  -11.9826 C   0  0  0  0  0  0  0  0  0  0  0  0
   20.5851   -7.5404  -11.3900 C   0  0  0  0  0  0  0  0  0  0  0  0
   17.2689   -7.4966  -11.7579 C   0  0  0  0  0  0  0  0  0  0  0  0
   17.2692   -8.5257  -12.4957 O   0  0  0  0  0  0  0  0  0  0  0  0
   17.2298   -6.2326  -12.3733 N   0  0  0  0  0  0  0  0  0  0  0  0
   17.0956   -6.1567  -13.8306 C   0  0  1  0  0  0  0  0  0  0  0  0
   15.6525   -5.9246  -14.1926 C   0  0  0  0  0  0  0  0  0  0  0  0
   15.5121   -5.7052  -15.6712 C   0  0  0  0  0  0  0  0  0  0  0  0
   14.0785   -5.8115  -16.0940 C   0  0  0  0  0  0  0  0  0  0  0  0
   13.2160   -5.9929  -15.2292 O   0  0  0  0  0  0  0  0  0  0  0  0
   17.9197   -5.0327  -14.3064 C   0  0  0  0  0  0  0  0  0  0  0  0
   18.0834   -4.8403  -15.5603 O   0  0  0  0  0  0  0  0  0  0  0  0
   13.7768   -5.7038  -17.4204 O   0  0  0  0  0  0  0  0  0  0  0  0
   18.5401   -4.1475  -13.4714 O   0  0  0  0  0  0  0  0  0  0  0  0
  2  1  1  6
  2  3  1  0
  4  3  1  0
  4  8  1  0
  5  4  2  0
  6  2  1  0
  6  7  2  0
  9  6  1  0
 10  9  1  0
 11 12  1  0
 10 11  1  6
 12 17  2  0
 13 12  1  0
 13 14  2  0
 14 15  1  0
 15 16  2  0
 17 16  1  0
 18 10  1  0
 19 18  2  0
 20 18  1  0
 21 20  1  0
 21 22  1  1
 22 23  1  0
 23 24  1  0
 24 28  1  0
 25 24  2  0
 26 21  1  0
 27 26  2  0
 29 26  1  0
M  END
$$$$
