DFE.pdb
     RDKit          3D

 29 29  0  0  1  0  0  0  0  0999 V2000
   28.4879  -21.8071  -16.8968 N   0  0  0  0  0  0  0  0  0  0  0  0
   27.4940  -20.8184  -16.5965 C   0  0  1  0  0  0  0  0  0  0  0  0
   26.6893  -20.4626  -17.7966 C   0  0  0  0  0  0  0  0  0  0  0  0
   27.2507  -19.3609  -18.5848 C   0  0  0  0  0  0  0  0  0  0  0  0
   28.4226  -19.3444  -18.9774 O   0  0  0  0  0  0  0  0  0  0  0  0
   26.6571  -21.2861  -15.4614 C   0  0  0  0  0  0  0  0  0  0  0  0
   26.3071  -22.4980  -15.3910 O   0  0  0  0  0  0  0  0  0  0  0  0
   26.4088  -18.2725  -18.9063 O   0  0  0  0  0  0  0  0  0  0  0  0
   26.2603  -20.3589  -14.4696 N   0  0  0  0  0  0  0  0  0  0  0  0
   25.5197  -20.7062  -13.3060 C   0  0  1  0  0  0  0  0  0  0  0  0
   25.9224  -19.9608  -12.0419 C   0  0  0  0  0  0  0  0  0  0  0  0
   27.1598  -20.5178  -11.4578 C   0  0  0  0  0  0  0  0  0  0  0  0
   27.0918  -21.0275  -10.1803 C   0  0  0  0  0  0  0  0  0  0  0  0
   28.2230  -21.5436   -9.5914 C   0  0  0  0  0  0  0  0  0  0  0  0
   29.4252  -21.5545  -10.2710 C   0  0  0  0  0  0  0  0  0  0  0  0
   29.4788  -21.0461  -11.5364 C   0  0  0  0  0  0  0  0  0  0  0  0
   28.3332  -20.5188  -12.1435 C   0  0  0  0  0  0  0  0  0  0  0  0
   24.0510  -20.7206  -13.4761 C   0  0  0  0  0  0  0  0  0  0  0  0
   23.5029  -19.6905  -13.9679 O   0  0  0  0  0  0  0  0  0  0  0  0
   23.2334  -21.8094  -13.1240 N   0  0  0  0  0  0  0  0  0  0  0  0
   21.7851  -21.7022  -13.3209 C   0  0  1  0  0  0  0  0  0  0  0  0
   21.1685  -23.0755  -13.2848 C   0  0  0  0  0  0  0  0  0  0  0  0
   19.6788  -22.9852  -13.4474 C   0  0  0  0  0  0  0  0  0  0  0  0
   19.3121  -22.7075  -14.8735 C   0  0  0  0  0  0  0  0  0  0  0  0
   19.6628  -23.5098  -15.7440 O   0  0  0  0  0  0  0  0  0  0  0  0
   21.2368  -20.8768  -12.2315 C   0  0  0  0  0  0  0  0  0  0  0  0
   21.8998  -20.7161  -11.1496 O   0  0  0  0  0  0  0  0  0  0  0  0
   18.6032  -21.5772  -15.1597 O   0  0  0  0  0  0  0  0  0  0  0  0
   20.0277  -20.2452  -12.3007 O   0  0  0  0  0  0  0  0  0  0  0  0
  2  1  1  6
  2  3  1  0
  4  3  1  0
  4  8  1  0
  5  4  2  0
  6  2  1  0
  6  7  2  0
  9  6  1  0
 10  9  1  0
 11 12  1  0
 10 11  1  1
 12 17  2  0
 13 12  1  0
 13 14  2  0
 14 15  1  0
 15 16  2  0
 17 16  1  0
 18 10  1  0
 19 18  2  0
 20 18  1  0
 21 20  1  0
 21 22  1  1
 22 23  1  0
 23 24  1  0
 24 28  1  0
 25 24  2  0
 26 21  1  0
 27 26  2  0
 29 26  1  0
M  END
$$$$
