DFE.pdb
     RDKit          3D

 29 29  0  0  1  0  0  0  0  0999 V2000
   23.9790   -9.6747  -19.9210 N   0  0  0  0  0  0  0  0  0  0  0  0
   23.4586   -8.4143  -19.4780 C   0  0  1  0  0  0  0  0  0  0  0  0
   22.5017   -7.8364  -20.4602 C   0  0  0  0  0  0  0  0  0  0  0  0
   23.0830   -7.5894  -21.7835 C   0  0  0  0  0  0  0  0  0  0  0  0
   24.1404   -6.9708  -21.9482 O   0  0  0  0  0  0  0  0  0  0  0  0
   22.8678   -8.5707  -18.1237 C   0  0  0  0  0  0  0  0  0  0  0  0
   22.0425   -9.5001  -17.8972 O   0  0  0  0  0  0  0  0  0  0  0  0
   22.3987   -8.0834  -22.9168 O   0  0  0  0  0  0  0  0  0  0  0  0
   23.2405   -7.6678  -17.1006 N   0  0  0  0  0  0  0  0  0  0  0  0
   22.7689   -7.7443  -15.7609 C   0  0  1  0  0  0  0  0  0  0  0  0
   23.8572   -7.7885  -14.6981 C   0  0  0  0  0  0  0  0  0  0  0  0
   24.7758   -8.9254  -14.9133 C   0  0  0  0  0  0  0  0  0  0  0  0
   24.4406  -10.1352  -14.3473 C   0  0  0  0  0  0  0  0  0  0  0  0
   25.2740  -11.2179  -14.5100 C   0  0  0  0  0  0  0  0  0  0  0  0
   26.4429  -11.1006  -15.2359 C   0  0  0  0  0  0  0  0  0  0  0  0
   26.7633   -9.8958  -15.7913 C   0  0  0  0  0  0  0  0  0  0  0  0
   25.9218   -8.7890  -15.6309 C   0  0  0  0  0  0  0  0  0  0  0  0
   21.7138   -6.7700  -15.4088 C   0  0  0  0  0  0  0  0  0  0  0  0
   22.0729   -5.6706  -14.8932 O   0  0  0  0  0  0  0  0  0  0  0  0
   20.3409   -6.9955  -15.6140 N   0  0  0  0  0  0  0  0  0  0  0  0
   19.3881   -5.9382  -15.2647 C   0  0  1  0  0  0  0  0  0  0  0  0
   19.0240   -5.1592  -16.5008 C   0  0  0  0  0  0  0  0  0  0  0  0
   18.0081   -4.1031  -16.1741 C   0  0  0  0  0  0  0  0  0  0  0  0
   17.5816   -3.3706  -17.4096 C   0  0  0  0  0  0  0  0  0  0  0  0
   16.4740   -3.6195  -17.8952 O   0  0  0  0  0  0  0  0  0  0  0  0
   18.1862   -6.5758  -14.7008 C   0  0  0  0  0  0  0  0  0  0  0  0
   17.9077   -7.7908  -14.9874 O   0  0  0  0  0  0  0  0  0  0  0  0
   18.4328   -2.4539  -17.9547 O   0  0  0  0  0  0  0  0  0  0  0  0
   17.3197   -5.9377  -13.8596 O   0  0  0  0  0  0  0  0  0  0  0  0
  2  1  1  6
  2  3  1  0
  4  3  1  0
  4  8  1  0
  5  4  2  0
  6  2  1  0
  6  7  2  0
  9  6  1  0
 10  9  1  0
 11 12  1  0
 10 11  1  1
 12 17  2  0
 13 12  1  0
 13 14  2  0
 14 15  1  0
 15 16  2  0
 17 16  1  0
 18 10  1  0
 19 18  2  0
 20 18  1  0
 21 20  1  0
 21 22  1  6
 22 23  1  0
 23 24  1  0
 24 28  1  0
 25 24  2  0
 26 21  1  0
 27 26  2  0
 29 26  1  0
M  END
$$$$
