DFE.pdb
     RDKit          3D

 29 29  0  0  1  0  0  0  0  0999 V2000
   27.9658  -19.2292  -17.7807 N   0  0  0  0  0  0  0  0  0  0  0  0
   27.1227  -18.5390  -16.8488 C   0  0  1  0  0  0  0  0  0  0  0  0
   25.7951  -18.2174  -17.4390 C   0  0  0  0  0  0  0  0  0  0  0  0
   25.8070  -18.0945  -18.9001 C   0  0  0  0  0  0  0  0  0  0  0  0
   25.3254  -18.9507  -19.6505 O   0  0  0  0  0  0  0  0  0  0  0  0
   27.0181  -19.3300  -15.5954 C   0  0  0  0  0  0  0  0  0  0  0  0
   26.7417  -20.5618  -15.6461 O   0  0  0  0  0  0  0  0  0  0  0  0
   26.3969  -16.9435  -19.4691 O   0  0  0  0  0  0  0  0  0  0  0  0
   27.2296  -18.6858  -14.3540 N   0  0  0  0  0  0  0  0  0  0  0  0
   27.1298  -19.3357  -13.0928 C   0  0  1  0  0  0  0  0  0  0  0  0
   27.7639  -18.5847  -11.9310 C   0  0  0  0  0  0  0  0  0  0  0  0
   27.7178  -19.3783  -10.6857 C   0  0  0  0  0  0  0  0  0  0  0  0
   26.8732  -18.9512   -9.6853 C   0  0  0  0  0  0  0  0  0  0  0  0
   26.8084  -19.6517   -8.5029 C   0  0  0  0  0  0  0  0  0  0  0  0
   27.5831  -20.7789   -8.3119 C   0  0  0  0  0  0  0  0  0  0  0  0
   28.4159  -21.1912   -9.3113 C   0  0  0  0  0  0  0  0  0  0  0  0
   28.4886  -20.4848  -10.5174 C   0  0  0  0  0  0  0  0  0  0  0  0
   25.7793  -19.8254  -12.7425 C   0  0  0  0  0  0  0  0  0  0  0  0
   24.8132  -19.0122  -12.8358 O   0  0  0  0  0  0  0  0  0  0  0  0
   25.5098  -21.1374  -12.3138 N   0  0  0  0  0  0  0  0  0  0  0  0
   24.1198  -21.5335  -12.0715 C   0  0  1  0  0  0  0  0  0  0  0  0
   23.8656  -22.8836  -12.6877 C   0  0  0  0  0  0  0  0  0  0  0  0
   23.1559  -22.7343  -14.0022 C   0  0  0  0  0  0  0  0  0  0  0  0
   22.9375  -24.0691  -14.6470 C   0  0  0  0  0  0  0  0  0  0  0  0
   23.2985  -25.0854  -14.0458 O   0  0  0  0  0  0  0  0  0  0  0  0
   23.9118  -21.5990  -10.6150 C   0  0  0  0  0  0  0  0  0  0  0  0
   24.9148  -21.6636   -9.8239 O   0  0  0  0  0  0  0  0  0  0  0  0
   22.3471  -24.1143  -15.8764 O   0  0  0  0  0  0  0  0  0  0  0  0
   22.6778  -21.5914  -10.0295 O   0  0  0  0  0  0  0  0  0  0  0  0
  2  1  1  6
  2  3  1  0
  4  3  1  0
  4  8  1  0
  5  4  2  0
  6  2  1  0
  6  7  2  0
  9  6  1  0
 10  9  1  0
 11 12  1  0
 10 11  1  1
 12 17  2  0
 13 12  1  0
 13 14  2  0
 14 15  1  0
 15 16  2  0
 17 16  1  0
 18 10  1  0
 19 18  2  0
 20 18  1  0
 21 20  1  0
 21 22  1  6
 22 23  1  0
 23 24  1  0
 24 28  1  0
 25 24  2  0
 26 21  1  0
 27 26  2  0
 29 26  1  0
M  END
$$$$
