DFE.pdb
     RDKit          3D

 29 29  0  0  1  0  0  0  0  0999 V2000
   20.7781  -13.0094  -16.8877 N   0  0  0  0  0  0  0  0  0  0  0  0
   20.2432  -11.6867  -17.0281 C   0  0  1  0  0  0  0  0  0  0  0  0
   18.7728  -11.7074  -17.2562 C   0  0  0  0  0  0  0  0  0  0  0  0
   18.3672  -12.4400  -18.4599 C   0  0  0  0  0  0  0  0  0  0  0  0
   17.5242  -13.3439  -18.4444 O   0  0  0  0  0  0  0  0  0  0  0  0
   20.6305  -10.8681  -15.8502 C   0  0  0  0  0  0  0  0  0  0  0  0
   19.9486  -10.9256  -14.7882 O   0  0  0  0  0  0  0  0  0  0  0  0
   18.9710  -12.0920  -19.6892 O   0  0  0  0  0  0  0  0  0  0  0  0
   21.7656  -10.0285  -15.9374 N   0  0  0  0  0  0  0  0  0  0  0  0
   22.2156   -9.1864  -14.8832 C   0  0  1  0  0  0  0  0  0  0  0  0
   23.4875   -9.6505  -14.1884 C   0  0  0  0  0  0  0  0  0  0  0  0
   24.5414   -9.9940  -15.1651 C   0  0  0  0  0  0  0  0  0  0  0  0
   24.2571   -9.8205  -16.5013 C   0  0  0  0  0  0  0  0  0  0  0  0
   25.2041  -10.1408  -17.4467 C   0  0  0  0  0  0  0  0  0  0  0  0
   26.4364  -10.6345  -17.0661 C   0  0  0  0  0  0  0  0  0  0  0  0
   26.7051  -10.8018  -15.7386 C   0  0  0  0  0  0  0  0  0  0  0  0
   25.7479  -10.4789  -14.7699 C   0  0  0  0  0  0  0  0  0  0  0  0
   22.2781   -7.7461  -15.2118 C   0  0  0  0  0  0  0  0  0  0  0  0
   22.8466   -7.4106  -16.2924 O   0  0  0  0  0  0  0  0  0  0  0  0
   21.7440   -6.7335  -14.3949 N   0  0  0  0  0  0  0  0  0  0  0  0
   21.8911   -5.3356  -14.8096 C   0  0  1  0  0  0  0  0  0  0  0  0
   20.5302   -4.7118  -14.9710 C   0  0  0  0  0  0  0  0  0  0  0  0
   19.8033   -5.3326  -16.1287 C   0  0  0  0  0  0  0  0  0  0  0  0
   18.3958   -5.6817  -15.7515 C   0  0  0  0  0  0  0  0  0  0  0  0
   18.1760   -6.7773  -15.2261 O   0  0  0  0  0  0  0  0  0  0  0  0
   22.6475   -4.6270  -13.7634 C   0  0  0  0  0  0  0  0  0  0  0  0
   22.9067   -3.3807  -13.8891 O   0  0  0  0  0  0  0  0  0  0  0  0
   17.4064   -4.7761  -16.0022 O   0  0  0  0  0  0  0  0  0  0  0  0
   23.1042   -5.2291  -12.6257 O   0  0  0  0  0  0  0  0  0  0  0  0
  2  1  1  1
  2  3  1  0
  4  3  1  0
  4  8  1  0
  5  4  2  0
  6  2  1  0
  6  7  2  0
  9  6  1  0
 10  9  1  0
 11 12  1  0
 10 11  1  6
 12 17  2  0
 13 12  1  0
 13 14  2  0
 14 15  1  0
 15 16  2  0
 17 16  1  0
 18 10  1  0
 19 18  2  0
 20 18  1  0
 21 20  1  0
 21 22  1  1
 22 23  1  0
 23 24  1  0
 24 28  1  0
 25 24  2  0
 26 21  1  0
 27 26  2  0
 29 26  1  0
M  END
$$$$
