DFE.pdb
     RDKit          3D

 29 29  0  0  1  0  0  0  0  0999 V2000
   13.3256   -8.6356   -8.6969 N   0  0  0  0  0  0  0  0  0  0  0  0
   14.3780   -9.1998   -9.4906 C   0  0  1  0  0  0  0  0  0  0  0  0
   13.8488  -10.1112  -10.5412 C   0  0  0  0  0  0  0  0  0  0  0  0
   13.2921  -11.3630  -10.0185 C   0  0  0  0  0  0  0  0  0  0  0  0
   12.0838  -11.6224  -10.0415 O   0  0  0  0  0  0  0  0  0  0  0  0
   15.2186   -8.1083  -10.0467 C   0  0  0  0  0  0  0  0  0  0  0  0
   14.6839   -7.1690  -10.7009 O   0  0  0  0  0  0  0  0  0  0  0  0
   14.1824  -12.3105   -9.4651 O   0  0  0  0  0  0  0  0  0  0  0  0
   16.6168   -8.1388   -9.8349 N   0  0  0  0  0  0  0  0  0  0  0  0
   17.5448   -7.3113  -10.5254 C   0  0  1  0  0  0  0  0  0  0  0  0
   18.9646   -7.3425   -9.9784 C   0  0  0  0  0  0  0  0  0  0  0  0
   19.8944   -6.5922  -10.8474 C   0  0  0  0  0  0  0  0  0  0  0  0
   19.7846   -5.2196  -10.8681 C   0  0  0  0  0  0  0  0  0  0  0  0
   20.6207   -4.4812  -11.6735 C   0  0  0  0  0  0  0  0  0  0  0  0
   21.5684   -5.1054  -12.4606 C   0  0  0  0  0  0  0  0  0  0  0  0
   21.6664   -6.4663  -12.4307 C   0  0  0  0  0  0  0  0  0  0  0  0
   20.8201   -7.2257  -11.6147 C   0  0  0  0  0  0  0  0  0  0  0  0
   17.5336   -7.4462  -11.9978 C   0  0  0  0  0  0  0  0  0  0  0  0
   17.7151   -8.6000  -12.4870 O   0  0  0  0  0  0  0  0  0  0  0  0
   17.3335   -6.3697  -12.8805 N   0  0  0  0  0  0  0  0  0  0  0  0
   17.3108   -6.6292  -14.3226 C   0  0  1  0  0  0  0  0  0  0  0  0
   15.9481   -6.3008  -14.8726 C   0  0  0  0  0  0  0  0  0  0  0  0
   15.9543   -6.3840  -16.3716 C   0  0  0  0  0  0  0  0  0  0  0  0
   14.5795   -6.1633  -16.9253 C   0  0  0  0  0  0  0  0  0  0  0  0
   14.4106   -6.2445  -18.1458 O   0  0  0  0  0  0  0  0  0  0  0  0
   18.3277   -5.7725  -14.9560 C   0  0  0  0  0  0  0  0  0  0  0  0
   18.5468   -4.5948  -14.5076 O   0  0  0  0  0  0  0  0  0  0  0  0
   13.5625   -5.8803  -16.0608 O   0  0  0  0  0  0  0  0  0  0  0  0
   19.0827   -6.1642  -16.0247 O   0  0  0  0  0  0  0  0  0  0  0  0
  2  1  1  6
  2  3  1  0
  4  3  1  0
  4  8  1  0
  5  4  2  0
  6  2  1  0
  6  7  2  0
  9  6  1  0
 10  9  1  0
 11 12  1  0
 10 11  1  1
 12 17  2  0
 13 12  1  0
 13 14  2  0
 14 15  1  0
 15 16  2  0
 17 16  1  0
 18 10  1  0
 19 18  2  0
 20 18  1  0
 21 20  1  0
 21 22  1  6
 22 23  1  0
 23 24  1  0
 24 28  1  0
 25 24  2  0
 26 21  1  0
 27 26  2  0
 29 26  1  0
M  END
$$$$
