DFE.pdb
     RDKit          3D

 29 29  0  0  1  0  0  0  0  0999 V2000
   21.3623  -35.0745  -14.2101 N   0  0  0  0  0  0  0  0  0  0  0  0
   21.2508  -35.0655  -12.7807 C   0  0  1  0  0  0  0  0  0  0  0  0
   20.5798  -36.2924  -12.2718 C   0  0  0  0  0  0  0  0  0  0  0  0
   19.2281  -36.0603  -11.7529 C   0  0  0  0  0  0  0  0  0  0  0  0
   18.4923  -36.9733  -11.3620 O   0  0  0  0  0  0  0  0  0  0  0  0
   22.5932  -34.8537  -12.1804 C   0  0  0  0  0  0  0  0  0  0  0  0
   23.5518  -35.6166  -12.4894 O   0  0  0  0  0  0  0  0  0  0  0  0
   18.7518  -34.7310  -11.7002 O   0  0  0  0  0  0  0  0  0  0  0  0
   22.7786  -33.7931  -11.2630 N   0  0  0  0  0  0  0  0  0  0  0  0
   24.0364  -33.4353  -10.7035 C   0  0  1  0  0  0  0  0  0  0  0  0
   24.6331  -32.1418  -11.2390 C   0  0  0  0  0  0  0  0  0  0  0  0
   25.0055  -32.2681  -12.6631 C   0  0  0  0  0  0  0  0  0  0  0  0
   26.2668  -32.7370  -12.9558 C   0  0  0  0  0  0  0  0  0  0  0  0
   26.6614  -32.8575  -14.2684 C   0  0  0  0  0  0  0  0  0  0  0  0
   25.8030  -32.5122  -15.2936 C   0  0  0  0  0  0  0  0  0  0  0  0
   24.5559  -32.0486  -14.9896 C   0  0  0  0  0  0  0  0  0  0  0  0
   24.1459  -31.9225  -13.6573 C   0  0  0  0  0  0  0  0  0  0  0  0
   24.1063  -33.4882   -9.2275 C   0  0  0  0  0  0  0  0  0  0  0  0
   23.1724  -32.9397   -8.5715 O   0  0  0  0  0  0  0  0  0  0  0  0
   25.1471  -34.1110   -8.5156 N   0  0  0  0  0  0  0  0  0  0  0  0
   25.0690  -34.1728   -7.0535 C   0  0  1  0  0  0  0  0  0  0  0  0
   26.2088  -35.0010   -6.5223 C   0  0  0  0  0  0  0  0  0  0  0  0
   26.0934  -35.1574   -5.0336 C   0  0  0  0  0  0  0  0  0  0  0  0
   27.1887  -36.0301   -4.5009 C   0  0  0  0  0  0  0  0  0  0  0  0
   26.9339  -37.2093   -4.2379 O   0  0  0  0  0  0  0  0  0  0  0  0
   25.1622  -32.7981   -6.5335 C   0  0  0  0  0  0  0  0  0  0  0  0
   25.6337  -31.8629   -7.2677 O   0  0  0  0  0  0  0  0  0  0  0  0
   28.4296  -35.4905   -4.3250 O   0  0  0  0  0  0  0  0  0  0  0  0
   24.7619  -32.4393   -5.2778 O   0  0  0  0  0  0  0  0  0  0  0  0
  2  1  1  6
  2  3  1  0
  4  3  1  0
  4  8  1  0
  5  4  2  0
  6  2  1  0
  6  7  2  0
  9  6  1  0
 10  9  1  0
 11 12  1  0
 10 11  1  1
 12 17  2  0
 13 12  1  0
 13 14  2  0
 14 15  1  0
 15 16  2  0
 17 16  1  0
 18 10  1  0
 19 18  2  0
 20 18  1  0
 21 20  1  0
 21 22  1  1
 22 23  1  0
 23 24  1  0
 24 28  1  0
 25 24  2  0
 26 21  1  0
 27 26  2  0
 29 26  1  0
M  END
$$$$
