DFE.pdb
     RDKit          3D

 29 29  0  0  1  0  0  0  0  0999 V2000
   13.5765  -14.9450    6.1452 N   0  0  0  0  0  0  0  0  0  0  0  0
   14.7689  -15.2955    6.8600 C   0  0  1  0  0  0  0  0  0  0  0  0
   14.4974  -15.5312    8.3040 C   0  0  0  0  0  0  0  0  0  0  0  0
   14.8355  -14.3948    9.1667 C   0  0  0  0  0  0  0  0  0  0  0  0
   15.2747  -13.3256    8.7285 O   0  0  0  0  0  0  0  0  0  0  0  0
   15.4185  -16.4575    6.2002 C   0  0  0  0  0  0  0  0  0  0  0  0
   14.7286  -17.4615    5.8650 O   0  0  0  0  0  0  0  0  0  0  0  0
   14.6485  -14.5349   10.5603 O   0  0  0  0  0  0  0  0  0  0  0  0
   16.8114  -16.4222    5.9570 N   0  0  0  0  0  0  0  0  0  0  0  0
   17.5469  -17.4962    5.3837 C   0  0  1  0  0  0  0  0  0  0  0  0
   18.7197  -17.0772    4.5092 C   0  0  0  0  0  0  0  0  0  0  0  0
   18.2803  -16.2121    3.3951 C   0  0  0  0  0  0  0  0  0  0  0  0
   17.8270  -16.8256    2.2486 C   0  0  0  0  0  0  0  0  0  0  0  0
   17.4209  -16.0591    1.1806 C   0  0  0  0  0  0  0  0  0  0  0  0
   17.4644  -14.6805    1.2495 C   0  0  0  0  0  0  0  0  0  0  0  0
   17.9161  -14.0853    2.3916 C   0  0  0  0  0  0  0  0  0  0  0  0
   18.3314  -14.8569    3.4830 C   0  0  0  0  0  0  0  0  0  0  0  0
   17.9358  -18.5664    6.3270 C   0  0  0  0  0  0  0  0  0  0  0  0
   18.4774  -18.2236    7.4191 O   0  0  0  0  0  0  0  0  0  0  0  0
   17.7385  -19.9367    6.0797 N   0  0  0  0  0  0  0  0  0  0  0  0
   18.1237  -20.9062    7.1090 C   0  0  1  0  0  0  0  0  0  0  0  0
   16.9622  -21.1445    8.0371 C   0  0  0  0  0  0  0  0  0  0  0  0
   17.3067  -22.2005    9.0471 C   0  0  0  0  0  0  0  0  0  0  0  0
   16.8561  -21.7970   10.4180 C   0  0  0  0  0  0  0  0  0  0  0  0
   16.3054  -20.7016   10.5638 O   0  0  0  0  0  0  0  0  0  0  0  0
   18.4944  -22.1625    6.4358 C   0  0  0  0  0  0  0  0  0  0  0  0
   18.3575  -22.2788    5.1695 O   0  0  0  0  0  0  0  0  0  0  0  0
   17.0705  -22.6549   11.4572 O   0  0  0  0  0  0  0  0  0  0  0  0
   18.9961  -23.2495    7.0934 O   0  0  0  0  0  0  0  0  0  0  0  0
  2  1  1  6
  2  3  1  0
  4  3  1  0
  4  8  1  0
  5  4  2  0
  6  2  1  0
  6  7  2  0
  9  6  1  0
 10  9  1  0
 11 12  1  0
 10 11  1  1
 12 17  2  0
 13 12  1  0
 13 14  2  0
 14 15  1  0
 15 16  2  0
 17 16  1  0
 18 10  1  0
 19 18  2  0
 20 18  1  0
 21 20  1  0
 21 22  1  1
 22 23  1  0
 23 24  1  0
 24 28  1  0
 25 24  2  0
 26 21  1  0
 27 26  2  0
 29 26  1  0
M  END
$$$$
