AWI.pdb
     RDKit          3D

 28 29  0  0  1  0  0  0  0  0999 V2000
   27.5433  -33.3143  -16.3188 C   0  0  0  0  0  0  0  0  0  0  0  0
   28.3253  -32.6802  -15.1948 C   0  0  2  0  0  0  0  0  0  0  0  0
   29.7231  -32.8742  -15.4431 N   0  0  0  0  0  0  0  0  0  0  0  0
   27.9535  -33.2956  -13.8906 C   0  0  0  0  0  0  0  0  0  0  0  0
   28.5665  -34.3189  -13.4842 O   0  0  0  0  0  0  0  0  0  0  0  0
   26.9237  -32.7761  -13.0683 N   0  0  0  0  0  0  0  0  0  0  0  0
   26.5358  -33.3160  -11.7936 C   0  0  1  0  0  0  0  0  0  0  0  0
   25.9957  -32.2859  -10.8758 C   0  0  0  0  0  0  0  0  0  0  0  0
   25.6852  -32.7506   -9.5071 C   0  0  0  0  0  0  0  0  0  0  0  0
   26.5589  -33.4426   -8.6855 C   0  0  0  0  0  0  0  0  0  0  0  0
   25.9223  -33.6570   -7.5257 N   0  0  0  0  0  0  0  0  0  0  0  0
   24.6874  -33.1325   -7.5784 C   0  0  0  0  0  0  0  0  0  0  0  0
   23.7000  -33.1217   -6.6349 C   0  0  0  0  0  0  0  0  0  0  0  0
   22.5007  -32.5217   -6.9264 C   0  0  0  0  0  0  0  0  0  0  0  0
   22.2814  -31.9344   -8.1500 C   0  0  0  0  0  0  0  0  0  0  0  0
   23.2948  -31.9521   -9.1017 C   0  0  0  0  0  0  0  0  0  0  0  0
   24.5022  -32.5522   -8.8151 C   0  0  0  0  0  0  0  0  0  0  0  0
   25.7238  -34.5100  -11.9796 C   0  0  0  0  0  0  0  0  0  0  0  0
   24.7550  -34.4388  -12.7816 O   0  0  0  0  0  0  0  0  0  0  0  0
   27.2914  -39.9218  -10.4000 C   0  0  0  0  0  0  0  0  0  0  0  0
   26.6796  -38.5480  -10.3785 C   0  0  0  0  0  0  0  0  0  0  0  0
   25.9028  -38.1731  -11.5848 C   0  0  2  0  0  0  0  0  0  0  0  0
   26.8245  -38.2777  -12.7839 C   0  0  0  0  0  0  0  0  0  0  0  0
   25.1605  -36.8840  -11.5485 C   0  0  2  0  0  0  0  0  0  0  0  0
   25.9709  -35.7390  -11.3054 N   0  0  0  0  0  0  0  0  0  0  0  0
   24.0106  -36.8932  -10.6289 C   0  0  0  0  0  0  0  0  0  0  0  0
   23.8296  -35.9413   -9.6329 O   0  0  0  0  0  0  0  0  0  0  0  0
   23.1238  -37.7817  -10.7083 O   0  0  0  0  0  0  0  0  0  0  0  0
  2  4  1  0
  2  1  1  6
  2  3  1  0
  4  5  2  0
  6  7  1  0
  6  4  1  0
  7  8  1  6
  8  9  1  0
  9 17  1  0
 10  9  2  0
 10 11  1  0
 11 12  1  0
 12 17  2  0
 12 13  1  0
 13 14  2  0
 14 15  1  0
 16 15  2  0
 17 16  1  0
 18 19  2  0
 18  7  1  0
 21 22  1  0
 21 20  1  0
 22 23  1  6
 24 25  1  1
 24 22  1  0
 25 18  1  0
 26 24  1  0
 27 26  1  0
 28 26  2  0
M  END
$$$$
