AWI.pdb
     RDKit          3D

 28 29  0  0  1  0  0  0  0  0999 V2000
   27.3088  -21.7598  -17.5754 C   0  0  0  0  0  0  0  0  0  0  0  0
   28.0942  -22.0697  -16.3248 C   0  0  2  0  0  0  0  0  0  0  0  0
   28.6518  -23.3838  -16.4480 N   0  0  0  0  0  0  0  0  0  0  0  0
   27.2115  -22.0055  -15.1269 C   0  0  0  0  0  0  0  0  0  0  0  0
   26.5285  -23.0123  -14.7985 O   0  0  0  0  0  0  0  0  0  0  0  0
   27.1002  -20.8445  -14.3231 N   0  0  0  0  0  0  0  0  0  0  0  0
   26.2642  -20.7250  -13.1596 C   0  0  1  0  0  0  0  0  0  0  0  0
   26.8466  -19.8393  -12.1245 C   0  0  0  0  0  0  0  0  0  0  0  0
   27.8230  -20.4765  -11.2155 C   0  0  0  0  0  0  0  0  0  0  0  0
   28.9940  -21.0973  -11.6160 C   0  0  0  0  0  0  0  0  0  0  0  0
   29.6150  -21.5200  -10.5060 N   0  0  0  0  0  0  0  0  0  0  0  0
   28.8893  -21.1948   -9.4243 C   0  0  0  0  0  0  0  0  0  0  0  0
   29.1353  -21.4310   -8.1018 C   0  0  0  0  0  0  0  0  0  0  0  0
   28.2290  -21.0030   -7.1643 C   0  0  0  0  0  0  0  0  0  0  0  0
   27.0821  -20.3431   -7.5376 C   0  0  0  0  0  0  0  0  0  0  0  0
   26.8435  -20.1088   -8.8870 C   0  0  0  0  0  0  0  0  0  0  0  0
   27.7502  -20.5351   -9.8338 C   0  0  0  0  0  0  0  0  0  0  0  0
   24.8906  -20.4471  -13.5541 C   0  0  0  0  0  0  0  0  0  0  0  0
   24.6822  -19.4315  -14.2696 O   0  0  0  0  0  0  0  0  0  0  0  0
   19.9867  -22.7096  -16.0407 C   0  0  0  0  0  0  0  0  0  0  0  0
   20.4949  -21.7301  -15.0188 C   0  0  0  0  0  0  0  0  0  0  0  0
   21.8651  -21.9853  -14.5122 C   0  0  2  0  0  0  0  0  0  0  0  0
   21.8849  -23.3717  -13.8992 C   0  0  0  0  0  0  0  0  0  0  0  0
   22.4673  -20.9593  -13.6183 C   0  0  2  0  0  0  0  0  0  0  0  0
   23.7858  -21.2599  -13.1734 N   0  0  0  0  0  0  0  0  0  0  0  0
   21.6153  -20.6065  -12.4704 C   0  0  0  0  0  0  0  0  0  0  0  0
   20.3620  -20.0224  -12.6085 O   0  0  0  0  0  0  0  0  0  0  0  0
   21.9935  -20.8247  -11.2907 O   0  0  0  0  0  0  0  0  0  0  0  0
  2  4  1  0
  2  1  1  6
  2  3  1  0
  4  5  2  0
  6  7  1  0
  6  4  1  0
  7  8  1  1
  8  9  1  0
  9 17  1  0
 10  9  2  0
 10 11  1  0
 11 12  1  0
 12 17  2  0
 12 13  1  0
 13 14  2  0
 14 15  1  0
 16 15  2  0
 17 16  1  0
 18 19  2  0
 18  7  1  0
 21 22  1  0
 21 20  1  0
 22 23  1  1
 24 25  1  1
 24 22  1  0
 25 18  1  0
 26 24  1  0
 27 26  1  0
 28 26  2  0
M  END
$$$$
