AWI.pdb
     RDKit          3D

 28 29  0  0  1  0  0  0  0  0999 V2000
   27.8779  -19.6731  -15.2255 C   0  0  0  0  0  0  0  0  0  0  0  0
   28.3942  -20.9351  -14.5792 C   0  0  2  0  0  0  0  0  0  0  0  0
   28.2503  -22.0170  -15.5076 N   0  0  0  0  0  0  0  0  0  0  0  0
   27.6314  -21.2320  -13.3350 C   0  0  0  0  0  0  0  0  0  0  0  0
   26.5851  -21.9318  -13.3946 O   0  0  0  0  0  0  0  0  0  0  0  0
   28.0329  -20.7564  -12.0626 N   0  0  0  0  0  0  0  0  0  0  0  0
   27.2923  -20.9379  -10.8438 C   0  0  1  0  0  0  0  0  0  0  0  0
   28.1047  -20.6685   -9.6345 C   0  0  0  0  0  0  0  0  0  0  0  0
   27.3545  -20.6104   -8.3619 C   0  0  0  0  0  0  0  0  0  0  0  0
   26.0619  -21.0721   -8.1796 C   0  0  0  0  0  0  0  0  0  0  0  0
   25.7492  -20.8690   -6.8922 N   0  0  0  0  0  0  0  0  0  0  0  0
   26.7848  -20.3001   -6.2546 C   0  0  0  0  0  0  0  0  0  0  0  0
   26.9052  -19.9162   -4.9495 C   0  0  0  0  0  0  0  0  0  0  0  0
   28.0766  -19.3407   -4.5252 C   0  0  0  0  0  0  0  0  0  0  0  0
   29.1252  -19.1463   -5.3929 C   0  0  0  0  0  0  0  0  0  0  0  0
   28.9899  -19.5416   -6.7189 C   0  0  0  0  0  0  0  0  0  0  0  0
   27.8164  -20.1212   -7.1514 C   0  0  0  0  0  0  0  0  0  0  0  0
   26.0089  -20.2557  -10.9293 C   0  0  0  0  0  0  0  0  0  0  0  0
   26.0181  -18.9968  -10.9723 O   0  0  0  0  0  0  0  0  0  0  0  0
   21.8862  -19.5684  -14.7935 C   0  0  0  0  0  0  0  0  0  0  0  0
   22.1131  -19.5342  -13.3071 C   0  0  0  0  0  0  0  0  0  0  0  0
   23.3106  -20.2637  -12.8245 C   0  0  2  0  0  0  0  0  0  0  0  0
   23.2693  -21.6634  -13.4053 C   0  0  0  0  0  0  0  0  0  0  0  0
   23.5688  -20.2633  -11.3590 C   0  0  2  0  0  0  0  0  0  0  0  0
   24.7597  -20.9371  -10.9659 N   0  0  0  0  0  0  0  0  0  0  0  0
   22.4292  -20.7452  -10.5610 C   0  0  0  0  0  0  0  0  0  0  0  0
   21.2026  -20.0934  -10.5213 O   0  0  0  0  0  0  0  0  0  0  0  0
   22.5191  -21.7907   -9.8673 O   0  0  0  0  0  0  0  0  0  0  0  0
  2  4  1  0
  2  1  1  6
  2  3  1  0
  4  5  2  0
  6  7  1  0
  6  4  1  0
  7  8  1  1
  8  9  1  0
  9 17  1  0
 10  9  2  0
 10 11  1  0
 11 12  1  0
 12 17  2  0
 12 13  1  0
 13 14  2  0
 14 15  1  0
 16 15  2  0
 17 16  1  0
 18 19  2  0
 18  7  1  0
 21 22  1  0
 21 20  1  0
 22 23  1  1
 24 25  1  6
 24 22  1  0
 25 18  1  0
 26 24  1  0
 27 26  1  0
 28 26  2  0
M  END
$$$$
