AWI.pdb
     RDKit          3D

 28 29  0  0  1  0  0  0  0  0999 V2000
   26.6090  -15.9821  -17.7326 C   0  0  0  0  0  0  0  0  0  0  0  0
   27.6334  -17.0281  -17.3674 C   0  0  2  0  0  0  0  0  0  0  0  0
   28.1585  -17.5957  -18.5737 N   0  0  0  0  0  0  0  0  0  0  0  0
   27.0126  -18.0958  -16.5350 C   0  0  0  0  0  0  0  0  0  0  0  0
   26.3232  -18.9962  -17.0847 O   0  0  0  0  0  0  0  0  0  0  0  0
   27.1624  -18.1492  -15.1275 N   0  0  0  0  0  0  0  0  0  0  0  0
   26.5766  -19.1468  -14.2739 C   0  0  1  0  0  0  0  0  0  0  0  0
   27.3204  -19.3227  -13.0047 C   0  0  0  0  0  0  0  0  0  0  0  0
   26.8089  -20.3802  -12.1069 C   0  0  0  0  0  0  0  0  0  0  0  0
   26.6147  -21.7030  -12.4670 C   0  0  0  0  0  0  0  0  0  0  0  0
   26.1718  -22.3465  -11.3779 N   0  0  0  0  0  0  0  0  0  0  0  0
   26.0774  -21.4903  -10.3480 C   0  0  0  0  0  0  0  0  0  0  0  0
   25.6692  -21.7083   -9.0630 C   0  0  0  0  0  0  0  0  0  0  0  0
   25.6506  -20.6595   -8.1783 C   0  0  0  0  0  0  0  0  0  0  0  0
   26.0355  -19.3981   -8.5670 C   0  0  0  0  0  0  0  0  0  0  0  0
   26.4491  -19.1894   -9.8778 C   0  0  0  0  0  0  0  0  0  0  0  0
   26.4712  -20.2389  -10.7714 C   0  0  0  0  0  0  0  0  0  0  0  0
   25.1411  -18.9315  -14.1609 C   0  0  0  0  0  0  0  0  0  0  0  0
   24.7440  -17.7653  -13.8984 O   0  0  0  0  0  0  0  0  0  0  0  0
   22.3875  -19.0540  -17.8491 C   0  0  0  0  0  0  0  0  0  0  0  0
   22.3897  -18.6107  -16.4119 C   0  0  0  0  0  0  0  0  0  0  0  0
   22.0056  -19.6453  -15.4214 C   0  0  2  0  0  0  0  0  0  0  0  0
   20.5147  -19.5238  -15.1747 C   0  0  0  0  0  0  0  0  0  0  0  0
   22.7882  -19.7077  -14.1573 C   0  0  2  0  0  0  0  0  0  0  0  0
   24.1775  -19.9652  -14.3314 N   0  0  0  0  0  0  0  0  0  0  0  0
   22.2240  -20.6341  -13.1615 C   0  0  0  0  0  0  0  0  0  0  0  0
   21.3851  -20.2218  -12.1332 O   0  0  0  0  0  0  0  0  0  0  0  0
   22.4820  -21.8646  -13.2010 O   0  0  0  0  0  0  0  0  0  0  0  0
  2  4  1  0
  2  1  1  6
  2  3  1  0
  4  5  2  0
  6  7  1  0
  6  4  1  0
  7  8  1  1
  8  9  1  0
  9 17  1  0
 10  9  2  0
 10 11  1  0
 11 12  1  0
 12 17  2  0
 12 13  1  0
 13 14  2  0
 14 15  1  0
 16 15  2  0
 17 16  1  0
 18 19  2  0
 18  7  1  0
 21 22  1  0
 21 20  1  0
 22 23  1  1
 24 25  1  6
 24 22  1  0
 25 18  1  0
 26 24  1  0
 27 26  1  0
 28 26  2  0
M  END
$$$$
