AWI.pdb
     RDKit          3D

 28 29  0  0  1  0  0  0  0  0999 V2000
   22.1177  -29.7557  -18.2719 C   0  0  0  0  0  0  0  0  0  0  0  0
   23.0104  -29.1158  -17.2372 C   0  0  2  0  0  0  0  0  0  0  0  0
   24.1994  -29.9046  -17.1073 N   0  0  0  0  0  0  0  0  0  0  0  0
   22.3110  -29.0358  -15.9247 C   0  0  0  0  0  0  0  0  0  0  0  0
   22.1424  -30.0809  -15.2410 O   0  0  0  0  0  0  0  0  0  0  0  0
   21.8163  -27.8178  -15.3973 N   0  0  0  0  0  0  0  0  0  0  0  0
   21.0984  -27.6877  -14.1585 C   0  0  1  0  0  0  0  0  0  0  0  0
   21.2838  -26.3608  -13.5259 C   0  0  0  0  0  0  0  0  0  0  0  0
   20.5100  -26.1309  -12.2873 C   0  0  0  0  0  0  0  0  0  0  0  0
   20.4977  -26.9750  -11.1897 C   0  0  0  0  0  0  0  0  0  0  0  0
   19.7063  -26.4100  -10.2674 N   0  0  0  0  0  0  0  0  0  0  0  0
   19.2187  -25.2489  -10.7329 C   0  0  0  0  0  0  0  0  0  0  0  0
   18.3761  -24.3526  -10.1396 C   0  0  0  0  0  0  0  0  0  0  0  0
   18.0066  -23.2235  -10.8266 C   0  0  0  0  0  0  0  0  0  0  0  0
   18.4713  -22.9842  -12.0982 C   0  0  0  0  0  0  0  0  0  0  0  0
   19.3285  -23.9043  -12.6909 C   0  0  0  0  0  0  0  0  0  0  0  0
   19.7044  -25.0401  -12.0061 C   0  0  0  0  0  0  0  0  0  0  0  0
   19.7252  -28.1424  -14.3233 C   0  0  0  0  0  0  0  0  0  0  0  0
   19.1196  -27.8037  -15.3746 O   0  0  0  0  0  0  0  0  0  0  0  0
   17.3310  -32.9133  -14.5715 C   0  0  0  0  0  0  0  0  0  0  0  0
   17.9284  -31.5386  -14.4473 C   0  0  0  0  0  0  0  0  0  0  0  0
   17.2856  -30.6479  -13.4510 C   0  0  2  0  0  0  0  0  0  0  0  0
   15.7876  -30.8693  -13.5256 C   0  0  0  0  0  0  0  0  0  0  0  0
   17.6499  -29.2055  -13.4855 C   0  0  2  0  0  0  0  0  0  0  0  0
   19.0436  -28.9423  -13.3631 N   0  0  0  0  0  0  0  0  0  0  0  0
   16.8948  -28.3851  -12.5239 C   0  0  0  0  0  0  0  0  0  0  0  0
   15.7624  -27.6592  -12.8725 O   0  0  0  0  0  0  0  0  0  0  0  0
   17.2498  -28.3059  -11.3197 O   0  0  0  0  0  0  0  0  0  0  0  0
  2  4  1  0
  2  1  1  6
  2  3  1  0
  4  5  2  0
  6  7  1  0
  6  4  1  0
  7  8  1  6
  8  9  1  0
  9 17  1  0
 10  9  2  0
 10 11  1  0
 11 12  1  0
 12 17  2  0
 12 13  1  0
 13 14  2  0
 14 15  1  0
 16 15  2  0
 17 16  1  0
 18 19  2  0
 18  7  1  0
 21 22  1  0
 21 20  1  0
 22 23  1  6
 24 25  1  1
 24 22  1  0
 25 18  1  0
 26 24  1  0
 27 26  1  0
 28 26  2  0
M  END
$$$$
