AWI.pdb
     RDKit          3D

 28 29  0  0  1  0  0  0  0  0999 V2000
   29.7303  -19.5544  -12.6135 C   0  0  0  0  0  0  0  0  0  0  0  0
   29.7831  -20.2724  -11.2874 C   0  0  2  0  0  0  0  0  0  0  0  0
   30.7015  -21.3669  -11.3955 N   0  0  0  0  0  0  0  0  0  0  0  0
   28.4330  -20.7802  -10.9168 C   0  0  0  0  0  0  0  0  0  0  0  0
   28.0977  -21.9535  -11.2316 O   0  0  0  0  0  0  0  0  0  0  0  0
   27.4887  -19.9927  -10.2135 N   0  0  0  0  0  0  0  0  0  0  0  0
   26.1855  -20.4399   -9.8030 C   0  0  1  0  0  0  0  0  0  0  0  0
   25.7875  -19.9063   -8.4794 C   0  0  0  0  0  0  0  0  0  0  0  0
   26.9009  -19.5405   -7.5781 C   0  0  0  0  0  0  0  0  0  0  0  0
   27.6429  -18.3746   -7.6643 C   0  0  0  0  0  0  0  0  0  0  0  0
   28.5318  -18.3987   -6.6614 N   0  0  0  0  0  0  0  0  0  0  0  0
   28.3847  -19.5260   -5.9472 C   0  0  0  0  0  0  0  0  0  0  0  0
   29.0732  -19.9648   -4.8524 C   0  0  0  0  0  0  0  0  0  0  0  0
   28.7415  -21.1724   -4.2913 C   0  0  0  0  0  0  0  0  0  0  0  0
   27.7300  -21.9426   -4.8148 C   0  0  0  0  0  0  0  0  0  0  0  0
   27.0367  -21.4846   -5.9294 C   0  0  0  0  0  0  0  0  0  0  0  0
   27.3642  -20.2720   -6.4973 C   0  0  0  0  0  0  0  0  0  0  0  0
   25.2297  -20.2660  -10.8874 C   0  0  0  0  0  0  0  0  0  0  0  0
   25.3554  -19.2487  -11.6196 O   0  0  0  0  0  0  0  0  0  0  0  0
   22.4577  -23.1844  -15.3776 C   0  0  0  0  0  0  0  0  0  0  0  0
   22.4603  -22.0010  -14.4494 C   0  0  0  0  0  0  0  0  0  0  0  0
   23.3160  -22.1324  -13.2454 C   0  0  2  0  0  0  0  0  0  0  0  0
   22.9936  -23.4593  -12.5868 C   0  0  0  0  0  0  0  0  0  0  0  0
   23.3154  -21.0020  -12.2776 C   0  0  2  0  0  0  0  0  0  0  0  0
   24.1728  -21.1811  -11.1553 N   0  0  0  0  0  0  0  0  0  0  0  0
   21.9683  -20.6143  -11.8271 C   0  0  0  0  0  0  0  0  0  0  0  0
   20.9962  -20.1166  -12.6864 O   0  0  0  0  0  0  0  0  0  0  0  0
   21.6328  -20.7205  -10.6195 O   0  0  0  0  0  0  0  0  0  0  0  0
  2  4  1  0
  2  1  1  6
  2  3  1  0
  4  5  2  0
  6  7  1  0
  6  4  1  0
  7  8  1  1
  8  9  1  0
  9 17  1  0
 10  9  2  0
 10 11  1  0
 11 12  1  0
 12 17  2  0
 12 13  1  0
 13 14  2  0
 14 15  1  0
 16 15  2  0
 17 16  1  0
 18 19  2  0
 18  7  1  0
 21 22  1  0
 21 20  1  0
 22 23  1  1
 24 25  1  1
 24 22  1  0
 25 18  1  0
 26 24  1  0
 27 26  1  0
 28 26  2  0
M  END
$$$$
