DDT.pdb
     RDKit          3D

 24 23  0  0  1  0  0  0  0  0999 V2000
   15.5176  -13.2073  -16.2668 N   0  0  0  0  0  0  0  0  0  0  0  0
   16.9351  -13.3368  -16.1454 C   0  0  1  0  0  0  0  0  0  0  0  0
   17.3990  -14.5503  -16.9167 C   0  0  0  0  0  0  0  0  0  0  0  0
   16.6623  -15.7183  -16.3962 C   0  0  0  0  0  0  0  0  0  0  0  0
   16.6648  -15.9884  -15.1781 O   0  0  0  0  0  0  0  0  0  0  0  0
   17.6335  -12.1018  -16.5128 C   0  0  0  0  0  0  0  0  0  0  0  0
   18.8919  -12.1112  -16.5449 O   0  0  0  0  0  0  0  0  0  0  0  0
   15.9609  -16.5239  -17.2658 O   0  0  0  0  0  0  0  0  0  0  0  0
   16.9932  -10.8852  -16.8381 N   0  0  0  0  0  0  0  0  0  0  0  0
   17.6771   -9.6682  -17.1750 C   0  0  1  0  0  0  0  0  0  0  0  0
   16.7865   -8.6384  -17.7746 C   0  0  0  0  0  0  0  0  0  0  0  0
   17.4605   -7.3939  -18.1491 C   0  0  0  0  0  0  0  0  0  0  0  0
   17.0520   -6.2501  -17.8285 O   0  0  0  0  0  0  0  0  0  0  0  0
   18.4420   -9.1041  -16.0443 C   0  0  0  0  0  0  0  0  0  0  0  0
   17.8864   -9.0752  -14.9171 O   0  0  0  0  0  0  0  0  0  0  0  0
   18.6224   -7.4556  -18.9033 O   0  0  0  0  0  0  0  0  0  0  0  0
   22.3971   -8.4726  -13.4464 C   0  0  0  0  0  0  0  0  0  0  0  0
   21.6804   -8.9525  -14.6856 C   0  0  1  0  0  0  0  0  0  0  0  0
   21.3270  -10.2807  -14.4581 O   0  0  0  0  0  0  0  0  0  0  0  0
   20.4356   -8.1302  -14.9596 C   0  0  2  0  0  0  0  0  0  0  0  0
   19.7607   -8.5931  -16.1465 N   0  0  0  0  0  0  0  0  0  0  0  0
   20.7741   -6.6788  -15.0783 C   0  0  0  0  0  0  0  0  0  0  0  0
   21.1226   -6.1801  -16.1764 O   0  0  0  0  0  0  0  0  0  0  0  0
   20.7227   -5.8126  -13.9954 O   0  0  0  0  0  0  0  0  0  0  0  0
  2  1  1  6
  2  3  1  0
  3  4  1  0
  4  5  2  0
  4  8  1  0
  6  2  1  0
  6  7  2  0
  9  6  1  0
 10  9  1  0
 10 11  1  1
 12 11  1  0
 12 16  1  0
 13 12  2  0
 14 10  1  0
 14 21  1  0
 15 14  2  0
 18 17  1  1
 18 19  1  0
 18 20  1  0
 20 21  1  6
 20 22  1  0
 22 23  2  0
 22 24  1  0
M  END
$$$$
