DDT.pdb
     RDKit          3D

 24 23  0  0  1  0  0  0  0  0999 V2000
   16.7895  -10.5563  -17.0258 N   0  0  0  0  0  0  0  0  0  0  0  0
   17.1955  -11.2390  -15.8384 C   0  0  1  0  0  0  0  0  0  0  0  0
   17.1799  -12.7298  -16.0831 C   0  0  0  0  0  0  0  0  0  0  0  0
   15.7744  -13.1355  -16.2775 C   0  0  0  0  0  0  0  0  0  0  0  0
   15.1920  -13.8547  -15.4407 O   0  0  0  0  0  0  0  0  0  0  0  0
   18.4743  -10.7386  -15.3265 C   0  0  0  0  0  0  0  0  0  0  0  0
   19.1620  -11.4929  -14.5897 O   0  0  0  0  0  0  0  0  0  0  0  0
   15.0932  -12.7154  -17.3985 O   0  0  0  0  0  0  0  0  0  0  0  0
   19.0011   -9.4566  -15.6007 N   0  0  0  0  0  0  0  0  0  0  0  0
   20.2983   -9.0020  -15.1851 C   0  0  1  0  0  0  0  0  0  0  0  0
   21.4114   -9.8399  -15.7069 C   0  0  0  0  0  0  0  0  0  0  0  0
   22.7490   -9.3775  -15.3320 C   0  0  0  0  0  0  0  0  0  0  0  0
   23.0075   -8.7670  -14.2651 O   0  0  0  0  0  0  0  0  0  0  0  0
   20.5330   -7.5748  -15.4848 C   0  0  0  0  0  0  0  0  0  0  0  0
   20.5527   -7.2248  -16.6920 O   0  0  0  0  0  0  0  0  0  0  0  0
   23.8114   -9.6164  -16.1904 O   0  0  0  0  0  0  0  0  0  0  0  0
   20.0315   -2.9025  -15.0259 C   0  0  0  0  0  0  0  0  0  0  0  0
   19.7773   -4.3355  -14.6243 C   0  0  1  0  0  0  0  0  0  0  0  0
   18.6836   -4.7745  -15.3672 O   0  0  0  0  0  0  0  0  0  0  0  0
   20.9796   -5.2140  -14.9134 C   0  0  2  0  0  0  0  0  0  0  0  0
   20.7376   -6.5742  -14.5013 N   0  0  0  0  0  0  0  0  0  0  0  0
   22.2045   -4.6722  -14.2489 C   0  0  0  0  0  0  0  0  0  0  0  0
   22.5451   -5.0541  -13.1026 O   0  0  0  0  0  0  0  0  0  0  0  0
   23.0229   -3.7291  -14.8542 O   0  0  0  0  0  0  0  0  0  0  0  0
  2  1  1  6
  2  3  1  0
  3  4  1  0
  4  5  2  0
  4  8  1  0
  6  2  1  0
  6  7  2  0
  9  6  1  0
 10  9  1  0
 10 11  1  6
 12 11  1  0
 12 16  1  0
 13 12  2  0
 14 10  1  0
 14 21  1  0
 15 14  2  0
 18 17  1  6
 18 19  1  0
 18 20  1  0
 20 21  1  1
 20 22  1  0
 22 23  2  0
 22 24  1  0
M  END
$$$$
