DDT.pdb
     RDKit          3D

 24 23  0  0  1  0  0  0  0  0999 V2000
   16.3555  -11.5594  -16.0405 N   0  0  0  0  0  0  0  0  0  0  0  0
   16.6546  -10.1891  -16.3123 C   0  0  1  0  0  0  0  0  0  0  0  0
   15.4093   -9.3541  -16.1257 C   0  0  0  0  0  0  0  0  0  0  0  0
   14.4380   -9.7647  -17.1579 C   0  0  0  0  0  0  0  0  0  0  0  0
   14.5496   -9.3722  -18.3371 O   0  0  0  0  0  0  0  0  0  0  0  0
   17.8051   -9.7136  -15.5389 C   0  0  0  0  0  0  0  0  0  0  0  0
   17.7120   -9.6807  -14.2840 O   0  0  0  0  0  0  0  0  0  0  0  0
   13.3916  -10.5931  -16.8174 O   0  0  0  0  0  0  0  0  0  0  0  0
   19.0273   -9.2836  -16.1024 N   0  0  0  0  0  0  0  0  0  0  0  0
   20.1890   -8.9125  -15.3442 C   0  0  1  0  0  0  0  0  0  0  0  0
   21.3431   -9.8290  -15.5482 C   0  0  0  0  0  0  0  0  0  0  0  0
   22.5451   -9.4717  -14.7927 C   0  0  0  0  0  0  0  0  0  0  0  0
   22.5564   -8.6614  -13.8328 O   0  0  0  0  0  0  0  0  0  0  0  0
   20.5926   -7.5077  -15.5571 C   0  0  0  0  0  0  0  0  0  0  0  0
   20.9072   -7.1584  -16.7230 O   0  0  0  0  0  0  0  0  0  0  0  0
   23.7571  -10.0498  -15.1387 O   0  0  0  0  0  0  0  0  0  0  0  0
   20.5237   -2.7687  -14.8600 C   0  0  0  0  0  0  0  0  0  0  0  0
   20.0318   -4.1686  -14.5812 C   0  0  1  0  0  0  0  0  0  0  0  0
   18.9480   -4.3912  -15.4278 O   0  0  0  0  0  0  0  0  0  0  0  0
   21.1119   -5.1994  -14.8488 C   0  0  2  0  0  0  0  0  0  0  0  0
   20.6487   -6.5279  -14.5338 N   0  0  0  0  0  0  0  0  0  0  0  0
   22.3536   -4.8784  -14.0805 C   0  0  0  0  0  0  0  0  0  0  0  0
   22.4804   -5.2177  -12.8785 O   0  0  0  0  0  0  0  0  0  0  0  0
   23.4219   -4.1962  -14.6455 O   0  0  0  0  0  0  0  0  0  0  0  0
  2  1  1  1
  2  3  1  0
  3  4  1  0
  4  5  2  0
  4  8  1  0
  6  2  1  0
  6  7  2  0
  9  6  1  0
 10  9  1  0
 10 11  1  6
 12 11  1  0
 12 16  1  0
 13 12  2  0
 14 10  1  0
 14 21  1  0
 15 14  2  0
 18 17  1  6
 18 19  1  0
 18 20  1  0
 20 21  1  1
 20 22  1  0
 22 23  2  0
 22 24  1  0
M  END
$$$$
