DDT.pdb
     RDKit          3D

 24 23  0  0  1  0  0  0  0  0999 V2000
   17.8764  -11.2661  -15.7605 N   0  0  0  0  0  0  0  0  0  0  0  0
   17.0134  -10.2394  -15.2686 C   0  0  1  0  0  0  0  0  0  0  0  0
   16.2478  -10.7541  -14.0721 C   0  0  0  0  0  0  0  0  0  0  0  0
   15.4074  -11.8776  -14.5295 C   0  0  0  0  0  0  0  0  0  0  0  0
   15.0914  -12.8012  -13.7523 O   0  0  0  0  0  0  0  0  0  0  0  0
   17.7352   -8.9896  -15.0140 C   0  0  0  0  0  0  0  0  0  0  0  0
   17.3979   -8.2938  -14.0207 O   0  0  0  0  0  0  0  0  0  0  0  0
   14.9641  -11.9098  -15.8332 O   0  0  0  0  0  0  0  0  0  0  0  0
   18.7951   -8.4997  -15.8095 N   0  0  0  0  0  0  0  0  0  0  0  0
   19.5553   -7.3171  -15.5168 C   0  0  1  0  0  0  0  0  0  0  0  0
   21.0148   -7.4813  -15.7533 C   0  0  0  0  0  0  0  0  0  0  0  0
   21.6824   -8.3977  -14.8270 C   0  0  0  0  0  0  0  0  0  0  0  0
   22.5384   -9.2485  -15.1757 O   0  0  0  0  0  0  0  0  0  0  0  0
   19.0448   -6.1167  -16.2097 C   0  0  0  0  0  0  0  0  0  0  0  0
   19.1128   -6.0909  -17.4647 O   0  0  0  0  0  0  0  0  0  0  0  0
   21.3676   -8.3423  -13.4778 O   0  0  0  0  0  0  0  0  0  0  0  0
   15.5954   -4.8213  -16.2893 C   0  0  0  0  0  0  0  0  0  0  0  0
   16.4856   -3.6505  -15.9486 C   0  0  1  0  0  0  0  0  0  0  0  0
   16.3963   -3.4636  -14.5709 O   0  0  0  0  0  0  0  0  0  0  0  0
   17.9270   -3.9181  -16.3375 C   0  0  2  0  0  0  0  0  0  0  0  0
   18.4837   -4.9922  -15.5533 N   0  0  0  0  0  0  0  0  0  0  0  0
   18.7531   -2.6800  -16.1967 C   0  0  0  0  0  0  0  0  0  0  0  0
   19.6828   -2.6108  -15.3559 O   0  0  0  0  0  0  0  0  0  0  0  0
   18.5415   -1.5524  -16.9773 O   0  0  0  0  0  0  0  0  0  0  0  0
  2  1  1  1
  2  3  1  0
  3  4  1  0
  4  5  2  0
  4  8  1  0
  6  2  1  0
  6  7  2  0
  9  6  1  0
 10  9  1  0
 10 11  1  6
 12 11  1  0
 12 16  1  0
 13 12  2  0
 14 10  1  0
 14 21  1  0
 15 14  2  0
 18 17  1  1
 18 19  1  0
 18 20  1  0
 20 21  1  1
 20 22  1  0
 22 23  2  0
 22 24  1  0
M  END
$$$$
