DDT.pdb
     RDKit          3D

 24 23  0  0  1  0  0  0  0  0999 V2000
   16.2993  -11.4686  -15.4012 N   0  0  0  0  0  0  0  0  0  0  0  0
   16.7034  -10.2187  -15.9630 C   0  0  1  0  0  0  0  0  0  0  0  0
   15.5782   -9.2190  -15.8316 C   0  0  0  0  0  0  0  0  0  0  0  0
   14.4668   -9.6835  -16.6839 C   0  0  0  0  0  0  0  0  0  0  0  0
   13.3876  -10.0600  -16.1833 O   0  0  0  0  0  0  0  0  0  0  0  0
   17.9759   -9.7514  -15.4061 C   0  0  0  0  0  0  0  0  0  0  0  0
   18.1608   -9.8528  -14.1650 O   0  0  0  0  0  0  0  0  0  0  0  0
   14.6201   -9.7028  -18.0526 O   0  0  0  0  0  0  0  0  0  0  0  0
   19.0251   -9.1882  -16.1664 N   0  0  0  0  0  0  0  0  0  0  0  0
   20.2732   -8.7322  -15.6219 C   0  0  1  0  0  0  0  0  0  0  0  0
   21.4473   -9.5012  -16.1152 C   0  0  0  0  0  0  0  0  0  0  0  0
   22.7267   -9.1049  -15.5242 C   0  0  0  0  0  0  0  0  0  0  0  0
   22.8842   -8.8330  -14.3079 O   0  0  0  0  0  0  0  0  0  0  0  0
   20.4853   -7.2815  -15.8009 C   0  0  0  0  0  0  0  0  0  0  0  0
   20.6918   -6.8586  -16.9666 O   0  0  0  0  0  0  0  0  0  0  0  0
   23.8474   -9.0173  -16.3359 O   0  0  0  0  0  0  0  0  0  0  0  0
   18.2359   -4.4855  -15.2545 C   0  0  0  0  0  0  0  0  0  0  0  0
   19.5198   -4.0967  -14.5617 C   0  0  1  0  0  0  0  0  0  0  0  0
   19.3199   -4.3006  -13.1981 O   0  0  0  0  0  0  0  0  0  0  0  0
   20.6858   -4.9402  -15.0409 C   0  0  2  0  0  0  0  0  0  0  0  0
   20.4715   -6.3349  -14.7454 N   0  0  0  0  0  0  0  0  0  0  0  0
   21.9681   -4.4646  -14.4368 C   0  0  0  0  0  0  0  0  0  0  0  0
   22.6371   -5.1992  -13.6695 O   0  0  0  0  0  0  0  0  0  0  0  0
   22.4840   -3.2009  -14.6870 O   0  0  0  0  0  0  0  0  0  0  0  0
  2  1  1  1
  2  3  1  0
  3  4  1  0
  4  5  2  0
  4  8  1  0
  6  2  1  0
  6  7  2  0
  9  6  1  0
 10  9  1  0
 10 11  1  6
 12 11  1  0
 12 16  1  0
 13 12  2  0
 14 10  1  0
 14 21  1  0
 15 14  2  0
 18 17  1  6
 18 19  1  0
 18 20  1  0
 20 21  1  1
 20 22  1  0
 22 23  2  0
 22 24  1  0
M  END
$$$$
