DDT.pdb
     RDKit          3D

 24 23  0  0  1  0  0  0  0  0999 V2000
   18.8316  -11.0655  -17.2012 N   0  0  0  0  0  0  0  0  0  0  0  0
   18.5893  -10.4123  -15.9539 C   0  0  1  0  0  0  0  0  0  0  0  0
   18.3715  -11.4481  -14.8758 C   0  0  0  0  0  0  0  0  0  0  0  0
   17.1984  -12.2552  -15.2628 C   0  0  0  0  0  0  0  0  0  0  0  0
   16.6025  -12.0471  -16.3392 O   0  0  0  0  0  0  0  0  0  0  0  0
   19.6345   -9.4366  -15.6321 C   0  0  0  0  0  0  0  0  0  0  0  0
   19.7384   -9.0395  -14.4421 O   0  0  0  0  0  0  0  0  0  0  0  0
   16.7522  -13.2536  -14.4254 O   0  0  0  0  0  0  0  0  0  0  0  0
   20.5464   -8.9005  -16.5686 N   0  0  0  0  0  0  0  0  0  0  0  0
   21.5805   -7.9559  -16.2513 C   0  0  1  0  0  0  0  0  0  0  0  0
   22.7922   -8.1008  -17.1021 C   0  0  0  0  0  0  0  0  0  0  0  0
   23.8618   -7.1460  -16.8060 C   0  0  0  0  0  0  0  0  0  0  0  0
   24.6492   -6.6838  -17.6688 O   0  0  0  0  0  0  0  0  0  0  0  0
   21.1047   -6.5575  -16.2523 C   0  0  0  0  0  0  0  0  0  0  0  0
   20.8086   -6.0398  -17.3589 O   0  0  0  0  0  0  0  0  0  0  0  0
   24.0361   -6.7103  -15.5012 O   0  0  0  0  0  0  0  0  0  0  0  0
   18.1574   -5.1147  -15.4616 C   0  0  0  0  0  0  0  0  0  0  0  0
   19.1143   -4.2089  -14.7245 C   0  0  1  0  0  0  0  0  0  0  0  0
   19.0350   -4.5502  -13.3761 O   0  0  0  0  0  0  0  0  0  0  0  0
   20.5380   -4.3885  -15.2161 C   0  0  2  0  0  0  0  0  0  0  0  0
   20.9603   -5.7610  -15.0882 N   0  0  0  0  0  0  0  0  0  0  0  0
   21.4712   -3.4796  -14.4824 C   0  0  0  0  0  0  0  0  0  0  0  0
   21.3260   -2.2332  -14.5170 O   0  0  0  0  0  0  0  0  0  0  0  0
   22.5365   -3.9567  -13.7318 O   0  0  0  0  0  0  0  0  0  0  0  0
  2  1  1  6
  2  3  1  0
  3  4  1  0
  4  5  2  0
  4  8  1  0
  6  2  1  0
  6  7  2  0
  9  6  1  0
 10  9  1  0
 10 11  1  6
 12 11  1  0
 12 16  1  0
 13 12  2  0
 14 10  1  0
 14 21  1  0
 15 14  2  0
 18 17  1  6
 18 19  1  0
 18 20  1  0
 20 21  1  1
 20 22  1  0
 22 23  2  0
 22 24  1  0
M  END
$$$$
