DDT.pdb
     RDKit          3D

 24 23  0  0  1  0  0  0  0  0999 V2000
   16.4340  -13.5217  -14.9306 N   0  0  0  0  0  0  0  0  0  0  0  0
   15.6503  -12.3431  -14.7361 C   0  0  1  0  0  0  0  0  0  0  0  0
   14.3025  -12.7214  -14.1679 C   0  0  0  0  0  0  0  0  0  0  0  0
   13.5738  -13.4715  -15.2090 C   0  0  0  0  0  0  0  0  0  0  0  0
   13.4006  -12.9881  -16.3462 O   0  0  0  0  0  0  0  0  0  0  0  0
   16.3615  -11.3341  -13.9461 C   0  0  0  0  0  0  0  0  0  0  0  0
   16.8744  -11.6822  -12.8505 O   0  0  0  0  0  0  0  0  0  0  0  0
   13.0765  -14.7239  -14.9240 O   0  0  0  0  0  0  0  0  0  0  0  0
   16.5174   -9.9823  -14.3260 N   0  0  0  0  0  0  0  0  0  0  0  0
   17.1902   -8.9866  -13.5397 C   0  0  1  0  0  0  0  0  0  0  0  0
   17.9637   -8.0138  -14.3574 C   0  0  0  0  0  0  0  0  0  0  0  0
   18.7111   -7.0236  -13.5800 C   0  0  0  0  0  0  0  0  0  0  0  0
   18.6518   -5.7846  -13.7786 O   0  0  0  0  0  0  0  0  0  0  0  0
   16.2886   -8.2836  -12.6044 C   0  0  0  0  0  0  0  0  0  0  0  0
   15.1534   -7.9465  -13.0263 O   0  0  0  0  0  0  0  0  0  0  0  0
   19.5416   -7.4551  -12.5569 O   0  0  0  0  0  0  0  0  0  0  0  0
   15.0899   -6.4397   -8.1659 C   0  0  0  0  0  0  0  0  0  0  0  0
   16.0206   -7.2898   -8.9967 C   0  0  1  0  0  0  0  0  0  0  0  0
   15.8468   -8.6068   -8.5768 O   0  0  0  0  0  0  0  0  0  0  0  0
   15.7030   -7.1769  -10.4756 C   0  0  2  0  0  0  0  0  0  0  0  0
   16.6189   -7.9640  -11.2631 N   0  0  0  0  0  0  0  0  0  0  0  0
   15.7239   -5.7480  -10.9151 C   0  0  0  0  0  0  0  0  0  0  0  0
   14.8226   -4.9471  -10.5658 O   0  0  0  0  0  0  0  0  0  0  0  0
   16.7278   -5.2336  -11.7234 O   0  0  0  0  0  0  0  0  0  0  0  0
  2  1  1  1
  2  3  1  0
  3  4  1  0
  4  5  2  0
  4  8  1  0
  6  2  1  0
  6  7  2  0
  9  6  1  0
 10  9  1  0
 10 11  1  6
 12 11  1  0
 12 16  1  0
 13 12  2  0
 14 10  1  0
 14 21  1  0
 15 14  2  0
 18 17  1  1
 18 19  1  0
 18 20  1  0
 20 21  1  6
 20 22  1  0
 22 23  2  0
 22 24  1  0
M  END
$$$$
