DDT.pdb
     RDKit          3D

 24 23  0  0  1  0  0  0  0  0999 V2000
   17.4425  -11.9502  -16.3948 N   0  0  0  0  0  0  0  0  0  0  0  0
   17.0599  -10.6510  -15.9403 C   0  0  1  0  0  0  0  0  0  0  0  0
   16.5232  -10.7471  -14.5313 C   0  0  0  0  0  0  0  0  0  0  0  0
   15.2373  -11.4685  -14.5917 C   0  0  0  0  0  0  0  0  0  0  0  0
   14.3182  -11.0809  -15.3414 O   0  0  0  0  0  0  0  0  0  0  0  0
   18.1414   -9.6740  -16.0943 C   0  0  0  0  0  0  0  0  0  0  0  0
   19.2977   -9.9942  -15.7137 O   0  0  0  0  0  0  0  0  0  0  0  0
   15.0460  -12.5864  -13.8102 O   0  0  0  0  0  0  0  0  0  0  0  0
   17.9826   -8.3826  -16.6450 N   0  0  0  0  0  0  0  0  0  0  0  0
   19.0446   -7.4303  -16.8103 C   0  0  1  0  0  0  0  0  0  0  0  0
   18.7791   -6.4315  -17.8805 C   0  0  0  0  0  0  0  0  0  0  0  0
   19.8622   -5.4710  -18.0992 C   0  0  0  0  0  0  0  0  0  0  0  0
   19.6876   -4.2342  -18.2326 O   0  0  0  0  0  0  0  0  0  0  0  0
   19.4192   -6.7587  -15.5492 C   0  0  0  0  0  0  0  0  0  0  0  0
   18.5179   -6.1490  -14.9197 O   0  0  0  0  0  0  0  0  0  0  0  0
   21.1688   -5.9302  -18.1667 O   0  0  0  0  0  0  0  0  0  0  0  0
   20.4389   -8.1132  -12.3493 C   0  0  0  0  0  0  0  0  0  0  0  0
   21.4852   -7.0855  -12.7074 C   0  0  1  0  0  0  0  0  0  0  0  0
   22.5743   -7.7826  -13.2261 O   0  0  0  0  0  0  0  0  0  0  0  0
   20.9666   -6.1026  -13.7397 C   0  0  2  0  0  0  0  0  0  0  0  0
   20.7273   -6.7562  -15.0022 N   0  0  0  0  0  0  0  0  0  0  0  0
   21.9169   -4.9609  -13.9094 C   0  0  0  0  0  0  0  0  0  0  0  0
   22.5253   -4.7768  -14.9920 O   0  0  0  0  0  0  0  0  0  0  0  0
   22.1764   -4.0524  -12.8930 O   0  0  0  0  0  0  0  0  0  0  0  0
  2  1  1  1
  2  3  1  0
  3  4  1  0
  4  5  2  0
  4  8  1  0
  6  2  1  0
  6  7  2  0
  9  6  1  0
 10  9  1  0
 10 11  1  6
 12 11  1  0
 12 16  1  0
 13 12  2  0
 14 10  1  0
 14 21  1  0
 15 14  2  0
 18 17  1  6
 18 19  1  0
 18 20  1  0
 20 21  1  6
 20 22  1  0
 22 23  2  0
 22 24  1  0
M  END
$$$$
