DDT.pdb
     RDKit          3D

 24 23  0  0  1  0  0  0  0  0999 V2000
   21.4365  -11.8849  -16.5526 N   0  0  0  0  0  0  0  0  0  0  0  0
   20.8752  -10.8285  -17.3337 C   0  0  1  0  0  0  0  0  0  0  0  0
   19.6745  -11.3446  -18.0919 C   0  0  0  0  0  0  0  0  0  0  0  0
   20.1675  -12.2626  -19.1369 C   0  0  0  0  0  0  0  0  0  0  0  0
   19.4107  -12.6732  -20.0400 O   0  0  0  0  0  0  0  0  0  0  0  0
   20.5961   -9.6370  -16.5273 C   0  0  0  0  0  0  0  0  0  0  0  0
   19.6129   -9.6611  -15.7417 O   0  0  0  0  0  0  0  0  0  0  0  0
   21.4819  -12.6738  -19.1174 O   0  0  0  0  0  0  0  0  0  0  0  0
   21.3572   -8.4472  -16.5652 N   0  0  0  0  0  0  0  0  0  0  0  0
   21.0819   -7.2777  -15.7787 C   0  0  1  0  0  0  0  0  0  0  0  0
   21.9145   -7.1851  -14.5492 C   0  0  0  0  0  0  0  0  0  0  0  0
   21.6200   -6.0294  -13.7001 C   0  0  0  0  0  0  0  0  0  0  0  0
   20.4614   -5.6903  -13.3527 O   0  0  0  0  0  0  0  0  0  0  0  0
   21.1601   -6.0259  -16.5589 C   0  0  0  0  0  0  0  0  0  0  0  0
   22.2502   -5.7536  -17.1226 O   0  0  0  0  0  0  0  0  0  0  0  0
   22.6670   -5.2460  -13.2386 O   0  0  0  0  0  0  0  0  0  0  0  0
   18.7662   -4.7477  -19.3833 C   0  0  0  0  0  0  0  0  0  0  0  0
   19.0131   -3.6665  -18.3589 C   0  0  1  0  0  0  0  0  0  0  0  0
   17.9008   -3.6440  -17.5203 O   0  0  0  0  0  0  0  0  0  0  0  0
   20.2625   -3.9476  -17.5461 C   0  0  2  0  0  0  0  0  0  0  0  0
   20.0874   -5.1117  -16.7138 N   0  0  0  0  0  0  0  0  0  0  0  0
   20.6355   -2.7596  -16.7185 C   0  0  0  0  0  0  0  0  0  0  0  0
   20.3509   -2.7029  -15.4971 O   0  0  0  0  0  0  0  0  0  0  0  0
   21.3084   -1.6671  -17.2471 O   0  0  0  0  0  0  0  0  0  0  0  0
  2  1  1  1
  2  3  1  0
  3  4  1  0
  4  5  2  0
  4  8  1  0
  6  2  1  0
  6  7  2  0
  9  6  1  0
 10  9  1  0
 10 11  1  1
 12 11  1  0
 12 16  1  0
 13 12  2  0
 14 10  1  0
 14 21  1  0
 15 14  2  0
 18 17  1  6
 18 19  1  0
 18 20  1  0
 20 21  1  1
 20 22  1  0
 22 23  2  0
 22 24  1  0
M  END
$$$$
