DDT.pdb
     RDKit          3D

 24 23  0  0  1  0  0  0  0  0999 V2000
   16.3325  -13.0455  -14.6809 N   0  0  0  0  0  0  0  0  0  0  0  0
   15.5595  -11.9132  -14.2790 C   0  0  1  0  0  0  0  0  0  0  0  0
   14.2611  -12.3811  -13.6642 C   0  0  0  0  0  0  0  0  0  0  0  0
   13.5067  -13.1008  -14.7085 C   0  0  0  0  0  0  0  0  0  0  0  0
   12.8718  -14.1410  -14.4404 O   0  0  0  0  0  0  0  0  0  0  0  0
   16.3234  -11.0021  -13.4221 C   0  0  0  0  0  0  0  0  0  0  0  0
   16.9353  -11.4815  -12.4320 O   0  0  0  0  0  0  0  0  0  0  0  0
   13.5016  -12.6194  -15.9990 O   0  0  0  0  0  0  0  0  0  0  0  0
   16.4268   -9.6079  -13.6258 N   0  0  0  0  0  0  0  0  0  0  0  0
   17.1553   -8.7109  -12.7732 C   0  0  1  0  0  0  0  0  0  0  0  0
   18.1171   -7.8480  -13.5104 C   0  0  0  0  0  0  0  0  0  0  0  0
   18.9027   -6.9495  -12.6625 C   0  0  0  0  0  0  0  0  0  0  0  0
   18.9088   -6.9952  -11.4072 O   0  0  0  0  0  0  0  0  0  0  0  0
   16.2778   -7.8960  -11.9085 C   0  0  0  0  0  0  0  0  0  0  0  0
   15.4020   -7.1862  -12.4649 O   0  0  0  0  0  0  0  0  0  0  0  0
   19.6962   -5.9808  -13.2580 O   0  0  0  0  0  0  0  0  0  0  0  0
   13.7090   -6.8254   -8.0104 C   0  0  0  0  0  0  0  0  0  0  0  0
   14.6308   -7.7445   -8.7752 C   0  0  1  0  0  0  0  0  0  0  0  0
   13.8215   -8.6439   -9.4659 O   0  0  0  0  0  0  0  0  0  0  0  0
   15.4941   -6.9738   -9.7557 C   0  0  2  0  0  0  0  0  0  0  0  0
   16.3580   -7.8614  -10.4934 N   0  0  0  0  0  0  0  0  0  0  0  0
   16.2940   -5.9268   -9.0491 C   0  0  0  0  0  0  0  0  0  0  0  0
   17.4732   -6.1486   -8.6797 O   0  0  0  0  0  0  0  0  0  0  0  0
   15.7847   -4.6676   -8.7654 O   0  0  0  0  0  0  0  0  0  0  0  0
  2  1  1  1
  2  3  1  0
  3  4  1  0
  4  5  2  0
  4  8  1  0
  6  2  1  0
  6  7  2  0
  9  6  1  0
 10  9  1  0
 10 11  1  6
 12 11  1  0
 12 16  1  0
 13 12  2  0
 14 10  1  0
 14 21  1  0
 15 14  2  0
 18 17  1  6
 18 19  1  0
 18 20  1  0
 20 21  1  1
 20 22  1  0
 22 23  2  0
 22 24  1  0
M  END
$$$$
