DDT.pdb
     RDKit          3D

 24 23  0  0  1  0  0  0  0  0999 V2000
   16.3215  -11.2336  -16.3668 N   0  0  0  0  0  0  0  0  0  0  0  0
   16.7191  -10.7356  -15.0882 C   0  0  1  0  0  0  0  0  0  0  0  0
   17.5877  -11.7596  -14.3956 C   0  0  0  0  0  0  0  0  0  0  0  0
   16.7580  -12.9545  -14.1481 C   0  0  0  0  0  0  0  0  0  0  0  0
   17.1678  -14.0943  -14.4481 O   0  0  0  0  0  0  0  0  0  0  0  0
   17.3326   -9.4079  -15.1816 C   0  0  0  0  0  0  0  0  0  0  0  0
   18.2179   -9.2165  -16.0558 O   0  0  0  0  0  0  0  0  0  0  0  0
   15.5123  -12.8125  -13.5778 O   0  0  0  0  0  0  0  0  0  0  0  0
   17.0013   -8.3118  -14.3542 N   0  0  0  0  0  0  0  0  0  0  0  0
   17.5640   -6.9965  -14.4789 C   0  0  1  0  0  0  0  0  0  0  0  0
   16.6272   -5.9140  -14.0740 C   0  0  0  0  0  0  0  0  0  0  0  0
   17.1461   -4.5580  -14.2619 C   0  0  0  0  0  0  0  0  0  0  0  0
   16.9442   -3.6116  -13.4608 O   0  0  0  0  0  0  0  0  0  0  0  0
   18.8593   -6.8546  -13.7833 C   0  0  0  0  0  0  0  0  0  0  0  0
   18.9006   -7.1342  -12.5584 O   0  0  0  0  0  0  0  0  0  0  0  0
   17.9096   -4.2764  -15.3846 O   0  0  0  0  0  0  0  0  0  0  0  0
   22.0670   -8.6670  -14.2037 C   0  0  0  0  0  0  0  0  0  0  0  0
   22.3706   -7.1902  -14.2815 C   0  0  1  0  0  0  0  0  0  0  0  0
   22.4668   -6.8689  -15.6337 O   0  0  0  0  0  0  0  0  0  0  0  0
   21.2753   -6.3640  -13.6347 C   0  0  2  0  0  0  0  0  0  0  0  0
   20.0584   -6.4240  -14.4055 N   0  0  0  0  0  0  0  0  0  0  0  0
   21.7158   -4.9466  -13.4551 C   0  0  0  0  0  0  0  0  0  0  0  0
   21.1753   -4.0118  -14.0953 O   0  0  0  0  0  0  0  0  0  0  0  0
   22.7336   -4.5895  -12.5820 O   0  0  0  0  0  0  0  0  0  0  0  0
  2  1  1  6
  2  3  1  0
  3  4  1  0
  4  5  2  0
  4  8  1  0
  6  2  1  0
  6  7  2  0
  9  6  1  0
 10  9  1  0
 10 11  1  1
 12 11  1  0
 12 16  1  0
 13 12  2  0
 14 10  1  0
 14 21  1  0
 15 14  2  0
 18 17  1  6
 18 19  1  0
 18 20  1  0
 20 21  1  6
 20 22  1  0
 22 23  2  0
 22 24  1  0
M  END
$$$$
