FLC.pdb
     RDKit          3D

 26 26  0  0  1  0  0  0  0  0999 V2000
    5.7795  -17.6787   24.6235 N   0  0  0  0  0  0  0  0  0  0  0  0
    6.4164  -16.3786   24.6331 C   0  0  1  0  0  0  0  0  0  0  0  0
    7.1355  -16.1187   25.9279 C   0  0  0  0  0  0  0  0  0  0  0  0
    7.2460  -14.7143   26.2946 C   0  0  0  0  0  0  0  0  0  0  0  0
    8.4415  -14.2745   26.8285 C   0  0  0  0  0  0  0  0  0  0  0  0
    8.6364  -12.9793   27.2002 C   0  0  0  0  0  0  0  0  0  0  0  0
    7.6425  -12.0641   27.0543 C   0  0  0  0  0  0  0  0  0  0  0  0
    6.4315  -12.4471   26.5279 C   0  0  0  0  0  0  0  0  0  0  0  0
    6.2591  -13.7612   26.1600 C   0  0  0  0  0  0  0  0  0  0  0  0
    7.4390  -16.3804   23.5574 C   0  0  0  0  0  0  0  0  0  0  0  0
    7.8366  -17.4704   23.0796 O   0  0  0  0  0  0  0  0  0  0  0  0
    7.3562  -12.2090   20.0702 C   0  0  0  0  0  0  0  0  0  0  0  0
    7.5261  -13.5671   20.6315 C   0  0  1  0  0  0  0  0  0  0  0  0
    7.1162  -14.6323   19.5853 C   0  0  0  0  0  0  0  0  0  0  0  0
    8.8183  -13.9547   21.2129 C   0  0  0  0  0  0  0  0  0  0  0  0
    8.9916  -15.2445   21.9134 C   0  0  2  0  0  0  0  0  0  0  0  0
    8.0019  -15.1912   23.0301 N   0  0  0  0  0  0  0  0  0  0  0  0
   10.2748  -15.5377   22.5371 C   0  0  0  0  0  0  0  0  0  0  0  0
   11.3755  -15.7123   21.9116 O   0  0  0  0  0  0  0  0  0  0  0  0
   10.3758  -15.6520   23.9573 N   0  0  0  0  0  0  0  0  0  0  0  0
   11.6656  -15.9517   24.5760 C   0  0  1  0  0  0  0  0  0  0  0  0
   11.6336  -15.5983   26.0468 C   0  0  0  0  0  0  0  0  0  0  0  0
   10.2455  -16.3421   26.9007 S   0  0  0  0  0  0  0  0  0  0  0  0
   11.9717  -17.3657   24.3390 C   0  0  0  0  0  0  0  0  0  0  0  0
   11.0376  -18.1912   23.7422 O   0  0  0  0  0  0  0  0  0  0  0  0
   13.0653  -17.9099   24.6498 O   0  0  0  0  0  0  0  0  0  0  0  0
  2  1  1  1
  3  2  1  0
  4  3  1  0
  5  4  2  0
  6  7  2  0
  6  5  1  0
  7  8  1  0
  8  9  2  0
  9  4  1  0
 10  2  1  0
 10 17  1  0
 11 10  2  0
 13 14  1  6
 13 12  1  0
 15 13  1  0
 16 15  1  1
 16 17  1  0
 18 16  1  0
 19 18  2  0
 20 18  1  0
 21 20  1  0
 21 22  1  1
 23 22  1  0
 24 21  1  0
 24 25  1  0
 26 24  2  0
M  END
$$$$
