FLC.pdb
     RDKit          3D

 26 26  0  0  1  0  0  0  0  0999 V2000
    5.8123  -18.1361   24.9155 N   0  0  0  0  0  0  0  0  0  0  0  0
    6.1843  -16.7381   24.9727 C   0  0  1  0  0  0  0  0  0  0  0  0
    6.8894  -16.4001   26.2572 C   0  0  0  0  0  0  0  0  0  0  0  0
    7.0246  -14.9753   26.5236 C   0  0  0  0  0  0  0  0  0  0  0  0
    8.2791  -14.4891   26.8358 C   0  0  0  0  0  0  0  0  0  0  0  0
    8.5009  -13.1721   27.0999 C   0  0  0  0  0  0  0  0  0  0  0  0
    7.4761  -12.2804   27.0634 C   0  0  0  0  0  0  0  0  0  0  0  0
    6.2062  -12.7097   26.7579 C   0  0  0  0  0  0  0  0  0  0  0  0
    6.0076  -14.0451   26.4951 C   0  0  0  0  0  0  0  0  0  0  0  0
    7.1447  -16.4917   23.8684 C   0  0  0  0  0  0  0  0  0  0  0  0
    7.8215  -17.4433   23.4092 O   0  0  0  0  0  0  0  0  0  0  0  0
    7.5044  -13.8508   18.9770 C   0  0  0  0  0  0  0  0  0  0  0  0
    8.0994  -13.2440   20.1878 C   0  0  1  0  0  0  0  0  0  0  0  0
    7.9389  -11.7045   20.1475 C   0  0  0  0  0  0  0  0  0  0  0  0
    7.6899  -13.7229   21.5148 C   0  0  0  0  0  0  0  0  0  0  0  0
    8.0871  -15.0584   22.0079 C   0  0  2  0  0  0  0  0  0  0  0  0
    7.3419  -15.2115   23.2926 N   0  0  0  0  0  0  0  0  0  0  0  0
    9.4864  -15.2992   22.3324 C   0  0  0  0  0  0  0  0  0  0  0  0
   10.4378  -15.3737   21.4823 O   0  0  0  0  0  0  0  0  0  0  0  0
    9.8908  -15.4745   23.6910 N   0  0  0  0  0  0  0  0  0  0  0  0
   11.3071  -15.6289   24.0174 C   0  0  1  0  0  0  0  0  0  0  0  0
   11.5684  -15.1725   25.4361 C   0  0  0  0  0  0  0  0  0  0  0  0
   10.6876  -16.1567   26.6464 S   0  0  0  0  0  0  0  0  0  0  0  0
   11.6805  -17.0289   23.7942 C   0  0  0  0  0  0  0  0  0  0  0  0
   13.0086  -17.4100   23.8241 O   0  0  0  0  0  0  0  0  0  0  0  0
   10.8506  -17.9502   23.5679 O   0  0  0  0  0  0  0  0  0  0  0  0
  2  1  1  1
  3  2  1  0
  4  3  1  0
  5  4  2  0
  6  7  2  0
  6  5  1  0
  7  8  1  0
  8  9  2  0
  9  4  1  0
 10  2  1  0
 10 17  1  0
 11 10  2  0
 13 14  1  1
 13 12  1  0
 15 13  1  0
 16 15  1  1
 16 17  1  0
 18 16  1  0
 19 18  2  0
 20 18  1  0
 21 20  1  0
 21 22  1  1
 23 22  1  0
 24 21  1  0
 24 25  1  0
 26 24  2  0
M  END
$$$$
