FLC.pdb
     RDKit          3D

 26 26  0  0  1  0  0  0  0  0999 V2000
    5.8586  -18.2035   24.8099 N   0  0  0  0  0  0  0  0  0  0  0  0
    6.2069  -16.8010   24.8967 C   0  0  1  0  0  0  0  0  0  0  0  0
    6.8111  -16.4572   26.2301 C   0  0  0  0  0  0  0  0  0  0  0  0
    7.0680  -15.0394   26.4375 C   0  0  0  0  0  0  0  0  0  0  0  0
    6.0424  -14.1496   26.1846 C   0  0  0  0  0  0  0  0  0  0  0  0
    6.1908  -12.8064   26.3503 C   0  0  0  0  0  0  0  0  0  0  0  0
    7.3738  -12.2919   26.7774 C   0  0  0  0  0  0  0  0  0  0  0  0
    8.4289  -13.1321   27.0442 C   0  0  0  0  0  0  0  0  0  0  0  0
    8.2542  -14.4851   26.8691 C   0  0  0  0  0  0  0  0  0  0  0  0
    7.2427  -16.5391   23.8665 C   0  0  0  0  0  0  0  0  0  0  0  0
    8.0148  -17.4627   23.5125 O   0  0  0  0  0  0  0  0  0  0  0  0
    7.7567  -14.0012   18.9013 C   0  0  0  0  0  0  0  0  0  0  0  0
    8.2595  -13.3569   20.1343 C   0  0  1  0  0  0  0  0  0  0  0  0
    8.0568  -11.8239   20.0565 C   0  0  0  0  0  0  0  0  0  0  0  0
    7.7848  -13.8263   21.4428 C   0  0  0  0  0  0  0  0  0  0  0  0
    8.1927  -15.1396   21.9842 C   0  0  2  0  0  0  0  0  0  0  0  0
    7.4093  -15.2745   23.2482 N   0  0  0  0  0  0  0  0  0  0  0  0
    9.5853  -15.3422   22.3597 C   0  0  0  0  0  0  0  0  0  0  0  0
   10.5566  -15.4814   21.5409 O   0  0  0  0  0  0  0  0  0  0  0  0
    9.9588  -15.3996   23.7372 N   0  0  0  0  0  0  0  0  0  0  0  0
   11.3634  -15.5631   24.1069 C   0  0  1  0  0  0  0  0  0  0  0  0
   11.5941  -15.0607   25.5153 C   0  0  0  0  0  0  0  0  0  0  0  0
   10.6467  -15.9719   26.7324 S   0  0  0  0  0  0  0  0  0  0  0  0
   11.7205  -16.9755   23.9431 C   0  0  0  0  0  0  0  0  0  0  0  0
   13.0364  -17.3808   24.0630 O   0  0  0  0  0  0  0  0  0  0  0  0
   10.8870  -17.8867   23.6909 O   0  0  0  0  0  0  0  0  0  0  0  0
  2  1  1  1
  3  2  1  0
  4  3  1  0
  5  4  2  0
  6  7  2  0
  6  5  1  0
  7  8  1  0
  8  9  2  0
  9  4  1  0
 10  2  1  0
 10 17  1  0
 11 10  2  0
 13 14  1  6
 13 12  1  0
 15 13  1  0
 16 15  1  1
 16 17  1  0
 18 16  1  0
 19 18  2  0
 20 18  1  0
 21 20  1  0
 21 22  1  1
 23 22  1  0
 24 21  1  0
 24 25  1  0
 26 24  2  0
M  END
$$$$
