FLC.pdb
     RDKit          3D

 26 26  0  0  1  0  0  0  0  0999 V2000
    5.5544  -17.8638   24.3061 N   0  0  0  0  0  0  0  0  0  0  0  0
    6.1791  -16.5758   24.5224 C   0  0  1  0  0  0  0  0  0  0  0  0
    6.7279  -16.4485   25.9166 C   0  0  0  0  0  0  0  0  0  0  0  0
    7.1785  -15.1119   26.2765 C   0  0  0  0  0  0  0  0  0  0  0  0
    6.3508  -14.0462   25.9819 C   0  0  0  0  0  0  0  0  0  0  0  0
    6.6888  -12.7617   26.2812 C   0  0  0  0  0  0  0  0  0  0  0  0
    7.8719  -12.4849   26.8897 C   0  0  0  0  0  0  0  0  0  0  0  0
    8.7345  -13.5078   27.2058 C   0  0  0  0  0  0  0  0  0  0  0  0
    8.3704  -14.7969   26.8933 C   0  0  0  0  0  0  0  0  0  0  0  0
    7.3292  -16.4810   23.5891 C   0  0  0  0  0  0  0  0  0  0  0  0
    7.9164  -17.5260   23.2182 O   0  0  0  0  0  0  0  0  0  0  0  0
    7.3785  -12.1437   20.1737 C   0  0  0  0  0  0  0  0  0  0  0  0
    7.5003  -13.4958   20.7613 C   0  0  1  0  0  0  0  0  0  0  0  0
    7.1387  -14.5707   19.7072 C   0  0  0  0  0  0  0  0  0  0  0  0
    8.7525  -13.8894   21.4209 C   0  0  0  0  0  0  0  0  0  0  0  0
    8.9008  -15.2110   22.0657 C   0  0  2  0  0  0  0  0  0  0  0  0
    7.8093  -15.2467   23.0839 N   0  0  0  0  0  0  0  0  0  0  0  0
   10.1284  -15.5035   22.7929 C   0  0  0  0  0  0  0  0  0  0  0  0
   11.2809  -15.6561   22.2620 O   0  0  0  0  0  0  0  0  0  0  0  0
   10.1077  -15.6430   24.2143 N   0  0  0  0  0  0  0  0  0  0  0  0
   11.3490  -15.9032   24.9408 C   0  0  1  0  0  0  0  0  0  0  0  0
   11.2777  -15.3025   26.3276 C   0  0  0  0  0  0  0  0  0  0  0  0
   10.2655  -16.2717   27.4436 S   0  0  0  0  0  0  0  0  0  0  0  0
   11.5748  -17.3516   24.9611 C   0  0  0  0  0  0  0  0  0  0  0  0
   10.6338  -18.2120   24.4277 O   0  0  0  0  0  0  0  0  0  0  0  0
   12.6025  -17.8961   25.4471 O   0  0  0  0  0  0  0  0  0  0  0  0
  2  1  1  1
  3  2  1  0
  4  3  1  0
  5  4  2  0
  6  7  2  0
  6  5  1  0
  7  8  1  0
  8  9  2  0
  9  4  1  0
 10  2  1  0
 10 17  1  0
 11 10  2  0
 13 14  1  6
 13 12  1  0
 15 13  1  0
 16 15  1  1
 16 17  1  0
 18 16  1  0
 19 18  2  0
 20 18  1  0
 21 20  1  0
 21 22  1  1
 23 22  1  0
 24 21  1  0
 24 25  1  0
 26 24  2  0
M  END
$$$$
