FLC.pdb
     RDKit          3D

 26 26  0  0  1  0  0  0  0  0999 V2000
    5.8819  -17.9687   24.6504 N   0  0  0  0  0  0  0  0  0  0  0  0
    6.4868  -16.6538   24.6192 C   0  0  1  0  0  0  0  0  0  0  0  0
    7.2213  -16.3467   25.8950 C   0  0  0  0  0  0  0  0  0  0  0  0
    7.3483  -14.9292   26.2011 C   0  0  0  0  0  0  0  0  0  0  0  0
    8.6072  -14.4360   26.4836 C   0  0  0  0  0  0  0  0  0  0  0  0
    8.8220  -13.1249   26.7809 C   0  0  0  0  0  0  0  0  0  0  0  0
    7.7855  -12.2465   26.8090 C   0  0  0  0  0  0  0  0  0  0  0  0
    6.5108  -12.6832   26.5356 C   0  0  0  0  0  0  0  0  0  0  0  0
    6.3195  -14.0124   26.2381 C   0  0  0  0  0  0  0  0  0  0  0  0
    7.4906  -16.6558   23.5260 C   0  0  0  0  0  0  0  0  0  0  0  0
    8.0328  -17.7338   23.1820 O   0  0  0  0  0  0  0  0  0  0  0  0
    7.1429  -12.1629   20.6347 C   0  0  0  0  0  0  0  0  0  0  0  0
    7.2335  -13.5994   20.9761 C   0  0  1  0  0  0  0  0  0  0  0  0
    6.2312  -14.4151   20.1232 C   0  0  0  0  0  0  0  0  0  0  0  0
    8.5384  -14.2730   20.9370 C   0  0  0  0  0  0  0  0  0  0  0  0
    8.7646  -15.5549   21.6369 C   0  0  2  0  0  0  0  0  0  0  0  0
    7.8770  -15.4799   22.8353 N   0  0  0  0  0  0  0  0  0  0  0  0
   10.0956  -15.8494   22.1496 C   0  0  0  0  0  0  0  0  0  0  0  0
   11.1637  -15.8871   21.4487 O   0  0  0  0  0  0  0  0  0  0  0  0
   10.2877  -16.1270   23.5375 N   0  0  0  0  0  0  0  0  0  0  0  0
   11.6227  -16.4441   24.0410 C   0  0  1  0  0  0  0  0  0  0  0  0
   12.1964  -15.2565   24.7825 C   0  0  0  0  0  0  0  0  0  0  0  0
   13.7271  -15.6490   25.6264 S   0  0  0  0  0  0  0  0  0  0  0  0
   11.5253  -17.6428   24.8792 C   0  0  0  0  0  0  0  0  0  0  0  0
   12.6660  -18.3295   25.2500 O   0  0  0  0  0  0  0  0  0  0  0  0
   10.4376  -18.1158   25.3059 O   0  0  0  0  0  0  0  0  0  0  0  0
  2  1  1  1
  3  2  1  0
  4  3  1  0
  5  4  2  0
  6  7  2  0
  6  5  1  0
  7  8  1  0
  8  9  2  0
  9  4  1  0
 10  2  1  0
 10 17  1  0
 11 10  2  0
 13 14  1  6
 13 12  1  0
 15 13  1  0
 16 15  1  1
 16 17  1  0
 18 16  1  0
 19 18  2  0
 20 18  1  0
 21 20  1  0
 21 22  1  1
 23 22  1  0
 24 21  1  0
 24 25  1  0
 26 24  2  0
M  END
$$$$
