VDC.pdb
     RDKit          3D

 22 21  0  0  1  0  0  0  0  0999 V2000
    7.4341  -13.2744   21.9281 C   0  0  0  0  0  0  0  0  0  0  0  0
    8.2307  -13.6181   20.6834 C   0  0  2  0  0  0  0  0  0  0  0  0
    7.6706  -12.8572   19.5365 C   0  0  0  0  0  0  0  0  0  0  0  0
    8.1876  -15.1240   20.5247 C   0  0  2  0  0  0  0  0  0  0  0  0
    6.7741  -15.4541   20.2921 N   0  0  0  0  0  0  0  0  0  0  0  0
    8.6032  -15.8643   21.7228 C   0  0  0  0  0  0  0  0  0  0  0  0
    7.7578  -16.1673   22.5959 O   0  0  0  0  0  0  0  0  0  0  0  0
    9.9386  -16.2677   21.9488 N   0  0  0  0  0  0  0  0  0  0  0  0
   10.3207  -16.8998   23.2353 C   0  0  1  0  0  0  0  0  0  0  0  0
   11.5685  -17.7273   22.9913 C   0  0  0  0  0  0  0  0  0  0  0  0
   12.0009  -18.5596   24.1032 C   0  0  0  0  0  0  0  0  0  0  0  0
   11.4541  -18.7328   25.2071 O   0  0  0  0  0  0  0  0  0  0  0  0
   10.4613  -15.9022   24.2970 C   0  0  0  0  0  0  0  0  0  0  0  0
   11.2548  -14.9160   24.2302 O   0  0  0  0  0  0  0  0  0  0  0  0
   13.2066  -19.2710   23.9076 O   0  0  0  0  0  0  0  0  0  0  0  0
    9.7057  -15.9571   25.5104 N   0  0  0  0  0  0  0  0  0  0  0  0
    9.8578  -14.9454   26.5456 C   0  0  1  0  0  0  0  0  0  0  0  0
    8.5930  -14.1271   26.6774 C   0  0  0  0  0  0  0  0  0  0  0  0
    8.7915  -12.7754   27.8655 S   0  0  0  0  0  0  0  0  0  0  0  0
   10.1296  -15.6076   27.8442 C   0  0  0  0  0  0  0  0  0  0  0  0
   10.0780  -16.9746   27.9524 O   0  0  0  0  0  0  0  0  0  0  0  0
   10.4143  -14.9462   28.8852 O   0  0  0  0  0  0  0  0  0  0  0  0
  2  1  1  1
  2  3  1  0
  4  5  1  1
  4  6  1  0
  4  2  1  0
  6  7  2  0
  8  9  1  0
  8  6  1  0
  9 13  1  0
  9 10  1  6
 11 10  1  0
 12 11  2  0
 13 14  2  0
 13 16  1  0
 15 11  1  0
 16 17  1  0
 17 20  1  0
 17 18  1  1
 19 18  1  0
 20 22  2  0
 20 21  1  0
M  END
$$$$
