VDC.pdb
     RDKit          3D

 22 21  0  0  1  0  0  0  0  0999 V2000
    7.9147  -12.9464   18.3410 C   0  0  0  0  0  0  0  0  0  0  0  0
    7.6977  -13.5061   19.7344 C   0  0  2  0  0  0  0  0  0  0  0  0
    8.1874  -12.5134   20.7259 C   0  0  0  0  0  0  0  0  0  0  0  0
    8.3918  -14.8514   19.7907 C   0  0  2  0  0  0  0  0  0  0  0  0
    7.6514  -15.7146   18.8590 N   0  0  0  0  0  0  0  0  0  0  0  0
    8.3328  -15.5007   21.1064 C   0  0  0  0  0  0  0  0  0  0  0  0
    7.2617  -16.0146   21.5033 O   0  0  0  0  0  0  0  0  0  0  0  0
    9.4483  -15.5836   21.9700 N   0  0  0  0  0  0  0  0  0  0  0  0
    9.2790  -16.0555   23.3662 C   0  0  1  0  0  0  0  0  0  0  0  0
   10.4568  -16.9524   23.6973 C   0  0  0  0  0  0  0  0  0  0  0  0
   10.4783  -18.2406   23.0221 C   0  0  0  0  0  0  0  0  0  0  0  0
    9.5218  -18.9618   22.6866 O   0  0  0  0  0  0  0  0  0  0  0  0
    9.1022  -14.9334   24.2891 C   0  0  0  0  0  0  0  0  0  0  0  0
    9.9764  -14.0344   24.4737 O   0  0  0  0  0  0  0  0  0  0  0  0
   11.7586  -18.7464   22.7009 O   0  0  0  0  0  0  0  0  0  0  0  0
    7.9146  -14.7555   25.0666 N   0  0  0  0  0  0  0  0  0  0  0  0
    7.7555  -13.6171   25.9594 C   0  0  1  0  0  0  0  0  0  0  0  0
    6.3010  -13.2129   26.0494 C   0  0  0  0  0  0  0  0  0  0  0  0
    6.0493  -11.8833   27.2522 S   0  0  0  0  0  0  0  0  0  0  0  0
    8.2282  -13.9859   27.3156 C   0  0  0  0  0  0  0  0  0  0  0  0
    8.5158  -13.0138   28.2404 O   0  0  0  0  0  0  0  0  0  0  0  0
    8.3822  -15.1928   27.6645 O   0  0  0  0  0  0  0  0  0  0  0  0
  2  1  1  6
  2  3  1  0
  4  5  1  6
  4  6  1  0
  4  2  1  0
  6  7  2  0
  8  9  1  0
  8  6  1  0
  9 13  1  0
  9 10  1  1
 11 10  1  0
 12 11  2  0
 13 14  2  0
 13 16  1  0
 15 11  1  0
 16 17  1  0
 17 20  1  0
 17 18  1  1
 19 18  1  0
 20 22  2  0
 20 21  1  0
M  END
$$$$
