VDC.pdb
     RDKit          3D

 22 21  0  0  1  0  0  0  0  0999 V2000
    9.2572  -12.7452   20.3600 C   0  0  0  0  0  0  0  0  0  0  0  0
    8.1412  -13.5565   19.7290 C   0  0  2  0  0  0  0  0  0  0  0  0
    6.8451  -13.1029   20.2971 C   0  0  0  0  0  0  0  0  0  0  0  0
    8.4591  -15.0184   19.9673 C   0  0  2  0  0  0  0  0  0  0  0  0
    7.4856  -15.7685   19.1606 N   0  0  0  0  0  0  0  0  0  0  0  0
    8.2781  -15.4512   21.3587 C   0  0  0  0  0  0  0  0  0  0  0  0
    7.1365  -15.4413   21.8738 O   0  0  0  0  0  0  0  0  0  0  0  0
    9.3486  -15.8937   22.1683 N   0  0  0  0  0  0  0  0  0  0  0  0
    9.0972  -16.3430   23.5595 C   0  0  1  0  0  0  0  0  0  0  0  0
    9.7080  -17.7226   23.7175 C   0  0  0  0  0  0  0  0  0  0  0  0
   11.1302  -17.8199   23.4281 C   0  0  0  0  0  0  0  0  0  0  0  0
   11.7199  -17.6471   22.3465 O   0  0  0  0  0  0  0  0  0  0  0  0
    9.5784  -15.3597   24.5311 C   0  0  0  0  0  0  0  0  0  0  0  0
   10.6480  -14.6959   24.3840 O   0  0  0  0  0  0  0  0  0  0  0  0
   11.9597  -18.1565   24.5219 O   0  0  0  0  0  0  0  0  0  0  0  0
    8.8729  -15.0621   25.7394 N   0  0  0  0  0  0  0  0  0  0  0  0
    9.4222  -14.1532   26.7347 C   0  0  1  0  0  0  0  0  0  0  0  0
    8.3296  -13.2911   27.3261 C   0  0  0  0  0  0  0  0  0  0  0  0
    7.2829  -12.5626   26.0408 S   0  0  0  0  0  0  0  0  0  0  0  0
   10.0472  -14.9387   27.8261 C   0  0  0  0  0  0  0  0  0  0  0  0
   10.7159  -14.3061   28.8438 O   0  0  0  0  0  0  0  0  0  0  0  0
    9.9882  -16.2027   27.8584 O   0  0  0  0  0  0  0  0  0  0  0  0
  2  1  1  1
  2  3  1  0
  4  5  1  6
  4  6  1  0
  4  2  1  0
  6  7  2  0
  8  9  1  0
  8  6  1  0
  9 13  1  0
  9 10  1  1
 11 10  1  0
 12 11  2  0
 13 14  2  0
 13 16  1  0
 15 11  1  0
 16 17  1  0
 17 20  1  0
 17 18  1  1
 19 18  1  0
 20 22  2  0
 20 21  1  0
M  END
$$$$
