VDC.pdb
     RDKit          3D

 22 21  0  0  1  0  0  0  0  0999 V2000
    7.4998  -13.2238   21.8462 C   0  0  0  0  0  0  0  0  0  0  0  0
    8.3531  -13.4900   20.6203 C   0  0  2  0  0  0  0  0  0  0  0  0
    7.8332  -12.6723   19.4937 C   0  0  0  0  0  0  0  0  0  0  0  0
    8.3356  -14.9852   20.3773 C   0  0  2  0  0  0  0  0  0  0  0  0
    6.9490  -15.3071   20.0099 N   0  0  0  0  0  0  0  0  0  0  0  0
    8.6559  -15.7882   21.5642 C   0  0  0  0  0  0  0  0  0  0  0  0
    7.7426  -16.1455   22.3433 O   0  0  0  0  0  0  0  0  0  0  0  0
    9.9718  -16.1943   21.8817 N   0  0  0  0  0  0  0  0  0  0  0  0
   10.2452  -16.9206   23.1459 C   0  0  1  0  0  0  0  0  0  0  0  0
   11.3406  -17.9331   22.8699 C   0  0  0  0  0  0  0  0  0  0  0  0
   11.6593  -18.8327   23.9677 C   0  0  0  0  0  0  0  0  0  0  0  0
   11.1189  -18.9231   25.0845 O   0  0  0  0  0  0  0  0  0  0  0  0
   10.5472  -15.9934   24.2373 C   0  0  0  0  0  0  0  0  0  0  0  0
   11.3869  -15.0489   24.1412 O   0  0  0  0  0  0  0  0  0  0  0  0
   12.7285  -19.7287   23.7391 O   0  0  0  0  0  0  0  0  0  0  0  0
    9.9119  -16.0763   25.5163 N   0  0  0  0  0  0  0  0  0  0  0  0
   10.2144  -15.1266   26.5770 C   0  0  1  0  0  0  0  0  0  0  0  0
    9.0733  -14.1506   26.7564 C   0  0  0  0  0  0  0  0  0  0  0  0
    9.4202  -12.9492   28.0657 S   0  0  0  0  0  0  0  0  0  0  0  0
   10.4143  -15.8591   27.8506 C   0  0  0  0  0  0  0  0  0  0  0  0
   11.1640  -15.3087   28.8596 O   0  0  0  0  0  0  0  0  0  0  0  0
    9.9090  -17.0023   28.0507 O   0  0  0  0  0  0  0  0  0  0  0  0
  2  1  1  1
  2  3  1  0
  4  5  1  1
  4  6  1  0
  4  2  1  0
  6  7  2  0
  8  9  1  0
  8  6  1  0
  9 13  1  0
  9 10  1  6
 11 10  1  0
 12 11  2  0
 13 14  2  0
 13 16  1  0
 15 11  1  0
 16 17  1  0
 17 20  1  0
 17 18  1  1
 19 18  1  0
 20 22  2  0
 20 21  1  0
M  END
$$$$
