VDC.pdb
     RDKit          3D

 22 21  0  0  1  0  0  0  0  0999 V2000
    7.5050  -13.6943   20.9170 C   0  0  0  0  0  0  0  0  0  0  0  0
    8.3455  -13.4650   19.6748 C   0  0  2  0  0  0  0  0  0  0  0  0
    7.6225  -12.5248   18.7796 C   0  0  0  0  0  0  0  0  0  0  0  0
    8.6296  -14.8237   19.0682 C   0  0  2  0  0  0  0  0  0  0  0  0
    7.3205  -15.3523   18.6584 N   0  0  0  0  0  0  0  0  0  0  0  0
    9.2006  -15.7931   20.0119 C   0  0  0  0  0  0  0  0  0  0  0  0
    8.4539  -16.6099   20.5984 O   0  0  0  0  0  0  0  0  0  0  0  0
   10.5827  -15.8594   20.2989 N   0  0  0  0  0  0  0  0  0  0  0  0
   11.1000  -16.8703   21.2533 C   0  0  1  0  0  0  0  0  0  0  0  0
   12.4886  -17.2724   20.7936 C   0  0  0  0  0  0  0  0  0  0  0  0
   13.0646  -18.4286   21.4627 C   0  0  0  0  0  0  0  0  0  0  0  0
   14.2504  -18.8036   21.4902 O   0  0  0  0  0  0  0  0  0  0  0  0
   11.0436  -16.3791   22.6309 C   0  0  0  0  0  0  0  0  0  0  0  0
   11.7275  -15.3990   23.0531 O   0  0  0  0  0  0  0  0  0  0  0  0
   12.1570  -19.2399   22.1811 O   0  0  0  0  0  0  0  0  0  0  0  0
   10.2019  -16.9697   23.6254 N   0  0  0  0  0  0  0  0  0  0  0  0
   10.1635  -16.4592   24.9878 C   0  0  1  0  0  0  0  0  0  0  0  0
    8.7566  -16.0497   25.3614 C   0  0  0  0  0  0  0  0  0  0  0  0
    8.1096  -14.7817   24.2426 S   0  0  0  0  0  0  0  0  0  0  0  0
   10.6111  -17.5194   25.9230 C   0  0  0  0  0  0  0  0  0  0  0  0
   10.7475  -17.2537   27.2623 O   0  0  0  0  0  0  0  0  0  0  0  0
   10.8804  -18.6908   25.5260 O   0  0  0  0  0  0  0  0  0  0  0  0
  2  1  1  1
  2  3  1  0
  4  5  1  1
  4  6  1  0
  4  2  1  0
  6  7  2  0
  8  9  1  0
  8  6  1  0
  9 13  1  0
  9 10  1  6
 11 10  1  0
 12 11  2  0
 13 14  2  0
 13 16  1  0
 15 11  1  0
 16 17  1  0
 17 20  1  0
 17 18  1  1
 19 18  1  0
 20 22  2  0
 20 21  1  0
M  END
$$$$
