VDC.pdb
     RDKit          3D

 22 21  0  0  1  0  0  0  0  0999 V2000
    7.4857  -13.0117   22.2047 C   0  0  0  0  0  0  0  0  0  0  0  0
    8.3009  -13.4024   20.9862 C   0  0  2  0  0  0  0  0  0  0  0  0
    7.8025  -12.6343   19.8158 C   0  0  0  0  0  0  0  0  0  0  0  0
    8.2020  -14.9073   20.8437 C   0  0  2  0  0  0  0  0  0  0  0  0
    6.7887  -15.1816   20.5465 N   0  0  0  0  0  0  0  0  0  0  0  0
    8.5278  -15.6472   22.0695 C   0  0  0  0  0  0  0  0  0  0  0  0
    7.6093  -16.0574   22.8158 O   0  0  0  0  0  0  0  0  0  0  0  0
    9.8551  -15.9331   22.4614 N   0  0  0  0  0  0  0  0  0  0  0  0
   10.1230  -16.6162   23.7506 C   0  0  1  0  0  0  0  0  0  0  0  0
   11.2591  -17.5964   23.5274 C   0  0  0  0  0  0  0  0  0  0  0  0
   11.6009  -18.4357   24.6652 C   0  0  0  0  0  0  0  0  0  0  0  0
   11.0055  -18.5594   25.7504 O   0  0  0  0  0  0  0  0  0  0  0  0
   10.3663  -15.6509   24.8235 C   0  0  0  0  0  0  0  0  0  0  0  0
   11.4277  -14.9650   24.9205 O   0  0  0  0  0  0  0  0  0  0  0  0
   12.7683  -19.2200   24.5233 O   0  0  0  0  0  0  0  0  0  0  0  0
    9.4156  -15.3978   25.8621 N   0  0  0  0  0  0  0  0  0  0  0  0
    9.6809  -14.4273   26.9137 C   0  0  1  0  0  0  0  0  0  0  0  0
    8.4224  -13.6640   27.2607 C   0  0  0  0  0  0  0  0  0  0  0  0
    7.6085  -13.0083   25.7824 S   0  0  0  0  0  0  0  0  0  0  0  0
   10.1544  -15.1348   28.1278 C   0  0  0  0  0  0  0  0  0  0  0  0
   10.2437  -16.5040   28.1448 O   0  0  0  0  0  0  0  0  0  0  0  0
   10.4879  -14.5111   29.1775 O   0  0  0  0  0  0  0  0  0  0  0  0
  2  1  1  1
  2  3  1  0
  4  5  1  1
  4  6  1  0
  4  2  1  0
  6  7  2  0
  8  9  1  0
  8  6  1  0
  9 13  1  0
  9 10  1  6
 11 10  1  0
 12 11  2  0
 13 14  2  0
 13 16  1  0
 15 11  1  0
 16 17  1  0
 17 20  1  0
 17 18  1  1
 19 18  1  0
 20 22  2  0
 20 21  1  0
M  END
$$$$
