VDC.pdb
     RDKit          3D

 22 21  0  0  1  0  0  0  0  0999 V2000
    7.0978  -13.0568   20.6275 C   0  0  0  0  0  0  0  0  0  0  0  0
    8.2247  -13.4813   19.7045 C   0  0  2  0  0  0  0  0  0  0  0  0
    7.9711  -12.9145   18.3545 C   0  0  0  0  0  0  0  0  0  0  0  0
    8.2981  -14.9937   19.7519 C   0  0  2  0  0  0  0  0  0  0  0  0
    7.0639  -15.4671   19.1087 N   0  0  0  0  0  0  0  0  0  0  0  0
    8.3071  -15.5502   21.1107 C   0  0  0  0  0  0  0  0  0  0  0  0
    7.2272  -15.8365   21.6769 O   0  0  0  0  0  0  0  0  0  0  0  0
    9.4985  -15.7906   21.8317 N   0  0  0  0  0  0  0  0  0  0  0  0
    9.4396  -16.2963   23.2251 C   0  0  1  0  0  0  0  0  0  0  0  0
   10.6625  -17.1643   23.4542 C   0  0  0  0  0  0  0  0  0  0  0  0
   10.7530  -17.7941   24.7622 C   0  0  0  0  0  0  0  0  0  0  0  0
    9.8920  -17.8601   25.6578 O   0  0  0  0  0  0  0  0  0  0  0  0
    9.2952  -15.1994   24.1833 C   0  0  0  0  0  0  0  0  0  0  0  0
   10.1166  -14.2385   24.2763 O   0  0  0  0  0  0  0  0  0  0  0  0
   11.9856  -18.4179   25.0615 O   0  0  0  0  0  0  0  0  0  0  0  0
    8.2026  -15.1191   25.1031 N   0  0  0  0  0  0  0  0  0  0  0  0
    8.0658  -13.9996   26.0232 C   0  0  1  0  0  0  0  0  0  0  0  0
    6.6855  -13.3912   25.9166 C   0  0  0  0  0  0  0  0  0  0  0  0
    6.4143  -12.1225   27.1794 S   0  0  0  0  0  0  0  0  0  0  0  0
    8.2654  -14.4777   27.4125 C   0  0  0  0  0  0  0  0  0  0  0  0
    8.4995  -13.5856   28.4285 O   0  0  0  0  0  0  0  0  0  0  0  0
    8.2286  -15.7080   27.7079 O   0  0  0  0  0  0  0  0  0  0  0  0
  2  1  1  1
  2  3  1  0
  4  5  1  6
  4  6  1  0
  4  2  1  0
  6  7  2  0
  8  9  1  0
  8  6  1  0
  9 13  1  0
  9 10  1  1
 11 10  1  0
 12 11  2  0
 13 14  2  0
 13 16  1  0
 15 11  1  0
 16 17  1  0
 17 20  1  0
 17 18  1  1
 19 18  1  0
 20 22  2  0
 20 21  1  0
M  END
$$$$
