VDC.pdb
     RDKit          3D

 22 21  0  0  1  0  0  0  0  0999 V2000
    7.2858  -13.7995   20.8874 C   0  0  0  0  0  0  0  0  0  0  0  0
    8.3061  -13.3644   19.8522 C   0  0  2  0  0  0  0  0  0  0  0  0
    7.6762  -12.3571   18.9596 C   0  0  0  0  0  0  0  0  0  0  0  0
    8.7939  -14.6148   19.1497 C   0  0  2  0  0  0  0  0  0  0  0  0
    7.6291  -15.1344   18.4188 N   0  0  0  0  0  0  0  0  0  0  0  0
    9.2319  -15.6805   20.0601 C   0  0  0  0  0  0  0  0  0  0  0  0
    8.4048  -16.5196   20.4852 O   0  0  0  0  0  0  0  0  0  0  0  0
   10.5709  -15.8174   20.4906 N   0  0  0  0  0  0  0  0  0  0  0  0
   10.9212  -16.8066   21.5391 C   0  0  1  0  0  0  0  0  0  0  0  0
   12.3327  -17.2904   21.2655 C   0  0  0  0  0  0  0  0  0  0  0  0
   12.8921  -18.1971   22.2559 C   0  0  0  0  0  0  0  0  0  0  0  0
   12.4524  -19.2933   22.6466 O   0  0  0  0  0  0  0  0  0  0  0  0
   10.7271  -16.2520   22.8796 C   0  0  0  0  0  0  0  0  0  0  0  0
   11.2822  -15.1866   23.2835 O   0  0  0  0  0  0  0  0  0  0  0  0
   14.1002  -17.7803   22.8598 O   0  0  0  0  0  0  0  0  0  0  0  0
    9.8845  -16.8724   23.8552 N   0  0  0  0  0  0  0  0  0  0  0  0
    9.7999  -16.3659   25.2170 C   0  0  1  0  0  0  0  0  0  0  0  0
    8.5150  -15.5939   25.4168 C   0  0  0  0  0  0  0  0  0  0  0  0
    7.0858  -16.4930   24.7632 S   0  0  0  0  0  0  0  0  0  0  0  0
    9.8199  -17.5041   26.1671 C   0  0  0  0  0  0  0  0  0  0  0  0
    9.8122  -17.2805   27.5210 O   0  0  0  0  0  0  0  0  0  0  0  0
    9.8450  -18.7058   25.7702 O   0  0  0  0  0  0  0  0  0  0  0  0
  2  1  1  1
  2  3  1  0
  4  5  1  1
  4  6  1  0
  4  2  1  0
  6  7  2  0
  8  9  1  0
  8  6  1  0
  9 13  1  0
  9 10  1  6
 11 10  1  0
 12 11  2  0
 13 14  2  0
 13 16  1  0
 15 11  1  0
 16 17  1  0
 17 20  1  0
 17 18  1  6
 19 18  1  0
 20 22  2  0
 20 21  1  0
M  END
$$$$
