VDC.pdb
     RDKit          3D

 22 21  0  0  1  0  0  0  0  0999 V2000
    7.4604  -14.1576   20.5995 C   0  0  0  0  0  0  0  0  0  0  0  0
    8.4084  -13.3839   19.7025 C   0  0  2  0  0  0  0  0  0  0  0  0
    7.6062  -12.5253   18.7928 C   0  0  0  0  0  0  0  0  0  0  0  0
    9.2903  -14.3968   19.0019 C   0  0  2  0  0  0  0  0  0  0  0  0
    8.3699  -15.2807   18.2720 N   0  0  0  0  0  0  0  0  0  0  0  0
   10.0624  -15.2504   19.9137 C   0  0  0  0  0  0  0  0  0  0  0  0
    9.7405  -16.4506   20.0706 O   0  0  0  0  0  0  0  0  0  0  0  0
   11.1804  -14.7809   20.6395 N   0  0  0  0  0  0  0  0  0  0  0  0
   11.9262  -15.6962   21.5376 C   0  0  1  0  0  0  0  0  0  0  0  0
   13.3324  -15.1483   21.6922 C   0  0  0  0  0  0  0  0  0  0  0  0
   14.2454  -15.9658   22.4758 C   0  0  0  0  0  0  0  0  0  0  0  0
   14.2646  -17.2021   22.6120 O   0  0  0  0  0  0  0  0  0  0  0  0
   11.2177  -15.8940   22.8029 C   0  0  0  0  0  0  0  0  0  0  0  0
   11.6542  -16.6236   23.7429 O   0  0  0  0  0  0  0  0  0  0  0  0
   15.2500  -15.2642   23.1805 O   0  0  0  0  0  0  0  0  0  0  0  0
    9.9611  -15.2724   23.0873 N   0  0  0  0  0  0  0  0  0  0  0  0
    9.1990  -15.6120   24.2799 C   0  0  1  0  0  0  0  0  0  0  0  0
    7.9858  -14.7181   24.4065 C   0  0  0  0  0  0  0  0  0  0  0  0
    8.4510  -12.9729   24.5323 S   0  0  0  0  0  0  0  0  0  0  0  0
    8.7414  -17.0194   24.1869 C   0  0  0  0  0  0  0  0  0  0  0  0
    7.9898  -17.5745   25.1918 O   0  0  0  0  0  0  0  0  0  0  0  0
    9.0236  -17.7497   23.1923 O   0  0  0  0  0  0  0  0  0  0  0  0
  2  1  1  1
  2  3  1  0
  4  5  1  1
  4  6  1  0
  4  2  1  0
  6  7  2  0
  8  9  1  0
  8  6  1  0
  9 13  1  0
  9 10  1  1
 11 10  1  0
 12 11  2  0
 13 14  2  0
 13 16  1  0
 15 11  1  0
 16 17  1  0
 17 20  1  0
 17 18  1  6
 19 18  1  0
 20 22  2  0
 20 21  1  0
M  END
$$$$
