VDC.pdb
     RDKit          3D

 22 21  0  0  1  0  0  0  0  0999 V2000
    6.9205  -14.9018   19.8050 C   0  0  0  0  0  0  0  0  0  0  0  0
    7.3144  -13.4548   20.0345 C   0  0  2  0  0  0  0  0  0  0  0  0
    7.5364  -12.8085   18.7149 C   0  0  0  0  0  0  0  0  0  0  0  0
    8.5225  -13.4580   20.9484 C   0  0  2  0  0  0  0  0  0  0  0  0
    9.5947  -14.1066   20.1796 N   0  0  0  0  0  0  0  0  0  0  0  0
    8.3440  -14.2471   22.1738 C   0  0  0  0  0  0  0  0  0  0  0  0
    7.4342  -13.9508   22.9820 O   0  0  0  0  0  0  0  0  0  0  0  0
    9.1608  -15.3539   22.4976 N   0  0  0  0  0  0  0  0  0  0  0  0
    8.9614  -16.0816   23.7748 C   0  0  1  0  0  0  0  0  0  0  0  0
    9.5692  -17.4628   23.6200 C   0  0  0  0  0  0  0  0  0  0  0  0
    9.5323  -18.3049   24.8055 C   0  0  0  0  0  0  0  0  0  0  0  0
    8.9918  -18.0829   25.9037 O   0  0  0  0  0  0  0  0  0  0  0  0
    9.4864  -15.3195   24.9087 C   0  0  0  0  0  0  0  0  0  0  0  0
   10.7071  -15.0021   25.0337 O   0  0  0  0  0  0  0  0  0  0  0  0
   10.2003  -19.5461   24.7004 O   0  0  0  0  0  0  0  0  0  0  0  0
    8.6561  -14.8634   25.9806 N   0  0  0  0  0  0  0  0  0  0  0  0
    9.1949  -14.0628   27.0702 C   0  0  1  0  0  0  0  0  0  0  0  0
    8.1925  -13.0182   27.5068 C   0  0  0  0  0  0  0  0  0  0  0  0
    6.9437  -12.7149   26.2314 S   0  0  0  0  0  0  0  0  0  0  0  0
    9.4942  -14.9426   28.2256 C   0  0  0  0  0  0  0  0  0  0  0  0
   10.1211  -14.4408   29.3383 O   0  0  0  0  0  0  0  0  0  0  0  0
    9.1876  -16.1707   28.2276 O   0  0  0  0  0  0  0  0  0  0  0  0
  2  1  1  6
  2  3  1  0
  4  5  1  6
  4  6  1  0
  4  2  1  0
  6  7  2  0
  8  9  1  0
  8  6  1  0
  9 13  1  0
  9 10  1  6
 11 10  1  0
 12 11  2  0
 13 14  2  0
 13 16  1  0
 15 11  1  0
 16 17  1  0
 17 20  1  0
 17 18  1  1
 19 18  1  0
 20 22  2  0
 20 21  1  0
M  END
$$$$
