VDC.pdb
     RDKit          3D

 22 21  0  0  1  0  0  0  0  0999 V2000
    7.7701  -15.0115   19.4174 C   0  0  0  0  0  0  0  0  0  0  0  0
    7.9503  -13.6095   19.9684 C   0  0  2  0  0  0  0  0  0  0  0  0
    7.8881  -12.6446   18.8400 C   0  0  0  0  0  0  0  0  0  0  0  0
    9.2529  -13.5952   20.7417 C   0  0  2  0  0  0  0  0  0  0  0  0
   10.2905  -13.9698   19.7700 N   0  0  0  0  0  0  0  0  0  0  0  0
    9.3150  -14.5812   21.8279 C   0  0  0  0  0  0  0  0  0  0  0  0
    8.4637  -14.5551   22.7463 O   0  0  0  0  0  0  0  0  0  0  0  0
   10.3058  -15.5868   21.8935 N   0  0  0  0  0  0  0  0  0  0  0  0
   10.2910  -16.5796   22.9956 C   0  0  1  0  0  0  0  0  0  0  0  0
   11.0432  -17.8086   22.5211 C   0  0  0  0  0  0  0  0  0  0  0  0
   11.1222  -18.9063   23.4723 C   0  0  0  0  0  0  0  0  0  0  0  0
   11.5088  -18.8880   24.6545 O   0  0  0  0  0  0  0  0  0  0  0  0
   10.8078  -16.0032   24.2377 C   0  0  0  0  0  0  0  0  0  0  0  0
   11.6110  -15.0234   24.2736 O   0  0  0  0  0  0  0  0  0  0  0  0
   10.7036  -20.1683   22.9925 O   0  0  0  0  0  0  0  0  0  0  0  0
   10.4440  -16.5022   25.5281 N   0  0  0  0  0  0  0  0  0  0  0  0
   10.6695  -15.7208   26.7352 C   0  0  1  0  0  0  0  0  0  0  0  0
    9.7626  -14.5110   26.7609 C   0  0  0  0  0  0  0  0  0  0  0  0
   10.0009  -13.5281   28.2627 S   0  0  0  0  0  0  0  0  0  0  0  0
   10.3760  -16.5568   27.9241 C   0  0  0  0  0  0  0  0  0  0  0  0
   10.8236  -16.1819   29.1659 O   0  0  0  0  0  0  0  0  0  0  0  0
    9.7123  -17.6312   27.8385 O   0  0  0  0  0  0  0  0  0  0  0  0
  2  1  1  6
  2  3  1  0
  4  5  1  6
  4  6  1  0
  4  2  1  0
  6  7  2  0
  8  9  1  0
  8  6  1  0
  9 13  1  0
  9 10  1  6
 11 10  1  0
 12 11  2  0
 13 14  2  0
 13 16  1  0
 15 11  1  0
 16 17  1  0
 17 20  1  0
 17 18  1  6
 19 18  1  0
 20 22  2  0
 20 21  1  0
M  END
$$$$
