VDC.pdb
     RDKit          3D

 22 21  0  0  1  0  0  0  0  0999 V2000
    7.8365  -13.2456   18.1847 C   0  0  0  0  0  0  0  0  0  0  0  0
    7.7073  -13.5732   19.6605 C   0  0  2  0  0  0  0  0  0  0  0  0
    8.5248  -12.6035   20.4349 C   0  0  0  0  0  0  0  0  0  0  0  0
    8.1112  -15.0227   19.8355 C   0  0  2  0  0  0  0  0  0  0  0  0
    7.0694  -15.8055   19.1552 N   0  0  0  0  0  0  0  0  0  0  0  0
    8.1339  -15.4731   21.2329 C   0  0  0  0  0  0  0  0  0  0  0  0
    7.0601  -15.6201   21.8606 O   0  0  0  0  0  0  0  0  0  0  0  0
    9.3318  -15.7614   21.9251 N   0  0  0  0  0  0  0  0  0  0  0  0
    9.2914  -16.1689   23.3509 C   0  0  1  0  0  0  0  0  0  0  0  0
   10.5181  -17.0185   23.6241 C   0  0  0  0  0  0  0  0  0  0  0  0
   10.5567  -17.6717   24.9232 C   0  0  0  0  0  0  0  0  0  0  0  0
    9.6881  -17.6898   25.8136 O   0  0  0  0  0  0  0  0  0  0  0  0
    9.1581  -15.0080   24.2323 C   0  0  0  0  0  0  0  0  0  0  0  0
    9.9393  -14.0104   24.1988 O   0  0  0  0  0  0  0  0  0  0  0  0
   11.7408  -18.3846   25.2192 O   0  0  0  0  0  0  0  0  0  0  0  0
    8.1232  -14.9012   25.2141 N   0  0  0  0  0  0  0  0  0  0  0  0
    7.9803  -13.7111   26.0397 C   0  0  1  0  0  0  0  0  0  0  0  0
    6.5499  -13.2207   26.0203 C   0  0  0  0  0  0  0  0  0  0  0  0
    6.3195  -11.7869   27.1015 S   0  0  0  0  0  0  0  0  0  0  0  0
    8.3495  -14.0359   27.4387 C   0  0  0  0  0  0  0  0  0  0  0  0
    8.6607  -15.3240   27.7949 O   0  0  0  0  0  0  0  0  0  0  0  0
    8.3898  -13.1504   28.3422 O   0  0  0  0  0  0  0  0  0  0  0  0
  2  1  1  6
  2  3  1  0
  4  5  1  6
  4  6  1  0
  4  2  1  0
  6  7  2  0
  8  9  1  0
  8  6  1  0
  9 13  1  0
  9 10  1  1
 11 10  1  0
 12 11  2  0
 13 14  2  0
 13 16  1  0
 15 11  1  0
 16 17  1  0
 17 20  1  0
 17 18  1  1
 19 18  1  0
 20 22  2  0
 20 21  1  0
M  END
$$$$
