ITN.pdb
     RDKit          3D

 24 23  0  0  1  0  0  0  0  0999 V2000
   15.6314  -13.0870  -18.8503 C   0  0  0  0  0  0  0  0  0  0  0  0
   17.0121  -13.0018  -18.2544 C   0  0  0  0  0  0  0  0  0  0  0  0
   17.2685  -11.7141  -17.5242 C   0  0  2  0  0  0  0  0  0  0  0  0
   17.0556  -10.5854  -18.5173 C   0  0  0  0  0  0  0  0  0  0  0  0
   18.6265  -11.6221  -16.9071 C   0  0  2  0  0  0  0  0  0  0  0  0
   18.7318  -12.7745  -15.9917 N   0  0  0  0  0  0  0  0  0  0  0  0
   18.8054  -10.3591  -16.1618 C   0  0  0  0  0  0  0  0  0  0  0  0
   18.0400  -10.0644  -15.2229 O   0  0  0  0  0  0  0  0  0  0  0  0
   21.7035   -9.2251  -14.1545 C   0  0  0  0  0  0  0  0  0  0  0  0
   21.4183   -8.1772  -15.1764 C   0  0  1  0  0  0  0  0  0  0  0  0
   22.2881   -8.3308  -16.2560 O   0  0  0  0  0  0  0  0  0  0  0  0
   20.0044   -8.2239  -15.7118 C   0  0  2  0  0  0  0  0  0  0  0  0
   19.8479   -9.4242  -16.4725 N   0  0  0  0  0  0  0  0  0  0  0  0
   19.7957   -6.9938  -16.5083 C   0  0  0  0  0  0  0  0  0  0  0  0
   19.4986   -7.1305  -17.7229 O   0  0  0  0  0  0  0  0  0  0  0  0
   17.5580   -3.4831  -19.5004 N   0  0  0  0  0  0  0  0  0  0  0  0
   17.8413   -3.3739  -18.1100 C   0  0  0  0  0  0  0  0  0  0  0  0
   17.6966   -2.2364  -17.5941 O   0  0  0  0  0  0  0  0  0  0  0  0
   18.2725   -4.5824  -17.4064 C   0  0  0  0  0  0  0  0  0  0  0  0
   19.6351   -4.4939  -16.7816 C   0  0  2  0  0  0  0  0  0  0  0  0
   19.9046   -5.6839  -16.0093 N   0  0  0  0  0  0  0  0  0  0  0  0
   19.8729   -3.2504  -16.0577 C   0  0  0  0  0  0  0  0  0  0  0  0
   19.8419   -3.2437  -14.8082 O   0  0  0  0  0  0  0  0  0  0  0  0
   20.1369   -2.0503  -16.6874 O   0  0  0  0  0  0  0  0  0  0  0  0
  2  1  1  0
  3  2  1  0
  3  4  1  6
  3  5  1  0
  5  6  1  1
  7  5  1  0
  7  8  2  0
 10  9  1  1
 10 12  1  0
 10 11  1  0
 12 13  1  6
 13  7  1  0
 14 12  1  0
 15 14  2  0
 16 17  1  0
 17 18  2  0
 19 17  1  0
 20 19  1  1
 20 21  1  0
 21 14  1  0
 22 20  1  0
 23 22  2  0
 24 22  1  0
M  END
$$$$
