ITN.pdb
     RDKit          3D

 24 23  0  0  1  0  0  0  0  0999 V2000
   17.6107  -15.6272  -17.2526 C   0  0  0  0  0  0  0  0  0  0  0  0
   18.1638  -14.6454  -16.2532 C   0  0  0  0  0  0  0  0  0  0  0  0
   18.2289  -13.2373  -16.7731 C   0  0  2  0  0  0  0  0  0  0  0  0
   19.1215  -13.2538  -18.0014 C   0  0  0  0  0  0  0  0  0  0  0  0
   18.7249  -12.2406  -15.7762 C   0  0  2  0  0  0  0  0  0  0  0  0
   17.7119  -12.2051  -14.7040 N   0  0  0  0  0  0  0  0  0  0  0  0
   18.8833  -10.8992  -16.3745 C   0  0  0  0  0  0  0  0  0  0  0  0
   19.7492  -10.6937  -17.2476 O   0  0  0  0  0  0  0  0  0  0  0  0
   16.4230   -8.5811  -18.1959 C   0  0  0  0  0  0  0  0  0  0  0  0
   16.9817   -7.9065  -16.9891 C   0  0  1  0  0  0  0  0  0  0  0  0
   16.0785   -8.0201  -15.9323 O   0  0  0  0  0  0  0  0  0  0  0  0
   18.3032   -8.4830  -16.5317 C   0  0  2  0  0  0  0  0  0  0  0  0
   18.0660   -9.7848  -15.9905 N   0  0  0  0  0  0  0  0  0  0  0  0
   18.8791   -7.5362  -15.5504 C   0  0  0  0  0  0  0  0  0  0  0  0
   19.1870   -7.9880  -14.4176 O   0  0  0  0  0  0  0  0  0  0  0  0
   21.5503   -3.8156  -13.3256 N   0  0  0  0  0  0  0  0  0  0  0  0
   22.0545   -5.0749  -13.7561 C   0  0  0  0  0  0  0  0  0  0  0  0
   23.2211   -5.3687  -13.3902 O   0  0  0  0  0  0  0  0  0  0  0  0
   21.1812   -5.9121  -14.5795 C   0  0  0  0  0  0  0  0  0  0  0  0
   19.8483   -5.3018  -14.9041 C   0  0  2  0  0  0  0  0  0  0  0  0
   19.1078   -6.1697  -15.7892 N   0  0  0  0  0  0  0  0  0  0  0  0
   19.9275   -3.9184  -15.3590 C   0  0  0  0  0  0  0  0  0  0  0  0
   20.4692   -3.0565  -14.6337 O   0  0  0  0  0  0  0  0  0  0  0  0
   19.4269   -3.4945  -16.5738 O   0  0  0  0  0  0  0  0  0  0  0  0
  2  1  1  0
  3  2  1  0
  3  4  1  6
  3  5  1  0
  5  6  1  1
  7  5  1  0
  7  8  2  0
 10  9  1  6
 10 12  1  0
 10 11  1  0
 12 13  1  1
 13  7  1  0
 14 12  1  0
 15 14  2  0
 16 17  1  0
 17 18  2  0
 19 17  1  0
 20 19  1  6
 20 21  1  0
 21 14  1  0
 22 20  1  0
 23 22  2  0
 24 22  1  0
M  END
$$$$
