ITN.pdb
     RDKit          3D

 24 23  0  0  1  0  0  0  0  0999 V2000
   17.0211  -15.7609  -17.3622 C   0  0  0  0  0  0  0  0  0  0  0  0
   17.8338  -14.9271  -16.4067 C   0  0  0  0  0  0  0  0  0  0  0  0
   17.9674  -13.4923  -16.8316 C   0  0  2  0  0  0  0  0  0  0  0  0
   18.6560  -13.4878  -18.1849 C   0  0  0  0  0  0  0  0  0  0  0  0
   18.7117  -12.6346  -15.8602 C   0  0  2  0  0  0  0  0  0  0  0  0
   17.9050  -12.6321  -14.6247 N   0  0  0  0  0  0  0  0  0  0  0  0
   18.8802  -11.2559  -16.3635 C   0  0  0  0  0  0  0  0  0  0  0  0
   19.6012  -11.0275  -17.3546 O   0  0  0  0  0  0  0  0  0  0  0  0
   16.3012   -8.9301  -17.6819 C   0  0  0  0  0  0  0  0  0  0  0  0
   17.0175   -8.2460  -16.5671 C   0  0  1  0  0  0  0  0  0  0  0  0
   16.2681   -8.3557  -15.3957 O   0  0  0  0  0  0  0  0  0  0  0  0
   18.3914   -8.8155  -16.2917 C   0  0  2  0  0  0  0  0  0  0  0  0
   18.2365  -10.1299  -15.7510 N   0  0  0  0  0  0  0  0  0  0  0  0
   19.0781   -7.8806  -15.3722 C   0  0  0  0  0  0  0  0  0  0  0  0
   19.6509   -8.3704  -14.3653 O   0  0  0  0  0  0  0  0  0  0  0  0
   22.3646   -5.2660  -12.6210 N   0  0  0  0  0  0  0  0  0  0  0  0
   22.2882   -5.1339  -14.0360 C   0  0  0  0  0  0  0  0  0  0  0  0
   23.0203   -4.2558  -14.5593 O   0  0  0  0  0  0  0  0  0  0  0  0
   21.3733   -6.0222  -14.7540 C   0  0  0  0  0  0  0  0  0  0  0  0
   19.9323   -5.6014  -14.7202 C   0  0  2  0  0  0  0  0  0  0  0  0
   19.1381   -6.4859  -15.5398 N   0  0  0  0  0  0  0  0  0  0  0  0
   19.7240   -4.1855  -15.0011 C   0  0  0  0  0  0  0  0  0  0  0  0
   19.6043   -3.7983  -16.1835 O   0  0  0  0  0  0  0  0  0  0  0  0
   19.6495   -3.2240  -14.0132 O   0  0  0  0  0  0  0  0  0  0  0  0
  2  1  1  0
  3  2  1  0
  3  4  1  6
  3  5  1  0
  5  6  1  1
  7  5  1  0
  7  8  2  0
 10  9  1  6
 10 12  1  0
 10 11  1  0
 12 13  1  1
 13  7  1  0
 14 12  1  0
 15 14  2  0
 16 17  1  0
 17 18  2  0
 19 17  1  0
 20 19  1  6
 20 21  1  0
 21 14  1  0
 22 20  1  0
 23 22  2  0
 24 22  1  0
M  END
$$$$
