ITN.pdb
     RDKit          3D

 24 23  0  0  1  0  0  0  0  0999 V2000
   26.1577  -17.9644  -17.8822 C   0  0  0  0  0  0  0  0  0  0  0  0
   25.2280  -17.2394  -16.9447 C   0  0  0  0  0  0  0  0  0  0  0  0
   25.4939  -15.7629  -16.8642 C   0  0  2  0  0  0  0  0  0  0  0  0
   26.8972  -15.5895  -16.3108 C   0  0  0  0  0  0  0  0  0  0  0  0
   24.5051  -15.0087  -16.0354 C   0  0  2  0  0  0  0  0  0  0  0  0
   23.1744  -15.4216  -16.5212 N   0  0  0  0  0  0  0  0  0  0  0  0
   24.6709  -13.5477  -16.1786 C   0  0  0  0  0  0  0  0  0  0  0  0
   25.6508  -12.9690  -15.6695 O   0  0  0  0  0  0  0  0  0  0  0  0
   25.1655  -11.4583  -19.1884 C   0  0  0  0  0  0  0  0  0  0  0  0
   23.9555  -10.9571  -18.4753 C   0  0  1  0  0  0  0  0  0  0  0  0
   22.8111  -11.4879  -19.0707 O   0  0  0  0  0  0  0  0  0  0  0  0
   23.9244  -11.3219  -17.0077 C   0  0  2  0  0  0  0  0  0  0  0  0
   23.7326  -12.7342  -16.8963 N   0  0  0  0  0  0  0  0  0  0  0  0
   22.8402  -10.5320  -16.3819 C   0  0  0  0  0  0  0  0  0  0  0  0
   21.9276  -11.1634  -15.7897 O   0  0  0  0  0  0  0  0  0  0  0  0
   19.9338   -6.9894  -14.1508 N   0  0  0  0  0  0  0  0  0  0  0  0
   20.6392   -8.0438  -13.5057 C   0  0  0  0  0  0  0  0  0  0  0  0
   20.3443   -8.2649  -12.3036 O   0  0  0  0  0  0  0  0  0  0  0  0
   21.6375   -8.7734  -14.2885 C   0  0  0  0  0  0  0  0  0  0  0  0
   21.7234   -8.3686  -15.7319 C   0  0  2  0  0  0  0  0  0  0  0  0
   22.7537   -9.1288  -16.3996 N   0  0  0  0  0  0  0  0  0  0  0  0
   21.8226   -6.9279  -15.9361 C   0  0  0  0  0  0  0  0  0  0  0  0
   22.8646   -6.4405  -16.4249 O   0  0  0  0  0  0  0  0  0  0  0  0
   20.8079   -6.0492  -15.6130 O   0  0  0  0  0  0  0  0  0  0  0  0
  2  1  1  0
  3  2  1  0
  3  4  1  1
  3  5  1  0
  5  6  1  6
  7  5  1  0
  7  8  2  0
 10  9  1  6
 10 12  1  0
 10 11  1  0
 12 13  1  6
 13  7  1  0
 14 12  1  0
 15 14  2  0
 16 17  1  0
 17 18  2  0
 19 17  1  0
 20 19  1  1
 20 21  1  0
 21 14  1  0
 22 20  1  0
 23 22  2  0
 24 22  1  0
M  END
$$$$
