ITN.pdb
     RDKit          3D

 24 23  0  0  1  0  0  0  0  0999 V2000
   19.4151  -16.3412  -16.9231 C   0  0  0  0  0  0  0  0  0  0  0  0
   18.5314  -15.5175  -16.0234 C   0  0  0  0  0  0  0  0  0  0  0  0
   18.4791  -14.0654  -16.4052 C   0  0  2  0  0  0  0  0  0  0  0  0
   19.8179  -13.4548  -16.0307 C   0  0  0  0  0  0  0  0  0  0  0  0
   17.3592  -13.3069  -15.7696 C   0  0  2  0  0  0  0  0  0  0  0  0
   16.1184  -13.9563  -16.2342 N   0  0  0  0  0  0  0  0  0  0  0  0
   17.3691  -11.8829  -16.1627 C   0  0  0  0  0  0  0  0  0  0  0  0
   17.2554  -11.5560  -17.3604 O   0  0  0  0  0  0  0  0  0  0  0  0
   15.0681   -9.5120  -16.2804 C   0  0  0  0  0  0  0  0  0  0  0  0
   16.1041   -8.9002  -15.3993 C   0  0  1  0  0  0  0  0  0  0  0  0
   15.7681   -9.1206  -14.0635 O   0  0  0  0  0  0  0  0  0  0  0  0
   17.4931   -9.4552  -15.6241 C   0  0  2  0  0  0  0  0  0  0  0  0
   17.5073  -10.8225  -15.2068 N   0  0  0  0  0  0  0  0  0  0  0  0
   18.4350   -8.6012  -14.8661 C   0  0  0  0  0  0  0  0  0  0  0  0
   19.2084   -9.1681  -14.0521 O   0  0  0  0  0  0  0  0  0  0  0  0
   21.9522   -5.0974  -13.7867 N   0  0  0  0  0  0  0  0  0  0  0  0
   22.1349   -6.3438  -14.4490 C   0  0  0  0  0  0  0  0  0  0  0  0
   23.3216   -6.7290  -14.6056 O   0  0  0  0  0  0  0  0  0  0  0  0
   20.9384   -7.0636  -14.8869 C   0  0  0  0  0  0  0  0  0  0  0  0
   19.6392   -6.4182  -14.4993 C   0  0  2  0  0  0  0  0  0  0  0  0
   18.5303   -7.2037  -14.9876 N   0  0  0  0  0  0  0  0  0  0  0  0
   19.5588   -5.0024  -14.8397 C   0  0  0  0  0  0  0  0  0  0  0  0
   19.4671   -4.6560  -16.0372 O   0  0  0  0  0  0  0  0  0  0  0  0
   19.5784   -3.9973  -13.8933 O   0  0  0  0  0  0  0  0  0  0  0  0
  2  1  1  0
  3  2  1  0
  3  4  1  1
  3  5  1  0
  5  6  1  6
  7  5  1  0
  7  8  2  0
 10  9  1  6
 10 12  1  0
 10 11  1  0
 12 13  1  1
 13  7  1  0
 14 12  1  0
 15 14  2  0
 16 17  1  0
 17 18  2  0
 19 17  1  0
 20 19  1  6
 20 21  1  0
 21 14  1  0
 22 20  1  0
 23 22  2  0
 24 22  1  0
M  END
$$$$
