ITN.pdb
     RDKit          3D

 24 23  0  0  1  0  0  0  0  0999 V2000
   25.8610  -20.5789   -7.9675 C   0  0  0  0  0  0  0  0  0  0  0  0
   25.9098  -21.3944   -9.2329 C   0  0  0  0  0  0  0  0  0  0  0  0
   25.8304  -20.5633  -10.4819 C   0  0  2  0  0  0  0  0  0  0  0  0
   24.4690  -19.8908  -10.4872 C   0  0  0  0  0  0  0  0  0  0  0  0
   26.0399  -21.3359  -11.7438 C   0  0  2  0  0  0  0  0  0  0  0  0
   27.3451  -22.0073  -11.5930 N   0  0  0  0  0  0  0  0  0  0  0  0
   26.0520  -20.4554  -12.9301 C   0  0  0  0  0  0  0  0  0  0  0  0
   27.1040  -19.8907  -13.2884 O   0  0  0  0  0  0  0  0  0  0  0  0
   27.3291  -20.0434  -15.2204 C   0  0  0  0  0  0  0  0  0  0  0  0
   25.9693  -19.9269  -15.8212 C   0  0  1  0  0  0  0  0  0  0  0  0
   25.5329  -21.1862  -16.2329 O   0  0  0  0  0  0  0  0  0  0  0  0
   24.9343  -19.3671  -14.8706 C   0  0  2  0  0  0  0  0  0  0  0  0
   24.8780  -20.2087  -13.7163 N   0  0  0  0  0  0  0  0  0  0  0  0
   23.6529  -19.2973  -15.6082 C   0  0  0  0  0  0  0  0  0  0  0  0
   22.9188  -20.3185  -15.5971 O   0  0  0  0  0  0  0  0  0  0  0  0
   19.1962  -17.4033  -17.3199 N   0  0  0  0  0  0  0  0  0  0  0  0
   19.6434  -17.0249  -16.0229 C   0  0  0  0  0  0  0  0  0  0  0  0
   18.7930  -16.4861  -15.2695 O   0  0  0  0  0  0  0  0  0  0  0  0
   21.0407  -17.2923  -15.6799 C   0  0  0  0  0  0  0  0  0  0  0  0
   21.8296  -17.9871  -16.7521 C   0  0  2  0  0  0  0  0  0  0  0  0
   23.1946  -18.1750  -16.3205 N   0  0  0  0  0  0  0  0  0  0  0  0
   21.7029  -17.3739  -18.0693 C   0  0  0  0  0  0  0  0  0  0  0  0
   20.5708  -17.2210  -18.5766 O   0  0  0  0  0  0  0  0  0  0  0  0
   22.7870  -16.9416  -18.8069 O   0  0  0  0  0  0  0  0  0  0  0  0
  2  1  1  0
  3  2  1  0
  3  4  1  6
  3  5  1  0
  5  6  1  1
  7  5  1  0
  7  8  2  0
 10  9  1  1
 10 12  1  0
 10 11  1  0
 12 13  1  1
 13  7  1  0
 14 12  1  0
 15 14  2  0
 16 17  1  0
 17 18  2  0
 19 17  1  0
 20 19  1  1
 20 21  1  0
 21 14  1  0
 22 20  1  0
 23 22  2  0
 24 22  1  0
M  END
$$$$
