ITN.pdb
     RDKit          3D

 24 23  0  0  1  0  0  0  0  0999 V2000
   21.0158  -30.1562  -12.5011 C   0  0  0  0  0  0  0  0  0  0  0  0
   19.8403  -30.1490  -11.5593 C   0  0  0  0  0  0  0  0  0  0  0  0
   20.0674  -29.3187  -10.3279 C   0  0  2  0  0  0  0  0  0  0  0  0
   21.2339  -29.9378   -9.5785 C   0  0  0  0  0  0  0  0  0  0  0  0
   18.8717  -29.2059   -9.4385 C   0  0  2  0  0  0  0  0  0  0  0  0
   17.7686  -28.7449  -10.3033 N   0  0  0  0  0  0  0  0  0  0  0  0
   19.0952  -28.2448   -8.3390 C   0  0  0  0  0  0  0  0  0  0  0  0
   19.9460  -28.4775   -7.4580 O   0  0  0  0  0  0  0  0  0  0  0  0
   19.1160  -24.1627   -8.3811 C   0  0  0  0  0  0  0  0  0  0  0  0
   18.1354  -24.7758   -7.4397 C   0  0  1  0  0  0  0  0  0  0  0  0
   16.8683  -24.7768   -8.0231 O   0  0  0  0  0  0  0  0  0  0  0  0
   18.4709  -26.2012   -7.0609 C   0  0  2  0  0  0  0  0  0  0  0  0
   18.3602  -27.0180   -8.2291 N   0  0  0  0  0  0  0  0  0  0  0  0
   17.5428  -26.5979   -5.9783 C   0  0  0  0  0  0  0  0  0  0  0  0
   17.3979  -27.8277   -5.7576 O   0  0  0  0  0  0  0  0  0  0  0  0
   17.3960  -26.7229   -0.5452 N   0  0  0  0  0  0  0  0  0  0  0  0
   16.6728  -27.1072   -1.7091 C   0  0  0  0  0  0  0  0  0  0  0  0
   15.6286  -27.7832   -1.5248 O   0  0  0  0  0  0  0  0  0  0  0  0
   17.2004  -26.6873   -3.0078 C   0  0  0  0  0  0  0  0  0  0  0  0
   16.1908  -26.0553   -3.9222 C   0  0  2  0  0  0  0  0  0  0  0  0
   16.8108  -25.7033   -5.1778 N   0  0  0  0  0  0  0  0  0  0  0  0
   15.4366  -24.9687   -3.3077 C   0  0  0  0  0  0  0  0  0  0  0  0
   15.9271  -23.8199   -3.2637 O   0  0  0  0  0  0  0  0  0  0  0  0
   14.1815  -25.1389   -2.7582 O   0  0  0  0  0  0  0  0  0  0  0  0
  2  1  1  0
  3  2  1  0
  3  4  1  1
  3  5  1  0
  5  6  1  6
  7  5  1  0
  7  8  2  0
 10  9  1  6
 10 12  1  0
 10 11  1  0
 12 13  1  6
 13  7  1  0
 14 12  1  0
 15 14  2  0
 16 17  1  0
 17 18  2  0
 19 17  1  0
 20 19  1  1
 20 21  1  0
 21 14  1  0
 22 20  1  0
 23 22  2  0
 24 22  1  0
M  END
$$$$
