ITN.pdb
     RDKit          3D

 24 23  0  0  1  0  0  0  0  0999 V2000
   19.2276  -14.7950  -17.3995 C   0  0  0  0  0  0  0  0  0  0  0  0
   18.3638  -14.1743  -16.3330 C   0  0  0  0  0  0  0  0  0  0  0  0
   18.2877  -12.6766  -16.4234 C   0  0  2  0  0  0  0  0  0  0  0  0
   19.7081  -12.1488  -16.3259 C   0  0  0  0  0  0  0  0  0  0  0  0
   17.4198  -12.0454  -15.3834 C   0  0  2  0  0  0  0  0  0  0  0  0
   16.0945  -12.6780  -15.5268 N   0  0  0  0  0  0  0  0  0  0  0  0
   17.3119  -10.5842  -15.5725 C   0  0  0  0  0  0  0  0  0  0  0  0
   17.0638  -10.1082  -16.6977 O   0  0  0  0  0  0  0  0  0  0  0  0
   14.9208   -8.1785  -14.7248 C   0  0  0  0  0  0  0  0  0  0  0  0
   16.1785   -7.6977  -14.0837 C   0  0  1  0  0  0  0  0  0  0  0  0
   16.1896   -8.0743  -12.7407 O   0  0  0  0  0  0  0  0  0  0  0  0
   17.4329   -8.2452  -14.7277 C   0  0  2  0  0  0  0  0  0  0  0  0
   17.4835   -9.6547  -14.4937 N   0  0  0  0  0  0  0  0  0  0  0  0
   18.5804   -7.5129  -14.1463 C   0  0  0  0  0  0  0  0  0  0  0  0
   19.4617   -8.1876  -13.5546 O   0  0  0  0  0  0  0  0  0  0  0  0
   22.4911   -4.3795  -13.4082 N   0  0  0  0  0  0  0  0  0  0  0  0
   22.4464   -5.4750  -14.3156 C   0  0  0  0  0  0  0  0  0  0  0  0
   23.5386   -5.8213  -14.8336 O   0  0  0  0  0  0  0  0  0  0  0  0
   21.1465   -6.0988  -14.5659 C   0  0  0  0  0  0  0  0  0  0  0  0
   19.9894   -5.4422  -13.8696 C   0  0  2  0  0  0  0  0  0  0  0  0
   18.7593   -6.1196  -14.2057 N   0  0  0  0  0  0  0  0  0  0  0  0
   19.9376   -3.9956  -14.0469 C   0  0  0  0  0  0  0  0  0  0  0  0
   19.3795   -3.5134  -15.0561 O   0  0  0  0  0  0  0  0  0  0  0  0
   20.4823   -3.1054  -13.1430 O   0  0  0  0  0  0  0  0  0  0  0  0
  2  1  1  0
  3  2  1  0
  3  4  1  1
  3  5  1  0
  5  6  1  6
  7  5  1  0
  7  8  2  0
 10  9  1  6
 10 12  1  0
 10 11  1  0
 12 13  1  1
 13  7  1  0
 14 12  1  0
 15 14  2  0
 16 17  1  0
 17 18  2  0
 19 17  1  0
 20 19  1  6
 20 21  1  0
 21 14  1  0
 22 20  1  0
 23 22  2  0
 24 22  1  0
M  END
$$$$
