TGG.pdb
     RDKit          3D

 16 15  0  0  1  0  0  0  0  0999 V2000
    6.7547  -13.1782   19.9806 C   0  0  0  0  0  0  0  0  0  0  0  0
    8.0212  -14.0060   19.9488 C   0  0  1  0  0  0  0  0  0  0  0  0
    7.7062  -15.1628   19.2236 O   0  0  0  0  0  0  0  0  0  0  0  0
    9.0952  -13.2000   19.2445 C   0  0  2  0  0  0  0  0  0  0  0  0
    8.6059  -12.8282   17.9355 N   0  0  0  0  0  0  0  0  0  0  0  0
   10.3576  -13.9420   19.1997 C   0  0  0  0  0  0  0  0  0  0  0  0
   10.9472  -14.0835   18.1003 O   0  0  0  0  0  0  0  0  0  0  0  0
   10.9675  -14.5236   20.3519 N   0  0  0  0  0  0  0  0  0  0  0  0
   12.2814  -15.1283   20.2553 C   0  0  0  0  0  0  0  0  0  0  0  0
   12.7732  -15.5712   21.5807 C   0  0  0  0  0  0  0  0  0  0  0  0
   13.9260  -16.0348   21.7578 O   0  0  0  0  0  0  0  0  0  0  0  0
   11.8975  -15.4629   22.6902 N   0  0  0  0  0  0  0  0  0  0  0  0
   12.3609  -15.8662   24.0042 C   0  0  0  0  0  0  0  0  0  0  0  0
   12.4099  -17.3587   24.0777 C   0  0  0  0  0  0  0  0  0  0  0  0
   13.2584  -17.9855   23.4078 O   0  0  0  0  0  0  0  0  0  0  0  0
   11.5389  -18.0779   24.8702 O   0  0  0  0  0  0  0  0  0  0  0  0
  2  4  1  0
  2  1  1  6
  3  2  1  0
  4  5  1  6
  6  7  2  0
  6  4  1  0
  8  6  1  0
  9  8  1  0
 10 12  1  0
 10  9  1  0
 11 10  2  0
 13 12  1  0
 13 14  1  0
 14 16  1  0
 15 14  2  0
M  END
$$$$
