TGG.pdb
     RDKit          3D

 16 15  0  0  1  0  0  0  0  0999 V2000
    8.6143  -12.4299   19.6305 C   0  0  0  0  0  0  0  0  0  0  0  0
    8.0425  -13.4299   18.6490 C   0  0  1  0  0  0  0  0  0  0  0  0
    8.0729  -12.8005   17.3974 O   0  0  0  0  0  0  0  0  0  0  0  0
    8.9277  -14.6609   18.6587 C   0  0  2  0  0  0  0  0  0  0  0  0
    8.5756  -15.4885   17.5264 N   0  0  0  0  0  0  0  0  0  0  0  0
    8.8284  -15.3634   19.9404 C   0  0  0  0  0  0  0  0  0  0  0  0
    7.8086  -16.0544   20.1836 O   0  0  0  0  0  0  0  0  0  0  0  0
    9.8396  -15.3079   20.9465 N   0  0  0  0  0  0  0  0  0  0  0  0
    9.6877  -16.0601   22.1762 C   0  0  0  0  0  0  0  0  0  0  0  0
   10.8939  -15.9533   23.0296 C   0  0  0  0  0  0  0  0  0  0  0  0
   10.9818  -16.5038   24.1541 O   0  0  0  0  0  0  0  0  0  0  0  0
   11.9904  -15.1953   22.5473 N   0  0  0  0  0  0  0  0  0  0  0  0
   13.1813  -15.0671   23.3654 C   0  0  0  0  0  0  0  0  0  0  0  0
   14.1826  -16.0971   22.9506 C   0  0  0  0  0  0  0  0  0  0  0  0
   13.8074  -17.2633   22.7039 O   0  0  0  0  0  0  0  0  0  0  0  0
   15.5248  -15.8006   22.8289 O   0  0  0  0  0  0  0  0  0  0  0  0
  2  4  1  0
  2  1  1  1
  3  2  1  0
  4  5  1  6
  6  7  2  0
  6  4  1  0
  8  6  1  0
  9  8  1  0
 10 12  1  0
 10  9  1  0
 11 10  2  0
 13 12  1  0
 13 14  1  0
 14 16  1  0
 15 14  2  0
M  END
$$$$
