TGG.pdb
     RDKit          3D

 16 15  0  0  1  0  0  0  0  0999 V2000
    8.2020  -14.9120   17.6094 C   0  0  0  0  0  0  0  0  0  0  0  0
    8.9722  -14.0596   18.5945 C   0  0  1  0  0  0  0  0  0  0  0  0
    9.6046  -13.0681   17.8327 O   0  0  0  0  0  0  0  0  0  0  0  0
    7.9816  -13.4479   19.5659 C   0  0  2  0  0  0  0  0  0  0  0  0
    8.6755  -12.4704   20.3746 N   0  0  0  0  0  0  0  0  0  0  0  0
    7.3197  -14.4875   20.3581 C   0  0  0  0  0  0  0  0  0  0  0  0
    6.5773  -15.3192   19.7805 O   0  0  0  0  0  0  0  0  0  0  0  0
    7.4714  -14.6130   21.7719 N   0  0  0  0  0  0  0  0  0  0  0  0
    6.7488  -15.6407   22.4951 C   0  0  0  0  0  0  0  0  0  0  0  0
    7.1790  -15.7116   23.9109 C   0  0  0  0  0  0  0  0  0  0  0  0
    7.8900  -14.8291   24.4503 O   0  0  0  0  0  0  0  0  0  0  0  0
    6.7652  -16.8273   24.6813 N   0  0  0  0  0  0  0  0  0  0  0  0
    6.9713  -16.8162   26.1171 C   0  0  0  0  0  0  0  0  0  0  0  0
    8.2474  -17.5245   26.4416 C   0  0  0  0  0  0  0  0  0  0  0  0
    8.5232  -17.7929   27.6305 O   0  0  0  0  0  0  0  0  0  0  0  0
    9.1434  -17.8971   25.4605 O   0  0  0  0  0  0  0  0  0  0  0  0
  2  4  1  0
  2  1  1  6
  3  2  1  0
  4  5  1  1
  6  7  2  0
  6  4  1  0
  8  6  1  0
  9  8  1  0
 10 12  1  0
 10  9  1  0
 11 10  2  0
 13 12  1  0
 13 14  1  0
 14 16  1  0
 15 14  2  0
M  END
$$$$
