TGG.pdb
     RDKit          3D

 16 15  0  0  1  0  0  0  0  0999 V2000
    3.6308  -21.5878   22.8289 C   0  0  0  0  0  0  0  0  0  0  0  0
    4.6621  -20.7198   23.5168 C   0  0  1  0  0  0  0  0  0  0  0  0
    5.3534  -21.5660   24.3939 O   0  0  0  0  0  0  0  0  0  0  0  0
    5.5916  -20.1605   22.4574 C   0  0  2  0  0  0  0  0  0  0  0  0
    6.2027  -21.2656   21.7530 N   0  0  0  0  0  0  0  0  0  0  0  0
    6.5678  -19.2444   23.0525 C   0  0  0  0  0  0  0  0  0  0  0  0
    7.7291  -19.6572   23.2925 O   0  0  0  0  0  0  0  0  0  0  0  0
    6.2719  -17.8872   23.3812 N   0  0  0  0  0  0  0  0  0  0  0  0
    7.2998  -17.0307   23.9390 C   0  0  0  0  0  0  0  0  0  0  0  0
    7.4882  -17.2820   25.3867 C   0  0  0  0  0  0  0  0  0  0  0  0
    8.2285  -16.5714   26.1093 O   0  0  0  0  0  0  0  0  0  0  0  0
    6.7990  -18.3738   25.9720 N   0  0  0  0  0  0  0  0  0  0  0  0
    6.8849  -18.5837   27.4047 C   0  0  0  0  0  0  0  0  0  0  0  0
    8.1622  -19.2905   27.7278 C   0  0  0  0  0  0  0  0  0  0  0  0
    8.5257  -20.2638   27.0336 O   0  0  0  0  0  0  0  0  0  0  0  0
    8.9645  -18.8999   28.7804 O   0  0  0  0  0  0  0  0  0  0  0  0
  2  4  1  0
  2  1  1  6
  3  2  1  0
  4  5  1  1
  6  7  2  0
  6  4  1  0
  8  6  1  0
  9  8  1  0
 10 12  1  0
 10  9  1  0
 11 10  2  0
 13 12  1  0
 13 14  1  0
 14 16  1  0
 15 14  2  0
M  END
$$$$
