TGG.pdb
     RDKit          3D

 16 15  0  0  1  0  0  0  0  0999 V2000
    7.5917  -13.3178   17.8362 C   0  0  0  0  0  0  0  0  0  0  0  0
    7.7943  -13.9240   19.2080 C   0  0  1  0  0  0  0  0  0  0  0  0
    8.4691  -15.1339   18.9977 O   0  0  0  0  0  0  0  0  0  0  0  0
    8.6384  -12.9674   20.0275 C   0  0  2  0  0  0  0  0  0  0  0  0
    9.8652  -12.7059   19.3081 N   0  0  0  0  0  0  0  0  0  0  0  0
    8.8611  -13.4944   21.3763 C   0  0  0  0  0  0  0  0  0  0  0  0
    9.9978  -13.9295   21.6847 O   0  0  0  0  0  0  0  0  0  0  0  0
    7.8449  -13.5433   22.3777 N   0  0  0  0  0  0  0  0  0  0  0  0
    8.1477  -14.0532   23.7003 C   0  0  0  0  0  0  0  0  0  0  0  0
    8.4802  -15.4963   23.6619 C   0  0  0  0  0  0  0  0  0  0  0  0
    7.6816  -16.3668   23.2376 O   0  0  0  0  0  0  0  0  0  0  0  0
    9.7567  -15.9020   24.1262 N   0  0  0  0  0  0  0  0  0  0  0  0
   10.1005  -17.3112   24.1216 C   0  0  0  0  0  0  0  0  0  0  0  0
   11.4894  -17.4856   24.6470 C   0  0  0  0  0  0  0  0  0  0  0  0
   12.4675  -17.2337   23.9112 O   0  0  0  0  0  0  0  0  0  0  0  0
   11.7320  -17.9211   25.9338 O   0  0  0  0  0  0  0  0  0  0  0  0
  2  4  1  0
  2  1  1  6
  3  2  1  0
  4  5  1  6
  6  7  2  0
  6  4  1  0
  8  6  1  0
  9  8  1  0
 10 12  1  0
 10  9  1  0
 11 10  2  0
 13 12  1  0
 13 14  1  0
 14 16  1  0
 15 14  2  0
M  END
$$$$
