TGG.pdb
     RDKit          3D

 16 15  0  0  1  0  0  0  0  0999 V2000
   12.8758  -24.7937   31.0031 C   0  0  0  0  0  0  0  0  0  0  0  0
   12.5500  -23.8550   29.8617 C   0  0  1  0  0  0  0  0  0  0  0  0
   11.6378  -24.5407   29.0485 O   0  0  0  0  0  0  0  0  0  0  0  0
   11.9233  -22.6029   30.4435 C   0  0  2  0  0  0  0  0  0  0  0  0
   11.2169  -21.9104   29.3888 N   0  0  0  0  0  0  0  0  0  0  0  0
   12.9345  -21.7728   31.1030 C   0  0  0  0  0  0  0  0  0  0  0  0
   13.5884  -20.9455   30.4214 O   0  0  0  0  0  0  0  0  0  0  0  0
   13.2254  -21.8502   32.4984 N   0  0  0  0  0  0  0  0  0  0  0  0
   14.2499  -21.0045   33.0783 C   0  0  0  0  0  0  0  0  0  0  0  0
   15.6072  -21.4530   32.6895 C   0  0  0  0  0  0  0  0  0  0  0  0
   15.8168  -22.5191   32.0612 O   0  0  0  0  0  0  0  0  0  0  0  0
   16.7099  -20.6369   33.0466 N   0  0  0  0  0  0  0  0  0  0  0  0
   18.0177  -20.9242   32.4887 C   0  0  0  0  0  0  0  0  0  0  0  0
   18.6568  -22.0312   33.2644 C   0  0  0  0  0  0  0  0  0  0  0  0
   18.0785  -22.4998   34.2681 O   0  0  0  0  0  0  0  0  0  0  0  0
   19.8796  -22.5605   32.9056 O   0  0  0  0  0  0  0  0  0  0  0  0
  2  4  1  0
  2  1  1  1
  3  2  1  0
  4  5  1  6
  6  7  2  0
  6  4  1  0
  8  6  1  0
  9  8  1  0
 10 12  1  0
 10  9  1  0
 11 10  2  0
 13 12  1  0
 13 14  1  0
 14 16  1  0
 15 14  2  0
M  END
$$$$
