TGG.pdb
     RDKit          3D

 16 15  0  0  1  0  0  0  0  0999 V2000
   -3.3902  -24.2467   22.2118 C   0  0  0  0  0  0  0  0  0  0  0  0
   -3.4047  -25.2987   23.2996 C   0  0  1  0  0  0  0  0  0  0  0  0
   -2.0970  -25.7972   23.3696 O   0  0  0  0  0  0  0  0  0  0  0  0
   -3.7998  -24.6279   24.6007 C   0  0  2  0  0  0  0  0  0  0  0  0
   -3.5692  -25.5568   25.6847 N   0  0  0  0  0  0  0  0  0  0  0  0
   -5.1815  -24.1447   24.5385 C   0  0  0  0  0  0  0  0  0  0  0  0
   -5.4689  -23.2080   23.7533 O   0  0  0  0  0  0  0  0  0  0  0  0
   -6.2385  -24.6849   25.3314 N   0  0  0  0  0  0  0  0  0  0  0  0
   -7.5479  -24.0633   25.3233 C   0  0  0  0  0  0  0  0  0  0  0  0
   -7.9850  -23.7018   26.6918 C   0  0  0  0  0  0  0  0  0  0  0  0
   -9.1153  -23.2150   26.9381 O   0  0  0  0  0  0  0  0  0  0  0  0
   -7.0814  -23.9185   27.7624 N   0  0  0  0  0  0  0  0  0  0  0  0
   -7.5250  -23.6915   29.1247 C   0  0  0  0  0  0  0  0  0  0  0  0
   -7.2539  -22.2713   29.5056 C   0  0  0  0  0  0  0  0  0  0  0  0
   -6.8308  -21.4683   28.6466 O   0  0  0  0  0  0  0  0  0  0  0  0
   -7.4573  -21.8102   30.7902 O   0  0  0  0  0  0  0  0  0  0  0  0
  2  4  1  0
  2  1  1  6
  3  2  1  0
  4  5  1  1
  6  7  2  0
  6  4  1  0
  8  6  1  0
  9  8  1  0
 10 12  1  0
 10  9  1  0
 11 10  2  0
 13 12  1  0
 13 14  1  0
 14 16  1  0
 15 14  2  0
M  END
$$$$
