TGG.pdb
     RDKit          3D

 16 15  0  0  1  0  0  0  0  0999 V2000
   -1.9393  -26.9143   26.2122 C   0  0  0  0  0  0  0  0  0  0  0  0
   -3.2483  -27.5811   26.5759 C   0  0  1  0  0  0  0  0  0  0  0  0
   -2.9214  -28.8918   26.9486 O   0  0  0  0  0  0  0  0  0  0  0  0
   -3.8581  -26.8227   27.7386 C   0  0  2  0  0  0  0  0  0  0  0  0
   -4.9802  -27.5820   28.2440 N   0  0  0  0  0  0  0  0  0  0  0  0
   -4.2163  -25.4591   27.3401 C   0  0  0  0  0  0  0  0  0  0  0  0
   -3.3054  -24.6151   27.1549 O   0  0  0  0  0  0  0  0  0  0  0  0
   -5.5626  -25.0259   27.1466 N   0  0  0  0  0  0  0  0  0  0  0  0
   -5.8395  -23.6606   26.7460 C   0  0  0  0  0  0  0  0  0  0  0  0
   -6.5542  -22.9178   27.8099 C   0  0  0  0  0  0  0  0  0  0  0  0
   -7.0158  -21.7630   27.6400 O   0  0  0  0  0  0  0  0  0  0  0  0
   -6.7190  -23.5457   29.0700 N   0  0  0  0  0  0  0  0  0  0  0  0
   -7.5086  -22.8889   30.0943 C   0  0  0  0  0  0  0  0  0  0  0  0
   -8.8277  -23.5806   30.2249 C   0  0  0  0  0  0  0  0  0  0  0  0
   -9.1260  -24.5023   29.4356 O   0  0  0  0  0  0  0  0  0  0  0  0
   -9.7396  -23.2317   31.2000 O   0  0  0  0  0  0  0  0  0  0  0  0
  2  4  1  0
  2  1  1  1
  3  2  1  0
  4  5  1  6
  6  7  2  0
  6  4  1  0
  8  6  1  0
  9  8  1  0
 10 12  1  0
 10  9  1  0
 11 10  2  0
 13 12  1  0
 13 14  1  0
 14 16  1  0
 15 14  2  0
M  END
$$$$
