TGG.pdb
     RDKit          3D

 16 15  0  0  1  0  0  0  0  0999 V2000
    7.7035  -16.5941   18.5859 C   0  0  0  0  0  0  0  0  0  0  0  0
    8.4253  -15.3869   18.0275 C   0  0  1  0  0  0  0  0  0  0  0  0
    8.4024  -15.5358   16.6343 O   0  0  0  0  0  0  0  0  0  0  0  0
    7.6674  -14.1444   18.4527 C   0  0  2  0  0  0  0  0  0  0  0  0
    8.0187  -13.0638   17.5583 N   0  0  0  0  0  0  0  0  0  0  0  0
    7.9242  -13.8347   19.8614 C   0  0  0  0  0  0  0  0  0  0  0  0
    9.0045  -13.2800   20.1803 O   0  0  0  0  0  0  0  0  0  0  0  0
    7.0031  -14.1312   20.9109 N   0  0  0  0  0  0  0  0  0  0  0  0
    7.3302  -13.8010   22.2839 C   0  0  0  0  0  0  0  0  0  0  0  0
    8.0159  -14.9248   22.9632 C   0  0  0  0  0  0  0  0  0  0  0  0
    7.4229  -15.9778   23.3021 O   0  0  0  0  0  0  0  0  0  0  0  0
    9.4007  -14.7965   23.2379 N   0  0  0  0  0  0  0  0  0  0  0  0
   10.0919  -15.8700   23.9262 C   0  0  0  0  0  0  0  0  0  0  0  0
   10.9998  -16.5717   22.9677 C   0  0  0  0  0  0  0  0  0  0  0  0
   10.6794  -17.6922   22.5164 O   0  0  0  0  0  0  0  0  0  0  0  0
   12.1954  -16.0176   22.5584 O   0  0  0  0  0  0  0  0  0  0  0  0
  2  4  1  0
  2  1  1  1
  3  2  1  0
  4  5  1  6
  6  7  2  0
  6  4  1  0
  8  6  1  0
  9  8  1  0
 10 12  1  0
 10  9  1  0
 11 10  2  0
 13 12  1  0
 13 14  1  0
 14 16  1  0
 15 14  2  0
M  END
$$$$
