TGG.pdb
     RDKit          3D

 16 15  0  0  1  0  0  0  0  0999 V2000
    7.2411  -12.5076   19.6715 C   0  0  0  0  0  0  0  0  0  0  0  0
    8.2515  -13.5017   20.2017 C   0  0  1  0  0  0  0  0  0  0  0  0
    8.5086  -13.1196   21.5251 O   0  0  0  0  0  0  0  0  0  0  0  0
    7.6289  -14.8831   20.1473 C   0  0  2  0  0  0  0  0  0  0  0  0
    6.3229  -14.8228   20.7652 N   0  0  0  0  0  0  0  0  0  0  0  0
    8.5129  -15.8771   20.7613 C   0  0  0  0  0  0  0  0  0  0  0  0
    8.1628  -16.4306   21.8325 O   0  0  0  0  0  0  0  0  0  0  0  0
    9.7702  -16.2600   20.2043 N   0  0  0  0  0  0  0  0  0  0  0  0
   10.5767  -17.2752   20.8525 C   0  0  0  0  0  0  0  0  0  0  0  0
   11.2980  -16.7277   22.0249 C   0  0  0  0  0  0  0  0  0  0  0  0
   12.5466  -16.6049   22.0582 O   0  0  0  0  0  0  0  0  0  0  0  0
   10.5373  -16.3282   23.1524 N   0  0  0  0  0  0  0  0  0  0  0  0
   11.2205  -15.8341   24.3327 C   0  0  0  0  0  0  0  0  0  0  0  0
   11.9787  -16.9525   24.9728 C   0  0  0  0  0  0  0  0  0  0  0  0
   11.9565  -18.0914   24.4589 O   0  0  0  0  0  0  0  0  0  0  0  0
   12.7122  -16.7683   26.1271 O   0  0  0  0  0  0  0  0  0  0  0  0
  2  4  1  0
  2  1  1  1
  3  2  1  0
  4  5  1  1
  6  7  2  0
  6  4  1  0
  8  6  1  0
  9  8  1  0
 10 12  1  0
 10  9  1  0
 11 10  2  0
 13 12  1  0
 13 14  1  0
 14 16  1  0
 15 14  2  0
M  END
$$$$
