GSS.pdb
     RDKit          3D

 17 16  0  0  1  0  0  0  0  0999 V2000
   13.8578   -7.9127   -7.6862 N   0  0  0  0  0  0  0  0  0  0  0  0
   15.1471   -7.3028   -7.8314 C   0  0  0  0  0  0  0  0  0  0  0  0
   15.7641   -7.6457   -9.1636 C   0  0  0  0  0  0  0  0  0  0  0  0
   15.1740   -8.4254   -9.9516 O   0  0  0  0  0  0  0  0  0  0  0  0
   16.7289   -6.0336  -13.0500 O   0  0  0  0  0  0  0  0  0  0  0  0
   16.3839   -6.1507  -11.7176 C   0  0  0  0  0  0  0  0  0  0  0  0
   17.3928   -6.8901  -10.8953 C   0  0  2  0  0  0  0  0  0  0  0  0
   17.0180   -7.0850   -9.5297 N   0  0  0  0  0  0  0  0  0  0  0  0
   18.7725   -6.2984  -11.0461 C   0  0  0  0  0  0  0  0  0  0  0  0
   19.0634   -5.2679  -10.4061 O   0  0  0  0  0  0  0  0  0  0  0  0
   21.1910   -7.8728  -13.9009 O   0  0  0  0  0  0  0  0  0  0  0  0
   21.8765   -7.3305  -12.8374 C   0  0  0  0  0  0  0  0  0  0  0  0
   21.0495   -6.2541  -12.1271 C   0  0  2  0  0  0  0  0  0  0  0  0
   19.7467   -6.8611  -11.8796 N   0  0  0  0  0  0  0  0  0  0  0  0
   20.9466   -5.1109  -13.0621 C   0  0  0  0  0  0  0  0  0  0  0  0
   19.8627   -4.9634  -13.6828 O   0  0  0  0  0  0  0  0  0  0  0  0
   21.9612   -4.2181  -13.2807 O   0  0  0  0  0  0  0  0  0  0  0  0
  1  2  1  0
  2  3  1  0
  3  4  2  0
  5  6  1  0
  7  6  1  1
  7  9  1  0
  8  3  1  0
  8  7  1  0
  9 10  2  0
  9 14  1  0
 11 12  1  0
 13 12  1  6
 14 13  1  0
 15 13  1  0
 15 17  1  0
 16 15  2  0
M  END
$$$$
