GSS.pdb
     RDKit          3D

 17 16  0  0  1  0  0  0  0  0999 V2000
   17.5759  -11.7251  -15.3810 N   0  0  0  0  0  0  0  0  0  0  0  0
   17.9792  -10.9097  -16.4892 C   0  0  0  0  0  0  0  0  0  0  0  0
   18.2769   -9.4995  -16.0470 C   0  0  0  0  0  0  0  0  0  0  0  0
   19.3217   -8.9221  -16.4368 O   0  0  0  0  0  0  0  0  0  0  0  0
   15.2909   -6.8255  -14.6552 O   0  0  0  0  0  0  0  0  0  0  0  0
   16.4825   -6.8804  -13.9588 C   0  0  0  0  0  0  0  0  0  0  0  0
   17.6096   -7.4842  -14.7372 C   0  0  2  0  0  0  0  0  0  0  0  0
   17.3724   -8.8205  -15.1860 N   0  0  0  0  0  0  0  0  0  0  0  0
   18.9259   -7.3330  -14.0155 C   0  0  0  0  0  0  0  0  0  0  0  0
   19.3462   -8.2771  -13.3169 O   0  0  0  0  0  0  0  0  0  0  0  0
   23.2339   -6.8720  -14.4448 O   0  0  0  0  0  0  0  0  0  0  0  0
   21.8787   -6.9407  -14.6771 C   0  0  0  0  0  0  0  0  0  0  0  0
   21.0935   -6.0926  -13.6715 C   0  0  2  0  0  0  0  0  0  0  0  0
   19.7008   -6.1697  -14.0974 N   0  0  0  0  0  0  0  0  0  0  0  0
   21.6179   -4.7122  -13.7782 C   0  0  0  0  0  0  0  0  0  0  0  0
   21.1261   -3.9706  -14.6670 O   0  0  0  0  0  0  0  0  0  0  0  0
   22.5997   -4.2106  -12.9665 O   0  0  0  0  0  0  0  0  0  0  0  0
  1  2  1  0
  2  3  1  0
  3  4  2  0
  5  6  1  0
  7  6  1  1
  7  9  1  0
  8  3  1  0
  8  7  1  0
  9 10  2  0
  9 14  1  0
 11 12  1  0
 13 12  1  6
 14 13  1  0
 15 13  1  0
 15 17  1  0
 16 15  2  0
M  END
$$$$
