GSS.pdb
     RDKit          3D

 17 16  0  0  1  0  0  0  0  0999 V2000
   20.7625   -9.5980  -18.2439 N   0  0  0  0  0  0  0  0  0  0  0  0
   21.7694   -8.6271  -17.9292 C   0  0  0  0  0  0  0  0  0  0  0  0
   21.2299   -7.5629  -17.0077 C   0  0  0  0  0  0  0  0  0  0  0  0
   20.1594   -6.9686  -17.2867 O   0  0  0  0  0  0  0  0  0  0  0  0
   21.5009   -7.3659  -12.9007 O   0  0  0  0  0  0  0  0  0  0  0  0
   21.9946   -6.2562  -13.5586 C   0  0  0  0  0  0  0  0  0  0  0  0
   21.5376   -6.1437  -14.9796 C   0  0  2  0  0  0  0  0  0  0  0  0
   21.9346   -7.2305  -15.8188 N   0  0  0  0  0  0  0  0  0  0  0  0
   21.8765   -4.7956  -15.5662 C   0  0  0  0  0  0  0  0  0  0  0  0
   23.0592   -4.5497  -15.8771 O   0  0  0  0  0  0  0  0  0  0  0  0
   18.7970   -2.4631  -16.7034 O   0  0  0  0  0  0  0  0  0  0  0  0
   19.9890   -2.2905  -17.3701 C   0  0  0  0  0  0  0  0  0  0  0  0
   21.1879   -2.5367  -16.4487 C   0  0  2  0  0  0  0  0  0  0  0  0
   20.9127   -3.8021  -15.7779 N   0  0  0  0  0  0  0  0  0  0  0  0
   21.2247   -1.4104  -15.4885 C   0  0  0  0  0  0  0  0  0  0  0  0
   20.9549   -1.6625  -14.2862 O   0  0  0  0  0  0  0  0  0  0  0  0
   21.5342   -0.1244  -15.8417 O   0  0  0  0  0  0  0  0  0  0  0  0
  1  2  1  0
  2  3  1  0
  3  4  2  0
  5  6  1  0
  7  6  1  1
  7  9  1  0
  8  3  1  0
  8  7  1  0
  9 10  2  0
  9 14  1  0
 11 12  1  0
 13 12  1  6
 14 13  1  0
 15 13  1  0
 15 17  1  0
 16 15  2  0
M  END
$$$$
