GSS.pdb
     RDKit          3D

 17 16  0  0  1  0  0  0  0  0999 V2000
   20.5396  -10.5611  -17.7742 N   0  0  0  0  0  0  0  0  0  0  0  0
   21.6040   -9.6794  -17.3932 C   0  0  0  0  0  0  0  0  0  0  0  0
   21.0833   -8.5116  -16.5944 C   0  0  0  0  0  0  0  0  0  0  0  0
   20.3212   -7.6692  -17.1298 O   0  0  0  0  0  0  0  0  0  0  0  0
   20.3680   -8.3581  -12.4484 O   0  0  0  0  0  0  0  0  0  0  0  0
   21.2101   -7.3999  -12.9782 C   0  0  0  0  0  0  0  0  0  0  0  0
   21.0694   -7.2240  -14.4581 C   0  0  2  0  0  0  0  0  0  0  0  0
   21.4558   -8.3628  -15.2307 N   0  0  0  0  0  0  0  0  0  0  0  0
   21.7206   -5.9472  -14.9293 C   0  0  0  0  0  0  0  0  0  0  0  0
   22.9557   -5.9248  -15.1030 O   0  0  0  0  0  0  0  0  0  0  0  0
   19.2947   -2.9895  -16.2001 O   0  0  0  0  0  0  0  0  0  0  0  0
   20.5660   -3.0169  -16.7275 C   0  0  0  0  0  0  0  0  0  0  0  0
   21.5818   -3.5558  -15.7152 C   0  0  2  0  0  0  0  0  0  0  0  0
   20.9921   -4.7784  -15.1818 N   0  0  0  0  0  0  0  0  0  0  0  0
   21.7270   -2.5211  -14.6664 C   0  0  0  0  0  0  0  0  0  0  0  0
   21.3026   -2.7969  -13.5150 O   0  0  0  0  0  0  0  0  0  0  0  0
   22.2937   -1.2944  -14.8867 O   0  0  0  0  0  0  0  0  0  0  0  0
  1  2  1  0
  2  3  1  0
  3  4  2  0
  5  6  1  0
  7  6  1  1
  7  9  1  0
  8  3  1  0
  8  7  1  0
  9 10  2  0
  9 14  1  0
 11 12  1  0
 13 12  1  6
 14 13  1  0
 15 13  1  0
 15 17  1  0
 16 15  2  0
M  END
$$$$
