GSS.pdb
     RDKit          3D

 17 16  0  0  1  0  0  0  0  0999 V2000
   18.1977  -11.6026  -17.3757 N   0  0  0  0  0  0  0  0  0  0  0  0
   17.6435  -11.1097  -16.1487 C   0  0  0  0  0  0  0  0  0  0  0  0
   18.6808  -10.3716  -15.3411 C   0  0  0  0  0  0  0  0  0  0  0  0
   18.3895   -9.9075  -14.2111 O   0  0  0  0  0  0  0  0  0  0  0  0
   23.3410   -9.3688  -14.5610 O   0  0  0  0  0  0  0  0  0  0  0  0
   22.3732  -10.0821  -15.2410 C   0  0  0  0  0  0  0  0  0  0  0  0
   21.0040   -9.4846  -15.1458 C   0  0  2  0  0  0  0  0  0  0  0  0
   19.9931  -10.2000  -15.8597 N   0  0  0  0  0  0  0  0  0  0  0  0
   21.0182   -8.0109  -15.4685 C   0  0  0  0  0  0  0  0  0  0  0  0
   21.0750   -7.6520  -16.6618 O   0  0  0  0  0  0  0  0  0  0  0  0
   18.7158   -5.4544  -15.1911 O   0  0  0  0  0  0  0  0  0  0  0  0
   19.7198   -4.9977  -14.3674 C   0  0  0  0  0  0  0  0  0  0  0  0
   21.0771   -5.5941  -14.7535 C   0  0  2  0  0  0  0  0  0  0  0  0
   20.9698   -7.0222  -14.4782 N   0  0  0  0  0  0  0  0  0  0  0  0
   22.0878   -4.9486  -13.8855 C   0  0  0  0  0  0  0  0  0  0  0  0
   22.5593   -5.6280  -12.9379 O   0  0  0  0  0  0  0  0  0  0  0  0
   22.5281   -3.6643  -14.0622 O   0  0  0  0  0  0  0  0  0  0  0  0
  1  2  1  0
  2  3  1  0
  3  4  2  0
  5  6  1  0
  7  6  1  6
  7  9  1  0
  8  3  1  0
  8  7  1  0
  9 10  2  0
  9 14  1  0
 11 12  1  0
 13 12  1  1
 14 13  1  0
 15 13  1  0
 15 17  1  0
 16 15  2  0
M  END
$$$$
