DQH.pdb
     RDKit          3D

 28 28  0  0  1  0  0  0  0  0999 V2000
    8.7977  -19.3245   15.1056 N   0  0  0  0  0  0  0  0  0  0  0  0
    9.3647  -18.2250   15.8311 C   0  0  1  0  0  0  0  0  0  0  0  0
    9.2192  -16.9262   15.0318 C   0  0  0  0  0  0  0  0  0  0  0  0
   10.2016  -16.9013   13.9168 C   0  0  0  0  0  0  0  0  0  0  0  0
   10.9569  -17.8488   13.6660 O   0  0  0  0  0  0  0  0  0  0  0  0
    8.8097  -18.0686   17.1943 C   0  0  0  0  0  0  0  0  0  0  0  0
    7.6798  -17.5473   17.3431 O   0  0  0  0  0  0  0  0  0  0  0  0
   10.2814  -15.7657   13.1151 O   0  0  0  0  0  0  0  0  0  0  0  0
    9.8991  -22.0939   21.6006 N   0  0  0  0  0  0  0  0  0  0  0  0
   10.9973  -21.3983   21.0040 C   0  0  0  0  0  0  0  0  0  0  0  0
   12.1271  -21.9142   21.1250 O   0  0  0  0  0  0  0  0  0  0  0  0
   10.7138  -20.1359   20.2955 C   0  0  0  0  0  0  0  0  0  0  0  0
    9.2557  -19.7591   20.2995 C   0  0  0  0  0  0  0  0  0  0  0  0
    9.0547  -18.4174   19.6771 C   0  0  2  0  0  0  0  0  0  0  0  0
    9.5318  -18.4952   18.3104 N   0  0  0  0  0  0  0  0  0  0  0  0
    9.7432  -17.3331   20.4290 C   0  0  0  0  0  0  0  0  0  0  0  0
   10.9324  -17.0389   20.1645 O   0  0  0  0  0  0  0  0  0  0  0  0
    9.0629  -16.6314   21.4417 N   0  0  0  0  0  0  0  0  0  0  0  0
    9.5819  -15.4742   22.1152 C   0  0  1  0  0  0  0  0  0  0  0  0
    8.5799  -14.3396   22.1513 C   0  0  0  0  0  0  0  0  0  0  0  0
    8.2270  -13.8606   20.7930 C   0  0  0  0  0  0  0  0  0  0  0  0
    6.9538  -13.5344   20.3314 C   0  0  0  0  0  0  0  0  0  0  0  0
    7.0514  -13.1485   19.0657 N   0  0  0  0  0  0  0  0  0  0  0  0
    8.3244  -13.2091   18.6865 C   0  0  0  0  0  0  0  0  0  0  0  0
    9.0351  -13.6454   19.7490 N   0  0  0  0  0  0  0  0  0  0  0  0
   10.0040  -15.8582   23.4780 C   0  0  0  0  0  0  0  0  0  0  0  0
   10.6457  -14.9294   24.2755 O   0  0  0  0  0  0  0  0  0  0  0  0
    9.8119  -16.9939   23.9615 O   0  0  0  0  0  0  0  0  0  0  0  0
  2  1  1  6
  3  2  1  0
  3  4  1  0
  4  5  2  0
  6  2  1  0
  6  7  2  0
  8  4  1  0
  9 10  1  0
 10 12  1  0
 11 10  2  0
 12 13  1  0
 14 13  1  1
 14 15  1  0
 15  6  1  0
 16 14  1  0
 17 16  2  0
 18 16  1  0
 19 18  1  0
 19 26  1  0
 19 20  1  1
 21 25  1  0
 21 20  1  0
 22 21  2  0
 23 22  1  0
 23 24  1  0
 24 25  2  0
 26 27  1  0
 28 26  2  0
M  END
$$$$
