DQH.pdb
     RDKit          3D

 28 28  0  0  1  0  0  0  0  0999 V2000
    9.4815  -17.6390   16.5952 N   0  0  0  0  0  0  0  0  0  0  0  0
   10.8567  -17.3382   16.8693 C   0  0  1  0  0  0  0  0  0  0  0  0
   11.5061  -16.6593   15.6591 C   0  0  0  0  0  0  0  0  0  0  0  0
   11.6466  -17.6318   14.5440 C   0  0  0  0  0  0  0  0  0  0  0  0
   11.0758  -17.4918   13.4550 O   0  0  0  0  0  0  0  0  0  0  0  0
   11.0512  -16.5290   18.0933 C   0  0  0  0  0  0  0  0  0  0  0  0
   12.2132  -16.3082   18.5073 O   0  0  0  0  0  0  0  0  0  0  0  0
   12.4539  -18.7517   14.7250 O   0  0  0  0  0  0  0  0  0  0  0  0
    6.5578  -12.8839   19.8560 N   0  0  0  0  0  0  0  0  0  0  0  0
    7.2284  -13.1541   18.6218 C   0  0  0  0  0  0  0  0  0  0  0  0
    6.6894  -12.7287   17.5797 O   0  0  0  0  0  0  0  0  0  0  0  0
    8.4959  -13.9068   18.6736 C   0  0  0  0  0  0  0  0  0  0  0  0
    8.8929  -14.3197   20.0664 C   0  0  0  0  0  0  0  0  0  0  0  0
   10.0441  -15.2690   20.0284 C   0  0  2  0  0  0  0  0  0  0  0  0
    9.9553  -16.0122   18.7868 N   0  0  0  0  0  0  0  0  0  0  0  0
   10.0675  -16.1815   21.2039 C   0  0  0  0  0  0  0  0  0  0  0  0
    9.4190  -17.2537   21.1832 O   0  0  0  0  0  0  0  0  0  0  0  0
   10.8181  -15.8457   22.3461 N   0  0  0  0  0  0  0  0  0  0  0  0
   10.9320  -16.6738   23.5137 C   0  0  1  0  0  0  0  0  0  0  0  0
   12.3268  -16.6399   24.1018 C   0  0  0  0  0  0  0  0  0  0  0  0
   13.3001  -17.3980   23.2791 C   0  0  0  0  0  0  0  0  0  0  0  0
   13.0023  -18.3260   22.2837 C   0  0  0  0  0  0  0  0  0  0  0  0
   14.1417  -18.7845   21.7818 N   0  0  0  0  0  0  0  0  0  0  0  0
   15.1609  -18.1990   22.4034 C   0  0  0  0  0  0  0  0  0  0  0  0
   14.6364  -17.3533   23.3167 N   0  0  0  0  0  0  0  0  0  0  0  0
    9.9229  -16.2497   24.5061 C   0  0  0  0  0  0  0  0  0  0  0  0
    9.7431  -17.0002   25.6527 O   0  0  0  0  0  0  0  0  0  0  0  0
    9.2091  -15.2339   24.3678 O   0  0  0  0  0  0  0  0  0  0  0  0
  2  1  1  6
  3  2  1  0
  3  4  1  0
  4  5  2  0
  6  2  1  0
  6  7  2  0
  8  4  1  0
  9 10  1  0
 10 12  1  0
 11 10  2  0
 12 13  1  0
 14 13  1  1
 14 15  1  0
 15  6  1  0
 16 14  1  0
 17 16  2  0
 18 16  1  0
 19 18  1  0
 19 26  1  0
 19 20  1  1
 21 25  1  0
 21 20  1  0
 22 21  2  0
 23 22  1  0
 23 24  1  0
 24 25  2  0
 26 27  1  0
 28 26  2  0
M  END
$$$$
