DQH.pdb
     RDKit          3D

 28 28  0  0  1  0  0  0  0  0999 V2000
    9.3922  -17.0948   17.0900 N   0  0  0  0  0  0  0  0  0  0  0  0
   10.2331  -17.5613   18.1540 C   0  0  1  0  0  0  0  0  0  0  0  0
   11.6703  -17.0701   17.9531 C   0  0  0  0  0  0  0  0  0  0  0  0
   12.2961  -17.7804   16.8074 C   0  0  0  0  0  0  0  0  0  0  0  0
   11.9792  -18.9297   16.4757 O   0  0  0  0  0  0  0  0  0  0  0  0
    9.7369  -17.1990   19.5005 C   0  0  0  0  0  0  0  0  0  0  0  0
   10.2750  -16.2525   20.1211 O   0  0  0  0  0  0  0  0  0  0  0  0
   13.2828  -17.1309   16.0703 O   0  0  0  0  0  0  0  0  0  0  0  0
    4.3461  -19.5093   21.8366 N   0  0  0  0  0  0  0  0  0  0  0  0
    4.8080  -18.6981   22.9204 C   0  0  0  0  0  0  0  0  0  0  0  0
    4.0619  -18.6060   23.9165 O   0  0  0  0  0  0  0  0  0  0  0  0
    6.1201  -18.0389   22.7807 C   0  0  0  0  0  0  0  0  0  0  0  0
    6.7875  -18.3035   21.4569 C   0  0  0  0  0  0  0  0  0  0  0  0
    8.0927  -17.5845   21.3698 C   0  0  2  0  0  0  0  0  0  0  0  0
    8.6789  -17.9001   20.0820 N   0  0  0  0  0  0  0  0  0  0  0  0
    9.0129  -17.9400   22.4841 C   0  0  0  0  0  0  0  0  0  0  0  0
    9.6353  -19.0276   22.4657 O   0  0  0  0  0  0  0  0  0  0  0  0
    9.1897  -17.0568   23.5656 N   0  0  0  0  0  0  0  0  0  0  0  0
   10.0429  -17.3144   24.6916 C   0  0  1  0  0  0  0  0  0  0  0  0
   11.1069  -16.2495   24.8547 C   0  0  0  0  0  0  0  0  0  0  0  0
   12.1384  -16.3208   23.7918 C   0  0  0  0  0  0  0  0  0  0  0  0
   12.2017  -17.2502   22.7560 C   0  0  0  0  0  0  0  0  0  0  0  0
   13.2691  -16.9820   22.0150 N   0  0  0  0  0  0  0  0  0  0  0  0
   13.8986  -15.9255   22.5204 C   0  0  0  0  0  0  0  0  0  0  0  0
   13.2000  -15.5285   23.6062 N   0  0  0  0  0  0  0  0  0  0  0  0
    9.2133  -17.4321   25.9083 C   0  0  0  0  0  0  0  0  0  0  0  0
    7.8569  -17.1781   25.8307 O   0  0  0  0  0  0  0  0  0  0  0  0
    9.6735  -17.7535   27.0243 O   0  0  0  0  0  0  0  0  0  0  0  0
  2  1  1  6
  3  2  1  0
  3  4  1  0
  4  5  2  0
  6  2  1  0
  6  7  2  0
  8  4  1  0
  9 10  1  0
 10 12  1  0
 11 10  2  0
 12 13  1  0
 14 13  1  1
 14 15  1  0
 15  6  1  0
 16 14  1  0
 17 16  2  0
 18 16  1  0
 19 18  1  0
 19 26  1  0
 19 20  1  1
 21 25  1  0
 21 20  1  0
 22 21  2  0
 23 22  1  0
 23 24  1  0
 24 25  2  0
 26 27  1  0
 28 26  2  0
M  END
$$$$
