DQH.pdb
     RDKit          3D

 28 28  0  0  1  0  0  0  0  0999 V2000
   15.2338  -14.1072   15.5769 N   0  0  0  0  0  0  0  0  0  0  0  0
   14.5708  -15.1611   16.2886 C   0  0  1  0  0  0  0  0  0  0  0  0
   15.5561  -16.2887   16.6125 C   0  0  0  0  0  0  0  0  0  0  0  0
   16.1914  -16.7845   15.3638 C   0  0  0  0  0  0  0  0  0  0  0  0
   15.5407  -17.1117   14.3634 O   0  0  0  0  0  0  0  0  0  0  0  0
   13.8770  -14.7013   17.5126 C   0  0  0  0  0  0  0  0  0  0  0  0
   14.4651  -13.9213   18.2976 O   0  0  0  0  0  0  0  0  0  0  0  0
   17.5789  -16.8882   15.3096 O   0  0  0  0  0  0  0  0  0  0  0  0
    7.7398  -14.5479   17.9384 N   0  0  0  0  0  0  0  0  0  0  0  0
    8.6001  -13.5043   17.4729 C   0  0  0  0  0  0  0  0  0  0  0  0
    8.0643  -12.5635   16.8524 O   0  0  0  0  0  0  0  0  0  0  0  0
   10.0425  -13.6170   17.7603 C   0  0  0  0  0  0  0  0  0  0  0  0
   10.3892  -14.7848   18.6458 C   0  0  0  0  0  0  0  0  0  0  0  0
   11.8406  -14.7718   18.9938 C   0  0  2  0  0  0  0  0  0  0  0  0
   12.5786  -15.1277   17.7979 N   0  0  0  0  0  0  0  0  0  0  0  0
   12.1631  -15.6887   20.1208 C   0  0  0  0  0  0  0  0  0  0  0  0
   12.3583  -16.9079   19.9061 O   0  0  0  0  0  0  0  0  0  0  0  0
   12.2510  -15.1922   21.4348 N   0  0  0  0  0  0  0  0  0  0  0  0
   12.6368  -15.9768   22.5739 C   0  0  1  0  0  0  0  0  0  0  0  0
   13.6415  -15.2559   23.4477 C   0  0  0  0  0  0  0  0  0  0  0  0
   14.9837  -15.1903   22.8208 C   0  0  0  0  0  0  0  0  0  0  0  0
   15.3727  -15.7895   21.6249 C   0  0  0  0  0  0  0  0  0  0  0  0
   16.6483  -15.4986   21.4042 N   0  0  0  0  0  0  0  0  0  0  0  0
   17.1028  -14.7412   22.3980 C   0  0  0  0  0  0  0  0  0  0  0  0
   16.0781  -14.5582   23.2589 N   0  0  0  0  0  0  0  0  0  0  0  0
   11.4273  -16.3423   23.3397 C   0  0  0  0  0  0  0  0  0  0  0  0
   11.5420  -17.1967   24.4202 O   0  0  0  0  0  0  0  0  0  0  0  0
   10.2857  -15.9171   23.0636 O   0  0  0  0  0  0  0  0  0  0  0  0
  2  1  1  1
  3  2  1  0
  3  4  1  0
  4  5  2  0
  6  2  1  0
  6  7  2  0
  8  4  1  0
  9 10  1  0
 10 12  1  0
 11 10  2  0
 12 13  1  0
 14 13  1  6
 14 15  1  0
 15  6  1  0
 16 14  1  0
 17 16  2  0
 18 16  1  0
 19 18  1  0
 19 26  1  0
 19 20  1  1
 21 25  1  0
 21 20  1  0
 22 21  2  0
 23 22  1  0
 23 24  1  0
 24 25  2  0
 26 27  1  0
 28 26  2  0
M  END
$$$$
