DQH.pdb
     RDKit          3D

 28 28  0  0  1  0  0  0  0  0999 V2000
   11.8908  -15.1775   17.7179 N   0  0  0  0  0  0  0  0  0  0  0  0
   12.3320  -15.5587   19.0282 C   0  0  1  0  0  0  0  0  0  0  0  0
   13.2276  -14.4698   19.6277 C   0  0  0  0  0  0  0  0  0  0  0  0
   14.5124  -14.4001   18.8838 C   0  0  0  0  0  0  0  0  0  0  0  0
   14.7959  -15.1724   17.9594 O   0  0  0  0  0  0  0  0  0  0  0  0
   11.2234  -15.8942   19.9498 C   0  0  0  0  0  0  0  0  0  0  0  0
   10.1969  -15.1755   19.9657 O   0  0  0  0  0  0  0  0  0  0  0  0
   15.4426  -13.4261   19.2366 O   0  0  0  0  0  0  0  0  0  0  0  0
   10.7661  -21.4966   22.7789 N   0  0  0  0  0  0  0  0  0  0  0  0
    9.6020  -20.8261   23.2699 C   0  0  0  0  0  0  0  0  0  0  0  0
    8.8347  -21.4857   24.0003 O   0  0  0  0  0  0  0  0  0  0  0  0
    9.3990  -19.4178   22.8808 C   0  0  0  0  0  0  0  0  0  0  0  0
   10.4883  -18.8769   21.9928 C   0  0  0  0  0  0  0  0  0  0  0  0
   10.2617  -17.4312   21.6988 C   0  0  2  0  0  0  0  0  0  0  0  0
   11.3121  -16.9999   20.7976 N   0  0  0  0  0  0  0  0  0  0  0  0
   10.2318  -16.5983   22.9319 C   0  0  0  0  0  0  0  0  0  0  0  0
   11.2991  -16.1691   23.4292 O   0  0  0  0  0  0  0  0  0  0  0  0
    9.0047  -16.2876   23.5470 N   0  0  0  0  0  0  0  0  0  0  0  0
    8.8231  -15.2372   24.5091 C   0  0  1  0  0  0  0  0  0  0  0  0
    7.4470  -14.6124   24.4167 C   0  0  0  0  0  0  0  0  0  0  0  0
    7.2169  -13.6045   25.4797 C   0  0  0  0  0  0  0  0  0  0  0  0
    8.0778  -13.2923   26.5295 C   0  0  0  0  0  0  0  0  0  0  0  0
    7.5162  -12.3418   27.2655 N   0  0  0  0  0  0  0  0  0  0  0  0
    6.3353  -12.0243   26.7434 C   0  0  0  0  0  0  0  0  0  0  0  0
    6.1613  -12.8013   25.6523 N   0  0  0  0  0  0  0  0  0  0  0  0
    9.0770  -15.7734   25.8622 C   0  0  0  0  0  0  0  0  0  0  0  0
    9.0450  -17.1401   26.0664 O   0  0  0  0  0  0  0  0  0  0  0  0
    9.3236  -15.0514   26.8514 O   0  0  0  0  0  0  0  0  0  0  0  0
  2  1  1  6
  3  2  1  0
  3  4  1  0
  4  5  2  0
  6  2  1  0
  6  7  2  0
  8  4  1  0
  9 10  1  0
 10 12  1  0
 11 10  2  0
 12 13  1  0
 14 13  1  1
 14 15  1  0
 15  6  1  0
 16 14  1  0
 17 16  2  0
 18 16  1  0
 19 18  1  0
 19 26  1  0
 19 20  1  1
 21 25  1  0
 21 20  1  0
 22 21  2  0
 23 22  1  0
 23 24  1  0
 24 25  2  0
 26 27  1  0
 28 26  2  0
M  END
$$$$
