DQH.pdb
     RDKit          3D

 28 28  0  0  1  0  0  0  0  0999 V2000
    8.6829  -20.0348   19.7008 N   0  0  0  0  0  0  0  0  0  0  0  0
    8.0893  -19.1661   20.6754 C   0  0  1  0  0  0  0  0  0  0  0  0
    8.1797  -19.7897   22.0719 C   0  0  0  0  0  0  0  0  0  0  0  0
    7.7041  -21.1972   22.0331 C   0  0  0  0  0  0  0  0  0  0  0  0
    6.6886  -21.5462   21.4182 O   0  0  0  0  0  0  0  0  0  0  0  0
    8.6578  -17.7995   20.6720 C   0  0  0  0  0  0  0  0  0  0  0  0
    9.8770  -17.6403   20.4299 O   0  0  0  0  0  0  0  0  0  0  0  0
    8.4275  -22.1714   22.7160 O   0  0  0  0  0  0  0  0  0  0  0  0
    8.1776  -13.7148   18.0777 N   0  0  0  0  0  0  0  0  0  0  0  0
    8.2529  -12.7302   19.1125 C   0  0  0  0  0  0  0  0  0  0  0  0
    8.8844  -11.6852   18.8548 O   0  0  0  0  0  0  0  0  0  0  0  0
    7.5830  -13.0210   20.3941 C   0  0  0  0  0  0  0  0  0  0  0  0
    7.1555  -14.4580   20.5361 C   0  0  0  0  0  0  0  0  0  0  0  0
    8.3116  -15.3173   20.9274 C   0  0  2  0  0  0  0  0  0  0  0  0
    7.8501  -16.6916   20.9350 N   0  0  0  0  0  0  0  0  0  0  0  0
    8.8853  -14.9326   22.2456 C   0  0  0  0  0  0  0  0  0  0  0  0
    9.4092  -13.8047   22.4006 O   0  0  0  0  0  0  0  0  0  0  0  0
    8.8431  -15.8332   23.3263 N   0  0  0  0  0  0  0  0  0  0  0  0
    9.2095  -15.4999   24.6742 C   0  0  1  0  0  0  0  0  0  0  0  0
    8.0405  -15.6228   25.6287 C   0  0  0  0  0  0  0  0  0  0  0  0
    7.1888  -14.4089   25.6304 C   0  0  0  0  0  0  0  0  0  0  0  0
    7.4413  -13.2154   24.9578 C   0  0  0  0  0  0  0  0  0  0  0  0
    6.4473  -12.3731   25.2083 N   0  0  0  0  0  0  0  0  0  0  0  0
    5.5650  -12.9630   26.0093 C   0  0  0  0  0  0  0  0  0  0  0  0
    6.0270  -14.2069   26.2617 N   0  0  0  0  0  0  0  0  0  0  0  0
   10.3354  -16.3592   25.0944 C   0  0  0  0  0  0  0  0  0  0  0  0
   10.8603  -16.2151   26.3649 O   0  0  0  0  0  0  0  0  0  0  0  0
   10.8510  -17.2247   24.3557 O   0  0  0  0  0  0  0  0  0  0  0  0
  2  1  1  6
  3  2  1  0
  3  4  1  0
  4  5  2  0
  6  2  1  0
  6  7  2  0
  8  4  1  0
  9 10  1  0
 10 12  1  0
 11 10  2  0
 12 13  1  0
 14 13  1  1
 14 15  1  0
 15  6  1  0
 16 14  1  0
 17 16  2  0
 18 16  1  0
 19 18  1  0
 19 26  1  0
 19 20  1  1
 21 25  1  0
 21 20  1  0
 22 21  2  0
 23 22  1  0
 23 24  1  0
 24 25  2  0
 26 27  1  0
 28 26  2  0
M  END
$$$$
