DQH.pdb
     RDKit          3D

 28 28  0  0  1  0  0  0  0  0999 V2000
    9.6450  -18.2529   17.7180 N   0  0  0  0  0  0  0  0  0  0  0  0
   10.7444  -17.3649   17.4740 C   0  0  1  0  0  0  0  0  0  0  0  0
   10.6544  -16.7796   16.0610 C   0  0  0  0  0  0  0  0  0  0  0  0
   10.5660  -17.8750   15.0605 C   0  0  0  0  0  0  0  0  0  0  0  0
   11.1739  -18.9460   15.1818 O   0  0  0  0  0  0  0  0  0  0  0  0
   10.8684  -16.2883   18.4822 C   0  0  0  0  0  0  0  0  0  0  0  0
   11.8624  -15.5259   18.4500 O   0  0  0  0  0  0  0  0  0  0  0  0
    9.7662  -17.6957   13.9349 O   0  0  0  0  0  0  0  0  0  0  0  0
    6.6870  -12.5743   20.1054 N   0  0  0  0  0  0  0  0  0  0  0  0
    7.4389  -12.8985   18.9326 C   0  0  0  0  0  0  0  0  0  0  0  0
    7.0711  -12.3742   17.8615 O   0  0  0  0  0  0  0  0  0  0  0  0
    8.5829  -13.8183   19.0767 C   0  0  0  0  0  0  0  0  0  0  0  0
    8.8172  -14.2684   20.4946 C   0  0  0  0  0  0  0  0  0  0  0  0
    9.9923  -15.1854   20.5709 C   0  0  2  0  0  0  0  0  0  0  0  0
    9.8911  -16.1165   19.4643 N   0  0  0  0  0  0  0  0  0  0  0  0
   10.0714  -15.9008   21.8735 C   0  0  0  0  0  0  0  0  0  0  0  0
    9.0356  -16.3724   22.3982 O   0  0  0  0  0  0  0  0  0  0  0  0
   11.3102  -16.0522   22.5242 N   0  0  0  0  0  0  0  0  0  0  0  0
   11.4850  -16.6979   23.7948 C   0  0  1  0  0  0  0  0  0  0  0  0
   11.0308  -18.1420   23.7666 C   0  0  0  0  0  0  0  0  0  0  0  0
   11.6010  -18.8862   22.6178 C   0  0  0  0  0  0  0  0  0  0  0  0
   12.3715  -18.3572   21.5847 C   0  0  0  0  0  0  0  0  0  0  0  0
   12.6896  -19.3398   20.7518 N   0  0  0  0  0  0  0  0  0  0  0  0
   12.1631  -20.4774   21.1953 C   0  0  0  0  0  0  0  0  0  0  0  0
   11.4996  -20.1899   22.3362 N   0  0  0  0  0  0  0  0  0  0  0  0
   12.9019  -16.5910   24.1994 C   0  0  0  0  0  0  0  0  0  0  0  0
   13.3098  -17.1537   25.3941 O   0  0  0  0  0  0  0  0  0  0  0  0
   13.7697  -16.0112   23.5128 O   0  0  0  0  0  0  0  0  0  0  0  0
  2  1  1  1
  3  2  1  0
  3  4  1  0
  4  5  2  0
  6  2  1  0
  6  7  2  0
  8  4  1  0
  9 10  1  0
 10 12  1  0
 11 10  2  0
 12 13  1  0
 14 13  1  1
 14 15  1  0
 15  6  1  0
 16 14  1  0
 17 16  2  0
 18 16  1  0
 19 18  1  0
 19 26  1  0
 19 20  1  6
 21 25  1  0
 21 20  1  0
 22 21  2  0
 23 22  1  0
 23 24  1  0
 24 25  2  0
 26 27  1  0
 28 26  2  0
M  END
$$$$
