DQH.pdb
     RDKit          3D

 28 28  0  0  1  0  0  0  0  0999 V2000
   15.5509  -13.7639   17.0874 N   0  0  0  0  0  0  0  0  0  0  0  0
   14.4120  -14.6292   17.1923 C   0  0  1  0  0  0  0  0  0  0  0  0
   14.8513  -16.0964   17.1568 C   0  0  0  0  0  0  0  0  0  0  0  0
   15.5319  -16.3935   15.8694 C   0  0  0  0  0  0  0  0  0  0  0  0
   15.0223  -16.1494   14.7684 O   0  0  0  0  0  0  0  0  0  0  0  0
   13.5739  -14.3599   18.3822 C   0  0  0  0  0  0  0  0  0  0  0  0
   14.1244  -14.1416   19.4866 O   0  0  0  0  0  0  0  0  0  0  0  0
   16.7983  -16.9716   15.8950 O   0  0  0  0  0  0  0  0  0  0  0  0
    7.4486  -12.9140   18.2044 N   0  0  0  0  0  0  0  0  0  0  0  0
    7.6499  -13.1637   19.5983 C   0  0  0  0  0  0  0  0  0  0  0  0
    6.7001  -12.9000   20.3636 O   0  0  0  0  0  0  0  0  0  0  0  0
    8.9526  -13.7107   20.0220 C   0  0  0  0  0  0  0  0  0  0  0  0
    9.9497  -13.8258   18.8993 C   0  0  0  0  0  0  0  0  0  0  0  0
   11.2782  -14.2693   19.4155 C   0  0  2  0  0  0  0  0  0  0  0  0
   12.1813  -14.3472   18.2842 N   0  0  0  0  0  0  0  0  0  0  0  0
   11.2026  -15.5686   20.1372 C   0  0  0  0  0  0  0  0  0  0  0  0
   11.4592  -16.6390   19.5379 O   0  0  0  0  0  0  0  0  0  0  0  0
   10.8425  -15.6033   21.4974 N   0  0  0  0  0  0  0  0  0  0  0  0
   11.5017  -16.4041   22.4904 C   0  0  1  0  0  0  0  0  0  0  0  0
   13.0033  -16.2109   22.4723 C   0  0  0  0  0  0  0  0  0  0  0  0
   13.7026  -17.3211   21.7815 C   0  0  0  0  0  0  0  0  0  0  0  0
   13.1693  -18.1596   20.8051 C   0  0  0  0  0  0  0  0  0  0  0  0
   14.1060  -19.0237   20.4355 N   0  0  0  0  0  0  0  0  0  0  0  0
   15.2179  -18.7852   21.1245 C   0  0  0  0  0  0  0  0  0  0  0  0
   14.9615  -17.7429   21.9445 N   0  0  0  0  0  0  0  0  0  0  0  0
   10.9378  -16.0862   23.8185 C   0  0  0  0  0  0  0  0  0  0  0  0
   11.3849  -16.7789   24.9279 O   0  0  0  0  0  0  0  0  0  0  0  0
   10.0644  -15.2121   24.0018 O   0  0  0  0  0  0  0  0  0  0  0  0
  2  1  1  1
  3  2  1  0
  3  4  1  0
  4  5  2  0
  6  2  1  0
  6  7  2  0
  8  4  1  0
  9 10  1  0
 10 12  1  0
 11 10  2  0
 12 13  1  0
 14 13  1  6
 14 15  1  0
 15  6  1  0
 16 14  1  0
 17 16  2  0
 18 16  1  0
 19 18  1  0
 19 26  1  0
 19 20  1  1
 21 25  1  0
 21 20  1  0
 22 21  2  0
 23 22  1  0
 23 24  1  0
 24 25  2  0
 26 27  1  0
 28 26  2  0
M  END
$$$$
