DQH.pdb
     RDKit          3D

 28 28  0  0  1  0  0  0  0  0999 V2000
   10.7871  -19.0181   15.9159 N   0  0  0  0  0  0  0  0  0  0  0  0
   11.8982  -18.2769   16.4383 C   0  0  1  0  0  0  0  0  0  0  0  0
   12.2610  -17.1243   15.4965 C   0  0  0  0  0  0  0  0  0  0  0  0
   12.7203  -17.6602   14.1887 C   0  0  0  0  0  0  0  0  0  0  0  0
   12.6638  -18.8618   13.8981 O   0  0  0  0  0  0  0  0  0  0  0  0
   11.6818  -17.7818   17.8163 C   0  0  0  0  0  0  0  0  0  0  0  0
   12.6118  -17.1883   18.4105 O   0  0  0  0  0  0  0  0  0  0  0  0
   13.2381  -16.7781   13.2439 O   0  0  0  0  0  0  0  0  0  0  0  0
    5.9652  -18.0662   20.1678 N   0  0  0  0  0  0  0  0  0  0  0  0
    6.5643  -18.3963   18.9116 C   0  0  0  0  0  0  0  0  0  0  0  0
    5.8005  -18.7872   18.0054 O   0  0  0  0  0  0  0  0  0  0  0  0
    8.0264  -18.2496   18.7827 C   0  0  0  0  0  0  0  0  0  0  0  0
    8.6727  -17.6003   19.9779 C   0  0  0  0  0  0  0  0  0  0  0  0
   10.1529  -17.5230   19.8017 C   0  0  2  0  0  0  0  0  0  0  0  0
   10.4554  -17.9702   18.4562 N   0  0  0  0  0  0  0  0  0  0  0  0
   10.8888  -18.3256   20.8162 C   0  0  0  0  0  0  0  0  0  0  0  0
   10.4934  -19.4758   21.1185 O   0  0  0  0  0  0  0  0  0  0  0  0
   12.0334  -17.7977   21.4423 N   0  0  0  0  0  0  0  0  0  0  0  0
   13.2171  -18.5545   21.7388 C   0  0  1  0  0  0  0  0  0  0  0  0
   13.8088  -19.1941   20.5004 C   0  0  0  0  0  0  0  0  0  0  0  0
   13.4332  -20.6230   20.3741 C   0  0  0  0  0  0  0  0  0  0  0  0
   12.6130  -21.3463   21.2372 C   0  0  0  0  0  0  0  0  0  0  0  0
   12.5191  -22.5899   20.7844 N   0  0  0  0  0  0  0  0  0  0  0  0
   13.2377  -22.7062   19.6717 C   0  0  0  0  0  0  0  0  0  0  0  0
   13.7925  -21.4988   19.4291 N   0  0  0  0  0  0  0  0  0  0  0  0
   14.1979  -17.6740   22.4063 C   0  0  0  0  0  0  0  0  0  0  0  0
   15.1800  -18.2340   23.2015 O   0  0  0  0  0  0  0  0  0  0  0  0
   14.1922  -16.4300   22.2927 O   0  0  0  0  0  0  0  0  0  0  0  0
  2  1  1  6
  3  2  1  0
  3  4  1  0
  4  5  2  0
  6  2  1  0
  6  7  2  0
  8  4  1  0
  9 10  1  0
 10 12  1  0
 11 10  2  0
 12 13  1  0
 14 13  1  1
 14 15  1  0
 15  6  1  0
 16 14  1  0
 17 16  2  0
 18 16  1  0
 19 18  1  0
 19 26  1  0
 19 20  1  6
 21 25  1  0
 21 20  1  0
 22 21  2  0
 23 22  1  0
 23 24  1  0
 24 25  2  0
 26 27  1  0
 28 26  2  0
M  END
$$$$
