MDR.pdb
     RDKit          3D

 28 27  0  0  1  0  0  0  0  0999 V2000
    7.5540  -11.9167   27.6442 C   0  0  0  0  0  0  0  0  0  0  0  0
    6.0351  -12.2299   26.7357 S   0  0  0  0  0  0  0  0  0  0  0  0
    6.3734  -13.4559   25.4454 C   0  0  0  0  0  0  0  0  0  0  0  0
    7.7062  -14.0982   25.7355 C   0  0  0  0  0  0  0  0  0  0  0  0
    8.4349  -14.5704   24.5223 C   0  0  2  0  0  0  0  0  0  0  0  0
    7.5191  -15.1676   23.5525 N   0  0  0  0  0  0  0  0  0  0  0  0
    9.5285  -15.5182   24.7698 C   0  0  0  0  0  0  0  0  0  0  0  0
   10.3804  -15.2242   25.6698 O   0  0  0  0  0  0  0  0  0  0  0  0
    9.6300  -16.7099   24.0367 N   0  0  0  0  0  0  0  0  0  0  0  0
   10.7440  -17.6238   24.1633 C   0  0  1  0  0  0  0  0  0  0  0  0
   10.3229  -19.0480   24.2549 C   0  0  0  0  0  0  0  0  0  0  0  0
    9.5272  -19.3940   23.0580 C   0  0  0  0  0  0  0  0  0  0  0  0
    9.4280  -18.5924   22.0689 O   0  0  0  0  0  0  0  0  0  0  0  0
   11.6980  -17.3634   23.0588 C   0  0  0  0  0  0  0  0  0  0  0  0
   12.2954  -18.2832   22.4607 O   0  0  0  0  0  0  0  0  0  0  0  0
    8.8452  -20.5876   22.9244 O   0  0  0  0  0  0  0  0  0  0  0  0
    8.2334  -11.9272   19.1810 N   0  0  0  0  0  0  0  0  0  0  0  0
    8.2335  -13.1841   18.5295 C   0  0  0  0  0  0  0  0  0  0  0  0
    7.3723  -13.4067   17.5695 N   0  0  0  0  0  0  0  0  0  0  0  0
    9.1658  -14.1734   18.9303 N   0  0  0  0  0  0  0  0  0  0  0  0
   10.3103  -13.8254   19.7085 C   0  0  0  0  0  0  0  0  0  0  0  0
   11.2631  -14.9652   19.9162 C   0  0  0  0  0  0  0  0  0  0  0  0
   12.4587  -14.5578   20.7551 C   0  0  0  0  0  0  0  0  0  0  0  0
   12.9127  -15.7113   21.6359 C   0  0  2  0  0  0  0  0  0  0  0  0
   11.9456  -16.0272   22.6626 N   0  0  0  0  0  0  0  0  0  0  0  0
   14.2071  -15.4053   22.2929 C   0  0  0  0  0  0  0  0  0  0  0  0
   14.2590  -15.4195   23.6770 O   0  0  0  0  0  0  0  0  0  0  0  0
   15.2338  -15.1390   21.6040 O   0  0  0  0  0  0  0  0  0  0  0  0
  2  1  1  0
  3  2  1  0
  4  5  1  0
  4  3  1  0
  5  6  1  6
  7  9  1  0
  7  5  1  0
  8  7  2  0
 10  9  1  0
 10 11  1  6
 12 16  1  0
 12 11  1  0
 13 12  2  0
 14 15  2  0
 14 10  1  0
 17 18  1  0
 18 19  2  0
 20 18  1  0
 20 21  1  0
 22 21  1  0
 22 23  1  0
 24 23  1  1
 24 25  1  0
 25 14  1  0
 26 24  1  0
 27 26  1  0
 28 26  2  0
M  END
$$$$
