MDR.pdb
     RDKit          3D

 28 27  0  0  1  0  0  0  0  0999 V2000
    7.6866  -11.7540   20.5806 C   0  0  0  0  0  0  0  0  0  0  0  0
    8.2047  -12.5347   19.0467 S   0  0  0  0  0  0  0  0  0  0  0  0
    8.0541  -14.3308   19.2305 C   0  0  0  0  0  0  0  0  0  0  0  0
    8.5117  -14.9814   17.9498 C   0  0  0  0  0  0  0  0  0  0  0  0
    8.5496  -16.4720   18.0002 C   0  0  2  0  0  0  0  0  0  0  0  0
    7.2027  -17.0346   18.0728 N   0  0  0  0  0  0  0  0  0  0  0  0
    9.3505  -17.0483   19.0873 C   0  0  0  0  0  0  0  0  0  0  0  0
    8.7578  -17.3351   20.1775 O   0  0  0  0  0  0  0  0  0  0  0  0
   10.7257  -17.2750   18.9280 N   0  0  0  0  0  0  0  0  0  0  0  0
   11.5612  -17.8319   19.9692 C   0  0  1  0  0  0  0  0  0  0  0  0
   12.8453  -18.3810   19.4558 C   0  0  0  0  0  0  0  0  0  0  0  0
   12.5607  -19.5443   18.5891 C   0  0  0  0  0  0  0  0  0  0  0  0
   11.6983  -20.4264   18.9194 O   0  0  0  0  0  0  0  0  0  0  0  0
   11.7410  -16.8108   21.0290 C   0  0  0  0  0  0  0  0  0  0  0  0
   12.0418  -15.6260   20.7715 O   0  0  0  0  0  0  0  0  0  0  0  0
   13.1950  -19.7584   17.3810 O   0  0  0  0  0  0  0  0  0  0  0  0
   10.8501  -16.5457   29.2809 N   0  0  0  0  0  0  0  0  0  0  0  0
   10.3835  -15.2214   29.0995 C   0  0  0  0  0  0  0  0  0  0  0  0
   10.4796  -14.3687   30.0876 N   0  0  0  0  0  0  0  0  0  0  0  0
    9.8231  -14.8478   27.8525 N   0  0  0  0  0  0  0  0  0  0  0  0
    9.7448  -15.7833   26.7778 C   0  0  0  0  0  0  0  0  0  0  0  0
   10.7744  -15.5578   25.7105 C   0  0  0  0  0  0  0  0  0  0  0  0
   10.6130  -16.5258   24.5547 C   0  0  0  0  0  0  0  0  0  0  0  0
   11.6050  -16.2073   23.4470 C   0  0  2  0  0  0  0  0  0  0  0  0
   11.5672  -17.1850   22.3830 N   0  0  0  0  0  0  0  0  0  0  0  0
   12.9909  -16.1432   23.9722 C   0  0  0  0  0  0  0  0  0  0  0  0
   13.4811  -14.9134   24.3797 O   0  0  0  0  0  0  0  0  0  0  0  0
   13.7028  -17.1860   24.0445 O   0  0  0  0  0  0  0  0  0  0  0  0
  2  1  1  0
  3  2  1  0
  4  5  1  0
  4  3  1  0
  5  6  1  1
  7  9  1  0
  7  5  1  0
  8  7  2  0
 10  9  1  0
 10 11  1  6
 12 16  1  0
 12 11  1  0
 13 12  2  0
 14 15  2  0
 14 10  1  0
 17 18  1  0
 18 19  2  0
 20 18  1  0
 20 21  1  0
 22 21  1  0
 22 23  1  0
 24 23  1  1
 24 25  1  0
 25 14  1  0
 26 24  1  0
 27 26  1  0
 28 26  2  0
M  END
$$$$
