MDR.pdb
     RDKit          3D

 28 27  0  0  1  0  0  0  0  0999 V2000
    5.1235  -11.8893   25.8659 C   0  0  0  0  0  0  0  0  0  0  0  0
    6.5656  -12.6415   26.6309 S   0  0  0  0  0  0  0  0  0  0  0  0
    6.5572  -14.4158   26.2646 C   0  0  0  0  0  0  0  0  0  0  0  0
    6.1199  -14.6055   24.8343 C   0  0  0  0  0  0  0  0  0  0  0  0
    6.2658  -16.0020   24.3299 C   0  0  2  0  0  0  0  0  0  0  0  0
    5.9952  -16.9776   25.3838 N   0  0  0  0  0  0  0  0  0  0  0  0
    7.5640  -16.3237   23.7244 C   0  0  0  0  0  0  0  0  0  0  0  0
    8.3377  -17.1137   24.3566 O   0  0  0  0  0  0  0  0  0  0  0  0
    7.9386  -15.7770   22.4880 N   0  0  0  0  0  0  0  0  0  0  0  0
    9.1325  -16.1765   21.7758 C   0  0  1  0  0  0  0  0  0  0  0  0
    9.1612  -15.6943   20.3684 C   0  0  0  0  0  0  0  0  0  0  0  0
    8.6886  -16.7756   19.4779 C   0  0  0  0  0  0  0  0  0  0  0  0
    8.9373  -18.0027   19.7295 O   0  0  0  0  0  0  0  0  0  0  0  0
   10.3165  -15.7584   22.5641 C   0  0  0  0  0  0  0  0  0  0  0  0
   10.3179  -14.7306   23.2740 O   0  0  0  0  0  0  0  0  0  0  0  0
    7.9571  -16.5422   18.3299 O   0  0  0  0  0  0  0  0  0  0  0  0
   10.6781  -18.6293   29.1452 N   0  0  0  0  0  0  0  0  0  0  0  0
   10.4812  -19.4095   27.9803 C   0  0  0  0  0  0  0  0  0  0  0  0
    9.4391  -20.1978   27.9075 N   0  0  0  0  0  0  0  0  0  0  0  0
   11.4158  -19.3197   26.9188 N   0  0  0  0  0  0  0  0  0  0  0  0
   11.9961  -18.0660   26.5611 C   0  0  0  0  0  0  0  0  0  0  0  0
   11.5891  -17.5835   25.2003 C   0  0  0  0  0  0  0  0  0  0  0  0
   12.2710  -16.2796   24.8347 C   0  0  0  0  0  0  0  0  0  0  0  0
   12.6296  -16.2588   23.3570 C   0  0  2  0  0  0  0  0  0  0  0  0
   11.4906  -16.5475   22.5152 N   0  0  0  0  0  0  0  0  0  0  0  0
   13.6965  -17.2433   23.0516 C   0  0  0  0  0  0  0  0  0  0  0  0
   14.9572  -17.0298   23.5843 O   0  0  0  0  0  0  0  0  0  0  0  0
   13.4574  -18.2495   22.3238 O   0  0  0  0  0  0  0  0  0  0  0  0
  2  1  1  0
  3  2  1  0
  4  5  1  0
  4  3  1  0
  5  6  1  1
  7  9  1  0
  7  5  1  0
  8  7  2  0
 10  9  1  0
 10 11  1  6
 12 16  1  0
 12 11  1  0
 13 12  2  0
 14 15  2  0
 14 10  1  0
 17 18  1  0
 18 19  2  0
 20 18  1  0
 20 21  1  0
 22 21  1  0
 22 23  1  0
 24 23  1  1
 24 25  1  0
 25 14  1  0
 26 24  1  0
 27 26  1  0
 28 26  2  0
M  END
$$$$
