MDR.pdb
     RDKit          3D

 28 27  0  0  1  0  0  0  0  0999 V2000
    8.3296  -12.8265   19.0754 C   0  0  0  0  0  0  0  0  0  0  0  0
    7.2921  -14.2941   19.0897 S   0  0  0  0  0  0  0  0  0  0  0  0
    8.0350  -15.5401   18.0043 C   0  0  0  0  0  0  0  0  0  0  0  0
    9.5073  -15.2426   17.8745 C   0  0  0  0  0  0  0  0  0  0  0  0
   10.3467  -16.4345   17.5571 C   0  0  2  0  0  0  0  0  0  0  0  0
    9.7373  -17.2480   16.5070 N   0  0  0  0  0  0  0  0  0  0  0  0
   10.6612  -17.3080   18.6945 C   0  0  0  0  0  0  0  0  0  0  0  0
   11.1267  -16.7684   19.7501 O   0  0  0  0  0  0  0  0  0  0  0  0
   10.4547  -18.6934   18.6188 N   0  0  0  0  0  0  0  0  0  0  0  0
   10.6812  -19.5888   19.7320 C   0  0  1  0  0  0  0  0  0  0  0  0
   11.0091  -20.9767   19.3072 C   0  0  0  0  0  0  0  0  0  0  0  0
   11.3206  -21.7868   20.5039 C   0  0  0  0  0  0  0  0  0  0  0  0
   10.3968  -22.2504   21.2540 O   0  0  0  0  0  0  0  0  0  0  0  0
   11.7050  -18.9894   20.6211 C   0  0  0  0  0  0  0  0  0  0  0  0
   12.6007  -18.2310   20.1932 O   0  0  0  0  0  0  0  0  0  0  0  0
   12.6097  -22.0960   20.8912 O   0  0  0  0  0  0  0  0  0  0  0  0
   10.6038  -13.4304   19.7128 N   0  0  0  0  0  0  0  0  0  0  0  0
   10.0457  -12.9113   20.9059 C   0  0  0  0  0  0  0  0  0  0  0  0
    9.2921  -11.8430   20.8472 N   0  0  0  0  0  0  0  0  0  0  0  0
   10.3146  -13.5596   22.1372 N   0  0  0  0  0  0  0  0  0  0  0  0
    9.8811  -14.8997   22.3665 C   0  0  0  0  0  0  0  0  0  0  0  0
   11.0054  -15.8559   22.6347 C   0  0  0  0  0  0  0  0  0  0  0  0
   10.5077  -17.2752   22.8269 C   0  0  0  0  0  0  0  0  0  0  0  0
   11.6759  -18.2333   22.9996 C   0  0  2  0  0  0  0  0  0  0  0  0
   11.6723  -19.2827   22.0055 N   0  0  0  0  0  0  0  0  0  0  0  0
   11.6570  -18.8633   24.3426 C   0  0  0  0  0  0  0  0  0  0  0  0
   12.4751  -18.3332   25.3267 O   0  0  0  0  0  0  0  0  0  0  0  0
   10.9123  -19.8577   24.5788 O   0  0  0  0  0  0  0  0  0  0  0  0
  2  1  1  0
  3  2  1  0
  4  5  1  0
  4  3  1  0
  5  6  1  6
  7  9  1  0
  7  5  1  0
  8  7  2  0
 10  9  1  0
 10 11  1  6
 12 16  1  0
 12 11  1  0
 13 12  2  0
 14 15  2  0
 14 10  1  0
 17 18  1  0
 18 19  2  0
 20 18  1  0
 20 21  1  0
 22 21  1  0
 22 23  1  0
 24 23  1  6
 24 25  1  0
 25 14  1  0
 26 24  1  0
 27 26  1  0
 28 26  2  0
M  END
$$$$
