MDR.pdb
     RDKit          3D

 28 27  0  0  1  0  0  0  0  0999 V2000
    7.7884  -12.3455   20.8606 C   0  0  0  0  0  0  0  0  0  0  0  0
    6.5003  -13.5249   20.4357 S   0  0  0  0  0  0  0  0  0  0  0  0
    7.2789  -15.1012   19.9981 C   0  0  0  0  0  0  0  0  0  0  0  0
    8.1857  -15.5156   21.1290 C   0  0  0  0  0  0  0  0  0  0  0  0
    8.9244  -16.7888   20.8860 C   0  0  2  0  0  0  0  0  0  0  0  0
    8.0193  -17.8538   20.4588 N   0  0  0  0  0  0  0  0  0  0  0  0
    9.7205  -17.2841   22.0157 C   0  0  0  0  0  0  0  0  0  0  0  0
    9.2682  -18.2756   22.6749 O   0  0  0  0  0  0  0  0  0  0  0  0
   10.9410  -16.6824   22.3568 N   0  0  0  0  0  0  0  0  0  0  0  0
   11.7814  -17.1547   23.4351 C   0  0  1  0  0  0  0  0  0  0  0  0
   13.1919  -16.6953   23.3197 C   0  0  0  0  0  0  0  0  0  0  0  0
   13.7585  -17.1908   22.0473 C   0  0  0  0  0  0  0  0  0  0  0  0
   13.6844  -18.4229   21.7197 O   0  0  0  0  0  0  0  0  0  0  0  0
   11.1481  -16.7883   24.7245 C   0  0  0  0  0  0  0  0  0  0  0  0
   11.4354  -15.7373   25.3356 O   0  0  0  0  0  0  0  0  0  0  0  0
   14.3977  -16.3726   21.1365 O   0  0  0  0  0  0  0  0  0  0  0  0
    5.0501  -21.9785   25.7899 N   0  0  0  0  0  0  0  0  0  0  0  0
    5.5548  -21.5321   24.5448 C   0  0  0  0  0  0  0  0  0  0  0  0
    5.2654  -22.2039   23.4596 N   0  0  0  0  0  0  0  0  0  0  0  0
    6.3617  -20.3678   24.5003 N   0  0  0  0  0  0  0  0  0  0  0  0
    7.0136  -19.8861   25.6748 C   0  0  0  0  0  0  0  0  0  0  0  0
    7.7658  -18.6060   25.4606 C   0  0  0  0  0  0  0  0  0  0  0  0
    8.2454  -18.0058   26.7678 C   0  0  0  0  0  0  0  0  0  0  0  0
    9.6426  -17.4266   26.6102 C   0  0  2  0  0  0  0  0  0  0  0  0
   10.1824  -17.6557   25.2891 N   0  0  0  0  0  0  0  0  0  0  0  0
   10.5781  -18.0086   27.6035 C   0  0  0  0  0  0  0  0  0  0  0  0
   11.0813  -17.1807   28.5936 O   0  0  0  0  0  0  0  0  0  0  0  0
   10.9051  -19.2289   27.5447 O   0  0  0  0  0  0  0  0  0  0  0  0
  2  1  1  0
  3  2  1  0
  4  5  1  0
  4  3  1  0
  5  6  1  1
  7  9  1  0
  7  5  1  0
  8  7  2  0
 10  9  1  0
 10 11  1  6
 12 16  1  0
 12 11  1  0
 13 12  2  0
 14 15  2  0
 14 10  1  0
 17 18  1  0
 18 19  2  0
 20 18  1  0
 20 21  1  0
 22 21  1  0
 22 23  1  0
 24 23  1  6
 24 25  1  0
 25 14  1  0
 26 24  1  0
 27 26  1  0
 28 26  2  0
M  END
$$$$
