MDR.pdb
     RDKit          3D

 28 27  0  0  1  0  0  0  0  0999 V2000
    7.5164  -12.3133   19.4807 C   0  0  0  0  0  0  0  0  0  0  0  0
    6.6161  -13.1705   20.7790 S   0  0  0  0  0  0  0  0  0  0  0  0
    6.3069  -14.8733   20.2431 C   0  0  0  0  0  0  0  0  0  0  0  0
    7.3072  -15.7755   20.9200 C   0  0  0  0  0  0  0  0  0  0  0  0
    8.6958  -15.6584   20.3871 C   0  0  2  0  0  0  0  0  0  0  0  0
    8.7584  -16.0478   18.9799 N   0  0  0  0  0  0  0  0  0  0  0  0
    9.7209  -16.4107   21.1210 C   0  0  0  0  0  0  0  0  0  0  0  0
    9.7116  -16.3466   22.3930 O   0  0  0  0  0  0  0  0  0  0  0  0
   10.6798  -17.1757   20.4404 N   0  0  0  0  0  0  0  0  0  0  0  0
   11.7296  -17.9086   21.1133 C   0  0  1  0  0  0  0  0  0  0  0  0
   12.6807  -18.5611   20.1731 C   0  0  0  0  0  0  0  0  0  0  0  0
   13.5316  -19.5067   20.9262 C   0  0  0  0  0  0  0  0  0  0  0  0
   13.7182  -19.3799   22.1832 O   0  0  0  0  0  0  0  0  0  0  0  0
   12.3911  -17.0043   22.0843 C   0  0  0  0  0  0  0  0  0  0  0  0
   13.0738  -16.0219   21.7249 O   0  0  0  0  0  0  0  0  0  0  0  0
   14.1754  -20.5768   20.3364 O   0  0  0  0  0  0  0  0  0  0  0  0
   10.4683  -17.7455   30.3550 N   0  0  0  0  0  0  0  0  0  0  0  0
   10.8835  -16.4745   29.8898 C   0  0  0  0  0  0  0  0  0  0  0  0
   11.2003  -15.5480   30.7582 N   0  0  0  0  0  0  0  0  0  0  0  0
   10.9477  -16.2330   28.4947 N   0  0  0  0  0  0  0  0  0  0  0  0
   11.8507  -15.2648   27.9622 C   0  0  0  0  0  0  0  0  0  0  0  0
   11.8190  -15.1751   26.4652 C   0  0  0  0  0  0  0  0  0  0  0  0
   12.0793  -16.5185   25.8120 C   0  0  0  0  0  0  0  0  0  0  0  0
   12.7537  -16.3354   24.4614 C   0  0  2  0  0  0  0  0  0  0  0  0
   12.2479  -17.2573   23.4696 N   0  0  0  0  0  0  0  0  0  0  0  0
   14.2215  -16.5230   24.5666 C   0  0  0  0  0  0  0  0  0  0  0  0
   14.7266  -17.8091   24.4683 O   0  0  0  0  0  0  0  0  0  0  0  0
   14.9881  -15.5324   24.7413 O   0  0  0  0  0  0  0  0  0  0  0  0
  2  1  1  0
  3  2  1  0
  4  5  1  0
  4  3  1  0
  5  6  1  6
  7  9  1  0
  7  5  1  0
  8  7  2  0
 10  9  1  0
 10 11  1  6
 12 16  1  0
 12 11  1  0
 13 12  2  0
 14 15  2  0
 14 10  1  0
 17 18  1  0
 18 19  2  0
 20 18  1  0
 20 21  1  0
 22 21  1  0
 22 23  1  0
 24 23  1  1
 24 25  1  0
 25 14  1  0
 26 24  1  0
 27 26  1  0
 28 26  2  0
M  END
$$$$
