MDR.pdb
     RDKit          3D

 28 27  0  0  1  0  0  0  0  0999 V2000
    8.7919  -11.3426   19.7437 C   0  0  0  0  0  0  0  0  0  0  0  0
    7.4179  -12.1607   18.9229 S   0  0  0  0  0  0  0  0  0  0  0  0
    7.7219  -13.9467   18.9243 C   0  0  0  0  0  0  0  0  0  0  0  0
    8.9444  -14.2218   19.7627 C   0  0  0  0  0  0  0  0  0  0  0  0
    9.2972  -15.6671   19.8744 C   0  0  2  0  0  0  0  0  0  0  0  0
    8.1225  -16.4768   20.1914 N   0  0  0  0  0  0  0  0  0  0  0  0
   10.3542  -15.9876   20.8417 C   0  0  0  0  0  0  0  0  0  0  0  0
   11.5367  -15.5887   20.5870 O   0  0  0  0  0  0  0  0  0  0  0  0
   10.0684  -16.7106   22.0093 N   0  0  0  0  0  0  0  0  0  0  0  0
   11.0843  -17.1222   22.9531 C   0  0  1  0  0  0  0  0  0  0  0  0
   10.6290  -18.2068   23.8644 C   0  0  0  0  0  0  0  0  0  0  0  0
   11.6858  -18.4736   24.8631 C   0  0  0  0  0  0  0  0  0  0  0  0
   12.3016  -17.5225   25.4522 O   0  0  0  0  0  0  0  0  0  0  0  0
   12.3168  -17.4639   22.2034 C   0  0  0  0  0  0  0  0  0  0  0  0
   12.3370  -17.5582   20.9579 O   0  0  0  0  0  0  0  0  0  0  0  0
   12.0775  -19.7475   25.2254 O   0  0  0  0  0  0  0  0  0  0  0  0
   14.4587  -13.8945   19.0986 N   0  0  0  0  0  0  0  0  0  0  0  0
   15.5593  -14.1781   18.2545 C   0  0  0  0  0  0  0  0  0  0  0  0
   16.2295  -13.1875   17.7232 N   0  0  0  0  0  0  0  0  0  0  0  0
   15.9118  -15.5277   18.0037 N   0  0  0  0  0  0  0  0  0  0  0  0
   15.1973  -16.5961   18.6237 C   0  0  0  0  0  0  0  0  0  0  0  0
   15.4389  -16.7015   20.1004 C   0  0  0  0  0  0  0  0  0  0  0  0
   14.6329  -17.8223   20.7273 C   0  0  0  0  0  0  0  0  0  0  0  0
   14.7880  -17.8120   22.2400 C   0  0  2  0  0  0  0  0  0  0  0  0
   13.5170  -17.6927   22.9180 N   0  0  0  0  0  0  0  0  0  0  0  0
   15.6583  -16.6944   22.6809 C   0  0  0  0  0  0  0  0  0  0  0  0
   15.1676  -15.8190   23.6357 O   0  0  0  0  0  0  0  0  0  0  0  0
   16.8169  -16.5482   22.1956 O   0  0  0  0  0  0  0  0  0  0  0  0
  2  1  1  0
  3  2  1  0
  4  5  1  0
  4  3  1  0
  5  6  1  1
  7  9  1  0
  7  5  1  0
  8  7  2  0
 10  9  1  0
 10 11  1  6
 12 16  1  0
 12 11  1  0
 13 12  2  0
 14 15  2  0
 14 10  1  0
 17 18  1  0
 18 19  2  0
 20 18  1  0
 20 21  1  0
 22 21  1  0
 22 23  1  0
 24 23  1  6
 24 25  1  0
 25 14  1  0
 26 24  1  0
 27 26  1  0
 28 26  2  0
M  END
$$$$
