MDR.pdb
     RDKit          3D

 28 27  0  0  1  0  0  0  0  0999 V2000
    6.6955  -12.1590   25.3266 C   0  0  0  0  0  0  0  0  0  0  0  0
    6.2806  -13.5142   26.4320 S   0  0  0  0  0  0  0  0  0  0  0  0
    5.8093  -14.9519   25.4353 C   0  0  0  0  0  0  0  0  0  0  0  0
    7.0371  -15.4636   24.7258 C   0  0  0  0  0  0  0  0  0  0  0  0
    6.7732  -16.5846   23.7773 C   0  0  2  0  0  0  0  0  0  0  0  0
    6.1754  -17.7290   24.4619 N   0  0  0  0  0  0  0  0  0  0  0  0
    7.9366  -17.0571   23.0166 C   0  0  0  0  0  0  0  0  0  0  0  0
    8.3287  -18.2536   23.2083 O   0  0  0  0  0  0  0  0  0  0  0  0
    8.5943  -16.2152   22.1074 N   0  0  0  0  0  0  0  0  0  0  0  0
    9.7066  -16.6486   21.2907 C   0  0  1  0  0  0  0  0  0  0  0  0
    9.8251  -15.8899   20.0161 C   0  0  0  0  0  0  0  0  0  0  0  0
    8.9193  -16.4880   19.0124 C   0  0  0  0  0  0  0  0  0  0  0  0
    8.8478  -17.7525   18.8486 O   0  0  0  0  0  0  0  0  0  0  0  0
   10.9400  -16.6122   22.1124 C   0  0  0  0  0  0  0  0  0  0  0  0
   12.0745  -16.4688   21.6094 O   0  0  0  0  0  0  0  0  0  0  0  0
    8.0992  -15.7369   18.1935 O   0  0  0  0  0  0  0  0  0  0  0  0
    9.8837  -12.8034   28.7735 N   0  0  0  0  0  0  0  0  0  0  0  0
   10.4654  -14.0904   28.8722 C   0  0  0  0  0  0  0  0  0  0  0  0
   11.6612  -14.2135   29.3894 N   0  0  0  0  0  0  0  0  0  0  0  0
    9.7405  -15.2169   28.4095 N   0  0  0  0  0  0  0  0  0  0  0  0
   10.4124  -16.3137   27.7914 C   0  0  0  0  0  0  0  0  0  0  0  0
   10.8725  -16.0239   26.3933 C   0  0  0  0  0  0  0  0  0  0  0  0
   11.6470  -17.1847   25.8003 C   0  0  0  0  0  0  0  0  0  0  0  0
   12.0071  -16.9028   24.3500 C   0  0  2  0  0  0  0  0  0  0  0  0
   10.8359  -16.7442   23.5179 N   0  0  0  0  0  0  0  0  0  0  0  0
   12.8373  -17.9938   23.7832 C   0  0  0  0  0  0  0  0  0  0  0  0
   12.2917  -19.2652   23.7158 O   0  0  0  0  0  0  0  0  0  0  0  0
   14.0117  -17.7651   23.3735 O   0  0  0  0  0  0  0  0  0  0  0  0
  2  1  1  0
  3  2  1  0
  4  5  1  0
  4  3  1  0
  5  6  1  1
  7  9  1  0
  7  5  1  0
  8  7  2  0
 10  9  1  0
 10 11  1  6
 12 16  1  0
 12 11  1  0
 13 12  2  0
 14 15  2  0
 14 10  1  0
 17 18  1  0
 18 19  2  0
 20 18  1  0
 20 21  1  0
 22 21  1  0
 22 23  1  0
 24 23  1  1
 24 25  1  0
 25 14  1  0
 26 24  1  0
 27 26  1  0
 28 26  2  0
M  END
$$$$
