FGS.pdb
     RDKit          3D

 22 22  0  0  1  0  0  0  0  0999 V2000
   25.2417  -20.6981   -6.5205 N   0  0  0  0  0  0  0  0  0  0  0  0
   26.1350  -20.3205   -7.5983 C   0  0  1  0  0  0  0  0  0  0  0  0
   27.5494  -20.7245   -7.3460 C   0  0  0  0  0  0  0  0  0  0  0  0
   28.1243  -20.0929   -6.1277 C   0  0  0  0  0  0  0  0  0  0  0  0
   28.4399  -20.9230   -5.0700 C   0  0  0  0  0  0  0  0  0  0  0  0
   28.9787  -20.4101   -3.8963 C   0  0  0  0  0  0  0  0  0  0  0  0
   29.1918  -19.0510   -3.8114 C   0  0  0  0  0  0  0  0  0  0  0  0
   28.8806  -18.2146   -4.8603 C   0  0  0  0  0  0  0  0  0  0  0  0
   28.3492  -18.7604   -6.0045 C   0  0  0  0  0  0  0  0  0  0  0  0
   25.6594  -20.9072   -8.8529 C   0  0  0  0  0  0  0  0  0  0  0  0
   25.2058  -22.0909   -8.8973 O   0  0  0  0  0  0  0  0  0  0  0  0
   25.6792  -20.1881  -10.0836 N   0  0  0  0  0  0  0  0  0  0  0  0
   25.3762  -20.7720  -11.3512 C   0  0  0  0  0  0  0  0  0  0  0  0
   26.3527  -20.3439  -12.4019 C   0  0  0  0  0  0  0  0  0  0  0  0
   27.5766  -20.5417  -12.2059 O   0  0  0  0  0  0  0  0  0  0  0  0
   25.6032  -22.0042  -15.4725 O   0  0  0  0  0  0  0  0  0  0  0  0
   26.7989  -21.3959  -15.1797 C   0  0  0  0  0  0  0  0  0  0  0  0
   26.6472  -19.9213  -14.8365 C   0  0  2  0  0  0  0  0  0  0  0  0
   25.9389  -19.7249  -13.6057 N   0  0  0  0  0  0  0  0  0  0  0  0
   26.0709  -19.1610  -15.9653 C   0  0  0  0  0  0  0  0  0  0  0  0
   26.7718  -19.1420  -17.1625 O   0  0  0  0  0  0  0  0  0  0  0  0
   24.9867  -18.5292  -15.9138 O   0  0  0  0  0  0  0  0  0  0  0  0
  2  1  1  1
  3  2  1  0
  3  4  1  0
  4  5  2  0
  5  6  1  0
  7  6  2  0
  8  7  1  0
  9  4  1  0
  9  8  2  0
 10  2  1  0
 10 12  1  0
 11 10  2  0
 13 12  1  0
 13 14  1  0
 14 19  1  0
 15 14  2  0
 16 17  1  0
 18 20  1  0
 18 17  1  6
 19 18  1  0
 20 21  1  0
 22 20  2  0
M  END
$$$$
