FGS.pdb
     RDKit          3D

 22 22  0  0  1  0  0  0  0  0999 V2000
   35.5317  -10.6974  -17.3431 N   0  0  0  0  0  0  0  0  0  0  0  0
   34.2352  -10.1178  -17.0504 C   0  0  1  0  0  0  0  0  0  0  0  0
   34.2308   -9.3159  -15.7917 C   0  0  0  0  0  0  0  0  0  0  0  0
   35.1679   -9.8444  -14.7641 C   0  0  0  0  0  0  0  0  0  0  0  0
   35.0220  -11.1660  -14.3904 C   0  0  0  0  0  0  0  0  0  0  0  0
   35.8565  -11.7340  -13.4354 C   0  0  0  0  0  0  0  0  0  0  0  0
   36.8355  -10.9468  -12.8681 C   0  0  0  0  0  0  0  0  0  0  0  0
   36.9894   -9.6280  -13.2337 C   0  0  0  0  0  0  0  0  0  0  0  0
   36.1440   -9.1030  -14.1820 C   0  0  0  0  0  0  0  0  0  0  0  0
   33.8071   -9.2878  -18.1783 C   0  0  0  0  0  0  0  0  0  0  0  0
   34.5220   -9.1703  -19.2195 O   0  0  0  0  0  0  0  0  0  0  0  0
   32.5745   -8.5718  -18.1701 N   0  0  0  0  0  0  0  0  0  0  0  0
   32.0519   -7.8746  -19.3016 C   0  0  0  0  0  0  0  0  0  0  0  0
   30.7593   -7.1921  -18.9787 C   0  0  0  0  0  0  0  0  0  0  0  0
   30.2779   -7.3235  -17.8270 O   0  0  0  0  0  0  0  0  0  0  0  0
   28.1672   -3.8932  -18.0485 O   0  0  0  0  0  0  0  0  0  0  0  0
   29.2589   -4.6161  -18.4619 C   0  0  0  0  0  0  0  0  0  0  0  0
   28.9303   -5.6102  -19.5660 C   0  0  2  0  0  0  0  0  0  0  0  0
   30.0659   -6.4059  -19.9298 N   0  0  0  0  0  0  0  0  0  0  0  0
   28.2951   -4.9428  -20.7216 C   0  0  0  0  0  0  0  0  0  0  0  0
   26.9641   -4.5684  -20.6062 O   0  0  0  0  0  0  0  0  0  0  0  0
   28.8804   -4.6909  -21.8038 O   0  0  0  0  0  0  0  0  0  0  0  0
  2  1  1  6
  3  2  1  0
  3  4  1  0
  4  5  2  0
  5  6  1  0
  7  6  2  0
  8  7  1  0
  9  4  1  0
  9  8  2  0
 10  2  1  0
 10 12  1  0
 11 10  2  0
 13 12  1  0
 13 14  1  0
 14 19  1  0
 15 14  2  0
 16 17  1  0
 18 20  1  0
 18 17  1  1
 19 18  1  0
 20 21  1  0
 22 20  2  0
M  END
$$$$
