FGS.pdb
     RDKit          3D

 22 22  0  0  1  0  0  0  0  0999 V2000
   25.7283    3.6077   -8.4643 N   0  0  0  0  0  0  0  0  0  0  0  0
   24.7836    3.0758   -9.4272 C   0  0  1  0  0  0  0  0  0  0  0  0
   23.7135    2.2512   -8.7931 C   0  0  0  0  0  0  0  0  0  0  0  0
   24.1819    1.5253   -7.5817 C   0  0  0  0  0  0  0  0  0  0  0  0
   23.6479    1.9062   -6.3663 C   0  0  0  0  0  0  0  0  0  0  0  0
   24.0353    1.2787   -5.1885 C   0  0  0  0  0  0  0  0  0  0  0  0
   24.9667    0.2652   -5.2608 C   0  0  0  0  0  0  0  0  0  0  0  0
   25.5052   -0.1222   -6.4677 C   0  0  0  0  0  0  0  0  0  0  0  0
   25.0962    0.5231   -7.6105 C   0  0  0  0  0  0  0  0  0  0  0  0
   24.1880    4.1783  -10.1849 C   0  0  0  0  0  0  0  0  0  0  0  0
   24.5597    5.3778  -10.0065 O   0  0  0  0  0  0  0  0  0  0  0  0
   23.1665    3.9677  -11.1567 N   0  0  0  0  0  0  0  0  0  0  0  0
   22.6067    5.0071  -11.9605 C   0  0  0  0  0  0  0  0  0  0  0  0
   21.6247    4.4669  -12.9529 C   0  0  0  0  0  0  0  0  0  0  0  0
   21.5022    3.2229  -13.0660 O   0  0  0  0  0  0  0  0  0  0  0  0
   17.8966    5.3461  -15.9618 O   0  0  0  0  0  0  0  0  0  0  0  0
   18.8911    5.8513  -15.1610 C   0  0  0  0  0  0  0  0  0  0  0  0
   19.8736    4.7885  -14.6915 C   0  0  2  0  0  0  0  0  0  0  0  0
   20.8330    5.3139  -13.7648 N   0  0  0  0  0  0  0  0  0  0  0  0
   20.4947    4.0855  -15.8336 C   0  0  0  0  0  0  0  0  0  0  0  0
   19.9852    2.8449  -16.1893 O   0  0  0  0  0  0  0  0  0  0  0  0
   21.4551    4.5363  -16.5057 O   0  0  0  0  0  0  0  0  0  0  0  0
  2  1  1  1
  3  2  1  0
  3  4  1  0
  4  5  2  0
  5  6  1  0
  7  6  2  0
  8  7  1  0
  9  4  1  0
  9  8  2  0
 10  2  1  0
 10 12  1  0
 11 10  2  0
 13 12  1  0
 13 14  1  0
 14 19  1  0
 15 14  2  0
 16 17  1  0
 18 20  1  0
 18 17  1  6
 19 18  1  0
 20 21  1  0
 22 20  2  0
M  END
$$$$
