FGS.pdb
     RDKit          3D

 22 22  0  0  1  0  0  0  0  0999 V2000
   26.6944  -21.9198   -9.0265 N   0  0  0  0  0  0  0  0  0  0  0  0
   26.5864  -20.4986   -9.2930 C   0  0  1  0  0  0  0  0  0  0  0  0
   27.7482  -19.7218   -8.7695 C   0  0  0  0  0  0  0  0  0  0  0  0
   27.8089  -19.7003   -7.2831 C   0  0  0  0  0  0  0  0  0  0  0  0
   28.9259  -20.2493   -6.6845 C   0  0  0  0  0  0  0  0  0  0  0  0
   29.0570  -20.2698   -5.3012 C   0  0  0  0  0  0  0  0  0  0  0  0
   28.0448  -19.7284   -4.5382 C   0  0  0  0  0  0  0  0  0  0  0  0
   26.9269  -19.1785   -5.1252 C   0  0  0  0  0  0  0  0  0  0  0  0
   26.8345  -19.1774   -6.4967 C   0  0  0  0  0  0  0  0  0  0  0  0
   26.4444  -20.2830  -10.7344 C   0  0  0  0  0  0  0  0  0  0  0  0
   27.0442  -21.0208  -11.5740 O   0  0  0  0  0  0  0  0  0  0  0  0
   25.6317  -19.2418  -11.2706 N   0  0  0  0  0  0  0  0  0  0  0  0
   25.5339  -18.9466  -12.6645 C   0  0  0  0  0  0  0  0  0  0  0  0
   24.4862  -19.7820  -13.3318 C   0  0  0  0  0  0  0  0  0  0  0  0
   23.3273  -19.3151  -13.4522 O   0  0  0  0  0  0  0  0  0  0  0  0
   24.9317  -23.9413  -14.0212 O   0  0  0  0  0  0  0  0  0  0  0  0
   24.3024  -23.1911  -14.9839 C   0  0  0  0  0  0  0  0  0  0  0  0
   23.7470  -21.8801  -14.4471 C   0  0  2  0  0  0  0  0  0  0  0  0
   24.7620  -21.0781  -13.8293 N   0  0  0  0  0  0  0  0  0  0  0  0
   22.5759  -22.1072  -13.5746 C   0  0  0  0  0  0  0  0  0  0  0  0
   21.3241  -21.7594  -14.0618 O   0  0  0  0  0  0  0  0  0  0  0  0
   22.6372  -22.5951  -12.4190 O   0  0  0  0  0  0  0  0  0  0  0  0
  2  1  1  6
  3  2  1  0
  3  4  1  0
  4  5  2  0
  5  6  1  0
  7  6  2  0
  8  7  1  0
  9  4  1  0
  9  8  2  0
 10  2  1  0
 10 12  1  0
 11 10  2  0
 13 12  1  0
 13 14  1  0
 14 19  1  0
 15 14  2  0
 16 17  1  0
 18 20  1  0
 18 17  1  1
 19 18  1  0
 20 21  1  0
 22 20  2  0
M  END
$$$$
