FGS.pdb
     RDKit          3D

 22 22  0  0  1  0  0  0  0  0999 V2000
   25.2984  -21.0821   -8.3288 N   0  0  0  0  0  0  0  0  0  0  0  0
   26.4168  -20.3756   -8.9225 C   0  0  1  0  0  0  0  0  0  0  0  0
   27.6999  -20.6095   -8.1970 C   0  0  0  0  0  0  0  0  0  0  0  0
   27.6925  -20.0605   -6.8142 C   0  0  0  0  0  0  0  0  0  0  0  0
   27.7776  -18.6892   -6.6742 C   0  0  0  0  0  0  0  0  0  0  0  0
   27.7790  -18.0989   -5.4162 C   0  0  0  0  0  0  0  0  0  0  0  0
   27.6932  -18.9148   -4.3086 C   0  0  0  0  0  0  0  0  0  0  0  0
   27.6079  -20.2833   -4.4373 C   0  0  0  0  0  0  0  0  0  0  0  0
   27.6096  -20.8290   -5.6989 C   0  0  0  0  0  0  0  0  0  0  0  0
   26.5523  -20.7705  -10.3261 C   0  0  0  0  0  0  0  0  0  0  0  0
   26.4674  -21.9854  -10.6806 O   0  0  0  0  0  0  0  0  0  0  0  0
   26.7849  -19.8210  -11.3636 N   0  0  0  0  0  0  0  0  0  0  0  0
   27.0465  -20.1750  -12.7222 C   0  0  0  0  0  0  0  0  0  0  0  0
   25.7788  -20.3868  -13.4897 C   0  0  0  0  0  0  0  0  0  0  0  0
   25.8226  -20.3739  -14.7440 O   0  0  0  0  0  0  0  0  0  0  0  0
   21.7039  -19.8044  -12.1476 O   0  0  0  0  0  0  0  0  0  0  0  0
   22.1234  -20.9982  -12.6806 C   0  0  0  0  0  0  0  0  0  0  0  0
   23.3360  -20.8507  -13.5879 C   0  0  2  0  0  0  0  0  0  0  0  0
   24.5366  -20.6004  -12.8457 N   0  0  0  0  0  0  0  0  0  0  0  0
   23.0946  -19.8557  -14.6538 C   0  0  0  0  0  0  0  0  0  0  0  0
   23.4481  -18.5371  -14.4055 O   0  0  0  0  0  0  0  0  0  0  0  0
   22.5897  -20.1237  -15.7721 O   0  0  0  0  0  0  0  0  0  0  0  0
  2  1  1  1
  3  2  1  0
  3  4  1  0
  4  5  2  0
  5  6  1  0
  7  6  2  0
  8  7  1  0
  9  4  1  0
  9  8  2  0
 10  2  1  0
 10 12  1  0
 11 10  2  0
 13 12  1  0
 13 14  1  0
 14 19  1  0
 15 14  2  0
 16 17  1  0
 18 20  1  0
 18 17  1  1
 19 18  1  0
 20 21  1  0
 22 20  2  0
M  END
$$$$
