FGS.pdb
     RDKit          3D

 22 22  0  0  1  0  0  0  0  0999 V2000
   26.3654  -33.8211  -12.4781 N   0  0  0  0  0  0  0  0  0  0  0  0
   24.9489  -33.7140  -12.1877 C   0  0  1  0  0  0  0  0  0  0  0  0
   24.2589  -35.0373  -12.1767 C   0  0  0  0  0  0  0  0  0  0  0  0
   24.2610  -35.7036  -13.5070 C   0  0  0  0  0  0  0  0  0  0  0  0
   23.4929  -35.1349  -14.5039 C   0  0  0  0  0  0  0  0  0  0  0  0
   23.4400  -35.6982  -15.7732 C   0  0  0  0  0  0  0  0  0  0  0  0
   24.1734  -36.8399  -16.0153 C   0  0  0  0  0  0  0  0  0  0  0  0
   24.9426  -37.4148  -15.0281 C   0  0  0  0  0  0  0  0  0  0  0  0
   24.9685  -36.8275  -13.7855 C   0  0  0  0  0  0  0  0  0  0  0  0
   24.7653  -33.0392  -10.9011 C   0  0  0  0  0  0  0  0  0  0  0  0
   23.6081  -32.8220  -10.4294 O   0  0  0  0  0  0  0  0  0  0  0  0
   25.8664  -32.5924  -10.1136 N   0  0  0  0  0  0  0  0  0  0  0  0
   25.7279  -31.9256   -8.8583 C   0  0  0  0  0  0  0  0  0  0  0  0
   26.2699  -32.7515   -7.7335 C   0  0  0  0  0  0  0  0  0  0  0  0
   26.6666  -33.9173   -7.9766 O   0  0  0  0  0  0  0  0  0  0  0  0
   27.6665  -32.9328   -3.0519 O   0  0  0  0  0  0  0  0  0  0  0  0
   27.0603  -32.2293   -4.0633 C   0  0  0  0  0  0  0  0  0  0  0  0
   26.9367  -33.0287   -5.3522 C   0  0  2  0  0  0  0  0  0  0  0  0
   26.3480  -32.2592   -6.4088 N   0  0  0  0  0  0  0  0  0  0  0  0
   26.2530  -34.3189   -5.1235 C   0  0  0  0  0  0  0  0  0  0  0  0
   24.8723  -34.3563   -5.2563 O   0  0  0  0  0  0  0  0  0  0  0  0
   26.8387  -35.3865   -4.8163 O   0  0  0  0  0  0  0  0  0  0  0  0
  2  1  1  1
  3  2  1  0
  3  4  1  0
  4  5  2  0
  5  6  1  0
  7  6  2  0
  8  7  1  0
  9  4  1  0
  9  8  2  0
 10  2  1  0
 10 12  1  0
 11 10  2  0
 13 12  1  0
 13 14  1  0
 14 19  1  0
 15 14  2  0
 16 17  1  0
 18 20  1  0
 18 17  1  1
 19 18  1  0
 20 21  1  0
 22 20  2  0
M  END
$$$$
