FGS.pdb
     RDKit          3D

 22 22  0  0  1  0  0  0  0  0999 V2000
   23.9366  -18.5091  -16.1729 N   0  0  0  0  0  0  0  0  0  0  0  0
   24.3841  -18.7164  -14.8094 C   0  0  1  0  0  0  0  0  0  0  0  0
   25.3510  -17.6752  -14.3532 C   0  0  0  0  0  0  0  0  0  0  0  0
   26.5947  -17.6416  -15.1691 C   0  0  0  0  0  0  0  0  0  0  0  0
   27.6154  -18.4989  -14.8077 C   0  0  0  0  0  0  0  0  0  0  0  0
   28.8095  -18.5264  -15.5179 C   0  0  0  0  0  0  0  0  0  0  0  0
   28.9527  -17.6767  -16.5937 C   0  0  0  0  0  0  0  0  0  0  0  0
   27.9410  -16.8181  -16.9624 C   0  0  0  0  0  0  0  0  0  0  0  0
   26.7749  -16.8208  -16.2345 C   0  0  0  0  0  0  0  0  0  0  0  0
   23.2240  -18.7527  -13.9165 C   0  0  0  0  0  0  0  0  0  0  0  0
   22.3248  -17.8594  -13.9668 O   0  0  0  0  0  0  0  0  0  0  0  0
   23.0413  -19.7841  -12.9496 N   0  0  0  0  0  0  0  0  0  0  0  0
   22.0174  -19.7690  -11.9541 C   0  0  0  0  0  0  0  0  0  0  0  0
   20.7706  -20.4426  -12.4366 C   0  0  0  0  0  0  0  0  0  0  0  0
   19.8130  -20.5849  -11.6378 O   0  0  0  0  0  0  0  0  0  0  0  0
   19.7793  -20.3046  -16.1986 O   0  0  0  0  0  0  0  0  0  0  0  0
   18.8624  -20.9990  -15.4485 C   0  0  0  0  0  0  0  0  0  0  0  0
   19.4665  -21.6210  -14.1981 C   0  0  2  0  0  0  0  0  0  0  0  0
   20.6397  -20.9222  -13.7618 N   0  0  0  0  0  0  0  0  0  0  0  0
   19.6857  -23.0726  -14.3694 C   0  0  0  0  0  0  0  0  0  0  0  0
   18.5992  -23.8570  -14.7291 O   0  0  0  0  0  0  0  0  0  0  0  0
   20.7921  -23.6455  -14.2112 O   0  0  0  0  0  0  0  0  0  0  0  0
  2  1  1  6
  3  2  1  0
  3  4  1  0
  4  5  2  0
  5  6  1  0
  7  6  2  0
  8  7  1  0
  9  4  1  0
  9  8  2  0
 10  2  1  0
 10 12  1  0
 11 10  2  0
 13 12  1  0
 13 14  1  0
 14 19  1  0
 15 14  2  0
 16 17  1  0
 18 20  1  0
 18 17  1  6
 19 18  1  0
 20 21  1  0
 22 20  2  0
M  END
$$$$
