FGS.pdb
     RDKit          3D

 22 22  0  0  1  0  0  0  0  0999 V2000
   25.3006  -12.5849  -16.5618 N   0  0  0  0  0  0  0  0  0  0  0  0
   24.3668  -11.6283  -17.1234 C   0  0  1  0  0  0  0  0  0  0  0  0
   23.5498  -12.2005  -18.2335 C   0  0  0  0  0  0  0  0  0  0  0  0
   24.3766  -12.8435  -19.2902 C   0  0  0  0  0  0  0  0  0  0  0  0
   24.4522  -14.2225  -19.2869 C   0  0  0  0  0  0  0  0  0  0  0  0
   25.2054  -14.8982  -20.2393 C   0  0  0  0  0  0  0  0  0  0  0  0
   25.8770  -14.1594  -21.1895 C   0  0  0  0  0  0  0  0  0  0  0  0
   25.8082  -12.7840  -21.2016 C   0  0  0  0  0  0  0  0  0  0  0  0
   25.0525  -12.1525  -20.2426 C   0  0  0  0  0  0  0  0  0  0  0  0
   23.4926  -11.1216  -16.0635 C   0  0  0  0  0  0  0  0  0  0  0  0
   23.1104  -11.8670  -15.1110 O   0  0  0  0  0  0  0  0  0  0  0  0
   23.0259   -9.7747  -16.0425 N   0  0  0  0  0  0  0  0  0  0  0  0
   22.2462   -9.2194  -14.9827 C   0  0  0  0  0  0  0  0  0  0  0  0
   22.0046   -7.7560  -15.1856 C   0  0  0  0  0  0  0  0  0  0  0  0
   22.5432   -7.1848  -16.1649 O   0  0  0  0  0  0  0  0  0  0  0  0
   19.5761   -3.7395  -13.8314 O   0  0  0  0  0  0  0  0  0  0  0  0
   19.8013   -5.0841  -13.6680 C   0  0  0  0  0  0  0  0  0  0  0  0
   20.9500   -5.6023  -14.5210 C   0  0  2  0  0  0  0  0  0  0  0  0
   21.1901   -6.9997  -14.3093 N   0  0  0  0  0  0  0  0  0  0  0  0
   22.1623   -4.7735  -14.3546 C   0  0  0  0  0  0  0  0  0  0  0  0
   22.3838   -3.7535  -15.2688 O   0  0  0  0  0  0  0  0  0  0  0  0
   23.0077   -4.9305  -13.4393 O   0  0  0  0  0  0  0  0  0  0  0  0
  2  1  1  1
  3  2  1  0
  3  4  1  0
  4  5  2  0
  5  6  1  0
  7  6  2  0
  8  7  1  0
  9  4  1  0
  9  8  2  0
 10  2  1  0
 10 12  1  0
 11 10  2  0
 13 12  1  0
 13 14  1  0
 14 19  1  0
 15 14  2  0
 16 17  1  0
 18 20  1  0
 18 17  1  1
 19 18  1  0
 20 21  1  0
 22 20  2  0
M  END
$$$$
