FGS.pdb
     RDKit          3D

 22 22  0  0  1  0  0  0  0  0999 V2000
   25.4813  -20.8743   -7.3050 N   0  0  0  0  0  0  0  0  0  0  0  0
   26.4416  -20.3556   -8.2595 C   0  0  1  0  0  0  0  0  0  0  0  0
   27.8533  -20.5044   -7.7989 C   0  0  0  0  0  0  0  0  0  0  0  0
   28.0722  -19.9833   -6.4226 C   0  0  0  0  0  0  0  0  0  0  0  0
   27.8394  -18.6392   -6.2072 C   0  0  0  0  0  0  0  0  0  0  0  0
   28.0229  -18.0754   -4.9504 C   0  0  0  0  0  0  0  0  0  0  0  0
   28.4434  -18.8899   -3.9211 C   0  0  0  0  0  0  0  0  0  0  0  0
   28.6782  -20.2316   -4.1252 C   0  0  0  0  0  0  0  0  0  0  0  0
   28.4853  -20.7515   -5.3830 C   0  0  0  0  0  0  0  0  0  0  0  0
   26.2585  -21.0269   -9.5480 C   0  0  0  0  0  0  0  0  0  0  0  0
   26.9657  -22.0271   -9.8770 O   0  0  0  0  0  0  0  0  0  0  0  0
   25.2843  -20.5983  -10.4964 N   0  0  0  0  0  0  0  0  0  0  0  0
   25.3310  -20.9221  -11.8866 C   0  0  0  0  0  0  0  0  0  0  0  0
   24.1771  -20.3248  -12.6299 C   0  0  0  0  0  0  0  0  0  0  0  0
   24.0428  -19.0768  -12.6355 O   0  0  0  0  0  0  0  0  0  0  0  0
   21.0418  -22.7107  -14.1775 O   0  0  0  0  0  0  0  0  0  0  0  0
   21.3667  -21.5579  -14.8490 C   0  0  0  0  0  0  0  0  0  0  0  0
   22.0961  -20.5472  -13.9762 C   0  0  2  0  0  0  0  0  0  0  0  0
   23.2360  -21.1222  -13.3242 N   0  0  0  0  0  0  0  0  0  0  0  0
   21.1705  -19.8746  -13.0407 C   0  0  0  0  0  0  0  0  0  0  0  0
   21.2777  -20.1750  -11.6903 O   0  0  0  0  0  0  0  0  0  0  0  0
   20.2911  -19.0473  -13.3863 O   0  0  0  0  0  0  0  0  0  0  0  0
  2  1  1  1
  3  2  1  0
  3  4  1  0
  4  5  2  0
  5  6  1  0
  7  6  2  0
  8  7  1  0
  9  4  1  0
  9  8  2  0
 10  2  1  0
 10 12  1  0
 11 10  2  0
 13 12  1  0
 13 14  1  0
 14 19  1  0
 15 14  2  0
 16 17  1  0
 18 20  1  0
 18 17  1  1
 19 18  1  0
 20 21  1  0
 22 20  2  0
M  END
$$$$
