APW.pdb
     RDKit          3D

 27 29  0  0  1  0  0  0  0  0999 V2000
   25.1964  -22.0044  -16.7624 C   0  0  0  0  0  0  0  0  0  0  0  0
   26.7031  -21.7787  -16.8575 C   0  0  2  0  0  0  0  0  0  0  0  0
   27.2625  -22.9153  -17.4927 N   0  0  0  0  0  0  0  0  0  0  0  0
   27.2307  -21.4111  -15.5499 C   0  0  0  0  0  0  0  0  0  0  0  0
   27.7545  -22.3826  -14.8907 O   0  0  0  0  0  0  0  0  0  0  0  0
   27.2342  -20.1433  -14.9357 N   0  0  0  0  0  0  0  0  0  0  0  0
   26.7403  -18.8750  -15.4231 C   0  0  0  0  0  0  0  0  0  0  0  0
   27.8528  -17.9292  -14.9401 C   0  0  0  0  0  0  0  0  0  0  0  0
   27.9611  -18.3770  -13.4985 C   0  0  0  0  0  0  0  0  0  0  0  0
   27.7637  -19.8484  -13.5971 C   0  0  1  0  0  0  0  0  0  0  0  0
   26.8570  -20.3878  -12.5525 C   0  0  0  0  0  0  0  0  0  0  0  0
   25.6372  -20.4953  -12.8340 O   0  0  0  0  0  0  0  0  0  0  0  0
   27.2792  -20.7870  -11.2647 N   0  0  0  0  0  0  0  0  0  0  0  0
   26.3345  -21.3584  -10.2736 C   0  0  1  0  0  0  0  0  0  0  0  0
   27.1118  -21.6838   -9.0486 C   0  0  0  0  0  0  0  0  0  0  0  0
   27.2389  -20.6096   -8.0544 C   0  0  0  0  0  0  0  0  0  0  0  0
   26.6006  -19.3574   -8.1286 C   0  0  0  0  0  0  0  0  0  0  0  0
   26.9649  -18.6117   -7.0775 N   0  0  0  0  0  0  0  0  0  0  0  0
   27.8192  -19.2944   -6.2904 C   0  0  0  0  0  0  0  0  0  0  0  0
   28.4400  -18.9549   -5.1074 C   0  0  0  0  0  0  0  0  0  0  0  0
   29.2679  -19.8876   -4.4925 C   0  0  0  0  0  0  0  0  0  0  0  0
   29.4491  -21.1271   -5.0775 C   0  0  0  0  0  0  0  0  0  0  0  0
   28.8242  -21.4503   -6.2571 C   0  0  0  0  0  0  0  0  0  0  0  0
   27.9865  -20.5270   -6.8949 C   0  0  0  0  0  0  0  0  0  0  0  0
   25.2447  -20.4217  -10.0326 C   0  0  0  0  0  0  0  0  0  0  0  0
   24.0198  -20.8968   -9.5437 O   0  0  0  0  0  0  0  0  0  0  0  0
   25.3020  -19.1869  -10.2289 O   0  0  0  0  0  0  0  0  0  0  0  0
  2  4  1  0
  2  1  1  1
  3  2  1  0
  4  6  1  0
  5  4  2  0
  6  7  1  0
  6 10  1  0
  7  8  1  0
  9  8  1  0
 10  9  1  0
 11 13  1  0
 10 11  1  1
 12 11  2  0
 14 15  1  1
 14 13  1  0
 15 16  1  0
 16 17  2  0
 18 17  1  0
 19 18  1  0
 20 19  2  0
 21 20  1  0
 22 21  2  0
 22 23  1  0
 23 24  2  0
 24 19  1  0
 24 16  1  0
 25 14  1  0
 25 26  1  0
 27 25  2  0
M  END
$$$$
