APW.pdb
     RDKit          3D

 27 29  0  0  1  0  0  0  0  0999 V2000
   22.1836  -14.4796  -19.4254 C   0  0  0  0  0  0  0  0  0  0  0  0
   22.3721  -15.1372  -18.0608 C   0  0  2  0  0  0  0  0  0  0  0  0
   21.3757  -16.1364  -17.9308 N   0  0  0  0  0  0  0  0  0  0  0  0
   22.4384  -14.1145  -17.0249 C   0  0  0  0  0  0  0  0  0  0  0  0
   21.2973  -13.7478  -16.5598 O   0  0  0  0  0  0  0  0  0  0  0  0
   23.5813  -13.4932  -16.4844 N   0  0  0  0  0  0  0  0  0  0  0  0
   24.9781  -13.6770  -16.8090 C   0  0  0  0  0  0  0  0  0  0  0  0
   25.6060  -13.6393  -15.4055 C   0  0  0  0  0  0  0  0  0  0  0  0
   24.9484  -12.3882  -14.8646 C   0  0  0  0  0  0  0  0  0  0  0  0
   23.5745  -12.4702  -15.4296 C   0  0  1  0  0  0  0  0  0  0  0  0
   23.0859  -11.1759  -15.9685 C   0  0  0  0  0  0  0  0  0  0  0  0
   23.3218  -10.9170  -17.1750 O   0  0  0  0  0  0  0  0  0  0  0  0
   22.3737  -10.2194  -15.2108 N   0  0  0  0  0  0  0  0  0  0  0  0
   21.8777   -8.9568  -15.8117 C   0  0  1  0  0  0  0  0  0  0  0  0
   20.8516   -9.3154  -16.8262 C   0  0  0  0  0  0  0  0  0  0  0  0
   19.6227   -9.9384  -16.3163 C   0  0  0  0  0  0  0  0  0  0  0  0
   18.9165   -9.5199  -15.1730 C   0  0  0  0  0  0  0  0  0  0  0  0
   17.8677  -10.3299  -14.9792 N   0  0  0  0  0  0  0  0  0  0  0  0
   17.8241  -11.2791  -15.9345 C   0  0  0  0  0  0  0  0  0  0  0  0
   16.9337  -12.3070  -16.1597 C   0  0  0  0  0  0  0  0  0  0  0  0
   17.1284  -13.1341  -17.2604 C   0  0  0  0  0  0  0  0  0  0  0  0
   18.2040  -12.9086  -18.0994 C   0  0  0  0  0  0  0  0  0  0  0  0
   19.0831  -11.8807  -17.8612 C   0  0  0  0  0  0  0  0  0  0  0  0
   18.9076  -11.0353  -16.7586 C   0  0  0  0  0  0  0  0  0  0  0  0
   21.3715   -8.0772  -14.7662 C   0  0  0  0  0  0  0  0  0  0  0  0
   21.0890   -6.7374  -15.0662 O   0  0  0  0  0  0  0  0  0  0  0  0
   21.1576   -8.4188  -13.5812 O   0  0  0  0  0  0  0  0  0  0  0  0
  2  4  1  0
  2  1  1  6
  3  2  1  0
  4  6  1  0
  5  4  2  0
  6  7  1  0
  6 10  1  0
  7  8  1  0
  9  8  1  0
 10  9  1  0
 11 13  1  0
 10 11  1  6
 12 11  2  0
 14 15  1  6
 14 13  1  0
 15 16  1  0
 16 17  2  0
 18 17  1  0
 19 18  1  0
 20 19  2  0
 21 20  1  0
 22 21  2  0
 22 23  1  0
 23 24  2  0
 24 19  1  0
 24 16  1  0
 25 14  1  0
 25 26  1  0
 27 25  2  0
M  END
$$$$
