APW.pdb
     RDKit          3D

 27 29  0  0  1  0  0  0  0  0999 V2000
   15.8611  -13.5189  -19.1912 C   0  0  0  0  0  0  0  0  0  0  0  0
   16.6480  -13.0556  -20.4144 C   0  0  2  0  0  0  0  0  0  0  0  0
   17.4886  -14.1265  -20.8079 N   0  0  0  0  0  0  0  0  0  0  0  0
   17.2792  -11.7717  -20.1382 C   0  0  0  0  0  0  0  0  0  0  0  0
   18.5231  -11.8429  -19.8211 O   0  0  0  0  0  0  0  0  0  0  0  0
   16.6993  -10.4884  -20.1765 N   0  0  0  0  0  0  0  0  0  0  0  0
   15.3174  -10.0996  -20.3480 C   0  0  0  0  0  0  0  0  0  0  0  0
   15.4742   -8.8881  -21.2824 C   0  0  0  0  0  0  0  0  0  0  0  0
   16.5534   -8.1303  -20.5397 C   0  0  0  0  0  0  0  0  0  0  0  0
   17.4286   -9.2210  -20.0318 C   0  0  1  0  0  0  0  0  0  0  0  0
   17.8483   -9.0246  -18.6213 C   0  0  0  0  0  0  0  0  0  0  0  0
   17.0956   -9.4689  -17.7187 O   0  0  0  0  0  0  0  0  0  0  0  0
   19.0386   -8.3708  -18.2315 N   0  0  0  0  0  0  0  0  0  0  0  0
   19.3568   -8.1088  -16.8063 C   0  0  1  0  0  0  0  0  0  0  0  0
   20.7993   -8.4086  -16.6061 C   0  0  0  0  0  0  0  0  0  0  0  0
   21.3858   -7.9636  -15.3347 C   0  0  0  0  0  0  0  0  0  0  0  0
   21.6452   -8.7933  -14.2278 C   0  0  0  0  0  0  0  0  0  0  0  0
   22.1469   -8.0554  -13.2291 N   0  0  0  0  0  0  0  0  0  0  0  0
   22.2428   -6.7640  -13.6013 C   0  0  0  0  0  0  0  0  0  0  0  0
   22.7099   -5.6534  -12.9315 C   0  0  0  0  0  0  0  0  0  0  0  0
   22.7122   -4.4268  -13.5863 C   0  0  0  0  0  0  0  0  0  0  0  0
   22.2487   -4.3485  -14.8866 C   0  0  0  0  0  0  0  0  0  0  0  0
   21.7856   -5.4639  -15.5404 C   0  0  0  0  0  0  0  0  0  0  0  0
   21.7731   -6.7098  -14.9010 C   0  0  0  0  0  0  0  0  0  0  0  0
   19.0003   -6.7381  -16.4642 C   0  0  0  0  0  0  0  0  0  0  0  0
   18.5434   -6.4442  -15.1719 O   0  0  0  0  0  0  0  0  0  0  0  0
   19.0661   -5.7623  -17.2454 O   0  0  0  0  0  0  0  0  0  0  0  0
  2  4  1  0
  2  1  1  1
  3  2  1  0
  4  6  1  0
  5  4  2  0
  6  7  1  0
  6 10  1  0
  7  8  1  0
  9  8  1  0
 10  9  1  0
 11 13  1  0
 10 11  1  1
 12 11  2  0
 14 15  1  6
 14 13  1  0
 15 16  1  0
 16 17  2  0
 18 17  1  0
 19 18  1  0
 20 19  2  0
 21 20  1  0
 22 21  2  0
 22 23  1  0
 23 24  2  0
 24 19  1  0
 24 16  1  0
 25 14  1  0
 25 26  1  0
 27 25  2  0
M  END
$$$$
