APW.pdb
     RDKit          3D

 27 29  0  0  1  0  0  0  0  0999 V2000
   26.5921  -16.5485  -13.2887 C   0  0  0  0  0  0  0  0  0  0  0  0
   26.0991  -17.5977  -14.2817 C   0  0  2  0  0  0  0  0  0  0  0  0
   24.8317  -17.1732  -14.7524 N   0  0  0  0  0  0  0  0  0  0  0  0
   26.1847  -18.9232  -13.6826 C   0  0  0  0  0  0  0  0  0  0  0  0
   25.1358  -19.2874  -13.0345 O   0  0  0  0  0  0  0  0  0  0  0  0
   27.2588  -19.8335  -13.7285 N   0  0  0  0  0  0  0  0  0  0  0  0
   28.5876  -19.6737  -14.2753 C   0  0  0  0  0  0  0  0  0  0  0  0
   28.7920  -21.0465  -14.9380 C   0  0  0  0  0  0  0  0  0  0  0  0
   28.3740  -21.9468  -13.7956 C   0  0  0  0  0  0  0  0  0  0  0  0
   27.2389  -21.2003  -13.1891 C   0  0  1  0  0  0  0  0  0  0  0  0
   27.2850  -21.1708  -11.7054 C   0  0  0  0  0  0  0  0  0  0  0  0
   28.3224  -21.6016  -11.1427 O   0  0  0  0  0  0  0  0  0  0  0  0
   26.2374  -20.6894  -10.8887 N   0  0  0  0  0  0  0  0  0  0  0  0
   25.8597  -21.3636   -9.6221 C   0  0  1  0  0  0  0  0  0  0  0  0
   27.0739  -21.4230   -8.7661 C   0  0  0  0  0  0  0  0  0  0  0  0
   27.2685  -20.3036   -7.8347 C   0  0  0  0  0  0  0  0  0  0  0  0
   26.7931  -18.9936   -8.0320 C   0  0  0  0  0  0  0  0  0  0  0  0
   27.1791  -18.2234   -7.0066 N   0  0  0  0  0  0  0  0  0  0  0  0
   27.8933  -18.9441   -6.1201 C   0  0  0  0  0  0  0  0  0  0  0  0
   28.4758  -18.5970   -4.9200 C   0  0  0  0  0  0  0  0  0  0  0  0
   29.1442  -19.5745   -4.1911 C   0  0  0  0  0  0  0  0  0  0  0  0
   29.2094  -20.8649   -4.6831 C   0  0  0  0  0  0  0  0  0  0  0  0
   28.6247  -21.1952   -5.8811 C   0  0  0  0  0  0  0  0  0  0  0  0
   27.9468  -20.2274   -6.6329 C   0  0  0  0  0  0  0  0  0  0  0  0
   24.7488  -20.6567   -8.9982 C   0  0  0  0  0  0  0  0  0  0  0  0
   24.1609  -21.1792   -7.8378 O   0  0  0  0  0  0  0  0  0  0  0  0
   24.2518  -19.5870   -9.4171 O   0  0  0  0  0  0  0  0  0  0  0  0
  2  4  1  0
  2  1  1  1
  3  2  1  0
  4  6  1  0
  5  4  2  0
  6  7  1  0
  6 10  1  0
  7  8  1  0
  9  8  1  0
 10  9  1  0
 11 13  1  0
 10 11  1  1
 12 11  2  0
 14 15  1  1
 14 13  1  0
 15 16  1  0
 16 17  2  0
 18 17  1  0
 19 18  1  0
 20 19  2  0
 21 20  1  0
 22 21  2  0
 22 23  1  0
 23 24  2  0
 24 19  1  0
 24 16  1  0
 25 14  1  0
 25 26  1  0
 27 25  2  0
M  END
$$$$
