APW.pdb
     RDKit          3D

 27 29  0  0  1  0  0  0  0  0999 V2000
   29.0785  -18.1125  -14.0026 C   0  0  0  0  0  0  0  0  0  0  0  0
   27.7485  -18.3430  -14.7153 C   0  0  2  0  0  0  0  0  0  0  0  0
   27.2507  -17.0745  -15.1042 N   0  0  0  0  0  0  0  0  0  0  0  0
   26.8859  -19.1806  -13.8920 C   0  0  0  0  0  0  0  0  0  0  0  0
   26.1213  -18.5336  -13.0860 O   0  0  0  0  0  0  0  0  0  0  0  0
   26.7931  -20.5862  -13.8753 N   0  0  0  0  0  0  0  0  0  0  0  0
   27.4731  -21.5705  -14.6870 C   0  0  0  0  0  0  0  0  0  0  0  0
   26.3298  -22.5651  -14.9495 C   0  0  0  0  0  0  0  0  0  0  0  0
   25.8141  -22.7405  -13.5375 C   0  0  0  0  0  0  0  0  0  0  0  0
   25.9436  -21.3716  -12.9693 C   0  0  1  0  0  0  0  0  0  0  0  0
   26.5049  -21.3599  -11.5949 C   0  0  0  0  0  0  0  0  0  0  0  0
   27.7357  -21.5751  -11.4627 O   0  0  0  0  0  0  0  0  0  0  0  0
   25.7432  -21.1222  -10.4290 N   0  0  0  0  0  0  0  0  0  0  0  0
   26.2941  -21.3607   -9.0722 C   0  0  1  0  0  0  0  0  0  0  0  0
   27.5378  -20.5558   -8.9450 C   0  0  0  0  0  0  0  0  0  0  0  0
   27.6868  -19.7803   -7.7062 C   0  0  0  0  0  0  0  0  0  0  0  0
   27.1192  -18.5143   -7.4697 C   0  0  0  0  0  0  0  0  0  0  0  0
   27.4853  -18.0847   -6.2552 N   0  0  0  0  0  0  0  0  0  0  0  0
   28.2736  -18.9959   -5.6523 C   0  0  0  0  0  0  0  0  0  0  0  0
   28.8694  -19.0074   -4.4093 C   0  0  0  0  0  0  0  0  0  0  0  0
   29.6242  -20.1145   -4.0374 C   0  0  0  0  0  0  0  0  0  0  0  0
   29.7596  -21.1726   -4.9170 C   0  0  0  0  0  0  0  0  0  0  0  0
   29.1605  -21.1459   -6.1525 C   0  0  0  0  0  0  0  0  0  0  0  0
   28.3962  -20.0415   -6.5492 C   0  0  0  0  0  0  0  0  0  0  0  0
   25.2911  -21.0341   -8.0670 C   0  0  0  0  0  0  0  0  0  0  0  0
   24.1769  -20.2632   -8.4268 O   0  0  0  0  0  0  0  0  0  0  0  0
   25.3329  -21.3907   -6.8680 O   0  0  0  0  0  0  0  0  0  0  0  0
  2  4  1  0
  2  1  1  1
  3  2  1  0
  4  6  1  0
  5  4  2  0
  6  7  1  0
  6 10  1  0
  7  8  1  0
  9  8  1  0
 10  9  1  0
 11 13  1  0
 10 11  1  1
 12 11  2  0
 14 15  1  1
 14 13  1  0
 15 16  1  0
 16 17  2  0
 18 17  1  0
 19 18  1  0
 20 19  2  0
 21 20  1  0
 22 21  2  0
 22 23  1  0
 23 24  2  0
 24 19  1  0
 24 16  1  0
 25 14  1  0
 25 26  1  0
 27 25  2  0
M  END
$$$$
