APW.pdb
     RDKit          3D

 27 29  0  0  1  0  0  0  0  0999 V2000
   26.6471  -16.9356  -16.4421 C   0  0  0  0  0  0  0  0  0  0  0  0
   26.9915  -18.3463  -16.9124 C   0  0  2  0  0  0  0  0  0  0  0  0
   26.8119  -18.3801  -18.3177 N   0  0  0  0  0  0  0  0  0  0  0  0
   26.2603  -19.3242  -16.1172 C   0  0  0  0  0  0  0  0  0  0  0  0
   25.0697  -19.5721  -16.5343 O   0  0  0  0  0  0  0  0  0  0  0  0
   26.6948  -20.0153  -14.9691 N   0  0  0  0  0  0  0  0  0  0  0  0
   27.9505  -19.9341  -14.2573 C   0  0  0  0  0  0  0  0  0  0  0  0
   28.1951  -21.4184  -13.9371 C   0  0  0  0  0  0  0  0  0  0  0  0
   26.8414  -21.7837  -13.3675 C   0  0  0  0  0  0  0  0  0  0  0  0
   25.9056  -21.0048  -14.2226 C   0  0  1  0  0  0  0  0  0  0  0  0
   24.8307  -20.3321  -13.4504 C   0  0  0  0  0  0  0  0  0  0  0  0
   25.1249  -19.2788  -12.8319 O   0  0  0  0  0  0  0  0  0  0  0  0
   23.5006  -20.8013  -13.3680 N   0  0  0  0  0  0  0  0  0  0  0  0
   22.5784  -20.3547  -12.2950 C   0  0  1  0  0  0  0  0  0  0  0  0
   22.0556  -19.0172  -12.6805 C   0  0  0  0  0  0  0  0  0  0  0  0
   21.2919  -18.9540  -13.9339 C   0  0  0  0  0  0  0  0  0  0  0  0
   20.0047  -19.4898  -14.1262 C   0  0  0  0  0  0  0  0  0  0  0  0
   19.6244  -19.2843  -15.3938 N   0  0  0  0  0  0  0  0  0  0  0  0
   20.5885  -18.6342  -16.0743 C   0  0  0  0  0  0  0  0  0  0  0  0
   20.6462  -18.1945  -17.3795 C   0  0  0  0  0  0  0  0  0  0  0  0
   21.7818  -17.5170  -17.8095 C   0  0  0  0  0  0  0  0  0  0  0  0
   22.8215  -17.3007  -16.9242 C   0  0  0  0  0  0  0  0  0  0  0  0
   22.7495  -17.7458  -15.6269 C   0  0  0  0  0  0  0  0  0  0  0  0
   21.6163  -18.4310  -15.1714 C   0  0  0  0  0  0  0  0  0  0  0  0
   21.5307  -21.3482  -12.0986 C   0  0  0  0  0  0  0  0  0  0  0  0
   20.5955  -21.1728  -11.0692 O   0  0  0  0  0  0  0  0  0  0  0  0
   21.3824  -22.3819  -12.7885 O   0  0  0  0  0  0  0  0  0  0  0  0
  2  4  1  0
  2  1  1  1
  3  2  1  0
  4  6  1  0
  5  4  2  0
  6  7  1  0
  6 10  1  0
  7  8  1  0
  9  8  1  0
 10  9  1  0
 11 13  1  0
 10 11  1  1
 12 11  2  0
 14 15  1  6
 14 13  1  0
 15 16  1  0
 16 17  2  0
 18 17  1  0
 19 18  1  0
 20 19  2  0
 21 20  1  0
 22 21  2  0
 22 23  1  0
 23 24  2  0
 24 19  1  0
 24 16  1  0
 25 14  1  0
 25 26  1  0
 27 25  2  0
M  END
$$$$
