CSD.pdb
     RDKit          3D

 21 20  0  0  1  0  0  0  0  0999 V2000
    8.1892  -14.2051   17.5704 N   0  0  0  0  0  0  0  0  0  0  0  0
    9.2944  -13.6369   18.2870 C   0  0  1  0  0  0  0  0  0  0  0  0
    8.7468  -13.1386   19.6268 C   0  0  0  0  0  0  0  0  0  0  0  0
    7.6489  -11.7380   19.2639 S   0  0  0  0  0  0  0  0  0  0  0  0
   10.3491  -14.6403   18.6038 C   0  0  0  0  0  0  0  0  0  0  0  0
   10.0230  -15.8504   18.3827 O   0  0  0  0  0  0  0  0  0  0  0  0
   14.3360  -14.1613   17.8804 O   0  0  0  0  0  0  0  0  0  0  0  0
   13.4989  -15.2675   17.8991 C   0  0  0  0  0  0  0  0  0  0  0  0
   12.6663  -15.3177   19.1680 C   0  0  2  0  0  0  0  0  0  0  0  0
   11.6158  -14.3226   19.1074 N   0  0  0  0  0  0  0  0  0  0  0  0
   13.4976  -15.1649   20.3781 C   0  0  0  0  0  0  0  0  0  0  0  0
   13.8322  -13.9966   20.7540 O   0  0  0  0  0  0  0  0  0  0  0  0
   13.9643  -16.2263   21.1719 N   0  0  0  0  0  0  0  0  0  0  0  0
   14.7570  -16.0657   22.3782 C   0  0  1  0  0  0  0  0  0  0  0  0
   14.7108  -17.2424   23.2764 C   0  0  0  0  0  0  0  0  0  0  0  0
   15.4850  -16.9695   24.5018 C   0  0  0  0  0  0  0  0  0  0  0  0
   16.6308  -16.4608   24.5526 O   0  0  0  0  0  0  0  0  0  0  0  0
   16.1580  -15.7825   21.9884 C   0  0  0  0  0  0  0  0  0  0  0  0
   16.9841  -15.3991   22.8616 O   0  0  0  0  0  0  0  0  0  0  0  0
   14.9092  -17.2994   25.7290 O   0  0  0  0  0  0  0  0  0  0  0  0
   16.6527  -15.9091   20.7056 O   0  0  0  0  0  0  0  0  0  0  0  0
  2  5  1  0
  2  1  1  6
  3  2  1  0
  4  3  1  0
  5  6  2  0
  8  7  1  0
  9  8  1  6
 10  9  1  0
 10  5  1  0
 11 13  1  0
 11  9  1  0
 12 11  2  0
 14 13  1  0
 14 15  1  1
 15 16  1  0
 16 20  1  0
 16 17  2  0
 18 14  1  0
 19 18  2  0
 21 18  1  0
M  END
$$$$
