CSD.pdb
     RDKit          3D

 21 20  0  0  1  0  0  0  0  0999 V2000
    8.1928  -12.9560   18.4892 N   0  0  0  0  0  0  0  0  0  0  0  0
    7.8050  -14.0793   19.2929 C   0  0  1  0  0  0  0  0  0  0  0  0
    8.2641  -15.3369   18.5507 C   0  0  0  0  0  0  0  0  0  0  0  0
    6.8649  -15.8956   17.5364 S   0  0  0  0  0  0  0  0  0  0  0  0
    8.4819  -14.0959   20.6199 C   0  0  0  0  0  0  0  0  0  0  0  0
    9.6844  -13.6791   20.6147 O   0  0  0  0  0  0  0  0  0  0  0  0
    6.5530  -14.9003   24.2784 O   0  0  0  0  0  0  0  0  0  0  0  0
    7.6248  -14.0259   24.1702 C   0  0  0  0  0  0  0  0  0  0  0  0
    8.5837  -14.4494   23.0716 C   0  0  2  0  0  0  0  0  0  0  0  0
    7.8809  -14.5279   21.8078 N   0  0  0  0  0  0  0  0  0  0  0  0
    9.2695  -15.7152   23.3976 C   0  0  0  0  0  0  0  0  0  0  0  0
    8.7928  -16.8080   22.9539 O   0  0  0  0  0  0  0  0  0  0  0  0
   10.4342  -15.8209   24.1767 N   0  0  0  0  0  0  0  0  0  0  0  0
   11.0919  -17.0724   24.5090 C   0  0  1  0  0  0  0  0  0  0  0  0
   12.5700  -16.9791   24.5165 C   0  0  0  0  0  0  0  0  0  0  0  0
   13.0582  -16.6340   23.1681 C   0  0  0  0  0  0  0  0  0  0  0  0
   12.5577  -17.0147   22.0824 O   0  0  0  0  0  0  0  0  0  0  0  0
   10.6074  -17.5231   25.8345 C   0  0  0  0  0  0  0  0  0  0  0  0
    9.8557  -16.7711   26.5137 O   0  0  0  0  0  0  0  0  0  0  0  0
   14.1789  -15.8091   23.0671 O   0  0  0  0  0  0  0  0  0  0  0  0
   10.9190  -18.7401   26.4076 O   0  0  0  0  0  0  0  0  0  0  0  0
  2  5  1  0
  2  1  1  6
  3  2  1  0
  4  3  1  0
  5  6  2  0
  8  7  1  0
  9  8  1  1
 10  9  1  0
 10  5  1  0
 11 13  1  0
 11  9  1  0
 12 11  2  0
 14 13  1  0
 14 15  1  1
 15 16  1  0
 16 20  1  0
 16 17  2  0
 18 14  1  0
 19 18  2  0
 21 18  1  0
M  END
$$$$
