CSD.pdb
     RDKit          3D

 21 20  0  0  1  0  0  0  0  0999 V2000
    7.8501  -12.9912   18.1965 N   0  0  0  0  0  0  0  0  0  0  0  0
    7.3681  -13.9801   19.1172 C   0  0  1  0  0  0  0  0  0  0  0  0
    7.5497  -15.3420   18.4425 C   0  0  0  0  0  0  0  0  0  0  0  0
    6.9932  -16.6005   19.6281 S   0  0  0  0  0  0  0  0  0  0  0  0
    8.1575  -14.0208   20.3800 C   0  0  0  0  0  0  0  0  0  0  0  0
    9.4100  -13.8472   20.2364 O   0  0  0  0  0  0  0  0  0  0  0  0
    6.5575  -14.6448   24.2732 O   0  0  0  0  0  0  0  0  0  0  0  0
    7.5628  -13.7217   24.0238 C   0  0  0  0  0  0  0  0  0  0  0  0
    8.4222  -14.1359   22.8424 C   0  0  2  0  0  0  0  0  0  0  0  0
    7.6066  -14.2309   21.6495 N   0  0  0  0  0  0  0  0  0  0  0  0
    9.1548  -15.3896   23.1075 C   0  0  0  0  0  0  0  0  0  0  0  0
    8.6511  -16.4924   22.7225 O   0  0  0  0  0  0  0  0  0  0  0  0
   10.3932  -15.4729   23.7662 N   0  0  0  0  0  0  0  0  0  0  0  0
   11.0349  -16.7151   24.1595 C   0  0  1  0  0  0  0  0  0  0  0  0
   12.4993  -16.5913   24.3428 C   0  0  0  0  0  0  0  0  0  0  0  0
   13.1794  -16.6985   23.0384 C   0  0  0  0  0  0  0  0  0  0  0  0
   14.4182  -16.7803   22.8568 O   0  0  0  0  0  0  0  0  0  0  0  0
   10.4076  -17.1943   25.4132 C   0  0  0  0  0  0  0  0  0  0  0  0
    9.6278  -16.4351   26.0515 O   0  0  0  0  0  0  0  0  0  0  0  0
   12.3920  -16.7121   21.8867 O   0  0  0  0  0  0  0  0  0  0  0  0
   10.6104  -18.4462   25.9592 O   0  0  0  0  0  0  0  0  0  0  0  0
  2  5  1  0
  2  1  1  6
  3  2  1  0
  4  3  1  0
  5  6  2  0
  8  7  1  0
  9  8  1  1
 10  9  1  0
 10  5  1  0
 11 13  1  0
 11  9  1  0
 12 11  2  0
 14 13  1  0
 14 15  1  1
 15 16  1  0
 16 20  1  0
 16 17  2  0
 18 14  1  0
 19 18  2  0
 21 18  1  0
M  END
$$$$
