CSD.pdb
     RDKit          3D

 21 20  0  0  1  0  0  0  0  0999 V2000
   -2.7082  -23.1852   27.1155 N   0  0  0  0  0  0  0  0  0  0  0  0
   -3.7882  -24.0445   27.5071 C   0  0  1  0  0  0  0  0  0  0  0  0
   -3.1728  -25.4024   27.8542 C   0  0  0  0  0  0  0  0  0  0  0  0
   -2.7018  -26.1885   26.2860 S   0  0  0  0  0  0  0  0  0  0  0  0
   -4.4858  -23.5662   28.7335 C   0  0  0  0  0  0  0  0  0  0  0  0
   -3.8106  -22.7675   29.4586 O   0  0  0  0  0  0  0  0  0  0  0  0
   -7.5759  -20.9335   30.1701 O   0  0  0  0  0  0  0  0  0  0  0  0
   -6.8333  -21.7628   29.3419 C   0  0  0  0  0  0  0  0  0  0  0  0
   -6.5762  -23.1131   29.9870 C   0  0  2  0  0  0  0  0  0  0  0  0
   -5.7839  -23.9397   29.1003 N   0  0  0  0  0  0  0  0  0  0  0  0
   -7.8311  -23.7810   30.3844 C   0  0  0  0  0  0  0  0  0  0  0  0
   -8.6372  -24.1693   29.4802 O   0  0  0  0  0  0  0  0  0  0  0  0
   -8.2233  -24.0314   31.7103 N   0  0  0  0  0  0  0  0  0  0  0  0
   -9.4424  -24.7226   32.0919 C   0  0  1  0  0  0  0  0  0  0  0  0
   -9.3870  -25.3121   33.4494 C   0  0  0  0  0  0  0  0  0  0  0  0
   -8.4625  -26.4613   33.4606 C   0  0  0  0  0  0  0  0  0  0  0  0
   -8.1334  -27.1530   32.4669 O   0  0  0  0  0  0  0  0  0  0  0  0
  -10.5736  -23.7704   32.0004 C   0  0  0  0  0  0  0  0  0  0  0  0
  -11.7510  -24.1780   32.1990 O   0  0  0  0  0  0  0  0  0  0  0  0
   -7.8893  -26.8307   34.6778 O   0  0  0  0  0  0  0  0  0  0  0  0
  -10.4424  -22.4273   31.7077 O   0  0  0  0  0  0  0  0  0  0  0  0
  2  5  1  0
  2  1  1  1
  3  2  1  0
  4  3  1  0
  5  6  2  0
  8  7  1  0
  9  8  1  6
 10  9  1  0
 10  5  1  0
 11 13  1  0
 11  9  1  0
 12 11  2  0
 14 13  1  0
 14 15  1  1
 15 16  1  0
 16 20  1  0
 16 17  2  0
 18 14  1  0
 19 18  2  0
 21 18  1  0
M  END
$$$$
