CSD.pdb
     RDKit          3D

 21 20  0  0  1  0  0  0  0  0999 V2000
   -3.2806  -22.6673   23.2000 N   0  0  0  0  0  0  0  0  0  0  0  0
   -3.4280  -21.9981   24.4604 C   0  0  1  0  0  0  0  0  0  0  0  0
   -4.1640  -20.6849   24.1834 C   0  0  0  0  0  0  0  0  0  0  0  0
   -2.9803  -19.5742   23.3684 S   0  0  0  0  0  0  0  0  0  0  0  0
   -4.2696  -22.7644   25.4215 C   0  0  0  0  0  0  0  0  0  0  0  0
   -5.3748  -23.1850   24.9510 O   0  0  0  0  0  0  0  0  0  0  0  0
   -3.2984  -23.5287   29.4900 O   0  0  0  0  0  0  0  0  0  0  0  0
   -3.9101  -24.4845   28.6917 C   0  0  0  0  0  0  0  0  0  0  0  0
   -4.7505  -23.8467   27.5996 C   0  0  2  0  0  0  0  0  0  0  0  0
   -3.9129  -23.0265   26.7493 N   0  0  0  0  0  0  0  0  0  0  0  0
   -5.8850  -23.0822   28.1539 C   0  0  0  0  0  0  0  0  0  0  0  0
   -5.7780  -21.8207   28.2778 O   0  0  0  0  0  0  0  0  0  0  0  0
   -7.1056  -23.6419   28.5681 N   0  0  0  0  0  0  0  0  0  0  0  0
   -8.2059  -22.8863   29.1405 C   0  0  1  0  0  0  0  0  0  0  0  0
   -9.4402  -23.6848   29.3206 C   0  0  0  0  0  0  0  0  0  0  0  0
  -10.5183  -22.8298   29.8517 C   0  0  0  0  0  0  0  0  0  0  0  0
  -10.7925  -22.6557   31.0636 O   0  0  0  0  0  0  0  0  0  0  0  0
   -7.7698  -22.3299   30.4424 C   0  0  0  0  0  0  0  0  0  0  0  0
   -8.4596  -21.4333   31.0012 O   0  0  0  0  0  0  0  0  0  0  0  0
  -11.3196  -22.1417   28.9401 O   0  0  0  0  0  0  0  0  0  0  0  0
   -6.6334  -22.7254   31.1197 O   0  0  0  0  0  0  0  0  0  0  0  0
  2  5  1  0
  2  1  1  6
  3  2  1  0
  4  3  1  0
  5  6  2  0
  8  7  1  0
  9  8  1  1
 10  9  1  0
 10  5  1  0
 11 13  1  0
 11  9  1  0
 12 11  2  0
 14 13  1  0
 14 15  1  1
 15 16  1  0
 16 20  1  0
 16 17  2  0
 18 14  1  0
 19 18  2  0
 21 18  1  0
M  END
$$$$
