CSD.pdb
     RDKit          3D

 21 20  0  0  1  0  0  0  0  0999 V2000
    8.4169  -12.9105   18.6700 N   0  0  0  0  0  0  0  0  0  0  0  0
    8.0700  -14.0920   19.4059 C   0  0  1  0  0  0  0  0  0  0  0  0
    8.7390  -15.2712   18.6951 C   0  0  0  0  0  0  0  0  0  0  0  0
    7.6520  -15.7489   17.3207 S   0  0  0  0  0  0  0  0  0  0  0  0
    8.5999  -14.0767   20.7981 C   0  0  0  0  0  0  0  0  0  0  0  0
    9.6809  -13.4235   20.9543 O   0  0  0  0  0  0  0  0  0  0  0  0
    6.5150  -15.4210   24.1890 O   0  0  0  0  0  0  0  0  0  0  0  0
    7.4920  -14.4373   24.2435 C   0  0  0  0  0  0  0  0  0  0  0  0
    8.5764  -14.6676   23.2058 C   0  0  2  0  0  0  0  0  0  0  0  0
    7.9894  -14.7170   21.8828 N   0  0  0  0  0  0  0  0  0  0  0  0
    9.3708  -15.8767   23.4990 C   0  0  0  0  0  0  0  0  0  0  0  0
    9.0895  -16.9615   22.8972 O   0  0  0  0  0  0  0  0  0  0  0  0
   10.4392  -15.9350   24.4099 N   0  0  0  0  0  0  0  0  0  0  0  0
   11.2120  -17.1307   24.6972 C   0  0  1  0  0  0  0  0  0  0  0  0
   12.6635  -16.8750   24.8429 C   0  0  0  0  0  0  0  0  0  0  0  0
   13.2911  -16.7709   23.5122 C   0  0  0  0  0  0  0  0  0  0  0  0
   12.7254  -16.9775   22.4115 O   0  0  0  0  0  0  0  0  0  0  0  0
   10.6815  -17.7500   25.9341 C   0  0  0  0  0  0  0  0  0  0  0  0
   10.5528  -19.0034   25.9997 O   0  0  0  0  0  0  0  0  0  0  0  0
   14.6375  -16.4108   23.4479 O   0  0  0  0  0  0  0  0  0  0  0  0
   10.3049  -17.0460   27.0607 O   0  0  0  0  0  0  0  0  0  0  0  0
  2  5  1  0
  2  1  1  6
  3  2  1  0
  4  3  1  0
  5  6  2  0
  8  7  1  0
  9  8  1  1
 10  9  1  0
 10  5  1  0
 11 13  1  0
 11  9  1  0
 12 11  2  0
 14 13  1  0
 14 15  1  1
 15 16  1  0
 16 20  1  0
 16 17  2  0
 18 14  1  0
 19 18  2  0
 21 18  1  0
M  END
$$$$
