CSD.pdb
     RDKit          3D

 21 20  0  0  1  0  0  0  0  0999 V2000
    7.8260  -12.7764   17.7753 N   0  0  0  0  0  0  0  0  0  0  0  0
    8.2465  -14.0890   18.1729 C   0  0  1  0  0  0  0  0  0  0  0  0
    9.0236  -14.6829   16.9954 C   0  0  0  0  0  0  0  0  0  0  0  0
    7.7975  -15.2389   15.7762 S   0  0  0  0  0  0  0  0  0  0  0  0
    9.1815  -14.0649   19.3325 C   0  0  0  0  0  0  0  0  0  0  0  0
   10.0179  -13.1057   19.3282 O   0  0  0  0  0  0  0  0  0  0  0  0
    8.2713  -14.7526   23.0582 O   0  0  0  0  0  0  0  0  0  0  0  0
    9.4387  -15.4344   22.7463 C   0  0  0  0  0  0  0  0  0  0  0  0
   10.0891  -14.8845   21.4891 C   0  0  2  0  0  0  0  0  0  0  0  0
    9.1772  -15.0040   20.3704 N   0  0  0  0  0  0  0  0  0  0  0  0
   11.3858  -15.5329   21.2116 C   0  0  0  0  0  0  0  0  0  0  0  0
   11.3981  -16.6732   20.6480 O   0  0  0  0  0  0  0  0  0  0  0  0
   12.6415  -14.9854   21.5249 N   0  0  0  0  0  0  0  0  0  0  0  0
   13.9082  -15.6714   21.3401 C   0  0  1  0  0  0  0  0  0  0  0  0
   14.9383  -14.8407   20.6752 C   0  0  0  0  0  0  0  0  0  0  0  0
   14.6049  -14.6742   19.2481 C   0  0  0  0  0  0  0  0  0  0  0  0
   14.0122  -15.5120   18.5264 O   0  0  0  0  0  0  0  0  0  0  0  0
   14.3990  -16.1214   22.6635 C   0  0  0  0  0  0  0  0  0  0  0  0
   13.7522  -15.8219   23.7046 O   0  0  0  0  0  0  0  0  0  0  0  0
   14.9732  -13.4826   18.6227 O   0  0  0  0  0  0  0  0  0  0  0  0
   15.5435  -16.8686   22.8595 O   0  0  0  0  0  0  0  0  0  0  0  0
  2  5  1  0
  2  1  1  6
  3  2  1  0
  4  3  1  0
  5  6  2  0
  8  7  1  0
  9  8  1  1
 10  9  1  0
 10  5  1  0
 11 13  1  0
 11  9  1  0
 12 11  2  0
 14 13  1  0
 14 15  1  1
 15 16  1  0
 16 20  1  0
 16 17  2  0
 18 14  1  0
 19 18  2  0
 21 18  1  0
M  END
$$$$
