CSD.pdb
     RDKit          3D

 21 20  0  0  1  0  0  0  0  0999 V2000
    8.2846  -16.8982   17.5601 N   0  0  0  0  0  0  0  0  0  0  0  0
    7.5733  -16.7123   18.7920 C   0  0  1  0  0  0  0  0  0  0  0  0
    7.2769  -18.1068   19.3492 C   0  0  0  0  0  0  0  0  0  0  0  0
    8.8776  -18.9190   19.6272 S   0  0  0  0  0  0  0  0  0  0  0  0
    8.3849  -16.0050   19.8217 C   0  0  0  0  0  0  0  0  0  0  0  0
    9.5721  -15.7168   19.4651 O   0  0  0  0  0  0  0  0  0  0  0  0
    7.2340  -15.3435   23.8530 O   0  0  0  0  0  0  0  0  0  0  0  0
    7.9269  -14.3678   23.1511 C   0  0  0  0  0  0  0  0  0  0  0  0
    8.7705  -14.9697   22.0412 C   0  0  2  0  0  0  0  0  0  0  0  0
    7.9194  -15.6629   21.0966 N   0  0  0  0  0  0  0  0  0  0  0  0
    9.8315  -15.8484   22.5712 C   0  0  0  0  0  0  0  0  0  0  0  0
    9.6675  -17.1091   22.5292 O   0  0  0  0  0  0  0  0  0  0  0  0
   11.0391  -15.4012   23.1336 N   0  0  0  0  0  0  0  0  0  0  0  0
   12.0918  -16.2732   23.6241 C   0  0  1  0  0  0  0  0  0  0  0  0
   13.4521  -15.7159   23.4443 C   0  0  0  0  0  0  0  0  0  0  0  0
   14.4617  -16.7332   23.7930 C   0  0  0  0  0  0  0  0  0  0  0  0
   14.3252  -17.9756   23.6840 O   0  0  0  0  0  0  0  0  0  0  0  0
   11.8451  -16.5509   25.0583 C   0  0  0  0  0  0  0  0  0  0  0  0
   12.5970  -17.3526   25.6778 O   0  0  0  0  0  0  0  0  0  0  0  0
   15.6891  -16.2958   24.2917 O   0  0  0  0  0  0  0  0  0  0  0  0
   10.8272  -15.9846   25.7998 O   0  0  0  0  0  0  0  0  0  0  0  0
  2  5  1  0
  2  1  1  6
  3  2  1  0
  4  3  1  0
  5  6  2  0
  8  7  1  0
  9  8  1  1
 10  9  1  0
 10  5  1  0
 11 13  1  0
 11  9  1  0
 12 11  2  0
 14 13  1  0
 14 15  1  1
 15 16  1  0
 16 20  1  0
 16 17  2  0
 18 14  1  0
 19 18  2  0
 21 18  1  0
M  END
$$$$
