CSD.pdb
     RDKit          3D

 21 20  0  0  1  0  0  0  0  0999 V2000
    5.3501  -13.7192   26.4007 N   0  0  0  0  0  0  0  0  0  0  0  0
    6.3658  -13.1647   25.5528 C   0  0  1  0  0  0  0  0  0  0  0  0
    7.3375  -12.4061   26.4603 C   0  0  0  0  0  0  0  0  0  0  0  0
    6.5120  -10.8647   26.9517 S   0  0  0  0  0  0  0  0  0  0  0  0
    7.1633  -14.2109   24.8537 C   0  0  0  0  0  0  0  0  0  0  0  0
    7.4350  -15.2374   25.5553 O   0  0  0  0  0  0  0  0  0  0  0  0
    9.5231  -13.9024   21.2983 O   0  0  0  0  0  0  0  0  0  0  0  0
    8.5524  -14.8850   21.4297 C   0  0  0  0  0  0  0  0  0  0  0  0
    8.2875  -15.2185   22.8872 C   0  0  2  0  0  0  0  0  0  0  0  0
    7.6018  -14.1156   23.5280 N   0  0  0  0  0  0  0  0  0  0  0  0
    9.5262  -15.5841   23.6019 C   0  0  0  0  0  0  0  0  0  0  0  0
    9.9563  -14.8195   24.5231 O   0  0  0  0  0  0  0  0  0  0  0  0
   10.2922  -16.7340   23.3460 N   0  0  0  0  0  0  0  0  0  0  0  0
   11.4346  -17.1555   24.1376 C   0  0  1  0  0  0  0  0  0  0  0  0
   11.1899  -18.3909   24.9168 C   0  0  0  0  0  0  0  0  0  0  0  0
   12.4182  -18.7854   25.6317 C   0  0  0  0  0  0  0  0  0  0  0  0
   13.3533  -19.4792   25.1644 O   0  0  0  0  0  0  0  0  0  0  0  0
   12.5908  -17.3501   23.2319 C   0  0  0  0  0  0  0  0  0  0  0  0
   12.3966  -17.7211   22.0418 O   0  0  0  0  0  0  0  0  0  0  0  0
   12.5758  -18.3584   26.9506 O   0  0  0  0  0  0  0  0  0  0  0  0
   13.9084  -17.1507   23.5934 O   0  0  0  0  0  0  0  0  0  0  0  0
  2  5  1  0
  2  1  1  1
  3  2  1  0
  4  3  1  0
  5  6  2  0
  8  7  1  0
  9  8  1  6
 10  9  1  0
 10  5  1  0
 11 13  1  0
 11  9  1  0
 12 11  2  0
 14 13  1  0
 14 15  1  6
 15 16  1  0
 16 20  1  0
 16 17  2  0
 18 14  1  0
 19 18  2  0
 21 18  1  0
M  END
$$$$
