CSD.pdb
     RDKit          3D

 21 20  0  0  1  0  0  0  0  0999 V2000
    8.8192  -14.9067   13.6151 N   0  0  0  0  0  0  0  0  0  0  0  0
    8.2187  -15.2345   14.8760 C   0  0  1  0  0  0  0  0  0  0  0  0
    8.3170  -16.7538   15.0339 C   0  0  0  0  0  0  0  0  0  0  0  0
    6.9916  -17.4794   14.0261 S   0  0  0  0  0  0  0  0  0  0  0  0
    8.9471  -14.6375   16.0304 C   0  0  0  0  0  0  0  0  0  0  0  0
   10.1954  -14.4688   15.8488 O   0  0  0  0  0  0  0  0  0  0  0  0
    7.3930  -14.0272   19.9204 O   0  0  0  0  0  0  0  0  0  0  0  0
    8.1609  -13.0379   19.3234 C   0  0  0  0  0  0  0  0  0  0  0  0
    9.1050  -13.6139   18.2829 C   0  0  2  0  0  0  0  0  0  0  0  0
    8.3461  -14.2742   17.2412 N   0  0  0  0  0  0  0  0  0  0  0  0
   10.1064  -14.5145   18.8870 C   0  0  0  0  0  0  0  0  0  0  0  0
    9.9503  -15.7724   18.7795 O   0  0  0  0  0  0  0  0  0  0  0  0
   11.2475  -14.0918   19.5897 N   0  0  0  0  0  0  0  0  0  0  0  0
   12.1458  -14.9768   20.3102 C   0  0  1  0  0  0  0  0  0  0  0  0
   13.4032  -14.3217   20.7380 C   0  0  0  0  0  0  0  0  0  0  0  0
   14.3395  -15.3301   21.2690 C   0  0  0  0  0  0  0  0  0  0  0  0
   14.0718  -16.5327   21.5063 O   0  0  0  0  0  0  0  0  0  0  0  0
   11.4308  -15.5169   21.4901 C   0  0  0  0  0  0  0  0  0  0  0  0
   10.5502  -14.8168   22.0614 O   0  0  0  0  0  0  0  0  0  0  0  0
   15.6490  -14.9319   21.5395 O   0  0  0  0  0  0  0  0  0  0  0  0
   11.6539  -16.7661   22.0343 O   0  0  0  0  0  0  0  0  0  0  0  0
  2  5  1  0
  2  1  1  6
  3  2  1  0
  4  3  1  0
  5  6  2  0
  8  7  1  0
  9  8  1  1
 10  9  1  0
 10  5  1  0
 11 13  1  0
 11  9  1  0
 12 11  2  0
 14 13  1  0
 14 15  1  1
 15 16  1  0
 16 20  1  0
 16 17  2  0
 18 14  1  0
 19 18  2  0
 21 18  1  0
M  END
$$$$
