CSD.pdb
     RDKit          3D

 21 20  0  0  1  0  0  0  0  0999 V2000
    5.3588  -20.1517   18.9905 N   0  0  0  0  0  0  0  0  0  0  0  0
    6.1750  -21.0792   19.7196 C   0  0  1  0  0  0  0  0  0  0  0  0
    7.5795  -21.0062   19.1155 C   0  0  0  0  0  0  0  0  0  0  0  0
    7.5680  -22.0352   17.6188 S   0  0  0  0  0  0  0  0  0  0  0  0
    6.3099  -20.7163   21.1582 C   0  0  0  0  0  0  0  0  0  0  0  0
    6.3603  -19.4668   21.3946 O   0  0  0  0  0  0  0  0  0  0  0  0
    5.2278  -23.0865   24.3550 O   0  0  0  0  0  0  0  0  0  0  0  0
    5.3367  -21.7039   24.3963 C   0  0  0  0  0  0  0  0  0  0  0  0
    6.5174  -21.2110   23.5787 C   0  0  2  0  0  0  0  0  0  0  0  0
    6.3796  -21.6443   22.2038 N   0  0  0  0  0  0  0  0  0  0  0  0
    7.8056  -21.6354   24.1612 C   0  0  0  0  0  0  0  0  0  0  0  0
    8.2583  -22.7912   23.8830 O   0  0  0  0  0  0  0  0  0  0  0  0
    8.5963  -20.8528   25.0196 N   0  0  0  0  0  0  0  0  0  0  0  0
    9.8225  -21.3066   25.6520 C   0  0  1  0  0  0  0  0  0  0  0  0
   10.7811  -20.2135   25.9344 C   0  0  0  0  0  0  0  0  0  0  0  0
   11.6706  -20.0136   24.7749 C   0  0  0  0  0  0  0  0  0  0  0  0
   11.7708  -20.7743   23.7822 O   0  0  0  0  0  0  0  0  0  0  0  0
    9.4737  -22.0098   26.9084 C   0  0  0  0  0  0  0  0  0  0  0  0
   10.3407  -22.7196   27.4885 O   0  0  0  0  0  0  0  0  0  0  0  0
   12.4844  -18.8805   24.7598 O   0  0  0  0  0  0  0  0  0  0  0  0
    8.2371  -21.9497   27.5198 O   0  0  0  0  0  0  0  0  0  0  0  0
  2  5  1  0
  2  1  1  6
  3  2  1  0
  4  3  1  0
  5  6  2  0
  8  7  1  0
  9  8  1  1
 10  9  1  0
 10  5  1  0
 11 13  1  0
 11  9  1  0
 12 11  2  0
 14 13  1  0
 14 15  1  1
 15 16  1  0
 16 20  1  0
 16 17  2  0
 18 14  1  0
 19 18  2  0
 21 18  1  0
M  END
$$$$
