LRR.pdb
     RDKit          3D

 31 30  0  0  1  0  0  0  0  0999 V2000
   44.8406   -8.5485   -4.7443 C   0  0  0  0  0  0  0  0  0  0  0  0
   45.7056   -9.7789   -4.7523 C   0  0  1  0  0  0  0  0  0  0  0  0
   45.4042  -10.6198   -3.5175 C   0  0  0  0  0  0  0  0  0  0  0  0
   45.4158  -10.6093   -5.9724 C   0  0  0  0  0  0  0  0  0  0  0  0
   46.2373  -11.8555   -5.9823 C   0  0  2  0  0  0  0  0  0  0  0  0
   47.6526  -11.6237   -5.9617 N   0  0  0  0  0  0  0  0  0  0  0  0
   45.8451  -12.6781   -7.1717 C   0  0  0  0  0  0  0  0  0  0  0  0
   46.5147  -12.4801   -8.2443 O   0  0  0  0  0  0  0  0  0  0  0  0
   42.5014  -19.6919   -9.0905 N   0  0  0  0  0  0  0  0  0  0  0  0
   42.9501  -19.3779  -10.3983 C   0  0  0  0  0  0  0  0  0  0  0  0
   42.8144  -20.2336  -11.3691 N   0  0  0  0  0  0  0  0  0  0  0  0
   43.5586  -18.1066  -10.6511 N   0  0  0  0  0  0  0  0  0  0  0  0
   44.1447  -17.3360   -9.5733 C   0  0  0  0  0  0  0  0  0  0  0  0
   43.0835  -16.3386   -9.0679 C   0  0  0  0  0  0  0  0  0  0  0  0
   43.6607  -15.5236   -7.9692 C   0  0  0  0  0  0  0  0  0  0  0  0
   44.3890  -14.2780   -8.3614 C   0  0  2  0  0  0  0  0  0  0  0  0
   44.7985  -13.6225   -7.1258 N   0  0  0  0  0  0  0  0  0  0  0  0
   43.6788  -13.3461   -9.2286 C   0  0  0  0  0  0  0  0  0  0  0  0
   43.4393  -13.7136  -10.4325 O   0  0  0  0  0  0  0  0  0  0  0  0
   43.1920  -20.0273  -12.3038 N   0  0  0  0  0  0  0  0  0  0  0  0
   38.8841   -5.9979   -8.7253 C   0  0  0  0  0  0  0  0  0  0  0  0
   38.8716   -6.3662  -10.0893 N   0  0  0  0  0  0  0  0  0  0  0  0
   38.2750   -5.6372  -10.9974 N   0  0  0  0  0  0  0  0  0  0  0  0
   39.5145   -7.5612  -10.5461 C   0  0  0  0  0  0  0  0  0  0  0  0
   40.1582   -8.4368   -9.6091 C   0  0  0  0  0  0  0  0  0  0  0  0
   41.4848   -8.9541  -10.1829 C   0  0  0  0  0  0  0  0  0  0  0  0
   42.1244   -9.8992   -9.2125 C   0  0  1  0  0  0  0  0  0  0  0  0
   42.5039  -11.1825   -9.8437 N   0  0  0  0  0  0  0  0  0  0  0  0
   43.2096  -12.0528   -8.8871 C   0  0  0  0  0  0  0  0  0  0  0  0
   43.3256  -10.9721  -11.0439 O   0  0  0  0  0  0  0  0  0  0  0  0
   42.7491  -10.9702  -12.3066 O   0  0  0  0  0  0  0  0  0  0  0  0
  2  1  1  6
  3  2  1  0
  4  2  1  0
  5  4  1  0
  5  6  1  6
  7  8  2  0
  7  5  1  0
 10  9  1  0
 10 11  2  0
 12 10  1  0
 13 12  1  0
 13 14  1  0
 14 15  1  0
 16 15  1  1
 16 17  1  0
 17  7  1  0
 18 16  1  0
 18 19  2  0
 20 21  1  0
 21 22  2  0
 23 24  1  0
 23 21  1  0
 25 24  1  0
 26 25  1  0
 27 28  1  0
 27 26  1  1
 28 18  1  0
 29 27  1  0
 30 29  1  0
 31 29  2  0
M  END
$$$$
