LRR.pdb
     RDKit          3D

 31 30  0  0  1  0  0  0  0  0999 V2000
   28.4591  -19.8583   -6.3122 C   0  0  0  0  0  0  0  0  0  0  0  0
   27.0314  -19.6714   -6.7472 C   0  0  1  0  0  0  0  0  0  0  0  0
   26.7270  -18.1827   -6.8646 C   0  0  0  0  0  0  0  0  0  0  0  0
   26.8113  -20.3069   -8.0926 C   0  0  0  0  0  0  0  0  0  0  0  0
   25.3725  -20.2490   -8.4856 C   0  0  2  0  0  0  0  0  0  0  0  0
   24.4860  -20.8886   -7.5572 N   0  0  0  0  0  0  0  0  0  0  0  0
   25.2270  -20.8341   -9.8573 C   0  0  0  0  0  0  0  0  0  0  0  0
   25.2718  -22.1107   -9.9373 O   0  0  0  0  0  0  0  0  0  0  0  0
   20.0304  -17.6808  -14.7592 N   0  0  0  0  0  0  0  0  0  0  0  0
   20.1535  -18.7652  -13.8542 C   0  0  0  0  0  0  0  0  0  0  0  0
   19.1304  -19.1671  -13.1580 N   0  0  0  0  0  0  0  0  0  0  0  0
   21.4168  -19.4229  -13.7059 N   0  0  0  0  0  0  0  0  0  0  0  0
   22.1686  -19.8578  -14.8655 C   0  0  0  0  0  0  0  0  0  0  0  0
   23.4678  -20.5235  -14.3698 C   0  0  0  0  0  0  0  0  0  0  0  0
   23.7026  -20.1453  -12.9533 C   0  0  0  0  0  0  0  0  0  0  0  0
   24.9367  -20.6854  -12.3045 C   0  0  2  0  0  0  0  0  0  0  0  0
   25.0492  -20.0345  -11.0054 N   0  0  0  0  0  0  0  0  0  0  0  0
   26.1815  -20.5614  -13.0529 C   0  0  0  0  0  0  0  0  0  0  0  0
   26.7889  -19.4338  -13.0203 O   0  0  0  0  0  0  0  0  0  0  0  0
   19.2167  -19.9673  -12.5168 N   0  0  0  0  0  0  0  0  0  0  0  0
   30.2973  -26.4969  -15.7736 C   0  0  0  0  0  0  0  0  0  0  0  0
   29.8780  -25.7792  -16.9162 N   0  0  0  0  0  0  0  0  0  0  0  0
   29.2315  -26.3560  -17.8968 N   0  0  0  0  0  0  0  0  0  0  0  0
   30.1418  -24.3790  -17.0570 C   0  0  0  0  0  0  0  0  0  0  0  0
   30.7197  -23.6415  -15.9703 C   0  0  0  0  0  0  0  0  0  0  0  0
   29.9695  -22.3185  -15.7615 C   0  0  0  0  0  0  0  0  0  0  0  0
   28.7605  -22.5489  -14.9074 C   0  0  1  0  0  0  0  0  0  0  0  0
   28.0027  -21.3030  -14.6571 N   0  0  0  0  0  0  0  0  0  0  0  0
   26.8138  -21.5661  -13.8277 C   0  0  0  0  0  0  0  0  0  0  0  0
   27.6133  -20.6459  -15.9127 O   0  0  0  0  0  0  0  0  0  0  0  0
   26.3471  -20.8348  -16.4490 O   0  0  0  0  0  0  0  0  0  0  0  0
  2  1  1  6
  3  2  1  0
  4  2  1  0
  5  4  1  0
  5  6  1  1
  7  8  2  0
  7  5  1  0
 10  9  1  0
 10 11  2  0
 12 10  1  0
 13 12  1  0
 13 14  1  0
 14 15  1  0
 16 15  1  6
 16 17  1  0
 17  7  1  0
 18 16  1  0
 18 19  2  0
 20 21  1  0
 21 22  2  0
 23 24  1  0
 23 21  1  0
 25 24  1  0
 26 25  1  0
 27 28  1  0
 27 26  1  1
 28 18  1  0
 29 27  1  0
 30 29  1  0
 31 29  2  0
M  END
$$$$
