LRR.pdb
     RDKit          3D

 31 30  0  0  1  0  0  0  0  0999 V2000
   27.1287  -14.9341  -16.5140 C   0  0  0  0  0  0  0  0  0  0  0  0
   27.5959  -16.3553  -16.3581 C   0  0  1  0  0  0  0  0  0  0  0  0
   28.5529  -16.4485  -15.1756 C   0  0  0  0  0  0  0  0  0  0  0  0
   26.4246  -17.2604  -16.0914 C   0  0  0  0  0  0  0  0  0  0  0  0
   26.8716  -18.6677  -15.8723 C   0  0  2  0  0  0  0  0  0  0  0  0
   27.7717  -19.1586  -16.8752 N   0  0  0  0  0  0  0  0  0  0  0  0
   25.6605  -19.5430  -15.7628 C   0  0  0  0  0  0  0  0  0  0  0  0
   24.5944  -19.1095  -16.3229 O   0  0  0  0  0  0  0  0  0  0  0  0
   23.1340  -27.9232  -14.9638 N   0  0  0  0  0  0  0  0  0  0  0  0
   23.4729  -27.3981  -16.2364 C   0  0  0  0  0  0  0  0  0  0  0  0
   23.0698  -27.9860  -17.3250 N   0  0  0  0  0  0  0  0  0  0  0  0
   24.2671  -26.2096  -16.3227 N   0  0  0  0  0  0  0  0  0  0  0  0
   24.6611  -25.4911  -15.1279 C   0  0  0  0  0  0  0  0  0  0  0  0
   23.9642  -24.1161  -15.1463 C   0  0  0  0  0  0  0  0  0  0  0  0
   24.9927  -23.0458  -15.1802 C   0  0  0  0  0  0  0  0  0  0  0  0
   24.5013  -21.6340  -15.1468 C   0  0  2  0  0  0  0  0  0  0  0  0
   25.6799  -20.7791  -15.0837 N   0  0  0  0  0  0  0  0  0  0  0  0
   23.5580  -21.2906  -14.0899 C   0  0  0  0  0  0  0  0  0  0  0  0
   23.9602  -20.5039  -13.1619 O   0  0  0  0  0  0  0  0  0  0  0  0
   23.3636  -27.6362  -18.2471 N   0  0  0  0  0  0  0  0  0  0  0  0
   16.6255  -19.9530  -13.1717 C   0  0  0  0  0  0  0  0  0  0  0  0
   16.7765  -18.5603  -13.3557 N   0  0  0  0  0  0  0  0  0  0  0  0
   16.0400  -17.6931  -12.7094 N   0  0  0  0  0  0  0  0  0  0  0  0
   17.7477  -18.0279  -14.2630 C   0  0  0  0  0  0  0  0  0  0  0  0
   18.9073  -18.7980  -14.6112 C   0  0  0  0  0  0  0  0  0  0  0  0
   19.9185  -18.7964  -13.4561 C   0  0  0  0  0  0  0  0  0  0  0  0
   21.1500  -19.5490  -13.8574 C   0  0  1  0  0  0  0  0  0  0  0  0
   21.1674  -20.9274  -13.3198 N   0  0  0  0  0  0  0  0  0  0  0  0
   22.2169  -21.7333  -13.9675 C   0  0  0  0  0  0  0  0  0  0  0  0
   19.8592  -21.5810  -13.4661 O   0  0  0  0  0  0  0  0  0  0  0  0
   19.0200  -21.7410  -12.3722 O   0  0  0  0  0  0  0  0  0  0  0  0
  2  1  1  1
  3  2  1  0
  4  2  1  0
  5  4  1  0
  5  6  1  6
  7  8  2  0
  7  5  1  0
 10  9  1  0
 10 11  2  0
 12 10  1  0
 13 12  1  0
 13 14  1  0
 14 15  1  0
 16 15  1  1
 16 17  1  0
 17  7  1  0
 18 16  1  0
 18 19  2  0
 20 21  1  0
 21 22  2  0
 23 24  1  0
 23 21  1  0
 25 24  1  0
 26 25  1  0
 27 28  1  0
 27 26  1  1
 28 18  1  0
 29 27  1  0
 30 29  1  0
 31 29  2  0
M  END
$$$$
