LRR.pdb
     RDKit          3D

 31 30  0  0  1  0  0  0  0  0999 V2000
   28.4084  -14.2675  -17.9694 C   0  0  0  0  0  0  0  0  0  0  0  0
   27.6920  -13.7862  -16.7375 C   0  0  1  0  0  0  0  0  0  0  0  0
   28.7112  -13.2930  -15.7173 C   0  0  0  0  0  0  0  0  0  0  0  0
   26.7768  -12.6435  -17.0824 C   0  0  0  0  0  0  0  0  0  0  0  0
   26.0065  -12.1917  -15.8864 C   0  0  2  0  0  0  0  0  0  0  0  0
   25.6432  -13.2507  -14.9899 N   0  0  0  0  0  0  0  0  0  0  0  0
   24.7951  -11.4429  -16.3520 C   0  0  0  0  0  0  0  0  0  0  0  0
   24.9907  -10.5446  -17.2424 O   0  0  0  0  0  0  0  0  0  0  0  0
   16.1517  -13.2056  -15.4506 N   0  0  0  0  0  0  0  0  0  0  0  0
   16.2008  -12.0531  -16.2750 C   0  0  0  0  0  0  0  0  0  0  0  0
   15.1096  -11.5432  -16.7674 N   0  0  0  0  0  0  0  0  0  0  0  0
   17.4643  -11.4462  -16.5678 N   0  0  0  0  0  0  0  0  0  0  0  0
   18.6981  -12.0247  -16.0759 C   0  0  0  0  0  0  0  0  0  0  0  0
   19.8535  -11.0764  -16.4532 C   0  0  0  0  0  0  0  0  0  0  0  0
   21.1459  -11.7084  -16.0862 C   0  0  0  0  0  0  0  0  0  0  0  0
   22.3847  -10.9086  -16.3343 C   0  0  2  0  0  0  0  0  0  0  0  0
   23.5044  -11.7038  -15.8465 N   0  0  0  0  0  0  0  0  0  0  0  0
   22.4235   -9.5642  -15.7723 C   0  0  0  0  0  0  0  0  0  0  0  0
   22.7857   -9.4374  -14.5498 O   0  0  0  0  0  0  0  0  0  0  0  0
   15.1500  -10.7238  -17.3885 N   0  0  0  0  0  0  0  0  0  0  0  0
   22.5528   -1.1183  -18.7999 C   0  0  0  0  0  0  0  0  0  0  0  0
   22.3855   -1.0285  -17.3998 N   0  0  0  0  0  0  0  0  0  0  0  0
   22.3200    0.1238  -16.7832 N   0  0  0  0  0  0  0  0  0  0  0  0
   22.2792   -2.2001  -16.5837 C   0  0  0  0  0  0  0  0  0  0  0  0
   22.3557   -3.5031  -17.1798 C   0  0  0  0  0  0  0  0  0  0  0  0
   22.2045   -4.5923  -16.1085 C   0  0  0  0  0  0  0  0  0  0  0  0
   22.1737   -5.9424  -16.7569 C   0  0  1  0  0  0  0  0  0  0  0  0
   22.1469   -7.0416  -15.7668 N   0  0  0  0  0  0  0  0  0  0  0  0
   22.1024   -8.3534  -16.4359 C   0  0  0  0  0  0  0  0  0  0  0  0
   21.0166   -6.9044  -14.8376 O   0  0  0  0  0  0  0  0  0  0  0  0
   21.1745   -6.2581  -13.6194 O   0  0  0  0  0  0  0  0  0  0  0  0
  2  1  1  6
  3  2  1  0
  4  2  1  0
  5  4  1  0
  5  6  1  6
  7  8  2  0
  7  5  1  0
 10  9  1  0
 10 11  2  0
 12 10  1  0
 13 12  1  0
 13 14  1  0
 14 15  1  0
 16 15  1  1
 16 17  1  0
 17  7  1  0
 18 16  1  0
 18 19  2  0
 20 21  1  0
 21 22  2  0
 23 24  1  0
 23 21  1  0
 25 24  1  0
 26 25  1  0
 27 28  1  0
 27 26  1  6
 28 18  1  0
 29 27  1  0
 30 29  1  0
 31 29  2  0
M  END
$$$$
