LRR.pdb
     RDKit          3D

 31 30  0  0  1  0  0  0  0  0999 V2000
   28.1527  -18.2752   -6.9642 C   0  0  0  0  0  0  0  0  0  0  0  0
   27.8116  -19.5888   -7.6126 C   0  0  1  0  0  0  0  0  0  0  0  0
   27.3079  -20.5623   -6.5537 C   0  0  0  0  0  0  0  0  0  0  0  0
   26.7244  -19.3967   -8.6340 C   0  0  0  0  0  0  0  0  0  0  0  0
   26.2586  -20.7070   -9.1765 C   0  0  2  0  0  0  0  0  0  0  0  0
   27.3185  -21.5730   -9.6051 N   0  0  0  0  0  0  0  0  0  0  0  0
   25.2931  -20.4471  -10.2924 C   0  0  0  0  0  0  0  0  0  0  0  0
   24.2529  -19.7633   -9.9951 O   0  0  0  0  0  0  0  0  0  0  0  0
   27.9221  -20.4804  -17.9711 N   0  0  0  0  0  0  0  0  0  0  0  0
   27.7987  -21.3072  -16.8260 C   0  0  0  0  0  0  0  0  0  0  0  0
   28.6770  -22.2354  -16.5807 N   0  0  0  0  0  0  0  0  0  0  0  0
   26.6960  -21.1180  -15.9323 N   0  0  0  0  0  0  0  0  0  0  0  0
   25.4477  -20.5521  -16.4021 C   0  0  0  0  0  0  0  0  0  0  0  0
   24.5457  -20.3031  -15.1770 C   0  0  0  0  0  0  0  0  0  0  0  0
   25.3240  -20.5502  -13.9370 C   0  0  0  0  0  0  0  0  0  0  0  0
   24.5643  -20.5465  -12.6492 C   0  0  2  0  0  0  0  0  0  0  0  0
   25.5064  -20.9229  -11.6030 N   0  0  0  0  0  0  0  0  0  0  0  0
   23.3678  -21.3770  -12.5888 C   0  0  0  0  0  0  0  0  0  0  0  0
   23.5243  -22.6432  -12.4714 O   0  0  0  0  0  0  0  0  0  0  0  0
   28.5560  -22.8706  -15.7802 N   0  0  0  0  0  0  0  0  0  0  0  0
   18.4042  -24.3579   -7.0413 C   0  0  0  0  0  0  0  0  0  0  0  0
   17.8413  -24.8894   -8.2233 N   0  0  0  0  0  0  0  0  0  0  0  0
   17.0792  -25.9530   -8.2091 N   0  0  0  0  0  0  0  0  0  0  0  0
   18.0788  -24.2868   -9.5001 C   0  0  0  0  0  0  0  0  0  0  0  0
   19.1019  -23.2917   -9.6485 C   0  0  0  0  0  0  0  0  0  0  0  0
   19.0832  -22.7115  -11.0696 C   0  0  0  0  0  0  0  0  0  0  0  0
   20.2041  -21.7312  -11.2334 C   0  0  2  0  0  0  0  0  0  0  0  0
   20.8767  -21.8595  -12.5450 N   0  0  0  0  0  0  0  0  0  0  0  0
   22.0213  -20.9371  -12.6435 C   0  0  0  0  0  0  0  0  0  0  0  0
   19.9420  -21.6328  -13.6562 O   0  0  0  0  0  0  0  0  0  0  0  0
   19.2120  -22.6835  -14.1943 O   0  0  0  0  0  0  0  0  0  0  0  0
  2  1  1  1
  3  2  1  0
  4  2  1  0
  5  4  1  0
  5  6  1  6
  7  8  2  0
  7  5  1  0
 10  9  1  0
 10 11  2  0
 12 10  1  0
 13 12  1  0
 13 14  1  0
 14 15  1  0
 16 15  1  6
 16 17  1  0
 17  7  1  0
 18 16  1  0
 18 19  2  0
 20 21  1  0
 21 22  2  0
 23 24  1  0
 23 21  1  0
 25 24  1  0
 26 25  1  0
 27 28  1  0
 27 26  1  1
 28 18  1  0
 29 27  1  0
 30 29  1  0
 31 29  2  0
M  END
$$$$
