LRR.pdb
     RDKit          3D

 31 30  0  0  1  0  0  0  0  0999 V2000
   30.7393  -20.8619   -9.0195 C   0  0  0  0  0  0  0  0  0  0  0  0
   29.7918  -21.2059  -10.1358 C   0  0  1  0  0  0  0  0  0  0  0  0
   29.6352  -22.7195  -10.2208 C   0  0  0  0  0  0  0  0  0  0  0  0
   28.4386  -20.6044   -9.8719 C   0  0  0  0  0  0  0  0  0  0  0  0
   27.5035  -20.8664  -11.0055 C   0  0  2  0  0  0  0  0  0  0  0  0
   27.9973  -20.4389  -12.2824 N   0  0  0  0  0  0  0  0  0  0  0  0
   26.1854  -20.2241  -10.6970 C   0  0  0  0  0  0  0  0  0  0  0  0
   26.1762  -18.9454  -10.6429 O   0  0  0  0  0  0  0  0  0  0  0  0
   22.5761  -20.3836  -17.1145 N   0  0  0  0  0  0  0  0  0  0  0  0
   22.4577  -21.6577  -16.5038 C   0  0  0  0  0  0  0  0  0  0  0  0
   22.0546  -22.6870  -17.1902 N   0  0  0  0  0  0  0  0  0  0  0  0
   22.7848  -21.8112  -15.1182 N   0  0  0  0  0  0  0  0  0  0  0  0
   22.9121  -20.6563  -14.2526 C   0  0  0  0  0  0  0  0  0  0  0  0
   23.3063  -21.1540  -12.8478 C   0  0  0  0  0  0  0  0  0  0  0  0
   23.4162  -19.9925  -11.9294 C   0  0  0  0  0  0  0  0  0  0  0  0
   23.7255  -20.2895  -10.4970 C   0  0  2  0  0  0  0  0  0  0  0  0
   25.0117  -20.9746  -10.4769 N   0  0  0  0  0  0  0  0  0  0  0  0
   22.7269  -21.0456   -9.7513 C   0  0  0  0  0  0  0  0  0  0  0  0
   23.0104  -22.2520   -9.4259 O   0  0  0  0  0  0  0  0  0  0  0  0
   21.9506  -23.6066  -16.7402 N   0  0  0  0  0  0  0  0  0  0  0  0
   18.3271  -26.1269  -13.5459 C   0  0  0  0  0  0  0  0  0  0  0  0
   17.4179  -25.9276  -12.4828 N   0  0  0  0  0  0  0  0  0  0  0  0
   16.2979  -26.5985  -12.3952 N   0  0  0  0  0  0  0  0  0  0  0  0
   17.6796  -24.9768  -11.4448 C   0  0  0  0  0  0  0  0  0  0  0  0
   18.8389  -24.1341  -11.5146 C   0  0  0  0  0  0  0  0  0  0  0  0
   18.9143  -23.2230  -10.2813 C   0  0  0  0  0  0  0  0  0  0  0  0
   20.0914  -22.3041  -10.3992 C   0  0  2  0  0  0  0  0  0  0  0  0
   20.2947  -21.4908   -9.1799 N   0  0  0  0  0  0  0  0  0  0  0  0
   21.4511  -20.5909   -9.3327 C   0  0  0  0  0  0  0  0  0  0  0  0
   20.4595  -22.3352   -7.9884 O   0  0  0  0  0  0  0  0  0  0  0  0
   19.3992  -22.5489   -7.1185 O   0  0  0  0  0  0  0  0  0  0  0  0
  2  1  1  1
  3  2  1  0
  4  2  1  0
  5  4  1  0
  5  6  1  6
  7  8  2  0
  7  5  1  0
 10  9  1  0
 10 11  2  0
 12 10  1  0
 13 12  1  0
 13 14  1  0
 14 15  1  0
 16 15  1  6
 16 17  1  0
 17  7  1  0
 18 16  1  0
 18 19  2  0
 20 21  1  0
 21 22  2  0
 23 24  1  0
 23 21  1  0
 25 24  1  0
 26 25  1  0
 27 28  1  0
 27 26  1  6
 28 18  1  0
 29 27  1  0
 30 29  1  0
 31 29  2  0
M  END
$$$$
