LRR.pdb
     RDKit          3D

 31 30  0  0  1  0  0  0  0  0999 V2000
   28.5921  -20.6015   -4.0091 C   0  0  0  0  0  0  0  0  0  0  0  0
   28.2543  -19.6746   -5.1445 C   0  0  1  0  0  0  0  0  0  0  0  0
   29.2775  -18.5466   -5.2011 C   0  0  0  0  0  0  0  0  0  0  0  0
   28.2967  -20.4180   -6.4514 C   0  0  0  0  0  0  0  0  0  0  0  0
   27.9764  -19.5137   -7.5950 C   0  0  2  0  0  0  0  0  0  0  0  0
   27.2044  -18.3610   -7.2311 N   0  0  0  0  0  0  0  0  0  0  0  0
   27.2825  -20.3116   -8.6565 C   0  0  0  0  0  0  0  0  0  0  0  0
   27.8256  -21.4259   -8.9749 O   0  0  0  0  0  0  0  0  0  0  0  0
   22.2272  -22.8425  -14.5455 N   0  0  0  0  0  0  0  0  0  0  0  0
   21.4176  -21.7485  -14.1480 C   0  0  0  0  0  0  0  0  0  0  0  0
   20.2604  -21.5429  -14.7061 N   0  0  0  0  0  0  0  0  0  0  0  0
   21.8799  -20.8621  -13.1228 N   0  0  0  0  0  0  0  0  0  0  0  0
   23.2506  -20.9161  -12.6566 C   0  0  0  0  0  0  0  0  0  0  0  0
   23.2347  -21.3484  -11.1769 C   0  0  0  0  0  0  0  0  0  0  0  0
   24.0684  -20.4105  -10.3833 C   0  0  0  0  0  0  0  0  0  0  0  0
   25.5430  -20.6582  -10.3738 C   0  0  2  0  0  0  0  0  0  0  0  0
   26.0954  -19.8717   -9.2782 N   0  0  0  0  0  0  0  0  0  0  0  0
   26.2627  -20.3926  -11.6133 C   0  0  0  0  0  0  0  0  0  0  0  0
   26.4578  -19.1694  -11.9411 O   0  0  0  0  0  0  0  0  0  0  0  0
   19.6690  -20.7554  -14.4076 N   0  0  0  0  0  0  0  0  0  0  0  0
   32.0413  -23.1256  -16.8880 C   0  0  0  0  0  0  0  0  0  0  0  0
   31.4656  -23.8067  -15.7921 N   0  0  0  0  0  0  0  0  0  0  0  0
   32.1891  -24.5008  -14.9513 N   0  0  0  0  0  0  0  0  0  0  0  0
   30.0553  -23.7702  -15.5475 C   0  0  0  0  0  0  0  0  0  0  0  0
   29.1857  -23.0677  -16.4469 C   0  0  0  0  0  0  0  0  0  0  0  0
   28.6322  -21.8017  -15.7779 C   0  0  0  0  0  0  0  0  0  0  0  0
   27.9382  -22.1635  -14.5006 C   0  0  2  0  0  0  0  0  0  0  0  0
   27.3362  -20.9873  -13.8346 N   0  0  0  0  0  0  0  0  0  0  0  0
   26.7858  -21.3511  -12.5173 C   0  0  0  0  0  0  0  0  0  0  0  0
   26.2965  -20.3676  -14.6683 O   0  0  0  0  0  0  0  0  0  0  0  0
   26.5527  -19.1960  -15.3670 O   0  0  0  0  0  0  0  0  0  0  0  0
  2  1  1  1
  3  2  1  0
  4  2  1  0
  5  4  1  0
  5  6  1  1
  7  8  2  0
  7  5  1  0
 10  9  1  0
 10 11  2  0
 12 10  1  0
 13 12  1  0
 13 14  1  0
 14 15  1  0
 16 15  1  6
 16 17  1  0
 17  7  1  0
 18 16  1  0
 18 19  2  0
 20 21  1  0
 21 22  2  0
 23 24  1  0
 23 21  1  0
 25 24  1  0
 26 25  1  0
 27 28  1  0
 27 26  1  1
 28 18  1  0
 29 27  1  0
 30 29  1  0
 31 29  2  0
M  END
$$$$
