LDT.pdb
     RDKit          3D

 24 23  0  0  1  0  0  0  0  0999 V2000
    7.1433  -13.3840   21.5638 C   0  0  0  0  0  0  0  0  0  0  0  0
    8.1140  -13.6223   20.4244 C   0  0  2  0  0  0  0  0  0  0  0  0
    8.1548  -12.4537   19.4651 C   0  0  0  0  0  0  0  0  0  0  0  0
    7.6262  -14.8251   19.6461 C   0  0  0  0  0  0  0  0  0  0  0  0
    7.2796  -15.9464   20.6250 C   0  0  2  0  0  0  0  0  0  0  0  0
    6.6178  -15.3732   21.7673 N   0  0  0  0  0  0  0  0  0  0  0  0
    8.5551  -16.6072   20.9756 C   0  0  0  0  0  0  0  0  0  0  0  0
    8.6205  -17.8533   20.8145 O   0  0  0  0  0  0  0  0  0  0  0  0
    9.6921  -15.9146   21.4776 N   0  0  0  0  0  0  0  0  0  0  0  0
   10.8074  -16.5892   22.1076 C   0  0  1  0  0  0  0  0  0  0  0  0
   12.0700  -16.4706   21.3152 C   0  0  0  0  0  0  0  0  0  0  0  0
   13.2192  -17.1516   21.9094 C   0  0  0  0  0  0  0  0  0  0  0  0
   13.1872  -18.3420   22.2457 O   0  0  0  0  0  0  0  0  0  0  0  0
   10.9666  -16.1830   23.5243 C   0  0  0  0  0  0  0  0  0  0  0  0
   11.0626  -14.9533   23.7720 O   0  0  0  0  0  0  0  0  0  0  0  0
   14.3903  -16.4329   22.1030 O   0  0  0  0  0  0  0  0  0  0  0  0
    9.1218  -15.8831   27.6013 C   0  0  0  0  0  0  0  0  0  0  0  0
    9.3651  -16.1101   26.1276 C   0  0  1  0  0  0  0  0  0  0  0  0
    9.2232  -14.9042   25.4816 O   0  0  0  0  0  0  0  0  0  0  0  0
   10.7671  -16.6762   25.9564 C   0  0  2  0  0  0  0  0  0  0  0  0
   11.0162  -17.0838   24.5983 N   0  0  0  0  0  0  0  0  0  0  0  0
   10.9486  -17.8062   26.9083 C   0  0  0  0  0  0  0  0  0  0  0  0
   11.1814  -17.5716   28.2551 O   0  0  0  0  0  0  0  0  0  0  0  0
   10.8965  -18.9998   26.5211 O   0  0  0  0  0  0  0  0  0  0  0  0
  2  4  1  0
  2  1  1  1
  3  2  1  0
  5  6  1  1
  5  4  1  0
  5  7  1  0
  7  8  2  0
  9  7  1  0
  9 10  1  0
 10 14  1  0
 10 11  1  6
 12 11  1  0
 13 12  2  0
 14 15  2  0
 16 12  1  0
 18 17  1  1
 18 19  1  0
 20 18  1  0
 21 14  1  0
 20 21  1  6
 22 20  1  0
 22 23  1  0
 24 22  2  0
M  END
$$$$
