LDT.pdb
     RDKit          3D

 24 23  0  0  1  0  0  0  0  0999 V2000
    7.4065  -12.2334   20.1879 C   0  0  0  0  0  0  0  0  0  0  0  0
    8.4024  -13.3725   20.2761 C   0  0  2  0  0  0  0  0  0  0  0  0
    9.7587  -12.9784   19.7353 C   0  0  0  0  0  0  0  0  0  0  0  0
    7.8869  -14.5044   19.4138 C   0  0  0  0  0  0  0  0  0  0  0  0
    8.8265  -15.7022   19.5479 C   0  0  2  0  0  0  0  0  0  0  0  0
    8.3596  -16.7537   18.6831 N   0  0  0  0  0  0  0  0  0  0  0  0
    8.8140  -16.0885   20.9752 C   0  0  0  0  0  0  0  0  0  0  0  0
    7.6914  -16.2892   21.5068 O   0  0  0  0  0  0  0  0  0  0  0  0
    9.9889  -16.2415   21.7628 N   0  0  0  0  0  0  0  0  0  0  0  0
    9.9552  -16.6407   23.1539 C   0  0  1  0  0  0  0  0  0  0  0  0
   11.1579  -17.4359   23.5508 C   0  0  0  0  0  0  0  0  0  0  0  0
   12.3769  -17.0864   22.8232 C   0  0  0  0  0  0  0  0  0  0  0  0
   13.2338  -16.3236   23.2869 O   0  0  0  0  0  0  0  0  0  0  0  0
    9.6946  -15.4893   24.0503 C   0  0  0  0  0  0  0  0  0  0  0  0
   10.3435  -14.4311   23.8456 O   0  0  0  0  0  0  0  0  0  0  0  0
   12.5786  -17.6325   21.5636 O   0  0  0  0  0  0  0  0  0  0  0  0
    6.8721  -12.6323   26.5798 C   0  0  0  0  0  0  0  0  0  0  0  0
    7.0400  -13.9301   25.8249 C   0  0  1  0  0  0  0  0  0  0  0  0
    6.6515  -13.7188   24.5226 O   0  0  0  0  0  0  0  0  0  0  0  0
    8.5001  -14.3490   25.9135 C   0  0  2  0  0  0  0  0  0  0  0  0
    8.7724  -15.5101   25.1070 N   0  0  0  0  0  0  0  0  0  0  0  0
    8.8474  -14.5821   27.3421 C   0  0  0  0  0  0  0  0  0  0  0  0
    8.8760  -13.5324   28.2478 O   0  0  0  0  0  0  0  0  0  0  0  0
    9.1234  -15.7313   27.7669 O   0  0  0  0  0  0  0  0  0  0  0  0
  2  4  1  0
  2  1  1  6
  3  2  1  0
  5  6  1  6
  5  4  1  0
  5  7  1  0
  7  8  2  0
  9  7  1  0
  9 10  1  0
 10 14  1  0
 10 11  1  1
 12 11  1  0
 13 12  2  0
 14 15  2  0
 16 12  1  0
 18 17  1  1
 18 19  1  0
 20 18  1  0
 21 14  1  0
 20 21  1  6
 22 20  1  0
 22 23  1  0
 24 22  2  0
M  END
$$$$
