LDT.pdb
     RDKit          3D

 24 23  0  0  1  0  0  0  0  0999 V2000
    7.2306  -12.6621   23.5561 C   0  0  0  0  0  0  0  0  0  0  0  0
    7.9130  -13.6652   22.6477 C   0  0  2  0  0  0  0  0  0  0  0  0
    8.2304  -13.0736   21.2925 C   0  0  0  0  0  0  0  0  0  0  0  0
    6.9523  -14.8128   22.4227 C   0  0  0  0  0  0  0  0  0  0  0  0
    7.6796  -15.9355   21.6837 C   0  0  2  0  0  0  0  0  0  0  0  0
    6.7279  -16.9641   21.3558 N   0  0  0  0  0  0  0  0  0  0  0  0
    8.7469  -16.4122   22.5894 C   0  0  0  0  0  0  0  0  0  0  0  0
    8.4293  -17.2746   23.4486 O   0  0  0  0  0  0  0  0  0  0  0  0
   10.0919  -15.9512   22.5373 N   0  0  0  0  0  0  0  0  0  0  0  0
   11.1647  -16.5735   23.2841 C   0  0  1  0  0  0  0  0  0  0  0  0
   12.4938  -16.4145   22.6174 C   0  0  0  0  0  0  0  0  0  0  0  0
   13.5931  -17.0982   23.2968 C   0  0  0  0  0  0  0  0  0  0  0  0
   14.5329  -16.4888   23.8227 O   0  0  0  0  0  0  0  0  0  0  0  0
   11.1679  -16.1445   24.7029 C   0  0  0  0  0  0  0  0  0  0  0  0
   12.0570  -16.6206   25.4551 O   0  0  0  0  0  0  0  0  0  0  0  0
   13.5798  -18.4846   23.3529 O   0  0  0  0  0  0  0  0  0  0  0  0
    9.2116  -13.5396   28.4195 C   0  0  0  0  0  0  0  0  0  0  0  0
    8.9931  -14.1424   27.0517 C   0  0  1  0  0  0  0  0  0  0  0  0
    8.6961  -13.1220   26.1788 O   0  0  0  0  0  0  0  0  0  0  0  0
   10.2622  -14.8767   26.6448 C   0  0  2  0  0  0  0  0  0  0  0  0
   10.2435  -15.2443   25.2529 N   0  0  0  0  0  0  0  0  0  0  0  0
   10.4309  -16.0673   27.5223 C   0  0  0  0  0  0  0  0  0  0  0  0
   10.6300  -15.9228   28.8870 O   0  0  0  0  0  0  0  0  0  0  0  0
   10.3980  -17.2322   27.0542 O   0  0  0  0  0  0  0  0  0  0  0  0
  2  4  1  0
  2  1  1  1
  3  2  1  0
  5  6  1  1
  5  4  1  0
  5  7  1  0
  7  8  2  0
  9  7  1  0
  9 10  1  0
 10 14  1  0
 10 11  1  6
 12 11  1  0
 13 12  2  0
 14 15  2  0
 16 12  1  0
 18 17  1  1
 18 19  1  0
 20 18  1  0
 21 14  1  0
 20 21  1  6
 22 20  1  0
 22 23  1  0
 24 22  2  0
M  END
$$$$
