LDT.pdb
     RDKit          3D

 24 23  0  0  1  0  0  0  0  0999 V2000
    9.0287  -13.4314   19.3509 C   0  0  0  0  0  0  0  0  0  0  0  0
    7.7653  -13.5218   20.1832 C   0  0  2  0  0  0  0  0  0  0  0  0
    7.2085  -12.1547   20.5128 C   0  0  0  0  0  0  0  0  0  0  0  0
    8.1224  -14.1889   21.4939 C   0  0  0  0  0  0  0  0  0  0  0  0
    8.5770  -15.6216   21.2174 C   0  0  2  0  0  0  0  0  0  0  0  0
    7.4699  -16.3589   20.6680 N   0  0  0  0  0  0  0  0  0  0  0  0
    9.0446  -16.1706   22.5084 C   0  0  0  0  0  0  0  0  0  0  0  0
    8.1649  -16.5142   23.3396 O   0  0  0  0  0  0  0  0  0  0  0  0
   10.4169  -16.3263   22.8503 N   0  0  0  0  0  0  0  0  0  0  0  0
   10.8530  -16.8867   24.1119 C   0  0  1  0  0  0  0  0  0  0  0  0
   12.1247  -17.6633   23.9844 C   0  0  0  0  0  0  0  0  0  0  0  0
   13.1240  -17.0425   23.1164 C   0  0  0  0  0  0  0  0  0  0  0  0
   14.1188  -16.4553   23.5599 O   0  0  0  0  0  0  0  0  0  0  0  0
   10.8992  -15.8621   25.1821 C   0  0  0  0  0  0  0  0  0  0  0  0
   11.8811  -15.0757   25.1958 O   0  0  0  0  0  0  0  0  0  0  0  0
   12.9479  -17.1160   21.7420 O   0  0  0  0  0  0  0  0  0  0  0  0
    8.7609  -12.9727   26.3643 C   0  0  0  0  0  0  0  0  0  0  0  0
    8.8487  -13.9588   27.5054 C   0  0  1  0  0  0  0  0  0  0  0  0
    7.6954  -14.7080   27.5109 O   0  0  0  0  0  0  0  0  0  0  0  0
   10.0801  -14.8270   27.2930 C   0  0  2  0  0  0  0  0  0  0  0  0
    9.9183  -15.7188   26.1744 N   0  0  0  0  0  0  0  0  0  0  0  0
   10.3651  -15.5726   28.5496 C   0  0  0  0  0  0  0  0  0  0  0  0
   10.6395  -14.8986   29.7301 O   0  0  0  0  0  0  0  0  0  0  0  0
   10.3652  -16.8282   28.5771 O   0  0  0  0  0  0  0  0  0  0  0  0
  2  4  1  0
  2  1  1  6
  3  2  1  0
  5  6  1  1
  5  4  1  0
  5  7  1  0
  7  8  2  0
  9  7  1  0
  9 10  1  0
 10 14  1  0
 10 11  1  6
 12 11  1  0
 13 12  2  0
 14 15  2  0
 16 12  1  0
 18 17  1  6
 18 19  1  0
 20 18  1  0
 21 14  1  0
 20 21  1  6
 22 20  1  0
 22 23  1  0
 24 22  2  0
M  END
$$$$
