LDT.pdb
     RDKit          3D

 24 23  0  0  1  0  0  0  0  0999 V2000
    9.2681  -12.3439   18.6642 C   0  0  0  0  0  0  0  0  0  0  0  0
    7.9827  -13.1459   18.6198 C   0  0  2  0  0  0  0  0  0  0  0  0
    6.7711  -12.2842   18.8970 C   0  0  0  0  0  0  0  0  0  0  0  0
    8.0514  -14.1892   19.7140 C   0  0  0  0  0  0  0  0  0  0  0  0
    9.3220  -15.0191   19.5338 C   0  0  2  0  0  0  0  0  0  0  0  0
    9.2282  -15.7428   18.2933 N   0  0  0  0  0  0  0  0  0  0  0  0
    9.4118  -15.9108   20.7101 C   0  0  0  0  0  0  0  0  0  0  0  0
    8.3726  -16.0525   21.4050 O   0  0  0  0  0  0  0  0  0  0  0  0
   10.5955  -16.6040   21.0875 N   0  0  0  0  0  0  0  0  0  0  0  0
   10.6636  -17.4675   22.2475 C   0  0  1  0  0  0  0  0  0  0  0  0
   11.8847  -18.3309   22.2478 C   0  0  0  0  0  0  0  0  0  0  0  0
   11.8403  -19.4351   23.2051 C   0  0  0  0  0  0  0  0  0  0  0  0
   11.3425  -19.3198   24.3321 O   0  0  0  0  0  0  0  0  0  0  0  0
   10.4840  -16.7095   23.5086 C   0  0  0  0  0  0  0  0  0  0  0  0
   11.3823  -15.8894   23.8301 O   0  0  0  0  0  0  0  0  0  0  0  0
   12.3779  -20.6590   22.8332 O   0  0  0  0  0  0  0  0  0  0  0  0
    7.9427  -14.2717   24.7200 C   0  0  0  0  0  0  0  0  0  0  0  0
    7.9447  -15.4023   25.7221 C   0  0  1  0  0  0  0  0  0  0  0  0
    6.8797  -16.2250   25.4384 O   0  0  0  0  0  0  0  0  0  0  0  0
    9.2700  -16.1409   25.6065 C   0  0  2  0  0  0  0  0  0  0  0  0
    9.3781  -16.8521   24.3594 N   0  0  0  0  0  0  0  0  0  0  0  0
    9.4134  -17.0560   26.7719 C   0  0  0  0  0  0  0  0  0  0  0  0
    9.4591  -16.5588   28.0655 O   0  0  0  0  0  0  0  0  0  0  0  0
    9.4968  -18.2996   26.6180 O   0  0  0  0  0  0  0  0  0  0  0  0
  2  4  1  0
  2  1  1  1
  3  2  1  0
  5  6  1  6
  5  4  1  0
  5  7  1  0
  7  8  2  0
  9  7  1  0
  9 10  1  0
 10 14  1  0
 10 11  1  1
 12 11  1  0
 13 12  2  0
 14 15  2  0
 16 12  1  0
 18 17  1  6
 18 19  1  0
 20 18  1  0
 21 14  1  0
 20 21  1  6
 22 20  1  0
 22 23  1  0
 24 22  2  0
M  END
$$$$
