SAH.pdb
     RDKit          3D

 22 22  0  0  1  0  0  0  0  0999 V2000
    8.0276  -20.1906   20.7109 O   0  0  0  0  0  0  0  0  0  0  0  0
    8.3851  -18.9387   21.1841 C   0  0  0  0  0  0  0  0  0  0  0  0
    8.4061  -17.9626   20.0284 C   0  0  2  0  0  0  0  0  0  0  0  0
    9.2559  -18.4308   18.9572 N   0  0  0  0  0  0  0  0  0  0  0  0
    8.8725  -16.6588   20.5716 C   0  0  0  0  0  0  0  0  0  0  0  0
   10.1171  -16.5030   20.6837 O   0  0  0  0  0  0  0  0  0  0  0  0
    7.3332  -13.3517   21.3464 C   0  0  0  0  0  0  0  0  0  0  0  0
    8.5101  -14.3377   21.3540 C   0  0  2  0  0  0  0  0  0  0  0  0
    7.9858  -15.6156   20.9563 N   0  0  0  0  0  0  0  0  0  0  0  0
    9.0109  -14.3458   22.7541 C   0  0  0  0  0  0  0  0  0  0  0  0
    9.4983  -13.2805   23.2080 O   0  0  0  0  0  0  0  0  0  0  0  0
    8.9693  -15.4729   23.5930 N   0  0  0  0  0  0  0  0  0  0  0  0
    9.3176  -15.4562   25.0178 C   0  0  1  0  0  0  0  0  0  0  0  0
    8.1001  -15.7481   25.8577 C   0  0  0  0  0  0  0  0  0  0  0  0
    7.2903  -14.5214   25.9809 C   0  0  0  0  0  0  0  0  0  0  0  0
    7.7797  -13.2313   26.1954 C   0  0  0  0  0  0  0  0  0  0  0  0
    6.7598  -12.3669   26.2536 N   0  0  0  0  0  0  0  0  0  0  0  0
    5.6357  -13.0733   26.0819 C   0  0  0  0  0  0  0  0  0  0  0  0
    5.9687  -14.3864   25.9163 N   0  0  0  0  0  0  0  0  0  0  0  0
   10.2833  -16.5664   25.1891 C   0  0  0  0  0  0  0  0  0  0  0  0
   10.9238  -16.8543   26.3887 O   0  0  0  0  0  0  0  0  0  0  0  0
   10.5486  -17.2946   24.2114 O   0  0  0  0  0  0  0  0  0  0  0  0
  2  1  1  0
  3  4  1  6
  3  2  1  0
  5  3  1  0
  5  6  2  0
  8  7  1  1
  8  9  1  0
  8 10  1  0
  9  5  1  0
 10 12  1  0
 11 10  2  0
 12 13  1  0
 13 20  1  0
 14 15  1  0
 13 14  1  1
 15 16  2  0
 17 16  1  0
 18 17  1  0
 19 18  2  0
 19 15  1  0
 20 22  2  0
 20 21  1  0
M  END
$$$$
