SAH.pdb
     RDKit          3D

 22 22  0  0  1  0  0  0  0  0999 V2000
    8.1590  -18.4753   20.6038 O   0  0  0  0  0  0  0  0  0  0  0  0
    7.0593  -18.1925   19.8103 C   0  0  0  0  0  0  0  0  0  0  0  0
    7.5061  -17.3641   18.6259 C   0  0  2  0  0  0  0  0  0  0  0  0
    8.3166  -18.1397   17.7147 N   0  0  0  0  0  0  0  0  0  0  0  0
    8.2519  -16.1979   19.1702 C   0  0  0  0  0  0  0  0  0  0  0  0
    9.5090  -16.2740   19.1622 O   0  0  0  0  0  0  0  0  0  0  0  0
    7.3950  -12.7176   20.2114 C   0  0  0  0  0  0  0  0  0  0  0  0
    8.3878  -13.8701   20.0032 C   0  0  2  0  0  0  0  0  0  0  0  0
    7.6112  -15.0365   19.6829 N   0  0  0  0  0  0  0  0  0  0  0  0
    9.1079  -14.0111   21.2965 C   0  0  0  0  0  0  0  0  0  0  0  0
    9.7804  -13.0306   21.7024 O   0  0  0  0  0  0  0  0  0  0  0  0
    9.0778  -15.1739   22.0857 N   0  0  0  0  0  0  0  0  0  0  0  0
    9.7202  -15.2989   23.3985 C   0  0  1  0  0  0  0  0  0  0  0  0
    8.7153  -15.7372   24.4334 C   0  0  0  0  0  0  0  0  0  0  0  0
    7.7982  -14.6189   24.7231 C   0  0  0  0  0  0  0  0  0  0  0  0
    8.0852  -13.5038   25.5133 C   0  0  0  0  0  0  0  0  0  0  0  0
    7.0197  -12.6953   25.5547 N   0  0  0  0  0  0  0  0  0  0  0  0
    6.0636  -13.2668   24.8121 C   0  0  0  0  0  0  0  0  0  0  0  0
    6.5471  -14.4396   24.3088 N   0  0  0  0  0  0  0  0  0  0  0  0
   10.7237  -16.3759   23.2328 C   0  0  0  0  0  0  0  0  0  0  0  0
   11.7032  -16.6699   24.1742 O   0  0  0  0  0  0  0  0  0  0  0  0
   10.7033  -17.0685   22.1952 O   0  0  0  0  0  0  0  0  0  0  0  0
  2  1  1  0
  3  4  1  6
  3  2  1  0
  5  3  1  0
  5  6  2  0
  8  7  1  1
  8  9  1  0
  8 10  1  0
  9  5  1  0
 10 12  1  0
 11 10  2  0
 12 13  1  0
 13 20  1  0
 14 15  1  0
 13 14  1  1
 15 16  2  0
 17 16  1  0
 18 17  1  0
 19 18  2  0
 19 15  1  0
 20 22  2  0
 20 21  1  0
M  END
$$$$
