SAH.pdb
     RDKit          3D

 22 22  0  0  1  0  0  0  0  0999 V2000
    5.6551  -20.8843   22.3596 O   0  0  0  0  0  0  0  0  0  0  0  0
    5.7313  -19.6526   21.7303 C   0  0  0  0  0  0  0  0  0  0  0  0
    7.0850  -19.5204   21.0679 C   0  0  2  0  0  0  0  0  0  0  0  0
    7.4724  -20.7470   20.4090 N   0  0  0  0  0  0  0  0  0  0  0  0
    8.0517  -19.1376   22.1316 C   0  0  0  0  0  0  0  0  0  0  0  0
    8.5477  -20.0742   22.8118 O   0  0  0  0  0  0  0  0  0  0  0  0
    9.6820  -15.9908   23.3333 C   0  0  0  0  0  0  0  0  0  0  0  0
    9.4156  -17.5017   23.3944 C   0  0  2  0  0  0  0  0  0  0  0  0
    8.4220  -17.7904   22.3965 N   0  0  0  0  0  0  0  0  0  0  0  0
    8.9211  -17.7611   24.7725 C   0  0  0  0  0  0  0  0  0  0  0  0
    7.8338  -17.2323   25.1139 O   0  0  0  0  0  0  0  0  0  0  0  0
    9.5990  -18.5607   25.7090 N   0  0  0  0  0  0  0  0  0  0  0  0
    9.1131  -18.8375   27.0651 C   0  0  1  0  0  0  0  0  0  0  0  0
    8.8812  -20.3162   27.2464 C   0  0  0  0  0  0  0  0  0  0  0  0
    7.6408  -20.7018   26.5476 C   0  0  0  0  0  0  0  0  0  0  0  0
    6.7003  -19.8274   25.9991 C   0  0  0  0  0  0  0  0  0  0  0  0
    5.7043  -20.5280   25.4442 N   0  0  0  0  0  0  0  0  0  0  0  0
    5.9868  -21.8239   25.6256 C   0  0  0  0  0  0  0  0  0  0  0  0
    7.1697  -21.9206   26.2993 N   0  0  0  0  0  0  0  0  0  0  0  0
   10.2181  -18.4224   27.9601 C   0  0  0  0  0  0  0  0  0  0  0  0
   11.4133  -17.8752   27.5083 O   0  0  0  0  0  0  0  0  0  0  0  0
   10.0855  -18.5650   29.1925 O   0  0  0  0  0  0  0  0  0  0  0  0
  2  1  1  0
  3  4  1  1
  3  2  1  0
  5  3  1  0
  5  6  2  0
  8  7  1  1
  8  9  1  0
  8 10  1  0
  9  5  1  0
 10 12  1  0
 11 10  2  0
 12 13  1  0
 13 20  1  0
 14 15  1  0
 13 14  1  6
 15 16  2  0
 17 16  1  0
 18 17  1  0
 19 18  2  0
 19 15  1  0
 20 22  2  0
 20 21  1  0
M  END
$$$$
