SAH.pdb
     RDKit          3D

 22 22  0  0  1  0  0  0  0  0999 V2000
    9.7813  -12.1763   19.9986 O   0  0  0  0  0  0  0  0  0  0  0  0
    9.9351  -13.3522   19.2828 C   0  0  0  0  0  0  0  0  0  0  0  0
    8.5695  -13.9356   18.9940 C   0  0  2  0  0  0  0  0  0  0  0  0
    7.6103  -12.9023   18.6764 N   0  0  0  0  0  0  0  0  0  0  0  0
    8.1663  -14.7100   20.1983 C   0  0  0  0  0  0  0  0  0  0  0  0
    7.3193  -14.1740   20.9607 O   0  0  0  0  0  0  0  0  0  0  0  0
    8.6404  -18.1756   21.4808 C   0  0  0  0  0  0  0  0  0  0  0  0
    8.2026  -16.7140   21.6522 C   0  0  2  0  0  0  0  0  0  0  0  0
    8.6902  -15.9956   20.5066 N   0  0  0  0  0  0  0  0  0  0  0  0
    8.8383  -16.2559   22.9161 C   0  0  0  0  0  0  0  0  0  0  0  0
    9.9706  -15.7169   22.8404 O   0  0  0  0  0  0  0  0  0  0  0  0
    8.2457  -16.3918   24.1835 N   0  0  0  0  0  0  0  0  0  0  0  0
    8.8493  -15.9172   25.4334 C   0  0  1  0  0  0  0  0  0  0  0  0
    7.7763  -15.5123   26.4121 C   0  0  0  0  0  0  0  0  0  0  0  0
    7.3199  -14.1463   26.0936 C   0  0  0  0  0  0  0  0  0  0  0  0
    8.0904  -13.1362   25.5141 C   0  0  0  0  0  0  0  0  0  0  0  0
    7.3497  -12.0308   25.3716 N   0  0  0  0  0  0  0  0  0  0  0  0
    6.1295  -12.3116   25.8451 C   0  0  0  0  0  0  0  0  0  0  0  0
    6.1203  -13.6041   26.2834 N   0  0  0  0  0  0  0  0  0  0  0  0
    9.5665  -17.0914   25.9823 C   0  0  0  0  0  0  0  0  0  0  0  0
   10.4279  -17.0299   27.0716 O   0  0  0  0  0  0  0  0  0  0  0  0
    9.3998  -18.2069   25.4489 O   0  0  0  0  0  0  0  0  0  0  0  0
  2  1  1  0
  3  4  1  1
  3  2  1  0
  5  3  1  0
  5  6  2  0
  8  7  1  6
  8  9  1  0
  8 10  1  0
  9  5  1  0
 10 12  1  0
 11 10  2  0
 12 13  1  0
 13 20  1  0
 14 15  1  0
 13 14  1  1
 15 16  2  0
 17 16  1  0
 18 17  1  0
 19 18  2  0
 19 15  1  0
 20 22  2  0
 20 21  1  0
M  END
$$$$
