SAH.pdb
     RDKit          3D

 22 22  0  0  1  0  0  0  0  0999 V2000
    6.7170  -19.5661   21.8314 O   0  0  0  0  0  0  0  0  0  0  0  0
    7.9843  -19.0400   21.6412 C   0  0  0  0  0  0  0  0  0  0  0  0
    7.9735  -18.1618   20.4093 C   0  0  2  0  0  0  0  0  0  0  0  0
    8.7302  -18.7558   19.3308 N   0  0  0  0  0  0  0  0  0  0  0  0
    8.5317  -16.8435   20.8128 C   0  0  0  0  0  0  0  0  0  0  0  0
    9.7846  -16.7638   20.9123 O   0  0  0  0  0  0  0  0  0  0  0  0
    7.2362  -13.3826   21.3456 C   0  0  0  0  0  0  0  0  0  0  0  0
    8.3349  -14.4522   21.4244 C   0  0  2  0  0  0  0  0  0  0  0  0
    7.7215  -15.7060   21.0813 N   0  0  0  0  0  0  0  0  0  0  0  0
    8.8126  -14.4260   22.8323 C   0  0  0  0  0  0  0  0  0  0  0  0
    9.4370  -13.4071   23.2201 O   0  0  0  0  0  0  0  0  0  0  0  0
    8.6054  -15.4721   23.7480 N   0  0  0  0  0  0  0  0  0  0  0  0
    9.1184  -15.4815   25.1223 C   0  0  1  0  0  0  0  0  0  0  0  0
    7.9783  -15.5559   26.1060 C   0  0  0  0  0  0  0  0  0  0  0  0
    7.4613  -14.1967   26.3529 C   0  0  0  0  0  0  0  0  0  0  0  0
    8.2298  -13.0445   26.5314 C   0  0  0  0  0  0  0  0  0  0  0  0
    7.4258  -11.9939   26.7325 N   0  0  0  0  0  0  0  0  0  0  0  0
    6.1672  -12.4477   26.6865 C   0  0  0  0  0  0  0  0  0  0  0  0
    6.1983  -13.7923   26.4545 N   0  0  0  0  0  0  0  0  0  0  0  0
    9.9108  -16.7287   25.2268 C   0  0  0  0  0  0  0  0  0  0  0  0
   10.6517  -17.0809   26.3490 O   0  0  0  0  0  0  0  0  0  0  0  0
    9.9253  -17.5198   24.2621 O   0  0  0  0  0  0  0  0  0  0  0  0
  2  1  1  0
  3  4  1  6
  3  2  1  0
  5  3  1  0
  5  6  2  0
  8  7  1  1
  8  9  1  0
  8 10  1  0
  9  5  1  0
 10 12  1  0
 11 10  2  0
 12 13  1  0
 13 20  1  0
 14 15  1  0
 13 14  1  1
 15 16  2  0
 17 16  1  0
 18 17  1  0
 19 18  2  0
 19 15  1  0
 20 22  2  0
 20 21  1  0
M  END
$$$$
