TLW.pdb
     RDKit          3D

 30 31  0  0  1  0  0  0  0  0999 V2000
    6.9299  -20.5203   20.7065 C   0  0  0  0  0  0  0  0  0  0  0  0
    7.5941  -19.2996   21.3310 C   0  0  1  0  0  0  0  0  0  0  0  0
    8.4145  -19.7692   22.3374 O   0  0  0  0  0  0  0  0  0  0  0  0
    8.2977  -18.5686   20.2497 C   0  0  2  0  0  0  0  0  0  0  0  0
    9.1415  -19.4225   19.4417 N   0  0  0  0  0  0  0  0  0  0  0  0
    9.0214  -17.3522   20.7054 C   0  0  0  0  0  0  0  0  0  0  0  0
   10.2788  -17.2900   20.6099 O   0  0  0  0  0  0  0  0  0  0  0  0
    8.9869  -12.9169   19.5056 C   0  0  0  0  0  0  0  0  0  0  0  0
    7.7393  -13.5099   20.2151 C   0  0  2  0  0  0  0  0  0  0  0  0
    6.7321  -12.3903   20.2758 C   0  0  0  0  0  0  0  0  0  0  0  0
    8.1892  -13.8481   21.5976 C   0  0  0  0  0  0  0  0  0  0  0  0
    9.1000  -15.0139   21.7226 C   0  0  2  0  0  0  0  0  0  0  0  0
    8.3673  -16.2337   21.2544 N   0  0  0  0  0  0  0  0  0  0  0  0
    9.6988  -15.2837   23.0266 C   0  0  0  0  0  0  0  0  0  0  0  0
   10.5684  -14.4329   23.4499 O   0  0  0  0  0  0  0  0  0  0  0  0
    9.4556  -16.3491   23.8975 N   0  0  0  0  0  0  0  0  0  0  0  0
   10.0811  -16.5127   25.2110 C   0  0  1  0  0  0  0  0  0  0  0  0
    8.9534  -16.7113   26.1816 C   0  0  0  0  0  0  0  0  0  0  0  0
    7.7916  -15.8299   26.0361 C   0  0  0  0  0  0  0  0  0  0  0  0
    6.5489  -16.2280   25.5261 C   0  0  0  0  0  0  0  0  0  0  0  0
    5.7070  -15.1949   25.4999 N   0  0  0  0  0  0  0  0  0  0  0  0
    6.3651  -14.1242   25.9814 C   0  0  0  0  0  0  0  0  0  0  0  0
    5.9718  -12.8205   26.1858 C   0  0  0  0  0  0  0  0  0  0  0  0
    6.8072  -11.8719   26.7118 C   0  0  0  0  0  0  0  0  0  0  0  0
    8.1038  -12.2382   27.0536 C   0  0  0  0  0  0  0  0  0  0  0  0
    8.5126  -13.5354   26.8557 C   0  0  0  0  0  0  0  0  0  0  0  0
    7.6482  -14.4912   26.3172 C   0  0  0  0  0  0  0  0  0  0  0  0
   11.1168  -17.5477   25.1983 C   0  0  0  0  0  0  0  0  0  0  0  0
   11.8053  -17.7188   26.2592 O   0  0  0  0  0  0  0  0  0  0  0  0
   11.4337  -18.3760   24.1514 O   0  0  0  0  0  0  0  0  0  0  0  0
  2  1  1  6
  3  2  1  0
  4  6  1  0
  4  5  1  1
  4  2  1  0
  6  7  2  0
  9 11  1  0
  9  8  1  6
 10  9  1  0
 12 11  1  1
 12 14  1  0
 13 12  1  0
 13  6  1  0
 14 15  2  0
 16 17  1  0
 16 14  1  0
 17 28  1  0
 17 18  1  1
 19 18  1  0
 20 19  2  0
 21 22  1  0
 21 20  1  0
 22 27  2  0
 23 22  1  0
 23 24  2  0
 24 25  1  0
 25 26  2  0
 27 19  1  0
 27 26  1  0
 28 29  2  0
 28 30  1  0
M  END
$$$$
