TLW.pdb
     RDKit          3D

 30 31  0  0  1  0  0  0  0  0999 V2000
    8.1625  -20.8990   19.9760 C   0  0  0  0  0  0  0  0  0  0  0  0
    8.8743  -19.7174   20.6230 C   0  0  1  0  0  0  0  0  0  0  0  0
   10.1396  -20.1557   20.9592 O   0  0  0  0  0  0  0  0  0  0  0  0
    8.8454  -18.5922   19.6577 C   0  0  2  0  0  0  0  0  0  0  0  0
    9.3691  -18.9462   18.3560 N   0  0  0  0  0  0  0  0  0  0  0  0
    9.4480  -17.3329   20.1695 C   0  0  0  0  0  0  0  0  0  0  0  0
   10.6839  -17.1179   20.0260 O   0  0  0  0  0  0  0  0  0  0  0  0
    9.0752  -13.1981   19.0688 C   0  0  0  0  0  0  0  0  0  0  0  0
    7.8739  -13.7602   19.8766 C   0  0  2  0  0  0  0  0  0  0  0  0
    6.8434  -12.6606   19.8962 C   0  0  0  0  0  0  0  0  0  0  0  0
    8.3907  -13.9807   21.2595 C   0  0  0  0  0  0  0  0  0  0  0  0
    9.3250  -15.1211   21.4349 C   0  0  2  0  0  0  0  0  0  0  0  0
    8.6993  -16.3379   20.8251 N   0  0  0  0  0  0  0  0  0  0  0  0
    9.7778  -15.4392   22.7860 C   0  0  0  0  0  0  0  0  0  0  0  0
   10.6487  -14.6447   23.3052 O   0  0  0  0  0  0  0  0  0  0  0  0
    9.3912  -16.4983   23.6117 N   0  0  0  0  0  0  0  0  0  0  0  0
   10.0019  -16.8146   24.9040 C   0  0  1  0  0  0  0  0  0  0  0  0
    9.7592  -15.6181   25.7774 C   0  0  0  0  0  0  0  0  0  0  0  0
    8.3635  -15.2228   25.9858 C   0  0  0  0  0  0  0  0  0  0  0  0
    7.2593  -16.0599   25.7789 C   0  0  0  0  0  0  0  0  0  0  0  0
    6.1271  -15.4036   26.0322 N   0  0  0  0  0  0  0  0  0  0  0  0
    6.4585  -14.1528   26.4022 C   0  0  0  0  0  0  0  0  0  0  0  0
    5.6914  -13.0746   26.7835 C   0  0  0  0  0  0  0  0  0  0  0  0
    6.2372  -11.8719   27.1441 C   0  0  0  0  0  0  0  0  0  0  0  0
    7.6200  -11.7324   27.1252 C   0  0  0  0  0  0  0  0  0  0  0  0
    8.4002  -12.7987   26.7467 C   0  0  0  0  0  0  0  0  0  0  0  0
    7.8279  -14.0191   26.3809 C   0  0  0  0  0  0  0  0  0  0  0  0
    9.5418  -18.1031   25.4255 C   0  0  0  0  0  0  0  0  0  0  0  0
    8.6052  -18.7025   24.7991 O   0  0  0  0  0  0  0  0  0  0  0  0
   10.0188  -18.7550   26.5345 O   0  0  0  0  0  0  0  0  0  0  0  0
  2  1  1  6
  3  2  1  0
  4  6  1  0
  4  5  1  6
  4  2  1  0
  6  7  2  0
  9 11  1  0
  9  8  1  6
 10  9  1  0
 12 11  1  1
 12 14  1  0
 13 12  1  0
 13  6  1  0
 14 15  2  0
 16 17  1  0
 16 14  1  0
 17 28  1  0
 17 18  1  1
 19 18  1  0
 20 19  2  0
 21 22  1  0
 21 20  1  0
 22 27  2  0
 23 22  1  0
 23 24  2  0
 24 25  1  0
 25 26  2  0
 27 19  1  0
 27 26  1  0
 28 29  2  0
 28 30  1  0
M  END
$$$$
