TLW.pdb
     RDKit          3D

 30 31  0  0  1  0  0  0  0  0999 V2000
   12.1060  -20.8224   18.7164 C   0  0  0  0  0  0  0  0  0  0  0  0
   11.6981  -19.7523   19.7214 C   0  0  1  0  0  0  0  0  0  0  0  0
   12.6009  -19.8260   20.7635 O   0  0  0  0  0  0  0  0  0  0  0  0
   11.6794  -18.4515   19.0097 C   0  0  2  0  0  0  0  0  0  0  0  0
   12.9145  -18.1678   18.3111 N   0  0  0  0  0  0  0  0  0  0  0  0
   11.2452  -17.3029   19.8482 C   0  0  0  0  0  0  0  0  0  0  0  0
   12.0904  -16.4531   20.2455 O   0  0  0  0  0  0  0  0  0  0  0  0
    6.2284  -14.0439   20.8296 C   0  0  0  0  0  0  0  0  0  0  0  0
    7.6060  -14.3454   21.4799 C   0  0  2  0  0  0  0  0  0  0  0  0
    8.4593  -13.1323   21.2124 C   0  0  0  0  0  0  0  0  0  0  0  0
    8.1547  -15.5134   20.7296 C   0  0  0  0  0  0  0  0  0  0  0  0
    9.4881  -16.0017   21.1629 C   0  0  2  0  0  0  0  0  0  0  0  0
    9.9078  -17.1024   20.2374 N   0  0  0  0  0  0  0  0  0  0  0  0
    9.6424  -16.4498   22.5439 C   0  0  0  0  0  0  0  0  0  0  0  0
    9.7620  -17.7189   22.7293 O   0  0  0  0  0  0  0  0  0  0  0  0
    9.6839  -15.6847   23.7125 N   0  0  0  0  0  0  0  0  0  0  0  0
    9.9284  -16.2209   25.0526 C   0  0  1  0  0  0  0  0  0  0  0  0
    9.5897  -15.1127   26.0069 C   0  0  0  0  0  0  0  0  0  0  0  0
    8.1973  -14.6560   26.0239 C   0  0  0  0  0  0  0  0  0  0  0  0
    7.0880  -15.4731   25.7696 C   0  0  0  0  0  0  0  0  0  0  0  0
    5.9634  -14.7609   25.8375 N   0  0  0  0  0  0  0  0  0  0  0  0
    6.3046  -13.4926   26.1313 C   0  0  0  0  0  0  0  0  0  0  0  0
    5.5463  -12.3604   26.3295 C   0  0  0  0  0  0  0  0  0  0  0  0
    6.0995  -11.1477   26.6420 C   0  0  0  0  0  0  0  0  0  0  0  0
    7.4809  -11.0544   26.7645 C   0  0  0  0  0  0  0  0  0  0  0  0
    8.2525  -12.1750   26.5695 C   0  0  0  0  0  0  0  0  0  0  0  0
    7.6727  -13.4049   26.2504 C   0  0  0  0  0  0  0  0  0  0  0  0
    9.2390  -17.4949   25.2660 C   0  0  0  0  0  0  0  0  0  0  0  0
    9.5456  -18.1756   26.3012 O   0  0  0  0  0  0  0  0  0  0  0  0
    8.2750  -18.0488   24.4620 O   0  0  0  0  0  0  0  0  0  0  0  0
  2  1  1  6
  3  2  1  0
  4  6  1  0
  4  5  1  1
  4  2  1  0
  6  7  2  0
  9 11  1  0
  9  8  1  6
 10  9  1  0
 12 11  1  6
 12 14  1  0
 13 12  1  0
 13  6  1  0
 14 15  2  0
 16 17  1  0
 16 14  1  0
 17 28  1  0
 17 18  1  1
 19 18  1  0
 20 19  2  0
 21 22  1  0
 21 20  1  0
 22 27  2  0
 23 22  1  0
 23 24  2  0
 24 25  1  0
 25 26  2  0
 27 19  1  0
 27 26  1  0
 28 29  2  0
 28 30  1  0
M  END
$$$$
