TLW.pdb
     RDKit          3D

 30 31  0  0  1  0  0  0  0  0999 V2000
    8.3342  -20.8917   20.0357 C   0  0  0  0  0  0  0  0  0  0  0  0
    8.6840  -19.6511   20.8481 C   0  0  1  0  0  0  0  0  0  0  0  0
    9.4905  -20.0741   21.8858 O   0  0  0  0  0  0  0  0  0  0  0  0
    9.3191  -18.6764   19.9286 C   0  0  2  0  0  0  0  0  0  0  0  0
   10.4415  -19.2288   19.2013 N   0  0  0  0  0  0  0  0  0  0  0  0
    9.6596  -17.3738   20.5597 C   0  0  0  0  0  0  0  0  0  0  0  0
   10.8652  -17.0773   20.7896 O   0  0  0  0  0  0  0  0  0  0  0  0
    8.8194  -13.0052   19.3880 C   0  0  0  0  0  0  0  0  0  0  0  0
    7.6291  -13.8687   19.8869 C   0  0  2  0  0  0  0  0  0  0  0  0
    6.4142  -12.9811   19.7991 C   0  0  0  0  0  0  0  0  0  0  0  0
    7.9241  -14.1658   21.3197 C   0  0  0  0  0  0  0  0  0  0  0  0
    9.0332  -15.1190   21.5755 C   0  0  2  0  0  0  0  0  0  0  0  0
    8.6879  -16.4249   20.9278 N   0  0  0  0  0  0  0  0  0  0  0  0
    9.4299  -15.3591   22.9600 C   0  0  0  0  0  0  0  0  0  0  0  0
   10.0152  -14.3871   23.5698 O   0  0  0  0  0  0  0  0  0  0  0  0
    9.2581  -16.5110   23.7321 N   0  0  0  0  0  0  0  0  0  0  0  0
    9.7741  -16.6897   25.0905 C   0  0  1  0  0  0  0  0  0  0  0  0
    8.5696  -16.8766   25.9666 C   0  0  0  0  0  0  0  0  0  0  0  0
    7.5499  -15.8248   25.9235 C   0  0  0  0  0  0  0  0  0  0  0  0
    6.2566  -15.9900   25.4109 C   0  0  0  0  0  0  0  0  0  0  0  0
    5.5770  -14.8462   25.4920 N   0  0  0  0  0  0  0  0  0  0  0  0
    6.3917  -13.9299   26.0469 C   0  0  0  0  0  0  0  0  0  0  0  0
    6.1983  -12.6054   26.3701 C   0  0  0  0  0  0  0  0  0  0  0  0
    7.1708  -11.8394   26.9549 C   0  0  0  0  0  0  0  0  0  0  0  0
    8.4022  -12.4205   27.2340 C   0  0  0  0  0  0  0  0  0  0  0  0
    8.6119  -13.7414   26.9174 C   0  0  0  0  0  0  0  0  0  0  0  0
    7.6096  -14.5092   26.3203 C   0  0  0  0  0  0  0  0  0  0  0  0
   10.7928  -17.7394   25.1547 C   0  0  0  0  0  0  0  0  0  0  0  0
   10.9545  -18.4805   24.1283 O   0  0  0  0  0  0  0  0  0  0  0  0
   11.6148  -18.0186   26.2172 O   0  0  0  0  0  0  0  0  0  0  0  0
  2  1  1  6
  3  2  1  0
  4  6  1  0
  4  5  1  1
  4  2  1  0
  6  7  2  0
  9 11  1  0
  9  8  1  1
 10  9  1  0
 12 11  1  1
 12 14  1  0
 13 12  1  0
 13  6  1  0
 14 15  2  0
 16 17  1  0
 16 14  1  0
 17 28  1  0
 17 18  1  1
 19 18  1  0
 20 19  2  0
 21 22  1  0
 21 20  1  0
 22 27  2  0
 23 22  1  0
 23 24  2  0
 24 25  1  0
 25 26  2  0
 27 19  1  0
 27 26  1  0
 28 29  2  0
 28 30  1  0
M  END
$$$$
