TLW.pdb
     RDKit          3D

 30 31  0  0  1  0  0  0  0  0999 V2000
    8.9779  -20.8837   18.4513 C   0  0  0  0  0  0  0  0  0  0  0  0
    9.3924  -19.7544   19.3864 C   0  0  1  0  0  0  0  0  0  0  0  0
   10.5348  -20.1794   20.0350 O   0  0  0  0  0  0  0  0  0  0  0  0
    9.5656  -18.5320   18.5652 C   0  0  2  0  0  0  0  0  0  0  0  0
   10.4208  -18.7356   17.4157 N   0  0  0  0  0  0  0  0  0  0  0  0
    9.9632  -17.3269   19.3402 C   0  0  0  0  0  0  0  0  0  0  0  0
   11.1367  -16.8709   19.2448 O   0  0  0  0  0  0  0  0  0  0  0  0
    7.8799  -13.0247   20.2790 C   0  0  0  0  0  0  0  0  0  0  0  0
    7.2627  -14.3411   20.8245 C   0  0  2  0  0  0  0  0  0  0  0  0
    6.0737  -13.9239   21.6514 C   0  0  0  0  0  0  0  0  0  0  0  0
    8.3045  -14.9313   21.7159 C   0  0  0  0  0  0  0  0  0  0  0  0
    9.5074  -15.4814   21.0417 C   0  0  2  0  0  0  0  0  0  0  0  0
    9.0821  -16.6456   20.2003 N   0  0  0  0  0  0  0  0  0  0  0  0
   10.6419  -15.8769   21.8713 C   0  0  0  0  0  0  0  0  0  0  0  0
   11.6567  -15.0836   21.8780 O   0  0  0  0  0  0  0  0  0  0  0  0
   10.7842  -17.0104   22.6761 N   0  0  0  0  0  0  0  0  0  0  0  0
   11.0977  -16.9845   24.1059 C   0  0  1  0  0  0  0  0  0  0  0  0
   10.0199  -16.1604   24.7483 C   0  0  0  0  0  0  0  0  0  0  0  0
   10.1008  -15.9806   26.2005 C   0  0  0  0  0  0  0  0  0  0  0  0
   10.3126  -17.0157   27.1205 C   0  0  0  0  0  0  0  0  0  0  0  0
   10.3131  -16.5365   28.3643 N   0  0  0  0  0  0  0  0  0  0  0  0
   10.1071  -15.2087   28.2865 C   0  0  0  0  0  0  0  0  0  0  0  0
   10.0303  -14.2334   29.2555 C   0  0  0  0  0  0  0  0  0  0  0  0
    9.8269  -12.9126   28.9579 C   0  0  0  0  0  0  0  0  0  0  0  0
    9.6928  -12.5402   27.6255 C   0  0  0  0  0  0  0  0  0  0  0  0
    9.7666  -13.5014   26.6459 C   0  0  0  0  0  0  0  0  0  0  0  0
    9.9738  -14.8450   26.9661 C   0  0  0  0  0  0  0  0  0  0  0  0
   11.2950  -18.3308   24.6469 C   0  0  0  0  0  0  0  0  0  0  0  0
   10.7360  -19.3065   24.0432 O   0  0  0  0  0  0  0  0  0  0  0  0
   12.0341  -18.6687   25.7523 O   0  0  0  0  0  0  0  0  0  0  0  0
  2  1  1  6
  3  2  1  0
  4  6  1  0
  4  5  1  6
  4  2  1  0
  6  7  2  0
  9 11  1  0
  9  8  1  1
 10  9  1  0
 12 11  1  1
 12 14  1  0
 13 12  1  0
 13  6  1  0
 14 15  2  0
 16 17  1  0
 16 14  1  0
 17 28  1  0
 17 18  1  1
 19 18  1  0
 20 19  2  0
 21 22  1  0
 21 20  1  0
 22 27  2  0
 23 22  1  0
 23 24  2  0
 24 25  1  0
 25 26  2  0
 27 19  1  0
 27 26  1  0
 28 29  2  0
 28 30  1  0
M  END
$$$$
