TLW.pdb
     RDKit          3D

 30 31  0  0  1  0  0  0  0  0999 V2000
    7.8579  -17.3113   18.1151 C   0  0  0  0  0  0  0  0  0  0  0  0
    8.0836  -17.1527   19.6135 C   0  0  1  0  0  0  0  0  0  0  0  0
    8.7936  -18.2632   20.0247 O   0  0  0  0  0  0  0  0  0  0  0  0
    8.7776  -15.8601   19.8289 C   0  0  2  0  0  0  0  0  0  0  0  0
    9.9923  -15.7307   19.0530 N   0  0  0  0  0  0  0  0  0  0  0  0
    8.9985  -15.5163   21.2586 C   0  0  0  0  0  0  0  0  0  0  0  0
   10.1345  -15.6863   21.7828 O   0  0  0  0  0  0  0  0  0  0  0  0
    6.6244  -14.8017   26.1593 C   0  0  0  0  0  0  0  0  0  0  0  0
    7.1028  -13.4979   25.4646 C   0  0  2  0  0  0  0  0  0  0  0  0
    6.0362  -12.4703   25.7437 C   0  0  0  0  0  0  0  0  0  0  0  0
    7.1234  -13.8078   24.0046 C   0  0  0  0  0  0  0  0  0  0  0  0
    8.1837  -14.7416   23.5486 C   0  0  2  0  0  0  0  0  0  0  0  0
    7.9851  -14.9985   22.0862 N   0  0  0  0  0  0  0  0  0  0  0  0
    8.3253  -16.0166   24.2458 C   0  0  0  0  0  0  0  0  0  0  0  0
    7.5168  -16.9575   23.8987 O   0  0  0  0  0  0  0  0  0  0  0  0
    9.2312  -16.3689   25.2497 N   0  0  0  0  0  0  0  0  0  0  0  0
    9.6921  -17.7326   25.5168 C   0  0  1  0  0  0  0  0  0  0  0  0
   11.0497  -17.5928   26.1419 C   0  0  0  0  0  0  0  0  0  0  0  0
   11.1011  -17.0312   27.4945 C   0  0  0  0  0  0  0  0  0  0  0  0
   11.1989  -17.7896   28.6685 C   0  0  0  0  0  0  0  0  0  0  0  0
   11.2012  -16.9916   29.7361 N   0  0  0  0  0  0  0  0  0  0  0  0
   11.1079  -15.7239   29.2940 C   0  0  0  0  0  0  0  0  0  0  0  0
   11.0825  -14.5189   29.9601 C   0  0  0  0  0  0  0  0  0  0  0  0
   10.9980  -13.3178   29.3086 C   0  0  0  0  0  0  0  0  0  0  0  0
   10.9354  -13.3130   27.9201 C   0  0  0  0  0  0  0  0  0  0  0  0
   10.9593  -14.5071   27.2398 C   0  0  0  0  0  0  0  0  0  0  0  0
   11.0451  -15.7243   27.9193 C   0  0  0  0  0  0  0  0  0  0  0  0
    8.7051  -18.5049   26.2739 C   0  0  0  0  0  0  0  0  0  0  0  0
    7.6612  -17.8991   26.6891 O   0  0  0  0  0  0  0  0  0  0  0  0
    8.7763  -19.8381   26.5901 O   0  0  0  0  0  0  0  0  0  0  0  0
  2  1  1  6
  3  2  1  0
  4  6  1  0
  4  5  1  6
  4  2  1  0
  6  7  2  0
  9 11  1  0
  9  8  1  1
 10  9  1  0
 12 11  1  1
 12 14  1  0
 13 12  1  0
 13  6  1  0
 14 15  2  0
 16 17  1  0
 16 14  1  0
 17 28  1  0
 17 18  1  1
 19 18  1  0
 20 19  2  0
 21 22  1  0
 21 20  1  0
 22 27  2  0
 23 22  1  0
 23 24  2  0
 24 25  1  0
 25 26  2  0
 27 19  1  0
 27 26  1  0
 28 29  2  0
 28 30  1  0
M  END
$$$$
