NWE.pdb
     RDKit          3D

 32 33  0  0  1  0  0  0  0  0999 V2000
    7.8282  -17.2067   18.3104 N   0  0  0  0  0  0  0  0  0  0  0  0
    7.9713  -15.8348   18.6465 C   0  0  0  0  0  0  0  0  0  0  0  0
    7.6547  -14.9933   17.7415 O   0  0  0  0  0  0  0  0  0  0  0  0
    8.4623  -15.3899   19.9768 C   0  0  0  0  0  0  0  0  0  0  0  0
    8.8277  -16.5618   20.8582 C   0  0  2  0  0  0  0  0  0  0  0  0
    7.6645  -17.3613   21.1241 N   0  0  0  0  0  0  0  0  0  0  0  0
    9.4160  -16.1147   22.1507 C   0  0  0  0  0  0  0  0  0  0  0  0
   10.3869  -15.3075   22.1746 O   0  0  0  0  0  0  0  0  0  0  0  0
    8.8710  -16.6078   23.3547 N   0  0  0  0  0  0  0  0  0  0  0  0
    9.4498  -16.5760   24.6627 C   0  0  1  0  0  0  0  0  0  0  0  0
    8.4122  -16.4966   25.7655 C   0  0  0  0  0  0  0  0  0  0  0  0
    7.3979  -15.4840   25.3959 C   0  0  0  0  0  0  0  0  0  0  0  0
    6.2465  -15.5910   24.6603 C   0  0  0  0  0  0  0  0  0  0  0  0
    5.6437  -14.3684   24.5898 N   0  0  0  0  0  0  0  0  0  0  0  0
    6.3580  -13.4581   25.2550 C   0  0  0  0  0  0  0  0  0  0  0  0
    6.1564  -12.0996   25.4705 C   0  0  0  0  0  0  0  0  0  0  0  0
    7.0900  -11.4210   26.2194 C   0  0  0  0  0  0  0  0  0  0  0  0
    8.1733  -12.0668   26.7295 C   0  0  0  0  0  0  0  0  0  0  0  0
    8.3597  -13.4222   26.5051 C   0  0  0  0  0  0  0  0  0  0  0  0
    7.4620  -14.1291   25.7705 C   0  0  0  0  0  0  0  0  0  0  0  0
   10.5022  -17.5702   24.9014 C   0  0  0  0  0  0  0  0  0  0  0  0
   10.1060  -18.7616   25.1254 O   0  0  0  0  0  0  0  0  0  0  0  0
   11.8684  -17.2587   24.8901 N   0  0  0  0  0  0  0  0  0  0  0  0
   12.8824  -18.3047   25.1000 C   0  0  1  0  0  0  0  0  0  0  0  0
   14.0999  -18.0112   24.2882 C   0  0  0  0  0  0  0  0  0  0  0  0
   14.5547  -16.5946   24.4481 C   0  0  0  0  0  0  0  0  0  0  0  0
   15.7637  -16.3909   23.5937 C   0  0  0  0  0  0  0  0  0  0  0  0
   16.1883  -17.3235   22.8903 O   0  0  0  0  0  0  0  0  0  0  0  0
   13.2014  -18.3260   26.5340 C   0  0  0  0  0  0  0  0  0  0  0  0
   13.9824  -19.1587   27.0251 O   0  0  0  0  0  0  0  0  0  0  0  0
   16.3862  -15.1678   23.6028 O   0  0  0  0  0  0  0  0  0  0  0  0
   12.6253  -17.3985   27.3850 O   0  0  0  0  0  0  0  0  0  0  0  0
  1  2  1  0
  2  3  2  0
  4  2  1  0
  5  6  1  1
  5  4  1  0
  7  5  1  0
  8  7  2  0
  9  7  1  0
 10  9  1  0
 11 12  1  0
 10 11  1  1
 12 20  1  0
 12 13  2  0
 13 14  1  0
 15 14  1  0
 15 16  2  0
 17 16  1  0
 18 17  2  0
 19 20  2  0
 19 18  1  0
 20 15  1  0
 21 22  2  0
 21 10  1  0
 23 21  1  0
 24 23  1  0
 24 25  1  6
 26 25  1  0
 27 26  1  0
 28 27  2  0
 29 24  1  0
 30 29  2  0
 31 27  1  0
 32 29  1  0
M  END
$$$$
