NWE.pdb
     RDKit          3D

 32 33  0  0  1  0  0  0  0  0999 V2000
    9.5385  -16.6989   16.7299 N   0  0  0  0  0  0  0  0  0  0  0  0
    9.7974  -17.7791   17.6141 C   0  0  0  0  0  0  0  0  0  0  0  0
    9.6068  -18.9513   17.1484 O   0  0  0  0  0  0  0  0  0  0  0  0
   10.2654  -17.5691   19.0090 C   0  0  0  0  0  0  0  0  0  0  0  0
    9.1316  -17.6814   20.0018 C   0  0  2  0  0  0  0  0  0  0  0  0
    8.0241  -16.8697   19.5805 N   0  0  0  0  0  0  0  0  0  0  0  0
    9.5522  -17.2595   21.3662 C   0  0  0  0  0  0  0  0  0  0  0  0
   10.5136  -17.8311   21.9525 O   0  0  0  0  0  0  0  0  0  0  0  0
    8.8584  -16.2064   21.9984 N   0  0  0  0  0  0  0  0  0  0  0  0
    9.0396  -15.7024   23.3250 C   0  0  1  0  0  0  0  0  0  0  0  0
    8.2753  -14.4175   23.5777 C   0  0  0  0  0  0  0  0  0  0  0  0
    8.3896  -14.0671   25.0113 C   0  0  0  0  0  0  0  0  0  0  0  0
    9.2735  -14.4848   25.9717 C   0  0  0  0  0  0  0  0  0  0  0  0
    8.9680  -13.8798   27.1565 N   0  0  0  0  0  0  0  0  0  0  0  0
    7.9127  -13.0759   27.0102 C   0  0  0  0  0  0  0  0  0  0  0  0
    7.2404  -12.2570   27.9103 C   0  0  0  0  0  0  0  0  0  0  0  0
    6.1688  -11.5311   27.4439 C   0  0  0  0  0  0  0  0  0  0  0  0
    5.7858  -11.6174   26.1414 C   0  0  0  0  0  0  0  0  0  0  0  0
    6.4670  -12.4392   25.2565 C   0  0  0  0  0  0  0  0  0  0  0  0
    7.5300  -13.1733   25.6764 C   0  0  0  0  0  0  0  0  0  0  0  0
    8.9041  -16.6994   24.3930 C   0  0  0  0  0  0  0  0  0  0  0  0
    7.7421  -17.2026   24.5445 O   0  0  0  0  0  0  0  0  0  0  0  0
    9.9695  -17.0946   25.2130 N   0  0  0  0  0  0  0  0  0  0  0  0
    9.8595  -18.2854   26.0711 C   0  0  1  0  0  0  0  0  0  0  0  0
   10.5032  -19.4578   25.4090 C   0  0  0  0  0  0  0  0  0  0  0  0
   11.9748  -19.5160   25.6744 C   0  0  0  0  0  0  0  0  0  0  0  0
   12.6009  -20.4075   24.6516 C   0  0  0  0  0  0  0  0  0  0  0  0
   13.0055  -21.5362   24.9791 O   0  0  0  0  0  0  0  0  0  0  0  0
   10.5235  -17.9725   27.3439 C   0  0  0  0  0  0  0  0  0  0  0  0
   10.4015  -18.6946   28.3480 O   0  0  0  0  0  0  0  0  0  0  0  0
   12.7175  -19.9586   23.3599 O   0  0  0  0  0  0  0  0  0  0  0  0
   11.3156  -16.8423   27.4518 O   0  0  0  0  0  0  0  0  0  0  0  0
  1  2  1  0
  2  3  2  0
  4  2  1  0
  5  6  1  6
  5  4  1  0
  7  5  1  0
  8  7  2  0
  9  7  1  0
 10  9  1  0
 11 12  1  0
 10 11  1  1
 12 20  1  0
 12 13  2  0
 13 14  1  0
 15 14  1  0
 15 16  2  0
 17 16  1  0
 18 17  2  0
 19 20  2  0
 19 18  1  0
 20 15  1  0
 21 22  2  0
 21 10  1  0
 23 21  1  0
 24 23  1  0
 24 25  1  6
 26 25  1  0
 27 26  1  0
 28 27  2  0
 29 24  1  0
 30 29  2  0
 31 27  1  0
 32 29  1  0
M  END
$$$$
