NWE.pdb
     RDKit          3D

 32 33  0  0  1  0  0  0  0  0999 V2000
    9.3803  -16.9497   18.6998 N   0  0  0  0  0  0  0  0  0  0  0  0
    9.3536  -15.6241   19.2074 C   0  0  0  0  0  0  0  0  0  0  0  0
    9.2178  -14.6907   18.3486 O   0  0  0  0  0  0  0  0  0  0  0  0
    9.4761  -15.3266   20.6584 C   0  0  0  0  0  0  0  0  0  0  0  0
    9.6424  -16.5870   21.4753 C   0  0  2  0  0  0  0  0  0  0  0  0
    8.4306  -17.3574   21.4469 N   0  0  0  0  0  0  0  0  0  0  0  0
    9.9919  -16.2827   22.8901 C   0  0  0  0  0  0  0  0  0  0  0  0
   10.9723  -15.5369   23.1682 O   0  0  0  0  0  0  0  0  0  0  0  0
    9.2083  -16.8417   23.9214 N   0  0  0  0  0  0  0  0  0  0  0  0
    9.4605  -16.8224   25.3295 C   0  0  1  0  0  0  0  0  0  0  0  0
    8.1900  -16.7848   26.1562 C   0  0  0  0  0  0  0  0  0  0  0  0
    7.3032  -15.7267   25.6226 C   0  0  0  0  0  0  0  0  0  0  0  0
    6.1885  -15.8028   24.8291 C   0  0  0  0  0  0  0  0  0  0  0  0
    5.7153  -14.5435   24.5977 N   0  0  0  0  0  0  0  0  0  0  0  0
    6.4798  -13.6388   25.2126 C   0  0  0  0  0  0  0  0  0  0  0  0
    6.4034  -12.2521   25.2774 C   0  0  0  0  0  0  0  0  0  0  0  0
    7.3581  -11.5884   26.0128 C   0  0  0  0  0  0  0  0  0  0  0  0
    8.3424  -12.2749   26.6535 C   0  0  0  0  0  0  0  0  0  0  0  0
    8.4045  -13.6579   26.5787 C   0  0  0  0  0  0  0  0  0  0  0  0
    7.4819  -14.3517   25.8626 C   0  0  0  0  0  0  0  0  0  0  0  0
   10.4505  -17.7990   25.7975 C   0  0  0  0  0  0  0  0  0  0  0  0
   10.0777  -19.0186   25.7953 O   0  0  0  0  0  0  0  0  0  0  0  0
   11.7359  -17.4425   26.2270 N   0  0  0  0  0  0  0  0  0  0  0  0
   12.6378  -18.4434   26.8196 C   0  0  1  0  0  0  0  0  0  0  0  0
   14.0572  -18.0041   26.6789 C   0  0  0  0  0  0  0  0  0  0  0  0
   14.3304  -17.4056   25.3349 C   0  0  0  0  0  0  0  0  0  0  0  0
   15.7626  -16.9812   25.2928 C   0  0  0  0  0  0  0  0  0  0  0  0
   16.1246  -15.9638   25.9082 O   0  0  0  0  0  0  0  0  0  0  0  0
   12.2703  -18.5825   28.2353 C   0  0  0  0  0  0  0  0  0  0  0  0
   11.4119  -17.8598   28.7694 O   0  0  0  0  0  0  0  0  0  0  0  0
   16.6571  -17.7297   24.5696 O   0  0  0  0  0  0  0  0  0  0  0  0
   12.8868  -19.5426   29.0192 O   0  0  0  0  0  0  0  0  0  0  0  0
  1  2  1  0
  2  3  2  0
  4  2  1  0
  5  6  1  1
  5  4  1  0
  7  5  1  0
  8  7  2  0
  9  7  1  0
 10  9  1  0
 11 12  1  0
 10 11  1  1
 12 20  1  0
 12 13  2  0
 13 14  1  0
 15 14  1  0
 15 16  2  0
 17 16  1  0
 18 17  2  0
 19 20  2  0
 19 18  1  0
 20 15  1  0
 21 22  2  0
 21 10  1  0
 23 21  1  0
 24 23  1  0
 24 25  1  1
 26 25  1  0
 27 26  1  0
 28 27  2  0
 29 24  1  0
 30 29  2  0
 31 27  1  0
 32 29  1  0
M  END
$$$$
