NWE.pdb
     RDKit          3D

 32 33  0  0  1  0  0  0  0  0999 V2000
    9.2680  -17.1169   17.7944 N   0  0  0  0  0  0  0  0  0  0  0  0
    9.4972  -15.7570   18.1320 C   0  0  0  0  0  0  0  0  0  0  0  0
    9.5642  -14.9348   17.1590 O   0  0  0  0  0  0  0  0  0  0  0  0
    9.6524  -15.3031   19.5386 C   0  0  0  0  0  0  0  0  0  0  0  0
    9.6284  -16.4635   20.5063 C   0  0  2  0  0  0  0  0  0  0  0  0
    8.3423  -17.1024   20.4793 N   0  0  0  0  0  0  0  0  0  0  0  0
    9.9240  -16.0247   21.8979 C   0  0  0  0  0  0  0  0  0  0  0  0
   10.8520  -15.2011   22.1331 O   0  0  0  0  0  0  0  0  0  0  0  0
    9.1490  -16.5443   22.9558 N   0  0  0  0  0  0  0  0  0  0  0  0
    9.3549  -16.3815   24.3622 C   0  0  1  0  0  0  0  0  0  0  0  0
    8.0600  -16.2128   25.1327 C   0  0  0  0  0  0  0  0  0  0  0  0
    7.3734  -14.9925   24.6528 C   0  0  0  0  0  0  0  0  0  0  0  0
    6.7075  -14.7362   23.4828 C   0  0  0  0  0  0  0  0  0  0  0  0
    6.2469  -13.4514   23.5007 N   0  0  0  0  0  0  0  0  0  0  0  0
    6.5856  -12.8513   24.6436 C   0  0  0  0  0  0  0  0  0  0  0  0
    6.3458  -11.5683   25.1225 C   0  0  0  0  0  0  0  0  0  0  0  0
    6.8307  -11.2452   26.3688 C   0  0  0  0  0  0  0  0  0  0  0  0
    7.5219  -12.1584   27.1031 C   0  0  0  0  0  0  0  0  0  0  0  0
    7.7526  -13.4338   26.6107 C   0  0  0  0  0  0  0  0  0  0  0  0
    7.2917  -13.7932   25.3846 C   0  0  0  0  0  0  0  0  0  0  0  0
   10.2920  -17.3344   24.9679 C   0  0  0  0  0  0  0  0  0  0  0  0
    9.8348  -18.5039   25.1909 O   0  0  0  0  0  0  0  0  0  0  0  0
   11.6154  -17.0075   25.2928 N   0  0  0  0  0  0  0  0  0  0  0  0
   12.5001  -17.9932   25.9346 C   0  0  1  0  0  0  0  0  0  0  0  0
   13.9288  -17.6179   25.7213 C   0  0  0  0  0  0  0  0  0  0  0  0
   14.2415  -17.3925   24.2755 C   0  0  0  0  0  0  0  0  0  0  0  0
   15.6995  -17.0889   24.1528 C   0  0  0  0  0  0  0  0  0  0  0  0
   16.4498  -17.8852   23.5629 O   0  0  0  0  0  0  0  0  0  0  0  0
   12.1714  -18.0119   27.3665 C   0  0  0  0  0  0  0  0  0  0  0  0
   11.3696  -17.2077   27.8712 O   0  0  0  0  0  0  0  0  0  0  0  0
   16.1852  -15.9269   24.6982 O   0  0  0  0  0  0  0  0  0  0  0  0
   12.7617  -18.9465   28.1999 O   0  0  0  0  0  0  0  0  0  0  0  0
  1  2  1  0
  2  3  2  0
  4  2  1  0
  5  6  1  1
  5  4  1  0
  7  5  1  0
  8  7  2  0
  9  7  1  0
 10  9  1  0
 11 12  1  0
 10 11  1  1
 12 20  1  0
 12 13  2  0
 13 14  1  0
 15 14  1  0
 15 16  2  0
 17 16  1  0
 18 17  2  0
 19 20  2  0
 19 18  1  0
 20 15  1  0
 21 22  2  0
 21 10  1  0
 23 21  1  0
 24 23  1  0
 24 25  1  1
 26 25  1  0
 27 26  1  0
 28 27  2  0
 29 24  1  0
 30 29  2  0
 31 27  1  0
 32 29  1  0
M  END
$$$$
