NWE.pdb
     RDKit          3D

 32 33  0  0  1  0  0  0  0  0999 V2000
   10.4500  -16.3262   18.0043 N   0  0  0  0  0  0  0  0  0  0  0  0
   11.1905  -16.7596   19.1354 C   0  0  0  0  0  0  0  0  0  0  0  0
   12.1106  -17.6157   18.9167 O   0  0  0  0  0  0  0  0  0  0  0  0
   10.9186  -16.2513   20.5053 C   0  0  0  0  0  0  0  0  0  0  0  0
   10.5627  -17.3705   21.4563 C   0  0  2  0  0  0  0  0  0  0  0  0
    9.3024  -17.9513   21.0859 N   0  0  0  0  0  0  0  0  0  0  0  0
   10.4821  -16.8910   22.8634 C   0  0  0  0  0  0  0  0  0  0  0  0
   11.4304  -16.2352   23.3787 O   0  0  0  0  0  0  0  0  0  0  0  0
    9.3255  -17.1808   23.6173 N   0  0  0  0  0  0  0  0  0  0  0  0
    9.1096  -16.9722   25.0161 C   0  0  1  0  0  0  0  0  0  0  0  0
    7.6711  -16.6244   25.3459 C   0  0  0  0  0  0  0  0  0  0  0  0
    7.3385  -15.3238   24.7226 C   0  0  0  0  0  0  0  0  0  0  0  0
    6.9592  -15.0100   23.4436 C   0  0  0  0  0  0  0  0  0  0  0  0
    6.7671  -13.6618   23.3504 N   0  0  0  0  0  0  0  0  0  0  0  0
    7.0059  -13.0752   24.5252 C   0  0  0  0  0  0  0  0  0  0  0  0
    6.9428  -11.7456   24.9262 C   0  0  0  0  0  0  0  0  0  0  0  0
    7.2488  -11.4527   26.2352 C   0  0  0  0  0  0  0  0  0  0  0  0
    7.6009  -12.4392   27.1034 C   0  0  0  0  0  0  0  0  0  0  0  0
    7.6591  -13.7604   26.6873 C   0  0  0  0  0  0  0  0  0  0  0  0
    7.3654  -14.0924   25.4033 C   0  0  0  0  0  0  0  0  0  0  0  0
    9.6957  -17.9909   25.8946 C   0  0  0  0  0  0  0  0  0  0  0  0
    9.0524  -19.0883   25.9858 O   0  0  0  0  0  0  0  0  0  0  0  0
   10.8892  -17.7979   26.6033 N   0  0  0  0  0  0  0  0  0  0  0  0
   11.5130  -18.9051   27.3458 C   0  0  1  0  0  0  0  0  0  0  0  0
   12.9654  -18.9931   27.0139 C   0  0  0  0  0  0  0  0  0  0  0  0
   13.6379  -20.1241   27.7265 C   0  0  0  0  0  0  0  0  0  0  0  0
   15.0526  -20.2026   27.2516 C   0  0  0  0  0  0  0  0  0  0  0  0
   15.6465  -21.2945   27.2547 O   0  0  0  0  0  0  0  0  0  0  0  0
   11.3179  -18.6389   28.7775 C   0  0  0  0  0  0  0  0  0  0  0  0
   11.2990  -19.5499   29.6226 O   0  0  0  0  0  0  0  0  0  0  0  0
   15.6731  -19.0580   26.8178 O   0  0  0  0  0  0  0  0  0  0  0  0
   11.1474  -17.3393   29.2229 O   0  0  0  0  0  0  0  0  0  0  0  0
  1  2  1  0
  2  3  2  0
  4  2  1  0
  5  6  1  6
  5  4  1  0
  7  5  1  0
  8  7  2  0
  9  7  1  0
 10  9  1  0
 11 12  1  0
 10 11  1  6
 12 20  1  0
 12 13  2  0
 13 14  1  0
 15 14  1  0
 15 16  2  0
 17 16  1  0
 18 17  2  0
 19 20  2  0
 19 18  1  0
 20 15  1  0
 21 22  2  0
 21 10  1  0
 23 21  1  0
 24 23  1  0
 24 25  1  1
 26 25  1  0
 27 26  1  0
 28 27  2  0
 29 24  1  0
 30 29  2  0
 31 27  1  0
 32 29  1  0
M  END
$$$$
