NWE.pdb
     RDKit          3D

 32 33  0  0  1  0  0  0  0  0999 V2000
    9.1400  -19.8499   17.4786 N   0  0  0  0  0  0  0  0  0  0  0  0
    9.9824  -18.7198   17.3091 C   0  0  0  0  0  0  0  0  0  0  0  0
   10.5711  -18.6152   16.1822 O   0  0  0  0  0  0  0  0  0  0  0  0
   10.1765  -17.7062   18.3786 C   0  0  0  0  0  0  0  0  0  0  0  0
    9.3648  -18.0317   19.6110 C   0  0  2  0  0  0  0  0  0  0  0  0
    7.9658  -17.8468   19.3439 N   0  0  0  0  0  0  0  0  0  0  0  0
    9.7556  -17.1792   20.7673 C   0  0  0  0  0  0  0  0  0  0  0  0
   10.9537  -17.1373   21.1644 O   0  0  0  0  0  0  0  0  0  0  0  0
    8.7639  -16.4145   21.4167 N   0  0  0  0  0  0  0  0  0  0  0  0
    8.8934  -15.6300   22.6060 C   0  0  1  0  0  0  0  0  0  0  0  0
    7.7529  -14.6486   22.7930 C   0  0  0  0  0  0  0  0  0  0  0  0
    8.0834  -13.7389   23.9128 C   0  0  0  0  0  0  0  0  0  0  0  0
    9.1258  -12.8659   24.0848 C   0  0  0  0  0  0  0  0  0  0  0  0
    8.9989  -12.2484   25.2956 N   0  0  0  0  0  0  0  0  0  0  0  0
    7.9073  -12.6838   25.9281 C   0  0  0  0  0  0  0  0  0  0  0  0
    7.3603  -12.3566   27.1636 C   0  0  0  0  0  0  0  0  0  0  0  0
    6.1977  -12.9882   27.5407 C   0  0  0  0  0  0  0  0  0  0  0  0
    5.6081  -13.9027   26.7241 C   0  0  0  0  0  0  0  0  0  0  0  0
    6.1667  -14.2179   25.4949 C   0  0  0  0  0  0  0  0  0  0  0  0
    7.3143  -13.6178   25.0849 C   0  0  0  0  0  0  0  0  0  0  0  0
    9.2365  -16.3865   23.8156 C   0  0  0  0  0  0  0  0  0  0  0  0
    8.4040  -17.2861   24.1679 O   0  0  0  0  0  0  0  0  0  0  0  0
   10.4017  -16.1564   24.5594 N   0  0  0  0  0  0  0  0  0  0  0  0
   10.8589  -17.1289   25.5652 C   0  0  1  0  0  0  0  0  0  0  0  0
   12.2850  -17.4929   25.3178 C   0  0  0  0  0  0  0  0  0  0  0  0
   13.1581  -16.2855   25.1800 C   0  0  0  0  0  0  0  0  0  0  0  0
   14.2350  -16.5959   24.1916 C   0  0  0  0  0  0  0  0  0  0  0  0
   14.7277  -17.7363   24.1511 O   0  0  0  0  0  0  0  0  0  0  0  0
   10.6991  -16.5038   26.8853 C   0  0  0  0  0  0  0  0  0  0  0  0
   10.3238  -15.3265   27.0180 O   0  0  0  0  0  0  0  0  0  0  0  0
   14.6620  -15.6072   23.3408 O   0  0  0  0  0  0  0  0  0  0  0  0
   10.9697  -17.2301   28.0322 O   0  0  0  0  0  0  0  0  0  0  0  0
  1  2  1  0
  2  3  2  0
  4  2  1  0
  5  6  1  6
  5  4  1  0
  7  5  1  0
  8  7  2  0
  9  7  1  0
 10  9  1  0
 11 12  1  0
 10 11  1  1
 12 20  1  0
 12 13  2  0
 13 14  1  0
 15 14  1  0
 15 16  2  0
 17 16  1  0
 18 17  2  0
 19 20  2  0
 19 18  1  0
 20 15  1  0
 21 22  2  0
 21 10  1  0
 23 21  1  0
 24 23  1  0
 24 25  1  6
 26 25  1  0
 27 26  1  0
 28 27  2  0
 29 24  1  0
 30 29  2  0
 31 27  1  0
 32 29  1  0
M  END
$$$$
