NWE.pdb
     RDKit          3D

 32 33  0  0  1  0  0  0  0  0999 V2000
    7.6623  -14.6452   15.6683 N   0  0  0  0  0  0  0  0  0  0  0  0
    8.6178  -15.3590   16.4385 C   0  0  0  0  0  0  0  0  0  0  0  0
    9.1993  -16.3348   15.8580 O   0  0  0  0  0  0  0  0  0  0  0  0
    8.9327  -14.9991   17.8457 C   0  0  0  0  0  0  0  0  0  0  0  0
    8.8303  -16.1943   18.7646 C   0  0  2  0  0  0  0  0  0  0  0  0
    7.5205  -16.7766   18.6732 N   0  0  0  0  0  0  0  0  0  0  0  0
    9.0993  -15.8231   20.1810 C   0  0  0  0  0  0  0  0  0  0  0  0
   10.2337  -15.3939   20.5330 O   0  0  0  0  0  0  0  0  0  0  0  0
    8.0640  -15.9578   21.1297 N   0  0  0  0  0  0  0  0  0  0  0  0
    8.1281  -15.7376   22.5419 C   0  0  1  0  0  0  0  0  0  0  0  0
    6.7602  -15.5865   23.1783 C   0  0  0  0  0  0  0  0  0  0  0  0
    6.9330  -15.2456   24.6083 C   0  0  0  0  0  0  0  0  0  0  0  0
    6.9198  -16.0343   25.7290 C   0  0  0  0  0  0  0  0  0  0  0  0
    7.1199  -15.2528   26.8301 N   0  0  0  0  0  0  0  0  0  0  0  0
    7.2658  -13.9749   26.4738 C   0  0  0  0  0  0  0  0  0  0  0  0
    7.4912  -12.8248   27.2216 C   0  0  0  0  0  0  0  0  0  0  0  0
    7.6035  -11.6305   26.5480 C   0  0  0  0  0  0  0  0  0  0  0  0
    7.4965  -11.5852   25.1925 C   0  0  0  0  0  0  0  0  0  0  0  0
    7.2714  -12.7415   24.4614 C   0  0  0  0  0  0  0  0  0  0  0  0
    7.1536  -13.9411   25.0877 C   0  0  0  0  0  0  0  0  0  0  0  0
    9.0317  -16.6349   23.2709 C   0  0  0  0  0  0  0  0  0  0  0  0
    8.8503  -17.8835   23.0851 O   0  0  0  0  0  0  0  0  0  0  0  0
   10.0422  -16.1763   24.1266 N   0  0  0  0  0  0  0  0  0  0  0  0
   11.1425  -17.0631   24.5378 C   0  0  1  0  0  0  0  0  0  0  0  0
   12.4556  -16.4636   24.1584 C   0  0  0  0  0  0  0  0  0  0  0  0
   13.6070  -17.3316   24.5584 C   0  0  0  0  0  0  0  0  0  0  0  0
   14.8639  -16.7123   24.0390 C   0  0  0  0  0  0  0  0  0  0  0  0
   15.9673  -17.1437   24.4147 O   0  0  0  0  0  0  0  0  0  0  0  0
   11.0467  -17.2362   25.9937 C   0  0  0  0  0  0  0  0  0  0  0  0
   10.3039  -16.5294   26.6959 O   0  0  0  0  0  0  0  0  0  0  0  0
   14.7739  -15.6707   23.1499 O   0  0  0  0  0  0  0  0  0  0  0  0
   11.7986  -18.2117   26.6256 O   0  0  0  0  0  0  0  0  0  0  0  0
  1  2  1  0
  2  3  2  0
  4  2  1  0
  5  6  1  1
  5  4  1  0
  7  5  1  0
  8  7  2  0
  9  7  1  0
 10  9  1  0
 11 12  1  0
 10 11  1  1
 12 20  1  0
 12 13  2  0
 13 14  1  0
 15 14  1  0
 15 16  2  0
 17 16  1  0
 18 17  2  0
 19 20  2  0
 19 18  1  0
 20 15  1  0
 21 22  2  0
 21 10  1  0
 23 21  1  0
 24 23  1  0
 24 25  1  1
 26 25  1  0
 27 26  1  0
 28 27  2  0
 29 24  1  0
 30 29  2  0
 31 27  1  0
 32 29  1  0
M  END
$$$$
