NWE.pdb
     RDKit          3D

 32 33  0  0  1  0  0  0  0  0999 V2000
   11.6941  -16.8666   16.1895 N   0  0  0  0  0  0  0  0  0  0  0  0
   10.5178  -16.3357   16.7810 C   0  0  0  0  0  0  0  0  0  0  0  0
    9.4482  -16.4205   16.0911 O   0  0  0  0  0  0  0  0  0  0  0  0
   10.5189  -15.7123   18.1302 C   0  0  0  0  0  0  0  0  0  0  0  0
   10.0066  -16.6643   19.1861 C   0  0  2  0  0  0  0  0  0  0  0  0
    8.7029  -17.1468   18.8252 N   0  0  0  0  0  0  0  0  0  0  0  0
    9.9310  -16.0132   20.5228 C   0  0  0  0  0  0  0  0  0  0  0  0
   10.9268  -15.4020   21.0020 O   0  0  0  0  0  0  0  0  0  0  0  0
    8.7249  -16.0884   21.2507 N   0  0  0  0  0  0  0  0  0  0  0  0
    8.5093  -15.7896   22.6330 C   0  0  1  0  0  0  0  0  0  0  0  0
    7.0463  -15.5769   22.9697 C   0  0  0  0  0  0  0  0  0  0  0  0
    6.9297  -15.2456   24.4076 C   0  0  0  0  0  0  0  0  0  0  0  0
    6.6482  -16.0343   25.4925 C   0  0  0  0  0  0  0  0  0  0  0  0
    6.6460  -15.2637   26.6191 N   0  0  0  0  0  0  0  0  0  0  0  0
    6.9174  -13.9929   26.3145 C   0  0  0  0  0  0  0  0  0  0  0  0
    7.0295  -12.8547   27.1048 C   0  0  0  0  0  0  0  0  0  0  0  0
    7.3311  -11.6656   26.4821 C   0  0  0  0  0  0  0  0  0  0  0  0
    7.5127  -11.6140   25.1348 C   0  0  0  0  0  0  0  0  0  0  0  0
    7.3972  -12.7585   24.3609 C   0  0  0  0  0  0  0  0  0  0  0  0
    7.0999  -13.9526   24.9361 C   0  0  0  0  0  0  0  0  0  0  0  0
    9.2199  -16.6610   23.5758 C   0  0  0  0  0  0  0  0  0  0  0  0
    8.9355  -17.9026   23.5135 O   0  0  0  0  0  0  0  0  0  0  0  0
   10.1596  -16.1857   24.5004 N   0  0  0  0  0  0  0  0  0  0  0  0
   11.0775  -17.1099   25.1858 C   0  0  1  0  0  0  0  0  0  0  0  0
   12.4856  -16.6361   25.0435 C   0  0  0  0  0  0  0  0  0  0  0  0
   13.2498  -17.4371   24.0367 C   0  0  0  0  0  0  0  0  0  0  0  0
   14.5063  -16.6990   23.7061 C   0  0  0  0  0  0  0  0  0  0  0  0
   14.8737  -16.6020   22.5227 O   0  0  0  0  0  0  0  0  0  0  0  0
   10.6804  -17.1556   26.5996 C   0  0  0  0  0  0  0  0  0  0  0  0
   11.2764  -17.8612   27.4311 O   0  0  0  0  0  0  0  0  0  0  0  0
   15.2357  -16.1380   24.7243 O   0  0  0  0  0  0  0  0  0  0  0  0
    9.6108  -16.3968   27.0429 O   0  0  0  0  0  0  0  0  0  0  0  0
  1  2  1  0
  2  3  2  0
  4  2  1  0
  5  6  1  6
  5  4  1  0
  7  5  1  0
  8  7  2  0
  9  7  1  0
 10  9  1  0
 11 12  1  0
 10 11  1  1
 12 20  1  0
 12 13  2  0
 13 14  1  0
 15 14  1  0
 15 16  2  0
 17 16  1  0
 18 17  2  0
 19 20  2  0
 19 18  1  0
 20 15  1  0
 21 22  2  0
 21 10  1  0
 23 21  1  0
 24 23  1  0
 24 25  1  1
 26 25  1  0
 27 26  1  0
 28 27  2  0
 29 24  1  0
 30 29  2  0
 31 27  1  0
 32 29  1  0
M  END
$$$$
