NWE.pdb
     RDKit          3D

 32 33  0  0  1  0  0  0  0  0999 V2000
   10.8142  -17.5583   17.0782 N   0  0  0  0  0  0  0  0  0  0  0  0
   11.0563  -16.1845   17.3422 C   0  0  0  0  0  0  0  0  0  0  0  0
   11.4967  -15.4889   16.3678 O   0  0  0  0  0  0  0  0  0  0  0  0
   10.8140  -15.5774   18.6769 C   0  0  0  0  0  0  0  0  0  0  0  0
   10.2939  -16.5937   19.6670 C   0  0  2  0  0  0  0  0  0  0  0  0
    9.0170  -17.0922   19.2383 N   0  0  0  0  0  0  0  0  0  0  0  0
   10.1556  -16.0117   21.0303 C   0  0  0  0  0  0  0  0  0  0  0  0
   11.1182  -15.4010   21.5738 O   0  0  0  0  0  0  0  0  0  0  0  0
    8.9276  -16.1522   21.7103 N   0  0  0  0  0  0  0  0  0  0  0  0
    8.6798  -16.0407   23.1149 C   0  0  1  0  0  0  0  0  0  0  0  0
    7.2056  -16.1139   23.4619 C   0  0  0  0  0  0  0  0  0  0  0  0
    6.9849  -15.4334   24.7577 C   0  0  0  0  0  0  0  0  0  0  0  0
    6.5913  -15.9235   25.9755 C   0  0  0  0  0  0  0  0  0  0  0  0
    6.5240  -14.8964   26.8721 N   0  0  0  0  0  0  0  0  0  0  0  0
    6.8608  -13.7451   26.2872 C   0  0  0  0  0  0  0  0  0  0  0  0
    6.9465  -12.4472   26.7782 C   0  0  0  0  0  0  0  0  0  0  0  0
    7.3364  -11.4545   25.9091 C   0  0  0  0  0  0  0  0  0  0  0  0
    7.6273  -11.7424   24.6117 C   0  0  0  0  0  0  0  0  0  0  0  0
    7.5366  -13.0422   24.1378 C   0  0  0  0  0  0  0  0  0  0  0  0
    7.1547  -14.0516   24.9627 C   0  0  0  0  0  0  0  0  0  0  0  0
    9.5371  -16.8739   23.9658 C   0  0  0  0  0  0  0  0  0  0  0  0
    9.5160  -18.1262   23.7255 O   0  0  0  0  0  0  0  0  0  0  0  0
   10.3413  -16.3530   24.9884 N   0  0  0  0  0  0  0  0  0  0  0  0
   11.1806  -17.2376   25.8126 C   0  0  1  0  0  0  0  0  0  0  0  0
   12.6116  -16.8243   25.7175 C   0  0  0  0  0  0  0  0  0  0  0  0
   13.1456  -16.9616   24.3264 C   0  0  0  0  0  0  0  0  0  0  0  0
   14.6153  -16.6931   24.3596 C   0  0  0  0  0  0  0  0  0  0  0  0
   15.3389  -17.3101   25.1600 O   0  0  0  0  0  0  0  0  0  0  0  0
   10.6973  -17.1378   27.1965 C   0  0  0  0  0  0  0  0  0  0  0  0
    9.7993  -16.3450   27.5274 O   0  0  0  0  0  0  0  0  0  0  0  0
   15.1411  -15.7629   23.4984 O   0  0  0  0  0  0  0  0  0  0  0  0
   11.2449  -17.9429   28.1805 O   0  0  0  0  0  0  0  0  0  0  0  0
  1  2  1  0
  2  3  2  0
  4  2  1  0
  5  6  1  6
  5  4  1  0
  7  5  1  0
  8  7  2  0
  9  7  1  0
 10  9  1  0
 11 12  1  0
 10 11  1  6
 12 20  1  0
 12 13  2  0
 13 14  1  0
 15 14  1  0
 15 16  2  0
 17 16  1  0
 18 17  2  0
 19 20  2  0
 19 18  1  0
 20 15  1  0
 21 22  2  0
 21 10  1  0
 23 21  1  0
 24 23  1  0
 24 25  1  1
 26 25  1  0
 27 26  1  0
 28 27  2  0
 29 24  1  0
 30 29  2  0
 31 27  1  0
 32 29  1  0
M  END
$$$$
