TTQ.pdb
     RDKit          3D

 24 23  0  0  1  0  0  0  0  0999 V2000
   24.0212  -11.4610  -17.1342 C   0  0  0  0  0  0  0  0  0  0  0  0
   22.9223  -12.2459  -17.7883 C   0  0  1  0  0  0  0  0  0  0  0  0
   23.3679  -13.5225  -18.1483 O   0  0  0  0  0  0  0  0  0  0  0  0
   21.6579  -12.3011  -16.9824 C   0  0  2  0  0  0  0  0  0  0  0  0
   20.7224  -13.1548  -17.7051 N   0  0  0  0  0  0  0  0  0  0  0  0
   21.0396  -10.9519  -16.8697 C   0  0  0  0  0  0  0  0  0  0  0  0
   20.6552  -10.3378  -17.9146 O   0  0  0  0  0  0  0  0  0  0  0  0
   17.9287   -9.9422  -15.1426 C   0  0  0  0  0  0  0  0  0  0  0  0
   19.0390   -9.0935  -14.6142 C   0  0  1  0  0  0  0  0  0  0  0  0
   19.4515   -9.5715  -13.3721 O   0  0  0  0  0  0  0  0  0  0  0  0
   20.2170   -9.0125  -15.5580 C   0  0  2  0  0  0  0  0  0  0  0  0
   20.8577  -10.3084  -15.6137 N   0  0  0  0  0  0  0  0  0  0  0  0
   21.1707   -7.9465  -15.1555 C   0  0  0  0  0  0  0  0  0  0  0  0
   22.2474   -8.2087  -14.5629 O   0  0  0  0  0  0  0  0  0  0  0  0
   21.4252   -1.7705  -17.1261 N   0  0  0  0  0  0  0  0  0  0  0  0
   22.3898   -1.9114  -16.0894 C   0  0  0  0  0  0  0  0  0  0  0  0
   23.0720   -0.8811  -15.8331 O   0  0  0  0  0  0  0  0  0  0  0  0
   22.5605   -3.1931  -15.3779 C   0  0  0  0  0  0  0  0  0  0  0  0
   21.6473   -4.2791  -15.7922 C   0  0  0  0  0  0  0  0  0  0  0  0
   21.8646   -5.5264  -15.0035 C   0  0  2  0  0  0  0  0  0  0  0  0
   20.9062   -6.5759  -15.4244 N   0  0  0  0  0  0  0  0  0  0  0  0
   21.7169   -5.3470  -13.5433 C   0  0  0  0  0  0  0  0  0  0  0  0
   20.5984   -5.5571  -13.0220 O   0  0  0  0  0  0  0  0  0  0  0  0
   22.7495   -4.9587  -12.7114 O   0  0  0  0  0  0  0  0  0  0  0  0
  2  1  1  1
  2  4  1  0
  2  3  1  0
  4  5  1  6
  6  4  1  0
  7  6  2  0
  9  8  1  6
  9 11  1  0
 10  9  1  0
 11 13  1  0
 11 12  1  1
 12  6  1  0
 13 21  1  0
 14 13  2  0
 16 15  1  0
 16 18  1  0
 17 16  2  0
 19 18  1  0
 20 19  1  6
 20 22  1  0
 21 20  1  0
 22 24  1  0
 23 22  2  0
M  END
$$$$
