TTQ.pdb
     RDKit          3D

 24 23  0  0  1  0  0  0  0  0999 V2000
   15.3111  -12.5400  -14.6088 C   0  0  0  0  0  0  0  0  0  0  0  0
   16.1314  -11.3701  -15.0670 C   0  0  1  0  0  0  0  0  0  0  0  0
   17.4710  -11.5237  -14.6931 O   0  0  0  0  0  0  0  0  0  0  0  0
   15.9897  -11.0697  -16.5302 C   0  0  2  0  0  0  0  0  0  0  0  0
   16.4973  -12.2260  -17.2594 N   0  0  0  0  0  0  0  0  0  0  0  0
   16.8201   -9.8960  -16.9152 C   0  0  0  0  0  0  0  0  0  0  0  0
   17.9168  -10.0673  -17.5355 O   0  0  0  0  0  0  0  0  0  0  0  0
   15.2699   -5.9058  -16.8327 C   0  0  0  0  0  0  0  0  0  0  0  0
   16.3046   -6.4541  -17.7606 C   0  0  1  0  0  0  0  0  0  0  0  0
   17.0490   -5.4122  -18.3099 O   0  0  0  0  0  0  0  0  0  0  0  0
   17.2218   -7.4536  -17.0935 C   0  0  2  0  0  0  0  0  0  0  0  0
   16.4280   -8.5625  -16.6107 N   0  0  0  0  0  0  0  0  0  0  0  0
   18.0128   -6.8294  -16.0015 C   0  0  0  0  0  0  0  0  0  0  0  0
   17.5785   -6.7589  -14.8244 O   0  0  0  0  0  0  0  0  0  0  0  0
   23.8231   -7.9493  -14.7191 N   0  0  0  0  0  0  0  0  0  0  0  0
   22.8550   -7.9573  -13.6762 C   0  0  0  0  0  0  0  0  0  0  0  0
   23.1631   -8.6220  -12.6487 O   0  0  0  0  0  0  0  0  0  0  0  0
   21.5801   -7.2271  -13.8158 C   0  0  0  0  0  0  0  0  0  0  0  0
   21.4309   -6.4356  -15.0553 C   0  0  0  0  0  0  0  0  0  0  0  0
   20.1120   -5.7420  -15.1227 C   0  0  2  0  0  0  0  0  0  0  0  0
   19.3024   -6.2815  -16.2410 N   0  0  0  0  0  0  0  0  0  0  0  0
   20.2117   -4.2787  -15.3095 C   0  0  0  0  0  0  0  0  0  0  0  0
   20.1047   -3.8117  -16.4660 O   0  0  0  0  0  0  0  0  0  0  0  0
   20.4171   -3.3870  -14.2742 O   0  0  0  0  0  0  0  0  0  0  0  0
  2  1  1  6
  2  4  1  0
  2  3  1  0
  4  5  1  6
  6  4  1  0
  7  6  2  0
  9  8  1  1
  9 11  1  0
 10  9  1  0
 11 13  1  0
 11 12  1  1
 12  6  1  0
 13 21  1  0
 14 13  2  0
 16 15  1  0
 16 18  1  0
 17 16  2  0
 19 18  1  0
 20 19  1  6
 20 22  1  0
 21 20  1  0
 22 24  1  0
 23 22  2  0
M  END
$$$$
