TTQ.pdb
     RDKit          3D

 24 23  0  0  1  0  0  0  0  0999 V2000
   24.5453  -15.9442  -19.2788 C   0  0  0  0  0  0  0  0  0  0  0  0
   24.3031  -14.6843  -18.5005 C   0  0  1  0  0  0  0  0  0  0  0  0
   22.9623  -14.5884  -18.1122 O   0  0  0  0  0  0  0  0  0  0  0  0
   25.2363  -14.5031  -17.3397 C   0  0  2  0  0  0  0  0  0  0  0  0
   25.0621  -15.6545  -16.4620 N   0  0  0  0  0  0  0  0  0  0  0  0
   24.8841  -13.2859  -16.5589 C   0  0  0  0  0  0  0  0  0  0  0  0
   24.0514  -13.3621  -15.6010 O   0  0  0  0  0  0  0  0  0  0  0  0
   27.5034  -10.8300  -15.1687 C   0  0  0  0  0  0  0  0  0  0  0  0
   26.3968  -10.0595  -15.8120 C   0  0  1  0  0  0  0  0  0  0  0  0
   26.8247   -9.5457  -17.0344 O   0  0  0  0  0  0  0  0  0  0  0  0
   25.1424  -10.8811  -16.0032 C   0  0  2  0  0  0  0  0  0  0  0  0
   25.4534  -12.0142  -16.8473 N   0  0  0  0  0  0  0  0  0  0  0  0
   24.0333  -10.0674  -16.5649 C   0  0  0  0  0  0  0  0  0  0  0  0
   23.7532  -10.0830  -17.7898 O   0  0  0  0  0  0  0  0  0  0  0  0
   18.4010  -10.5970  -16.0788 N   0  0  0  0  0  0  0  0  0  0  0  0
   19.0747  -10.1770  -14.8978 C   0  0  0  0  0  0  0  0  0  0  0  0
   18.5125  -10.4812  -13.8096 O   0  0  0  0  0  0  0  0  0  0  0  0
   20.3472   -9.4331  -14.9713 C   0  0  0  0  0  0  0  0  0  0  0  0
   20.8687   -9.1944  -16.3337 C   0  0  0  0  0  0  0  0  0  0  0  0
   22.1417   -8.4172  -16.3190 C   0  0  2  0  0  0  0  0  0  0  0  0
   23.2357   -9.2309  -15.7373 N   0  0  0  0  0  0  0  0  0  0  0  0
   22.0667   -7.1562  -15.5508 C   0  0  0  0  0  0  0  0  0  0  0  0
   21.3857   -6.2119  -16.0105 O   0  0  0  0  0  0  0  0  0  0  0  0
   22.7087   -6.9558  -14.3437 O   0  0  0  0  0  0  0  0  0  0  0  0
  2  1  1  1
  2  4  1  0
  2  3  1  0
  4  5  1  1
  6  4  1  0
  7  6  2  0
  9  8  1  6
  9 11  1  0
 10  9  1  0
 11 13  1  0
 11 12  1  6
 12  6  1  0
 13 21  1  0
 14 13  2  0
 16 15  1  0
 16 18  1  0
 17 16  2  0
 19 18  1  0
 20 19  1  1
 20 22  1  0
 21 20  1  0
 22 24  1  0
 23 22  2  0
M  END
$$$$
