TTQ.pdb
     RDKit          3D

 24 23  0  0  1  0  0  0  0  0999 V2000
   22.4486  -21.1122  -11.1708 C   0  0  0  0  0  0  0  0  0  0  0  0
   23.3405  -20.6574  -10.0531 C   0  0  1  0  0  0  0  0  0  0  0  0
   22.8672  -21.1170   -8.8193 O   0  0  0  0  0  0  0  0  0  0  0  0
   24.7874  -20.9969  -10.2592 C   0  0  2  0  0  0  0  0  0  0  0  0
   25.5206  -20.4766   -9.1112 N   0  0  0  0  0  0  0  0  0  0  0  0
   25.3231  -20.3267  -11.4755 C   0  0  0  0  0  0  0  0  0  0  0  0
   25.6314  -19.0937  -11.4401 O   0  0  0  0  0  0  0  0  0  0  0  0
   28.1258  -21.1606  -14.0008 C   0  0  0  0  0  0  0  0  0  0  0  0
   26.8204  -21.0337  -14.7163 C   0  0  1  0  0  0  0  0  0  0  0  0
   26.3429  -22.2968  -15.0596 O   0  0  0  0  0  0  0  0  0  0  0  0
   25.7809  -20.2847  -13.9142 C   0  0  2  0  0  0  0  0  0  0  0  0
   25.5077  -21.0249  -12.7015 N   0  0  0  0  0  0  0  0  0  0  0  0
   24.5438  -20.0488  -14.7027 C   0  0  0  0  0  0  0  0  0  0  0  0
   23.5437  -20.8040  -14.6098 O   0  0  0  0  0  0  0  0  0  0  0  0
   21.7000  -14.8290  -15.9315 N   0  0  0  0  0  0  0  0  0  0  0  0
   21.1436  -15.6681  -16.9372 C   0  0  0  0  0  0  0  0  0  0  0  0
   20.0278  -15.3020  -17.3994 O   0  0  0  0  0  0  0  0  0  0  0  0
   21.8480  -16.8833  -17.3898 C   0  0  0  0  0  0  0  0  0  0  0  0
   23.0888  -17.2117  -16.6564 C   0  0  0  0  0  0  0  0  0  0  0  0
   23.1494  -18.6520  -16.2730 C   0  0  2  0  0  0  0  0  0  0  0  0
   24.4362  -18.9529  -15.6017 N   0  0  0  0  0  0  0  0  0  0  0  0
   23.0125  -19.5833  -17.4131 C   0  0  0  0  0  0  0  0  0  0  0  0
   24.0424  -19.9251  -18.0371 O   0  0  0  0  0  0  0  0  0  0  0  0
   21.8044  -20.1049  -17.8347 O   0  0  0  0  0  0  0  0  0  0  0  0
  2  1  1  6
  2  4  1  0
  2  3  1  0
  4  5  1  1
  6  4  1  0
  7  6  2  0
  9  8  1  1
  9 11  1  0
 10  9  1  0
 11 13  1  0
 11 12  1  1
 12  6  1  0
 13 21  1  0
 14 13  2  0
 16 15  1  0
 16 18  1  0
 17 16  2  0
 19 18  1  0
 20 19  1  6
 20 22  1  0
 21 20  1  0
 22 24  1  0
 23 22  2  0
M  END
$$$$
