TTQ.pdb
     RDKit          3D

 24 23  0  0  1  0  0  0  0  0999 V2000
   19.6975  -10.4572  -20.2921 C   0  0  0  0  0  0  0  0  0  0  0  0
   19.7013  -11.8608  -19.7616 C   0  0  1  0  0  0  0  0  0  0  0  0
   19.5534  -12.7865  -20.8004 O   0  0  0  0  0  0  0  0  0  0  0  0
   20.8854  -12.1757  -18.8957 C   0  0  2  0  0  0  0  0  0  0  0  0
   20.7479  -13.5616  -18.4637 N   0  0  0  0  0  0  0  0  0  0  0  0
   20.8937  -11.3235  -17.6754 C   0  0  0  0  0  0  0  0  0  0  0  0
   20.0015  -11.4798  -16.7830 O   0  0  0  0  0  0  0  0  0  0  0  0
   23.2205  -10.9913  -14.8834 C   0  0  0  0  0  0  0  0  0  0  0  0
   23.0813   -9.6355  -15.4955 C   0  0  1  0  0  0  0  0  0  0  0  0
   24.1846   -9.3636  -16.3018 O   0  0  0  0  0  0  0  0  0  0  0  0
   21.8048   -9.4774  -16.2896 C   0  0  2  0  0  0  0  0  0  0  0  0
   21.8802  -10.3204  -17.4630 N   0  0  0  0  0  0  0  0  0  0  0  0
   21.5544   -8.0578  -16.6499 C   0  0  0  0  0  0  0  0  0  0  0  0
   21.9955   -7.5556  -17.7140 O   0  0  0  0  0  0  0  0  0  0  0  0
   16.4620   -4.4794  -15.9700 N   0  0  0  0  0  0  0  0  0  0  0  0
   17.4931   -3.5707  -16.3390 C   0  0  0  0  0  0  0  0  0  0  0  0
   17.1162   -2.3985  -16.6156 O   0  0  0  0  0  0  0  0  0  0  0  0
   18.9043   -4.0000  -16.3880 C   0  0  0  0  0  0  0  0  0  0  0  0
   19.1507   -5.4199  -16.0586 C   0  0  0  0  0  0  0  0  0  0  0  0
   20.5953   -5.7769  -16.1608 C   0  0  2  0  0  0  0  0  0  0  0  0
   20.8010   -7.2005  -15.8025 N   0  0  0  0  0  0  0  0  0  0  0  0
   21.4771   -4.9667  -15.2936 C   0  0  0  0  0  0  0  0  0  0  0  0
   21.7920   -5.4165  -14.1687 O   0  0  0  0  0  0  0  0  0  0  0  0
   21.9800   -3.7312  -15.6540 O   0  0  0  0  0  0  0  0  0  0  0  0
  2  1  1  6
  2  4  1  0
  2  3  1  0
  4  5  1  1
  6  4  1  0
  7  6  2  0
  9  8  1  6
  9 11  1  0
 10  9  1  0
 11 13  1  0
 11 12  1  6
 12  6  1  0
 13 21  1  0
 14 13  2  0
 16 15  1  0
 16 18  1  0
 17 16  2  0
 19 18  1  0
 20 19  1  1
 20 22  1  0
 21 20  1  0
 22 24  1  0
 23 22  2  0
M  END
$$$$
