TTQ.pdb
     RDKit          3D

 24 23  0  0  1  0  0  0  0  0999 V2000
   21.3793  -14.8319  -17.3729 C   0  0  0  0  0  0  0  0  0  0  0  0
   20.3185  -13.8590  -17.7967 C   0  0  1  0  0  0  0  0  0  0  0  0
   19.3496  -14.4901  -18.5846 O   0  0  0  0  0  0  0  0  0  0  0  0
   19.7054  -13.0999  -16.6569 C   0  0  2  0  0  0  0  0  0  0  0  0
   18.4641  -13.7788  -16.3042 N   0  0  0  0  0  0  0  0  0  0  0  0
   19.3574  -11.7124  -17.0679 C   0  0  0  0  0  0  0  0  0  0  0  0
   19.5895  -11.3225  -18.2558 O   0  0  0  0  0  0  0  0  0  0  0  0
   16.2270  -10.1369  -17.5377 C   0  0  0  0  0  0  0  0  0  0  0  0
   16.9525   -9.2562  -16.5732 C   0  0  1  0  0  0  0  0  0  0  0  0
   16.4784   -9.4757  -15.2816 O   0  0  0  0  0  0  0  0  0  0  0  0
   18.4515   -9.4465  -16.6167 C   0  0  2  0  0  0  0  0  0  0  0  0
   18.7631  -10.7856  -16.1665 N   0  0  0  0  0  0  0  0  0  0  0  0
   19.1591   -8.4186  -15.8101 C   0  0  0  0  0  0  0  0  0  0  0  0
   19.9003   -8.7281  -14.8437 O   0  0  0  0  0  0  0  0  0  0  0  0
   21.9299   -6.6832  -12.8139 N   0  0  0  0  0  0  0  0  0  0  0  0
   22.2842   -5.4635  -13.4557 C   0  0  0  0  0  0  0  0  0  0  0  0
   22.6982   -4.5452  -12.6954 O   0  0  0  0  0  0  0  0  0  0  0  0
   22.1632   -5.3103  -14.9186 C   0  0  0  0  0  0  0  0  0  0  0  0
   21.3039   -6.3048  -15.5951 C   0  0  0  0  0  0  0  0  0  0  0  0
   19.8533   -6.0325  -15.3787 C   0  0  2  0  0  0  0  0  0  0  0  0
   19.0284   -7.0326  -16.0974 N   0  0  0  0  0  0  0  0  0  0  0  0
   19.4204   -4.6918  -15.8272 C   0  0  0  0  0  0  0  0  0  0  0  0
   18.9665   -4.5634  -16.9867 O   0  0  0  0  0  0  0  0  0  0  0  0
   19.4867   -3.5613  -15.0355 O   0  0  0  0  0  0  0  0  0  0  0  0
  2  1  1  1
  2  4  1  0
  2  3  1  0
  4  5  1  6
  6  4  1  0
  7  6  2  0
  9  8  1  6
  9 11  1  0
 10  9  1  0
 11 13  1  0
 11 12  1  1
 12  6  1  0
 13 21  1  0
 14 13  2  0
 16 15  1  0
 16 18  1  0
 17 16  2  0
 19 18  1  0
 20 19  1  6
 20 22  1  0
 21 20  1  0
 22 24  1  0
 23 22  2  0
M  END
$$$$
