TTQ.pdb
     RDKit          3D

 24 23  0  0  1  0  0  0  0  0999 V2000
   21.8911  -12.5607  -20.8139 C   0  0  0  0  0  0  0  0  0  0  0  0
   20.8018  -12.2447  -19.8314 C   0  0  1  0  0  0  0  0  0  0  0  0
   19.8400  -13.2607  -19.8099 O   0  0  0  0  0  0  0  0  0  0  0  0
   21.3052  -11.9214  -18.4555 C   0  0  2  0  0  0  0  0  0  0  0  0
   20.9501  -13.0413  -17.5917 N   0  0  0  0  0  0  0  0  0  0  0  0
   20.6348  -10.7073  -17.9153 C   0  0  0  0  0  0  0  0  0  0  0  0
   19.8388  -10.0396  -18.6484 O   0  0  0  0  0  0  0  0  0  0  0  0
   18.1289  -10.3777  -15.3680 C   0  0  0  0  0  0  0  0  0  0  0  0
   19.2629   -9.5018  -14.9450 C   0  0  1  0  0  0  0  0  0  0  0  0
   20.0189  -10.1441  -13.9666 O   0  0  0  0  0  0  0  0  0  0  0  0
   20.1480   -9.0884  -16.0986 C   0  0  2  0  0  0  0  0  0  0  0  0
   20.8532  -10.2545  -16.5843 N   0  0  0  0  0  0  0  0  0  0  0  0
   21.0857   -8.0033  -15.7098 C   0  0  0  0  0  0  0  0  0  0  0  0
   22.3040   -8.2243  -15.4954 O   0  0  0  0  0  0  0  0  0  0  0  0
   20.4617   -1.6311  -16.5272 N   0  0  0  0  0  0  0  0  0  0  0  0
   21.6423   -1.8262  -15.7570 C   0  0  0  0  0  0  0  0  0  0  0  0
   22.3020   -0.7832  -15.4932 O   0  0  0  0  0  0  0  0  0  0  0  0
   22.0457   -3.1738  -15.3106 C   0  0  0  0  0  0  0  0  0  0  0  0
   21.1342   -4.2723  -15.6948 C   0  0  0  0  0  0  0  0  0  0  0  0
   21.5954   -5.5919  -15.1741 C   0  0  2  0  0  0  0  0  0  0  0  0
   20.6439   -6.6602  -15.5624 N   0  0  0  0  0  0  0  0  0  0  0  0
   21.7433   -5.6390  -13.7038 C   0  0  0  0  0  0  0  0  0  0  0  0
   20.7950   -6.0837  -13.0182 O   0  0  0  0  0  0  0  0  0  0  0  0
   22.8766   -5.2185  -13.0345 O   0  0  0  0  0  0  0  0  0  0  0  0
  2  1  1  6
  2  4  1  0
  2  3  1  0
  4  5  1  1
  6  4  1  0
  7  6  2  0
  9  8  1  6
  9 11  1  0
 10  9  1  0
 11 13  1  0
 11 12  1  1
 12  6  1  0
 13 21  1  0
 14 13  2  0
 16 15  1  0
 16 18  1  0
 17 16  2  0
 19 18  1  0
 20 19  1  1
 20 22  1  0
 21 20  1  0
 22 24  1  0
 23 22  2  0
M  END
$$$$
