TTQ.pdb
     RDKit          3D

 24 23  0  0  1  0  0  0  0  0999 V2000
   17.9361   -9.5852  -18.6080 C   0  0  0  0  0  0  0  0  0  0  0  0
   17.4336  -10.8110  -17.9034 C   0  0  1  0  0  0  0  0  0  0  0  0
   16.5644  -11.5370  -18.7250 O   0  0  0  0  0  0  0  0  0  0  0  0
   18.5248  -11.6743  -17.3419 C   0  0  2  0  0  0  0  0  0  0  0  0
   17.8832  -12.7975  -16.6688 N   0  0  0  0  0  0  0  0  0  0  0  0
   19.3179  -10.9337  -16.3231 C   0  0  0  0  0  0  0  0  0  0  0  0
   18.7752  -10.5747  -15.2307 O   0  0  0  0  0  0  0  0  0  0  0  0
   23.6789   -9.6597  -14.4760 C   0  0  0  0  0  0  0  0  0  0  0  0
   22.7922  -10.4603  -15.3731 C   0  0  1  0  0  0  0  0  0  0  0  0
   22.7111  -11.7725  -14.9118 O   0  0  0  0  0  0  0  0  0  0  0  0
   21.4072   -9.8701  -15.5094 C   0  0  2  0  0  0  0  0  0  0  0  0
   20.6872  -10.6047  -16.5267 N   0  0  0  0  0  0  0  0  0  0  0  0
   21.4571   -8.4169  -15.8147 C   0  0  0  0  0  0  0  0  0  0  0  0
   21.8673   -7.9851  -16.9213 O   0  0  0  0  0  0  0  0  0  0  0  0
   17.3203   -3.9283  -14.7019 N   0  0  0  0  0  0  0  0  0  0  0  0
   18.4902   -3.2228  -15.0999 C   0  0  0  0  0  0  0  0  0  0  0  0
   18.3467   -1.9817  -15.2783 O   0  0  0  0  0  0  0  0  0  0  0  0
   19.7754   -3.9241  -15.2862 C   0  0  0  0  0  0  0  0  0  0  0  0
   19.7510   -5.3794  -15.0282 C   0  0  0  0  0  0  0  0  0  0  0  0
   21.0978   -6.0003  -15.1883 C   0  0  2  0  0  0  0  0  0  0  0  0
   21.0410   -7.4455  -14.8639 N   0  0  0  0  0  0  0  0  0  0  0  0
   22.1440   -5.3930  -14.3382 C   0  0  0  0  0  0  0  0  0  0  0  0
   22.7491   -4.3816  -14.7599 O   0  0  0  0  0  0  0  0  0  0  0  0
   22.4966   -5.8789  -13.0937 O   0  0  0  0  0  0  0  0  0  0  0  0
  2  1  1  6
  2  4  1  0
  2  3  1  0
  4  5  1  1
  6  4  1  0
  7  6  2  0
  9  8  1  1
  9 11  1  0
 10  9  1  0
 11 13  1  0
 11 12  1  6
 12  6  1  0
 13 21  1  0
 14 13  2  0
 16 15  1  0
 16 18  1  0
 17 16  2  0
 19 18  1  0
 20 19  1  1
 20 22  1  0
 21 20  1  0
 22 24  1  0
 23 22  2  0
M  END
$$$$
