TTQ.pdb
     RDKit          3D

 24 23  0  0  1  0  0  0  0  0999 V2000
   18.4668  -15.4706  -16.1838 C   0  0  0  0  0  0  0  0  0  0  0  0
   18.3415  -14.0516  -16.6554 C   0  0  1  0  0  0  0  0  0  0  0  0
   17.3949  -13.9490  -17.6807 O   0  0  0  0  0  0  0  0  0  0  0  0
   18.0798  -13.0696  -15.5517 C   0  0  2  0  0  0  0  0  0  0  0  0
   16.7330  -13.3265  -15.0556 N   0  0  0  0  0  0  0  0  0  0  0  0
   18.1108  -11.6725  -16.0642 C   0  0  0  0  0  0  0  0  0  0  0  0
   19.2014  -11.1723  -16.4853 O   0  0  0  0  0  0  0  0  0  0  0  0
   15.6701   -7.7091  -17.6971 C   0  0  0  0  0  0  0  0  0  0  0  0
   15.6727   -9.0831  -17.1103 C   0  0  1  0  0  0  0  0  0  0  0  0
   15.2069  -10.0008  -18.0495 O   0  0  0  0  0  0  0  0  0  0  0  0
   17.0334   -9.5029  -16.6031 C   0  0  2  0  0  0  0  0  0  0  0  0
   16.9452  -10.8574  -16.1027 N   0  0  0  0  0  0  0  0  0  0  0  0
   17.5458   -8.5685  -15.5676 C   0  0  0  0  0  0  0  0  0  0  0  0
   17.2069   -8.6644  -14.3613 O   0  0  0  0  0  0  0  0  0  0  0  0
   23.1688   -5.6998  -15.0812 N   0  0  0  0  0  0  0  0  0  0  0  0
   22.3418   -5.0557  -14.1188 C   0  0  0  0  0  0  0  0  0  0  0  0
   22.9191   -4.2130  -13.3777 O   0  0  0  0  0  0  0  0  0  0  0  0
   20.9044   -5.3739  -14.0158 C   0  0  0  0  0  0  0  0  0  0  0  0
   20.3855   -6.3161  -15.0298 C   0  0  0  0  0  0  0  0  0  0  0  0
   18.9287   -6.5838  -14.8534 C   0  0  2  0  0  0  0  0  0  0  0  0
   18.4465   -7.5193  -15.8972 N   0  0  0  0  0  0  0  0  0  0  0  0
   18.0836   -5.3722  -14.9154 C   0  0  0  0  0  0  0  0  0  0  0  0
   17.9216   -4.6984  -13.8730 O   0  0  0  0  0  0  0  0  0  0  0  0
   17.4565   -4.9342  -16.0661 O   0  0  0  0  0  0  0  0  0  0  0  0
  2  1  1  1
  2  4  1  0
  2  3  1  0
  4  5  1  6
  6  4  1  0
  7  6  2  0
  9  8  1  6
  9 11  1  0
 10  9  1  0
 11 13  1  0
 11 12  1  1
 12  6  1  0
 13 21  1  0
 14 13  2  0
 16 15  1  0
 16 18  1  0
 17 16  2  0
 19 18  1  0
 20 19  1  6
 20 22  1  0
 21 20  1  0
 22 24  1  0
 23 22  2  0
M  END
$$$$
