TTQ.pdb
     RDKit          3D

 24 23  0  0  1  0  0  0  0  0999 V2000
   12.6096  -11.5112  -14.8602 C   0  0  0  0  0  0  0  0  0  0  0  0
   13.0644  -12.9410  -14.8435 C   0  0  1  0  0  0  0  0  0  0  0  0
   12.1371  -13.7666  -15.4887 O   0  0  0  0  0  0  0  0  0  0  0  0
   14.4539  -13.1387  -15.3741 C   0  0  2  0  0  0  0  0  0  0  0  0
   14.7594  -14.5603  -15.2651 N   0  0  0  0  0  0  0  0  0  0  0  0
   15.4486  -12.4009  -14.5485 C   0  0  0  0  0  0  0  0  0  0  0  0
   15.7188  -12.7975  -13.3710 O   0  0  0  0  0  0  0  0  0  0  0  0
   19.0482  -11.6611  -15.2408 C   0  0  0  0  0  0  0  0  0  0  0  0
   18.3604  -10.3693  -14.9405 C   0  0  1  0  0  0  0  0  0  0  0  0
   18.1270   -9.6702  -16.1229 O   0  0  0  0  0  0  0  0  0  0  0  0
   17.0662  -10.5551  -14.1817 C   0  0  2  0  0  0  0  0  0  0  0  0
   16.1231  -11.2459  -15.0338 N   0  0  0  0  0  0  0  0  0  0  0  0
   16.5218   -9.2596  -13.6990 C   0  0  0  0  0  0  0  0  0  0  0  0
   15.6762   -8.6072  -14.3612 O   0  0  0  0  0  0  0  0  0  0  0  0
   15.4654   -6.5903   -7.9609 N   0  0  0  0  0  0  0  0  0  0  0  0
   14.4585   -6.6891   -8.9616 C   0  0  0  0  0  0  0  0  0  0  0  0
   13.2787   -6.4625   -8.5749 O   0  0  0  0  0  0  0  0  0  0  0  0
   14.8011   -7.0377  -10.3541 C   0  0  0  0  0  0  0  0  0  0  0  0
   16.2392   -7.2485  -10.6234 C   0  0  0  0  0  0  0  0  0  0  0  0
   16.5315   -7.3221  -12.0843 C   0  0  2  0  0  0  0  0  0  0  0  0
   16.9355   -8.6977  -12.4605 N   0  0  0  0  0  0  0  0  0  0  0  0
   17.6026   -6.4051  -12.5294 C   0  0  0  0  0  0  0  0  0  0  0  0
   18.7688   -6.8482  -12.6324 O   0  0  0  0  0  0  0  0  0  0  0  0
   17.3915   -5.0760  -12.8423 O   0  0  0  0  0  0  0  0  0  0  0  0
  2  1  1  6
  2  4  1  0
  2  3  1  0
  4  5  1  1
  6  4  1  0
  7  6  2  0
  9  8  1  6
  9 11  1  0
 10  9  1  0
 11 13  1  0
 11 12  1  6
 12  6  1  0
 13 21  1  0
 14 13  2  0
 16 15  1  0
 16 18  1  0
 17 16  2  0
 19 18  1  0
 20 19  1  1
 20 22  1  0
 21 20  1  0
 22 24  1  0
 23 22  2  0
M  END
$$$$
