TMV.pdb
     RDKit          3D

 23 22  0  0  1  0  0  0  0  0999 V2000
   12.8673   -9.8809  -12.1513 C   0  0  0  0  0  0  0  0  0  0  0  0
   13.1591  -11.2002  -11.4828 C   0  0  1  0  0  0  0  0  0  0  0  0
   12.2366  -12.1607  -11.9179 O   0  0  0  0  0  0  0  0  0  0  0  0
   14.5695  -11.6490  -11.6546 C   0  0  2  0  0  0  0  0  0  0  0  0
   14.7534  -12.9347  -11.0584 N   0  0  0  0  0  0  0  0  0  0  0  0
   15.5339  -10.6318  -11.0912 C   0  0  0  0  0  0  0  0  0  0  0  0
   15.6027  -10.4281   -9.8649 O   0  0  0  0  0  0  0  0  0  0  0  0
   21.9770   -8.8333  -12.1717 C   0  0  0  0  0  0  0  0  0  0  0  0
   20.9445   -7.6011  -13.0371 S   0  0  0  0  0  0  0  0  0  0  0  0
   19.3519   -7.5437  -12.1708 C   0  0  0  0  0  0  0  0  0  0  0  0
   18.5032   -8.7444  -12.4982 C   0  0  0  0  0  0  0  0  0  0  0  0
   17.2047   -8.7942  -11.6951 C   0  0  2  0  0  0  0  0  0  0  0  0
   16.3665   -9.9034  -11.9636 N   0  0  0  0  0  0  0  0  0  0  0  0
   16.6210   -7.4755  -11.6407 C   0  0  0  0  0  0  0  0  0  0  0  0
   16.0860   -7.0462  -12.7218 O   0  0  0  0  0  0  0  0  0  0  0  0
   14.6353   -3.8413   -9.0334 C   0  0  0  0  0  0  0  0  0  0  0  0
   14.9428   -5.2831   -9.2771 C   0  0  2  0  0  0  0  0  0  0  0  0
   15.7662   -5.7970   -8.1134 C   0  0  0  0  0  0  0  0  0  0  0  0
   15.7650   -5.4560  -10.5351 C   0  0  2  0  0  0  0  0  0  0  0  0
   16.5960   -6.6303  -10.4942 N   0  0  0  0  0  0  0  0  0  0  0  0
   16.6796   -4.2640  -10.6244 C   0  0  0  0  0  0  0  0  0  0  0  0
   18.0647   -4.4011  -10.4920 O   0  0  0  0  0  0  0  0  0  0  0  0
   16.2374   -3.1097  -10.8199 O   0  0  0  0  0  0  0  0  0  0  0  0
  2  1  1  6
  2  4  1  0
  3  2  1  0
  4  6  1  0
  4  5  1  1
  6  7  2  0
  9 10  1  0
  9  8  1  0
 12 11  1  6
 11 10  1  0
 13 12  1  0
 13  6  1  0
 14 20  1  0
 14 12  1  0
 15 14  2  0
 17 16  1  1
 17 18  1  0
 19 20  1  1
 19 17  1  0
 21 19  1  0
 22 21  1  0
 23 21  2  0
M  END
$$$$
