TMV.pdb
     RDKit          3D

 23 22  0  0  1  0  0  0  0  0999 V2000
   19.9268   -9.2704  -22.7084 C   0  0  0  0  0  0  0  0  0  0  0  0
   19.9501   -8.9513  -21.2352 C   0  0  1  0  0  0  0  0  0  0  0  0
   18.9203   -8.0505  -20.9340 O   0  0  0  0  0  0  0  0  0  0  0  0
   19.9158  -10.1631  -20.3689 C   0  0  2  0  0  0  0  0  0  0  0  0
   18.7536  -10.9427  -20.6581 N   0  0  0  0  0  0  0  0  0  0  0  0
   19.9828   -9.7862  -18.9075 C   0  0  0  0  0  0  0  0  0  0  0  0
   18.9491   -9.7229  -18.2165 O   0  0  0  0  0  0  0  0  0  0  0  0
   22.8794  -11.8778  -13.0373 C   0  0  0  0  0  0  0  0  0  0  0  0
   23.9552  -10.7994  -14.0439 S   0  0  0  0  0  0  0  0  0  0  0  0
   22.8744   -9.6075  -14.8813 C   0  0  0  0  0  0  0  0  0  0  0  0
   22.5980  -10.0191  -16.3038 C   0  0  0  0  0  0  0  0  0  0  0  0
   21.5380   -9.1523  -16.9807 C   0  0  2  0  0  0  0  0  0  0  0  0
   21.2304   -9.5020  -18.3178 N   0  0  0  0  0  0  0  0  0  0  0  0
   21.7724   -7.7652  -16.6585 C   0  0  0  0  0  0  0  0  0  0  0  0
   22.7328   -7.1918  -17.2815 O   0  0  0  0  0  0  0  0  0  0  0  0
   20.3358   -3.3399  -15.2638 C   0  0  0  0  0  0  0  0  0  0  0  0
   20.0589   -4.7435  -15.6951 C   0  0  2  0  0  0  0  0  0  0  0  0
   19.0343   -5.3379  -14.7502 C   0  0  0  0  0  0  0  0  0  0  0  0
   21.3088   -5.5918  -15.6123 C   0  0  2  0  0  0  0  0  0  0  0  0
   21.0282   -6.9995  -15.7155 N   0  0  0  0  0  0  0  0  0  0  0  0
   21.9068   -5.3536  -14.2518 C   0  0  0  0  0  0  0  0  0  0  0  0
   21.8246   -6.3195  -13.2443 O   0  0  0  0  0  0  0  0  0  0  0  0
   22.4979   -4.2868  -13.9715 O   0  0  0  0  0  0  0  0  0  0  0  0
  2  1  1  6
  2  4  1  0
  3  2  1  0
  4  6  1  0
  4  5  1  1
  6  7  2  0
  9 10  1  0
  9  8  1  0
 12 11  1  6
 11 10  1  0
 13 12  1  0
 13  6  1  0
 14 20  1  0
 14 12  1  0
 15 14  2  0
 17 16  1  1
 17 18  1  0
 19 20  1  1
 19 17  1  0
 21 19  1  0
 22 21  1  0
 23 21  2  0
M  END
$$$$
