TMV.pdb
     RDKit          3D

 23 22  0  0  1  0  0  0  0  0999 V2000
   13.1277  -10.1415  -14.2186 C   0  0  0  0  0  0  0  0  0  0  0  0
   13.5447  -11.5543  -13.8981 C   0  0  1  0  0  0  0  0  0  0  0  0
   12.8957  -12.4432  -14.7648 O   0  0  0  0  0  0  0  0  0  0  0  0
   15.0224  -11.7457  -13.8909 C   0  0  2  0  0  0  0  0  0  0  0  0
   15.3399  -13.1216  -13.6709 N   0  0  0  0  0  0  0  0  0  0  0  0
   15.6792  -10.8526  -12.8646 C   0  0  0  0  0  0  0  0  0  0  0  0
   15.5669  -11.0889  -11.6474 O   0  0  0  0  0  0  0  0  0  0  0  0
   21.5636   -5.7179  -11.7324 C   0  0  0  0  0  0  0  0  0  0  0  0
   20.7173   -6.7537  -12.9751 S   0  0  0  0  0  0  0  0  0  0  0  0
   19.1402   -7.2730  -12.2449 C   0  0  0  0  0  0  0  0  0  0  0  0
   18.4087   -8.2370  -13.1420 C   0  0  0  0  0  0  0  0  0  0  0  0
   17.1182   -8.7683  -12.5210 C   0  0  2  0  0  0  0  0  0  0  0  0
   16.4285   -9.7375  -13.2889 N   0  0  0  0  0  0  0  0  0  0  0  0
   16.3734   -7.6735  -11.9472 C   0  0  0  0  0  0  0  0  0  0  0  0
   15.8611   -6.8404  -12.7736 O   0  0  0  0  0  0  0  0  0  0  0  0
   15.4218   -7.1154   -7.7989 C   0  0  0  0  0  0  0  0  0  0  0  0
   14.5236   -6.6727   -8.9080 C   0  0  2  0  0  0  0  0  0  0  0  0
   13.5750   -7.8086   -9.2339 C   0  0  0  0  0  0  0  0  0  0  0  0
   15.3183   -6.3632  -10.1574 C   0  0  2  0  0  0  0  0  0  0  0  0
   16.1691   -7.4539  -10.5546 N   0  0  0  0  0  0  0  0  0  0  0  0
   16.2109   -5.1972   -9.8275 C   0  0  0  0  0  0  0  0  0  0  0  0
   17.6012   -5.3383   -9.7814 O   0  0  0  0  0  0  0  0  0  0  0  0
   15.7451   -4.0616   -9.5832 O   0  0  0  0  0  0  0  0  0  0  0  0
  2  1  1  6
  2  4  1  0
  3  2  1  0
  4  6  1  0
  4  5  1  1
  6  7  2  0
  9 10  1  0
  9  8  1  0
 12 11  1  6
 11 10  1  0
 13 12  1  0
 13  6  1  0
 14 20  1  0
 14 12  1  0
 15 14  2  0
 17 16  1  1
 17 18  1  0
 19 20  1  1
 19 17  1  0
 21 19  1  0
 22 21  1  0
 23 21  2  0
M  END
$$$$
