TMV.pdb
     RDKit          3D

 23 22  0  0  1  0  0  0  0  0999 V2000
   13.4377  -21.0351   -3.9610 C   0  0  0  0  0  0  0  0  0  0  0  0
   12.8084  -21.8028   -5.0957 C   0  0  1  0  0  0  0  0  0  0  0  0
   12.5394  -20.9315   -6.1593 O   0  0  0  0  0  0  0  0  0  0  0  0
   13.6064  -22.9873   -5.5202 C   0  0  2  0  0  0  0  0  0  0  0  0
   13.0084  -23.5997   -6.6645 N   0  0  0  0  0  0  0  0  0  0  0  0
   13.7647  -23.9694   -4.3832 C   0  0  0  0  0  0  0  0  0  0  0  0
   12.7693  -24.4297   -3.7940 O   0  0  0  0  0  0  0  0  0  0  0  0
   18.9020  -27.9311   -4.0208 C   0  0  0  0  0  0  0  0  0  0  0  0
   18.7607  -27.6253   -2.2264 S   0  0  0  0  0  0  0  0  0  0  0  0
   17.1636  -26.8101   -1.9531 C   0  0  0  0  0  0  0  0  0  0  0  0
   16.8176  -25.8818   -3.0878 C   0  0  0  0  0  0  0  0  0  0  0  0
   15.4468  -25.2272   -2.9267 C   0  0  2  0  0  0  0  0  0  0  0  0
   15.0549  -24.3700   -3.9832 N   0  0  0  0  0  0  0  0  0  0  0  0
   15.2856  -24.7759   -1.5654 C   0  0  0  0  0  0  0  0  0  0  0  0
   15.7951  -23.6362   -1.2809 O   0  0  0  0  0  0  0  0  0  0  0  0
   12.4965  -26.2942    1.1410 C   0  0  0  0  0  0  0  0  0  0  0  0
   13.0619  -24.9182    1.2821 C   0  0  2  0  0  0  0  0  0  0  0  0
   12.2186  -23.9703    0.4535 C   0  0  0  0  0  0  0  0  0  0  0  0
   14.4778  -24.8578    0.7527 C   0  0  2  0  0  0  0  0  0  0  0  0
   14.6139  -25.4909   -0.5325 N   0  0  0  0  0  0  0  0  0  0  0  0
   15.3376  -25.6240    1.7218 C   0  0  0  0  0  0  0  0  0  0  0  0
   15.9499  -26.8260    1.3545 O   0  0  0  0  0  0  0  0  0  0  0  0
   15.5366  -25.2162    2.8881 O   0  0  0  0  0  0  0  0  0  0  0  0
  2  1  1  1
  2  4  1  0
  3  2  1  0
  4  6  1  0
  4  5  1  6
  6  7  2  0
  9 10  1  0
  9  8  1  0
 12 11  1  6
 11 10  1  0
 13 12  1  0
 13  6  1  0
 14 20  1  0
 14 12  1  0
 15 14  2  0
 17 16  1  6
 17 18  1  0
 19 20  1  6
 19 17  1  0
 21 19  1  0
 22 21  1  0
 23 21  2  0
M  END
$$$$
