TMV.pdb
     RDKit          3D

 23 22  0  0  1  0  0  0  0  0999 V2000
   19.0858  -12.3841  -19.7680 C   0  0  0  0  0  0  0  0  0  0  0  0
   19.6910  -11.1287  -20.3428 C   0  0  1  0  0  0  0  0  0  0  0  0
   18.7978  -10.0614  -20.1825 O   0  0  0  0  0  0  0  0  0  0  0  0
   21.0439  -10.8235  -19.7980 C   0  0  2  0  0  0  0  0  0  0  0  0
   21.9628  -11.8588  -20.1527 N   0  0  0  0  0  0  0  0  0  0  0  0
   20.9912  -10.6153  -18.3026 C   0  0  0  0  0  0  0  0  0  0  0  0
   19.9823  -10.9377  -17.6483 O   0  0  0  0  0  0  0  0  0  0  0  0
   23.2757  -14.6972  -14.5317 C   0  0  0  0  0  0  0  0  0  0  0  0
   23.8068  -12.9590  -14.3584 S   0  0  0  0  0  0  0  0  0  0  0  0
   22.7873  -11.9789  -15.4941 C   0  0  0  0  0  0  0  0  0  0  0  0
   23.1393  -10.5158  -15.4273 C   0  0  0  0  0  0  0  0  0  0  0  0
   22.2287   -9.6428  -16.2887 C   0  0  2  0  0  0  0  0  0  0  0  0
   22.0973  -10.0489  -17.6387 N   0  0  0  0  0  0  0  0  0  0  0  0
   22.4811   -8.2516  -15.9998 C   0  0  0  0  0  0  0  0  0  0  0  0
   23.4930   -7.7253  -16.5815 O   0  0  0  0  0  0  0  0  0  0  0  0
   21.2263   -3.7072  -15.2600 C   0  0  0  0  0  0  0  0  0  0  0  0
   20.9443   -5.1408  -15.5730 C   0  0  2  0  0  0  0  0  0  0  0  0
   19.6482   -5.5304  -14.8913 C   0  0  0  0  0  0  0  0  0  0  0  0
   22.0364   -6.0377  -15.0332 C   0  0  2  0  0  0  0  0  0  0  0  0
   21.7024   -7.4342  -15.1310 N   0  0  0  0  0  0  0  0  0  0  0  0
   22.1816   -5.7142  -13.5705 C   0  0  0  0  0  0  0  0  0  0  0  0
   22.7722   -4.5197  -13.1471 O   0  0  0  0  0  0  0  0  0  0  0  0
   21.7809   -6.4982  -12.6812 O   0  0  0  0  0  0  0  0  0  0  0  0
  2  1  1  1
  2  4  1  0
  3  2  1  0
  4  6  1  0
  4  5  1  1
  6  7  2  0
  9 10  1  0
  9  8  1  0
 12 11  1  6
 11 10  1  0
 13 12  1  0
 13  6  1  0
 14 20  1  0
 14 12  1  0
 15 14  2  0
 17 16  1  1
 17 18  1  0
 19 20  1  1
 19 17  1  0
 21 19  1  0
 22 21  1  0
 23 21  2  0
M  END
$$$$
