TMV.pdb
     RDKit          3D

 23 22  0  0  1  0  0  0  0  0999 V2000
   20.9674  -21.9957  -15.7800 C   0  0  0  0  0  0  0  0  0  0  0  0
   20.2135  -20.7024  -15.9584 C   0  0  1  0  0  0  0  0  0  0  0  0
   18.9305  -20.9715  -16.4524 O   0  0  0  0  0  0  0  0  0  0  0  0
   20.1833  -19.8630  -14.7276 C   0  0  2  0  0  0  0  0  0  0  0  0
   19.3391  -18.7272  -14.9266 N   0  0  0  0  0  0  0  0  0  0  0  0
   21.5783  -19.4536  -14.3169 C   0  0  0  0  0  0  0  0  0  0  0  0
   22.2114  -18.6018  -14.9678 O   0  0  0  0  0  0  0  0  0  0  0  0
   23.7557  -21.4773   -8.5265 C   0  0  0  0  0  0  0  0  0  0  0  0
   25.3192  -20.6917   -9.0478 S   0  0  0  0  0  0  0  0  0  0  0  0
   25.1386  -20.2676  -10.8021 C   0  0  0  0  0  0  0  0  0  0  0  0
   23.7022  -20.3611  -11.2464 C   0  0  0  0  0  0  0  0  0  0  0  0
   23.4975  -19.9329  -12.6984 C   0  0  2  0  0  0  0  0  0  0  0  0
   22.1718  -20.0428  -13.1831 N   0  0  0  0  0  0  0  0  0  0  0  0
   24.5804  -20.4390  -13.5070 C   0  0  0  0  0  0  0  0  0  0  0  0
   24.5898  -21.7018  -13.7177 O   0  0  0  0  0  0  0  0  0  0  0  0
   28.0443  -19.8487  -16.9539 C   0  0  0  0  0  0  0  0  0  0  0  0
   27.1911  -19.2009  -15.9121 C   0  0  2  0  0  0  0  0  0  0  0  0
   28.0976  -18.4717  -14.9411 C   0  0  0  0  0  0  0  0  0  0  0  0
   26.4141  -20.2357  -15.1286 C   0  0  2  0  0  0  0  0  0  0  0  0
   25.6217  -19.6524  -14.0784 N   0  0  0  0  0  0  0  0  0  0  0  0
   27.4269  -21.1379  -14.4760 C   0  0  0  0  0  0  0  0  0  0  0  0
   28.1386  -22.0854  -15.2178 O   0  0  0  0  0  0  0  0  0  0  0  0
   27.6698  -21.0746  -13.2500 O   0  0  0  0  0  0  0  0  0  0  0  0
  2  1  1  1
  2  4  1  0
  3  2  1  0
  4  6  1  0
  4  5  1  6
  6  7  2  0
  9 10  1  0
  9  8  1  0
 12 11  1  1
 11 10  1  0
 13 12  1  0
 13  6  1  0
 14 20  1  0
 14 12  1  0
 15 14  2  0
 17 16  1  6
 17 18  1  0
 19 20  1  1
 19 17  1  0
 21 19  1  0
 22 21  1  0
 23 21  2  0
M  END
$$$$
