TMV.pdb
     RDKit          3D

 23 22  0  0  1  0  0  0  0  0999 V2000
   20.3281  -13.4012  -21.8372 C   0  0  0  0  0  0  0  0  0  0  0  0
   20.5885  -12.6573  -20.5521 C   0  0  1  0  0  0  0  0  0  0  0  0
   19.3756  -12.1993  -20.0212 O   0  0  0  0  0  0  0  0  0  0  0  0
   21.3789  -13.4450  -19.5647 C   0  0  2  0  0  0  0  0  0  0  0  0
   20.7369  -14.6949  -19.3044 N   0  0  0  0  0  0  0  0  0  0  0  0
   21.5978  -12.6572  -18.2943 C   0  0  0  0  0  0  0  0  0  0  0  0
   20.7641  -12.6913  -17.3703 O   0  0  0  0  0  0  0  0  0  0  0  0
   27.1877  -11.6146  -14.9265 C   0  0  0  0  0  0  0  0  0  0  0  0
   26.7129   -9.9007  -15.3396 S   0  0  0  0  0  0  0  0  0  0  0  0
   24.9375   -9.9187  -15.7106 C   0  0  0  0  0  0  0  0  0  0  0  0
   24.6137  -10.8997  -16.8070 C   0  0  0  0  0  0  0  0  0  0  0  0
   23.1205  -10.9730  -17.1206 C   0  0  2  0  0  0  0  0  0  0  0  0
   22.7598  -11.8733  -18.1521 N   0  0  0  0  0  0  0  0  0  0  0  0
   22.5646   -9.6412  -17.1307 C   0  0  0  0  0  0  0  0  0  0  0  0
   22.8939   -8.8958  -18.1183 O   0  0  0  0  0  0  0  0  0  0  0  0
   18.9754   -6.8351  -15.7463 C   0  0  0  0  0  0  0  0  0  0  0  0
   19.7243   -7.7348  -16.6750 C   0  0  2  0  0  0  0  0  0  0  0  0
   19.1834   -9.1411  -16.5139 C   0  0  0  0  0  0  0  0  0  0  0  0
   21.1968   -7.7651  -16.3292 C   0  0  2  0  0  0  0  0  0  0  0  0
   21.6921   -9.1032  -16.1414 N   0  0  0  0  0  0  0  0  0  0  0  0
   21.3505   -7.0432  -15.0175 C   0  0  0  0  0  0  0  0  0  0  0  0
   21.2482   -5.6510  -14.9395 O   0  0  0  0  0  0  0  0  0  0  0  0
   21.5744   -7.6587  -13.9511 O   0  0  0  0  0  0  0  0  0  0  0  0
  2  1  1  6
  2  4  1  0
  3  2  1  0
  4  6  1  0
  4  5  1  1
  6  7  2  0
  9 10  1  0
  9  8  1  0
 12 11  1  6
 11 10  1  0
 13 12  1  0
 13  6  1  0
 14 20  1  0
 14 12  1  0
 15 14  2  0
 17 16  1  1
 17 18  1  0
 19 20  1  1
 19 17  1  0
 21 19  1  0
 22 21  1  0
 23 21  2  0
M  END
$$$$
