TMV.pdb
     RDKit          3D

 23 22  0  0  1  0  0  0  0  0999 V2000
   28.7005  -17.9253  -15.8917 C   0  0  0  0  0  0  0  0  0  0  0  0
   27.6734  -18.7935  -15.2104 C   0  0  1  0  0  0  0  0  0  0  0  0
   26.4712  -18.7492  -15.9282 O   0  0  0  0  0  0  0  0  0  0  0  0
   28.1429  -20.1879  -14.9749 C   0  0  2  0  0  0  0  0  0  0  0  0
   28.4508  -20.8206  -16.2187 N   0  0  0  0  0  0  0  0  0  0  0  0
   27.1235  -20.9768  -14.1872 C   0  0  0  0  0  0  0  0  0  0  0  0
   26.3803  -21.8015  -14.7507 O   0  0  0  0  0  0  0  0  0  0  0  0
   26.2782  -19.5327   -7.5640 C   0  0  0  0  0  0  0  0  0  0  0  0
   25.5091  -21.1717   -7.7998 S   0  0  0  0  0  0  0  0  0  0  0  0
   25.0781  -21.3056   -9.5566 C   0  0  0  0  0  0  0  0  0  0  0  0
   26.2224  -20.8792  -10.4386 C   0  0  0  0  0  0  0  0  0  0  0  0
   25.9369  -21.0804  -11.9257 C   0  0  2  0  0  0  0  0  0  0  0  0
   27.0111  -20.7776  -12.7970 N   0  0  0  0  0  0  0  0  0  0  0  0
   24.6220  -20.5734  -12.2366 C   0  0  0  0  0  0  0  0  0  0  0  0
   24.5148  -19.3023  -12.3467 O   0  0  0  0  0  0  0  0  0  0  0  0
   20.7871  -20.7566  -15.0073 C   0  0  0  0  0  0  0  0  0  0  0  0
   22.0749  -21.2766  -14.4559 C   0  0  2  0  0  0  0  0  0  0  0  0
   21.9830  -22.7872  -14.3774 C   0  0  0  0  0  0  0  0  0  0  0  0
   22.3135  -20.7562  -13.0557 C   0  0  2  0  0  0  0  0  0  0  0  0
   23.4546  -21.3674  -12.4268 N   0  0  0  0  0  0  0  0  0  0  0  0
   21.1028  -21.1264  -12.2418 C   0  0  0  0  0  0  0  0  0  0  0  0
   19.8687  -20.5045  -12.4536 O   0  0  0  0  0  0  0  0  0  0  0  0
   21.1540  -22.0013  -11.3484 O   0  0  0  0  0  0  0  0  0  0  0  0
  2  1  1  6
  2  4  1  0
  3  2  1  0
  4  6  1  0
  4  5  1  6
  6  7  2  0
  9 10  1  0
  9  8  1  0
 12 11  1  1
 11 10  1  0
 13 12  1  0
 13  6  1  0
 14 20  1  0
 14 12  1  0
 15 14  2  0
 17 16  1  1
 17 18  1  0
 19 20  1  1
 19 17  1  0
 21 19  1  0
 22 21  1  0
 23 21  2  0
M  END
$$$$
