WDW.pdb
     RDKit          3D

 37 40  0  0  1  0  0  0  0  0999 V2000
    6.8996  -18.2436   24.9400 N   0  0  0  0  0  0  0  0  0  0  0  0
    7.8955  -17.5237   24.2223 C   0  0  1  0  0  0  0  0  0  0  0  0
    8.5456  -16.5018   25.0831 C   0  0  0  0  0  0  0  0  0  0  0  0
    7.6896  -15.5834   25.8122 C   0  0  0  0  0  0  0  0  0  0  0  0
    6.8354  -15.7681   26.8403 C   0  0  0  0  0  0  0  0  0  0  0  0
    6.2402  -14.5764   27.1489 N   0  0  0  0  0  0  0  0  0  0  0  0
    6.7251  -13.6348   26.3048 C   0  0  0  0  0  0  0  0  0  0  0  0
    6.4587  -12.2759   26.1774 C   0  0  0  0  0  0  0  0  0  0  0  0
    7.0701  -11.4957   25.2319 C   0  0  0  0  0  0  0  0  0  0  0  0
    7.9893  -12.0958   24.3747 C   0  0  0  0  0  0  0  0  0  0  0  0
    8.2485  -13.4592   24.5130 C   0  0  0  0  0  0  0  0  0  0  0  0
    7.6223  -14.2221   25.4675 C   0  0  0  0  0  0  0  0  0  0  0  0
    8.7296  -18.2537   23.2839 C   0  0  0  0  0  0  0  0  0  0  0  0
    9.3624  -19.2849   23.7031 O   0  0  0  0  0  0  0  0  0  0  0  0
    8.9541  -17.9624   21.9082 N   0  0  0  0  0  0  0  0  0  0  0  0
   10.2504  -17.8897   21.2852 C   0  0  1  0  0  0  0  0  0  0  0  0
   10.2254  -17.0207   20.0505 C   0  0  0  0  0  0  0  0  0  0  0  0
   11.4464  -17.2580   19.2611 C   0  0  0  0  0  0  0  0  0  0  0  0
   11.7562  -18.4607   18.9808 O   0  0  0  0  0  0  0  0  0  0  0  0
   11.3721  -17.5197   22.1223 C   0  0  0  0  0  0  0  0  0  0  0  0
   12.5303  -17.7390   21.5990 O   0  0  0  0  0  0  0  0  0  0  0  0
   12.2984  -16.2624   18.7910 O   0  0  0  0  0  0  0  0  0  0  0  0
   11.4271  -16.9591   23.4132 N   0  0  0  0  0  0  0  0  0  0  0  0
   12.6976  -16.5972   24.0273 C   0  0  1  0  0  0  0  0  0  0  0  0
   12.6301  -15.4435   24.9703 C   0  0  0  0  0  0  0  0  0  0  0  0
   11.7580  -15.6684   26.1470 C   0  0  0  0  0  0  0  0  0  0  0  0
   11.7134  -16.7003   27.0290 C   0  0  0  0  0  0  0  0  0  0  0  0
   10.7380  -16.5001   27.9536 N   0  0  0  0  0  0  0  0  0  0  0  0
   10.1547  -15.3187   27.6514 C   0  0  0  0  0  0  0  0  0  0  0  0
    9.1120  -14.6237   28.2530 C   0  0  0  0  0  0  0  0  0  0  0  0
    8.6652  -13.4067   27.7700 C   0  0  0  0  0  0  0  0  0  0  0  0
    9.2820  -12.8690   26.6503 C   0  0  0  0  0  0  0  0  0  0  0  0
   10.3128  -13.5627   26.0603 C   0  0  0  0  0  0  0  0  0  0  0  0
   10.7558  -14.7899   26.5555 C   0  0  0  0  0  0  0  0  0  0  0  0
   13.3170  -17.7372   24.7481 C   0  0  0  0  0  0  0  0  0  0  0  0
   14.4141  -17.7133   25.3392 O   0  0  0  0  0  0  0  0  0  0  0  0
   12.5576  -18.9257   24.7305 O   0  0  0  0  0  0  0  0  0  0  0  0
  2  1  1  1
  2  3  1  0
  3  4  1  0
  4 12  1  0
  4  5  2  0
  5  6  1  0
  7  8  2  0
  7  6  1  0
  9  8  1  0
 10  9  2  0
 11 10  1  0
 11 12  2  0
 12  7  1  0
 13 14  2  0
 13  2  1  0
 15 13  1  0
 16 15  1  0
 17 18  1  0
 16 17  1  6
 18 19  2  0
 20 16  1  0
 20 21  2  0
 22 18  1  0
 23 20  1  0
 24 25  1  1
 24 23  1  0
 25 26  1  0
 26 34  1  0
 26 27  2  0
 27 28  1  0
 29 28  1  0
 29 30  2  0
 31 30  1  0
 32 31  2  0
 33 34  2  0
 33 32  1  0
 34 29  1  0
 35 24  1  0
 36 35  2  0
 37 35  1  0
M  END
$$$$
