WDW.pdb
     RDKit          3D

 37 40  0  0  1  0  0  0  0  0999 V2000
    7.0943  -17.5717   21.1638 N   0  0  0  0  0  0  0  0  0  0  0  0
    8.0754  -16.7438   21.7777 C   0  0  1  0  0  0  0  0  0  0  0  0
    7.5294  -15.3946   22.0772 C   0  0  0  0  0  0  0  0  0  0  0  0
    7.2371  -14.5163   20.9587 C   0  0  0  0  0  0  0  0  0  0  0  0
    6.0897  -14.2358   20.3064 C   0  0  0  0  0  0  0  0  0  0  0  0
    6.3527  -13.3560   19.2933 N   0  0  0  0  0  0  0  0  0  0  0  0
    7.6791  -13.0828   19.3095 C   0  0  0  0  0  0  0  0  0  0  0  0
    8.4694  -12.2679   18.5063 C   0  0  0  0  0  0  0  0  0  0  0  0
    9.8195  -12.1388   18.6985 C   0  0  0  0  0  0  0  0  0  0  0  0
   10.4096  -12.8531   19.7384 C   0  0  0  0  0  0  0  0  0  0  0  0
    9.6062  -13.6664   20.5374 C   0  0  0  0  0  0  0  0  0  0  0  0
    8.2546  -13.7816   20.3252 C   0  0  0  0  0  0  0  0  0  0  0  0
    8.9736  -17.3452   22.7477 C   0  0  0  0  0  0  0  0  0  0  0  0
    8.4676  -17.9335   23.7662 O   0  0  0  0  0  0  0  0  0  0  0  0
   10.3973  -17.3638   22.7225 N   0  0  0  0  0  0  0  0  0  0  0  0
   11.2315  -17.8292   23.8001 C   0  0  1  0  0  0  0  0  0  0  0  0
   12.6426  -18.0976   23.3342 C   0  0  0  0  0  0  0  0  0  0  0  0
   13.1700  -16.8997   22.6580 C   0  0  0  0  0  0  0  0  0  0  0  0
   12.9257  -16.7537   21.4171 O   0  0  0  0  0  0  0  0  0  0  0  0
   11.2576  -17.0378   25.0120 C   0  0  0  0  0  0  0  0  0  0  0  0
   11.7015  -15.8363   24.8614 O   0  0  0  0  0  0  0  0  0  0  0  0
   13.9222  -15.9027   23.2731 O   0  0  0  0  0  0  0  0  0  0  0  0
   10.8825  -17.3449   26.3345 N   0  0  0  0  0  0  0  0  0  0  0  0
   11.1032  -16.4010   27.4220 C   0  0  1  0  0  0  0  0  0  0  0  0
   10.3594  -15.1145   27.2938 C   0  0  0  0  0  0  0  0  0  0  0  0
    8.9619  -15.2626   26.8238 C   0  0  0  0  0  0  0  0  0  0  0  0
    8.2459  -16.3757   26.5189 C   0  0  0  0  0  0  0  0  0  0  0  0
    6.9935  -16.0440   26.1094 N   0  0  0  0  0  0  0  0  0  0  0  0
    6.9152  -14.6953   26.1568 C   0  0  0  0  0  0  0  0  0  0  0  0
    5.8796  -13.8198   25.8517 C   0  0  0  0  0  0  0  0  0  0  0  0
    6.0168  -12.4486   25.9739 C   0  0  0  0  0  0  0  0  0  0  0  0
    7.2285  -11.9386   26.4156 C   0  0  0  0  0  0  0  0  0  0  0  0
    8.2486  -12.8112   26.7153 C   0  0  0  0  0  0  0  0  0  0  0  0
    8.0997  -14.1929   26.5884 C   0  0  0  0  0  0  0  0  0  0  0  0
   10.7756  -16.9849   28.7466 C   0  0  0  0  0  0  0  0  0  0  0  0
   10.8405  -16.3890   29.8394 O   0  0  0  0  0  0  0  0  0  0  0  0
   10.3622  -18.3330   28.7083 O   0  0  0  0  0  0  0  0  0  0  0  0
  2  1  1  1
  2  3  1  0
  3  4  1  0
  4 12  1  0
  4  5  2  0
  5  6  1  0
  7  8  2  0
  7  6  1  0
  9  8  1  0
 10  9  2  0
 11 10  1  0
 11 12  2  0
 12  7  1  0
 13 14  2  0
 13  2  1  0
 15 13  1  0
 16 15  1  0
 17 18  1  0
 16 17  1  6
 18 19  2  0
 20 16  1  0
 20 21  2  0
 22 18  1  0
 23 20  1  0
 24 25  1  6
 24 23  1  0
 25 26  1  0
 26 34  1  0
 26 27  2  0
 27 28  1  0
 29 28  1  0
 29 30  2  0
 31 30  1  0
 32 31  2  0
 33 34  2  0
 33 32  1  0
 34 29  1  0
 35 24  1  0
 36 35  2  0
 37 35  1  0
M  END
$$$$
