WDW.pdb
     RDKit          3D

 37 40  0  0  1  0  0  0  0  0999 V2000
    7.8340  -17.8470   22.1317 N   0  0  0  0  0  0  0  0  0  0  0  0
    8.8887  -17.2601   22.8855 C   0  0  1  0  0  0  0  0  0  0  0  0
    8.3853  -16.6931   24.1635 C   0  0  0  0  0  0  0  0  0  0  0  0
    7.3484  -15.6791   24.0952 C   0  0  0  0  0  0  0  0  0  0  0  0
    6.3530  -15.3467   24.9433 C   0  0  0  0  0  0  0  0  0  0  0  0
    5.6202  -14.3289   24.3986 N   0  0  0  0  0  0  0  0  0  0  0  0
    6.1608  -14.0207   23.1957 C   0  0  0  0  0  0  0  0  0  0  0  0
    5.8101  -13.0800   22.2334 C   0  0  0  0  0  0  0  0  0  0  0  0
    6.5049  -12.9378   21.0615 C   0  0  0  0  0  0  0  0  0  0  0  0
    7.5994  -13.7696   20.8378 C   0  0  0  0  0  0  0  0  0  0  0  0
    7.9415  -14.7085   21.8108 C   0  0  0  0  0  0  0  0  0  0  0  0
    7.2293  -14.8342   22.9779 C   0  0  0  0  0  0  0  0  0  0  0  0
   10.1787  -17.9269   22.8981 C   0  0  0  0  0  0  0  0  0  0  0  0
   10.3202  -18.9700   23.6270 O   0  0  0  0  0  0  0  0  0  0  0  0
   11.3566  -17.5593   22.1873 N   0  0  0  0  0  0  0  0  0  0  0  0
   12.6932  -17.6352   22.7180 C   0  0  1  0  0  0  0  0  0  0  0  0
   13.6819  -16.9064   21.8397 C   0  0  0  0  0  0  0  0  0  0  0  0
   13.5288  -17.3639   20.4477 C   0  0  0  0  0  0  0  0  0  0  0  0
   13.0751  -16.5389   19.5906 O   0  0  0  0  0  0  0  0  0  0  0  0
   12.8847  -17.2459   24.0991 C   0  0  0  0  0  0  0  0  0  0  0  0
   14.0907  -17.3828   24.5353 O   0  0  0  0  0  0  0  0  0  0  0  0
   13.8442  -18.6396   19.9881 O   0  0  0  0  0  0  0  0  0  0  0  0
   11.9859  -16.7405   25.0586 N   0  0  0  0  0  0  0  0  0  0  0  0
   12.4177  -16.4458   26.4184 C   0  0  1  0  0  0  0  0  0  0  0  0
   11.8809  -15.1738   26.9829 C   0  0  0  0  0  0  0  0  0  0  0  0
   10.4198  -15.1850   27.2293 C   0  0  0  0  0  0  0  0  0  0  0  0
    9.6355  -16.1048   27.8485 C   0  0  0  0  0  0  0  0  0  0  0  0
    8.3343  -15.7134   27.8355 N   0  0  0  0  0  0  0  0  0  0  0  0
    8.2946  -14.5228   27.1966 C   0  0  0  0  0  0  0  0  0  0  0  0
    7.2378  -13.6710   26.8973 C   0  0  0  0  0  0  0  0  0  0  0  0
    7.4244  -12.4778   26.2223 C   0  0  0  0  0  0  0  0  0  0  0  0
    8.7091  -12.1269   25.8355 C   0  0  0  0  0  0  0  0  0  0  0  0
    9.7497  -12.9751   26.1350 C   0  0  0  0  0  0  0  0  0  0  0  0
    9.5506  -14.1766   26.8163 C   0  0  0  0  0  0  0  0  0  0  0  0
   12.0809  -17.5397   27.3632 C   0  0  0  0  0  0  0  0  0  0  0  0
   11.3780  -18.5352   27.1013 O   0  0  0  0  0  0  0  0  0  0  0  0
   12.6275  -17.3894   28.6548 O   0  0  0  0  0  0  0  0  0  0  0  0
  2  1  1  1
  2  3  1  0
  3  4  1  0
  4 12  1  0
  4  5  2  0
  5  6  1  0
  7  8  2  0
  7  6  1  0
  9  8  1  0
 10  9  2  0
 11 10  1  0
 11 12  2  0
 12  7  1  0
 13 14  2  0
 13  2  1  0
 15 13  1  0
 16 15  1  0
 17 18  1  0
 16 17  1  6
 18 19  2  0
 20 16  1  0
 20 21  2  0
 22 18  1  0
 23 20  1  0
 24 25  1  1
 24 23  1  0
 25 26  1  0
 26 34  1  0
 26 27  2  0
 27 28  1  0
 29 28  1  0
 29 30  2  0
 31 30  1  0
 32 31  2  0
 33 34  2  0
 33 32  1  0
 34 29  1  0
 35 24  1  0
 36 35  2  0
 37 35  1  0
M  END
$$$$
