WDW.pdb
     RDKit          3D

 37 40  0  0  1  0  0  0  0  0999 V2000
    8.5535  -17.5653   21.7632 N   0  0  0  0  0  0  0  0  0  0  0  0
    7.6098  -16.9261   22.6153 C   0  0  1  0  0  0  0  0  0  0  0  0
    6.4444  -16.4211   21.8439 C   0  0  0  0  0  0  0  0  0  0  0  0
    6.7075  -15.6257   20.6582 C   0  0  0  0  0  0  0  0  0  0  0  0
    6.6253  -15.9117   19.3421 C   0  0  0  0  0  0  0  0  0  0  0  0
    7.0131  -14.8174   18.6198 N   0  0  0  0  0  0  0  0  0  0  0  0
    7.3431  -13.8352   19.4919 C   0  0  0  0  0  0  0  0  0  0  0  0
    7.8020  -12.5368   19.2984 C   0  0  0  0  0  0  0  0  0  0  0  0
    8.0856  -11.6974   20.3430 C   0  0  0  0  0  0  0  0  0  0  0  0
    7.9033  -12.1721   21.6396 C   0  0  0  0  0  0  0  0  0  0  0  0
    7.4419  -13.4758   21.8207 C   0  0  0  0  0  0  0  0  0  0  0  0
    7.1653  -14.3002   20.7581 C   0  0  0  0  0  0  0  0  0  0  0  0
    7.3607  -17.5062   23.9231 C   0  0  0  0  0  0  0  0  0  0  0  0
    6.3901  -17.0466   24.6204 O   0  0  0  0  0  0  0  0  0  0  0  0
    8.0826  -18.5532   24.5638 N   0  0  0  0  0  0  0  0  0  0  0  0
    8.2502  -18.6827   25.9883 C   0  0  1  0  0  0  0  0  0  0  0  0
    8.1847  -20.1263   26.4263 C   0  0  0  0  0  0  0  0  0  0  0  0
    7.3987  -20.8985   25.4485 C   0  0  0  0  0  0  0  0  0  0  0  0
    6.1304  -20.8956   25.5606 O   0  0  0  0  0  0  0  0  0  0  0  0
    9.4030  -18.0414   26.5844 C   0  0  0  0  0  0  0  0  0  0  0  0
    9.2427  -17.6774   27.8112 O   0  0  0  0  0  0  0  0  0  0  0  0
    7.9363  -21.6393   24.3996 O   0  0  0  0  0  0  0  0  0  0  0  0
   10.6769  -17.7421   26.0633 N   0  0  0  0  0  0  0  0  0  0  0  0
   11.1222  -16.3649   25.8981 C   0  0  1  0  0  0  0  0  0  0  0  0
   11.2584  -15.5953   27.1685 C   0  0  0  0  0  0  0  0  0  0  0  0
    9.9734  -15.1241   27.7364 C   0  0  0  0  0  0  0  0  0  0  0  0
    9.3449  -15.4555   28.8939 C   0  0  0  0  0  0  0  0  0  0  0  0
    8.1674  -14.7873   29.0095 N   0  0  0  0  0  0  0  0  0  0  0  0
    8.0489  -14.0177   27.9045 C   0  0  0  0  0  0  0  0  0  0  0  0
    7.0553  -13.1354   27.4966 C   0  0  0  0  0  0  0  0  0  0  0  0
    7.1367  -12.4373   26.3050 C   0  0  0  0  0  0  0  0  0  0  0  0
    8.2476  -12.6285   25.4971 C   0  0  0  0  0  0  0  0  0  0  0  0
    9.2264  -13.5034   25.9073 C   0  0  0  0  0  0  0  0  0  0  0  0
    9.1345  -14.2029   27.1114 C   0  0  0  0  0  0  0  0  0  0  0  0
   12.4141  -16.2764   25.1728 C   0  0  0  0  0  0  0  0  0  0  0  0
   13.0538  -17.2399   24.7080 O   0  0  0  0  0  0  0  0  0  0  0  0
   12.9169  -14.9667   25.0262 O   0  0  0  0  0  0  0  0  0  0  0  0
  2  1  1  6
  2  3  1  0
  3  4  1  0
  4 12  1  0
  4  5  2  0
  5  6  1  0
  7  8  2  0
  7  6  1  0
  9  8  1  0
 10  9  2  0
 11 10  1  0
 11 12  2  0
 12  7  1  0
 13 14  2  0
 13  2  1  0
 15 13  1  0
 16 15  1  0
 17 18  1  0
 16 17  1  6
 18 19  2  0
 20 16  1  0
 20 21  2  0
 22 18  1  0
 23 20  1  0
 24 25  1  1
 24 23  1  0
 25 26  1  0
 26 34  1  0
 26 27  2  0
 27 28  1  0
 29 28  1  0
 29 30  2  0
 31 30  1  0
 32 31  2  0
 33 34  2  0
 33 32  1  0
 34 29  1  0
 35 24  1  0
 36 35  2  0
 37 35  1  0
M  END
$$$$
