WDW.pdb
     RDKit          3D

 37 40  0  0  1  0  0  0  0  0999 V2000
    8.6340  -17.7705   21.0783 N   0  0  0  0  0  0  0  0  0  0  0  0
    9.8597  -17.1418   21.4355 C   0  0  1  0  0  0  0  0  0  0  0  0
    9.8423  -15.6960   21.0928 C   0  0  0  0  0  0  0  0  0  0  0  0
    8.5977  -14.9702   21.2720 C   0  0  0  0  0  0  0  0  0  0  0  0
    7.5957  -15.1024   22.1660 C   0  0  0  0  0  0  0  0  0  0  0  0
    6.6222  -14.1832   21.8884 N   0  0  0  0  0  0  0  0  0  0  0  0
    7.0171  -13.4679   20.8083 C   0  0  0  0  0  0  0  0  0  0  0  0
    6.4121  -12.4277   20.1114 C   0  0  0  0  0  0  0  0  0  0  0  0
    6.9966  -11.8399   19.0209 C   0  0  0  0  0  0  0  0  0  0  0  0
    8.2407  -12.3086   18.6058 C   0  0  0  0  0  0  0  0  0  0  0  0
    8.8376  -13.3518   19.3135 C   0  0  0  0  0  0  0  0  0  0  0  0
    8.2321  -13.9270   20.4033 C   0  0  0  0  0  0  0  0  0  0  0  0
   10.5005  -17.5395   22.6765 C   0  0  0  0  0  0  0  0  0  0  0  0
    9.8078  -18.1757   23.5453 O   0  0  0  0  0  0  0  0  0  0  0  0
   11.8461  -17.3019   23.0775 N   0  0  0  0  0  0  0  0  0  0  0  0
   12.4254  -17.7524   24.3166 C   0  0  1  0  0  0  0  0  0  0  0  0
   13.9255  -17.8895   24.2111 C   0  0  0  0  0  0  0  0  0  0  0  0
   14.4340  -16.9370   23.2088 C   0  0  0  0  0  0  0  0  0  0  0  0
   13.5912  -16.2168   22.5827 O   0  0  0  0  0  0  0  0  0  0  0  0
   12.0835  -17.0193   25.5172 C   0  0  0  0  0  0  0  0  0  0  0  0
   12.4789  -15.7919   25.5300 O   0  0  0  0  0  0  0  0  0  0  0  0
   15.7767  -16.7581   22.8877 O   0  0  0  0  0  0  0  0  0  0  0  0
   11.3915  -17.4071   26.6811 N   0  0  0  0  0  0  0  0  0  0  0  0
   11.2695  -16.5104   27.8228 C   0  0  1  0  0  0  0  0  0  0  0  0
   10.4397  -15.2954   27.5775 C   0  0  0  0  0  0  0  0  0  0  0  0
    9.0287  -15.5815   27.2273 C   0  0  0  0  0  0  0  0  0  0  0  0
    8.3659  -16.7626   27.1256 C   0  0  0  0  0  0  0  0  0  0  0  0
    7.0732  -16.5581   26.7600 N   0  0  0  0  0  0  0  0  0  0  0  0
    6.9148  -15.2222   26.6286 C   0  0  0  0  0  0  0  0  0  0  0  0
    5.8109  -14.4539   26.2775 C   0  0  0  0  0  0  0  0  0  0  0  0
    5.8702  -13.0738   26.2024 C   0  0  0  0  0  0  0  0  0  0  0  0
    7.0722  -12.4437   26.4880 C   0  0  0  0  0  0  0  0  0  0  0  0
    8.1602  -13.2106   26.8343 C   0  0  0  0  0  0  0  0  0  0  0  0
    8.0897  -14.6024   26.9070 C   0  0  0  0  0  0  0  0  0  0  0  0
   10.7253  -17.1978   29.0202 C   0  0  0  0  0  0  0  0  0  0  0  0
   10.5573  -16.6801   30.1416 O   0  0  0  0  0  0  0  0  0  0  0  0
   10.3866  -18.5519   28.8170 O   0  0  0  0  0  0  0  0  0  0  0  0
  2  1  1  1
  2  3  1  0
  3  4  1  0
  4 12  1  0
  4  5  2  0
  5  6  1  0
  7  8  2  0
  7  6  1  0
  9  8  1  0
 10  9  2  0
 11 10  1  0
 11 12  2  0
 12  7  1  0
 13 14  2  0
 13  2  1  0
 15 13  1  0
 16 15  1  0
 17 18  1  0
 16 17  1  6
 18 19  2  0
 20 16  1  0
 20 21  2  0
 22 18  1  0
 23 20  1  0
 24 25  1  6
 24 23  1  0
 25 26  1  0
 26 34  1  0
 26 27  2  0
 27 28  1  0
 29 28  1  0
 29 30  2  0
 31 30  1  0
 32 31  2  0
 33 34  2  0
 33 32  1  0
 34 29  1  0
 35 24  1  0
 36 35  2  0
 37 35  1  0
M  END
$$$$
