WDW.pdb
     RDKit          3D

 37 40  0  0  1  0  0  0  0  0999 V2000
    8.2087  -18.1764   21.5970 N   0  0  0  0  0  0  0  0  0  0  0  0
    9.0719  -17.2321   22.2199 C   0  0  1  0  0  0  0  0  0  0  0  0
    8.3240  -16.0227   22.6515 C   0  0  0  0  0  0  0  0  0  0  0  0
    7.3880  -15.4315   21.7122 C   0  0  0  0  0  0  0  0  0  0  0  0
    6.0978  -15.7067   21.4287 C   0  0  0  0  0  0  0  0  0  0  0  0
    5.6694  -14.8733   20.4329 N   0  0  0  0  0  0  0  0  0  0  0  0
    6.7019  -14.0679   20.0874 C   0  0  0  0  0  0  0  0  0  0  0  0
    6.8142  -13.0566   19.1395 C   0  0  0  0  0  0  0  0  0  0  0  0
    7.9773  -12.3590   18.9478 C   0  0  0  0  0  0  0  0  0  0  0  0
    9.0788  -12.6824   19.7365 C   0  0  0  0  0  0  0  0  0  0  0  0
    8.9534  -13.6980   20.6843 C   0  0  0  0  0  0  0  0  0  0  0  0
    7.7775  -14.3852   20.8579 C   0  0  0  0  0  0  0  0  0  0  0  0
   10.1217  -17.7301   23.0912 C   0  0  0  0  0  0  0  0  0  0  0  0
    9.8896  -18.7771   23.7907 O   0  0  0  0  0  0  0  0  0  0  0  0
   11.4232  -17.1861   23.2863 N   0  0  0  0  0  0  0  0  0  0  0  0
   12.1723  -17.2693   24.5134 C   0  0  1  0  0  0  0  0  0  0  0  0
   13.6245  -16.9128   24.3030 C   0  0  0  0  0  0  0  0  0  0  0  0
   13.7996  -16.3543   22.9510 C   0  0  0  0  0  0  0  0  0  0  0  0
   12.7829  -16.3017   22.1865 O   0  0  0  0  0  0  0  0  0  0  0  0
   11.6534  -16.5547   25.6605 C   0  0  0  0  0  0  0  0  0  0  0  0
   12.0637  -15.3367   25.7672 O   0  0  0  0  0  0  0  0  0  0  0  0
   15.0003  -15.8736   22.4360 O   0  0  0  0  0  0  0  0  0  0  0  0
   10.7749  -16.9518   26.6873 N   0  0  0  0  0  0  0  0  0  0  0  0
   10.9158  -16.4397   28.0438 C   0  0  1  0  0  0  0  0  0  0  0  0
   10.0477  -15.2697   28.3636 C   0  0  0  0  0  0  0  0  0  0  0  0
    8.7922  -15.2098   27.5789 C   0  0  0  0  0  0  0  0  0  0  0  0
    7.8940  -16.1818   27.2739 C   0  0  0  0  0  0  0  0  0  0  0  0
    6.8865  -15.6827   26.5108 N   0  0  0  0  0  0  0  0  0  0  0  0
    7.1518  -14.3695   26.3303 C   0  0  0  0  0  0  0  0  0  0  0  0
    6.4673  -13.3763   25.6397 C   0  0  0  0  0  0  0  0  0  0  0  0
    6.9256  -12.0722   25.5824 C   0  0  0  0  0  0  0  0  0  0  0  0
    8.1057  -11.7530   26.2373 C   0  0  0  0  0  0  0  0  0  0  0  0
    8.7775  -12.7413   26.9183 C   0  0  0  0  0  0  0  0  0  0  0  0
    8.3065  -14.0539   26.9698 C   0  0  0  0  0  0  0  0  0  0  0  0
   10.6643  -17.4850   29.0669 C   0  0  0  0  0  0  0  0  0  0  0  0
   10.2407  -18.6354   28.8413 O   0  0  0  0  0  0  0  0  0  0  0  0
   10.9436  -17.0896   30.3917 O   0  0  0  0  0  0  0  0  0  0  0  0
  2  1  1  1
  2  3  1  0
  3  4  1  0
  4 12  1  0
  4  5  2  0
  5  6  1  0
  7  8  2  0
  7  6  1  0
  9  8  1  0
 10  9  2  0
 11 10  1  0
 11 12  2  0
 12  7  1  0
 13 14  2  0
 13  2  1  0
 15 13  1  0
 16 15  1  0
 17 18  1  0
 16 17  1  6
 18 19  2  0
 20 16  1  0
 20 21  2  0
 22 18  1  0
 23 20  1  0
 24 25  1  1
 24 23  1  0
 25 26  1  0
 26 34  1  0
 26 27  2  0
 27 28  1  0
 29 28  1  0
 29 30  2  0
 31 30  1  0
 32 31  2  0
 33 34  2  0
 33 32  1  0
 34 29  1  0
 35 24  1  0
 36 35  2  0
 37 35  1  0
M  END
$$$$
