WDW.pdb
     RDKit          3D

 37 40  0  0  1  0  0  0  0  0999 V2000
    9.3997  -16.8111   20.9378 N   0  0  0  0  0  0  0  0  0  0  0  0
    9.4728  -16.7096   22.3554 C   0  0  1  0  0  0  0  0  0  0  0  0
    8.4487  -15.7697   22.8807 C   0  0  0  0  0  0  0  0  0  0  0  0
    7.5258  -15.1714   21.9330 C   0  0  0  0  0  0  0  0  0  0  0  0
    6.3077  -15.5522   21.4951 C   0  0  0  0  0  0  0  0  0  0  0  0
    5.8610  -14.6501   20.5697 N   0  0  0  0  0  0  0  0  0  0  0  0
    6.8095  -13.6942   20.4247 C   0  0  0  0  0  0  0  0  0  0  0  0
    6.8713  -12.5617   19.6201 C   0  0  0  0  0  0  0  0  0  0  0  0
    7.9498  -11.7172   19.6268 C   0  0  0  0  0  0  0  0  0  0  0  0
    9.0150  -12.0134   20.4738 C   0  0  0  0  0  0  0  0  0  0  0  0
    8.9407  -13.1516   21.2764 C   0  0  0  0  0  0  0  0  0  0  0  0
    7.8497  -13.9849   21.2520 C   0  0  0  0  0  0  0  0  0  0  0  0
    9.7452  -17.9151   23.1180 C   0  0  0  0  0  0  0  0  0  0  0  0
    8.7556  -18.6260   23.5112 O   0  0  0  0  0  0  0  0  0  0  0  0
   11.0137  -18.4302   23.5098 N   0  0  0  0  0  0  0  0  0  0  0  0
   12.1157  -17.6302   23.9783 C   0  0  1  0  0  0  0  0  0  0  0  0
   12.5364  -16.6076   22.9500 C   0  0  0  0  0  0  0  0  0  0  0  0
   13.9949  -16.6814   22.7556 C   0  0  0  0  0  0  0  0  0  0  0  0
   14.4812  -17.7469   22.2564 O   0  0  0  0  0  0  0  0  0  0  0  0
   11.9757  -16.9956   25.2718 C   0  0  0  0  0  0  0  0  0  0  0  0
   13.0780  -16.5610   25.7810 O   0  0  0  0  0  0  0  0  0  0  0  0
   14.8947  -15.6689   23.0769 O   0  0  0  0  0  0  0  0  0  0  0  0
   10.8452  -16.7647   26.0796 N   0  0  0  0  0  0  0  0  0  0  0  0
   10.9747  -16.2181   27.4238 C   0  0  1  0  0  0  0  0  0  0  0  0
   10.2597  -14.9279   27.6455 C   0  0  0  0  0  0  0  0  0  0  0  0
    8.9273  -14.8510   27.0018 C   0  0  0  0  0  0  0  0  0  0  0  0
    8.0663  -15.8346   26.6332 C   0  0  0  0  0  0  0  0  0  0  0  0
    6.9541  -15.3083   26.0567 N   0  0  0  0  0  0  0  0  0  0  0  0
    7.1140  -13.9660   26.0612 C   0  0  0  0  0  0  0  0  0  0  0  0
    6.2981  -12.9380   25.6033 C   0  0  0  0  0  0  0  0  0  0  0  0
    6.6632  -11.6078   25.7094 C   0  0  0  0  0  0  0  0  0  0  0  0
    7.8827  -11.2976   26.2924 C   0  0  0  0  0  0  0  0  0  0  0  0
    8.6846  -12.3203   26.7428 C   0  0  0  0  0  0  0  0  0  0  0  0
    8.3070  -13.6591   26.6308 C   0  0  0  0  0  0  0  0  0  0  0  0
   10.5200  -17.1739   28.4642 C   0  0  0  0  0  0  0  0  0  0  0  0
   10.0030  -18.2879   28.2512 O   0  0  0  0  0  0  0  0  0  0  0  0
   10.7113  -16.7334   29.7904 O   0  0  0  0  0  0  0  0  0  0  0  0
  2  1  1  6
  2  3  1  0
  3  4  1  0
  4 12  1  0
  4  5  2  0
  5  6  1  0
  7  8  2  0
  7  6  1  0
  9  8  1  0
 10  9  2  0
 11 10  1  0
 11 12  2  0
 12  7  1  0
 13 14  2  0
 13  2  1  0
 15 13  1  0
 16 15  1  0
 17 18  1  0
 16 17  1  6
 18 19  2  0
 20 16  1  0
 20 21  2  0
 22 18  1  0
 23 20  1  0
 24 25  1  6
 24 23  1  0
 25 26  1  0
 26 34  1  0
 26 27  2  0
 27 28  1  0
 29 28  1  0
 29 30  2  0
 31 30  1  0
 32 31  2  0
 33 34  2  0
 33 32  1  0
 34 29  1  0
 35 24  1  0
 36 35  2  0
 37 35  1  0
M  END
$$$$
