QKW.pdb
     RDKit          3D

 33 34  0  0  1  0  0  0  0  0999 V2000
    7.1375  -12.7719   17.3490 N   0  0  0  0  0  0  0  0  0  0  0  0
    7.6327  -14.0911   17.1989 C   0  0  0  0  0  0  0  0  0  0  0  0
    7.2333  -14.7687   16.2210 O   0  0  0  0  0  0  0  0  0  0  0  0
    8.5943  -14.5741   18.2202 C   0  0  0  0  0  0  0  0  0  0  0  0
    8.7546  -13.4845   19.2578 C   0  0  0  0  0  0  0  0  0  0  0  0
    9.7510  -13.8875   20.3307 C   0  0  2  0  0  0  0  0  0  0  0  0
   10.9563  -14.3935   19.6729 N   0  0  0  0  0  0  0  0  0  0  0  0
    9.2370  -14.9193   21.2238 C   0  0  0  0  0  0  0  0  0  0  0  0
    8.1211  -14.7382   21.8187 O   0  0  0  0  0  0  0  0  0  0  0  0
    9.8587  -16.1495   21.5183 N   0  0  0  0  0  0  0  0  0  0  0  0
    9.3295  -17.1127   22.5038 C   0  0  1  0  0  0  0  0  0  0  0  0
    9.8625  -18.4463   21.9608 C   0  0  0  0  0  0  0  0  0  0  0  0
    9.3765  -18.7865   20.6024 C   0  0  0  0  0  0  0  0  0  0  0  0
    8.8028  -20.2105   20.5576 C   0  0  0  0  0  0  0  0  0  0  0  0
    8.3906  -20.5774   19.1498 C   0  0  0  0  0  0  0  0  0  0  0  0
    9.5616  -21.1109   18.4773 N   0  0  0  0  0  0  0  0  0  0  0  0
    9.8227  -16.8035   23.8514 C   0  0  0  0  0  0  0  0  0  0  0  0
   11.0444  -16.4771   24.0118 O   0  0  0  0  0  0  0  0  0  0  0  0
    9.0215  -16.8392   25.0186 N   0  0  0  0  0  0  0  0  0  0  0  0
    9.5853  -16.5862   26.3472 C   0  0  1  0  0  0  0  0  0  0  0  0
    8.5298  -16.0849   27.2772 C   0  0  0  0  0  0  0  0  0  0  0  0
    7.5864  -15.1700   26.6400 C   0  0  0  0  0  0  0  0  0  0  0  0
    6.4315  -15.5817   25.9604 C   0  0  0  0  0  0  0  0  0  0  0  0
    5.8215  -14.5152   25.4601 N   0  0  0  0  0  0  0  0  0  0  0  0
    6.5112  -13.4098   25.7729 C   0  0  0  0  0  0  0  0  0  0  0  0
    6.3055  -12.0755   25.5216 C   0  0  0  0  0  0  0  0  0  0  0  0
    7.1683  -11.1101   25.9841 C   0  0  0  0  0  0  0  0  0  0  0  0
    8.2691  -11.4864   26.7201 C   0  0  0  0  0  0  0  0  0  0  0  0
    8.4804  -12.8182   26.9738 C   0  0  0  0  0  0  0  0  0  0  0  0
    7.6064  -13.8058   26.5044 C   0  0  0  0  0  0  0  0  0  0  0  0
   10.2883  -17.7448   26.8777 C   0  0  0  0  0  0  0  0  0  0  0  0
   10.2797  -18.8766   26.3497 O   0  0  0  0  0  0  0  0  0  0  0  0
   11.0305  -17.6004   28.0603 O   0  0  0  0  0  0  0  0  0  0  0  0
  2  1  1  0
  2  4  1  0
  3  2  2  0
  5  4  1  0
  6  7  1  6
  6  5  1  0
  8  9  2  0
  8  6  1  0
 10  8  1  0
 11 10  1  0
 11 17  1  0
 11 12  1  6
 13 12  1  0
 14 13  1  0
 15 14  1  0
 16 15  1  0
 17 19  1  0
 17 18  2  0
 19 20  1  0
 20 21  1  1
 21 22  1  0
 22 23  2  0
 23 24  1  0
 25 24  1  0
 26 25  2  0
 27 26  1  0
 28 29  1  0
 28 27  2  0
 29 30  2  0
 30 22  1  0
 30 25  1  0
 31 33  1  0
 31 20  1  0
 32 31  2  0
M  END
$$$$
