QKW.pdb
     RDKit          3D

 33 34  0  0  1  0  0  0  0  0999 V2000
   14.9754  -15.7507   18.8989 N   0  0  0  0  0  0  0  0  0  0  0  0
   13.9329  -14.8096   19.0872 C   0  0  0  0  0  0  0  0  0  0  0  0
   14.2025  -13.7321   19.6714 O   0  0  0  0  0  0  0  0  0  0  0  0
   12.5895  -15.1749   18.5743 C   0  0  0  0  0  0  0  0  0  0  0  0
   11.5591  -14.5850   19.5122 C   0  0  0  0  0  0  0  0  0  0  0  0
   10.1530  -15.0036   19.1197 C   0  0  2  0  0  0  0  0  0  0  0  0
    9.5462  -13.9156   18.3520 N   0  0  0  0  0  0  0  0  0  0  0  0
    9.3054  -15.2941   20.2702 C   0  0  0  0  0  0  0  0  0  0  0  0
    8.6731  -14.3429   20.8425 O   0  0  0  0  0  0  0  0  0  0  0  0
    9.0940  -16.5619   20.8486 N   0  0  0  0  0  0  0  0  0  0  0  0
    8.1372  -16.8060   21.9458 C   0  0  1  0  0  0  0  0  0  0  0  0
    7.4638  -18.1100   21.4945 C   0  0  0  0  0  0  0  0  0  0  0  0
    7.1490  -18.1613   20.0469 C   0  0  0  0  0  0  0  0  0  0  0  0
    6.4257  -19.4659   19.6813 C   0  0  0  0  0  0  0  0  0  0  0  0
    6.1838  -19.5442   18.1907 C   0  0  0  0  0  0  0  0  0  0  0  0
    5.4765  -20.7848   17.9280 N   0  0  0  0  0  0  0  0  0  0  0  0
    8.8381  -16.9362   23.2291 C   0  0  0  0  0  0  0  0  0  0  0  0
    8.7087  -18.0075   23.9076 O   0  0  0  0  0  0  0  0  0  0  0  0
    9.6718  -15.9353   23.7845 N   0  0  0  0  0  0  0  0  0  0  0  0
   10.0710  -15.9611   25.1941 C   0  0  1  0  0  0  0  0  0  0  0  0
    8.9186  -16.3567   26.0577 C   0  0  0  0  0  0  0  0  0  0  0  0
    7.7991  -15.4213   25.9903 C   0  0  0  0  0  0  0  0  0  0  0  0
    6.4992  -15.7794   25.6065 C   0  0  0  0  0  0  0  0  0  0  0  0
    5.7353  -14.6948   25.6038 N   0  0  0  0  0  0  0  0  0  0  0  0
    6.4604  -13.6286   25.9682 C   0  0  0  0  0  0  0  0  0  0  0  0
    6.1519  -12.3017   26.1418 C   0  0  0  0  0  0  0  0  0  0  0  0
    7.0920  -11.3879   26.5560 C   0  0  0  0  0  0  0  0  0  0  0  0
    8.3784  -11.8099   26.8053 C   0  0  0  0  0  0  0  0  0  0  0  0
    8.6929  -13.1343   26.6329 C   0  0  0  0  0  0  0  0  0  0  0  0
    7.7405  -14.0691   26.2101 C   0  0  0  0  0  0  0  0  0  0  0  0
   11.2448  -16.7913   25.4198 C   0  0  0  0  0  0  0  0  0  0  0  0
   11.8360  -17.4331   24.5262 O   0  0  0  0  0  0  0  0  0  0  0  0
   11.7614  -16.8898   26.7211 O   0  0  0  0  0  0  0  0  0  0  0  0
  2  1  1  0
  2  4  1  0
  3  2  2  0
  5  4  1  0
  6  7  1  1
  6  5  1  0
  8  9  2  0
  8  6  1  0
 10  8  1  0
 11 10  1  0
 11 17  1  0
 11 12  1  6
 13 12  1  0
 14 13  1  0
 15 14  1  0
 16 15  1  0
 17 19  1  0
 17 18  2  0
 19 20  1  0
 20 21  1  1
 21 22  1  0
 22 23  2  0
 23 24  1  0
 25 24  1  0
 26 25  2  0
 27 26  1  0
 28 29  1  0
 28 27  2  0
 29 30  2  0
 30 22  1  0
 30 25  1  0
 31 33  1  0
 31 20  1  0
 32 31  2  0
M  END
$$$$
