QKW.pdb
     RDKit          3D

 33 34  0  0  1  0  0  0  0  0999 V2000
    7.0709  -12.4582   17.2629 N   0  0  0  0  0  0  0  0  0  0  0  0
    7.5435  -13.6456   16.6506 C   0  0  0  0  0  0  0  0  0  0  0  0
    7.0792  -13.9616   15.5283 O   0  0  0  0  0  0  0  0  0  0  0  0
    8.5607  -14.4314   17.3915 C   0  0  0  0  0  0  0  0  0  0  0  0
    8.7055  -13.8207   18.7683 C   0  0  0  0  0  0  0  0  0  0  0  0
    9.7444  -14.5606   19.5928 C   0  0  2  0  0  0  0  0  0  0  0  0
   10.4791  -15.4628   18.7054 N   0  0  0  0  0  0  0  0  0  0  0  0
    9.1581  -15.3430   20.6748 C   0  0  0  0  0  0  0  0  0  0  0  0
    8.3664  -14.7779   21.5030 O   0  0  0  0  0  0  0  0  0  0  0  0
    9.3745  -16.7136   20.9218 N   0  0  0  0  0  0  0  0  0  0  0  0
    8.6921  -17.4644   21.9939 C   0  0  1  0  0  0  0  0  0  0  0  0
    8.7130  -18.8964   21.4404 C   0  0  0  0  0  0  0  0  0  0  0  0
    7.9144  -19.0817   20.2054 C   0  0  0  0  0  0  0  0  0  0  0  0
    6.7674  -20.0783   20.4295 C   0  0  0  0  0  0  0  0  0  0  0  0
    6.0528  -20.3729   19.1298 C   0  0  0  0  0  0  0  0  0  0  0  0
    5.0544  -21.3914   19.4020 N   0  0  0  0  0  0  0  0  0  0  0  0
    9.4139  -17.3299   23.2651 C   0  0  0  0  0  0  0  0  0  0  0  0
   10.3577  -18.1418   23.5385 O   0  0  0  0  0  0  0  0  0  0  0  0
    9.1350  -16.3378   24.2363 N   0  0  0  0  0  0  0  0  0  0  0  0
    9.8149  -16.3186   25.5342 C   0  0  1  0  0  0  0  0  0  0  0  0
    9.5487  -15.0328   26.2458 C   0  0  0  0  0  0  0  0  0  0  0  0
    8.1856  -14.5423   26.0608 C   0  0  0  0  0  0  0  0  0  0  0  0
    7.0781  -15.3703   25.8303 C   0  0  0  0  0  0  0  0  0  0  0  0
    6.0017  -14.6141   25.6589 N   0  0  0  0  0  0  0  0  0  0  0  0
    6.3347  -13.3206   25.7646 C   0  0  0  0  0  0  0  0  0  0  0  0
    5.6076  -12.1578   25.6919 C   0  0  0  0  0  0  0  0  0  0  0  0
    6.1931  -10.9257   25.8638 C   0  0  0  0  0  0  0  0  0  0  0  0
    7.5443  -10.8508   26.1166 C   0  0  0  0  0  0  0  0  0  0  0  0
    8.2762  -12.0091   26.1896 C   0  0  0  0  0  0  0  0  0  0  0  0
    7.6860  -13.2662   26.0140 C   0  0  0  0  0  0  0  0  0  0  0  0
    9.4867  -17.4809   26.3460 C   0  0  0  0  0  0  0  0  0  0  0  0
    8.5310  -18.2520   26.1183 O   0  0  0  0  0  0  0  0  0  0  0  0
   10.2856  -17.7710   27.4631 O   0  0  0  0  0  0  0  0  0  0  0  0
  2  1  1  0
  2  4  1  0
  3  2  2  0
  5  4  1  0
  6  7  1  6
  6  5  1  0
  8  9  2  0
  8  6  1  0
 10  8  1  0
 11 10  1  0
 11 17  1  0
 11 12  1  6
 13 12  1  0
 14 13  1  0
 15 14  1  0
 16 15  1  0
 17 19  1  0
 17 18  2  0
 19 20  1  0
 20 21  1  1
 21 22  1  0
 22 23  2  0
 23 24  1  0
 25 24  1  0
 26 25  2  0
 27 26  1  0
 28 29  1  0
 28 27  2  0
 29 30  2  0
 30 22  1  0
 30 25  1  0
 31 33  1  0
 31 20  1  0
 32 31  2  0
M  END
$$$$
