QKW.pdb
     RDKit          3D

 33 34  0  0  1  0  0  0  0  0999 V2000
    7.4539  -11.9509   19.7343 N   0  0  0  0  0  0  0  0  0  0  0  0
    8.3619  -12.3178   18.7101 C   0  0  0  0  0  0  0  0  0  0  0  0
    8.9941  -11.4074   18.1214 O   0  0  0  0  0  0  0  0  0  0  0  0
    8.4957  -13.7645   18.4096 C   0  0  0  0  0  0  0  0  0  0  0  0
    8.2120  -14.5306   19.6832 C   0  0  0  0  0  0  0  0  0  0  0  0
    8.3342  -16.0284   19.4641 C   0  0  2  0  0  0  0  0  0  0  0  0
    7.2041  -16.4674   18.6446 N   0  0  0  0  0  0  0  0  0  0  0  0
    8.3313  -16.7863   20.7100 C   0  0  0  0  0  0  0  0  0  0  0  0
    7.2185  -17.1276   21.2366 O   0  0  0  0  0  0  0  0  0  0  0  0
    9.4674  -17.2046   21.4316 N   0  0  0  0  0  0  0  0  0  0  0  0
    9.3938  -17.9436   22.7073 C   0  0  1  0  0  0  0  0  0  0  0  0
   10.2977  -19.1524   22.4256 C   0  0  0  0  0  0  0  0  0  0  0  0
    9.7707  -20.0772   21.3940 C   0  0  0  0  0  0  0  0  0  0  0  0
   10.7214  -21.2631   21.1728 C   0  0  0  0  0  0  0  0  0  0  0  0
   10.2535  -22.1154   20.0148 C   0  0  0  0  0  0  0  0  0  0  0  0
   11.2555  -23.1434   19.7968 N   0  0  0  0  0  0  0  0  0  0  0  0
    9.8748  -17.1139   23.8187 C   0  0  0  0  0  0  0  0  0  0  0  0
   10.9348  -16.4215   23.6705 O   0  0  0  0  0  0  0  0  0  0  0  0
    9.2317  -17.0201   25.0768 N   0  0  0  0  0  0  0  0  0  0  0  0
    9.8981  -16.4279   26.2397 C   0  0  1  0  0  0  0  0  0  0  0  0
    8.8909  -15.9479   27.2324 C   0  0  0  0  0  0  0  0  0  0  0  0
    7.7979  -15.1924   26.6263 C   0  0  0  0  0  0  0  0  0  0  0  0
    6.6312  -15.7755   26.1124 C   0  0  0  0  0  0  0  0  0  0  0  0
    5.8657  -14.8247   25.5931 N   0  0  0  0  0  0  0  0  0  0  0  0
    6.4626  -13.6336   25.7354 C   0  0  0  0  0  0  0  0  0  0  0  0
    6.0935  -12.3550   25.3965 C   0  0  0  0  0  0  0  0  0  0  0  0
    6.8912  -11.2718   25.6803 C   0  0  0  0  0  0  0  0  0  0  0  0
    8.0930  -11.4692   26.3220 C   0  0  0  0  0  0  0  0  0  0  0  0
    8.4677  -12.7445   26.6625 C   0  0  0  0  0  0  0  0  0  0  0  0
    7.6604  -13.8515   26.3750 C   0  0  0  0  0  0  0  0  0  0  0  0
   10.8766  -17.3277   26.8320 C   0  0  0  0  0  0  0  0  0  0  0  0
   11.0317  -18.5203   26.4950 O   0  0  0  0  0  0  0  0  0  0  0  0
   11.7104  -16.8413   27.8511 O   0  0  0  0  0  0  0  0  0  0  0  0
  2  1  1  0
  2  4  1  0
  3  2  2  0
  5  4  1  0
  6  7  1  6
  6  5  1  0
  8  9  2  0
  8  6  1  0
 10  8  1  0
 11 10  1  0
 11 17  1  0
 11 12  1  6
 13 12  1  0
 14 13  1  0
 15 14  1  0
 16 15  1  0
 17 19  1  0
 17 18  2  0
 19 20  1  0
 20 21  1  1
 21 22  1  0
 22 23  2  0
 23 24  1  0
 25 24  1  0
 26 25  2  0
 27 26  1  0
 28 29  1  0
 28 27  2  0
 29 30  2  0
 30 22  1  0
 30 25  1  0
 31 33  1  0
 31 20  1  0
 32 31  2  0
M  END
$$$$
