QKW.pdb
     RDKit          3D

 33 34  0  0  1  0  0  0  0  0999 V2000
    7.9047  -12.2468   18.6009 N   0  0  0  0  0  0  0  0  0  0  0  0
    7.7021  -13.2276   17.5983 C   0  0  0  0  0  0  0  0  0  0  0  0
    7.6545  -12.8536   16.4013 O   0  0  0  0  0  0  0  0  0  0  0  0
    7.5598  -14.6348   18.0461 C   0  0  0  0  0  0  0  0  0  0  0  0
    7.6760  -14.6552   19.5546 C   0  0  0  0  0  0  0  0  0  0  0  0
    9.0002  -15.2525   19.9973 C   0  0  2  0  0  0  0  0  0  0  0  0
    9.4575  -16.1780   18.9601 N   0  0  0  0  0  0  0  0  0  0  0  0
    8.9027  -15.9756   21.2600 C   0  0  0  0  0  0  0  0  0  0  0  0
    8.1175  -15.5469   22.1719 O   0  0  0  0  0  0  0  0  0  0  0  0
    9.6073  -17.1467   21.6042 N   0  0  0  0  0  0  0  0  0  0  0  0
    9.3540  -17.9149   22.8390 C   0  0  1  0  0  0  0  0  0  0  0  0
   10.0545  -19.2465   22.5329 C   0  0  0  0  0  0  0  0  0  0  0  0
    9.9661  -20.2442   23.6255 C   0  0  0  0  0  0  0  0  0  0  0  0
   10.7765  -21.5059   23.2931 C   0  0  0  0  0  0  0  0  0  0  0  0
   10.6344  -22.5376   24.3893 C   0  0  0  0  0  0  0  0  0  0  0  0
    9.2699  -23.0323   24.3488 N   0  0  0  0  0  0  0  0  0  0  0  0
    9.9168  -17.2253   24.0064 C   0  0  0  0  0  0  0  0  0  0  0  0
   11.0701  -16.6890   23.9213 O   0  0  0  0  0  0  0  0  0  0  0  0
    9.2566  -17.1056   25.2534 N   0  0  0  0  0  0  0  0  0  0  0  0
    9.8622  -16.3894   26.3793 C   0  0  1  0  0  0  0  0  0  0  0  0
    8.8057  -15.8635   27.2945 C   0  0  0  0  0  0  0  0  0  0  0  0
    7.7695  -15.1017   26.6024 C   0  0  0  0  0  0  0  0  0  0  0  0
    6.5876  -15.6626   26.0987 C   0  0  0  0  0  0  0  0  0  0  0  0
    5.8863  -14.7162   25.4884 N   0  0  0  0  0  0  0  0  0  0  0  0
    6.5408  -13.5493   25.5601 C   0  0  0  0  0  0  0  0  0  0  0  0
    6.2478  -12.2829   25.1171 C   0  0  0  0  0  0  0  0  0  0  0  0
    7.0934  -11.2227   25.3436 C   0  0  0  0  0  0  0  0  0  0  0  0
    8.2664  -11.4315   26.0333 C   0  0  0  0  0  0  0  0  0  0  0  0
    8.5651  -12.6948   26.4777 C   0  0  0  0  0  0  0  0  0  0  0  0
    7.7088  -13.7783   26.2490 C   0  0  0  0  0  0  0  0  0  0  0  0
   10.8512  -17.1962   27.0784 C   0  0  0  0  0  0  0  0  0  0  0  0
   11.0809  -18.3989   26.8319 O   0  0  0  0  0  0  0  0  0  0  0  0
   11.6069  -16.6011   28.1005 O   0  0  0  0  0  0  0  0  0  0  0  0
  2  1  1  0
  2  4  1  0
  3  2  2  0
  5  4  1  0
  6  7  1  6
  6  5  1  0
  8  9  2  0
  8  6  1  0
 10  8  1  0
 11 10  1  0
 11 17  1  0
 11 12  1  6
 13 12  1  0
 14 13  1  0
 15 14  1  0
 16 15  1  0
 17 19  1  0
 17 18  2  0
 19 20  1  0
 20 21  1  1
 21 22  1  0
 22 23  2  0
 23 24  1  0
 25 24  1  0
 26 25  2  0
 27 26  1  0
 28 29  1  0
 28 27  2  0
 29 30  2  0
 30 22  1  0
 30 25  1  0
 31 33  1  0
 31 20  1  0
 32 31  2  0
M  END
$$$$
