QKW.pdb
     RDKit          3D

 33 34  0  0  1  0  0  0  0  0999 V2000
    7.3193  -12.2741   17.8249 N   0  0  0  0  0  0  0  0  0  0  0  0
    8.3854  -13.0164   17.2585 C   0  0  0  0  0  0  0  0  0  0  0  0
    9.3539  -12.3868   16.7681 O   0  0  0  0  0  0  0  0  0  0  0  0
    8.2725  -14.4954   17.2892 C   0  0  0  0  0  0  0  0  0  0  0  0
    7.9104  -14.9034   18.7005 C   0  0  0  0  0  0  0  0  0  0  0  0
    8.5876  -16.2062   19.0884 C   0  0  2  0  0  0  0  0  0  0  0  0
    8.0423  -17.2755   18.2514 N   0  0  0  0  0  0  0  0  0  0  0  0
    8.3827  -16.5573   20.4889 C   0  0  0  0  0  0  0  0  0  0  0  0
    7.4734  -15.9622   21.1605 O   0  0  0  0  0  0  0  0  0  0  0  0
    9.1055  -17.5224   21.2187 N   0  0  0  0  0  0  0  0  0  0  0  0
    8.7517  -17.9378   22.5903 C   0  0  1  0  0  0  0  0  0  0  0  0
    8.8549  -19.4668   22.4946 C   0  0  0  0  0  0  0  0  0  0  0  0
    7.8472  -20.0888   21.6031 C   0  0  0  0  0  0  0  0  0  0  0  0
    8.0226  -21.6135   21.5445 C   0  0  0  0  0  0  0  0  0  0  0  0
    7.1151  -22.2167   20.4961 C   0  0  0  0  0  0  0  0  0  0  0  0
    7.4391  -23.6288   20.3989 N   0  0  0  0  0  0  0  0  0  0  0  0
    9.6831  -17.3596   23.5665 C   0  0  0  0  0  0  0  0  0  0  0  0
   10.9368  -17.4077   23.3408 O   0  0  0  0  0  0  0  0  0  0  0  0
    9.2834  -16.7333   24.7720 N   0  0  0  0  0  0  0  0  0  0  0  0
   10.2553  -16.3520   25.8003 C   0  0  1  0  0  0  0  0  0  0  0  0
    9.8852  -15.0398   26.4098 C   0  0  0  0  0  0  0  0  0  0  0  0
    8.4861  -14.6789   26.1972 C   0  0  0  0  0  0  0  0  0  0  0  0
    7.4560  -15.6100   26.0044 C   0  0  0  0  0  0  0  0  0  0  0  0
    6.3194  -14.9592   25.7932 N   0  0  0  0  0  0  0  0  0  0  0  0
    6.5385  -13.6381   25.8364 C   0  0  0  0  0  0  0  0  0  0  0  0
    5.7142  -12.5477   25.7049 C   0  0  0  0  0  0  0  0  0  0  0  0
    6.1897  -11.2626   25.8180 C   0  0  0  0  0  0  0  0  0  0  0  0
    7.5275  -11.0586   26.0705 C   0  0  0  0  0  0  0  0  0  0  0  0
    8.3563  -12.1441   26.2021 C   0  0  0  0  0  0  0  0  0  0  0  0
    7.8783  -13.4547   26.0866 C   0  0  0  0  0  0  0  0  0  0  0  0
   10.4405  -17.3952   26.7979 C   0  0  0  0  0  0  0  0  0  0  0  0
   11.3056  -17.3633   27.6982 O   0  0  0  0  0  0  0  0  0  0  0  0
    9.6011  -18.5196   26.7622 O   0  0  0  0  0  0  0  0  0  0  0  0
  2  1  1  0
  2  4  1  0
  3  2  2  0
  5  4  1  0
  6  7  1  6
  6  5  1  0
  8  9  2  0
  8  6  1  0
 10  8  1  0
 11 10  1  0
 11 17  1  0
 11 12  1  6
 13 12  1  0
 14 13  1  0
 15 14  1  0
 16 15  1  0
 17 19  1  0
 17 18  2  0
 19 20  1  0
 20 21  1  1
 21 22  1  0
 22 23  2  0
 23 24  1  0
 25 24  1  0
 26 25  2  0
 27 26  1  0
 28 29  1  0
 28 27  2  0
 29 30  2  0
 30 22  1  0
 30 25  1  0
 31 33  1  0
 31 20  1  0
 32 31  2  0
M  END
$$$$
