QKW.pdb
     RDKit          3D

 33 34  0  0  1  0  0  0  0  0999 V2000
   12.6049  -22.2432   22.6298 N   0  0  0  0  0  0  0  0  0  0  0  0
   11.6323  -21.5310   21.8848 C   0  0  0  0  0  0  0  0  0  0  0  0
   10.4643  -21.9879   21.8415 O   0  0  0  0  0  0  0  0  0  0  0  0
   12.0750  -20.2882   21.2063 C   0  0  0  0  0  0  0  0  0  0  0  0
   10.8690  -19.6756   20.5282 C   0  0  0  0  0  0  0  0  0  0  0  0
   11.2163  -18.3457   19.8822 C   0  0  2  0  0  0  0  0  0  0  0  0
   12.6265  -18.3776   19.4925 N   0  0  0  0  0  0  0  0  0  0  0  0
   11.0019  -17.2098   20.7711 C   0  0  0  0  0  0  0  0  0  0  0  0
   12.0008  -16.6740   21.3601 O   0  0  0  0  0  0  0  0  0  0  0  0
    9.7623  -16.6079   21.0673 N   0  0  0  0  0  0  0  0  0  0  0  0
    9.6039  -15.5078   22.0387 C   0  0  1  0  0  0  0  0  0  0  0  0
    8.4203  -14.7299   21.4459 C   0  0  0  0  0  0  0  0  0  0  0  0
    8.6953  -14.1217   20.1224 C   0  0  0  0  0  0  0  0  0  0  0  0
    7.4642  -13.3757   19.5869 C   0  0  0  0  0  0  0  0  0  0  0  0
    7.7648  -12.7379   18.2492 C   0  0  0  0  0  0  0  0  0  0  0  0
    6.5459  -12.0986   17.7868 N   0  0  0  0  0  0  0  0  0  0  0  0
    9.3302  -16.0338   23.3816 C   0  0  0  0  0  0  0  0  0  0  0  0
    8.8797  -17.2192   23.5103 O   0  0  0  0  0  0  0  0  0  0  0  0
    9.5364  -15.3047   24.5780 N   0  0  0  0  0  0  0  0  0  0  0  0
    9.9116  -15.9688   25.8291 C   0  0  1  0  0  0  0  0  0  0  0  0
    8.7213  -16.1225   26.7179 C   0  0  0  0  0  0  0  0  0  0  0  0
    7.6038  -15.2616   26.3398 C   0  0  0  0  0  0  0  0  0  0  0  0
    6.4162  -15.7272   25.7584 C   0  0  0  0  0  0  0  0  0  0  0  0
    5.6296  -14.6921   25.4947 N   0  0  0  0  0  0  0  0  0  0  0  0
    6.2324  -13.5566   25.8722 C   0  0  0  0  0  0  0  0  0  0  0  0
    5.8497  -12.2381   25.8403 C   0  0  0  0  0  0  0  0  0  0  0  0
    6.6591  -11.2373   26.3235 C   0  0  0  0  0  0  0  0  0  0  0  0
    7.8870  -11.5608   26.8552 C   0  0  0  0  0  0  0  0  0  0  0  0
    8.2753  -12.8764   26.8891 C   0  0  0  0  0  0  0  0  0  0  0  0
    7.4562  -13.8996   26.3975 C   0  0  0  0  0  0  0  0  0  0  0  0
   10.5995  -17.2304   25.5990 C   0  0  0  0  0  0  0  0  0  0  0  0
   10.7592  -17.7510   24.4750 O   0  0  0  0  0  0  0  0  0  0  0  0
   11.1254  -17.9229   26.7009 O   0  0  0  0  0  0  0  0  0  0  0  0
  2  1  1  0
  2  4  1  0
  3  2  2  0
  5  4  1  0
  6  7  1  1
  6  5  1  0
  8  9  2  0
  8  6  1  0
 10  8  1  0
 11 10  1  0
 11 17  1  0
 11 12  1  6
 13 12  1  0
 14 13  1  0
 15 14  1  0
 16 15  1  0
 17 19  1  0
 17 18  2  0
 19 20  1  0
 20 21  1  1
 21 22  1  0
 22 23  2  0
 23 24  1  0
 25 24  1  0
 26 25  2  0
 27 26  1  0
 28 29  1  0
 28 27  2  0
 29 30  2  0
 30 22  1  0
 30 25  1  0
 31 33  1  0
 31 20  1  0
 32 31  2  0
M  END
$$$$
