KMH.pdb
     RDKit          3D

 28 28  0  0  1  0  0  0  0  0999 V2000
    7.1313  -15.8413   20.3050 N   0  0  0  0  0  0  0  0  0  0  0  0
    8.4614  -15.3113   20.3722 C   0  0  1  0  0  0  0  0  0  0  0  0
    8.6518  -14.0905   19.5214 C   0  0  0  0  0  0  0  0  0  0  0  0
    7.8555  -14.0895   18.2745 C   0  0  0  0  0  0  0  0  0  0  0  0
    8.4766  -13.3655   17.1281 C   0  0  0  0  0  0  0  0  0  0  0  0
    7.5293  -13.3481   15.9165 C   0  0  0  0  0  0  0  0  0  0  0  0
    8.1698  -12.5501   14.8964 N   0  0  0  0  0  0  0  0  0  0  0  0
    8.9079  -15.0548   21.7791 C   0  0  0  0  0  0  0  0  0  0  0  0
   10.0773  -14.6435   21.9973 O   0  0  0  0  0  0  0  0  0  0  0  0
    6.9319  -11.6349   27.3293 C   0  0  0  0  0  0  0  0  0  0  0  0
    5.9249  -12.6876   26.2830 S   0  0  0  0  0  0  0  0  0  0  0  0
    6.8771  -13.3295   24.8366 C   0  0  0  0  0  0  0  0  0  0  0  0
    7.3764  -14.7152   25.1381 C   0  0  0  0  0  0  0  0  0  0  0  0
    8.5539  -15.1374   24.2375 C   0  0  2  0  0  0  0  0  0  0  0  0
    8.0279  -15.2672   22.8669 N   0  0  0  0  0  0  0  0  0  0  0  0
    9.0784  -16.3935   24.7357 C   0  0  0  0  0  0  0  0  0  0  0  0
    9.1307  -17.3881   23.9230 O   0  0  0  0  0  0  0  0  0  0  0  0
    9.5498  -16.6743   26.0232 N   0  0  0  0  0  0  0  0  0  0  0  0
   10.6987  -17.5809   26.2215 C   0  0  1  0  0  0  0  0  0  0  0  0
   11.9163  -17.0009   25.5365 C   0  0  0  0  0  0  0  0  0  0  0  0
   11.9982  -17.5263   24.1596 C   0  0  0  0  0  0  0  0  0  0  0  0
   11.1913  -18.4349   23.5212 C   0  0  0  0  0  0  0  0  0  0  0  0
   11.6543  -18.6521   22.2559 N   0  0  0  0  0  0  0  0  0  0  0  0
   12.7406  -17.8871   22.1053 C   0  0  0  0  0  0  0  0  0  0  0  0
   12.9532  -17.2106   23.2392 N   0  0  0  0  0  0  0  0  0  0  0  0
   10.9345  -17.6343   27.6711 C   0  0  0  0  0  0  0  0  0  0  0  0
   10.1493  -16.9262   28.5570 O   0  0  0  0  0  0  0  0  0  0  0  0
   11.8639  -18.3302   28.1216 O   0  0  0  0  0  0  0  0  0  0  0  0
  2  1  1  1
  2  3  1  0
  3  4  1  0
  4  5  1  0
  5  6  1  0
  7  6  1  0
  8  9  2  0
  8  2  1  0
 11 10  1  0
 11 12  1  0
 12 13  1  0
 14 13  1  1
 14 15  1  0
 15  8  1  0
 16 18  1  0
 16 14  1  0
 17 16  2  0
 19 18  1  0
 19 26  1  0
 19 20  1  6
 21 20  1  0
 22 21  2  0
 23 24  1  0
 23 22  1  0
 24 25  2  0
 25 21  1  0
 26 28  2  0
 26 27  1  0
M  END
$$$$
