KMH.pdb
     RDKit          3D

 28 28  0  0  1  0  0  0  0  0999 V2000
    7.2997  -17.0062   20.1236 N   0  0  0  0  0  0  0  0  0  0  0  0
    8.7253  -16.9398   20.2574 C   0  0  1  0  0  0  0  0  0  0  0  0
    9.4020  -16.3497   19.0556 C   0  0  0  0  0  0  0  0  0  0  0  0
    9.1738  -17.1001   17.8011 C   0  0  0  0  0  0  0  0  0  0  0  0
   10.3164  -17.0920   16.8426 C   0  0  0  0  0  0  0  0  0  0  0  0
    9.9740  -17.8997   15.5793 C   0  0  0  0  0  0  0  0  0  0  0  0
   11.0942  -17.7602   14.6774 N   0  0  0  0  0  0  0  0  0  0  0  0
    9.1533  -16.2358   21.5087 C   0  0  0  0  0  0  0  0  0  0  0  0
   10.3790  -16.0753   21.7461 O   0  0  0  0  0  0  0  0  0  0  0  0
    6.7685  -11.4848   27.4313 C   0  0  0  0  0  0  0  0  0  0  0  0
    6.3950  -12.4628   25.9749 S   0  0  0  0  0  0  0  0  0  0  0  0
    7.8347  -13.4961   25.4548 C   0  0  0  0  0  0  0  0  0  0  0  0
    7.4912  -14.2386   24.1934 C   0  0  0  0  0  0  0  0  0  0  0  0
    8.6657  -15.0776   23.6527 C   0  0  2  0  0  0  0  0  0  0  0  0
    8.1941  -15.7460   22.4267 N   0  0  0  0  0  0  0  0  0  0  0  0
    9.0500  -16.0315   24.6741 C   0  0  0  0  0  0  0  0  0  0  0  0
    8.1826  -16.9093   25.0341 O   0  0  0  0  0  0  0  0  0  0  0  0
   10.2776  -16.1259   25.3394 N   0  0  0  0  0  0  0  0  0  0  0  0
   10.5293  -17.2187   26.3004 C   0  0  1  0  0  0  0  0  0  0  0  0
   11.9898  -17.6081   26.2422 C   0  0  0  0  0  0  0  0  0  0  0  0
   12.2373  -18.3926   25.0166 C   0  0  0  0  0  0  0  0  0  0  0  0
   11.3450  -18.8701   24.0893 C   0  0  0  0  0  0  0  0  0  0  0  0
   12.0123  -19.5715   23.1273 N   0  0  0  0  0  0  0  0  0  0  0  0
   13.3091  -19.5333   23.4509 C   0  0  0  0  0  0  0  0  0  0  0  0
   13.4524  -18.8302   24.5796 N   0  0  0  0  0  0  0  0  0  0  0  0
   10.2229  -16.6748   27.6308 C   0  0  0  0  0  0  0  0  0  0  0  0
   10.2876  -17.4590   28.7639 O   0  0  0  0  0  0  0  0  0  0  0  0
    9.8937  -15.4797   27.7500 O   0  0  0  0  0  0  0  0  0  0  0  0
  2  1  1  6
  2  3  1  0
  3  4  1  0
  4  5  1  0
  5  6  1  0
  7  6  1  0
  8  9  2  0
  8  2  1  0
 11 10  1  0
 11 12  1  0
 12 13  1  0
 14 13  1  1
 14 15  1  0
 15  8  1  0
 16 18  1  0
 16 14  1  0
 17 16  2  0
 19 18  1  0
 19 26  1  0
 19 20  1  1
 21 20  1  0
 22 21  2  0
 23 24  1  0
 23 22  1  0
 24 25  2  0
 25 21  1  0
 26 28  2  0
 26 27  1  0
M  END
$$$$
