KMH.pdb
     RDKit          3D

 28 28  0  0  1  0  0  0  0  0999 V2000
    8.6033  -13.8660   19.0272 N   0  0  0  0  0  0  0  0  0  0  0  0
    7.7416  -14.5387   19.9543 C   0  0  1  0  0  0  0  0  0  0  0  0
    7.5099  -15.9787   19.6033 C   0  0  0  0  0  0  0  0  0  0  0  0
    7.5954  -16.2719   18.1557 C   0  0  0  0  0  0  0  0  0  0  0  0
    7.2156  -17.6611   17.7683 C   0  0  0  0  0  0  0  0  0  0  0  0
    7.1269  -17.7957   16.2387 C   0  0  0  0  0  0  0  0  0  0  0  0
    6.8183  -19.1790   15.9578 N   0  0  0  0  0  0  0  0  0  0  0  0
    8.2058  -14.4044   21.3724 C   0  0  0  0  0  0  0  0  0  0  0  0
    9.4344  -14.4758   21.6361 O   0  0  0  0  0  0  0  0  0  0  0  0
    6.5622  -11.1671   28.3833 C   0  0  0  0  0  0  0  0  0  0  0  0
    6.0845  -11.5893   26.7068 S   0  0  0  0  0  0  0  0  0  0  0  0
    7.2763  -12.7671   25.9300 C   0  0  0  0  0  0  0  0  0  0  0  0
    6.8942  -12.9951   24.4939 C   0  0  0  0  0  0  0  0  0  0  0  0
    7.7862  -14.0396   23.7946 C   0  0  2  0  0  0  0  0  0  0  0  0
    7.2777  -14.1950   22.4200 N   0  0  0  0  0  0  0  0  0  0  0  0
    7.7065  -15.2783   24.5431 C   0  0  0  0  0  0  0  0  0  0  0  0
    6.6696  -16.0186   24.3720 O   0  0  0  0  0  0  0  0  0  0  0  0
    8.6375  -15.7899   25.4542 N   0  0  0  0  0  0  0  0  0  0  0  0
    9.3782  -17.0319   25.1541 C   0  0  1  0  0  0  0  0  0  0  0  0
   10.1487  -16.8543   23.8645 C   0  0  0  0  0  0  0  0  0  0  0  0
   10.9969  -18.0404   23.6355 C   0  0  0  0  0  0  0  0  0  0  0  0
   11.1532  -19.1653   24.4064 C   0  0  0  0  0  0  0  0  0  0  0  0
   12.0642  -19.9986   23.8249 N   0  0  0  0  0  0  0  0  0  0  0  0
   12.4738  -19.3998   22.7017 C   0  0  0  0  0  0  0  0  0  0  0  0
   11.8403  -18.2281   22.5809 N   0  0  0  0  0  0  0  0  0  0  0  0
   10.3227  -17.2252   26.2631 C   0  0  0  0  0  0  0  0  0  0  0  0
   10.4367  -16.3038   27.2835 O   0  0  0  0  0  0  0  0  0  0  0  0
   11.0441  -18.2399   26.2919 O   0  0  0  0  0  0  0  0  0  0  0  0
  2  1  1  6
  2  3  1  0
  3  4  1  0
  4  5  1  0
  5  6  1  0
  7  6  1  0
  8  9  2  0
  8  2  1  0
 11 10  1  0
 11 12  1  0
 12 13  1  0
 14 13  1  1
 14 15  1  0
 15  8  1  0
 16 18  1  0
 16 14  1  0
 17 16  2  0
 19 18  1  0
 19 26  1  0
 19 20  1  6
 21 20  1  0
 22 21  2  0
 23 24  1  0
 23 22  1  0
 24 25  2  0
 25 21  1  0
 26 28  2  0
 26 27  1  0
M  END
$$$$
