KMH.pdb
     RDKit          3D

 28 28  0  0  1  0  0  0  0  0999 V2000
    5.7816  -19.3195   21.6701 N   0  0  0  0  0  0  0  0  0  0  0  0
    6.2121  -19.0315   23.0066 C   0  0  1  0  0  0  0  0  0  0  0  0
    7.0259  -20.1360   23.6133 C   0  0  0  0  0  0  0  0  0  0  0  0
    6.3111  -21.4268   23.7227 C   0  0  0  0  0  0  0  0  0  0  0  0
    6.7618  -22.3066   24.8394 C   0  0  0  0  0  0  0  0  0  0  0  0
    5.8982  -23.5771   24.9152 C   0  0  0  0  0  0  0  0  0  0  0  0
    6.4695  -24.4101   25.9483 N   0  0  0  0  0  0  0  0  0  0  0  0
    6.9321  -17.7216   23.1092 C   0  0  0  0  0  0  0  0  0  0  0  0
    7.8712  -17.4619   22.3125 O   0  0  0  0  0  0  0  0  0  0  0  0
    7.0097  -10.6111   26.7447 C   0  0  0  0  0  0  0  0  0  0  0  0
    6.1670  -12.1373   26.3235 S   0  0  0  0  0  0  0  0  0  0  0  0
    7.2025  -13.2159   25.2393 C   0  0  0  0  0  0  0  0  0  0  0  0
    6.5413  -14.5574   25.0857 C   0  0  0  0  0  0  0  0  0  0  0  0
    7.3439  -15.5227   24.1914 C   0  0  2  0  0  0  0  0  0  0  0  0
    6.5661  -16.7705   24.0911 N   0  0  0  0  0  0  0  0  0  0  0  0
    8.6381  -15.7411   24.8067 C   0  0  0  0  0  0  0  0  0  0  0  0
    8.7756  -16.7659   25.5704 O   0  0  0  0  0  0  0  0  0  0  0  0
    9.7920  -14.9603   24.6745 N   0  0  0  0  0  0  0  0  0  0  0  0
   11.0699  -15.4015   25.2689 C   0  0  1  0  0  0  0  0  0  0  0  0
   10.8043  -16.5255   26.2458 C   0  0  0  0  0  0  0  0  0  0  0  0
   10.3840  -15.9569   27.5415 C   0  0  0  0  0  0  0  0  0  0  0  0
    9.9373  -14.6932   27.8379 C   0  0  0  0  0  0  0  0  0  0  0  0
    9.6862  -14.5960   29.1758 N   0  0  0  0  0  0  0  0  0  0  0  0
    9.9739  -15.7874   29.7105 C   0  0  0  0  0  0  0  0  0  0  0  0
   10.3920  -16.6070   28.7399 N   0  0  0  0  0  0  0  0  0  0  0  0
   11.8879  -15.9057   24.1570 C   0  0  0  0  0  0  0  0  0  0  0  0
   11.4075  -15.9392   22.8644 O   0  0  0  0  0  0  0  0  0  0  0  0
   13.0428  -16.3173   24.3754 O   0  0  0  0  0  0  0  0  0  0  0  0
  2  1  1  6
  2  3  1  0
  3  4  1  0
  4  5  1  0
  5  6  1  0
  7  6  1  0
  8  9  2  0
  8  2  1  0
 11 10  1  0
 11 12  1  0
 12 13  1  0
 14 13  1  1
 14 15  1  0
 15  8  1  0
 16 18  1  0
 16 14  1  0
 17 16  2  0
 19 18  1  0
 19 26  1  0
 19 20  1  1
 21 20  1  0
 22 21  2  0
 23 24  1  0
 23 22  1  0
 24 25  2  0
 25 21  1  0
 26 28  2  0
 26 27  1  0
M  END
$$$$
