KMH.pdb
     RDKit          3D

 28 28  0  0  1  0  0  0  0  0999 V2000
    7.0902  -16.2039   20.0062 N   0  0  0  0  0  0  0  0  0  0  0  0
    8.2300  -15.3358   19.9632 C   0  0  1  0  0  0  0  0  0  0  0  0
    7.9810  -14.0762   19.1875 C   0  0  0  0  0  0  0  0  0  0  0  0
    7.6406  -14.2968   17.7648 C   0  0  0  0  0  0  0  0  0  0  0  0
    8.0416  -13.1972   16.8406 C   0  0  0  0  0  0  0  0  0  0  0  0
    7.6333  -13.5242   15.3943 C   0  0  0  0  0  0  0  0  0  0  0  0
    8.1326  -12.4508   14.5659 N   0  0  0  0  0  0  0  0  0  0  0  0
    8.7673  -15.0241   21.3266 C   0  0  0  0  0  0  0  0  0  0  0  0
    9.7972  -14.3099   21.4430 O   0  0  0  0  0  0  0  0  0  0  0  0
    6.6646  -12.5559   27.1006 C   0  0  0  0  0  0  0  0  0  0  0  0
    5.8362  -13.1071   25.6083 S   0  0  0  0  0  0  0  0  0  0  0  0
    7.0393  -13.6536   24.3180 C   0  0  0  0  0  0  0  0  0  0  0  0
    7.7713  -14.8758   24.7983 C   0  0  0  0  0  0  0  0  0  0  0  0
    8.8134  -15.3878   23.7846 C   0  0  2  0  0  0  0  0  0  0  0  0
    8.1278  -15.5218   22.4868 N   0  0  0  0  0  0  0  0  0  0  0  0
    9.3225  -16.6589   24.2600 C   0  0  0  0  0  0  0  0  0  0  0  0
    8.4801  -17.6112   24.4496 O   0  0  0  0  0  0  0  0  0  0  0  0
   10.6499  -16.9962   24.5479 N   0  0  0  0  0  0  0  0  0  0  0  0
   11.2204  -16.7283   25.8835 C   0  0  1  0  0  0  0  0  0  0  0  0
   10.7215  -15.3894   26.3800 C   0  0  0  0  0  0  0  0  0  0  0  0
   11.3164  -15.1062   27.7009 C   0  0  0  0  0  0  0  0  0  0  0  0
   12.1052  -15.9025   28.4932 C   0  0  0  0  0  0  0  0  0  0  0  0
   12.4073  -15.2450   29.6503 N   0  0  0  0  0  0  0  0  0  0  0  0
   11.8124  -14.0495   29.5820 C   0  0  0  0  0  0  0  0  0  0  0  0
   11.1578  -13.9583   28.4193 N   0  0  0  0  0  0  0  0  0  0  0  0
   10.7198  -17.7921   26.7651 C   0  0  0  0  0  0  0  0  0  0  0  0
   11.5775  -18.6607   27.4077 O   0  0  0  0  0  0  0  0  0  0  0  0
    9.4941  -17.9237   26.9421 O   0  0  0  0  0  0  0  0  0  0  0  0
  2  1  1  1
  2  3  1  0
  3  4  1  0
  4  5  1  0
  5  6  1  0
  7  6  1  0
  8  9  2  0
  8  2  1  0
 11 10  1  0
 11 12  1  0
 12 13  1  0
 14 13  1  1
 14 15  1  0
 15  8  1  0
 16 18  1  0
 16 14  1  0
 17 16  2  0
 19 18  1  0
 19 26  1  0
 19 20  1  1
 21 20  1  0
 22 21  2  0
 23 24  1  0
 23 22  1  0
 24 25  2  0
 25 21  1  0
 26 28  2  0
 26 27  1  0
M  END
$$$$
