KMH.pdb
     RDKit          3D

 28 28  0  0  1  0  0  0  0  0999 V2000
    8.6512  -16.6962   20.0623 N   0  0  0  0  0  0  0  0  0  0  0  0
    7.9378  -16.8546   21.2954 C   0  0  1  0  0  0  0  0  0  0  0  0
    7.6771  -18.2902   21.6438 C   0  0  0  0  0  0  0  0  0  0  0  0
    7.6420  -19.2009   20.4784 C   0  0  0  0  0  0  0  0  0  0  0  0
    8.6020  -20.3407   20.5372 C   0  0  0  0  0  0  0  0  0  0  0  0
    8.4277  -21.2639   19.3195 C   0  0  0  0  0  0  0  0  0  0  0  0
    9.3399  -22.3699   19.4993 N   0  0  0  0  0  0  0  0  0  0  0  0
    8.5961  -16.1408   22.4364 C   0  0  0  0  0  0  0  0  0  0  0  0
    9.8521  -16.1120   22.5128 O   0  0  0  0  0  0  0  0  0  0  0  0
    5.8874  -11.2292   25.9019 C   0  0  0  0  0  0  0  0  0  0  0  0
    6.7681  -12.1212   27.1848 S   0  0  0  0  0  0  0  0  0  0  0  0
    8.0412  -13.2580   26.4794 C   0  0  0  0  0  0  0  0  0  0  0  0
    7.4732  -13.9682   25.2822 C   0  0  0  0  0  0  0  0  0  0  0  0
    8.5145  -14.8384   24.5513 C   0  0  2  0  0  0  0  0  0  0  0  0
    7.8210  -15.4955   23.4290 N   0  0  0  0  0  0  0  0  0  0  0  0
    9.0449  -15.8011   25.4963 C   0  0  0  0  0  0  0  0  0  0  0  0
    8.3274  -16.8316   25.7717 O   0  0  0  0  0  0  0  0  0  0  0  0
   10.2719  -15.7554   26.1679 N   0  0  0  0  0  0  0  0  0  0  0  0
   10.6785  -16.8554   27.0656 C   0  0  1  0  0  0  0  0  0  0  0  0
   12.0743  -17.3087   26.6991 C   0  0  0  0  0  0  0  0  0  0  0  0
   12.0002  -18.2447   25.5602 C   0  0  0  0  0  0  0  0  0  0  0  0
   10.9001  -18.7338   24.9008 C   0  0  0  0  0  0  0  0  0  0  0  0
   11.2969  -19.5989   23.9227 N   0  0  0  0  0  0  0  0  0  0  0  0
   12.6321  -19.6505   23.9709 C   0  0  0  0  0  0  0  0  0  0  0  0
   13.0608  -18.8435   24.9475 N   0  0  0  0  0  0  0  0  0  0  0  0
   10.6894  -16.2945   28.4239 C   0  0  0  0  0  0  0  0  0  0  0  0
   10.9790  -17.0740   29.5246 O   0  0  0  0  0  0  0  0  0  0  0  0
   10.4305  -15.0889   28.5978 O   0  0  0  0  0  0  0  0  0  0  0  0
  2  1  1  6
  2  3  1  0
  3  4  1  0
  4  5  1  0
  5  6  1  0
  7  6  1  0
  8  9  2  0
  8  2  1  0
 11 10  1  0
 11 12  1  0
 12 13  1  0
 14 13  1  1
 14 15  1  0
 15  8  1  0
 16 18  1  0
 16 14  1  0
 17 16  2  0
 19 18  1  0
 19 26  1  0
 19 20  1  6
 21 20  1  0
 22 21  2  0
 23 24  1  0
 23 22  1  0
 24 25  2  0
 25 21  1  0
 26 28  2  0
 26 27  1  0
M  END
$$$$
