KMH.pdb
     RDKit          3D

 28 28  0  0  1  0  0  0  0  0999 V2000
   10.5517  -16.6227   20.2937 N   0  0  0  0  0  0  0  0  0  0  0  0
    9.4103  -16.8878   21.1192 C   0  0  1  0  0  0  0  0  0  0  0  0
    9.1436  -18.3527   21.3013 C   0  0  0  0  0  0  0  0  0  0  0  0
    8.9835  -19.1023   20.0358 C   0  0  0  0  0  0  0  0  0  0  0  0
    8.6477  -20.5467   20.1945 C   0  0  0  0  0  0  0  0  0  0  0  0
    8.4715  -21.2195   18.8227 C   0  0  0  0  0  0  0  0  0  0  0  0
    8.2906  -22.6316   19.0696 N   0  0  0  0  0  0  0  0  0  0  0  0
    9.4842  -16.1914   22.4437 C   0  0  0  0  0  0  0  0  0  0  0  0
   10.5639  -16.1943   23.0906 O   0  0  0  0  0  0  0  0  0  0  0  0
    5.8029  -10.9944   27.2399 C   0  0  0  0  0  0  0  0  0  0  0  0
    5.8030  -12.0190   25.7677 S   0  0  0  0  0  0  0  0  0  0  0  0
    7.2747  -13.1333   25.7077 C   0  0  0  0  0  0  0  0  0  0  0  0
    7.2670  -13.9074   24.4189 C   0  0  0  0  0  0  0  0  0  0  0  0
    8.4792  -14.8490   24.2777 C   0  0  2  0  0  0  0  0  0  0  0  0
    8.3534  -15.5270   22.9752 N   0  0  0  0  0  0  0  0  0  0  0  0
    8.4542  -15.7893   25.3805 C   0  0  0  0  0  0  0  0  0  0  0  0
    7.8136  -16.8916   25.2166 O   0  0  0  0  0  0  0  0  0  0  0  0
    9.0538  -15.6511   26.6375 N   0  0  0  0  0  0  0  0  0  0  0  0
    9.7486  -16.7917   27.2679 C   0  0  1  0  0  0  0  0  0  0  0  0
   10.9160  -17.2066   26.4001 C   0  0  0  0  0  0  0  0  0  0  0  0
   11.7012  -18.2418   27.1005 C   0  0  0  0  0  0  0  0  0  0  0  0
   11.6959  -18.5947   28.4270 C   0  0  0  0  0  0  0  0  0  0  0  0
   12.6058  -19.5888   28.6422 N   0  0  0  0  0  0  0  0  0  0  0  0
   13.1748  -19.8541   27.4616 C   0  0  0  0  0  0  0  0  0  0  0  0
   12.6395  -19.0528   26.5342 N   0  0  0  0  0  0  0  0  0  0  0  0
   10.2513  -16.3036   28.5597 C   0  0  0  0  0  0  0  0  0  0  0  0
   10.0523  -15.0005   28.9662 O   0  0  0  0  0  0  0  0  0  0  0  0
   10.8751  -17.0750   29.3125 O   0  0  0  0  0  0  0  0  0  0  0  0
  2  1  1  1
  2  3  1  0
  3  4  1  0
  4  5  1  0
  5  6  1  0
  7  6  1  0
  8  9  2  0
  8  2  1  0
 11 10  1  0
 11 12  1  0
 12 13  1  0
 14 13  1  1
 14 15  1  0
 15  8  1  0
 16 18  1  0
 16 14  1  0
 17 16  2  0
 19 18  1  0
 19 26  1  0
 19 20  1  6
 21 20  1  0
 22 21  2  0
 23 24  1  0
 23 22  1  0
 24 25  2  0
 25 21  1  0
 26 28  2  0
 26 27  1  0
M  END
$$$$
