KMH.pdb
     RDKit          3D

 28 28  0  0  1  0  0  0  0  0999 V2000
    9.3369  -15.5517   19.0922 N   0  0  0  0  0  0  0  0  0  0  0  0
    8.6072  -16.2769   20.0904 C   0  0  1  0  0  0  0  0  0  0  0  0
    8.6955  -17.7646   19.9187 C   0  0  0  0  0  0  0  0  0  0  0  0
    7.9321  -18.5378   20.9228 C   0  0  0  0  0  0  0  0  0  0  0  0
    7.9415  -20.0158   20.7238 C   0  0  0  0  0  0  0  0  0  0  0  0
    7.0216  -20.7091   21.7429 C   0  0  0  0  0  0  0  0  0  0  0  0
    7.1977  -22.1321   21.5649 N   0  0  0  0  0  0  0  0  0  0  0  0
    8.9874  -15.8783   21.4837 C   0  0  0  0  0  0  0  0  0  0  0  0
   10.1881  -15.9636   21.8513 O   0  0  0  0  0  0  0  0  0  0  0  0
    6.8200  -11.2934   27.5765 C   0  0  0  0  0  0  0  0  0  0  0  0
    6.3953  -12.1659   26.0680 S   0  0  0  0  0  0  0  0  0  0  0  0
    7.7260  -13.3404   25.5571 C   0  0  0  0  0  0  0  0  0  0  0  0
    7.3870  -13.9324   24.2173 C   0  0  0  0  0  0  0  0  0  0  0  0
    8.4486  -14.9319   23.7175 C   0  0  2  0  0  0  0  0  0  0  0  0
    8.0110  -15.4037   22.3916 N   0  0  0  0  0  0  0  0  0  0  0  0
    8.5365  -16.0168   24.6747 C   0  0  0  0  0  0  0  0  0  0  0  0
    8.0325  -17.1524   24.3446 O   0  0  0  0  0  0  0  0  0  0  0  0
    9.1154  -15.9903   25.9486 N   0  0  0  0  0  0  0  0  0  0  0  0
   10.1273  -16.9941   26.3351 C   0  0  1  0  0  0  0  0  0  0  0  0
   11.3713  -16.7972   25.4973 C   0  0  0  0  0  0  0  0  0  0  0  0
   11.4877  -17.9048   24.5286 C   0  0  0  0  0  0  0  0  0  0  0  0
   10.6868  -19.0068   24.3604 C   0  0  0  0  0  0  0  0  0  0  0  0
   11.1855  -19.7896   23.3599 N   0  0  0  0  0  0  0  0  0  0  0  0
   12.2880  -19.1829   22.9077 C   0  0  0  0  0  0  0  0  0  0  0  0
   12.4758  -18.0549   23.6013 N   0  0  0  0  0  0  0  0  0  0  0  0
   10.4446  -16.7354   27.7465 C   0  0  0  0  0  0  0  0  0  0  0  0
   10.7798  -17.7574   28.6103 O   0  0  0  0  0  0  0  0  0  0  0  0
   10.4112  -15.5703   28.1849 O   0  0  0  0  0  0  0  0  0  0  0  0
  2  1  1  6
  2  3  1  0
  3  4  1  0
  4  5  1  0
  5  6  1  0
  7  6  1  0
  8  9  2  0
  8  2  1  0
 11 10  1  0
 11 12  1  0
 12 13  1  0
 14 13  1  1
 14 15  1  0
 15  8  1  0
 16 18  1  0
 16 14  1  0
 17 16  2  0
 19 18  1  0
 19 26  1  0
 19 20  1  6
 21 20  1  0
 22 21  2  0
 23 24  1  0
 23 22  1  0
 24 25  2  0
 25 21  1  0
 26 28  2  0
 26 27  1  0
M  END
$$$$
