KMH.pdb
     RDKit          3D

 28 28  0  0  1  0  0  0  0  0999 V2000
    7.0579  -17.1014   20.7751 N   0  0  0  0  0  0  0  0  0  0  0  0
    7.8908  -15.9921   21.1361 C   0  0  1  0  0  0  0  0  0  0  0  0
    7.6236  -14.7646   20.3161 C   0  0  0  0  0  0  0  0  0  0  0  0
    8.2207  -14.7970   18.9628 C   0  0  0  0  0  0  0  0  0  0  0  0
    7.8979  -13.6236   18.1009 C   0  0  0  0  0  0  0  0  0  0  0  0
    8.4955  -13.7991   16.6946 C   0  0  0  0  0  0  0  0  0  0  0  0
    8.0249  -12.6889   15.8987 N   0  0  0  0  0  0  0  0  0  0  0  0
    7.8284  -15.6785   22.5999 C   0  0  0  0  0  0  0  0  0  0  0  0
    6.9272  -16.1951   23.3106 O   0  0  0  0  0  0  0  0  0  0  0  0
    6.9255  -11.1878   27.9028 C   0  0  0  0  0  0  0  0  0  0  0  0
    6.1575  -12.4480   26.8835 S   0  0  0  0  0  0  0  0  0  0  0  0
    7.3047  -13.8575   26.5548 C   0  0  0  0  0  0  0  0  0  0  0  0
    7.4255  -14.0723   25.0717 C   0  0  0  0  0  0  0  0  0  0  0  0
    8.7845  -14.6725   24.6613 C   0  0  2  0  0  0  0  0  0  0  0  0
    8.7739  -14.8092   23.1938 N   0  0  0  0  0  0  0  0  0  0  0  0
    8.9326  -15.9542   25.3219 C   0  0  0  0  0  0  0  0  0  0  0  0
    7.8645  -16.5716   25.6830 O   0  0  0  0  0  0  0  0  0  0  0  0
   10.1205  -16.6282   25.6272 N   0  0  0  0  0  0  0  0  0  0  0  0
   10.0969  -17.8634   26.4363 C   0  0  1  0  0  0  0  0  0  0  0  0
   11.2406  -18.7588   26.0140 C   0  0  0  0  0  0  0  0  0  0  0  0
   11.0810  -19.1157   24.5906 C   0  0  0  0  0  0  0  0  0  0  0  0
    9.9792  -19.0040   23.7796 C   0  0  0  0  0  0  0  0  0  0  0  0
   10.2729  -19.4829   22.5359 N   0  0  0  0  0  0  0  0  0  0  0  0
   11.5459  -19.8907   22.5696 C   0  0  0  0  0  0  0  0  0  0  0  0
   12.0366  -19.6747   23.7949 N   0  0  0  0  0  0  0  0  0  0  0  0
   10.2954  -17.4449   27.8310 C   0  0  0  0  0  0  0  0  0  0  0  0
   10.2572  -18.3521   28.8695 O   0  0  0  0  0  0  0  0  0  0  0  0
   10.5015  -16.2452   28.0938 O   0  0  0  0  0  0  0  0  0  0  0  0
  2  1  1  1
  2  3  1  0
  3  4  1  0
  4  5  1  0
  5  6  1  0
  7  6  1  0
  8  9  2  0
  8  2  1  0
 11 10  1  0
 11 12  1  0
 12 13  1  0
 14 13  1  1
 14 15  1  0
 15  8  1  0
 16 18  1  0
 16 14  1  0
 17 16  2  0
 19 18  1  0
 19 26  1  0
 19 20  1  6
 21 20  1  0
 22 21  2  0
 23 24  1  0
 23 22  1  0
 24 25  2  0
 25 21  1  0
 26 28  2  0
 26 27  1  0
M  END
$$$$
