IPT.pdb
     RDKit          3D

 23 23  0  0  1  0  0  0  0  0999 V2000
   13.8825  -10.1231   -9.5075 C   0  0  0  0  0  0  0  0  0  0  0  0
   13.7750  -10.1100  -11.0177 C   0  0  0  0  0  0  0  0  0  0  0  0
   15.0442   -9.5490  -11.5929 C   0  0  2  0  0  0  0  0  0  0  0  0
   15.2793   -8.1472  -11.0758 C   0  0  0  0  0  0  0  0  0  0  0  0
   15.0575   -9.5812  -13.1051 C   0  0  2  0  0  0  0  0  0  0  0  0
   14.7606  -10.8564  -13.6501 N   0  0  0  0  0  0  0  0  0  0  0  0
   16.2738   -8.9481  -13.6603 C   0  0  0  0  0  0  0  0  0  0  0  0
   17.3568   -9.5566  -13.4272 O   0  0  0  0  0  0  0  0  0  0  0  0
   16.2819   -7.7287  -14.4169 N   0  0  0  0  0  0  0  0  0  0  0  0
   15.0230   -7.1470  -14.8573 C   0  0  0  0  0  0  0  0  0  0  0  0
   15.4107   -5.9741  -15.7427 C   0  0  0  0  0  0  0  0  0  0  0  0
   16.6839   -5.5451  -15.0602 C   0  0  0  0  0  0  0  0  0  0  0  0
   17.3477   -6.9161  -14.8575 C   0  0  1  0  0  0  0  0  0  0  0  0
   18.5080   -6.7825  -13.9533 C   0  0  0  0  0  0  0  0  0  0  0  0
   18.3234   -6.6839  -12.7245 O   0  0  0  0  0  0  0  0  0  0  0  0
   21.5958   -8.9468  -13.7034 C   0  0  0  0  0  0  0  0  0  0  0  0
   22.1177   -7.5281  -13.8834 C   0  0  1  0  0  0  0  0  0  0  0  0
   22.4842   -7.3876  -15.2206 O   0  0  0  0  0  0  0  0  0  0  0  0
   20.9859   -6.5903  -13.5308 C   0  0  2  0  0  0  0  0  0  0  0  0
   19.8503   -6.7599  -14.4189 N   0  0  0  0  0  0  0  0  0  0  0  0
   21.4562   -5.1922  -13.4986 C   0  0  0  0  0  0  0  0  0  0  0  0
   21.1088   -4.3378  -14.3486 O   0  0  0  0  0  0  0  0  0  0  0  0
   22.3211   -4.7831  -12.4926 O   0  0  0  0  0  0  0  0  0  0  0  0
  2  1  1  0
  3  4  1  6
  3  2  1  0
  5  6  1  1
  5  3  1  0
  7  8  2  0
  7  5  1  0
  9  7  1  0
 10  9  1  0
 10 11  1  0
 12 13  1  0
 12 11  1  0
 13  9  1  0
 13 14  1  1
 15 14  2  0
 17 16  1  6
 18 17  1  0
 19 17  1  0
 19 20  1  6
 20 14  1  0
 21 23  1  0
 21 19  1  0
 22 21  2  0
M  END
$$$$
