IPT.pdb
     RDKit          3D

 23 23  0  0  1  0  0  0  0  0999 V2000
   20.6317  -11.0841  -22.1953 C   0  0  0  0  0  0  0  0  0  0  0  0
   21.1927  -11.8904  -21.0431 C   0  0  0  0  0  0  0  0  0  0  0  0
   21.4085  -10.9792  -19.8685 C   0  0  2  0  0  0  0  0  0  0  0  0
   22.5148   -9.9920  -20.1671 C   0  0  0  0  0  0  0  0  0  0  0  0
   21.6866  -11.7391  -18.5906 C   0  0  2  0  0  0  0  0  0  0  0  0
   20.8087  -12.8318  -18.3752 N   0  0  0  0  0  0  0  0  0  0  0  0
   21.8305  -10.8335  -17.4297 C   0  0  0  0  0  0  0  0  0  0  0  0
   20.8279  -10.1044  -17.1829 O   0  0  0  0  0  0  0  0  0  0  0  0
   23.0034  -10.7466  -16.6073 N   0  0  0  0  0  0  0  0  0  0  0  0
   24.0017  -11.8036  -16.6644 C   0  0  0  0  0  0  0  0  0  0  0  0
   25.0055  -11.4668  -15.5740 C   0  0  0  0  0  0  0  0  0  0  0  0
   24.9396   -9.9620  -15.6182 C   0  0  0  0  0  0  0  0  0  0  0  0
   23.4165   -9.7677  -15.6792 C   0  0  1  0  0  0  0  0  0  0  0  0
   23.1031   -8.3611  -16.0030 C   0  0  0  0  0  0  0  0  0  0  0  0
   23.4493   -7.8905  -17.1042 O   0  0  0  0  0  0  0  0  0  0  0  0
   20.5921   -6.4013  -17.0870 C   0  0  0  0  0  0  0  0  0  0  0  0
   20.8613   -5.7133  -15.7560 C   0  0  1  0  0  0  0  0  0  0  0  0
   19.9338   -6.2058  -14.8397 O   0  0  0  0  0  0  0  0  0  0  0  0
   22.2709   -6.0739  -15.3465 C   0  0  2  0  0  0  0  0  0  0  0  0
   22.4142   -7.4986  -15.1085 N   0  0  0  0  0  0  0  0  0  0  0  0
   22.6974   -5.2750  -14.1816 C   0  0  0  0  0  0  0  0  0  0  0  0
   22.9005   -5.7767  -13.0502 O   0  0  0  0  0  0  0  0  0  0  0  0
   22.8881   -3.9070  -14.3216 O   0  0  0  0  0  0  0  0  0  0  0  0
  2  1  1  0
  3  4  1  6
  3  2  1  0
  5  6  1  1
  5  3  1  0
  7  8  2  0
  7  5  1  0
  9  7  1  0
 10  9  1  0
 10 11  1  0
 12 13  1  0
 12 11  1  0
 13  9  1  0
 13 14  1  6
 15 14  2  0
 17 16  1  6
 18 17  1  0
 19 17  1  0
 19 20  1  1
 20 14  1  0
 21 23  1  0
 21 19  1  0
 22 21  2  0
M  END
$$$$
