IPT.pdb
     RDKit          3D

 23 23  0  0  1  0  0  0  0  0999 V2000
   18.8677  -15.4952  -19.8582 C   0  0  0  0  0  0  0  0  0  0  0  0
   19.9921  -15.5840  -18.8480 C   0  0  0  0  0  0  0  0  0  0  0  0
   20.0236  -14.3183  -18.0396 C   0  0  2  0  0  0  0  0  0  0  0  0
   20.4163  -13.1478  -18.9134 C   0  0  0  0  0  0  0  0  0  0  0  0
   20.9292  -14.4253  -16.8328 C   0  0  2  0  0  0  0  0  0  0  0  0
   20.7461  -15.6178  -16.0875 N   0  0  0  0  0  0  0  0  0  0  0  0
   20.9150  -13.1891  -16.0204 C   0  0  0  0  0  0  0  0  0  0  0  0
   19.7742  -12.6804  -15.8266 O   0  0  0  0  0  0  0  0  0  0  0  0
   22.0838  -12.5670  -15.4669 N   0  0  0  0  0  0  0  0  0  0  0  0
   23.3407  -13.2993  -15.4332 C   0  0  0  0  0  0  0  0  0  0  0  0
   24.3010  -12.4128  -14.6574 C   0  0  0  0  0  0  0  0  0  0  0  0
   23.7864  -11.0562  -15.0646 C   0  0  0  0  0  0  0  0  0  0  0  0
   22.2762  -11.2888  -14.9017 C   0  0  1  0  0  0  0  0  0  0  0  0
   21.5282  -10.1679  -15.5067 C   0  0  0  0  0  0  0  0  0  0  0  0
   21.3879  -10.1176  -16.7443 O   0  0  0  0  0  0  0  0  0  0  0  0
   18.2358   -6.6326  -15.4663 C   0  0  0  0  0  0  0  0  0  0  0  0
   18.8769   -7.8093  -14.7438 C   0  0  1  0  0  0  0  0  0  0  0  0
   18.0742   -8.9249  -14.9751 O   0  0  0  0  0  0  0  0  0  0  0  0
   20.2532   -7.9997  -15.3389 C   0  0  2  0  0  0  0  0  0  0  0  0
   20.9484   -9.1232  -14.7378 N   0  0  0  0  0  0  0  0  0  0  0  0
   21.0385   -6.7538  -15.2492 C   0  0  0  0  0  0  0  0  0  0  0  0
   21.6490   -6.4078  -14.2097 O   0  0  0  0  0  0  0  0  0  0  0  0
   21.1186   -5.9134  -16.3513 O   0  0  0  0  0  0  0  0  0  0  0  0
  2  1  1  0
  3  4  1  6
  3  2  1  0
  5  6  1  1
  5  3  1  0
  7  8  2  0
  7  5  1  0
  9  7  1  0
 10  9  1  0
 10 11  1  0
 12 13  1  0
 12 11  1  0
 13  9  1  0
 13 14  1  6
 15 14  2  0
 17 16  1  6
 18 17  1  0
 19 17  1  0
 19 20  1  1
 20 14  1  0
 21 23  1  0
 21 19  1  0
 22 21  2  0
M  END
$$$$
