IPT.pdb
     RDKit          3D

 23 23  0  0  1  0  0  0  0  0999 V2000
   19.1966  -14.9143  -19.9637 C   0  0  0  0  0  0  0  0  0  0  0  0
   20.1699  -14.9786  -18.8057 C   0  0  0  0  0  0  0  0  0  0  0  0
   20.1025  -13.6888  -18.0386 C   0  0  2  0  0  0  0  0  0  0  0  0
   20.5449  -12.5358  -18.9119 C   0  0  0  0  0  0  0  0  0  0  0  0
   20.9006  -13.7371  -16.7546 C   0  0  2  0  0  0  0  0  0  0  0  0
   20.7345  -14.9424  -16.0260 N   0  0  0  0  0  0  0  0  0  0  0  0
   20.7268  -12.5082  -15.9498 C   0  0  0  0  0  0  0  0  0  0  0  0
   19.5388  -12.0882  -15.8504 O   0  0  0  0  0  0  0  0  0  0  0  0
   21.7964  -11.8007  -15.3056 N   0  0  0  0  0  0  0  0  0  0  0  0
   23.0950  -12.4401  -15.1573 C   0  0  0  0  0  0  0  0  0  0  0  0
   23.9194  -11.4830  -14.3121 C   0  0  0  0  0  0  0  0  0  0  0  0
   23.3457  -10.1690  -14.7760 C   0  0  0  0  0  0  0  0  0  0  0  0
   21.8477  -10.5094  -14.7398 C   0  0  1  0  0  0  0  0  0  0  0  0
   21.0760   -9.4482  -15.4181 C   0  0  0  0  0  0  0  0  0  0  0  0
   21.0730   -9.3888  -16.6633 O   0  0  0  0  0  0  0  0  0  0  0  0
   17.6818   -5.9247  -15.5069 C   0  0  0  0  0  0  0  0  0  0  0  0
   18.3349   -7.0334  -14.6935 C   0  0  1  0  0  0  0  0  0  0  0  0
   17.4637   -8.1212  -14.7008 O   0  0  0  0  0  0  0  0  0  0  0  0
   19.6375   -7.3784  -15.3782 C   0  0  2  0  0  0  0  0  0  0  0  0
   20.3217   -8.4722  -14.7130 N   0  0  0  0  0  0  0  0  0  0  0  0
   20.4960   -6.1846  -15.5005 C   0  0  0  0  0  0  0  0  0  0  0  0
   21.2596   -5.7989  -14.5833 O   0  0  0  0  0  0  0  0  0  0  0  0
   20.4734   -5.4414  -16.6729 O   0  0  0  0  0  0  0  0  0  0  0  0
  2  1  1  0
  3  4  1  6
  3  2  1  0
  5  6  1  1
  5  3  1  0
  7  8  2  0
  7  5  1  0
  9  7  1  0
 10  9  1  0
 10 11  1  0
 12 13  1  0
 12 11  1  0
 13  9  1  0
 13 14  1  6
 15 14  2  0
 17 16  1  6
 18 17  1  0
 19 17  1  0
 19 20  1  1
 20 14  1  0
 21 23  1  0
 21 19  1  0
 22 21  2  0
M  END
$$$$
