IPT.pdb
     RDKit          3D

 23 23  0  0  1  0  0  0  0  0999 V2000
   16.7613  -11.5968  -19.3499 C   0  0  0  0  0  0  0  0  0  0  0  0
   17.8690  -12.2047  -18.5157 C   0  0  0  0  0  0  0  0  0  0  0  0
   18.5071  -11.1246  -17.6893 C   0  0  2  0  0  0  0  0  0  0  0  0
   19.2481  -10.1520  -18.5797 C   0  0  0  0  0  0  0  0  0  0  0  0
   19.4150  -11.6794  -16.6142 C   0  0  2  0  0  0  0  0  0  0  0  0
   18.8661  -12.7888  -15.9220 N   0  0  0  0  0  0  0  0  0  0  0  0
   19.9464  -10.6139  -15.7362 C   0  0  0  0  0  0  0  0  0  0  0  0
   19.0897   -9.7941  -15.2985 O   0  0  0  0  0  0  0  0  0  0  0  0
   21.3280  -10.4727  -15.3746 N   0  0  0  0  0  0  0  0  0  0  0  0
   22.2507  -11.5716  -15.6164 C   0  0  0  0  0  0  0  0  0  0  0  0
   23.5632  -11.1403  -14.9829 C   0  0  0  0  0  0  0  0  0  0  0  0
   23.4829   -9.6526  -15.2097 C   0  0  0  0  0  0  0  0  0  0  0  0
   22.0283   -9.4004  -14.7831 C   0  0  1  0  0  0  0  0  0  0  0  0
   21.6208   -8.0355  -15.1740 C   0  0  0  0  0  0  0  0  0  0  0  0
   21.4390   -7.7678  -16.3778 O   0  0  0  0  0  0  0  0  0  0  0  0
   18.8655   -5.8923  -15.1081 C   0  0  0  0  0  0  0  0  0  0  0  0
   19.8601   -5.0983  -14.2727 C   0  0  1  0  0  0  0  0  0  0  0  0
   19.5650   -5.3434  -12.9329 O   0  0  0  0  0  0  0  0  0  0  0  0
   21.2401   -5.6048  -14.6246 C   0  0  2  0  0  0  0  0  0  0  0  0
   21.4207   -6.9906  -14.2322 N   0  0  0  0  0  0  0  0  0  0  0  0
   22.2802   -4.7297  -14.0509 C   0  0  0  0  0  0  0  0  0  0  0  0
   23.0646   -5.1069  -13.1478 O   0  0  0  0  0  0  0  0  0  0  0  0
   22.4142   -3.4285  -14.5160 O   0  0  0  0  0  0  0  0  0  0  0  0
  2  1  1  0
  3  4  1  6
  3  2  1  0
  5  6  1  1
  5  3  1  0
  7  8  2  0
  7  5  1  0
  9  7  1  0
 10  9  1  0
 10 11  1  0
 12 13  1  0
 12 11  1  0
 13  9  1  0
 13 14  1  6
 15 14  2  0
 17 16  1  6
 18 17  1  0
 19 17  1  0
 19 20  1  1
 20 14  1  0
 21 23  1  0
 21 19  1  0
 22 21  2  0
M  END
$$$$
