IPT.pdb
     RDKit          3D

 23 23  0  0  1  0  0  0  0  0999 V2000
   18.5727  -24.9209   -7.6762 C   0  0  0  0  0  0  0  0  0  0  0  0
   18.2635  -26.2057   -6.9372 C   0  0  0  0  0  0  0  0  0  0  0  0
   17.5258  -25.8756   -5.6709 C   0  0  2  0  0  0  0  0  0  0  0  0
   18.3725  -24.9864   -4.7877 C   0  0  0  0  0  0  0  0  0  0  0  0
   17.0739  -27.1119   -4.9259 C   0  0  2  0  0  0  0  0  0  0  0  0
   16.4396  -28.0745   -5.7520 N   0  0  0  0  0  0  0  0  0  0  0  0
   16.3236  -26.7728   -3.6969 C   0  0  0  0  0  0  0  0  0  0  0  0
   15.3741  -25.9526   -3.8499 O   0  0  0  0  0  0  0  0  0  0  0  0
   16.6109  -27.3066   -2.3962 N   0  0  0  0  0  0  0  0  0  0  0  0
   17.5021  -28.4497   -2.2686 C   0  0  0  0  0  0  0  0  0  0  0  0
   17.4555  -28.8328   -0.7986 C   0  0  0  0  0  0  0  0  0  0  0  0
   17.2574  -27.4717   -0.1830 C   0  0  0  0  0  0  0  0  0  0  0  0
   16.1674  -26.9187   -1.1143 C   0  0  1  0  0  0  0  0  0  0  0  0
   15.9900  -25.4720   -0.8748 C   0  0  0  0  0  0  0  0  0  0  0  0
   16.8032  -24.6625   -1.3619 O   0  0  0  0  0  0  0  0  0  0  0  0
   13.4047  -21.5782    0.5550 C   0  0  0  0  0  0  0  0  0  0  0  0
   13.3889  -23.0915    0.3904 C   0  0  1  0  0  0  0  0  0  0  0  0
   12.6607  -23.3755   -0.7635 O   0  0  0  0  0  0  0  0  0  0  0  0
   14.8259  -23.5379    0.2473 C   0  0  2  0  0  0  0  0  0  0  0  0
   14.9203  -24.9432   -0.1035 N   0  0  0  0  0  0  0  0  0  0  0  0
   15.5955  -23.2212    1.4657 C   0  0  0  0  0  0  0  0  0  0  0  0
   15.5946  -23.9570    2.4814 O   0  0  0  0  0  0  0  0  0  0  0  0
   16.3605  -22.0636    1.5115 O   0  0  0  0  0  0  0  0  0  0  0  0
  2  1  1  0
  3  4  1  1
  3  2  1  0
  5  6  1  6
  5  3  1  0
  7  8  2  0
  7  5  1  0
  9  7  1  0
 10  9  1  0
 10 11  1  0
 12 13  1  0
 12 11  1  0
 13  9  1  0
 13 14  1  6
 15 14  2  0
 17 16  1  6
 18 17  1  0
 19 17  1  0
 19 20  1  1
 20 14  1  0
 21 23  1  0
 21 19  1  0
 22 21  2  0
M  END
$$$$
