IPT.pdb
     RDKit          3D

 23 23  0  0  1  0  0  0  0  0999 V2000
   22.0534  -32.5079   -9.5353 C   0  0  0  0  0  0  0  0  0  0  0  0
   23.5399  -32.3141   -9.3228 C   0  0  0  0  0  0  0  0  0  0  0  0
   24.0064  -33.2540   -8.2477 C   0  0  2  0  0  0  0  0  0  0  0  0
   23.2939  -32.9574   -6.9469 C   0  0  0  0  0  0  0  0  0  0  0  0
   25.5076  -33.2249   -8.0656 C   0  0  2  0  0  0  0  0  0  0  0  0
   26.2311  -33.3727   -9.2764 N   0  0  0  0  0  0  0  0  0  0  0  0
   25.9494  -34.1236   -6.9768 C   0  0  0  0  0  0  0  0  0  0  0  0
   25.5719  -35.3256   -7.0788 O   0  0  0  0  0  0  0  0  0  0  0  0
   26.7502  -33.7132   -5.8589 N   0  0  0  0  0  0  0  0  0  0  0  0
   27.3250  -32.3767   -5.8381 C   0  0  0  0  0  0  0  0  0  0  0  0
   28.2180  -32.3430   -4.6087 C   0  0  0  0  0  0  0  0  0  0  0  0
   27.4413  -33.2606   -3.7000 C   0  0  0  0  0  0  0  0  0  0  0  0
   27.1251  -34.3979   -4.6838 C   0  0  1  0  0  0  0  0  0  0  0  0
   26.1261  -35.3103   -4.0909 C   0  0  0  0  0  0  0  0  0  0  0  0
   24.9119  -35.0521   -4.2045 O   0  0  0  0  0  0  0  0  0  0  0  0
   25.7330  -39.1193   -4.4138 C   0  0  0  0  0  0  0  0  0  0  0  0
   25.8397  -38.8129   -2.9265 C   0  0  1  0  0  0  0  0  0  0  0  0
   27.1545  -39.0713   -2.5432 O   0  0  0  0  0  0  0  0  0  0  0  0
   25.5013  -37.3506   -2.7486 C   0  0  2  0  0  0  0  0  0  0  0  0
   26.4825  -36.4902   -3.3841 N   0  0  0  0  0  0  0  0  0  0  0  0
   25.3253  -37.0246   -1.3204 C   0  0  0  0  0  0  0  0  0  0  0  0
   26.1115  -36.2767   -0.6914 O   0  0  0  0  0  0  0  0  0  0  0  0
   24.2497  -37.5579   -0.6232 O   0  0  0  0  0  0  0  0  0  0  0  0
  2  1  1  0
  3  4  1  1
  3  2  1  0
  5  6  1  6
  5  3  1  0
  7  8  2  0
  7  5  1  0
  9  7  1  0
 10  9  1  0
 10 11  1  0
 12 13  1  0
 12 11  1  0
 13  9  1  0
 13 14  1  1
 15 14  2  0
 17 16  1  6
 18 17  1  0
 19 17  1  0
 19 20  1  1
 20 14  1  0
 21 23  1  0
 21 19  1  0
 22 21  2  0
M  END
$$$$
