IPT.pdb
     RDKit          3D

 23 23  0  0  1  0  0  0  0  0999 V2000
   21.0030  -21.2387  -10.7186 C   0  0  0  0  0  0  0  0  0  0  0  0
   22.4322  -21.4220  -10.2538 C   0  0  0  0  0  0  0  0  0  0  0  0
   23.3494  -20.6963  -11.1966 C   0  0  2  0  0  0  0  0  0  0  0  0
   23.1920  -21.2362  -12.6007 C   0  0  0  0  0  0  0  0  0  0  0  0
   24.7942  -20.7477  -10.7519 C   0  0  2  0  0  0  0  0  0  0  0  0
   24.9666  -20.5751   -9.3549 N   0  0  0  0  0  0  0  0  0  0  0  0
   25.6595  -19.8843  -11.5852 C   0  0  0  0  0  0  0  0  0  0  0  0
   25.4038  -18.6476  -11.5325 O   0  0  0  0  0  0  0  0  0  0  0  0
   26.7280  -20.3635  -12.4148 N   0  0  0  0  0  0  0  0  0  0  0  0
   27.3265  -21.6607  -12.1388 C   0  0  0  0  0  0  0  0  0  0  0  0
   28.5017  -21.7723  -13.0961 C   0  0  0  0  0  0  0  0  0  0  0  0
   27.9545  -20.9992  -14.2681 C   0  0  0  0  0  0  0  0  0  0  0  0
   27.3684  -19.7850  -13.5309 C   0  0  1  0  0  0  0  0  0  0  0  0
   26.5265  -18.9966  -14.4536 C   0  0  0  0  0  0  0  0  0  0  0  0
   25.3822  -19.3995  -14.7401 O   0  0  0  0  0  0  0  0  0  0  0  0
   25.3911  -14.8304  -16.7573 C   0  0  0  0  0  0  0  0  0  0  0  0
   26.3120  -15.5254  -15.7641 C   0  0  1  0  0  0  0  0  0  0  0  0
   25.9113  -15.1388  -14.4865 O   0  0  0  0  0  0  0  0  0  0  0  0
   26.1345  -17.0136  -15.9600 C   0  0  2  0  0  0  0  0  0  0  0  0
   26.9602  -17.7791  -15.0438 N   0  0  0  0  0  0  0  0  0  0  0  0
   26.3784  -17.3886  -17.3660 C   0  0  0  0  0  0  0  0  0  0  0  0
   27.5299  -17.4977  -17.8512 O   0  0  0  0  0  0  0  0  0  0  0  0
   25.3011  -17.6359  -18.2061 O   0  0  0  0  0  0  0  0  0  0  0  0
  2  1  1  0
  3  4  1  6
  3  2  1  0
  5  6  1  1
  5  3  1  0
  7  8  2  0
  7  5  1  0
  9  7  1  0
 10  9  1  0
 10 11  1  0
 12 13  1  0
 12 11  1  0
 13  9  1  0
 13 14  1  6
 15 14  2  0
 17 16  1  6
 18 17  1  0
 19 17  1  0
 19 20  1  1
 20 14  1  0
 21 23  1  0
 21 19  1  0
 22 21  2  0
M  END
$$$$
