GVE.pdb
     RDKit          3D

 21 20  0  0  1  0  0  0  0  0999 V2000
   28.3363  -22.3364  -15.9256 N   0  0  0  0  0  0  0  0  0  0  0  0
   28.0152  -21.1541  -15.1518 C   0  0  0  0  0  0  0  0  0  0  0  0
   26.7927  -21.4206  -14.3504 C   0  0  0  0  0  0  0  0  0  0  0  0
   25.8624  -22.1713  -14.8105 O   0  0  0  0  0  0  0  0  0  0  0  0
   26.2407  -19.8383  -10.2277 C   0  0  0  0  0  0  0  0  0  0  0  0
   25.6214  -21.1124  -10.7934 C   0  0  1  0  0  0  0  0  0  0  0  0
   24.3692  -21.4030  -10.0258 C   0  0  0  0  0  0  0  0  0  0  0  0
   25.4385  -21.0632  -12.2594 C   0  0  2  0  0  0  0  0  0  0  0  0
   26.6250  -20.8454  -13.0512 N   0  0  0  0  0  0  0  0  0  0  0  0
   24.2524  -20.2912  -12.7127 C   0  0  0  0  0  0  0  0  0  0  0  0
   24.4004  -19.0480  -12.8355 O   0  0  0  0  0  0  0  0  0  0  0  0
   23.0068  -20.8430  -13.0040 N   0  0  0  0  0  0  0  0  0  0  0  0
   21.8858  -19.9984  -13.5185 C   0  0  1  0  0  0  0  0  0  0  0  0
   21.4364  -20.6137  -14.7999 C   0  0  0  0  0  0  0  0  0  0  0  0
   20.2432  -19.8972  -15.3547 C   0  0  0  0  0  0  0  0  0  0  0  0
   19.7972  -20.5422  -16.6188 C   0  0  0  0  0  0  0  0  0  0  0  0
   18.5946  -20.8099  -16.7575 O   0  0  0  0  0  0  0  0  0  0  0  0
   20.7932  -20.0980  -12.5213 C   0  0  0  0  0  0  0  0  0  0  0  0
   19.8376  -19.1348  -12.2785 O   0  0  0  0  0  0  0  0  0  0  0  0
   20.7293  -20.8207  -17.6090 O   0  0  0  0  0  0  0  0  0  0  0  0
   20.7175  -21.1400  -11.8260 O   0  0  0  0  0  0  0  0  0  0  0  0
  2  1  1  0
  3  2  1  0
  4  3  2  0
  6  5  1  1
  6  8  1  0
  7  6  1  0
  8  9  1  6
  9  3  1  0
 10  8  1  0
 10 11  2  0
 12 10  1  0
 13 12  1  0
 13 14  1  6
 14 15  1  0
 15 16  1  0
 16 20  1  0
 17 16  2  0
 18 13  1  0
 19 18  1  0
 21 18  2  0
M  END
$$$$
