GVE.pdb
     RDKit          3D

 21 20  0  0  1  0  0  0  0  0999 V2000
   19.5500  -15.9844  -15.4445 N   0  0  0  0  0  0  0  0  0  0  0  0
   19.8289  -14.9025  -16.3673 C   0  0  0  0  0  0  0  0  0  0  0  0
   20.6387  -13.8709  -15.6689 C   0  0  0  0  0  0  0  0  0  0  0  0
   20.3796  -13.5493  -14.4564 O   0  0  0  0  0  0  0  0  0  0  0  0
   24.1928  -13.7050  -14.6665 C   0  0  0  0  0  0  0  0  0  0  0  0
   23.9370  -12.4531  -15.4996 C   0  0  1  0  0  0  0  0  0  0  0  0
   24.7220  -12.5693  -16.7692 C   0  0  0  0  0  0  0  0  0  0  0  0
   22.4986  -12.1756  -15.6971 C   0  0  2  0  0  0  0  0  0  0  0  0
   21.7221  -13.2128  -16.3323 N   0  0  0  0  0  0  0  0  0  0  0  0
   22.1898  -10.8030  -16.1753 C   0  0  0  0  0  0  0  0  0  0  0  0
   21.7008  -10.7034  -17.3301 O   0  0  0  0  0  0  0  0  0  0  0  0
   22.4043   -9.6374  -15.4429 N   0  0  0  0  0  0  0  0  0  0  0  0
   21.9707   -8.3044  -15.9626 C   0  0  1  0  0  0  0  0  0  0  0  0
   21.9734   -7.3686  -14.8021 C   0  0  0  0  0  0  0  0  0  0  0  0
   21.6960   -5.9629  -15.2403 C   0  0  0  0  0  0  0  0  0  0  0  0
   21.7753   -5.0365  -14.0791 C   0  0  0  0  0  0  0  0  0  0  0  0
   22.0375   -5.5051  -12.9616 O   0  0  0  0  0  0  0  0  0  0  0  0
   23.0045   -7.8765  -16.9353 C   0  0  0  0  0  0  0  0  0  0  0  0
   22.7876   -7.0798  -18.0390 O   0  0  0  0  0  0  0  0  0  0  0  0
   21.5627   -3.6786  -14.2732 O   0  0  0  0  0  0  0  0  0  0  0  0
   24.1841   -8.2661  -16.7576 O   0  0  0  0  0  0  0  0  0  0  0  0
  2  1  1  0
  3  2  1  0
  4  3  2  0
  6  5  1  6
  6  8  1  0
  7  6  1  0
  8  9  1  6
  9  3  1  0
 10  8  1  0
 10 11  2  0
 12 10  1  0
 13 12  1  0
 13 14  1  1
 14 15  1  0
 15 16  1  0
 16 20  1  0
 17 16  2  0
 18 13  1  0
 19 18  1  0
 21 18  2  0
M  END
$$$$
