GVE.pdb
     RDKit          3D

 21 20  0  0  1  0  0  0  0  0999 V2000
   19.3326  -12.2701  -15.7689 N   0  0  0  0  0  0  0  0  0  0  0  0
   20.4969  -11.9921  -16.5854 C   0  0  0  0  0  0  0  0  0  0  0  0
   21.3116  -10.9423  -15.9203 C   0  0  0  0  0  0  0  0  0  0  0  0
   20.7855  -10.1611  -15.0523 O   0  0  0  0  0  0  0  0  0  0  0  0
   25.5125  -11.1912  -16.1793 C   0  0  0  0  0  0  0  0  0  0  0  0
   24.8809  -10.2226  -15.1845 C   0  0  1  0  0  0  0  0  0  0  0  0
   25.8420   -9.0980  -14.9541 C   0  0  0  0  0  0  0  0  0  0  0  0
   23.5239   -9.7913  -15.5817 C   0  0  2  0  0  0  0  0  0  0  0  0
   22.6977  -10.7782  -16.2342 N   0  0  0  0  0  0  0  0  0  0  0  0
   23.4550   -8.4382  -16.1921 C   0  0  0  0  0  0  0  0  0  0  0  0
   23.7551   -8.3518  -17.4107 O   0  0  0  0  0  0  0  0  0  0  0  0
   23.0884   -7.2769  -15.5152 N   0  0  0  0  0  0  0  0  0  0  0  0
   22.8879   -5.9862  -16.2424 C   0  0  1  0  0  0  0  0  0  0  0  0
   21.8571   -5.2210  -15.4846 C   0  0  0  0  0  0  0  0  0  0  0  0
   21.5075   -3.9439  -16.1858 C   0  0  0  0  0  0  0  0  0  0  0  0
   20.5383   -3.1597  -15.3744 C   0  0  0  0  0  0  0  0  0  0  0  0
   20.0586   -2.1239  -15.8584 O   0  0  0  0  0  0  0  0  0  0  0  0
   24.1795   -5.2614  -16.1750 C   0  0  0  0  0  0  0  0  0  0  0  0
   24.7115   -4.4746  -17.1739 O   0  0  0  0  0  0  0  0  0  0  0  0
   20.1907   -3.6058  -14.1067 O   0  0  0  0  0  0  0  0  0  0  0  0
   24.8634   -5.3636  -15.1279 O   0  0  0  0  0  0  0  0  0  0  0  0
  2  1  1  0
  3  2  1  0
  4  3  2  0
  6  5  1  6
  6  8  1  0
  7  6  1  0
  8  9  1  6
  9  3  1  0
 10  8  1  0
 10 11  2  0
 12 10  1  0
 13 12  1  0
 13 14  1  1
 14 15  1  0
 15 16  1  0
 16 20  1  0
 17 16  2  0
 18 13  1  0
 19 18  1  0
 21 18  2  0
M  END
$$$$
