GVE.pdb
     RDKit          3D

 21 20  0  0  1  0  0  0  0  0999 V2000
   22.3071  -13.3073  -18.7101 N   0  0  0  0  0  0  0  0  0  0  0  0
   22.8563  -12.0020  -19.0175 C   0  0  0  0  0  0  0  0  0  0  0  0
   22.9096  -11.1963  -17.7701 C   0  0  0  0  0  0  0  0  0  0  0  0
   22.0768  -11.4090  -16.8205 O   0  0  0  0  0  0  0  0  0  0  0  0
   25.6362  -10.9699  -15.2874 C   0  0  0  0  0  0  0  0  0  0  0  0
   25.2893   -9.5295  -15.6504 C   0  0  1  0  0  0  0  0  0  0  0  0
   26.4616   -8.9337  -16.3662 C   0  0  0  0  0  0  0  0  0  0  0  0
   24.0079   -9.4106  -16.3777 C   0  0  2  0  0  0  0  0  0  0  0  0
   23.8875  -10.1658  -17.6015 N   0  0  0  0  0  0  0  0  0  0  0  0
   23.4632   -8.0303  -16.4566 C   0  0  0  0  0  0  0  0  0  0  0  0
   23.8290   -7.3335  -17.4380 O   0  0  0  0  0  0  0  0  0  0  0  0
   22.5902   -7.4645  -15.5299 N   0  0  0  0  0  0  0  0  0  0  0  0
   22.0603   -6.0783  -15.7099 C   0  0  1  0  0  0  0  0  0  0  0  0
   20.5733   -6.1783  -15.6774 C   0  0  0  0  0  0  0  0  0  0  0  0
   19.9462   -5.2352  -16.6583 C   0  0  0  0  0  0  0  0  0  0  0  0
   18.4637   -5.3412  -16.5989 C   0  0  0  0  0  0  0  0  0  0  0  0
   17.9425   -6.4602  -16.7155 O   0  0  0  0  0  0  0  0  0  0  0  0
   22.5213   -5.2971  -14.5371 C   0  0  0  0  0  0  0  0  0  0  0  0
   22.5084   -3.9228  -14.4326 O   0  0  0  0  0  0  0  0  0  0  0  0
   17.7042   -4.1950  -16.4087 O   0  0  0  0  0  0  0  0  0  0  0  0
   22.9687   -5.9231  -13.5458 O   0  0  0  0  0  0  0  0  0  0  0  0
  2  1  1  0
  3  2  1  0
  4  3  2  0
  6  5  1  6
  6  8  1  0
  7  6  1  0
  8  9  1  6
  9  3  1  0
 10  8  1  0
 10 11  2  0
 12 10  1  0
 13 12  1  0
 13 14  1  1
 14 15  1  0
 15 16  1  0
 16 20  1  0
 17 16  2  0
 18 13  1  0
 19 18  1  0
 21 18  2  0
M  END
$$$$
