GVE.pdb
     RDKit          3D

 21 20  0  0  1  0  0  0  0  0999 V2000
   15.8411   -7.6138   -9.0493 N   0  0  0  0  0  0  0  0  0  0  0  0
   16.2544   -8.3188  -10.2459 C   0  0  0  0  0  0  0  0  0  0  0  0
   17.5098   -7.7082  -10.7549 C   0  0  0  0  0  0  0  0  0  0  0  0
   17.9494   -6.6121  -10.2590 O   0  0  0  0  0  0  0  0  0  0  0  0
   20.3080   -9.8185  -13.4479 C   0  0  0  0  0  0  0  0  0  0  0  0
   20.6094   -8.6298  -12.5407 C   0  0  1  0  0  0  0  0  0  0  0  0
   21.8388   -7.9490  -13.0569 C   0  0  0  0  0  0  0  0  0  0  0  0
   19.4481   -7.7332  -12.3599 C   0  0  2  0  0  0  0  0  0  0  0  0
   18.2537   -8.3265  -11.8090 N   0  0  0  0  0  0  0  0  0  0  0  0
   19.2004   -6.8006  -13.4901 C   0  0  0  0  0  0  0  0  0  0  0  0
   18.6780   -7.2914  -14.5238 O   0  0  0  0  0  0  0  0  0  0  0  0
   19.5052   -5.4412  -13.4823 N   0  0  0  0  0  0  0  0  0  0  0  0
   19.2703   -4.5870  -14.6864 C   0  0  1  0  0  0  0  0  0  0  0  0
   18.2048   -3.6108  -14.3204 C   0  0  0  0  0  0  0  0  0  0  0  0
   17.9545   -2.6404  -15.4342 C   0  0  0  0  0  0  0  0  0  0  0  0
   16.9587   -1.6189  -15.0130 C   0  0  0  0  0  0  0  0  0  0  0  0
   17.3252   -0.4390  -14.9082 O   0  0  0  0  0  0  0  0  0  0  0  0
   20.5357   -3.8557  -14.9357 C   0  0  0  0  0  0  0  0  0  0  0  0
   20.8783   -3.2215  -16.1106 O   0  0  0  0  0  0  0  0  0  0  0  0
   15.6506   -2.0058  -14.7557 O   0  0  0  0  0  0  0  0  0  0  0  0
   21.3820   -3.8015  -14.0107 O   0  0  0  0  0  0  0  0  0  0  0  0
  2  1  1  0
  3  2  1  0
  4  3  2  0
  6  5  1  6
  6  8  1  0
  7  6  1  0
  8  9  1  6
  9  3  1  0
 10  8  1  0
 10 11  2  0
 12 10  1  0
 13 12  1  0
 13 14  1  1
 14 15  1  0
 15 16  1  0
 16 20  1  0
 17 16  2  0
 18 13  1  0
 19 18  1  0
 21 18  2  0
M  END
$$$$
