GVE.pdb
     RDKit          3D

 21 20  0  0  1  0  0  0  0  0999 V2000
   15.5600   -6.4496   -7.9534 N   0  0  0  0  0  0  0  0  0  0  0  0
   15.1168   -6.9945   -9.2208 C   0  0  0  0  0  0  0  0  0  0  0  0
   16.2769   -7.6179   -9.9088 C   0  0  0  0  0  0  0  0  0  0  0  0
   17.4578   -7.5077   -9.4254 O   0  0  0  0  0  0  0  0  0  0  0  0
   15.8193  -10.6752  -12.9141 C   0  0  0  0  0  0  0  0  0  0  0  0
   17.1444  -10.3047  -12.2555 C   0  0  1  0  0  0  0  0  0  0  0  0
   18.2540  -10.7610  -13.1511 C   0  0  0  0  0  0  0  0  0  0  0  0
   17.2193   -8.8790  -11.8723 C   0  0  2  0  0  0  0  0  0  0  0  0
   16.1034   -8.3518  -11.1246 N   0  0  0  0  0  0  0  0  0  0  0  0
   17.7214   -7.9739  -12.9385 C   0  0  0  0  0  0  0  0  0  0  0  0
   16.8958   -7.6302  -13.8233 O   0  0  0  0  0  0  0  0  0  0  0  0
   19.0251   -7.4899  -13.0237 N   0  0  0  0  0  0  0  0  0  0  0  0
   19.4534   -6.6108  -14.1545 C   0  0  1  0  0  0  0  0  0  0  0  0
   19.7095   -5.2606  -13.5768 C   0  0  0  0  0  0  0  0  0  0  0  0
   20.2651   -4.3273  -14.6088 C   0  0  0  0  0  0  0  0  0  0  0  0
   20.5484   -2.9989  -14.0023 C   0  0  0  0  0  0  0  0  0  0  0  0
   20.1072   -2.7563  -12.8693 O   0  0  0  0  0  0  0  0  0  0  0  0
   20.7277   -7.1723  -14.6633 C   0  0  0  0  0  0  0  0  0  0  0  0
   21.2113   -7.0319  -15.9464 O   0  0  0  0  0  0  0  0  0  0  0  0
   21.3004   -2.0714  -14.7103 O   0  0  0  0  0  0  0  0  0  0  0  0
   21.4397   -7.8389  -13.8737 O   0  0  0  0  0  0  0  0  0  0  0  0
  2  1  1  0
  3  2  1  0
  4  3  2  0
  6  5  1  6
  6  8  1  0
  7  6  1  0
  8  9  1  6
  9  3  1  0
 10  8  1  0
 10 11  2  0
 12 10  1  0
 13 12  1  0
 13 14  1  1
 14 15  1  0
 15 16  1  0
 16 20  1  0
 17 16  2  0
 18 13  1  0
 19 18  1  0
 21 18  2  0
M  END
$$$$
