VMW.pdb
     RDKit          3D

 30 31  0  0  1  0  0  0  0  0999 V2000
   21.3412  -18.4615  -12.4923 C   0  0  0  0  0  0  0  0  0  0  0  0
   20.3550  -19.5808  -12.6274 C   0  0  1  0  0  0  0  0  0  0  0  0
   19.0138  -19.0090  -13.0621 C   0  0  0  0  0  0  0  0  0  0  0  0
   20.8722  -20.5757  -13.6517 C   0  0  2  0  0  0  0  0  0  0  0  0
   19.9360  -21.6693  -13.8394 N   0  0  0  0  0  0  0  0  0  0  0  0
   22.1168  -21.1478  -13.1101 C   0  0  0  0  0  0  0  0  0  0  0  0
   22.0923  -21.9134  -12.1108 O   0  0  0  0  0  0  0  0  0  0  0  0
   27.4458  -21.8973  -16.5521 C   0  0  0  0  0  0  0  0  0  0  0  0
   28.0287  -22.7084  -15.0451 S   0  0  0  0  0  0  0  0  0  0  0  0
   26.7699  -22.5030  -13.7572 C   0  0  0  0  0  0  0  0  0  0  0  0
   25.5331  -21.8449  -14.3363 C   0  0  0  0  0  0  0  0  0  0  0  0
   24.6072  -21.5015  -13.1819 C   0  0  2  0  0  0  0  0  0  0  0  0
   23.3997  -20.8729  -13.6766 N   0  0  0  0  0  0  0  0  0  0  0  0
   25.2889  -20.6271  -12.1931 C   0  0  0  0  0  0  0  0  0  0  0  0
   25.4177  -19.3853  -12.4287 O   0  0  0  0  0  0  0  0  0  0  0  0
   25.7820  -21.2149  -10.9997 N   0  0  0  0  0  0  0  0  0  0  0  0
   26.6734  -20.5018  -10.1132 C   0  0  1  0  0  0  0  0  0  0  0  0
   26.2360  -20.7378   -8.6846 C   0  0  0  0  0  0  0  0  0  0  0  0
   26.9971  -19.9351   -7.7181 C   0  0  0  0  0  0  0  0  0  0  0  0
   27.1056  -18.5526   -7.6706 C   0  0  0  0  0  0  0  0  0  0  0  0
   27.8936  -18.2378   -6.6345 N   0  0  0  0  0  0  0  0  0  0  0  0
   28.3177  -19.3255   -5.9874 C   0  0  0  0  0  0  0  0  0  0  0  0
   29.1254  -19.5137   -4.8880 C   0  0  0  0  0  0  0  0  0  0  0  0
   29.3757  -20.7959   -4.4594 C   0  0  0  0  0  0  0  0  0  0  0  0
   28.8149  -21.8560   -5.1371 C   0  0  0  0  0  0  0  0  0  0  0  0
   28.0067  -21.6772   -6.2366 C   0  0  0  0  0  0  0  0  0  0  0  0
   27.7562  -20.4018   -6.6650 C   0  0  0  0  0  0  0  0  0  0  0  0
   28.0713  -20.9388  -10.3455 C   0  0  0  0  0  0  0  0  0  0  0  0
   28.2997  -22.1467  -10.6022 O   0  0  0  0  0  0  0  0  0  0  0  0
   29.1052  -20.0281  -10.2795 O   0  0  0  0  0  0  0  0  0  0  0  0
  2  1  1  6
  3  2  1  0
  4  6  1  0
  4  2  1  0
  4  5  1  1
  6  7  2  0
  9  8  1  0
 10  9  1  0
 11 10  1  0
 12 11  1  6
 12 14  1  0
 13 12  1  0
 13  6  1  0
 14 15  2  0
 16 14  1  0
 16 17  1  0
 17 28  1  0
 17 18  1  1
 19 27  1  0
 19 18  1  0
 20 19  2  0
 21 20  1  0
 21 22  1  0
 22 27  2  0
 23 22  1  0
 23 24  2  0
 24 25  1  0
 25 26  2  0
 27 26  1  0
 28 29  2  0
 28 30  1  0
M  END
$$$$
