VMW.pdb
     RDKit          3D

 30 31  0  0  1  0  0  0  0  0999 V2000
   29.1345  -17.9770  -15.6736 C   0  0  0  0  0  0  0  0  0  0  0  0
   28.2032  -17.1243  -16.4793 C   0  0  1  0  0  0  0  0  0  0  0  0
   28.8624  -16.7916  -17.8095 C   0  0  0  0  0  0  0  0  0  0  0  0
   26.9039  -17.8796  -16.6977 C   0  0  2  0  0  0  0  0  0  0  0  0
   26.0325  -17.1691  -17.6161 N   0  0  0  0  0  0  0  0  0  0  0  0
   26.2162  -17.9440  -15.3967 C   0  0  0  0  0  0  0  0  0  0  0  0
   26.0193  -16.9007  -14.7199 O   0  0  0  0  0  0  0  0  0  0  0  0
   21.0178  -20.7207  -14.9986 C   0  0  0  0  0  0  0  0  0  0  0  0
   21.1369  -18.9417  -14.6990 S   0  0  0  0  0  0  0  0  0  0  0  0
   22.8824  -18.5134  -14.4639 C   0  0  0  0  0  0  0  0  0  0  0  0
   23.6078  -19.6449  -13.7628 C   0  0  0  0  0  0  0  0  0  0  0  0
   25.0521  -19.2173  -13.5648 C   0  0  2  0  0  0  0  0  0  0  0  0
   25.7410  -19.1705  -14.8379 N   0  0  0  0  0  0  0  0  0  0  0  0
   25.7524  -20.1250  -12.6201 C   0  0  0  0  0  0  0  0  0  0  0  0
   26.3850  -21.1341  -13.0629 O   0  0  0  0  0  0  0  0  0  0  0  0
   25.6917  -19.8326  -11.2331 N   0  0  0  0  0  0  0  0  0  0  0  0
   26.2534  -20.7233  -10.2432 C   0  0  1  0  0  0  0  0  0  0  0  0
   27.1701  -19.9326   -9.3364 C   0  0  0  0  0  0  0  0  0  0  0  0
   26.9563  -20.2303   -7.9139 C   0  0  0  0  0  0  0  0  0  0  0  0
   25.9226  -20.9665   -7.3530 C   0  0  0  0  0  0  0  0  0  0  0  0
   26.1088  -20.9918   -6.0270 N   0  0  0  0  0  0  0  0  0  0  0  0
   27.2037  -20.3177   -5.6685 C   0  0  0  0  0  0  0  0  0  0  0  0
   27.7995  -20.0647   -4.4529 C   0  0  0  0  0  0  0  0  0  0  0  0
   28.9529  -19.3170   -4.4215 C   0  0  0  0  0  0  0  0  0  0  0  0
   29.4819  -18.8415   -5.6013 C   0  0  0  0  0  0  0  0  0  0  0  0
   28.8932  -19.0896   -6.8203 C   0  0  0  0  0  0  0  0  0  0  0  0
   27.7450  -19.8336   -6.8540 C   0  0  0  0  0  0  0  0  0  0  0  0
   25.1644  -21.3891   -9.4883 C   0  0  0  0  0  0  0  0  0  0  0  0
   23.9962  -20.9358   -9.5727 O   0  0  0  0  0  0  0  0  0  0  0  0
   25.4340  -22.4914   -8.7042 O   0  0  0  0  0  0  0  0  0  0  0  0
  2  1  1  1
  3  2  1  0
  4  6  1  0
  4  2  1  0
  4  5  1  6
  6  7  2  0
  9  8  1  0
 10  9  1  0
 11 10  1  0
 12 11  1  6
 12 14  1  0
 13 12  1  0
 13  6  1  0
 14 15  2  0
 16 14  1  0
 16 17  1  0
 17 28  1  0
 17 18  1  1
 19 27  1  0
 19 18  1  0
 20 19  2  0
 21 20  1  0
 21 22  1  0
 22 27  2  0
 23 22  1  0
 23 24  2  0
 24 25  1  0
 25 26  2  0
 27 26  1  0
 28 29  2  0
 28 30  1  0
M  END
$$$$
