VMW.pdb
     RDKit          3D

 30 31  0  0  1  0  0  0  0  0999 V2000
   28.9274  -18.5409  -14.2584 C   0  0  0  0  0  0  0  0  0  0  0  0
   28.3333  -18.2003  -15.5905 C   0  0  1  0  0  0  0  0  0  0  0  0
   29.4573  -17.9181  -16.5763 C   0  0  0  0  0  0  0  0  0  0  0  0
   27.4820  -19.3649  -16.0655 C   0  0  2  0  0  0  0  0  0  0  0  0
   26.9679  -19.1275  -17.4024 N   0  0  0  0  0  0  0  0  0  0  0  0
   26.3259  -19.4553  -15.1573 C   0  0  0  0  0  0  0  0  0  0  0  0
   25.5955  -18.4524  -14.9425 O   0  0  0  0  0  0  0  0  0  0  0  0
   21.5429  -20.6942  -17.6881 C   0  0  0  0  0  0  0  0  0  0  0  0
   22.3228  -21.7972  -16.4865 S   0  0  0  0  0  0  0  0  0  0  0  0
   22.8916  -20.8058  -15.0797 C   0  0  0  0  0  0  0  0  0  0  0  0
   23.7653  -21.6451  -14.1687 C   0  0  0  0  0  0  0  0  0  0  0  0
   24.8351  -20.7369  -13.5866 C   0  0  2  0  0  0  0  0  0  0  0  0
   25.9722  -20.6633  -14.4806 N   0  0  0  0  0  0  0  0  0  0  0  0
   25.2539  -21.2016  -12.2391 C   0  0  0  0  0  0  0  0  0  0  0  0
   25.9133  -22.2809  -12.1181 O   0  0  0  0  0  0  0  0  0  0  0  0
   24.8988  -20.4143  -11.1135 N   0  0  0  0  0  0  0  0  0  0  0  0
   25.0561  -20.9045   -9.7629 C   0  0  1  0  0  0  0  0  0  0  0  0
   25.8530  -19.8963   -8.9652 C   0  0  0  0  0  0  0  0  0  0  0  0
   27.2052  -20.3698   -8.6413 C   0  0  0  0  0  0  0  0  0  0  0  0
   27.9963  -21.2339   -9.3848 C   0  0  0  0  0  0  0  0  0  0  0  0
   29.1516  -21.4007   -8.7283 N   0  0  0  0  0  0  0  0  0  0  0  0
   29.1802  -20.7007   -7.5921 C   0  0  0  0  0  0  0  0  0  0  0  0
   30.1241  -20.5502   -6.6008 C   0  0  0  0  0  0  0  0  0  0  0  0
   29.8398  -19.7344   -5.5312 C   0  0  0  0  0  0  0  0  0  0  0  0
   28.6231  -19.0905   -5.4777 C   0  0  0  0  0  0  0  0  0  0  0  0
   27.6740  -19.2352   -6.4638 C   0  0  0  0  0  0  0  0  0  0  0  0
   27.9549  -20.0468   -7.5293 C   0  0  0  0  0  0  0  0  0  0  0  0
   23.7250  -21.1615   -9.1618 C   0  0  0  0  0  0  0  0  0  0  0  0
   22.6942  -20.7991   -9.7810 O   0  0  0  0  0  0  0  0  0  0  0  0
   23.6236  -21.7903   -7.9383 O   0  0  0  0  0  0  0  0  0  0  0  0
  2  1  1  1
  3  2  1  0
  4  6  1  0
  4  2  1  0
  4  5  1  6
  6  7  2  0
  9  8  1  0
 10  9  1  0
 11 10  1  0
 12 11  1  6
 12 14  1  0
 13 12  1  0
 13  6  1  0
 14 15  2  0
 16 14  1  0
 16 17  1  0
 17 28  1  0
 17 18  1  1
 19 27  1  0
 19 18  1  0
 20 19  2  0
 21 20  1  0
 21 22  1  0
 22 27  2  0
 23 22  1  0
 23 24  2  0
 24 25  1  0
 25 26  2  0
 27 26  1  0
 28 29  2  0
 28 30  1  0
M  END
$$$$
