VMW.pdb
     RDKit          3D

 30 31  0  0  1  0  0  0  0  0999 V2000
   16.9675  -16.6928   11.9641 C   0  0  0  0  0  0  0  0  0  0  0  0
   17.5929  -17.2110   13.2226 C   0  0  1  0  0  0  0  0  0  0  0  0
   16.7244  -16.8138   14.4070 C   0  0  0  0  0  0  0  0  0  0  0  0
   17.7155  -18.7219   13.1292 C   0  0  2  0  0  0  0  0  0  0  0  0
   18.4550  -19.2586   14.2574 N   0  0  0  0  0  0  0  0  0  0  0  0
   18.4896  -19.0194   11.9119 C   0  0  0  0  0  0  0  0  0  0  0  0
   19.7486  -19.0086   11.9305 O   0  0  0  0  0  0  0  0  0  0  0  0
   15.3550  -23.9307    9.1130 C   0  0  0  0  0  0  0  0  0  0  0  0
   17.0846  -23.4233    8.9728 S   0  0  0  0  0  0  0  0  0  0  0  0
   17.1782  -21.6280    9.2044 C   0  0  0  0  0  0  0  0  0  0  0  0
   18.6264  -21.1858    9.2770 C   0  0  0  0  0  0  0  0  0  0  0  0
   18.6416  -19.6815    9.4889 C   0  0  2  0  0  0  0  0  0  0  0  0
   17.8690  -19.3319   10.6631 N   0  0  0  0  0  0  0  0  0  0  0  0
   18.1295  -18.9687    8.2902 C   0  0  0  0  0  0  0  0  0  0  0  0
   16.8814  -18.7724    8.1554 O   0  0  0  0  0  0  0  0  0  0  0  0
   19.0637  -18.5236    7.3197 N   0  0  0  0  0  0  0  0  0  0  0  0
   18.6446  -17.8267    6.1248 C   0  0  1  0  0  0  0  0  0  0  0  0
   19.8370  -17.1091    5.5323 C   0  0  0  0  0  0  0  0  0  0  0  0
   19.4880  -16.3076    4.3518 C   0  0  0  0  0  0  0  0  0  0  0  0
   18.3301  -15.5716    4.1450 C   0  0  0  0  0  0  0  0  0  0  0  0
   18.4191  -14.9960    2.9391 N   0  0  0  0  0  0  0  0  0  0  0  0
   19.5657  -15.3026    2.3283 C   0  0  0  0  0  0  0  0  0  0  0  0
   20.1040  -14.9622    1.1073 C   0  0  0  0  0  0  0  0  0  0  0  0
   21.3408  -15.4564    0.7657 C   0  0  0  0  0  0  0  0  0  0  0  0
   22.0081  -16.2760    1.6493 C   0  0  0  0  0  0  0  0  0  0  0  0
   21.4777  -16.6212    2.8714 C   0  0  0  0  0  0  0  0  0  0  0  0
   20.2467  -16.1306    3.2134 C   0  0  0  0  0  0  0  0  0  0  0  0
   18.0412  -18.7853    5.1676 C   0  0  0  0  0  0  0  0  0  0  0  0
   16.9821  -18.4691    4.5714 O   0  0  0  0  0  0  0  0  0  0  0  0
   18.6377  -20.0076    4.9374 O   0  0  0  0  0  0  0  0  0  0  0  0
  2  1  1  6
  3  2  1  0
  4  6  1  0
  4  2  1  0
  4  5  1  1
  6  7  2  0
  9  8  1  0
 10  9  1  0
 11 10  1  0
 12 11  1  6
 12 14  1  0
 13 12  1  0
 13  6  1  0
 14 15  2  0
 16 14  1  0
 16 17  1  0
 17 28  1  0
 17 18  1  6
 19 27  1  0
 19 18  1  0
 20 19  2  0
 21 20  1  0
 21 22  1  0
 22 27  2  0
 23 22  1  0
 23 24  2  0
 24 25  1  0
 25 26  2  0
 27 26  1  0
 28 29  2  0
 28 30  1  0
M  END
$$$$
