VMW.pdb
     RDKit          3D

 30 31  0  0  1  0  0  0  0  0999 V2000
   26.9819  -18.4058  -14.5357 C   0  0  0  0  0  0  0  0  0  0  0  0
   27.2044  -19.6051  -15.4050 C   0  0  1  0  0  0  0  0  0  0  0  0
   28.1003  -19.2125  -16.5704 C   0  0  0  0  0  0  0  0  0  0  0  0
   27.8494  -20.7036  -14.5780 C   0  0  2  0  0  0  0  0  0  0  0  0
   28.0385  -21.9093  -15.3643 N   0  0  0  0  0  0  0  0  0  0  0  0
   26.9151  -21.0298  -13.4870 C   0  0  0  0  0  0  0  0  0  0  0  0
   25.7707  -21.4924  -13.7356 O   0  0  0  0  0  0  0  0  0  0  0  0
   28.2930  -20.3050   -7.1690 C   0  0  0  0  0  0  0  0  0  0  0  0
   26.5318  -20.6736   -6.9931 S   0  0  0  0  0  0  0  0  0  0  0  0
   25.8272  -20.9182   -8.6452 C   0  0  0  0  0  0  0  0  0  0  0  0
   26.8941  -20.7161   -9.7029 C   0  0  0  0  0  0  0  0  0  0  0  0
   26.2638  -20.9962  -11.0565 C   0  0  2  0  0  0  0  0  0  0  0  0
   27.2468  -20.8444  -12.1093 N   0  0  0  0  0  0  0  0  0  0  0  0
   25.0958  -20.1095  -11.2949 C   0  0  0  0  0  0  0  0  0  0  0  0
   25.2623  -18.8530  -11.3831 O   0  0  0  0  0  0  0  0  0  0  0  0
   23.8128  -20.7024  -11.4180 N   0  0  0  0  0  0  0  0  0  0  0  0
   22.6268  -19.9078  -11.6435 C   0  0  1  0  0  0  0  0  0  0  0  0
   22.8049  -19.1118  -12.9173 C   0  0  0  0  0  0  0  0  0  0  0  0
   22.0186  -19.6479  -14.0362 C   0  0  0  0  0  0  0  0  0  0  0  0
   20.6396  -19.7833  -14.1088 C   0  0  0  0  0  0  0  0  0  0  0  0
   20.3412  -20.3147  -15.3013 N   0  0  0  0  0  0  0  0  0  0  0  0
   21.4367  -20.5424  -16.0293 C   0  0  0  0  0  0  0  0  0  0  0  0
   21.6412  -21.0631  -17.2876 C   0  0  0  0  0  0  0  0  0  0  0  0
   22.9274  -21.1674  -17.7622 C   0  0  0  0  0  0  0  0  0  0  0  0
   23.9751  -20.7504  -16.9709 C   0  0  0  0  0  0  0  0  0  0  0  0
   23.7799  -20.2289  -15.7123 C   0  0  0  0  0  0  0  0  0  0  0  0
   22.5005  -20.1241  -15.2379 C   0  0  0  0  0  0  0  0  0  0  0  0
   21.4341  -20.7872  -11.7002 C   0  0  0  0  0  0  0  0  0  0  0  0
   21.5876  -22.0114  -11.9346 O   0  0  0  0  0  0  0  0  0  0  0  0
   20.1737  -20.2644  -11.4980 O   0  0  0  0  0  0  0  0  0  0  0  0
  2  1  1  1
  3  2  1  0
  4  6  1  0
  4  2  1  0
  4  5  1  6
  6  7  2  0
  9  8  1  0
 10  9  1  0
 11 10  1  0
 12 11  1  1
 12 14  1  0
 13 12  1  0
 13  6  1  0
 14 15  2  0
 16 14  1  0
 16 17  1  0
 17 28  1  0
 17 18  1  6
 19 27  1  0
 19 18  1  0
 20 19  2  0
 21 20  1  0
 21 22  1  0
 22 27  2  0
 23 22  1  0
 23 24  2  0
 24 25  1  0
 25 26  2  0
 27 26  1  0
 28 29  2  0
 28 30  1  0
M  END
$$$$
