VMW.pdb
     RDKit          3D

 30 31  0  0  1  0  0  0  0  0999 V2000
   28.7833  -19.9360  -18.5332 C   0  0  0  0  0  0  0  0  0  0  0  0
   28.0075  -20.2063  -17.2808 C   0  0  1  0  0  0  0  0  0  0  0  0
   26.5549  -20.4730  -17.6461 C   0  0  0  0  0  0  0  0  0  0  0  0
   28.6123  -21.4060  -16.5726 C   0  0  2  0  0  0  0  0  0  0  0  0
   28.3245  -22.6365  -17.2872 N   0  0  0  0  0  0  0  0  0  0  0  0
   27.9666  -21.5006  -15.2521 C   0  0  0  0  0  0  0  0  0  0  0  0
   26.8520  -22.0712  -15.1196 O   0  0  0  0  0  0  0  0  0  0  0  0
   26.5507  -22.0231   -8.5628 C   0  0  0  0  0  0  0  0  0  0  0  0
   28.1077  -21.7049   -9.4248 S   0  0  0  0  0  0  0  0  0  0  0  0
   27.9036  -20.2277  -10.4551 C   0  0  0  0  0  0  0  0  0  0  0  0
   28.7355  -20.3516  -11.7162 C   0  0  0  0  0  0  0  0  0  0  0  0
   27.8396  -20.9077  -12.8099 C   0  0  2  0  0  0  0  0  0  0  0  0
   28.5563  -20.9613  -14.0673 N   0  0  0  0  0  0  0  0  0  0  0  0
   26.5992  -20.1013  -12.9447 C   0  0  0  0  0  0  0  0  0  0  0  0
   26.6685  -18.8925  -13.3298 O   0  0  0  0  0  0  0  0  0  0  0  0
   25.3583  -20.7153  -12.6345 N   0  0  0  0  0  0  0  0  0  0  0  0
   24.1490  -19.9421  -12.4654 C   0  0  1  0  0  0  0  0  0  0  0  0
   23.7872  -19.3026  -13.7875 C   0  0  0  0  0  0  0  0  0  0  0  0
   23.1926  -20.2550  -14.7347 C   0  0  0  0  0  0  0  0  0  0  0  0
   22.1259  -21.1133  -14.5093 C   0  0  0  0  0  0  0  0  0  0  0  0
   21.9106  -21.8054  -15.6354 N   0  0  0  0  0  0  0  0  0  0  0  0
   22.7682  -21.4617  -16.5988 C   0  0  0  0  0  0  0  0  0  0  0  0
   22.9426  -21.8799  -17.8992 C   0  0  0  0  0  0  0  0  0  0  0  0
   23.9442  -21.3120  -18.6507 C   0  0  0  0  0  0  0  0  0  0  0  0
   24.7449  -20.3431  -18.0870 C   0  0  0  0  0  0  0  0  0  0  0  0
   24.5777  -19.9193  -16.7884 C   0  0  0  0  0  0  0  0  0  0  0  0
   23.5814  -20.4831  -16.0385 C   0  0  0  0  0  0  0  0  0  0  0  0
   23.0624  -20.8115  -11.9530 C   0  0  0  0  0  0  0  0  0  0  0  0
   21.9474  -20.3010  -11.6817 O   0  0  0  0  0  0  0  0  0  0  0  0
   23.2765  -22.1628  -11.7774 O   0  0  0  0  0  0  0  0  0  0  0  0
  2  1  1  6
  3  2  1  0
  4  6  1  0
  4  2  1  0
  4  5  1  6
  6  7  2  0
  9  8  1  0
 10  9  1  0
 11 10  1  0
 12 11  1  1
 12 14  1  0
 13 12  1  0
 13  6  1  0
 14 15  2  0
 16 14  1  0
 16 17  1  0
 17 28  1  0
 17 18  1  6
 19 27  1  0
 19 18  1  0
 20 19  2  0
 21 20  1  0
 21 22  1  0
 22 27  2  0
 23 22  1  0
 23 24  2  0
 24 25  1  0
 25 26  2  0
 27 26  1  0
 28 29  2  0
 28 30  1  0
M  END
$$$$
