VMW.pdb
     RDKit          3D

 30 31  0  0  1  0  0  0  0  0999 V2000
   25.1843  -17.3075  -14.2838 C   0  0  0  0  0  0  0  0  0  0  0  0
   25.5313  -17.3832  -15.7390 C   0  0  1  0  0  0  0  0  0  0  0  0
   25.0864  -16.0983  -16.4215 C   0  0  0  0  0  0  0  0  0  0  0  0
   27.0311  -17.5755  -15.8812 C   0  0  2  0  0  0  0  0  0  0  0  0
   27.4271  -17.5938  -17.2778 N   0  0  0  0  0  0  0  0  0  0  0  0
   27.3546  -18.8953  -15.3130 C   0  0  0  0  0  0  0  0  0  0  0  0
   27.1114  -19.9505  -15.9556 O   0  0  0  0  0  0  0  0  0  0  0  0
   31.7454  -20.1342  -10.2416 C   0  0  0  0  0  0  0  0  0  0  0  0
   31.8581  -21.3562  -11.5692 S   0  0  0  0  0  0  0  0  0  0  0  0
   30.2304  -21.5067  -12.3524 C   0  0  0  0  0  0  0  0  0  0  0  0
   29.6953  -20.1349  -12.7124 C   0  0  0  0  0  0  0  0  0  0  0  0
   28.4500  -20.3308  -13.5603 C   0  0  2  0  0  0  0  0  0  0  0  0
   27.9522  -19.0523  -14.0243 N   0  0  0  0  0  0  0  0  0  0  0  0
   27.4002  -21.0620  -12.8052 C   0  0  0  0  0  0  0  0  0  0  0  0
   27.7166  -22.0612  -12.0870 O   0  0  0  0  0  0  0  0  0  0  0  0
   26.0578  -20.6153  -12.9117 N   0  0  0  0  0  0  0  0  0  0  0  0
   24.9467  -21.4407  -12.4955 C   0  0  1  0  0  0  0  0  0  0  0  0
   25.1276  -21.8082  -11.0394 C   0  0  0  0  0  0  0  0  0  0  0  0
   25.4225  -20.6445  -10.1928 C   0  0  0  0  0  0  0  0  0  0  0  0
   24.8721  -19.3742  -10.2847 C   0  0  0  0  0  0  0  0  0  0  0  0
   25.4186  -18.6191   -9.3231 N   0  0  0  0  0  0  0  0  0  0  0  0
   26.3001  -19.3078   -8.5947 C   0  0  0  0  0  0  0  0  0  0  0  0
   27.0990  -18.9787   -7.5224 C   0  0  0  0  0  0  0  0  0  0  0  0
   27.9184  -19.9427   -6.9841 C   0  0  0  0  0  0  0  0  0  0  0  0
   27.9202  -21.2083   -7.5283 C   0  0  0  0  0  0  0  0  0  0  0  0
   27.1252  -21.5458   -8.5998 C   0  0  0  0  0  0  0  0  0  0  0  0
   26.3088  -20.5878   -9.1372 C   0  0  0  0  0  0  0  0  0  0  0  0
   23.6700  -20.7248  -12.7332 C   0  0  0  0  0  0  0  0  0  0  0  0
   22.5856  -21.3204  -12.5175 O   0  0  0  0  0  0  0  0  0  0  0  0
   23.6766  -19.4217  -13.1858 O   0  0  0  0  0  0  0  0  0  0  0  0
  2  1  1  1
  3  2  1  0
  4  6  1  0
  4  2  1  0
  4  5  1  6
  6  7  2  0
  9  8  1  0
 10  9  1  0
 11 10  1  0
 12 11  1  1
 12 14  1  0
 13 12  1  0
 13  6  1  0
 14 15  2  0
 16 14  1  0
 16 17  1  0
 17 28  1  0
 17 18  1  1
 19 27  1  0
 19 18  1  0
 20 19  2  0
 21 20  1  0
 21 22  1  0
 22 27  2  0
 23 22  1  0
 23 24  2  0
 24 25  1  0
 25 26  2  0
 27 26  1  0
 28 29  2  0
 28 30  1  0
M  END
$$$$
