VMW.pdb
     RDKit          3D

 30 31  0  0  1  0  0  0  0  0999 V2000
   28.4360  -19.2763  -14.8742 C   0  0  0  0  0  0  0  0  0  0  0  0
   27.5358  -19.5610  -13.7114 C   0  0  1  0  0  0  0  0  0  0  0  0
   26.0888  -19.4848  -14.1753 C   0  0  0  0  0  0  0  0  0  0  0  0
   27.8529  -20.9426  -13.1660 C   0  0  2  0  0  0  0  0  0  0  0  0
   27.3501  -21.9818  -14.0463 N   0  0  0  0  0  0  0  0  0  0  0  0
   27.1470  -21.0733  -11.8800 C   0  0  0  0  0  0  0  0  0  0  0  0
   26.0504  -21.6878  -11.8066 O   0  0  0  0  0  0  0  0  0  0  0  0
   27.2019  -20.3677   -4.0294 C   0  0  0  0  0  0  0  0  0  0  0  0
   28.1269  -20.0132   -5.5418 S   0  0  0  0  0  0  0  0  0  0  0  0
   27.0812  -20.4216   -6.9650 C   0  0  0  0  0  0  0  0  0  0  0  0
   27.8569  -20.2339   -8.2538 C   0  0  0  0  0  0  0  0  0  0  0  0
   26.9685  -20.6871   -9.3998 C   0  0  2  0  0  0  0  0  0  0  0  0
   27.6558  -20.5215  -10.6638 N   0  0  0  0  0  0  0  0  0  0  0  0
   25.6798  -19.9479   -9.4003 C   0  0  0  0  0  0  0  0  0  0  0  0
   25.6784  -18.6778   -9.3647 O   0  0  0  0  0  0  0  0  0  0  0  0
   24.4739  -20.6942   -9.4408 N   0  0  0  0  0  0  0  0  0  0  0  0
   23.3245  -20.2412  -10.1907 C   0  0  1  0  0  0  0  0  0  0  0  0
   23.7048  -20.1292  -11.6504 C   0  0  0  0  0  0  0  0  0  0  0  0
   22.5819  -19.7084  -12.4988 C   0  0  0  0  0  0  0  0  0  0  0  0
   21.5583  -18.8317  -12.1686 C   0  0  0  0  0  0  0  0  0  0  0  0
   20.7472  -18.7291  -13.2293 N   0  0  0  0  0  0  0  0  0  0  0  0
   21.1667  -19.4835  -14.2475 C   0  0  0  0  0  0  0  0  0  0  0  0
   20.6833  -19.7069  -15.5174 C   0  0  0  0  0  0  0  0  0  0  0  0
   21.3669  -20.5641  -16.3471 C   0  0  0  0  0  0  0  0  0  0  0  0
   22.5134  -21.1756  -15.8897 C   0  0  0  0  0  0  0  0  0  0  0  0
   23.0036  -20.9582  -14.6222 C   0  0  0  0  0  0  0  0  0  0  0  0
   22.3248  -20.1054  -13.7947 C   0  0  0  0  0  0  0  0  0  0  0  0
   22.1883  -21.1712   -9.9825 C   0  0  0  0  0  0  0  0  0  0  0  0
   21.0257  -20.7052   -9.8903 O   0  0  0  0  0  0  0  0  0  0  0  0
   22.4087  -22.5298   -9.8914 O   0  0  0  0  0  0  0  0  0  0  0  0
  2  1  1  6
  3  2  1  0
  4  6  1  0
  4  2  1  0
  4  5  1  6
  6  7  2  0
  9  8  1  0
 10  9  1  0
 11 10  1  0
 12 11  1  1
 12 14  1  0
 13 12  1  0
 13  6  1  0
 14 15  2  0
 16 14  1  0
 16 17  1  0
 17 28  1  0
 17 18  1  6
 19 27  1  0
 19 18  1  0
 20 19  2  0
 21 20  1  0
 21 22  1  0
 22 27  2  0
 23 22  1  0
 23 24  2  0
 24 25  1  0
 25 26  2  0
 27 26  1  0
 28 29  2  0
 28 30  1  0
M  END
$$$$
