WHG.pdb
     RDKit          3D

 29 31  0  0  1  0  0  0  0  0999 V2000
    6.4498  -18.0025   24.0524 N   0  0  0  0  0  0  0  0  0  0  0  0
    7.0835  -16.7176   23.9402 C   0  0  1  0  0  0  0  0  0  0  0  0
    7.5856  -16.3610   25.3395 C   0  0  0  0  0  0  0  0  0  0  0  0
    6.8313  -15.2081   25.8673 C   0  0  0  0  0  0  0  0  0  0  0  0
    5.5015  -15.2205   26.2831 C   0  0  0  0  0  0  0  0  0  0  0  0
    5.1533  -13.9941   26.7006 N   0  0  0  0  0  0  0  0  0  0  0  0
    6.2157  -13.1721   26.5722 C   0  0  0  0  0  0  0  0  0  0  0  0
    6.3714  -11.8157   26.8633 C   0  0  0  0  0  0  0  0  0  0  0  0
    7.5765  -11.1834   26.6420 C   0  0  0  0  0  0  0  0  0  0  0  0
    8.6003  -11.9471   26.1278 C   0  0  0  0  0  0  0  0  0  0  0  0
    8.4691  -13.2869   25.8332 C   0  0  0  0  0  0  0  0  0  0  0  0
    7.2642  -13.9207   26.0541 C   0  0  0  0  0  0  0  0  0  0  0  0
    8.2690  -16.7903   23.0406 C   0  0  0  0  0  0  0  0  0  0  0  0
    8.6776  -17.8977   22.6078 O   0  0  0  0  0  0  0  0  0  0  0  0
    8.9525  -15.6312   22.6578 N   0  0  0  0  0  0  0  0  0  0  0  0
   10.0594  -15.6502   21.6794 C   0  0  1  0  0  0  0  0  0  0  0  0
   10.0833  -14.3829   20.8948 C   0  0  0  0  0  0  0  0  0  0  0  0
    8.9836  -14.2128   19.9341 C   0  0  0  0  0  0  0  0  0  0  0  0
    8.1321  -15.2506   19.5354 C   0  0  0  0  0  0  0  0  0  0  0  0
    7.2602  -14.7593   18.6686 N   0  0  0  0  0  0  0  0  0  0  0  0
    7.4975  -13.4607   18.4817 C   0  0  0  0  0  0  0  0  0  0  0  0
    8.5395  -13.1526   19.2535 N   0  0  0  0  0  0  0  0  0  0  0  0
   11.3016  -15.9344   22.4413 C   0  0  0  0  0  0  0  0  0  0  0  0
   12.4446  -15.9436   21.9313 O   0  0  0  0  0  0  0  0  0  0  0  0
   11.2785  -16.2260   23.8529 N   0  0  0  0  0  0  0  0  0  0  0  0
   12.4779  -16.4478   24.6105 C   0  0  0  0  0  0  0  0  0  0  0  0
   12.9607  -17.8435   24.5213 C   0  0  0  0  0  0  0  0  0  0  0  0
   12.4273  -18.6712   23.7519 O   0  0  0  0  0  0  0  0  0  0  0  0
   14.0265  -18.2641   25.2990 O   0  0  0  0  0  0  0  0  0  0  0  0
  2 13  1  0
  2  1  1  1
  3  4  1  0
  3  2  1  0
  4  5  2  0
  5  6  1  0
  7  6  1  0
  8  7  2  0
  9  8  1  0
 10 11  1  0
 10  9  2  0
 11 12  2  0
 12  4  1  0
 12  7  1  0
 13 14  2  0
 15 16  1  0
 15 13  1  0
 16 17  1  1
 18 22  1  0
 18 17  1  0
 19 18  2  0
 20 19  1  0
 20 21  1  0
 21 22  2  0
 23 24  2  0
 23 16  1  0
 25 23  1  0
 26 25  1  0
 27 26  1  0
 27 29  1  0
 28 27  2  0
M  END
$$$$
