WHG.pdb
     RDKit          3D

 29 31  0  0  1  0  0  0  0  0999 V2000
    6.2611  -17.3519   23.3063 N   0  0  0  0  0  0  0  0  0  0  0  0
    7.2242  -16.2894   23.2136 C   0  0  1  0  0  0  0  0  0  0  0  0
    7.9296  -16.2277   24.5686 C   0  0  0  0  0  0  0  0  0  0  0  0
    7.2000  -15.3216   25.4761 C   0  0  0  0  0  0  0  0  0  0  0  0
    6.1955  -15.6908   26.3684 C   0  0  0  0  0  0  0  0  0  0  0  0
    5.7627  -14.6051   27.0268 N   0  0  0  0  0  0  0  0  0  0  0  0
    6.4531  -13.5293   26.5945 C   0  0  0  0  0  0  0  0  0  0  0  0
    6.3836  -12.1833   26.9579 C   0  0  0  0  0  0  0  0  0  0  0  0
    7.2081  -11.2515   26.3635 C   0  0  0  0  0  0  0  0  0  0  0  0
    8.0882  -11.7108   25.4095 C   0  0  0  0  0  0  0  0  0  0  0  0
    8.1740  -13.0344   25.0354 C   0  0  0  0  0  0  0  0  0  0  0  0
    7.3498  -13.9675   25.6291 C   0  0  0  0  0  0  0  0  0  0  0  0
    8.2543  -16.5988   22.1826 C   0  0  0  0  0  0  0  0  0  0  0  0
    8.4867  -17.7877   21.8460 O   0  0  0  0  0  0  0  0  0  0  0  0
    8.9843  -15.5765   21.5669 N   0  0  0  0  0  0  0  0  0  0  0  0
    9.9763  -15.8399   20.5042 C   0  0  1  0  0  0  0  0  0  0  0  0
   10.1015  -14.6586   19.6036 C   0  0  0  0  0  0  0  0  0  0  0  0
    9.0282  -14.5030   18.6111 C   0  0  0  0  0  0  0  0  0  0  0  0
    8.0335  -15.4625   18.3850 C   0  0  0  0  0  0  0  0  0  0  0  0
    7.2325  -15.0101   17.4328 N   0  0  0  0  0  0  0  0  0  0  0  0
    7.6508  -13.8106   17.0278 C   0  0  0  0  0  0  0  0  0  0  0  0
    8.7334  -13.5247   17.7506 N   0  0  0  0  0  0  0  0  0  0  0  0
   11.2346  -16.2430   21.1812 C   0  0  0  0  0  0  0  0  0  0  0  0
   11.8038  -15.5561   22.0592 O   0  0  0  0  0  0  0  0  0  0  0  0
   11.9041  -17.4808   20.8685 N   0  0  0  0  0  0  0  0  0  0  0  0
   13.0652  -17.9277   21.5852 C   0  0  0  0  0  0  0  0  0  0  0  0
   14.3216  -17.3566   21.0516 C   0  0  0  0  0  0  0  0  0  0  0  0
   14.3185  -16.5488   20.0981 O   0  0  0  0  0  0  0  0  0  0  0  0
   15.5400  -17.7112   21.6061 O   0  0  0  0  0  0  0  0  0  0  0  0
  2 13  1  0
  2  1  1  1
  3  4  1  0
  3  2  1  0
  4  5  2  0
  5  6  1  0
  7  6  1  0
  8  7  2  0
  9  8  1  0
 10 11  1  0
 10  9  2  0
 11 12  2  0
 12  4  1  0
 12  7  1  0
 13 14  2  0
 15 16  1  0
 15 13  1  0
 16 17  1  1
 18 22  1  0
 18 17  1  0
 19 18  2  0
 20 19  1  0
 20 21  1  0
 21 22  2  0
 23 24  2  0
 23 16  1  0
 25 23  1  0
 26 25  1  0
 27 26  1  0
 27 29  1  0
 28 27  2  0
M  END
$$$$
