WHG.pdb
     RDKit          3D

 29 31  0  0  1  0  0  0  0  0999 V2000
    6.5462  -17.5616   23.4807 N   0  0  0  0  0  0  0  0  0  0  0  0
    7.2813  -16.3301   23.3912 C   0  0  1  0  0  0  0  0  0  0  0  0
    7.8992  -16.0958   24.7698 C   0  0  0  0  0  0  0  0  0  0  0  0
    7.0818  -15.1321   25.5315 C   0  0  0  0  0  0  0  0  0  0  0  0
    5.9343  -15.4302   26.2634 C   0  0  0  0  0  0  0  0  0  0  0  0
    5.4572  -14.3075   26.8216 N   0  0  0  0  0  0  0  0  0  0  0  0
    6.2574  -13.2764   26.4789 C   0  0  0  0  0  0  0  0  0  0  0  0
    6.1970  -11.9184   26.7967 C   0  0  0  0  0  0  0  0  0  0  0  0
    7.1477  -11.0418   26.3182 C   0  0  0  0  0  0  0  0  0  0  0  0
    8.1422  -11.5674   25.5242 C   0  0  0  0  0  0  0  0  0  0  0  0
    8.2214  -12.9040   25.1978 C   0  0  0  0  0  0  0  0  0  0  0  0
    7.2711  -13.7819   25.6758 C   0  0  0  0  0  0  0  0  0  0  0  0
    8.3974  -16.4515   22.4116 C   0  0  0  0  0  0  0  0  0  0  0  0
    8.6678  -17.5597   21.8827 O   0  0  0  0  0  0  0  0  0  0  0  0
    9.1677  -15.3383   22.0584 N   0  0  0  0  0  0  0  0  0  0  0  0
   10.2014  -15.3917   21.0042 C   0  0  1  0  0  0  0  0  0  0  0  0
   10.1471  -14.1652   20.1585 C   0  0  0  0  0  0  0  0  0  0  0  0
    8.9950  -14.0738   19.2498 C   0  0  0  0  0  0  0  0  0  0  0  0
    7.8776  -13.2648   19.4904 C   0  0  0  0  0  0  0  0  0  0  0  0
    7.0329  -13.4173   18.4823 N   0  0  0  0  0  0  0  0  0  0  0  0
    7.5389  -14.2798   17.6004 C   0  0  0  0  0  0  0  0  0  0  0  0
    8.7210  -14.6627   18.0825 N   0  0  0  0  0  0  0  0  0  0  0  0
   11.4999  -15.6204   21.6867 C   0  0  0  0  0  0  0  0  0  0  0  0
   12.6061  -15.6070   21.1013 O   0  0  0  0  0  0  0  0  0  0  0  0
   11.5800  -15.8796   23.1026 N   0  0  0  0  0  0  0  0  0  0  0  0
   12.8199  -16.1890   23.7572 C   0  0  0  0  0  0  0  0  0  0  0  0
   13.2227  -17.6017   23.5809 C   0  0  0  0  0  0  0  0  0  0  0  0
   14.2415  -18.0646   24.1372 O   0  0  0  0  0  0  0  0  0  0  0  0
   12.4686  -18.4484   22.7859 O   0  0  0  0  0  0  0  0  0  0  0  0
  2 13  1  0
  2  1  1  1
  3  4  1  0
  3  2  1  0
  4  5  2  0
  5  6  1  0
  7  6  1  0
  8  7  2  0
  9  8  1  0
 10 11  1  0
 10  9  2  0
 11 12  2  0
 12  4  1  0
 12  7  1  0
 13 14  2  0
 15 16  1  0
 15 13  1  0
 16 17  1  1
 18 22  1  0
 18 17  1  0
 19 18  2  0
 20 19  1  0
 20 21  1  0
 21 22  2  0
 23 24  2  0
 23 16  1  0
 25 23  1  0
 26 25  1  0
 27 26  1  0
 27 29  1  0
 28 27  2  0
M  END
$$$$
