WHG.pdb
     RDKit          3D

 29 31  0  0  1  0  0  0  0  0999 V2000
    7.2319  -17.5466   25.5931 N   0  0  0  0  0  0  0  0  0  0  0  0
    7.1544  -17.0823   24.2354 C   0  0  1  0  0  0  0  0  0  0  0  0
    6.6038  -15.6574   24.2979 C   0  0  0  0  0  0  0  0  0  0  0  0
    7.2287  -14.9239   25.4151 C   0  0  0  0  0  0  0  0  0  0  0  0
    8.2808  -15.3794   26.2071 C   0  0  0  0  0  0  0  0  0  0  0  0
    8.5854  -14.4476   27.1228 N   0  0  0  0  0  0  0  0  0  0  0  0
    7.7643  -13.3896   26.9579 C   0  0  0  0  0  0  0  0  0  0  0  0
    7.6731  -12.1784   27.6458 C   0  0  0  0  0  0  0  0  0  0  0  0
    6.7342  -11.2348   27.2860 C   0  0  0  0  0  0  0  0  0  0  0  0
    5.9059  -11.5451   26.2308 C   0  0  0  0  0  0  0  0  0  0  0  0
    5.9781  -12.7341   25.5377 C   0  0  0  0  0  0  0  0  0  0  0  0
    6.9169  -13.6787   25.8966 C   0  0  0  0  0  0  0  0  0  0  0  0
    8.5105  -17.0153   23.6220 C   0  0  0  0  0  0  0  0  0  0  0  0
    9.2043  -18.0551   23.4864 O   0  0  0  0  0  0  0  0  0  0  0  0
    9.0416  -15.7974   23.1839 N   0  0  0  0  0  0  0  0  0  0  0  0
    9.9921  -15.7067   22.0565 C   0  0  1  0  0  0  0  0  0  0  0  0
    9.8616  -14.3902   21.3694 C   0  0  0  0  0  0  0  0  0  0  0  0
    8.7280  -14.2707   20.4412 C   0  0  0  0  0  0  0  0  0  0  0  0
    7.8348  -15.3136   20.1666 C   0  0  0  0  0  0  0  0  0  0  0  0
    6.9407  -14.8728   19.2953 N   0  0  0  0  0  0  0  0  0  0  0  0
    7.2029  -13.6020   18.9884 C   0  0  0  0  0  0  0  0  0  0  0  0
    8.2832  -13.2596   19.6897 N   0  0  0  0  0  0  0  0  0  0  0  0
   11.3411  -15.9904   22.6079 C   0  0  0  0  0  0  0  0  0  0  0  0
   12.3955  -15.9252   21.9367 O   0  0  0  0  0  0  0  0  0  0  0  0
   11.5360  -16.3692   23.9851 N   0  0  0  0  0  0  0  0  0  0  0  0
   12.8418  -16.5498   24.5540 C   0  0  0  0  0  0  0  0  0  0  0  0
   13.4018  -17.8928   24.2855 C   0  0  0  0  0  0  0  0  0  0  0  0
   12.7918  -18.7259   23.5816 O   0  0  0  0  0  0  0  0  0  0  0  0
   14.6282  -18.2563   24.8162 O   0  0  0  0  0  0  0  0  0  0  0  0
  2 13  1  0
  2  1  1  1
  3  4  1  0
  3  2  1  0
  4  5  2  0
  5  6  1  0
  7  6  1  0
  8  7  2  0
  9  8  1  0
 10 11  1  0
 10  9  2  0
 11 12  2  0
 12  4  1  0
 12  7  1  0
 13 14  2  0
 15 16  1  0
 15 13  1  0
 16 17  1  1
 18 22  1  0
 18 17  1  0
 19 18  2  0
 20 19  1  0
 20 21  1  0
 21 22  2  0
 23 24  2  0
 23 16  1  0
 25 23  1  0
 26 25  1  0
 27 26  1  0
 27 29  1  0
 28 27  2  0
M  END
$$$$
