WHG.pdb
     RDKit          3D

 29 31  0  0  1  0  0  0  0  0999 V2000
    6.4137  -18.1787   23.8275 N   0  0  0  0  0  0  0  0  0  0  0  0
    6.9661  -16.8523   23.8535 C   0  0  1  0  0  0  0  0  0  0  0  0
    7.3846  -16.5881   25.3000 C   0  0  0  0  0  0  0  0  0  0  0  0
    6.7509  -15.3490   25.7900 C   0  0  0  0  0  0  0  0  0  0  0  0
    5.3870  -15.1536   25.9975 C   0  0  0  0  0  0  0  0  0  0  0  0
    5.1783  -13.9066   26.4457 N   0  0  0  0  0  0  0  0  0  0  0  0
    6.3660  -13.2729   26.5400 C   0  0  0  0  0  0  0  0  0  0  0  0
    6.6892  -11.9780   26.9493 C   0  0  0  0  0  0  0  0  0  0  0  0
    8.0003  -11.5511   26.9599 C   0  0  0  0  0  0  0  0  0  0  0  0
    8.9569  -12.4537   26.5524 C   0  0  0  0  0  0  0  0  0  0  0  0
    8.6608  -13.7362   26.1446 C   0  0  0  0  0  0  0  0  0  0  0  0
    7.3498  -14.1646   26.1335 C   0  0  0  0  0  0  0  0  0  0  0  0
    8.1905  -16.7736   23.0082 C   0  0  0  0  0  0  0  0  0  0  0  0
    8.8206  -17.8155   22.6949 O   0  0  0  0  0  0  0  0  0  0  0  0
    8.6657  -15.5421   22.5448 N   0  0  0  0  0  0  0  0  0  0  0  0
    9.8422  -15.4289   21.6584 C   0  0  1  0  0  0  0  0  0  0  0  0
    9.7860  -14.1607   20.8770 C   0  0  0  0  0  0  0  0  0  0  0  0
    8.8511  -14.1574   19.7425 C   0  0  0  0  0  0  0  0  0  0  0  0
    8.2032  -15.3037   19.2659 C   0  0  0  0  0  0  0  0  0  0  0  0
    7.4388  -14.9511   18.2439 N   0  0  0  0  0  0  0  0  0  0  0  0
    7.5537  -13.6401   18.0300 C   0  0  0  0  0  0  0  0  0  0  0  0
    8.4091  -13.1821   18.9437 N   0  0  0  0  0  0  0  0  0  0  0  0
   11.0436  -15.5782   22.5177 C   0  0  0  0  0  0  0  0  0  0  0  0
   11.1758  -15.0241   23.6322 O   0  0  0  0  0  0  0  0  0  0  0  0
   12.1671  -16.3896   22.1207 N   0  0  0  0  0  0  0  0  0  0  0  0
   13.3275  -16.5525   22.9504 C   0  0  0  0  0  0  0  0  0  0  0  0
   14.3246  -17.4753   22.3643 C   0  0  0  0  0  0  0  0  0  0  0  0
   14.0678  -18.1537   21.3467 O   0  0  0  0  0  0  0  0  0  0  0  0
   15.5772  -17.6062   22.9401 O   0  0  0  0  0  0  0  0  0  0  0  0
  2 13  1  0
  2  1  1  1
  3  4  1  0
  3  2  1  0
  4  5  2  0
  5  6  1  0
  7  6  1  0
  8  7  2  0
  9  8  1  0
 10 11  1  0
 10  9  2  0
 11 12  2  0
 12  4  1  0
 12  7  1  0
 13 14  2  0
 15 16  1  0
 15 13  1  0
 16 17  1  1
 18 22  1  0
 18 17  1  0
 19 18  2  0
 20 19  1  0
 20 21  1  0
 21 22  2  0
 23 24  2  0
 23 16  1  0
 25 23  1  0
 26 25  1  0
 27 26  1  0
 27 29  1  0
 28 27  2  0
M  END
$$$$
