WHG.pdb
     RDKit          3D

 29 31  0  0  1  0  0  0  0  0999 V2000
    6.6941  -18.8868   25.0291 N   0  0  0  0  0  0  0  0  0  0  0  0
    6.7011  -17.4672   24.8066 C   0  0  1  0  0  0  0  0  0  0  0  0
    7.4731  -16.8518   25.9739 C   0  0  0  0  0  0  0  0  0  0  0  0
    7.0144  -15.4693   26.2089 C   0  0  0  0  0  0  0  0  0  0  0  0
    5.6954  -15.0237   26.1535 C   0  0  0  0  0  0  0  0  0  0  0  0
    5.6570  -13.7096   26.4207 N   0  0  0  0  0  0  0  0  0  0  0  0
    6.9136  -13.2749   26.6510 C   0  0  0  0  0  0  0  0  0  0  0  0
    7.4064  -12.0078   26.9677 C   0  0  0  0  0  0  0  0  0  0  0  0
    8.7569  -11.8070   27.1599 C   0  0  0  0  0  0  0  0  0  0  0  0
    9.5793  -12.9031   27.0255 C   0  0  0  0  0  0  0  0  0  0  0  0
    9.1148  -14.1625   26.7136 C   0  0  0  0  0  0  0  0  0  0  0  0
    7.7641  -14.3648   26.5211 C   0  0  0  0  0  0  0  0  0  0  0  0
    7.4353  -17.1326   23.5540 C   0  0  0  0  0  0  0  0  0  0  0  0
    8.2346  -17.9563   23.0406 O   0  0  0  0  0  0  0  0  0  0  0  0
    7.2527  -15.8979   22.9221 N   0  0  0  0  0  0  0  0  0  0  0  0
    7.7975  -15.6057   21.5803 C   0  0  1  0  0  0  0  0  0  0  0  0
    7.0818  -14.4506   20.9673 C   0  0  0  0  0  0  0  0  0  0  0  0
    7.5195  -14.0813   19.6133 C   0  0  0  0  0  0  0  0  0  0  0  0
    8.2432  -12.9188   19.3203 C   0  0  0  0  0  0  0  0  0  0  0  0
    8.4730  -12.8932   18.0167 N   0  0  0  0  0  0  0  0  0  0  0  0
    7.9392  -13.9738   17.4464 C   0  0  0  0  0  0  0  0  0  0  0  0
    7.3701  -14.6754   18.4262 N   0  0  0  0  0  0  0  0  0  0  0  0
    9.2611  -15.4165   21.7426 C   0  0  0  0  0  0  0  0  0  0  0  0
   10.0349  -15.1307   20.8012 O   0  0  0  0  0  0  0  0  0  0  0  0
    9.9083  -15.5512   23.0237 N   0  0  0  0  0  0  0  0  0  0  0  0
   11.3207  -15.3575   23.1941 C   0  0  0  0  0  0  0  0  0  0  0  0
   12.1104  -16.5541   22.8279 C   0  0  0  0  0  0  0  0  0  0  0  0
   13.3544  -16.5761   22.9441 O   0  0  0  0  0  0  0  0  0  0  0  0
   11.4773  -17.6864   22.3434 O   0  0  0  0  0  0  0  0  0  0  0  0
  2 13  1  0
  2  1  1  1
  3  4  1  0
  3  2  1  0
  4  5  2  0
  5  6  1  0
  7  6  1  0
  8  7  2  0
  9  8  1  0
 10 11  1  0
 10  9  2  0
 11 12  2  0
 12  4  1  0
 12  7  1  0
 13 14  2  0
 15 16  1  0
 15 13  1  0
 16 17  1  1
 18 22  1  0
 18 17  1  0
 19 18  2  0
 20 19  1  0
 20 21  1  0
 21 22  2  0
 23 24  2  0
 23 16  1  0
 25 23  1  0
 26 25  1  0
 27 26  1  0
 27 29  1  0
 28 27  2  0
M  END
$$$$
