QYD.pdb
     RDKit          3D

 30 30  0  0  1  0  0  0  0  0999 V2000
   27.2724  -23.6009  -19.6275 N   0  0  0  0  0  0  0  0  0  0  0  0
   28.6980  -23.4322  -19.5850 C   0  0  0  0  0  0  0  0  0  0  0  0
   29.2877  -23.4325  -20.6762 O   0  0  0  0  0  0  0  0  0  0  0  0
   29.2961  -23.2770  -18.2481 C   0  0  0  0  0  0  0  0  0  0  0  0
   28.3360  -23.4445  -17.1048 C   0  0  0  0  0  0  0  0  0  0  0  0
   27.5243  -22.1882  -16.9454 C   0  0  2  0  0  0  0  0  0  0  0  0
   28.4274  -21.0487  -16.9794 N   0  0  0  0  0  0  0  0  0  0  0  0
   26.7662  -22.1442  -15.6898 C   0  0  0  0  0  0  0  0  0  0  0  0
   26.0893  -23.1458  -15.3525 O   0  0  0  0  0  0  0  0  0  0  0  0
   23.3207  -20.9412   -7.8803 O   0  0  0  0  0  0  0  0  0  0  0  0
   24.0840  -20.7476   -9.0337 C   0  0  0  0  0  0  0  0  0  0  0  0
   23.5508  -20.1125  -10.1362 C   0  0  0  0  0  0  0  0  0  0  0  0
   24.3176  -19.9283  -11.2694 C   0  0  0  0  0  0  0  0  0  0  0  0
   25.6218  -20.3695  -11.3280 C   0  0  0  0  0  0  0  0  0  0  0  0
   26.4824  -20.1929  -12.5240 C   0  0  0  0  0  0  0  0  0  0  0  0
   25.9114  -20.9982  -13.6705 C   0  0  2  0  0  0  0  0  0  0  0  0
   26.7554  -21.0103  -14.8191 N   0  0  0  0  0  0  0  0  0  0  0  0
   24.5581  -20.4425  -13.9576 C   0  0  0  0  0  0  0  0  0  0  0  0
   24.3838  -19.3409  -14.5374 O   0  0  0  0  0  0  0  0  0  0  0  0
   26.1565  -21.0035  -10.2295 C   0  0  0  0  0  0  0  0  0  0  0  0
   25.3889  -21.1886   -9.0935 C   0  0  0  0  0  0  0  0  0  0  0  0
   23.4113  -21.1700  -13.5691 N   0  0  0  0  0  0  0  0  0  0  0  0
   22.0546  -20.7169  -13.8862 C   0  0  1  0  0  0  0  0  0  0  0  0
   21.7981  -20.7324  -15.3510 C   0  0  0  0  0  0  0  0  0  0  0  0
   20.4458  -20.2267  -15.6645 C   0  0  0  0  0  0  0  0  0  0  0  0
   19.4623  -21.0352  -15.8348 O   0  0  0  0  0  0  0  0  0  0  0  0
   21.0747  -21.6353  -13.2170 C   0  0  0  0  0  0  0  0  0  0  0  0
   19.9179  -21.2638  -12.6049 O   0  0  0  0  0  0  0  0  0  0  0  0
   20.1260  -18.8924  -15.8013 O   0  0  0  0  0  0  0  0  0  0  0  0
   21.3338  -22.8859  -13.2113 O   0  0  0  0  0  0  0  0  0  0  0  0
  1  2  1  0
  2  3  2  0
  4  5  1  0
  4  2  1  0
  6  7  1  1
  6  5  1  0
  8  6  1  0
  9  8  2  0
 10 11  1  0
 11 12  2  0
 11 21  1  0
 12 13  1  0
 13 14  2  0
 14 15  1  0
 16 15  1  1
 16 17  1  0
 17  8  1  0
 18 22  1  0
 18 16  1  0
 19 18  2  0
 20 14  1  0
 21 20  2  0
 23 27  1  0
 23 22  1  0
 23 24  1  6
 25 24  1  0
 25 26  2  0
 27 28  1  0
 29 25  1  0
 30 27  2  0
M  END
$$$$
