QYD.pdb
     RDKit          3D

 30 30  0  0  1  0  0  0  0  0999 V2000
   17.3350  -12.8003  -19.1203 N   0  0  0  0  0  0  0  0  0  0  0  0
   18.5788  -13.4107  -19.4987 C   0  0  0  0  0  0  0  0  0  0  0  0
   18.5413  -14.1906  -20.4624 O   0  0  0  0  0  0  0  0  0  0  0  0
   19.7573  -13.0385  -18.6977 C   0  0  0  0  0  0  0  0  0  0  0  0
   19.4788  -12.0816  -17.5735 C   0  0  0  0  0  0  0  0  0  0  0  0
   20.3809  -10.8848  -17.7006 C   0  0  2  0  0  0  0  0  0  0  0  0
   21.7582  -11.3281  -17.5533 N   0  0  0  0  0  0  0  0  0  0  0  0
   20.1149   -9.8498  -16.6950 C   0  0  0  0  0  0  0  0  0  0  0  0
   18.9279   -9.5068  -16.4744 O   0  0  0  0  0  0  0  0  0  0  0  0
   19.1721   -5.4892   -9.5112 O   0  0  0  0  0  0  0  0  0  0  0  0
   19.7930   -6.1674  -10.5623 C   0  0  0  0  0  0  0  0  0  0  0  0
   19.5383   -7.5039  -10.7900 C   0  0  0  0  0  0  0  0  0  0  0  0
   20.1596   -8.1611  -11.8331 C   0  0  0  0  0  0  0  0  0  0  0  0
   21.0410   -7.5058  -12.6654 C   0  0  0  0  0  0  0  0  0  0  0  0
   21.7309   -8.1715  -13.7981 C   0  0  0  0  0  0  0  0  0  0  0  0
   20.8116   -8.1881  -14.9996 C   0  0  2  0  0  0  0  0  0  0  0  0
   21.1447   -9.2027  -15.9435 N   0  0  0  0  0  0  0  0  0  0  0  0
   20.8471   -6.8196  -15.5901 C   0  0  0  0  0  0  0  0  0  0  0  0
   21.8794   -6.3321  -16.1161 O   0  0  0  0  0  0  0  0  0  0  0  0
   21.2971   -6.1722  -12.4407 C   0  0  0  0  0  0  0  0  0  0  0  0
   20.6751   -5.5128  -11.3957 C   0  0  0  0  0  0  0  0  0  0  0  0
   19.6814   -6.0221  -15.5669 N   0  0  0  0  0  0  0  0  0  0  0  0
   19.6485   -4.6707  -16.1316 C   0  0  1  0  0  0  0  0  0  0  0  0
   18.3665   -4.4000  -16.8352 C   0  0  0  0  0  0  0  0  0  0  0  0
   18.3032   -5.1120  -18.1283 C   0  0  0  0  0  0  0  0  0  0  0  0
   19.3648   -5.5902  -18.6707 O   0  0  0  0  0  0  0  0  0  0  0  0
   19.8016   -3.6812  -15.0141 C   0  0  0  0  0  0  0  0  0  0  0  0
   19.7185   -3.9555  -13.6842 O   0  0  0  0  0  0  0  0  0  0  0  0
   17.1449   -5.3188  -18.8471 O   0  0  0  0  0  0  0  0  0  0  0  0
   20.0316   -2.4628  -15.3206 O   0  0  0  0  0  0  0  0  0  0  0  0
  1  2  1  0
  2  3  2  0
  4  5  1  0
  4  2  1  0
  6  7  1  1
  6  5  1  0
  8  6  1  0
  9  8  2  0
 10 11  1  0
 11 12  2  0
 11 21  1  0
 12 13  1  0
 13 14  2  0
 14 15  1  0
 16 15  1  1
 16 17  1  0
 17  8  1  0
 18 22  1  0
 18 16  1  0
 19 18  2  0
 20 14  1  0
 21 20  2  0
 23 27  1  0
 23 22  1  0
 23 24  1  1
 25 24  1  0
 25 26  2  0
 27 28  1  0
 29 25  1  0
 30 27  2  0
M  END
$$$$
