QYD.pdb
     RDKit          3D

 30 30  0  0  1  0  0  0  0  0999 V2000
   27.2568  -10.8307  -21.2038 N   0  0  0  0  0  0  0  0  0  0  0  0
   27.7230  -12.1490  -20.8758 C   0  0  0  0  0  0  0  0  0  0  0  0
   28.7377  -12.5409  -21.4717 O   0  0  0  0  0  0  0  0  0  0  0  0
   26.9411  -12.8841  -19.8672 C   0  0  0  0  0  0  0  0  0  0  0  0
   25.8059  -12.1085  -19.2614 C   0  0  0  0  0  0  0  0  0  0  0  0
   25.0905  -12.9710  -18.2581 C   0  0  2  0  0  0  0  0  0  0  0  0
   24.6770  -14.1993  -18.9179 N   0  0  0  0  0  0  0  0  0  0  0  0
   23.9028  -12.3280  -17.6844 C   0  0  0  0  0  0  0  0  0  0  0  0
   22.7901  -12.5001  -18.2391 O   0  0  0  0  0  0  0  0  0  0  0  0
   20.9616  -16.9231  -14.7020 O   0  0  0  0  0  0  0  0  0  0  0  0
   21.3112  -15.5713  -14.6743 C   0  0  0  0  0  0  0  0  0  0  0  0
   20.3909  -14.5960  -14.9982 C   0  0  0  0  0  0  0  0  0  0  0  0
   20.7512  -13.2636  -14.9663 C   0  0  0  0  0  0  0  0  0  0  0  0
   22.0262  -12.8774  -14.6138 C   0  0  0  0  0  0  0  0  0  0  0  0
   22.4571  -11.4582  -14.5656 C   0  0  0  0  0  0  0  0  0  0  0  0
   22.7368  -10.9756  -15.9719 C   0  0  2  0  0  0  0  0  0  0  0  0
   23.9429  -11.5067  -16.5149 N   0  0  0  0  0  0  0  0  0  0  0  0
   22.7344   -9.4854  -15.9261 C   0  0  0  0  0  0  0  0  0  0  0  0
   23.7427   -8.8132  -15.5923 O   0  0  0  0  0  0  0  0  0  0  0  0
   22.9466  -13.8483  -14.2901 C   0  0  0  0  0  0  0  0  0  0  0  0
   22.5866  -15.1837  -14.3218 C   0  0  0  0  0  0  0  0  0  0  0  0
   21.5586   -8.7815  -16.2688 N   0  0  0  0  0  0  0  0  0  0  0  0
   21.4892   -7.3183  -16.2439 C   0  0  1  0  0  0  0  0  0  0  0  0
   20.7738   -6.7815  -17.4320 C   0  0  0  0  0  0  0  0  0  0  0  0
   20.6333   -5.3127  -17.3557 C   0  0  0  0  0  0  0  0  0  0  0  0
   21.4897   -4.6005  -16.7159 O   0  0  0  0  0  0  0  0  0  0  0  0
   20.7521   -6.8951  -15.0074 C   0  0  0  0  0  0  0  0  0  0  0  0
   20.7413   -5.6455  -14.4693 O   0  0  0  0  0  0  0  0  0  0  0  0
   19.6085   -4.5974  -17.9382 O   0  0  0  0  0  0  0  0  0  0  0  0
   20.0654   -7.7764  -14.3885 O   0  0  0  0  0  0  0  0  0  0  0  0
  1  2  1  0
  2  3  2  0
  4  5  1  0
  4  2  1  0
  6  7  1  6
  6  5  1  0
  8  6  1  0
  9  8  2  0
 10 11  1  0
 11 12  2  0
 11 21  1  0
 12 13  1  0
 13 14  2  0
 14 15  1  0
 16 15  1  1
 16 17  1  0
 17  8  1  0
 18 22  1  0
 18 16  1  0
 19 18  2  0
 20 14  1  0
 21 20  2  0
 23 27  1  0
 23 22  1  0
 23 24  1  6
 25 24  1  0
 25 26  2  0
 27 28  1  0
 29 25  1  0
 30 27  2  0
M  END
$$$$
