QYD.pdb
     RDKit          3D

 30 30  0  0  1  0  0  0  0  0999 V2000
   27.3113  -21.2356  -19.7018 N   0  0  0  0  0  0  0  0  0  0  0  0
   27.7119  -22.3105  -20.5661 C   0  0  0  0  0  0  0  0  0  0  0  0
   28.4406  -22.0083  -21.5231 O   0  0  0  0  0  0  0  0  0  0  0  0
   27.2106  -23.6501  -20.2148 C   0  0  0  0  0  0  0  0  0  0  0  0
   26.3347  -23.6955  -18.9949 C   0  0  0  0  0  0  0  0  0  0  0  0
   27.1958  -23.7243  -17.7620 C   0  0  2  0  0  0  0  0  0  0  0  0
   27.7875  -25.0475  -17.6439 N   0  0  0  0  0  0  0  0  0  0  0  0
   26.4530  -23.4347  -16.5302 C   0  0  0  0  0  0  0  0  0  0  0  0
   25.7870  -24.3521  -15.9915 O   0  0  0  0  0  0  0  0  0  0  0  0
   23.3359  -20.7332   -8.9699 O   0  0  0  0  0  0  0  0  0  0  0  0
   24.0168  -20.7355  -10.1893 C   0  0  0  0  0  0  0  0  0  0  0  0
   23.5028  -20.0776  -11.2874 C   0  0  0  0  0  0  0  0  0  0  0  0
   24.1872  -20.0886  -12.4864 C   0  0  0  0  0  0  0  0  0  0  0  0
   25.3891  -20.7502  -12.6158 C   0  0  0  0  0  0  0  0  0  0  0  0
   26.1589  -20.7882  -13.8840 C   0  0  0  0  0  0  0  0  0  0  0  0
   25.6501  -21.9268  -14.7405 C   0  0  2  0  0  0  0  0  0  0  0  0
   26.4455  -22.1505  -15.9019 N   0  0  0  0  0  0  0  0  0  0  0  0
   24.2284  -21.6197  -15.0679 C   0  0  0  0  0  0  0  0  0  0  0  0
   23.8941  -20.6827  -15.8362 O   0  0  0  0  0  0  0  0  0  0  0  0
   25.9045  -21.4075  -11.5218 C   0  0  0  0  0  0  0  0  0  0  0  0
   25.2194  -21.3970  -10.3200 C   0  0  0  0  0  0  0  0  0  0  0  0
   23.1995  -22.4038  -14.5005 N   0  0  0  0  0  0  0  0  0  0  0  0
   21.7829  -22.1493  -14.7735 C   0  0  1  0  0  0  0  0  0  0  0  0
   21.0435  -23.4074  -15.0602 C   0  0  0  0  0  0  0  0  0  0  0  0
   19.6310  -23.1349  -15.3974 C   0  0  0  0  0  0  0  0  0  0  0  0
   18.7251  -24.0268  -15.2136 O   0  0  0  0  0  0  0  0  0  0  0  0
   21.1726  -21.4974  -13.5677 C   0  0  0  0  0  0  0  0  0  0  0  0
   21.3586  -21.8734  -12.2735 O   0  0  0  0  0  0  0  0  0  0  0  0
   19.1716  -21.9460  -15.9233 O   0  0  0  0  0  0  0  0  0  0  0  0
   20.4040  -20.4945  -13.7537 O   0  0  0  0  0  0  0  0  0  0  0  0
  1  2  1  0
  2  3  2  0
  4  5  1  0
  4  2  1  0
  6  7  1  1
  6  5  1  0
  8  6  1  0
  9  8  2  0
 10 11  1  0
 11 12  2  0
 11 21  1  0
 12 13  1  0
 13 14  2  0
 14 15  1  0
 16 15  1  6
 16 17  1  0
 17  8  1  0
 18 22  1  0
 18 16  1  0
 19 18  2  0
 20 14  1  0
 21 20  2  0
 23 27  1  0
 23 22  1  0
 23 24  1  1
 25 24  1  0
 25 26  2  0
 27 28  1  0
 29 25  1  0
 30 27  2  0
M  END
$$$$
