QYD.pdb
     RDKit          3D

 30 30  0  0  1  0  0  0  0  0999 V2000
   17.2201  -11.3876  -19.7540 N   0  0  0  0  0  0  0  0  0  0  0  0
   18.3601  -12.2602  -19.7962 C   0  0  0  0  0  0  0  0  0  0  0  0
   18.4328  -13.0284  -20.7673 O   0  0  0  0  0  0  0  0  0  0  0  0
   19.3132  -12.1412  -18.6798 C   0  0  0  0  0  0  0  0  0  0  0  0
   18.9822  -11.0698  -17.6799 C   0  0  0  0  0  0  0  0  0  0  0  0
   20.0277  -11.0550  -16.5986 C   0  0  2  0  0  0  0  0  0  0  0  0
   19.9854  -12.3294  -15.8992 N   0  0  0  0  0  0  0  0  0  0  0  0
   19.8326   -9.9798  -15.6193 C   0  0  0  0  0  0  0  0  0  0  0  0
   18.6696   -9.7193  -15.2256 O   0  0  0  0  0  0  0  0  0  0  0  0
   19.8516   -4.6322   -8.9626 O   0  0  0  0  0  0  0  0  0  0  0  0
   20.3258   -5.4325  -10.0043 C   0  0  0  0  0  0  0  0  0  0  0  0
   21.0111   -4.8787  -11.0657 C   0  0  0  0  0  0  0  0  0  0  0  0
   21.4739   -5.6825  -12.0884 C   0  0  0  0  0  0  0  0  0  0  0  0
   21.2655   -7.0447  -12.0754 C   0  0  0  0  0  0  0  0  0  0  0  0
   21.7450   -7.9465  -13.1519 C   0  0  0  0  0  0  0  0  0  0  0  0
   20.6360   -8.1500  -14.1607 C   0  0  2  0  0  0  0  0  0  0  0  0
   20.9061   -9.2031  -15.0825 N   0  0  0  0  0  0  0  0  0  0  0  0
   20.4183   -6.8381  -14.8345 C   0  0  0  0  0  0  0  0  0  0  0  0
   21.2184   -6.3674  -15.6822 O   0  0  0  0  0  0  0  0  0  0  0  0
   20.5820   -7.6000  -11.0175 C   0  0  0  0  0  0  0  0  0  0  0  0
   20.1179   -6.7954   -9.9924 C   0  0  0  0  0  0  0  0  0  0  0  0
   19.2704   -6.0773  -14.5202 N   0  0  0  0  0  0  0  0  0  0  0  0
   18.9950   -4.7831  -15.1492 C   0  0  1  0  0  0  0  0  0  0  0  0
   17.9072   -4.8827  -16.1584 C   0  0  0  0  0  0  0  0  0  0  0  0
   17.5947   -3.5622  -16.7428 C   0  0  0  0  0  0  0  0  0  0  0  0
   18.5310   -2.7371  -17.0468 O   0  0  0  0  0  0  0  0  0  0  0  0
   18.5751   -3.8131  -14.0842 C   0  0  0  0  0  0  0  0  0  0  0  0
   18.9060   -2.4948  -14.0257 O   0  0  0  0  0  0  0  0  0  0  0  0
   16.3190   -3.1085  -17.0034 O   0  0  0  0  0  0  0  0  0  0  0  0
   17.8380   -4.2472  -13.1357 O   0  0  0  0  0  0  0  0  0  0  0  0
  1  2  1  0
  2  3  2  0
  4  5  1  0
  4  2  1  0
  6  7  1  1
  6  5  1  0
  8  6  1  0
  9  8  2  0
 10 11  1  0
 11 12  2  0
 11 21  1  0
 12 13  1  0
 13 14  2  0
 14 15  1  0
 16 15  1  1
 16 17  1  0
 17  8  1  0
 18 22  1  0
 18 16  1  0
 19 18  2  0
 20 14  1  0
 21 20  2  0
 23 27  1  0
 23 22  1  0
 23 24  1  6
 25 24  1  0
 25 26  2  0
 27 28  1  0
 29 25  1  0
 30 27  2  0
M  END
$$$$
