QYD.pdb
     RDKit          3D

 30 30  0  0  1  0  0  0  0  0999 V2000
   16.2632  -14.5326  -15.6716 N   0  0  0  0  0  0  0  0  0  0  0  0
   16.9607  -15.2295  -16.7159 C   0  0  0  0  0  0  0  0  0  0  0  0
   16.3593  -16.1755  -17.2468 O   0  0  0  0  0  0  0  0  0  0  0  0
   18.3116  -14.7386  -17.0370 C   0  0  0  0  0  0  0  0  0  0  0  0
   18.7841  -13.5925  -16.1883 C   0  0  0  0  0  0  0  0  0  0  0  0
   19.3123  -12.4984  -17.0750 C   0  0  2  0  0  0  0  0  0  0  0  0
   20.5727  -12.9399  -17.6508 N   0  0  0  0  0  0  0  0  0  0  0  0
   19.5426  -11.2364  -16.3626 C   0  0  0  0  0  0  0  0  0  0  0  0
   18.5633  -10.6356  -15.8573 O   0  0  0  0  0  0  0  0  0  0  0  0
   22.6013   -3.5925  -13.5596 O   0  0  0  0  0  0  0  0  0  0  0  0
   22.5360   -4.9321  -13.9490 C   0  0  0  0  0  0  0  0  0  0  0  0
   22.1028   -5.9035  -13.0706 C   0  0  0  0  0  0  0  0  0  0  0  0
   22.0435   -7.2239  -13.4698 C   0  0  0  0  0  0  0  0  0  0  0  0
   22.4117   -7.6016  -14.7429 C   0  0  0  0  0  0  0  0  0  0  0  0
   22.3639   -9.0076  -15.2150 C   0  0  0  0  0  0  0  0  0  0  0  0
   20.9625   -9.3258  -15.6882 C   0  0  2  0  0  0  0  0  0  0  0  0
   20.8358  -10.6460  -16.2103 N   0  0  0  0  0  0  0  0  0  0  0  0
   20.5928   -8.2770  -16.6812 C   0  0  0  0  0  0  0  0  0  0  0  0
   21.0502   -8.2569  -17.8519 O   0  0  0  0  0  0  0  0  0  0  0  0
   22.8444   -6.6345  -15.6216 C   0  0  0  0  0  0  0  0  0  0  0  0
   22.9041   -5.3113  -15.2225 C   0  0  0  0  0  0  0  0  0  0  0  0
   19.6921   -7.2544  -16.3093 N   0  0  0  0  0  0  0  0  0  0  0  0
   19.3016   -6.1845  -17.2308 C   0  0  1  0  0  0  0  0  0  0  0  0
   18.0289   -6.5004  -17.9323 C   0  0  0  0  0  0  0  0  0  0  0  0
   17.6609   -5.4317  -18.8838 C   0  0  0  0  0  0  0  0  0  0  0  0
   18.4290   -4.4187  -19.0675 O   0  0  0  0  0  0  0  0  0  0  0  0
   19.1160   -4.9199  -16.4449 C   0  0  0  0  0  0  0  0  0  0  0  0
   19.7782   -3.7483  -16.6443 O   0  0  0  0  0  0  0  0  0  0  0  0
   16.5026   -5.4204  -19.6319 O   0  0  0  0  0  0  0  0  0  0  0  0
   18.2610   -4.9245  -15.4961 O   0  0  0  0  0  0  0  0  0  0  0  0
  1  2  1  0
  2  3  2  0
  4  5  1  0
  4  2  1  0
  6  7  1  1
  6  5  1  0
  8  6  1  0
  9  8  2  0
 10 11  1  0
 11 12  2  0
 11 21  1  0
 12 13  1  0
 13 14  2  0
 14 15  1  0
 16 15  1  6
 16 17  1  0
 17  8  1  0
 18 22  1  0
 18 16  1  0
 19 18  2  0
 20 14  1  0
 21 20  2  0
 23 27  1  0
 23 22  1  0
 23 24  1  1
 25 24  1  0
 25 26  2  0
 27 28  1  0
 29 25  1  0
 30 27  2  0
M  END
$$$$
