CIQ.pdb
     RDKit          3D

 24 23  0  0  1  0  0  0  0  0999 V2000
   28.5582  -21.0135  -15.4922 N   0  0  0  0  0  0  0  0  0  0  0  0
   27.8997  -20.1204  -14.5923 C   0  0  1  0  0  0  0  0  0  0  0  0
   27.4120  -18.8540  -15.2890 C   0  0  0  0  0  0  0  0  0  0  0  0
   28.8302  -17.8461  -15.8114 S   0  0  0  0  0  0  0  0  0  0  0  0
   26.7332  -20.7258  -13.9137 C   0  0  0  0  0  0  0  0  0  0  0  0
   26.0705  -21.6007  -14.5289 O   0  0  0  0  0  0  0  0  0  0  0  0
   26.3490  -20.6218   -8.4073 C   0  0  0  0  0  0  0  0  0  0  0  0
   26.3482  -21.2584   -9.7889 C   0  0  0  0  0  0  0  0  0  0  0  0
   25.1116  -20.7652  -10.4973 C   0  0  2  0  0  0  0  0  0  0  0  0
   23.9009  -21.4023   -9.8910 C   0  0  0  0  0  0  0  0  0  0  0  0
   25.1652  -21.0064  -11.9869 C   0  0  2  0  0  0  0  0  0  0  0  0
   26.3101  -20.3803  -12.6024 N   0  0  0  0  0  0  0  0  0  0  0  0
   23.8873  -20.5158  -12.5837 C   0  0  0  0  0  0  0  0  0  0  0  0
   23.6866  -19.2750  -12.6105 O   0  0  0  0  0  0  0  0  0  0  0  0
   20.6424  -23.4311  -16.9667 N   0  0  0  0  0  0  0  0  0  0  0  0
   19.9011  -22.2337  -16.8862 C   0  0  0  0  0  0  0  0  0  0  0  0
   18.9809  -21.9096  -17.6756 O   0  0  0  0  0  0  0  0  0  0  0  0
   20.2311  -21.2746  -15.7801 C   0  0  0  0  0  0  0  0  0  0  0  0
   21.4186  -21.7488  -14.9991 C   0  0  0  0  0  0  0  0  0  0  0  0
   21.7079  -20.8705  -13.8377 C   0  0  2  0  0  0  0  0  0  0  0  0
   22.9066  -21.3684  -13.1126 N   0  0  0  0  0  0  0  0  0  0  0  0
   20.6313  -20.8766  -12.8503 C   0  0  0  0  0  0  0  0  0  0  0  0
   19.5858  -19.9789  -12.9303 O   0  0  0  0  0  0  0  0  0  0  0  0
   20.6165  -21.6856  -11.9065 O   0  0  0  0  0  0  0  0  0  0  0  0
  2  1  1  6
  3  2  1  0
  4  3  1  0
  5  2  1  0
  5  6  2  0
  7  8  1  0
  8  9  1  0
  9 11  1  0
  9 10  1  1
 11 12  1  6
 12  5  1  0
 13 11  1  0
 14 13  2  0
 16 15  1  0
 17 16  2  0
 18 16  1  0
 19 18  1  0
 20 19  1  6
 20 21  1  0
 21 13  1  0
 22 20  1  0
 23 22  1  0
 24 22  2  0
M  END
$$$$
