CIQ.pdb
     RDKit          3D

 24 23  0  0  1  0  0  0  0  0999 V2000
   27.4521  -20.7850  -11.8097 N   0  0  0  0  0  0  0  0  0  0  0  0
   26.3392  -21.1115  -10.9754 C   0  0  1  0  0  0  0  0  0  0  0  0
   26.4530  -20.4846   -9.5893 C   0  0  0  0  0  0  0  0  0  0  0  0
   28.0721  -20.8721   -8.8625 S   0  0  0  0  0  0  0  0  0  0  0  0
   25.0387  -20.6928  -11.5419 C   0  0  0  0  0  0  0  0  0  0  0  0
   24.6020  -19.5480  -11.2561 O   0  0  0  0  0  0  0  0  0  0  0  0
   24.5004  -19.0983  -15.9810 C   0  0  0  0  0  0  0  0  0  0  0  0
   24.3311  -19.4464  -14.5098 C   0  0  0  0  0  0  0  0  0  0  0  0
   23.2910  -20.5357  -14.4347 C   0  0  2  0  0  0  0  0  0  0  0  0
   22.0233  -20.0610  -15.0726 C   0  0  0  0  0  0  0  0  0  0  0  0
   23.0465  -21.0033  -13.0199 C   0  0  2  0  0  0  0  0  0  0  0  0
   24.2452  -21.5064  -12.3943 N   0  0  0  0  0  0  0  0  0  0  0  0
   21.9709  -22.0387  -13.0517 C   0  0  0  0  0  0  0  0  0  0  0  0
   22.1754  -23.0817  -13.7232 O   0  0  0  0  0  0  0  0  0  0  0  0
   18.8036  -24.5936   -8.4892 N   0  0  0  0  0  0  0  0  0  0  0  0
   17.8401  -23.7141   -9.0259 C   0  0  0  0  0  0  0  0  0  0  0  0
   16.7070  -23.5068   -8.5277 O   0  0  0  0  0  0  0  0  0  0  0  0
   18.1883  -22.9703  -10.2820 C   0  0  0  0  0  0  0  0  0  0  0  0
   19.6125  -23.2214  -10.6735 C   0  0  0  0  0  0  0  0  0  0  0  0
   19.8285  -23.0446  -12.1317 C   0  0  2  0  0  0  0  0  0  0  0  0
   20.7509  -21.9036  -12.3721 N   0  0  0  0  0  0  0  0  0  0  0  0
   18.5987  -22.7008  -12.8413 C   0  0  0  0  0  0  0  0  0  0  0  0
   18.2786  -21.3866  -13.1169 O   0  0  0  0  0  0  0  0  0  0  0  0
   17.7991  -23.5735  -13.2212 O   0  0  0  0  0  0  0  0  0  0  0  0
  2  1  1  6
  3  2  1  0
  4  3  1  0
  5  2  1  0
  5  6  2  0
  7  8  1  0
  8  9  1  0
  9 11  1  0
  9 10  1  1
 11 12  1  6
 12  5  1  0
 13 11  1  0
 14 13  2  0
 16 15  1  0
 17 16  2  0
 18 16  1  0
 19 18  1  0
 20 19  1  1
 20 21  1  0
 21 13  1  0
 22 20  1  0
 23 22  1  0
 24 22  2  0
M  END
$$$$
