CIQ.pdb
     RDKit          3D

 24 23  0  0  1  0  0  0  0  0999 V2000
   19.5204  -19.3881  -11.9504 N   0  0  0  0  0  0  0  0  0  0  0  0
   20.3401  -20.5238  -12.2322 C   0  0  1  0  0  0  0  0  0  0  0  0
   19.7552  -21.3984  -13.3369 C   0  0  0  0  0  0  0  0  0  0  0  0
   18.2317  -22.1987  -12.7554 S   0  0  0  0  0  0  0  0  0  0  0  0
   21.7174  -20.1673  -12.6366 C   0  0  0  0  0  0  0  0  0  0  0  0
   21.9298  -19.0100  -13.0824 O   0  0  0  0  0  0  0  0  0  0  0  0
   25.8624  -21.0914   -9.5400 C   0  0  0  0  0  0  0  0  0  0  0  0
   24.8521  -20.4912  -10.5061 C   0  0  0  0  0  0  0  0  0  0  0  0
   25.1809  -21.0318  -11.8749 C   0  0  2  0  0  0  0  0  0  0  0  0
   26.5525  -20.5845  -12.2726 C   0  0  0  0  0  0  0  0  0  0  0  0
   24.1574  -20.6365  -12.9124 C   0  0  2  0  0  0  0  0  0  0  0  0
   22.8240  -21.0542  -12.5534 N   0  0  0  0  0  0  0  0  0  0  0  0
   24.5770  -21.2152  -14.2235 C   0  0  0  0  0  0  0  0  0  0  0  0
   24.3240  -22.4272  -14.4417 O   0  0  0  0  0  0  0  0  0  0  0  0
   20.9997  -19.5062  -16.5481 N   0  0  0  0  0  0  0  0  0  0  0  0
   21.2535  -20.6404  -17.3475 C   0  0  0  0  0  0  0  0  0  0  0  0
   20.3664  -21.3631  -17.8632 O   0  0  0  0  0  0  0  0  0  0  0  0
   22.6839  -21.0151  -17.6036 C   0  0  0  0  0  0  0  0  0  0  0  0
   23.6159  -20.0246  -16.9750 C   0  0  0  0  0  0  0  0  0  0  0  0
   24.9389  -20.6232  -16.6662 C   0  0  2  0  0  0  0  0  0  0  0  0
   25.2358  -20.4751  -15.2169 N   0  0  0  0  0  0  0  0  0  0  0  0
   26.0340  -19.9441  -17.3543 C   0  0  0  0  0  0  0  0  0  0  0  0
   26.3508  -18.6315  -17.0675 O   0  0  0  0  0  0  0  0  0  0  0  0
   26.7177  -20.5192  -18.2188 O   0  0  0  0  0  0  0  0  0  0  0  0
  2  1  1  6
  3  2  1  0
  4  3  1  0
  5  2  1  0
  5  6  2  0
  7  8  1  0
  8  9  1  0
  9 11  1  0
  9 10  1  6
 11 12  1  1
 12  5  1  0
 13 11  1  0
 14 13  2  0
 16 15  1  0
 17 16  2  0
 18 16  1  0
 19 18  1  0
 20 19  1  1
 20 21  1  0
 21 13  1  0
 22 20  1  0
 23 22  1  0
 24 22  2  0
M  END
$$$$
