CIQ.pdb
     RDKit          3D

 24 23  0  0  1  0  0  0  0  0999 V2000
   23.8600  -13.8848  -17.5008 N   0  0  0  0  0  0  0  0  0  0  0  0
   23.8862  -12.9753  -16.3994 C   0  0  1  0  0  0  0  0  0  0  0  0
   25.2752  -12.3888  -16.1677 C   0  0  0  0  0  0  0  0  0  0  0  0
   26.4448  -13.7108  -15.7384 S   0  0  0  0  0  0  0  0  0  0  0  0
   22.9500  -11.8407  -16.5532 C   0  0  0  0  0  0  0  0  0  0  0  0
   22.7746  -11.3609  -17.7031 O   0  0  0  0  0  0  0  0  0  0  0  0
   18.4863  -12.4777  -14.9673 C   0  0  0  0  0  0  0  0  0  0  0  0
   19.1751  -11.5385  -15.9458 C   0  0  0  0  0  0  0  0  0  0  0  0
   19.9184  -10.5169  -15.1223 C   0  0  2  0  0  0  0  0  0  0  0  0
   19.0830   -9.2832  -14.9837 C   0  0  0  0  0  0  0  0  0  0  0  0
   21.2774  -10.1926  -15.6950 C   0  0  2  0  0  0  0  0  0  0  0  0
   22.2308  -11.2535  -15.4780 N   0  0  0  0  0  0  0  0  0  0  0  0
   21.7421   -8.9084  -15.0910 C   0  0  0  0  0  0  0  0  0  0  0  0
   22.0650   -8.9104  -13.8760 O   0  0  0  0  0  0  0  0  0  0  0  0
   24.5484   -3.0934  -17.6374 N   0  0  0  0  0  0  0  0  0  0  0  0
   23.3447   -3.1749  -16.9064 C   0  0  0  0  0  0  0  0  0  0  0  0
   22.3412   -2.4466  -17.1005 O   0  0  0  0  0  0  0  0  0  0  0  0
   23.2507   -4.2035  -15.8178 C   0  0  0  0  0  0  0  0  0  0  0  0
   22.6102   -5.4597  -16.3243 C   0  0  0  0  0  0  0  0  0  0  0  0
   22.4574   -6.4774  -15.2543 C   0  0  2  0  0  0  0  0  0  0  0  0
   21.8348   -7.7075  -15.8107 N   0  0  0  0  0  0  0  0  0  0  0  0
   21.5579   -6.0388  -14.1901 C   0  0  0  0  0  0  0  0  0  0  0  0
   22.0504   -5.5346  -13.0032 O   0  0  0  0  0  0  0  0  0  0  0  0
   20.3224   -6.1030  -14.3125 O   0  0  0  0  0  0  0  0  0  0  0  0
  2  1  1  6
  3  2  1  0
  4  3  1  0
  5  2  1  0
  5  6  2  0
  7  8  1  0
  8  9  1  0
  9 11  1  0
  9 10  1  6
 11 12  1  1
 12  5  1  0
 13 11  1  0
 14 13  2  0
 16 15  1  0
 17 16  2  0
 18 16  1  0
 19 18  1  0
 20 19  1  6
 20 21  1  0
 21 13  1  0
 22 20  1  0
 23 22  1  0
 24 22  2  0
M  END
$$$$
