NQM.pdb
     RDKit          3D

 26 25  0  0  1  0  0  0  0  0999 V2000
   27.6431  -22.1422  -18.0670 N   0  0  0  0  0  0  0  0  0  0  0  0
   28.0390  -21.9005  -16.7130 C   0  0  0  0  0  0  0  0  0  0  0  0
   28.9147  -22.5928  -16.1704 O   0  0  0  0  0  0  0  0  0  0  0  0
   27.3678  -20.7987  -15.9877 C   0  0  0  0  0  0  0  0  0  0  0  0
   26.2890  -20.2362  -16.8858 C   0  0  2  0  0  0  0  0  0  0  0  0
   26.8891  -19.2519  -17.7342 N   0  0  0  0  0  0  0  0  0  0  0  0
   25.1662  -19.6904  -16.0815 C   0  0  0  0  0  0  0  0  0  0  0  0
   25.3602  -18.6090  -15.4712 O   0  0  0  0  0  0  0  0  0  0  0  0
   19.4816  -19.3042  -17.7847 N   0  0  0  0  0  0  0  0  0  0  0  0
   20.5815  -18.4479  -18.0615 C   0  0  0  0  0  0  0  0  0  0  0  0
   20.5568  -17.6113  -18.9909 O   0  0  0  0  0  0  0  0  0  0  0  0
   21.7917  -18.5574  -17.2178 C   0  0  0  0  0  0  0  0  0  0  0  0
   21.6957  -19.5770  -16.1506 C   0  0  0  0  0  0  0  0  0  0  0  0
   22.8344  -19.7112  -15.2063 C   0  0  2  0  0  0  0  0  0  0  0  0
   23.9213  -20.3562  -15.9995 N   0  0  0  0  0  0  0  0  0  0  0  0
   22.6413  -20.5909  -14.0570 C   0  0  0  0  0  0  0  0  0  0  0  0
   22.7283  -21.8683  -14.1213 O   0  0  0  0  0  0  0  0  0  0  0  0
   25.5500  -20.8709   -8.5030 C   0  0  0  0  0  0  0  0  0  0  0  0
   23.8416  -20.8530   -7.9130 S   0  0  0  0  0  0  0  0  0  0  0  0
   22.7382  -21.3743   -9.2694 C   0  0  0  0  0  0  0  0  0  0  0  0
   22.9961  -20.5929  -10.5135 C   0  0  0  0  0  0  0  0  0  0  0  0
   22.0940  -20.9731  -11.6511 C   0  0  2  0  0  0  0  0  0  0  0  0
   22.3457  -20.0755  -12.7841 N   0  0  0  0  0  0  0  0  0  0  0  0
   20.6884  -20.7890  -11.2354 C   0  0  0  0  0  0  0  0  0  0  0  0
   19.9869  -19.7702  -11.5330 O   0  0  0  0  0  0  0  0  0  0  0  0
   20.0389  -21.7687  -10.4635 O   0  0  0  0  0  0  0  0  0  0  0  0
  2  3  2  0
  2  1  1  0
  4  2  1  0
  5  4  1  0
  5  7  1  0
  5  6  1  1
  7  8  2  0
  9 10  1  0
 10 12  1  0
 11 10  2  0
 13 12  1  0
 14 13  1  6
 15 14  1  0
 15  7  1  0
 16 14  1  0
 16 17  2  0
 18 19  1  0
 19 20  1  0
 20 21  1  0
 22 21  1  1
 22 23  1  0
 22 24  1  0
 23 16  1  0
 24 26  1  0
 25 24  2  0
M  END
$$$$
