NQM.pdb
     RDKit          3D

 26 25  0  0  1  0  0  0  0  0999 V2000
   28.2324  -23.4279  -17.7625 N   0  0  0  0  0  0  0  0  0  0  0  0
   29.2412  -23.2193  -16.7689 C   0  0  0  0  0  0  0  0  0  0  0  0
   30.2425  -23.9507  -16.7121 O   0  0  0  0  0  0  0  0  0  0  0  0
   29.0462  -22.1037  -15.8161 C   0  0  0  0  0  0  0  0  0  0  0  0
   27.6745  -21.5154  -16.0588 C   0  0  2  0  0  0  0  0  0  0  0  0
   27.7052  -20.8255  -17.3125 N   0  0  0  0  0  0  0  0  0  0  0  0
   27.2719  -20.6362  -14.9317 C   0  0  0  0  0  0  0  0  0  0  0  0
   27.8987  -19.5571  -14.7835 O   0  0  0  0  0  0  0  0  0  0  0  0
   22.9703  -18.7867  -15.4591 N   0  0  0  0  0  0  0  0  0  0  0  0
   22.6586  -20.0191  -14.8236 C   0  0  0  0  0  0  0  0  0  0  0  0
   21.7164  -20.7466  -15.2072 O   0  0  0  0  0  0  0  0  0  0  0  0
   23.4808  -20.4470  -13.6707 C   0  0  0  0  0  0  0  0  0  0  0  0
   24.5534  -19.4962  -13.3057 C   0  0  0  0  0  0  0  0  0  0  0  0
   25.8856  -20.0475  -12.9479 C   0  0  2  0  0  0  0  0  0  0  0  0
   26.2230  -20.9923  -14.0524 N   0  0  0  0  0  0  0  0  0  0  0  0
   25.9640  -20.8533  -11.7329 C   0  0  0  0  0  0  0  0  0  0  0  0
   25.5561  -22.0665  -11.6610 O   0  0  0  0  0  0  0  0  0  0  0  0
   28.1001  -18.2845   -6.0532 C   0  0  0  0  0  0  0  0  0  0  0  0
   27.8871  -20.0179   -5.5874 S   0  0  0  0  0  0  0  0  0  0  0  0
   26.8343  -20.8425   -6.8287 C   0  0  0  0  0  0  0  0  0  0  0  0
   27.0922  -20.3151   -8.1999 C   0  0  0  0  0  0  0  0  0  0  0  0
   26.3060  -21.0217   -9.2654 C   0  0  2  0  0  0  0  0  0  0  0  0
   26.5072  -20.3343  -10.5459 N   0  0  0  0  0  0  0  0  0  0  0  0
   24.8680  -20.9455   -8.9354 C   0  0  0  0  0  0  0  0  0  0  0  0
   24.0679  -20.0934   -9.4375 O   0  0  0  0  0  0  0  0  0  0  0  0
   24.2984  -21.8455   -8.0173 O   0  0  0  0  0  0  0  0  0  0  0  0
  2  3  2  0
  2  1  1  0
  4  2  1  0
  5  4  1  0
  5  7  1  0
  5  6  1  6
  7  8  2  0
  9 10  1  0
 10 12  1  0
 11 10  2  0
 13 12  1  0
 14 13  1  6
 15 14  1  0
 15  7  1  0
 16 14  1  0
 16 17  2  0
 18 19  1  0
 19 20  1  0
 20 21  1  0
 22 21  1  1
 22 23  1  0
 22 24  1  0
 23 16  1  0
 24 26  1  0
 25 24  2  0
M  END
$$$$
