NQM.pdb
     RDKit          3D

 26 25  0  0  1  0  0  0  0  0999 V2000
   14.9111  -10.0214  -18.2559 N   0  0  0  0  0  0  0  0  0  0  0  0
   16.3392  -10.0475  -18.1647 C   0  0  0  0  0  0  0  0  0  0  0  0
   17.0006  -10.9204  -18.7489 O   0  0  0  0  0  0  0  0  0  0  0  0
   16.9945   -8.9991  -17.3511 C   0  0  0  0  0  0  0  0  0  0  0  0
   18.1801   -9.6235  -16.6502 C   0  0  2  0  0  0  0  0  0  0  0  0
   17.6848  -10.6039  -15.7325 N   0  0  0  0  0  0  0  0  0  0  0  0
   19.0062   -8.5835  -15.9857 C   0  0  0  0  0  0  0  0  0  0  0  0
   18.6346   -8.1808  -14.8548 O   0  0  0  0  0  0  0  0  0  0  0  0
   25.0235   -8.1508  -15.9252 N   0  0  0  0  0  0  0  0  0  0  0  0
   24.1868   -8.8984  -15.0531 C   0  0  0  0  0  0  0  0  0  0  0  0
   24.6248   -9.8371  -14.3522 O   0  0  0  0  0  0  0  0  0  0  0  0
   22.7514   -8.5482  -14.9790 C   0  0  0  0  0  0  0  0  0  0  0  0
   22.3454   -7.4605  -15.8955 C   0  0  0  0  0  0  0  0  0  0  0  0
   20.9311   -7.0077  -15.8612 C   0  0  2  0  0  0  0  0  0  0  0  0
   20.1697   -8.0600  -16.5957 N   0  0  0  0  0  0  0  0  0  0  0  0
   20.6165   -5.7653  -16.5607 C   0  0  0  0  0  0  0  0  0  0  0  0
   20.6131   -5.6538  -17.8378 O   0  0  0  0  0  0  0  0  0  0  0  0
   16.5417   -1.3768  -20.3562 C   0  0  0  0  0  0  0  0  0  0  0  0
   16.9944   -2.8584  -19.4250 S   0  0  0  0  0  0  0  0  0  0  0  0
   18.3606   -2.4511  -18.2862 C   0  0  0  0  0  0  0  0  0  0  0  0
   18.8160   -3.6526  -17.5286 C   0  0  0  0  0  0  0  0  0  0  0  0
   19.9372   -3.3628  -16.5740 C   0  0  2  0  0  0  0  0  0  0  0  0
   20.2884   -4.5942  -15.8578 N   0  0  0  0  0  0  0  0  0  0  0  0
   19.4780   -2.3767  -15.5744 C   0  0  0  0  0  0  0  0  0  0  0  0
   19.3406   -1.1346  -15.8125 O   0  0  0  0  0  0  0  0  0  0  0  0
   19.1603   -2.7826  -14.2660 O   0  0  0  0  0  0  0  0  0  0  0  0
  2  3  2  0
  2  1  1  0
  4  2  1  0
  5  4  1  0
  5  7  1  0
  5  6  1  1
  7  8  2  0
  9 10  1  0
 10 12  1  0
 11 10  2  0
 13 12  1  0
 14 13  1  6
 15 14  1  0
 15  7  1  0
 16 14  1  0
 16 17  2  0
 18 19  1  0
 19 20  1  0
 20 21  1  0
 22 21  1  6
 22 23  1  0
 22 24  1  0
 23 16  1  0
 24 26  1  0
 25 24  2  0
M  END
$$$$
