NQM.pdb
     RDKit          3D

 26 25  0  0  1  0  0  0  0  0999 V2000
   17.6887  -23.9779   -7.5905 N   0  0  0  0  0  0  0  0  0  0  0  0
   16.5652  -23.6668   -6.7602 C   0  0  0  0  0  0  0  0  0  0  0  0
   15.9014  -22.6342   -6.9444 O   0  0  0  0  0  0  0  0  0  0  0  0
   16.2264  -24.6185   -5.6786 C   0  0  0  0  0  0  0  0  0  0  0  0
   17.2834  -25.6997   -5.6585 C   0  0  2  0  0  0  0  0  0  0  0  0
   17.1548  -26.4657   -6.8607 N   0  0  0  0  0  0  0  0  0  0  0  0
   17.1622  -26.5316   -4.4343 C   0  0  0  0  0  0  0  0  0  0  0  0
   16.0496  -27.0691   -4.2045 O   0  0  0  0  0  0  0  0  0  0  0  0
   21.5757  -30.0641   -2.4668 N   0  0  0  0  0  0  0  0  0  0  0  0
   20.7777  -30.1614   -1.2948 C   0  0  0  0  0  0  0  0  0  0  0  0
   21.0982  -30.8890   -0.3294 O   0  0  0  0  0  0  0  0  0  0  0  0
   19.5281  -29.3729   -1.2237 C   0  0  0  0  0  0  0  0  0  0  0  0
   19.3204  -28.4625   -2.3708 C   0  0  0  0  0  0  0  0  0  0  0  0
   18.0740  -27.6552   -2.4070 C   0  0  2  0  0  0  0  0  0  0  0  0
   18.2531  -26.7175   -3.5538 N   0  0  0  0  0  0  0  0  0  0  0  0
   17.8107  -26.7920   -1.2592 C   0  0  0  0  0  0  0  0  0  0  0  0
   18.4262  -25.6872   -1.0488 O   0  0  0  0  0  0  0  0  0  0  0  0
   12.2266  -25.2372    1.8528 C   0  0  0  0  0  0  0  0  0  0  0  0
   13.2874  -25.8179    3.1961 S   0  0  0  0  0  0  0  0  0  0  0  0
   15.0314  -25.6875    2.6760 C   0  0  0  0  0  0  0  0  0  0  0  0
   15.2945  -26.4864    1.4441 C   0  0  0  0  0  0  0  0  0  0  0  0
   16.6962  -26.3379    0.9284 C   0  0  2  0  0  0  0  0  0  0  0  0
   16.8425  -27.1288   -0.2988 N   0  0  0  0  0  0  0  0  0  0  0  0
   17.6388  -26.8807    1.9280 C   0  0  0  0  0  0  0  0  0  0  0  0
   17.7527  -28.1185    2.1988 O   0  0  0  0  0  0  0  0  0  0  0  0
   18.4841  -26.0208    2.6516 O   0  0  0  0  0  0  0  0  0  0  0  0
  2  3  2  0
  2  1  1  0
  4  2  1  0
  5  4  1  0
  5  7  1  0
  5  6  1  6
  7  8  2  0
  9 10  1  0
 10 12  1  0
 11 10  2  0
 13 12  1  0
 14 13  1  1
 15 14  1  0
 15  7  1  0
 16 14  1  0
 16 17  2  0
 18 19  1  0
 19 20  1  0
 20 21  1  0
 22 21  1  1
 22 23  1  0
 22 24  1  0
 23 16  1  0
 24 26  1  0
 25 24  2  0
M  END
$$$$
