NTL.pdb
     RDKit          3D

 24 23  0  0  1  0  0  0  0  0999 V2000
   14.4081  -13.3741   18.5882 N   0  0  0  0  0  0  0  0  0  0  0  0
   13.5575  -14.4849   18.3369 C   0  0  0  0  0  0  0  0  0  0  0  0
   13.9701  -15.4811   17.6807 O   0  0  0  0  0  0  0  0  0  0  0  0
   12.1815  -14.4272   18.8705 C   0  0  0  0  0  0  0  0  0  0  0  0
   12.0254  -15.3243   20.0847 C   0  0  2  0  0  0  0  0  0  0  0  0
   11.8472  -16.6698   19.5986 N   0  0  0  0  0  0  0  0  0  0  0  0
   10.8639  -14.8467   20.8682 C   0  0  0  0  0  0  0  0  0  0  0  0
   10.8158  -13.6347   21.1786 O   0  0  0  0  0  0  0  0  0  0  0  0
    6.8321  -15.7240   20.4788 C   0  0  0  0  0  0  0  0  0  0  0  0
    7.4515  -16.0850   21.8164 C   0  0  1  0  0  0  0  0  0  0  0  0
    7.6738  -17.4368   21.9396 O   0  0  0  0  0  0  0  0  0  0  0  0
    8.7085  -15.2638   22.0690 C   0  0  2  0  0  0  0  0  0  0  0  0
    9.8118  -15.7026   21.2777 N   0  0  0  0  0  0  0  0  0  0  0  0
    8.9872  -15.3306   23.5327 C   0  0  0  0  0  0  0  0  0  0  0  0
   10.0608  -15.8460   23.9373 O   0  0  0  0  0  0  0  0  0  0  0  0
    8.3526  -11.8540   26.5408 C   0  0  0  0  0  0  0  0  0  0  0  0
    7.1153  -12.7069   26.2494 C   0  0  2  0  0  0  0  0  0  0  0  0
    5.8929  -12.0064   26.6774 C   0  0  0  0  0  0  0  0  0  0  0  0
    7.3016  -14.1228   26.6004 C   0  0  0  0  0  0  0  0  0  0  0  0
    8.3764  -14.9101   25.9556 C   0  0  2  0  0  0  0  0  0  0  0  0
    8.0849  -14.8328   24.4999 N   0  0  0  0  0  0  0  0  0  0  0  0
    8.3938  -16.3360   26.2929 C   0  0  0  0  0  0  0  0  0  0  0  0
    7.8555  -17.2660   25.4227 O   0  0  0  0  0  0  0  0  0  0  0  0
    8.8810  -16.7794   27.3536 O   0  0  0  0  0  0  0  0  0  0  0  0
  1  2  1  0
  2  4  1  0
  3  2  2  0
  4  5  1  0
  5  7  1  0
  5  6  1  6
  7  8  2  0
 10  9  1  6
 10 12  1  0
 11 10  1  0
 12 14  1  0
 12 13  1  6
 13  7  1  0
 14 21  1  0
 15 14  2  0
 17 18  1  1
 17 16  1  0
 19 17  1  0
 20 19  1  1
 21 20  1  0
 22 20  1  0
 23 22  1  0
 24 22  2  0
M  END
$$$$
