GWD.pdb
     RDKit          3D

 27 28  0  0  1  0  0  0  0  0999 V2000
    7.2029  -17.9773   22.0986 N   0  0  0  0  0  0  0  0  0  0  0  0
    7.5504  -16.7096   21.4782 C   0  0  0  0  0  0  0  0  0  0  0  0
    8.4772  -15.9285   22.3402 C   0  0  0  0  0  0  0  0  0  0  0  0
    8.9770  -14.8737   21.8332 O   0  0  0  0  0  0  0  0  0  0  0  0
    8.8387  -16.2645   23.6598 N   0  0  0  0  0  0  0  0  0  0  0  0
    9.8159  -15.5172   24.3756 C   0  0  1  0  0  0  0  0  0  0  0  0
    9.3716  -14.9749   25.6797 C   0  0  0  0  0  0  0  0  0  0  0  0
    7.9429  -14.7178   25.8590 C   0  0  0  0  0  0  0  0  0  0  0  0
    6.8804  -15.5758   25.8236 C   0  0  0  0  0  0  0  0  0  0  0  0
    5.7248  -14.8796   26.0580 N   0  0  0  0  0  0  0  0  0  0  0  0
    6.0730  -13.5957   26.2378 C   0  0  0  0  0  0  0  0  0  0  0  0
    5.3127  -12.4673   26.5066 C   0  0  0  0  0  0  0  0  0  0  0  0
    5.9062  -11.2149   26.6583 C   0  0  0  0  0  0  0  0  0  0  0  0
    7.2593  -11.0741   26.5440 C   0  0  0  0  0  0  0  0  0  0  0  0
    7.9867  -12.2141   26.2762 C   0  0  0  0  0  0  0  0  0  0  0  0
    7.4283  -13.4665   26.1210 C   0  0  0  0  0  0  0  0  0  0  0  0
   11.0998  -16.2604   24.5295 C   0  0  0  0  0  0  0  0  0  0  0  0
   12.0542  -15.8480   25.2239 O   0  0  0  0  0  0  0  0  0  0  0  0
   11.2240  -17.4917   23.8494 N   0  0  0  0  0  0  0  0  0  0  0  0
   12.4454  -18.3004   23.9129 C   0  0  1  0  0  0  0  0  0  0  0  0
   12.0855  -19.7603   24.0996 C   0  0  0  0  0  0  0  0  0  0  0  0
   13.3259  -20.5521   24.1684 C   0  0  0  0  0  0  0  0  0  0  0  0
   13.3123  -21.8251   24.1419 O   0  0  0  0  0  0  0  0  0  0  0  0
   13.1506  -18.1596   22.6196 C   0  0  0  0  0  0  0  0  0  0  0  0
   14.5123  -18.1372   22.4528 O   0  0  0  0  0  0  0  0  0  0  0  0
   14.6100  -19.9837   24.2671 O   0  0  0  0  0  0  0  0  0  0  0  0
   12.4781  -18.0436   21.5309 O   0  0  0  0  0  0  0  0  0  0  0  0
  2  3  1  0
  2  1  1  0
  3  4  2  0
  5  6  1  0
  5  3  1  0
  6 17  1  0
  7  8  1  0
  6  7  1  1
  8 16  1  0
  9 10  1  0
  9  8  2  0
 10 11  1  0
 11 16  2  0
 11 12  1  0
 12 13  2  0
 13 14  1  0
 15 14  2  0
 16 15  1  0
 17 18  2  0
 17 19  1  0
 19 20  1  0
 20 24  1  0
 20 21  1  6
 22 21  1  0
 23 22  2  0
 24 27  2  0
 24 25  1  0
 26 22  1  0
M  END
$$$$
