GWD.pdb
     RDKit          3D

 27 28  0  0  1  0  0  0  0  0999 V2000
    8.9964  -17.2454   17.8503 N   0  0  0  0  0  0  0  0  0  0  0  0
    7.9728  -17.3057   18.8805 C   0  0  0  0  0  0  0  0  0  0  0  0
    8.3809  -16.5356   20.0857 C   0  0  0  0  0  0  0  0  0  0  0  0
    9.5469  -16.0259   20.0705 O   0  0  0  0  0  0  0  0  0  0  0  0
    7.5833  -16.3303   21.2288 N   0  0  0  0  0  0  0  0  0  0  0  0
    8.0552  -15.5733   22.3379 C   0  0  1  0  0  0  0  0  0  0  0  0
    7.0268  -14.7820   23.0510 C   0  0  0  0  0  0  0  0  0  0  0  0
    7.1161  -14.7061   24.5090 C   0  0  0  0  0  0  0  0  0  0  0  0
    7.2891  -15.6951   25.4353 C   0  0  0  0  0  0  0  0  0  0  0  0
    7.3223  -15.1445   26.6886 N   0  0  0  0  0  0  0  0  0  0  0  0
    7.1706  -13.8195   26.5363 C   0  0  0  0  0  0  0  0  0  0  0  0
    7.1311  -12.7875   27.4620 C   0  0  0  0  0  0  0  0  0  0  0  0
    6.9634  -11.4628   27.0612 C   0  0  0  0  0  0  0  0  0  0  0  0
    6.8336  -11.1533   25.7379 C   0  0  0  0  0  0  0  0  0  0  0  0
    6.8768  -12.2011   24.8431 C   0  0  0  0  0  0  0  0  0  0  0  0
    7.0415  -13.5214   25.2090 C   0  0  0  0  0  0  0  0  0  0  0  0
    8.8367  -16.4019   23.3007 C   0  0  0  0  0  0  0  0  0  0  0  0
    8.5425  -17.5822   23.5891 O   0  0  0  0  0  0  0  0  0  0  0  0
    9.9644  -15.8053   23.9061 N   0  0  0  0  0  0  0  0  0  0  0  0
   11.1046  -16.5940   24.3835 C   0  0  1  0  0  0  0  0  0  0  0  0
   12.3931  -15.8366   24.1348 C   0  0  0  0  0  0  0  0  0  0  0  0
   13.1928  -16.5703   23.1386 C   0  0  0  0  0  0  0  0  0  0  0  0
   12.8123  -17.6889   22.6641 O   0  0  0  0  0  0  0  0  0  0  0  0
   10.9500  -16.7770   25.8438 C   0  0  0  0  0  0  0  0  0  0  0  0
   11.3639  -17.8730   26.5578 O   0  0  0  0  0  0  0  0  0  0  0  0
   14.4230  -16.1094   22.6329 O   0  0  0  0  0  0  0  0  0  0  0  0
   10.3861  -15.8630   26.5492 O   0  0  0  0  0  0  0  0  0  0  0  0
  2  3  1  0
  2  1  1  0
  3  4  2  0
  5  6  1  0
  5  3  1  0
  6 17  1  0
  7  8  1  0
  6  7  1  1
  8 16  1  0
  9 10  1  0
  9  8  2  0
 10 11  1  0
 11 16  2  0
 11 12  1  0
 12 13  2  0
 13 14  1  0
 15 14  2  0
 16 15  1  0
 17 18  2  0
 17 19  1  0
 19 20  1  0
 20 24  1  0
 20 21  1  1
 22 21  1  0
 23 22  2  0
 24 27  2  0
 24 25  1  0
 26 22  1  0
M  END
$$$$
