GWD.pdb
     RDKit          3D

 27 28  0  0  1  0  0  0  0  0999 V2000
    7.7048  -15.4691   19.3611 N   0  0  0  0  0  0  0  0  0  0  0  0
    7.4969  -16.2289   20.5828 C   0  0  0  0  0  0  0  0  0  0  0  0
    8.4084  -15.7652   21.6627 C   0  0  0  0  0  0  0  0  0  0  0  0
    9.4645  -15.1565   21.2969 O   0  0  0  0  0  0  0  0  0  0  0  0
    8.1931  -15.9467   23.0431 N   0  0  0  0  0  0  0  0  0  0  0  0
    9.2476  -15.7914   23.9863 C   0  0  1  0  0  0  0  0  0  0  0  0
    8.8241  -15.6818   25.4008 C   0  0  0  0  0  0  0  0  0  0  0  0
    7.5481  -15.0238   25.6804 C   0  0  0  0  0  0  0  0  0  0  0  0
    6.2889  -15.5446   25.7771 C   0  0  0  0  0  0  0  0  0  0  0  0
    5.4022  -14.5419   26.0659 N   0  0  0  0  0  0  0  0  0  0  0  0
    6.1120  -13.4056   26.1475 C   0  0  0  0  0  0  0  0  0  0  0  0
    5.7276  -12.1002   26.4154 C   0  0  0  0  0  0  0  0  0  0  0  0
    6.6603  -11.0646   26.4511 C   0  0  0  0  0  0  0  0  0  0  0  0
    7.9819  -11.3180   26.2207 C   0  0  0  0  0  0  0  0  0  0  0  0
    8.3317  -12.6251   25.9570 C   0  0  0  0  0  0  0  0  0  0  0  0
    7.4322  -13.6708   25.9151 C   0  0  0  0  0  0  0  0  0  0  0  0
   10.3026  -16.8349   23.8367 C   0  0  0  0  0  0  0  0  0  0  0  0
   10.2154  -17.7914   23.0364 O   0  0  0  0  0  0  0  0  0  0  0  0
   11.4523  -16.7183   24.6484 N   0  0  0  0  0  0  0  0  0  0  0  0
   12.7893  -17.0804   24.1672 C   0  0  1  0  0  0  0  0  0  0  0  0
   13.2029  -16.1460   23.0485 C   0  0  0  0  0  0  0  0  0  0  0  0
   14.5155  -16.5717   22.5326 C   0  0  0  0  0  0  0  0  0  0  0  0
   14.6806  -17.7002   21.9664 O   0  0  0  0  0  0  0  0  0  0  0  0
   13.7378  -16.9067   25.2896 C   0  0  0  0  0  0  0  0  0  0  0  0
   13.4243  -16.4050   26.5275 O   0  0  0  0  0  0  0  0  0  0  0  0
   15.6798  -15.7850   22.6176 O   0  0  0  0  0  0  0  0  0  0  0  0
   14.9712  -17.2367   25.1448 O   0  0  0  0  0  0  0  0  0  0  0  0
  2  3  1  0
  2  1  1  0
  3  4  2  0
  5  6  1  0
  5  3  1  0
  6 17  1  0
  7  8  1  0
  6  7  1  1
  8 16  1  0
  9 10  1  0
  9  8  2  0
 10 11  1  0
 11 16  2  0
 11 12  1  0
 12 13  2  0
 13 14  1  0
 15 14  2  0
 16 15  1  0
 17 18  2  0
 17 19  1  0
 19 20  1  0
 20 24  1  0
 20 21  1  6
 22 21  1  0
 23 22  2  0
 24 27  2  0
 24 25  1  0
 26 22  1  0
M  END
$$$$
