GWD.pdb
     RDKit          3D

 27 28  0  0  1  0  0  0  0  0999 V2000
    6.9936  -16.3342   20.1968 N   0  0  0  0  0  0  0  0  0  0  0  0
    7.2017  -16.8888   21.5242 C   0  0  0  0  0  0  0  0  0  0  0  0
    8.3141  -16.1943   22.2257 C   0  0  0  0  0  0  0  0  0  0  0  0
    9.0118  -15.3873   21.5319 O   0  0  0  0  0  0  0  0  0  0  0  0
    8.6491  -16.3604   23.5841 N   0  0  0  0  0  0  0  0  0  0  0  0
    9.7072  -15.6214   24.1842 C   0  0  1  0  0  0  0  0  0  0  0  0
    9.3606  -14.9234   25.4431 C   0  0  0  0  0  0  0  0  0  0  0  0
    7.9625  -14.5469   25.6501 C   0  0  0  0  0  0  0  0  0  0  0  0
    6.8327  -15.3148   25.6520 C   0  0  0  0  0  0  0  0  0  0  0  0
    5.7439  -14.5225   25.9012 N   0  0  0  0  0  0  0  0  0  0  0  0
    6.2005  -13.2694   26.0531 C   0  0  0  0  0  0  0  0  0  0  0  0
    5.5420  -12.0786   26.3212 C   0  0  0  0  0  0  0  0  0  0  0  0
    6.2398  -10.8775   26.4400 C   0  0  0  0  0  0  0  0  0  0  0  0
    7.5968  -10.8503   26.2933 C   0  0  0  0  0  0  0  0  0  0  0  0
    8.2215  -12.0499   26.0271 C   0  0  0  0  0  0  0  0  0  0  0  0
    7.5588  -13.2540   25.9040 C   0  0  0  0  0  0  0  0  0  0  0  0
   10.9416  -16.4390   24.3634 C   0  0  0  0  0  0  0  0  0  0  0  0
   12.0081  -15.9815   24.8284 O   0  0  0  0  0  0  0  0  0  0  0  0
   10.8822  -17.7980   23.9840 N   0  0  0  0  0  0  0  0  0  0  0  0
   12.0224  -18.7056   24.1460 C   0  0  1  0  0  0  0  0  0  0  0  0
   11.5435  -20.0425   24.6741 C   0  0  0  0  0  0  0  0  0  0  0  0
   11.5491  -20.0031   26.1467 C   0  0  0  0  0  0  0  0  0  0  0  0
   11.9617  -18.9844   26.7896 O   0  0  0  0  0  0  0  0  0  0  0  0
   12.6220  -18.9236   22.8107 C   0  0  0  0  0  0  0  0  0  0  0  0
   13.9489  -19.1699   22.5637 O   0  0  0  0  0  0  0  0  0  0  0  0
   11.1078  -21.0660   26.9574 O   0  0  0  0  0  0  0  0  0  0  0  0
   11.8818  -18.8880   21.7610 O   0  0  0  0  0  0  0  0  0  0  0  0
  2  3  1  0
  2  1  1  0
  3  4  2  0
  5  6  1  0
  5  3  1  0
  6 17  1  0
  7  8  1  0
  6  7  1  1
  8 16  1  0
  9 10  1  0
  9  8  2  0
 10 11  1  0
 11 16  2  0
 11 12  1  0
 12 13  2  0
 13 14  1  0
 15 14  2  0
 16 15  1  0
 17 18  2  0
 17 19  1  0
 19 20  1  0
 20 24  1  0
 20 21  1  6
 22 21  1  0
 23 22  2  0
 24 27  2  0
 24 25  1  0
 26 22  1  0
M  END
$$$$
