GWD.pdb
     RDKit          3D

 27 28  0  0  1  0  0  0  0  0999 V2000
    7.1096  -16.1289   19.3579 N   0  0  0  0  0  0  0  0  0  0  0  0
    6.8983  -16.5873   20.7210 C   0  0  0  0  0  0  0  0  0  0  0  0
    7.9587  -16.0735   21.6285 C   0  0  0  0  0  0  0  0  0  0  0  0
    8.8350  -15.3106   21.1092 O   0  0  0  0  0  0  0  0  0  0  0  0
    8.0646  -16.3641   23.0030 N   0  0  0  0  0  0  0  0  0  0  0  0
    9.1151  -15.8251   23.7976 C   0  0  1  0  0  0  0  0  0  0  0  0
    8.7815  -15.5962   25.2219 C   0  0  0  0  0  0  0  0  0  0  0  0
    7.5360  -14.8915   25.5245 C   0  0  0  0  0  0  0  0  0  0  0  0
    6.2569  -15.3615   25.6204 C   0  0  0  0  0  0  0  0  0  0  0  0
    5.4147  -14.3289   25.9362 N   0  0  0  0  0  0  0  0  0  0  0  0
    6.1719  -13.2250   26.0353 C   0  0  0  0  0  0  0  0  0  0  0  0
    5.8441  -11.9105   26.3325 C   0  0  0  0  0  0  0  0  0  0  0  0
    6.8194  -10.9156   26.3818 C   0  0  0  0  0  0  0  0  0  0  0  0
    8.1276  -11.2189   26.1362 C   0  0  0  0  0  0  0  0  0  0  0  0
    8.4208  -12.5337   25.8435 C   0  0  0  0  0  0  0  0  0  0  0  0
    7.4782  -13.5400   25.7874 C   0  0  0  0  0  0  0  0  0  0  0  0
   10.3787  -16.6081   23.6769 C   0  0  0  0  0  0  0  0  0  0  0  0
   10.4071  -17.8381   23.4547 O   0  0  0  0  0  0  0  0  0  0  0  0
   11.5953  -15.9061   23.8227 N   0  0  0  0  0  0  0  0  0  0  0  0
   12.8967  -16.5392   23.5867 C   0  0  1  0  0  0  0  0  0  0  0  0
   13.9312  -15.4810   23.2617 C   0  0  0  0  0  0  0  0  0  0  0  0
   15.2220  -16.1407   22.9998 C   0  0  0  0  0  0  0  0  0  0  0  0
   15.7119  -16.2160   21.8269 O   0  0  0  0  0  0  0  0  0  0  0  0
   13.3050  -17.2167   24.8373 C   0  0  0  0  0  0  0  0  0  0  0  0
   14.1331  -18.3076   24.9188 O   0  0  0  0  0  0  0  0  0  0  0  0
   16.0126  -16.7341   24.0021 O   0  0  0  0  0  0  0  0  0  0  0  0
   12.8749  -16.7880   25.9697 O   0  0  0  0  0  0  0  0  0  0  0  0
  2  3  1  0
  2  1  1  0
  3  4  2  0
  5  6  1  0
  5  3  1  0
  6 17  1  0
  7  8  1  0
  6  7  1  1
  8 16  1  0
  9 10  1  0
  9  8  2  0
 10 11  1  0
 11 16  2  0
 11 12  1  0
 12 13  2  0
 13 14  1  0
 15 14  2  0
 16 15  1  0
 17 18  2  0
 17 19  1  0
 19 20  1  0
 20 24  1  0
 20 21  1  1
 22 21  1  0
 23 22  2  0
 24 27  2  0
 24 25  1  0
 26 22  1  0
M  END
$$$$
