GWD.pdb
     RDKit          3D

 27 28  0  0  1  0  0  0  0  0999 V2000
    8.5127  -19.8846   20.4168 N   0  0  0  0  0  0  0  0  0  0  0  0
    7.7999  -18.9560   21.2785 C   0  0  0  0  0  0  0  0  0  0  0  0
    8.6827  -17.8382   21.7063 C   0  0  0  0  0  0  0  0  0  0  0  0
    9.8869  -17.8717   21.2958 O   0  0  0  0  0  0  0  0  0  0  0  0
    8.2909  -16.7580   22.5216 N   0  0  0  0  0  0  0  0  0  0  0  0
    9.1574  -15.6544   22.7600 C   0  0  1  0  0  0  0  0  0  0  0  0
    8.4836  -14.3654   23.0365 C   0  0  0  0  0  0  0  0  0  0  0  0
    7.5883  -14.2992   24.1914 C   0  0  0  0  0  0  0  0  0  0  0  0
    6.8870  -15.2873   24.8222 C   0  0  0  0  0  0  0  0  0  0  0  0
    6.1872  -14.7513   25.8701 N   0  0  0  0  0  0  0  0  0  0  0  0
    6.4560  -13.4362   25.8861 C   0  0  0  0  0  0  0  0  0  0  0  0
    6.0232  -12.4209   26.7259 C   0  0  0  0  0  0  0  0  0  0  0  0
    6.4466  -11.1047   26.5469 C   0  0  0  0  0  0  0  0  0  0  0  0
    7.3030  -10.7873   25.5322 C   0  0  0  0  0  0  0  0  0  0  0  0
    7.7144  -11.8184   24.7150 C   0  0  0  0  0  0  0  0  0  0  0  0
    7.3131  -13.1300   24.8669 C   0  0  0  0  0  0  0  0  0  0  0  0
   10.1753  -15.9471   23.8100 C   0  0  0  0  0  0  0  0  0  0  0  0
   11.1444  -15.1967   24.0567 O   0  0  0  0  0  0  0  0  0  0  0  0
   10.0184  -17.1369   24.5542 N   0  0  0  0  0  0  0  0  0  0  0  0
   10.9273  -17.5026   25.6451 C   0  0  1  0  0  0  0  0  0  0  0  0
   10.2221  -18.4329   26.6110 C   0  0  0  0  0  0  0  0  0  0  0  0
   11.1701  -18.8337   27.6650 C   0  0  0  0  0  0  0  0  0  0  0  0
   12.3842  -19.1154   27.4045 O   0  0  0  0  0  0  0  0  0  0  0  0
   12.0736  -18.2298   25.0561 C   0  0  0  0  0  0  0  0  0  0  0  0
   12.1165  -18.7589   23.7909 O   0  0  0  0  0  0  0  0  0  0  0  0
   10.8253  -18.9384   29.0259 O   0  0  0  0  0  0  0  0  0  0  0  0
   13.1428  -18.4095   25.7457 O   0  0  0  0  0  0  0  0  0  0  0  0
  2  3  1  0
  2  1  1  0
  3  4  2  0
  5  6  1  0
  5  3  1  0
  6 17  1  0
  7  8  1  0
  6  7  1  1
  8 16  1  0
  9 10  1  0
  9  8  2  0
 10 11  1  0
 11 16  2  0
 11 12  1  0
 12 13  2  0
 13 14  1  0
 15 14  2  0
 16 15  1  0
 17 18  2  0
 17 19  1  0
 19 20  1  0
 20 24  1  0
 20 21  1  1
 22 21  1  0
 23 22  2  0
 24 27  2  0
 24 25  1  0
 26 22  1  0
M  END
$$$$
