GWD.pdb
     RDKit          3D

 27 28  0  0  1  0  0  0  0  0999 V2000
    6.6473  -16.9250   20.8800 N   0  0  0  0  0  0  0  0  0  0  0  0
    7.4461  -15.7180   20.7467 C   0  0  0  0  0  0  0  0  0  0  0  0
    8.3304  -15.5287   21.9275 C   0  0  0  0  0  0  0  0  0  0  0  0
    9.0855  -14.5045   21.9176 O   0  0  0  0  0  0  0  0  0  0  0  0
    8.3938  -16.3876   23.0425 N   0  0  0  0  0  0  0  0  0  0  0  0
    9.2806  -16.1336   24.1264 C   0  0  1  0  0  0  0  0  0  0  0  0
    8.6478  -16.0683   25.4634 C   0  0  0  0  0  0  0  0  0  0  0  0
    7.4621  -15.2253   25.6149 C   0  0  0  0  0  0  0  0  0  0  0  0
    6.1364  -15.5537   25.5881 C   0  0  0  0  0  0  0  0  0  0  0  0
    5.3839  -14.4270   25.7865 N   0  0  0  0  0  0  0  0  0  0  0  0
    6.2427  -13.4061   25.9356 C   0  0  0  0  0  0  0  0  0  0  0  0
    6.0314  -12.0543   26.1622 C   0  0  0  0  0  0  0  0  0  0  0  0
    7.0991  -11.1667   26.2876 C   0  0  0  0  0  0  0  0  0  0  0  0
    8.3848  -11.6153   26.1889 C   0  0  0  0  0  0  0  0  0  0  0  0
    8.5613  -12.9637   25.9632 C   0  0  0  0  0  0  0  0  0  0  0  0
    7.5254  -13.8663   25.8347 C   0  0  0  0  0  0  0  0  0  0  0  0
   10.4409  -17.0706   24.1434 C   0  0  0  0  0  0  0  0  0  0  0  0
   10.3418  -18.2925   23.8983 O   0  0  0  0  0  0  0  0  0  0  0  0
   11.7084  -16.5305   24.4529 N   0  0  0  0  0  0  0  0  0  0  0  0
   12.9020  -17.3698   24.5976 C   0  0  1  0  0  0  0  0  0  0  0  0
   14.1469  -16.5096   24.5218 C   0  0  0  0  0  0  0  0  0  0  0  0
   14.3137  -16.0332   23.1378 C   0  0  0  0  0  0  0  0  0  0  0  0
   13.5967  -16.4771   22.1838 O   0  0  0  0  0  0  0  0  0  0  0  0
   12.8549  -17.9986   25.9363 C   0  0  0  0  0  0  0  0  0  0  0  0
   11.9156  -17.7442   26.9035 O   0  0  0  0  0  0  0  0  0  0  0  0
   15.2609  -15.0648   22.7547 O   0  0  0  0  0  0  0  0  0  0  0  0
   13.7461  -18.8611   26.2723 O   0  0  0  0  0  0  0  0  0  0  0  0
  2  3  1  0
  2  1  1  0
  3  4  2  0
  5  6  1  0
  5  3  1  0
  6 17  1  0
  7  8  1  0
  6  7  1  1
  8 16  1  0
  9 10  1  0
  9  8  2  0
 10 11  1  0
 11 16  2  0
 11 12  1  0
 12 13  2  0
 13 14  1  0
 15 14  2  0
 16 15  1  0
 17 18  2  0
 17 19  1  0
 19 20  1  0
 20 24  1  0
 20 21  1  1
 22 21  1  0
 23 22  2  0
 24 27  2  0
 24 25  1  0
 26 22  1  0
M  END
$$$$
