TSM.pdb
     RDKit          3D

 22 21  0  0  1  0  0  0  0  0999 V2000
    8.9222  -14.3648   18.2099 C   0  0  0  0  0  0  0  0  0  0  0  0
    8.7272  -14.8177   19.6397 C   0  0  1  0  0  0  0  0  0  0  0  0
    9.4262  -13.9891   20.5091 O   0  0  0  0  0  0  0  0  0  0  0  0
    7.2499  -14.6970   20.0342 C   0  0  2  0  0  0  0  0  0  0  0  0
    6.9202  -13.2884   19.9069 N   0  0  0  0  0  0  0  0  0  0  0  0
    7.1181  -15.1713   21.4275 C   0  0  0  0  0  0  0  0  0  0  0  0
    7.0463  -14.2877   22.3315 O   0  0  0  0  0  0  0  0  0  0  0  0
    7.9612  -19.1852   22.9205 O   0  0  0  0  0  0  0  0  0  0  0  0
    6.8130  -18.5165   23.2442 C   0  0  0  0  0  0  0  0  0  0  0  0
    6.9088  -17.0231   23.1348 C   0  0  2  0  0  0  0  0  0  0  0  0
    7.0682  -16.5408   21.7997 N   0  0  0  0  0  0  0  0  0  0  0  0
    8.0314  -16.5164   23.9547 C   0  0  0  0  0  0  0  0  0  0  0  0
    9.1217  -16.1290   23.4644 O   0  0  0  0  0  0  0  0  0  0  0  0
    6.6036  -12.0286   27.9036 C   0  0  0  0  0  0  0  0  0  0  0  0
    8.3638  -12.2372   28.1042 S   0  0  0  0  0  0  0  0  0  0  0  0
    9.0002  -13.8741   27.8380 C   0  0  0  0  0  0  0  0  0  0  0  0
    8.2265  -14.6280   26.8178 C   0  0  0  0  0  0  0  0  0  0  0  0
    8.9231  -15.7996   26.1904 C   0  0  2  0  0  0  0  0  0  0  0  0
    7.8807  -16.4608   25.3638 N   0  0  0  0  0  0  0  0  0  0  0  0
    9.3717  -16.7861   27.2142 C   0  0  0  0  0  0  0  0  0  0  0  0
   10.2919  -16.5328   27.9936 O   0  0  0  0  0  0  0  0  0  0  0  0
    8.7293  -18.0079   27.2763 O   0  0  0  0  0  0  0  0  0  0  0  0
  2  1  1  6
  2  4  1  0
  3  2  1  0
  4  5  1  1
  6  4  1  0
  6 11  1  0
  7  6  2  0
  9  8  1  0
 10  9  1  6
 10 12  1  0
 11 10  1  0
 12 13  2  0
 12 19  1  0
 15 14  1  0
 16 15  1  0
 17 16  1  0
 18 17  1  1
 19 18  1  0
 20 18  1  0
 20 22  1  0
 21 20  2  0
M  END
$$$$
