TSM.pdb
     RDKit          3D

 22 21  0  0  1  0  0  0  0  0999 V2000
   11.8421  -18.8813   18.4000 C   0  0  0  0  0  0  0  0  0  0  0  0
   10.9698  -17.9868   19.2523 C   0  0  1  0  0  0  0  0  0  0  0  0
   11.5107  -16.7087   19.3228 O   0  0  0  0  0  0  0  0  0  0  0  0
    9.5877  -17.8277   18.6064 C   0  0  2  0  0  0  0  0  0  0  0  0
    9.8114  -17.1059   17.3662 N   0  0  0  0  0  0  0  0  0  0  0  0
    8.7400  -17.0634   19.5449 C   0  0  0  0  0  0  0  0  0  0  0  0
    8.6318  -15.8188   19.3394 O   0  0  0  0  0  0  0  0  0  0  0  0
    6.4333  -18.8517   22.8075 O   0  0  0  0  0  0  0  0  0  0  0  0
    6.0123  -17.8243   22.0091 C   0  0  0  0  0  0  0  0  0  0  0  0
    7.1141  -16.9559   21.4771 C   0  0  2  0  0  0  0  0  0  0  0  0
    8.0521  -17.6404   20.6452 N   0  0  0  0  0  0  0  0  0  0  0  0
    7.8513  -16.3175   22.5899 C   0  0  0  0  0  0  0  0  0  0  0  0
    9.0513  -16.5762   22.8584 O   0  0  0  0  0  0  0  0  0  0  0  0
    6.6225  -10.6969   28.1459 C   0  0  0  0  0  0  0  0  0  0  0  0
    6.1723  -11.7207   26.7563 S   0  0  0  0  0  0  0  0  0  0  0  0
    7.3840  -12.9048   26.2227 C   0  0  0  0  0  0  0  0  0  0  0  0
    6.9656  -13.6374   24.9995 C   0  0  0  0  0  0  0  0  0  0  0  0
    7.9141  -14.6868   24.4988 C   0  0  2  0  0  0  0  0  0  0  0  0
    7.1806  -15.3657   23.3996 N   0  0  0  0  0  0  0  0  0  0  0  0
    8.2012  -15.7122   25.5423 C   0  0  0  0  0  0  0  0  0  0  0  0
    7.5063  -16.7229   25.6612 O   0  0  0  0  0  0  0  0  0  0  0  0
    9.2753  -15.5080   26.3873 O   0  0  0  0  0  0  0  0  0  0  0  0
  2  1  1  6
  2  4  1  0
  3  2  1  0
  4  5  1  6
  6  4  1  0
  6 11  1  0
  7  6  2  0
  9  8  1  0
 10  9  1  1
 10 12  1  0
 11 10  1  0
 12 13  2  0
 12 19  1  0
 15 14  1  0
 16 15  1  0
 17 16  1  0
 18 17  1  1
 19 18  1  0
 20 18  1  0
 20 22  1  0
 21 20  2  0
M  END
$$$$
