TSM.pdb
     RDKit          3D

 22 21  0  0  1  0  0  0  0  0999 V2000
    9.8348  -14.0554   16.6478 C   0  0  0  0  0  0  0  0  0  0  0  0
    9.4692  -14.4857   18.0509 C   0  0  1  0  0  0  0  0  0  0  0  0
   10.2618  -13.8247   18.9815 O   0  0  0  0  0  0  0  0  0  0  0  0
    8.0223  -14.0852   18.3650 C   0  0  2  0  0  0  0  0  0  0  0  0
    8.0006  -12.6333   18.3457 N   0  0  0  0  0  0  0  0  0  0  0  0
    7.6878  -14.6249   19.6994 C   0  0  0  0  0  0  0  0  0  0  0  0
    7.5749  -13.7909   20.6453 O   0  0  0  0  0  0  0  0  0  0  0  0
    6.6972  -18.5534   22.5044 O   0  0  0  0  0  0  0  0  0  0  0  0
    7.0791  -18.0369   21.2970 C   0  0  0  0  0  0  0  0  0  0  0  0
    7.0494  -16.5387   21.2218 C   0  0  2  0  0  0  0  0  0  0  0  0
    7.4894  -16.0043   19.9723 N   0  0  0  0  0  0  0  0  0  0  0  0
    7.8740  -15.9512   22.3007 C   0  0  0  0  0  0  0  0  0  0  0  0
    9.1004  -15.7075   22.1745 O   0  0  0  0  0  0  0  0  0  0  0  0
    6.5907  -10.9470   28.2466 C   0  0  0  0  0  0  0  0  0  0  0  0
    6.1585  -12.0004   26.8736 S   0  0  0  0  0  0  0  0  0  0  0  0
    7.4258  -13.1018   26.2938 C   0  0  0  0  0  0  0  0  0  0  0  0
    6.9914  -13.9045   25.1213 C   0  0  0  0  0  0  0  0  0  0  0  0
    8.0062  -14.8542   24.5560 C   0  0  2  0  0  0  0  0  0  0  0  0
    7.2610  -15.6442   23.5422 N   0  0  0  0  0  0  0  0  0  0  0  0
    8.5015  -15.8090   25.5884 C   0  0  0  0  0  0  0  0  0  0  0  0
    8.0147  -16.9343   25.7120 O   0  0  0  0  0  0  0  0  0  0  0  0
    9.5310  -15.4059   26.4173 O   0  0  0  0  0  0  0  0  0  0  0  0
  2  1  1  6
  2  4  1  0
  3  2  1  0
  4  5  1  1
  6  4  1  0
  6 11  1  0
  7  6  2  0
  9  8  1  0
 10  9  1  6
 10 12  1  0
 11 10  1  0
 12 13  2  0
 12 19  1  0
 15 14  1  0
 16 15  1  0
 17 16  1  0
 18 17  1  1
 19 18  1  0
 20 18  1  0
 20 22  1  0
 21 20  2  0
M  END
$$$$
