TSM.pdb
     RDKit          3D

 22 21  0  0  1  0  0  0  0  0999 V2000
   12.1164  -19.9668   19.6595 C   0  0  0  0  0  0  0  0  0  0  0  0
   11.4168  -18.8157   20.3473 C   0  0  1  0  0  0  0  0  0  0  0  0
   12.3423  -17.9997   20.9866 O   0  0  0  0  0  0  0  0  0  0  0  0
   10.7149  -17.9300   19.3102 C   0  0  2  0  0  0  0  0  0  0  0  0
   11.7747  -17.3403   18.5115 N   0  0  0  0  0  0  0  0  0  0  0  0
    9.9422  -16.9067   20.0447 C   0  0  0  0  0  0  0  0  0  0  0  0
   10.3801  -15.7193   20.0082 O   0  0  0  0  0  0  0  0  0  0  0  0
    6.2295  -17.7370   22.1193 O   0  0  0  0  0  0  0  0  0  0  0  0
    6.5147  -16.5250   21.5535 C   0  0  0  0  0  0  0  0  0  0  0  0
    7.9780  -16.2038   21.4716 C   0  0  2  0  0  0  0  0  0  0  0  0
    8.7558  -17.1793   20.7758 N   0  0  0  0  0  0  0  0  0  0  0  0
    8.5452  -16.0302   22.8271 C   0  0  0  0  0  0  0  0  0  0  0  0
    9.3785  -16.8244   23.3313 O   0  0  0  0  0  0  0  0  0  0  0  0
    5.8760  -11.3264   26.4529 C   0  0  0  0  0  0  0  0  0  0  0  0
    7.0825  -11.9817   27.5916 S   0  0  0  0  0  0  0  0  0  0  0  0
    8.0337  -13.3695   27.0219 C   0  0  0  0  0  0  0  0  0  0  0  0
    7.8041  -13.6667   25.5842 C   0  0  0  0  0  0  0  0  0  0  0  0
    8.6431  -14.7606   24.9917 C   0  0  2  0  0  0  0  0  0  0  0  0
    8.1354  -14.9170   23.6043 N   0  0  0  0  0  0  0  0  0  0  0  0
    8.4298  -16.0589   25.6929 C   0  0  0  0  0  0  0  0  0  0  0  0
    9.2083  -16.4583   26.5606 O   0  0  0  0  0  0  0  0  0  0  0  0
    7.3283  -16.8191   25.3491 O   0  0  0  0  0  0  0  0  0  0  0  0
  2  1  1  6
  2  4  1  0
  3  2  1  0
  4  5  1  6
  6  4  1  0
  6 11  1  0
  7  6  2  0
  9  8  1  0
 10  9  1  1
 10 12  1  0
 11 10  1  0
 12 13  2  0
 12 19  1  0
 15 14  1  0
 16 15  1  0
 17 16  1  0
 18 17  1  1
 19 18  1  0
 20 18  1  0
 20 22  1  0
 21 20  2  0
M  END
$$$$
