TSM.pdb
     RDKit          3D

 22 21  0  0  1  0  0  0  0  0999 V2000
    9.9758  -12.8410   20.1431 C   0  0  0  0  0  0  0  0  0  0  0  0
    8.6700  -12.7876   19.3816 C   0  0  1  0  0  0  0  0  0  0  0  0
    8.8558  -12.1817   18.1450 O   0  0  0  0  0  0  0  0  0  0  0  0
    8.1728  -14.2085   19.0876 C   0  0  2  0  0  0  0  0  0  0  0  0
    6.9479  -14.0490   18.3240 N   0  0  0  0  0  0  0  0  0  0  0  0
    7.9325  -14.8761   20.3839 C   0  0  0  0  0  0  0  0  0  0  0  0
    6.9550  -14.4600   21.0726 O   0  0  0  0  0  0  0  0  0  0  0  0
   10.3792  -18.1168   21.9272 O   0  0  0  0  0  0  0  0  0  0  0  0
    9.0296  -18.0404   22.1352 C   0  0  0  0  0  0  0  0  0  0  0  0
    8.4714  -16.6481   22.1037 C   0  0  2  0  0  0  0  0  0  0  0  0
    8.7251  -15.9407   20.8890 N   0  0  0  0  0  0  0  0  0  0  0  0
    9.0050  -15.8523   23.2312 C   0  0  0  0  0  0  0  0  0  0  0  0
   10.0581  -15.1708   23.1549 O   0  0  0  0  0  0  0  0  0  0  0  0
    5.8849  -10.4698   26.3119 C   0  0  0  0  0  0  0  0  0  0  0  0
    6.1512  -12.1967   26.6707 S   0  0  0  0  0  0  0  0  0  0  0  0
    7.5005  -12.9805   25.8220 C   0  0  0  0  0  0  0  0  0  0  0  0
    7.6793  -14.3999   26.2233 C   0  0  0  0  0  0  0  0  0  0  0  0
    8.8568  -15.1137   25.6270 C   0  0  2  0  0  0  0  0  0  0  0  0
    8.3019  -15.8512   24.4628 N   0  0  0  0  0  0  0  0  0  0  0  0
    9.4214  -16.1244   26.5664 C   0  0  0  0  0  0  0  0  0  0  0  0
    9.0756  -17.3064   26.5253 O   0  0  0  0  0  0  0  0  0  0  0  0
   10.3528  -15.7082   27.4985 O   0  0  0  0  0  0  0  0  0  0  0  0
  2  1  1  6
  2  4  1  0
  3  2  1  0
  4  5  1  6
  6  4  1  0
  6 11  1  0
  7  6  2  0
  9  8  1  0
 10  9  1  6
 10 12  1  0
 11 10  1  0
 12 13  2  0
 12 19  1  0
 15 14  1  0
 16 15  1  0
 17 16  1  0
 18 17  1  1
 19 18  1  0
 20 18  1  0
 20 22  1  0
 21 20  2  0
M  END
$$$$
