TSM.pdb
     RDKit          3D

 22 21  0  0  1  0  0  0  0  0999 V2000
   10.0529  -12.7173   19.5206 C   0  0  0  0  0  0  0  0  0  0  0  0
    8.8639  -12.9636   18.6189 C   0  0  1  0  0  0  0  0  0  0  0  0
    9.0977  -12.4351   17.3551 O   0  0  0  0  0  0  0  0  0  0  0  0
    8.6583  -14.4702   18.4175 C   0  0  2  0  0  0  0  0  0  0  0  0
    7.4646  -14.6009   17.6008 N   0  0  0  0  0  0  0  0  0  0  0  0
    8.4839  -15.0807   19.7519 C   0  0  0  0  0  0  0  0  0  0  0  0
    7.4344  -14.7758   20.3913 O   0  0  0  0  0  0  0  0  0  0  0  0
   11.4262  -17.6207   21.7226 O   0  0  0  0  0  0  0  0  0  0  0  0
   10.0847  -17.8862   21.7424 C   0  0  0  0  0  0  0  0  0  0  0  0
    9.2077  -16.6811   21.5693 C   0  0  2  0  0  0  0  0  0  0  0  0
    9.4139  -15.9755   20.3446 N   0  0  0  0  0  0  0  0  0  0  0  0
    9.3988  -15.7378   22.6931 C   0  0  0  0  0  0  0  0  0  0  0  0
   10.2010  -14.7714   22.6515 O   0  0  0  0  0  0  0  0  0  0  0  0
    5.8420  -11.2828   27.7860 C   0  0  0  0  0  0  0  0  0  0  0  0
    6.0190  -12.4407   26.4407 S   0  0  0  0  0  0  0  0  0  0  0  0
    7.5459  -13.3458   26.3738 C   0  0  0  0  0  0  0  0  0  0  0  0
    7.6361  -14.2248   25.1791 C   0  0  0  0  0  0  0  0  0  0  0  0
    8.8873  -15.0432   25.0517 C   0  0  2  0  0  0  0  0  0  0  0  0
    8.6452  -15.9239   23.8800 N   0  0  0  0  0  0  0  0  0  0  0  0
    9.0915  -15.9246   26.2366 C   0  0  0  0  0  0  0  0  0  0  0  0
    9.3867  -15.4627   27.3403 O   0  0  0  0  0  0  0  0  0  0  0  0
    8.9423  -17.2888   26.0753 O   0  0  0  0  0  0  0  0  0  0  0  0
  2  1  1  1
  2  4  1  0
  3  2  1  0
  4  5  1  6
  6  4  1  0
  6 11  1  0
  7  6  2  0
  9  8  1  0
 10  9  1  1
 10 12  1  0
 11 10  1  0
 12 13  2  0
 12 19  1  0
 15 14  1  0
 16 15  1  0
 17 16  1  0
 18 17  1  1
 19 18  1  0
 20 18  1  0
 20 22  1  0
 21 20  2  0
M  END
$$$$
