EPR.pdb
     RDKit          3D

 28 28  0  0  1  0  0  0  0  0999 V2000
    9.5559  -16.7576   16.2961 N   0  0  0  0  0  0  0  0  0  0  0  0
    8.6141  -16.2845   17.3268 C   0  0  1  0  0  0  0  0  0  0  0  0
    7.9333  -17.5418   17.8782 C   0  0  0  0  0  0  0  0  0  0  0  0
    7.1583  -18.2458   16.8067 C   0  0  0  0  0  0  0  0  0  0  0  0
    6.4530  -19.4038   17.4002 C   0  0  0  0  0  0  0  0  0  0  0  0
    5.2180  -19.3389   17.6051 O   0  0  0  0  0  0  0  0  0  0  0  0
    9.3423  -15.6824   18.4638 C   0  0  0  0  0  0  0  0  0  0  0  0
   10.6021  -15.9010   18.5101 O   0  0  0  0  0  0  0  0  0  0  0  0
    7.1154  -20.5811   17.7458 O   0  0  0  0  0  0  0  0  0  0  0  0
    8.7076  -14.9110   19.4469 N   0  0  0  0  0  0  0  0  0  0  0  0
    7.2882  -14.6623   19.5334 C   0  0  0  0  0  0  0  0  0  0  0  0
    7.1702  -13.3454   20.2636 C   0  0  0  0  0  0  0  0  0  0  0  0
    8.6127  -12.8780   20.4866 C   0  0  0  0  0  0  0  0  0  0  0  0
    9.3160  -14.2418   20.5568 C   0  0  1  0  0  0  0  0  0  0  0  0
    8.8860  -14.9574   21.8091 C   0  0  0  0  0  0  0  0  0  0  0  0
    7.7610  -15.5198   21.9125 O   0  0  0  0  0  0  0  0  0  0  0  0
   13.6038  -20.6959   18.9606 N   0  0  0  0  0  0  0  0  0  0  0  0
   13.7397  -19.8102   20.0555 C   0  0  0  0  0  0  0  0  0  0  0  0
   14.9273  -19.4883   20.5051 N   0  0  0  0  0  0  0  0  0  0  0  0
   12.6320  -19.2426   20.7028 N   0  0  0  0  0  0  0  0  0  0  0  0
   12.7185  -18.3279   21.8114 C   0  0  0  0  0  0  0  0  0  0  0  0
   11.3863  -17.8580   22.2603 C   0  0  0  0  0  0  0  0  0  0  0  0
   11.2230  -16.8726   23.3236 C   0  0  0  0  0  0  0  0  0  0  0  0
    9.8780  -16.3625   23.6612 C   0  0  2  0  0  0  0  0  0  0  0  0
    9.7266  -15.0363   22.9406 N   0  0  0  0  0  0  0  0  0  0  0  0
    9.6814  -15.9615   25.0605 C   0  0  0  0  0  0  0  0  0  0  0  0
    9.2784  -16.7357   25.9259 O   0  0  0  0  0  0  0  0  0  0  0  0
    9.9509  -14.6452   25.4878 O   0  0  0  0  0  0  0  0  0  0  0  0
  2  1  1  6
  2  7  1  0
  2  3  1  0
  3  4  1  0
  5  9  1  0
  5  4  1  0
  6  5  2  0
  7  8  2  0
 10  7  1  0
 10 11  1  0
 12 11  1  0
 13 14  1  0
 13 12  1  0
 14 10  1  0
 15 25  1  0
 14 15  1  1
 16 15  2  0
 17 18  1  0
 18 19  2  0
 20 21  1  0
 20 18  1  0
 21 22  1  0
 23 22  1  0
 24 23  1  1
 24 25  1  0
 26 28  1  0
 26 24  1  0
 27 26  2  0
M  END
$$$$
