EPR.pdb
     RDKit          3D

 28 28  0  0  1  0  0  0  0  0999 V2000
    9.7862  -15.5312   15.4695 N   0  0  0  0  0  0  0  0  0  0  0  0
    8.8498  -15.6823   16.5980 C   0  0  1  0  0  0  0  0  0  0  0  0
    8.5612  -17.1837   16.7022 C   0  0  0  0  0  0  0  0  0  0  0  0
    7.7340  -17.4882   17.9135 C   0  0  0  0  0  0  0  0  0  0  0  0
    7.4195  -18.9343   17.9345 C   0  0  0  0  0  0  0  0  0  0  0  0
    6.7289  -19.4050   18.8689 O   0  0  0  0  0  0  0  0  0  0  0  0
    9.4987  -15.3019   17.8707 C   0  0  0  0  0  0  0  0  0  0  0  0
   10.7383  -15.5975   17.9857 O   0  0  0  0  0  0  0  0  0  0  0  0
    7.8663  -19.8074   16.9434 O   0  0  0  0  0  0  0  0  0  0  0  0
    8.8131  -14.6524   18.9062 N   0  0  0  0  0  0  0  0  0  0  0  0
    7.3997  -14.3590   18.9237 C   0  0  0  0  0  0  0  0  0  0  0  0
    7.2658  -13.1558   19.8270 C   0  0  0  0  0  0  0  0  0  0  0  0
    8.7002  -12.7862   20.2206 C   0  0  0  0  0  0  0  0  0  0  0  0
    9.3529  -14.1745   20.1432 C   0  0  1  0  0  0  0  0  0  0  0  0
    8.8039  -15.0424   21.2433 C   0  0  0  0  0  0  0  0  0  0  0  0
    7.8161  -15.8084   21.0692 O   0  0  0  0  0  0  0  0  0  0  0  0
   12.4265  -21.4932   21.1318 N   0  0  0  0  0  0  0  0  0  0  0  0
   12.8848  -21.2914   22.4550 C   0  0  0  0  0  0  0  0  0  0  0  0
   13.1881  -22.3141   23.2154 N   0  0  0  0  0  0  0  0  0  0  0  0
   13.0349  -20.0115   23.0095 N   0  0  0  0  0  0  0  0  0  0  0  0
   12.6283  -18.7916   22.3616 C   0  0  0  0  0  0  0  0  0  0  0  0
   11.4818  -18.1457   23.0437 C   0  0  0  0  0  0  0  0  0  0  0  0
   10.8683  -16.9184   22.5479 C   0  0  0  0  0  0  0  0  0  0  0  0
    9.6701  -16.3673   23.2138 C   0  0  2  0  0  0  0  0  0  0  0  0
    9.3708  -15.0436   22.5363 N   0  0  0  0  0  0  0  0  0  0  0  0
    9.8529  -15.9488   24.6099 C   0  0  0  0  0  0  0  0  0  0  0  0
   10.4839  -14.9431   24.9275 O   0  0  0  0  0  0  0  0  0  0  0  0
    9.3030  -16.6933   25.6735 O   0  0  0  0  0  0  0  0  0  0  0  0
  2  1  1  6
  2  7  1  0
  2  3  1  0
  3  4  1  0
  5  9  1  0
  5  4  1  0
  6  5  2  0
  7  8  2  0
 10  7  1  0
 10 11  1  0
 12 11  1  0
 13 14  1  0
 13 12  1  0
 14 10  1  0
 15 25  1  0
 14 15  1  1
 16 15  2  0
 17 18  1  0
 18 19  2  0
 20 21  1  0
 20 18  1  0
 21 22  1  0
 23 22  1  0
 24 23  1  6
 24 25  1  0
 26 28  1  0
 26 24  1  0
 27 26  2  0
M  END
$$$$
