EPR.pdb
     RDKit          3D

 28 28  0  0  1  0  0  0  0  0999 V2000
    9.4011  -16.6721   16.1479 N   0  0  0  0  0  0  0  0  0  0  0  0
    8.5526  -15.9150   17.0859 C   0  0  1  0  0  0  0  0  0  0  0  0
    7.4517  -16.8850   17.5282 C   0  0  0  0  0  0  0  0  0  0  0  0
    8.0372  -18.1762   18.0121 C   0  0  0  0  0  0  0  0  0  0  0  0
    6.9451  -19.0566   18.4843 C   0  0  0  0  0  0  0  0  0  0  0  0
    7.1524  -19.8450   19.4367 O   0  0  0  0  0  0  0  0  0  0  0  0
    9.3063  -15.5674   18.3092 C   0  0  0  0  0  0  0  0  0  0  0  0
   10.4953  -16.0324   18.3940 O   0  0  0  0  0  0  0  0  0  0  0  0
    5.6769  -19.0451   17.9048 O   0  0  0  0  0  0  0  0  0  0  0  0
    8.7678  -14.7734   19.3309 N   0  0  0  0  0  0  0  0  0  0  0  0
    7.4224  -14.2516   19.3691 C   0  0  0  0  0  0  0  0  0  0  0  0
    7.5142  -13.0077   20.2210 C   0  0  0  0  0  0  0  0  0  0  0  0
    9.0010  -12.8631   20.5636 C   0  0  0  0  0  0  0  0  0  0  0  0
    9.4162  -14.3416   20.5323 C   0  0  1  0  0  0  0  0  0  0  0  0
    8.7671  -15.0632   21.6825 C   0  0  0  0  0  0  0  0  0  0  0  0
    7.6081  -15.5562   21.6023 O   0  0  0  0  0  0  0  0  0  0  0  0
   14.1961  -20.9409   20.4426 N   0  0  0  0  0  0  0  0  0  0  0  0
   13.6806  -21.2365   21.7265 C   0  0  0  0  0  0  0  0  0  0  0  0
   13.9321  -22.3906   22.2930 N   0  0  0  0  0  0  0  0  0  0  0  0
   12.8897  -20.3270   22.4445 N   0  0  0  0  0  0  0  0  0  0  0  0
   12.3355  -19.1183   21.8922 C   0  0  0  0  0  0  0  0  0  0  0  0
   11.4005  -18.4480   22.8268 C   0  0  0  0  0  0  0  0  0  0  0  0
   10.7180  -17.2033   22.4902 C   0  0  0  0  0  0  0  0  0  0  0  0
    9.7269  -16.6262   23.4217 C   0  0  2  0  0  0  0  0  0  0  0  0
    9.4276  -15.2264   22.9197 N   0  0  0  0  0  0  0  0  0  0  0  0
   10.2131  -16.3538   24.7808 C   0  0  0  0  0  0  0  0  0  0  0  0
   10.9500  -15.4073   25.0483 O   0  0  0  0  0  0  0  0  0  0  0  0
    9.8513  -17.1794   25.8650 O   0  0  0  0  0  0  0  0  0  0  0  0
  2  1  1  6
  2  7  1  0
  2  3  1  0
  3  4  1  0
  5  9  1  0
  5  4  1  0
  6  5  2  0
  7  8  2  0
 10  7  1  0
 10 11  1  0
 12 11  1  0
 13 14  1  0
 13 12  1  0
 14 10  1  0
 15 25  1  0
 14 15  1  1
 16 15  2  0
 17 18  1  0
 18 19  2  0
 20 21  1  0
 20 18  1  0
 21 22  1  0
 23 22  1  0
 24 23  1  6
 24 25  1  0
 26 28  1  0
 26 24  1  0
 27 26  2  0
M  END
$$$$
