EPR.pdb
     RDKit          3D

 28 28  0  0  1  0  0  0  0  0999 V2000
    6.8063  -15.9242   22.0590 N   0  0  0  0  0  0  0  0  0  0  0  0
    6.5715  -15.4562   23.4370 C   0  0  1  0  0  0  0  0  0  0  0  0
    6.6929  -16.6988   24.3257 C   0  0  0  0  0  0  0  0  0  0  0  0
    7.1769  -17.8770   23.5371 C   0  0  0  0  0  0  0  0  0  0  0  0
    7.6133  -18.9390   24.4711 C   0  0  0  0  0  0  0  0  0  0  0  0
    7.2187  -20.1164   24.2990 O   0  0  0  0  0  0  0  0  0  0  0  0
    7.6476  -14.5390   23.8684 C   0  0  0  0  0  0  0  0  0  0  0  0
    8.6391  -14.4126   23.0697 O   0  0  0  0  0  0  0  0  0  0  0  0
    8.4576  -18.6800   25.5501 O   0  0  0  0  0  0  0  0  0  0  0  0
    7.6038  -13.8364   25.0804 N   0  0  0  0  0  0  0  0  0  0  0  0
    6.6083  -14.0027   26.1125 C   0  0  0  0  0  0  0  0  0  0  0  0
    6.5753  -12.6765   26.8350 C   0  0  0  0  0  0  0  0  0  0  0  0
    7.5553  -11.7782   26.0726 C   0  0  0  0  0  0  0  0  0  0  0  0
    8.5264  -12.8461   25.5473 C   0  0  1  0  0  0  0  0  0  0  0  0
    9.2827  -13.4407   26.7047 C   0  0  0  0  0  0  0  0  0  0  0  0
   10.0533  -12.7544   27.4314 O   0  0  0  0  0  0  0  0  0  0  0  0
    7.6304  -21.7129   28.8113 N   0  0  0  0  0  0  0  0  0  0  0  0
    7.2125  -20.8721   27.7529 C   0  0  0  0  0  0  0  0  0  0  0  0
    6.2176  -21.2259   26.9776 N   0  0  0  0  0  0  0  0  0  0  0  0
    7.8298  -19.6412   27.4849 N   0  0  0  0  0  0  0  0  0  0  0  0
    7.6686  -18.4581   28.2897 C   0  0  0  0  0  0  0  0  0  0  0  0
    8.4558  -17.3132   27.7737 C   0  0  0  0  0  0  0  0  0  0  0  0
    9.4511  -16.6206   28.5848 C   0  0  0  0  0  0  0  0  0  0  0  0
   10.1076  -15.4008   28.0708 C   0  0  2  0  0  0  0  0  0  0  0  0
    9.1673  -14.8075   27.0388 N   0  0  0  0  0  0  0  0  0  0  0  0
   11.3212  -15.6187   27.2725 C   0  0  0  0  0  0  0  0  0  0  0  0
   11.3025  -15.7388   26.0495 O   0  0  0  0  0  0  0  0  0  0  0  0
   12.5905  -15.7016   27.8809 O   0  0  0  0  0  0  0  0  0  0  0  0
  2  1  1  6
  2  7  1  0
  2  3  1  0
  3  4  1  0
  5  9  1  0
  5  4  1  0
  6  5  2  0
  7  8  2  0
 10  7  1  0
 10 11  1  0
 12 11  1  0
 13 14  1  0
 13 12  1  0
 14 10  1  0
 15 25  1  0
 14 15  1  1
 16 15  2  0
 17 18  1  0
 18 19  2  0
 20 21  1  0
 20 18  1  0
 21 22  1  0
 23 22  1  0
 24 23  1  6
 24 25  1  0
 26 28  1  0
 26 24  1  0
 27 26  2  0
M  END
$$$$
