EPR.pdb
     RDKit          3D

 28 28  0  0  1  0  0  0  0  0999 V2000
    8.6373  -12.5029   17.7475 N   0  0  0  0  0  0  0  0  0  0  0  0
    8.6132  -13.9222   18.1454 C   0  0  1  0  0  0  0  0  0  0  0  0
   10.0575  -14.4170   18.0125 C   0  0  0  0  0  0  0  0  0  0  0  0
   10.9252  -13.8337   19.0855 C   0  0  0  0  0  0  0  0  0  0  0  0
   12.2883  -14.3979   18.9663 C   0  0  0  0  0  0  0  0  0  0  0  0
   12.5570  -15.1750   18.0201 O   0  0  0  0  0  0  0  0  0  0  0  0
    8.2647  -14.0586   19.5756 C   0  0  0  0  0  0  0  0  0  0  0  0
    8.4273  -13.0170   20.3007 O   0  0  0  0  0  0  0  0  0  0  0  0
   13.3006  -14.0961   19.8766 O   0  0  0  0  0  0  0  0  0  0  0  0
    7.7807  -15.2528   20.1269 N   0  0  0  0  0  0  0  0  0  0  0  0
    7.7709  -16.5383   19.4701 C   0  0  0  0  0  0  0  0  0  0  0  0
    6.6334  -17.2937   20.1159 C   0  0  0  0  0  0  0  0  0  0  0  0
    5.9964  -16.3021   21.0956 C   0  0  0  0  0  0  0  0  0  0  0  0
    7.2279  -15.4484   21.4332 C   0  0  1  0  0  0  0  0  0  0  0  0
    8.2060  -16.2785   22.2201 C   0  0  0  0  0  0  0  0  0  0  0  0
    9.1127  -16.9592   21.6658 O   0  0  0  0  0  0  0  0  0  0  0  0
   10.0826  -16.2529   30.8949 N   0  0  0  0  0  0  0  0  0  0  0  0
   10.5770  -15.0193   30.4098 C   0  0  0  0  0  0  0  0  0  0  0  0
   11.0021  -14.1014   31.2422 N   0  0  0  0  0  0  0  0  0  0  0  0
   10.6362  -14.7217   29.0401 N   0  0  0  0  0  0  0  0  0  0  0  0
    9.5249  -14.8432   28.1326 C   0  0  0  0  0  0  0  0  0  0  0  0
    9.9509  -15.2362   26.7685 C   0  0  0  0  0  0  0  0  0  0  0  0
    9.0033  -15.4038   25.6720 C   0  0  0  0  0  0  0  0  0  0  0  0
    9.4227  -16.0790   24.4266 C   0  0  2  0  0  0  0  0  0  0  0  0
    8.1582  -16.3382   23.6298 N   0  0  0  0  0  0  0  0  0  0  0  0
    9.9535  -17.4393   24.5870 C   0  0  0  0  0  0  0  0  0  0  0  0
    9.2452  -18.4423   24.5335 O   0  0  0  0  0  0  0  0  0  0  0  0
   11.3266  -17.6654   24.8138 O   0  0  0  0  0  0  0  0  0  0  0  0
  2  1  1  1
  2  7  1  0
  2  3  1  0
  3  4  1  0
  5  9  1  0
  5  4  1  0
  6  5  2  0
  7  8  2  0
 10  7  1  0
 10 11  1  0
 12 11  1  0
 13 14  1  0
 13 12  1  0
 14 10  1  0
 15 25  1  0
 14 15  1  1
 16 15  2  0
 17 18  1  0
 18 19  2  0
 20 21  1  0
 20 18  1  0
 21 22  1  0
 23 22  1  0
 24 23  1  1
 24 25  1  0
 26 28  1  0
 26 24  1  0
 27 26  2  0
M  END
$$$$
