EPR.pdb
     RDKit          3D

 28 28  0  0  1  0  0  0  0  0999 V2000
    8.7719  -16.6126   16.2415 N   0  0  0  0  0  0  0  0  0  0  0  0
    8.0046  -15.9037   17.2817 C   0  0  1  0  0  0  0  0  0  0  0  0
    7.0789  -16.9537   17.9054 C   0  0  0  0  0  0  0  0  0  0  0  0
    7.3639  -18.3164   17.3522 C   0  0  0  0  0  0  0  0  0  0  0  0
    6.6971  -19.3319   18.1977 C   0  0  0  0  0  0  0  0  0  0  0  0
    5.5143  -19.6651   17.9498 O   0  0  0  0  0  0  0  0  0  0  0  0
    8.8957  -15.4472   18.3692 C   0  0  0  0  0  0  0  0  0  0  0  0
   10.1379  -15.7250   18.2389 O   0  0  0  0  0  0  0  0  0  0  0  0
    7.3397  -19.9419   19.2744 O   0  0  0  0  0  0  0  0  0  0  0  0
    8.4270  -14.7468   19.4892 N   0  0  0  0  0  0  0  0  0  0  0  0
    7.0503  -14.3961   19.7454 C   0  0  0  0  0  0  0  0  0  0  0  0
    7.1210  -13.1680   20.6220 C   0  0  0  0  0  0  0  0  0  0  0  0
    8.6145  -12.8480   20.7470 C   0  0  0  0  0  0  0  0  0  0  0  0
    9.1933  -14.2630   20.5977 C   0  0  1  0  0  0  0  0  0  0  0  0
    8.8159  -15.0825   21.8022 C   0  0  0  0  0  0  0  0  0  0  0  0
    7.6289  -15.4493   22.0240 O   0  0  0  0  0  0  0  0  0  0  0  0
   14.2908  -18.4301   20.2792 N   0  0  0  0  0  0  0  0  0  0  0  0
   13.5812  -19.4629   20.9360 C   0  0  0  0  0  0  0  0  0  0  0  0
   13.8917  -20.7183   20.7266 N   0  0  0  0  0  0  0  0  0  0  0  0
   12.5300  -19.2010   21.8272 N   0  0  0  0  0  0  0  0  0  0  0  0
   12.7058  -18.7299   23.1764 C   0  0  0  0  0  0  0  0  0  0  0  0
   11.7754  -17.6268   23.5146 C   0  0  0  0  0  0  0  0  0  0  0  0
   10.3309  -17.7441   23.3471 C   0  0  0  0  0  0  0  0  0  0  0  0
    9.4487  -16.6157   23.7095 C   0  0  2  0  0  0  0  0  0  0  0  0
    9.7788  -15.4858   22.7527 N   0  0  0  0  0  0  0  0  0  0  0  0
    9.7184  -15.9884   25.0101 C   0  0  0  0  0  0  0  0  0  0  0  0
   10.2425  -14.8822   25.1212 O   0  0  0  0  0  0  0  0  0  0  0  0
    9.3825  -16.6356   26.2168 O   0  0  0  0  0  0  0  0  0  0  0  0
  2  1  1  6
  2  7  1  0
  2  3  1  0
  3  4  1  0
  5  9  1  0
  5  4  1  0
  6  5  2  0
  7  8  2  0
 10  7  1  0
 10 11  1  0
 12 11  1  0
 13 14  1  0
 13 12  1  0
 14 10  1  0
 15 25  1  0
 14 15  1  1
 16 15  2  0
 17 18  1  0
 18 19  2  0
 20 21  1  0
 20 18  1  0
 21 22  1  0
 23 22  1  0
 24 23  1  6
 24 25  1  0
 26 28  1  0
 26 24  1  0
 27 26  2  0
M  END
$$$$
