EPR.pdb
     RDKit          3D

 28 28  0  0  1  0  0  0  0  0999 V2000
    9.4333  -16.0777   15.5068 N   0  0  0  0  0  0  0  0  0  0  0  0
    8.5345  -15.5579   16.5532 C   0  0  1  0  0  0  0  0  0  0  0  0
    7.6110  -16.7226   16.9260 C   0  0  0  0  0  0  0  0  0  0  0  0
    8.3936  -17.9836   17.1300 C   0  0  0  0  0  0  0  0  0  0  0  0
    7.5146  -19.0061   17.7404 C   0  0  0  0  0  0  0  0  0  0  0  0
    7.6396  -19.2851   18.9562 O   0  0  0  0  0  0  0  0  0  0  0  0
    9.2934  -15.2300   17.7789 C   0  0  0  0  0  0  0  0  0  0  0  0
   10.5341  -15.5422   17.7782 O   0  0  0  0  0  0  0  0  0  0  0  0
    6.5390  -19.6816   17.0081 O   0  0  0  0  0  0  0  0  0  0  0  0
    8.7060  -14.6110   18.8908 N   0  0  0  0  0  0  0  0  0  0  0  0
    7.2959  -14.3537   19.0619 C   0  0  0  0  0  0  0  0  0  0  0  0
    7.2299  -13.1656   19.9923 C   0  0  0  0  0  0  0  0  0  0  0  0
    8.6886  -12.7648   20.2377 C   0  0  0  0  0  0  0  0  0  0  0  0
    9.3624  -14.1350   20.0708 C   0  0  1  0  0  0  0  0  0  0  0  0
    8.9539  -15.0303   21.2095 C   0  0  0  0  0  0  0  0  0  0  0  0
    7.8682  -15.6737   21.2062 O   0  0  0  0  0  0  0  0  0  0  0  0
   11.4676  -19.8865   28.2488 N   0  0  0  0  0  0  0  0  0  0  0  0
   11.4751  -20.1909   26.8672 C   0  0  0  0  0  0  0  0  0  0  0  0
   10.6985  -21.1323   26.3909 N   0  0  0  0  0  0  0  0  0  0  0  0
   12.2979  -19.5139   25.9547 N   0  0  0  0  0  0  0  0  0  0  0  0
   12.1323  -18.1338   25.5788 C   0  0  0  0  0  0  0  0  0  0  0  0
   10.9720  -17.9294   24.6795 C   0  0  0  0  0  0  0  0  0  0  0  0
   10.8484  -16.7588   23.8175 C   0  0  0  0  0  0  0  0  0  0  0  0
    9.5305  -16.3790   23.2680 C   0  0  2  0  0  0  0  0  0  0  0  0
    9.7714  -15.1968   22.3485 N   0  0  0  0  0  0  0  0  0  0  0  0
    8.5775  -15.8129   24.2318 C   0  0  0  0  0  0  0  0  0  0  0  0
    8.5454  -14.6172   24.5143 O   0  0  0  0  0  0  0  0  0  0  0  0
    7.6351  -16.6279   24.8918 O   0  0  0  0  0  0  0  0  0  0  0  0
  2  1  1  6
  2  7  1  0
  2  3  1  0
  3  4  1  0
  5  9  1  0
  5  4  1  0
  6  5  2  0
  7  8  2  0
 10  7  1  0
 10 11  1  0
 12 11  1  0
 13 14  1  0
 13 12  1  0
 14 10  1  0
 15 25  1  0
 14 15  1  1
 16 15  2  0
 17 18  1  0
 18 19  2  0
 20 21  1  0
 20 18  1  0
 21 22  1  0
 23 22  1  0
 24 23  1  1
 24 25  1  0
 26 28  1  0
 26 24  1  0
 27 26  2  0
M  END
$$$$
