EPR.pdb
     RDKit          3D

 28 28  0  0  1  0  0  0  0  0999 V2000
    8.5900  -16.5967   15.7940 N   0  0  0  0  0  0  0  0  0  0  0  0
    7.9286  -15.9907   16.9638 C   0  0  1  0  0  0  0  0  0  0  0  0
    7.2168  -17.1416   17.6830 C   0  0  0  0  0  0  0  0  0  0  0  0
    8.1570  -18.2807   17.9335 C   0  0  0  0  0  0  0  0  0  0  0  0
    7.4431  -19.3439   18.6756 C   0  0  0  0  0  0  0  0  0  0  0  0
    6.2933  -19.6878   18.3132 O   0  0  0  0  0  0  0  0  0  0  0  0
    8.9295  -15.4693   17.9187 C   0  0  0  0  0  0  0  0  0  0  0  0
   10.1557  -15.7058   17.6405 O   0  0  0  0  0  0  0  0  0  0  0  0
    8.0050  -19.9881   19.7772 O   0  0  0  0  0  0  0  0  0  0  0  0
    8.5765  -14.7525   19.0703 N   0  0  0  0  0  0  0  0  0  0  0  0
    7.2294  -14.4506   19.4922 C   0  0  0  0  0  0  0  0  0  0  0  0
    7.3559  -13.1926   20.3187 C   0  0  0  0  0  0  0  0  0  0  0  0
    8.8373  -12.8074   20.2413 C   0  0  0  0  0  0  0  0  0  0  0  0
    9.4553  -14.2014   20.0572 C   0  0  1  0  0  0  0  0  0  0  0  0
    9.2721  -14.9960   21.3221 C   0  0  0  0  0  0  0  0  0  0  0  0
    8.2317  -15.6732   21.5490 O   0  0  0  0  0  0  0  0  0  0  0  0
   10.8904  -22.6881   21.2507 N   0  0  0  0  0  0  0  0  0  0  0  0
   11.6156  -22.2527   22.3848 C   0  0  0  0  0  0  0  0  0  0  0  0
   12.0140  -23.1135   23.2883 N   0  0  0  0  0  0  0  0  0  0  0  0
   11.9387  -20.9039   22.5957 N   0  0  0  0  0  0  0  0  0  0  0  0
   11.1400  -19.7955   22.1409 C   0  0  0  0  0  0  0  0  0  0  0  0
   11.7781  -18.4876   22.4219 C   0  0  0  0  0  0  0  0  0  0  0  0
   11.1760  -17.2216   22.0179 C   0  0  0  0  0  0  0  0  0  0  0  0
   10.5697  -16.3328   23.0304 C   0  0  2  0  0  0  0  0  0  0  0  0
   10.2633  -15.0241   22.3271 N   0  0  0  0  0  0  0  0  0  0  0  0
   11.4660  -15.8866   24.1052 C   0  0  0  0  0  0  0  0  0  0  0  0
   11.3703  -16.2876   25.2630 O   0  0  0  0  0  0  0  0  0  0  0  0
   12.4995  -14.9602   23.8568 O   0  0  0  0  0  0  0  0  0  0  0  0
  2  1  1  6
  2  7  1  0
  2  3  1  0
  3  4  1  0
  5  9  1  0
  5  4  1  0
  6  5  2  0
  7  8  2  0
 10  7  1  0
 10 11  1  0
 12 11  1  0
 13 14  1  0
 13 12  1  0
 14 10  1  0
 15 25  1  0
 14 15  1  1
 16 15  2  0
 17 18  1  0
 18 19  2  0
 20 21  1  0
 20 18  1  0
 21 22  1  0
 23 22  1  0
 24 23  1  6
 24 25  1  0
 26 28  1  0
 26 24  1  0
 27 26  2  0
M  END
$$$$
