EPR.pdb
     RDKit          3D

 28 28  0  0  1  0  0  0  0  0999 V2000
   13.0543  -14.1614   17.5692 N   0  0  0  0  0  0  0  0  0  0  0  0
   11.7841  -14.8556   17.8485 C   0  0  1  0  0  0  0  0  0  0  0  0
   12.1130  -16.3521   17.8252 C   0  0  0  0  0  0  0  0  0  0  0  0
   10.9041  -17.1723   18.1573 C   0  0  0  0  0  0  0  0  0  0  0  0
   11.2654  -18.6070   18.1153 C   0  0  0  0  0  0  0  0  0  0  0  0
   10.9970  -19.3427   19.0942 O   0  0  0  0  0  0  0  0  0  0  0  0
   11.3179  -14.5613   19.2202 C   0  0  0  0  0  0  0  0  0  0  0  0
   12.2135  -14.5526   20.1339 O   0  0  0  0  0  0  0  0  0  0  0  0
   11.9012  -19.1822   17.0157 O   0  0  0  0  0  0  0  0  0  0  0  0
    9.9745  -14.3025   19.5246 N   0  0  0  0  0  0  0  0  0  0  0  0
    8.8695  -14.4010   18.6009 C   0  0  0  0  0  0  0  0  0  0  0  0
    7.8289  -13.4481   19.1400 C   0  0  0  0  0  0  0  0  0  0  0  0
    8.4825  -12.7847   20.3573 C   0  0  0  0  0  0  0  0  0  0  0  0
    9.4265  -13.9166   20.7899 C   0  0  1  0  0  0  0  0  0  0  0  0
    8.6114  -15.0731   21.3029 C   0  0  0  0  0  0  0  0  0  0  0  0
    8.3394  -16.0768   20.5880 O   0  0  0  0  0  0  0  0  0  0  0  0
    5.7401  -10.2585   27.0127 N   0  0  0  0  0  0  0  0  0  0  0  0
    5.6814  -11.5753   27.5267 C   0  0  0  0  0  0  0  0  0  0  0  0
    4.8025  -11.8903   28.4457 N   0  0  0  0  0  0  0  0  0  0  0  0
    6.5440  -12.5908   27.0875 N   0  0  0  0  0  0  0  0  0  0  0  0
    7.3255  -12.5282   25.8798 C   0  0  0  0  0  0  0  0  0  0  0  0
    8.1031  -13.7683   25.6462 C   0  0  0  0  0  0  0  0  0  0  0  0
    9.0066  -13.9217   24.5112 C   0  0  0  0  0  0  0  0  0  0  0  0
    9.0724  -15.2065   23.7846 C   0  0  2  0  0  0  0  0  0  0  0  0
    8.1058  -15.0936   22.6210 N   0  0  0  0  0  0  0  0  0  0  0  0
    8.5363  -16.3716   24.5007 C   0  0  0  0  0  0  0  0  0  0  0  0
    9.0484  -16.8189   25.5245 O   0  0  0  0  0  0  0  0  0  0  0  0
    7.3866  -17.0460   24.0409 O   0  0  0  0  0  0  0  0  0  0  0  0
  2  1  1  1
  2  7  1  0
  2  3  1  0
  3  4  1  0
  5  9  1  0
  5  4  1  0
  6  5  2  0
  7  8  2  0
 10  7  1  0
 10 11  1  0
 12 11  1  0
 13 14  1  0
 13 12  1  0
 14 10  1  0
 15 25  1  0
 14 15  1  6
 16 15  2  0
 17 18  1  0
 18 19  2  0
 20 21  1  0
 20 18  1  0
 21 22  1  0
 23 22  1  0
 24 23  1  1
 24 25  1  0
 26 28  1  0
 26 24  1  0
 27 26  2  0
M  END
$$$$
