MLD.pdb
     RDKit          3D

 25 24  0  0  1  0  0  0  0  0999 V2000
   28.0166  -19.3760   -4.6367 C   0  0  0  0  0  0  0  0  0  0  0  0
   27.5372  -19.2216   -6.3836 S   0  0  0  0  0  0  0  0  0  0  0  0
   27.4238  -20.8425   -7.1659 C   0  0  0  0  0  0  0  0  0  0  0  0
   27.2414  -20.7083   -8.6318 C   0  0  0  0  0  0  0  0  0  0  0  0
   25.9513  -20.1880   -9.1432 C   0  0  2  0  0  0  0  0  0  0  0  0
   24.9468  -21.2746   -9.0190 N   0  0  0  0  0  0  0  0  0  0  0  0
   25.9027  -19.7174  -10.5257 C   0  0  0  0  0  0  0  0  0  0  0  0
   25.9075  -18.4755  -10.7998 O   0  0  0  0  0  0  0  0  0  0  0  0
   29.0241  -21.8603  -14.2252 C   0  0  0  0  0  0  0  0  0  0  0  0
   28.2023  -20.8757  -13.4204 C   0  0  1  0  0  0  0  0  0  0  0  0
   28.6765  -19.4841  -13.8250 C   0  0  0  0  0  0  0  0  0  0  0  0
   26.7690  -21.0496  -13.8317 C   0  0  0  0  0  0  0  0  0  0  0  0
   25.8183  -20.1984  -12.9962 C   0  0  2  0  0  0  0  0  0  0  0  0
   25.8498  -20.6432  -11.5962 N   0  0  0  0  0  0  0  0  0  0  0  0
   24.4624  -20.5158  -13.5077 C   0  0  0  0  0  0  0  0  0  0  0  0
   24.2326  -20.3591  -14.7305 O   0  0  0  0  0  0  0  0  0  0  0  0
   23.4198  -20.9896  -12.6621 N   0  0  0  0  0  0  0  0  0  0  0  0
   22.1247  -21.2173  -13.2561 C   0  0  1  0  0  0  0  0  0  0  0  0
   21.4218  -22.3278  -12.5298 C   0  0  0  0  0  0  0  0  0  0  0  0
   20.1303  -22.6415  -13.1648 C   0  0  0  0  0  0  0  0  0  0  0  0
   19.7895  -22.0968  -14.2311 O   0  0  0  0  0  0  0  0  0  0  0  0
   21.2347  -20.0092  -13.0985 C   0  0  0  0  0  0  0  0  0  0  0  0
   21.4599  -19.2768  -12.1047 O   0  0  0  0  0  0  0  0  0  0  0  0
   19.2984  -23.5660  -12.5395 O   0  0  0  0  0  0  0  0  0  0  0  0
   20.2472  -19.7591  -14.0091 O   0  0  0  0  0  0  0  0  0  0  0  0
  1  2  1  0
  3  4  1  0
  3  2  1  0
  5  4  1  0
  5  6  1  6
  7  5  1  0
  8  7  2  0
 10  9  1  6
 11 10  1  0
 12 10  1  0
 13 12  1  6
 13 14  1  0
 14  7  1  0
 15 13  1  0
 15 17  1  0
 16 15  2  0
 18 19  1  1
 18 22  1  0
 18 17  1  0
 19 20  1  0
 20 24  1  0
 20 21  2  0
 22 25  1  0
 23 22  2  0
M  END
$$$$
