MLD.pdb
     RDKit          3D

 25 24  0  0  1  0  0  0  0  0999 V2000
   19.0830  -15.3904  -16.7282 C   0  0  0  0  0  0  0  0  0  0  0  0
   19.3395  -15.3043  -18.5260 S   0  0  0  0  0  0  0  0  0  0  0  0
   19.7683  -13.6284  -19.0358 C   0  0  0  0  0  0  0  0  0  0  0  0
   20.1764  -12.8106  -17.8677 C   0  0  0  0  0  0  0  0  0  0  0  0
   20.5516  -11.3938  -18.0876 C   0  0  2  0  0  0  0  0  0  0  0  0
   21.7097  -11.3740  -19.0170 N   0  0  0  0  0  0  0  0  0  0  0  0
   20.9255  -10.5958  -16.9222 C   0  0  0  0  0  0  0  0  0  0  0  0
   20.1690  -10.5239  -15.9023 O   0  0  0  0  0  0  0  0  0  0  0  0
   26.1557  -10.4885  -15.4865 C   0  0  0  0  0  0  0  0  0  0  0  0
   24.6443  -10.5753  -15.4579 C   0  0  1  0  0  0  0  0  0  0  0  0
   24.2672  -11.0994  -14.0766 C   0  0  0  0  0  0  0  0  0  0  0  0
   24.1141   -9.1802  -15.6201 C   0  0  0  0  0  0  0  0  0  0  0  0
   22.5921   -9.1453  -15.7137 C   0  0  2  0  0  0  0  0  0  0  0  0
   22.1484   -9.8815  -16.9053 N   0  0  0  0  0  0  0  0  0  0  0  0
   22.2507   -7.7208  -15.9484 C   0  0  0  0  0  0  0  0  0  0  0  0
   22.5768   -7.1998  -17.0415 O   0  0  0  0  0  0  0  0  0  0  0  0
   21.5693   -6.9302  -14.9802 N   0  0  0  0  0  0  0  0  0  0  0  0
   21.3633   -5.5336  -15.2784 C   0  0  1  0  0  0  0  0  0  0  0  0
   19.9623   -5.1377  -14.9104 C   0  0  0  0  0  0  0  0  0  0  0  0
   18.9861   -5.7047  -15.8565 C   0  0  0  0  0  0  0  0  0  0  0  0
   19.2925   -5.9202  -17.0437 O   0  0  0  0  0  0  0  0  0  0  0  0
   22.2605   -4.6602  -14.4366 C   0  0  0  0  0  0  0  0  0  0  0  0
   22.9070   -5.2366  -13.5286 O   0  0  0  0  0  0  0  0  0  0  0  0
   17.7080   -5.9941  -15.3868 O   0  0  0  0  0  0  0  0  0  0  0  0
   22.3386   -3.3179  -14.6798 O   0  0  0  0  0  0  0  0  0  0  0  0
  1  2  1  0
  3  4  1  0
  3  2  1  0
  5  4  1  0
  5  6  1  6
  7  5  1  0
  8  7  2  0
 10  9  1  1
 11 10  1  0
 12 10  1  0
 13 12  1  6
 13 14  1  0
 14  7  1  0
 15 13  1  0
 15 17  1  0
 16 15  2  0
 18 19  1  1
 18 22  1  0
 18 17  1  0
 19 20  1  0
 20 24  1  0
 20 21  2  0
 22 25  1  0
 23 22  2  0
M  END
$$$$
