MLD.pdb
     RDKit          3D

 25 24  0  0  1  0  0  0  0  0999 V2000
   25.8560  -15.9295  -14.9631 C   0  0  0  0  0  0  0  0  0  0  0  0
   27.6125  -16.0435  -15.4182 S   0  0  0  0  0  0  0  0  0  0  0  0
   27.9964  -17.6674  -16.1022 C   0  0  0  0  0  0  0  0  0  0  0  0
   27.0157  -18.6793  -15.6394 C   0  0  0  0  0  0  0  0  0  0  0  0
   27.4522  -19.6916  -14.6488 C   0  0  2  0  0  0  0  0  0  0  0  0
   28.4243  -20.5899  -15.3219 N   0  0  0  0  0  0  0  0  0  0  0  0
   26.4302  -20.5438  -14.0452 C   0  0  0  0  0  0  0  0  0  0  0  0
   26.0576  -21.6234  -14.6046 O   0  0  0  0  0  0  0  0  0  0  0  0
   25.8019  -20.3698   -8.5288 C   0  0  0  0  0  0  0  0  0  0  0  0
   26.0486  -20.7320   -9.9781 C   0  0  1  0  0  0  0  0  0  0  0  0
   26.5611  -22.1681   -9.9838 C   0  0  0  0  0  0  0  0  0  0  0  0
   24.7246  -20.6758  -10.6836 C   0  0  0  0  0  0  0  0  0  0  0  0
   24.8377  -21.0440  -12.1595 C   0  0  2  0  0  0  0  0  0  0  0  0
   25.8303  -20.1811  -12.8145 N   0  0  0  0  0  0  0  0  0  0  0  0
   23.5221  -20.6933  -12.7485 C   0  0  0  0  0  0  0  0  0  0  0  0
   23.1472  -19.4974  -12.7055 O   0  0  0  0  0  0  0  0  0  0  0  0
   22.6760  -21.6629  -13.3573 N   0  0  0  0  0  0  0  0  0  0  0  0
   21.4593  -21.1975  -13.9776 C   0  0  1  0  0  0  0  0  0  0  0  0
   21.1724  -22.0124  -15.2059 C   0  0  0  0  0  0  0  0  0  0  0  0
   21.6073  -21.3063  -16.4232 C   0  0  0  0  0  0  0  0  0  0  0  0
   22.0340  -20.1379  -16.3704 O   0  0  0  0  0  0  0  0  0  0  0  0
   20.2720  -21.4085  -13.0708 C   0  0  0  0  0  0  0  0  0  0  0  0
   20.4939  -22.0122  -11.9933 O   0  0  0  0  0  0  0  0  0  0  0  0
   21.5285  -21.9817  -17.6379 O   0  0  0  0  0  0  0  0  0  0  0  0
   19.0372  -20.9524  -13.4372 O   0  0  0  0  0  0  0  0  0  0  0  0
  1  2  1  0
  3  4  1  0
  3  2  1  0
  5  4  1  0
  5  6  1  6
  7  5  1  0
  8  7  2  0
 10  9  1  1
 11 10  1  0
 12 10  1  0
 13 12  1  1
 13 14  1  0
 14  7  1  0
 15 13  1  0
 15 17  1  0
 16 15  2  0
 18 19  1  6
 18 22  1  0
 18 17  1  0
 19 20  1  0
 20 24  1  0
 20 21  2  0
 22 25  1  0
 23 22  2  0
M  END
$$$$
