MLD.pdb
     RDKit          3D

 25 24  0  0  1  0  0  0  0  0999 V2000
   30.4979  -19.4849  -18.6289 C   0  0  0  0  0  0  0  0  0  0  0  0
   30.2907  -17.8004  -17.9771 S   0  0  0  0  0  0  0  0  0  0  0  0
   28.5994  -17.5324  -17.4113 C   0  0  0  0  0  0  0  0  0  0  0  0
   27.9177  -18.8250  -17.1575 C   0  0  0  0  0  0  0  0  0  0  0  0
   26.4867  -18.8107  -16.7720 C   0  0  2  0  0  0  0  0  0  0  0  0
   26.1943  -17.4821  -16.1765 N   0  0  0  0  0  0  0  0  0  0  0  0
   26.0245  -19.8171  -15.8190 C   0  0  0  0  0  0  0  0  0  0  0  0
   25.9921  -21.0507  -16.1267 O   0  0  0  0  0  0  0  0  0  0  0  0
   25.8125  -22.1981  -11.1682 C   0  0  0  0  0  0  0  0  0  0  0  0
   25.0347  -20.9028  -11.0696 C   0  0  1  0  0  0  0  0  0  0  0  0
   25.3468  -20.3141   -9.6981 C   0  0  0  0  0  0  0  0  0  0  0  0
   25.5607  -19.9842  -12.1342 C   0  0  0  0  0  0  0  0  0  0  0  0
   25.1548  -20.4282  -13.5359 C   0  0  2  0  0  0  0  0  0  0  0  0
   25.6007  -19.4350  -14.5226 N   0  0  0  0  0  0  0  0  0  0  0  0
   23.6719  -20.3891  -13.5408 C   0  0  0  0  0  0  0  0  0  0  0  0
   23.0991  -19.3660  -13.0962 O   0  0  0  0  0  0  0  0  0  0  0  0
   22.8820  -21.4676  -14.0303 N   0  0  0  0  0  0  0  0  0  0  0  0
   21.4595  -21.2578  -14.1498 C   0  0  1  0  0  0  0  0  0  0  0  0
   20.9787  -21.7833  -15.4718 C   0  0  0  0  0  0  0  0  0  0  0  0
   19.5378  -21.5337  -15.6484 C   0  0  0  0  0  0  0  0  0  0  0  0
   18.8857  -20.9034  -14.7955 O   0  0  0  0  0  0  0  0  0  0  0  0
   20.7046  -22.0452  -13.1074 C   0  0  0  0  0  0  0  0  0  0  0  0
   21.2350  -23.1165  -12.7258 O   0  0  0  0  0  0  0  0  0  0  0  0
   18.9225  -22.0227  -16.7973 O   0  0  0  0  0  0  0  0  0  0  0  0
   19.5107  -21.5844  -12.6286 O   0  0  0  0  0  0  0  0  0  0  0  0
  1  2  1  0
  3  4  1  0
  3  2  1  0
  5  4  1  0
  5  6  1  1
  7  5  1  0
  8  7  2  0
 10  9  1  1
 11 10  1  0
 12 10  1  0
 13 12  1  1
 13 14  1  0
 14  7  1  0
 15 13  1  0
 15 17  1  0
 16 15  2  0
 18 19  1  6
 18 22  1  0
 18 17  1  0
 19 20  1  0
 20 24  1  0
 20 21  2  0
 22 25  1  0
 23 22  2  0
M  END
$$$$
