MLD.pdb
     RDKit          3D

 25 24  0  0  1  0  0  0  0  0999 V2000
   19.0782  -23.1965   -8.0495 C   0  0  0  0  0  0  0  0  0  0  0  0
   18.5351  -24.4998   -9.1948 S   0  0  0  0  0  0  0  0  0  0  0  0
   18.6752  -23.9518  -10.9072 C   0  0  0  0  0  0  0  0  0  0  0  0
   19.5541  -22.7613  -11.0091 C   0  0  0  0  0  0  0  0  0  0  0  0
   19.9214  -22.2616  -12.3552 C   0  0  2  0  0  0  0  0  0  0  0  0
   20.3673  -23.4262  -13.1614 N   0  0  0  0  0  0  0  0  0  0  0  0
   20.9726  -21.2509  -12.4468 C   0  0  0  0  0  0  0  0  0  0  0  0
   20.8156  -20.0898  -11.9522 O   0  0  0  0  0  0  0  0  0  0  0  0
   25.9203  -22.1225  -11.0432 C   0  0  0  0  0  0  0  0  0  0  0  0
   24.5820  -21.4821  -11.3454 C   0  0  1  0  0  0  0  0  0  0  0  0
   24.5031  -20.2212  -10.4916 C   0  0  0  0  0  0  0  0  0  0  0  0
   24.5887  -21.0980  -12.7967 C   0  0  0  0  0  0  0  0  0  0  0  0
   23.2476  -20.5327  -13.2533 C   0  0  2  0  0  0  0  0  0  0  0  0
   22.1975  -21.5478  -13.0930 N   0  0  0  0  0  0  0  0  0  0  0  0
   23.3974  -20.3098  -14.7123 C   0  0  0  0  0  0  0  0  0  0  0  0
   23.6302  -21.2985  -15.4476 O   0  0  0  0  0  0  0  0  0  0  0  0
   23.2864  -19.0188  -15.3020 N   0  0  0  0  0  0  0  0  0  0  0  0
   23.3491  -18.9303  -16.7408 C   0  0  1  0  0  0  0  0  0  0  0  0
   22.4837  -17.7994  -17.2175 C   0  0  0  0  0  0  0  0  0  0  0  0
   21.0656  -18.0517  -16.9095 C   0  0  0  0  0  0  0  0  0  0  0  0
   20.6692  -19.1887  -16.5934 O   0  0  0  0  0  0  0  0  0  0  0  0
   24.7440  -18.5899  -17.2040 C   0  0  0  0  0  0  0  0  0  0  0  0
   25.5329  -18.1600  -16.3278 O   0  0  0  0  0  0  0  0  0  0  0  0
   20.1775  -16.9821  -16.9813 O   0  0  0  0  0  0  0  0  0  0  0  0
   25.0927  -18.7540  -18.5149 O   0  0  0  0  0  0  0  0  0  0  0  0
  1  2  1  0
  3  4  1  0
  3  2  1  0
  5  4  1  0
  5  6  1  6
  7  5  1  0
  8  7  2  0
 10  9  1  1
 11 10  1  0
 12 10  1  0
 13 12  1  6
 13 14  1  0
 14  7  1  0
 15 13  1  0
 15 17  1  0
 16 15  2  0
 18 19  1  1
 18 22  1  0
 18 17  1  0
 19 20  1  0
 20 24  1  0
 20 21  2  0
 22 25  1  0
 23 22  2  0
M  END
$$$$
