MLD.pdb
     RDKit          3D

 25 24  0  0  1  0  0  0  0  0999 V2000
   25.0500  -16.7965  -17.6596 C   0  0  0  0  0  0  0  0  0  0  0  0
   26.5387  -17.5197  -18.4118 S   0  0  0  0  0  0  0  0  0  0  0  0
   26.2765  -19.2574  -18.8167 C   0  0  0  0  0  0  0  0  0  0  0  0
   25.3681  -19.8961  -17.8334 C   0  0  0  0  0  0  0  0  0  0  0  0
   25.9075  -20.2684  -16.5041 C   0  0  2  0  0  0  0  0  0  0  0  0
   27.0528  -21.1876  -16.7245 N   0  0  0  0  0  0  0  0  0  0  0  0
   25.0073  -20.9264  -15.5599 C   0  0  0  0  0  0  0  0  0  0  0  0
   24.4546  -22.0368  -15.8406 O   0  0  0  0  0  0  0  0  0  0  0  0
   25.9088  -20.5423  -10.1717 C   0  0  0  0  0  0  0  0  0  0  0  0
   25.5909  -21.0757  -11.5527 C   0  0  1  0  0  0  0  0  0  0  0  0
   25.5614  -22.5955  -11.4331 C   0  0  0  0  0  0  0  0  0  0  0  0
   24.2213  -20.5809  -11.9178 C   0  0  0  0  0  0  0  0  0  0  0  0
   23.8232  -20.9705  -13.3377 C   0  0  2  0  0  0  0  0  0  0  0  0
   24.7312  -20.3354  -14.3026 N   0  0  0  0  0  0  0  0  0  0  0  0
   22.4894  -20.3565  -13.5487 C   0  0  0  0  0  0  0  0  0  0  0  0
   22.4338  -19.1610  -13.9233 O   0  0  0  0  0  0  0  0  0  0  0  0
   21.2777  -21.0745  -13.3415 N   0  0  0  0  0  0  0  0  0  0  0  0
   20.1000  -20.6200  -14.0403 C   0  0  1  0  0  0  0  0  0  0  0  0
   20.2997  -20.7693  -15.5210 C   0  0  0  0  0  0  0  0  0  0  0  0
   19.1206  -20.2938  -16.2649 C   0  0  0  0  0  0  0  0  0  0  0  0
   18.6492  -19.1591  -16.0645 O   0  0  0  0  0  0  0  0  0  0  0  0
   18.9055  -21.4800  -13.7085 C   0  0  0  0  0  0  0  0  0  0  0  0
   19.1510  -22.6347  -13.2829 O   0  0  0  0  0  0  0  0  0  0  0  0
   18.5456  -21.1490  -17.2008 O   0  0  0  0  0  0  0  0  0  0  0  0
   17.6398  -20.9930  -13.8755 O   0  0  0  0  0  0  0  0  0  0  0  0
  1  2  1  0
  3  4  1  0
  3  2  1  0
  5  4  1  0
  5  6  1  6
  7  5  1  0
  8  7  2  0
 10  9  1  1
 11 10  1  0
 12 10  1  0
 13 12  1  1
 13 14  1  0
 14  7  1  0
 15 13  1  0
 15 17  1  0
 16 15  2  0
 18 19  1  6
 18 22  1  0
 18 17  1  0
 19 20  1  0
 20 24  1  0
 20 21  2  0
 22 25  1  0
 23 22  2  0
M  END
$$$$
