MLD.pdb
     RDKit          3D

 25 24  0  0  1  0  0  0  0  0999 V2000
   16.2457  -11.7915  -20.9393 C   0  0  0  0  0  0  0  0  0  0  0  0
   17.0526  -10.8461  -19.6125 S   0  0  0  0  0  0  0  0  0  0  0  0
   18.3632  -11.8130  -18.8381 C   0  0  0  0  0  0  0  0  0  0  0  0
   19.1202  -10.9894  -17.8642 C   0  0  0  0  0  0  0  0  0  0  0  0
   20.2421  -11.6145  -17.1244 C   0  0  2  0  0  0  0  0  0  0  0  0
   19.6824  -12.7248  -16.3124 N   0  0  0  0  0  0  0  0  0  0  0  0
   21.0184  -10.7716  -16.2180 C   0  0  0  0  0  0  0  0  0  0  0  0
   20.6092  -10.5181  -15.0408 O   0  0  0  0  0  0  0  0  0  0  0  0
   26.5756  -10.6269  -16.6041 C   0  0  0  0  0  0  0  0  0  0  0  0
   25.1524  -10.7536  -16.1029 C   0  0  1  0  0  0  0  0  0  0  0  0
   25.2450  -11.1572  -14.6355 C   0  0  0  0  0  0  0  0  0  0  0  0
   24.5211   -9.3953  -16.2042 C   0  0  0  0  0  0  0  0  0  0  0  0
   23.0700   -9.3935  -15.7344 C   0  0  2  0  0  0  0  0  0  0  0  0
   22.2525  -10.2166  -16.6362 N   0  0  0  0  0  0  0  0  0  0  0  0
   22.6080   -7.9945  -15.9077 C   0  0  0  0  0  0  0  0  0  0  0  0
   22.3669   -7.5836  -17.0677 O   0  0  0  0  0  0  0  0  0  0  0  0
   22.4303   -7.1081  -14.8080 N   0  0  0  0  0  0  0  0  0  0  0  0
   21.9215   -5.7869  -15.0860 C   0  0  1  0  0  0  0  0  0  0  0  0
   20.4543   -5.8634  -15.3966 C   0  0  0  0  0  0  0  0  0  0  0  0
   19.8964   -4.5241  -15.6507 C   0  0  0  0  0  0  0  0  0  0  0  0
   20.3451   -3.8033  -16.5612 O   0  0  0  0  0  0  0  0  0  0  0  0
   22.0280   -4.8971  -13.8722 C   0  0  0  0  0  0  0  0  0  0  0  0
   22.2510   -5.4706  -12.7785 O   0  0  0  0  0  0  0  0  0  0  0  0
   18.8510   -4.0841  -14.8436 O   0  0  0  0  0  0  0  0  0  0  0  0
   21.8837   -3.5441  -13.9965 O   0  0  0  0  0  0  0  0  0  0  0  0
  1  2  1  0
  3  4  1  0
  3  2  1  0
  5  4  1  0
  5  6  1  1
  7  5  1  0
  8  7  2  0
 10  9  1  1
 11 10  1  0
 12 10  1  0
 13 12  1  6
 13 14  1  0
 14  7  1  0
 15 13  1  0
 15 17  1  0
 16 15  2  0
 18 19  1  1
 18 22  1  0
 18 17  1  0
 19 20  1  0
 20 24  1  0
 20 21  2  0
 22 25  1  0
 23 22  2  0
M  END
$$$$
