ILW.pdb
     RDKit          3D

 31 32  0  0  1  0  0  0  0  0999 V2000
    7.8574  -22.7292   22.4078 C   0  0  0  0  0  0  0  0  0  0  0  0
    7.6325  -21.4897   21.6029 C   0  0  0  0  0  0  0  0  0  0  0  0
    8.5946  -20.3854   21.7762 C   0  0  2  0  0  0  0  0  0  0  0  0
    8.6660  -20.0183   23.2640 C   0  0  0  0  0  0  0  0  0  0  0  0
    8.3908  -19.1421   20.9889 C   0  0  2  0  0  0  0  0  0  0  0  0
    8.2519  -19.4517   19.5565 N   0  0  0  0  0  0  0  0  0  0  0  0
    9.4041  -18.0924   21.1431 C   0  0  0  0  0  0  0  0  0  0  0  0
   10.5655  -18.2608   20.7124 O   0  0  0  0  0  0  0  0  0  0  0  0
    6.9377  -15.0194   21.1540 C   0  0  0  0  0  0  0  0  0  0  0  0
    7.9115  -14.2879   22.1022 C   0  0  2  0  0  0  0  0  0  0  0  0
    7.4182  -12.8871   22.1926 C   0  0  0  0  0  0  0  0  0  0  0  0
    9.2647  -14.4919   21.5415 C   0  0  0  0  0  0  0  0  0  0  0  0
    9.9733  -15.7561   21.9430 C   0  0  2  0  0  0  0  0  0  0  0  0
    9.0643  -16.8710   21.7816 N   0  0  0  0  0  0  0  0  0  0  0  0
   10.3329  -15.6734   23.4088 C   0  0  0  0  0  0  0  0  0  0  0  0
   11.0267  -14.7286   23.8517 O   0  0  0  0  0  0  0  0  0  0  0  0
    9.8947  -16.6630   24.3201 N   0  0  0  0  0  0  0  0  0  0  0  0
   10.2480  -16.6486   25.7554 C   0  0  1  0  0  0  0  0  0  0  0  0
    9.0453  -16.9061   26.5849 C   0  0  0  0  0  0  0  0  0  0  0  0
    7.8682  -16.1149   26.2109 C   0  0  0  0  0  0  0  0  0  0  0  0
    6.7057  -16.5787   25.6041 C   0  0  0  0  0  0  0  0  0  0  0  0
    5.8635  -15.5581   25.3864 N   0  0  0  0  0  0  0  0  0  0  0  0
    6.4201  -14.4216   25.8274 C   0  0  0  0  0  0  0  0  0  0  0  0
    6.0160  -13.0974   25.8766 C   0  0  0  0  0  0  0  0  0  0  0  0
    6.8042  -12.1043   26.4178 C   0  0  0  0  0  0  0  0  0  0  0  0
    8.0477  -12.4284   26.9347 C   0  0  0  0  0  0  0  0  0  0  0  0
    8.4585  -13.7404   26.8899 C   0  0  0  0  0  0  0  0  0  0  0  0
    7.6780  -14.7498   26.3485 C   0  0  0  0  0  0  0  0  0  0  0  0
   11.4379  -17.4640   25.9950 C   0  0  0  0  0  0  0  0  0  0  0  0
   12.1316  -18.2035   25.0574 O   0  0  0  0  0  0  0  0  0  0  0  0
   11.9045  -17.5217   27.1852 O   0  0  0  0  0  0  0  0  0  0  0  0
  2  3  1  0
  2  1  1  0
  3  4  1  1
  5  3  1  0
  5  7  1  0
  5  6  1  6
  7  8  2  0
 10  9  1  6
 10 12  1  0
 11 10  1  0
 13 12  1  1
 13 15  1  0
 14 13  1  0
 14  7  1  0
 15 17  1  0
 16 15  2  0
 17 18  1  0
 18 19  1  1
 19 20  1  0
 20 21  2  0
 22 21  1  0
 23 22  1  0
 24 23  2  0
 25 24  1  0
 26 27  1  0
 26 25  2  0
 27 28  2  0
 28 23  1  0
 28 20  1  0
 29 30  1  0
 29 18  1  0
 31 29  2  0
M  END
$$$$
