ILW.pdb
     RDKit          3D

 31 32  0  0  1  0  0  0  0  0999 V2000
   11.8519  -21.0355   22.1738 C   0  0  0  0  0  0  0  0  0  0  0  0
   11.4755  -19.9519   21.2153 C   0  0  0  0  0  0  0  0  0  0  0  0
   10.0393  -19.7599   20.9395 C   0  0  2  0  0  0  0  0  0  0  0  0
    9.4336  -21.1012   20.5063 C   0  0  0  0  0  0  0  0  0  0  0  0
    9.6428  -18.7193   19.9562 C   0  0  2  0  0  0  0  0  0  0  0  0
   10.1331  -19.0624   18.6113 N   0  0  0  0  0  0  0  0  0  0  0  0
   10.0419  -17.3407   20.2605 C   0  0  0  0  0  0  0  0  0  0  0  0
   11.0977  -16.8651   19.7896 O   0  0  0  0  0  0  0  0  0  0  0  0
    8.4388  -13.0148   19.4393 C   0  0  0  0  0  0  0  0  0  0  0  0
    7.5247  -14.0848   20.0733 C   0  0  2  0  0  0  0  0  0  0  0  0
    6.1573  -13.4983   20.0851 C   0  0  0  0  0  0  0  0  0  0  0  0
    8.1269  -14.4190   21.3819 C   0  0  0  0  0  0  0  0  0  0  0  0
    9.4520  -15.1292   21.3485 C   0  0  2  0  0  0  0  0  0  0  0  0
    9.2208  -16.5350   21.0922 N   0  0  0  0  0  0  0  0  0  0  0  0
   10.1036  -15.0178   22.7077 C   0  0  0  0  0  0  0  0  0  0  0  0
   10.2760  -13.9025   23.2524 O   0  0  0  0  0  0  0  0  0  0  0  0
   10.5368  -16.1724   23.4013 N   0  0  0  0  0  0  0  0  0  0  0  0
   10.3514  -16.3543   24.8565 C   0  0  1  0  0  0  0  0  0  0  0  0
    8.9291  -16.1481   25.2246 C   0  0  0  0  0  0  0  0  0  0  0  0
    8.7153  -15.1794   26.3051 C   0  0  0  0  0  0  0  0  0  0  0  0
    9.1806  -15.2674   27.6129 C   0  0  0  0  0  0  0  0  0  0  0  0
    8.7585  -14.2103   28.3220 N   0  0  0  0  0  0  0  0  0  0  0  0
    8.0244  -13.4123   27.5344 C   0  0  0  0  0  0  0  0  0  0  0  0
    7.3651  -12.2076   27.7168 C   0  0  0  0  0  0  0  0  0  0  0  0
    6.6811  -11.5784   26.6986 C   0  0  0  0  0  0  0  0  0  0  0  0
    6.6435  -12.1611   25.4425 C   0  0  0  0  0  0  0  0  0  0  0  0
    7.2944  -13.3577   25.2514 C   0  0  0  0  0  0  0  0  0  0  0  0
    7.9856  -14.0027   26.2650 C   0  0  0  0  0  0  0  0  0  0  0  0
   11.0080  -17.5818   25.3040 C   0  0  0  0  0  0  0  0  0  0  0  0
   11.0557  -18.7841   24.6260 O   0  0  0  0  0  0  0  0  0  0  0  0
   11.6031  -17.5736   26.4368 O   0  0  0  0  0  0  0  0  0  0  0  0
  2  3  1  0
  2  1  1  0
  3  4  1  6
  5  3  1  0
  5  7  1  0
  5  6  1  6
  7  8  2  0
 10  9  1  1
 10 12  1  0
 11 10  1  0
 13 12  1  1
 13 15  1  0
 14 13  1  0
 14  7  1  0
 15 17  1  0
 16 15  2  0
 17 18  1  0
 18 19  1  6
 19 20  1  0
 20 21  2  0
 22 21  1  0
 23 22  1  0
 24 23  2  0
 25 24  1  0
 26 27  1  0
 26 25  2  0
 27 28  2  0
 28 23  1  0
 28 20  1  0
 29 30  1  0
 29 18  1  0
 31 29  2  0
M  END
$$$$
