ILW.pdb
     RDKit          3D

 31 32  0  0  1  0  0  0  0  0999 V2000
   10.8319  -21.9432   20.4719 C   0  0  0  0  0  0  0  0  0  0  0  0
   10.7628  -21.8923   21.9644 C   0  0  0  0  0  0  0  0  0  0  0  0
    9.6736  -21.1001   22.5657 C   0  0  2  0  0  0  0  0  0  0  0  0
    9.8203  -19.6386   22.1229 C   0  0  0  0  0  0  0  0  0  0  0  0
    9.5074  -21.1355   24.0415 C   0  0  2  0  0  0  0  0  0  0  0  0
    9.3106  -22.5175   24.5086 N   0  0  0  0  0  0  0  0  0  0  0  0
    8.4427  -20.2971   24.6038 C   0  0  0  0  0  0  0  0  0  0  0  0
    7.2595  -20.4311   24.2237 O   0  0  0  0  0  0  0  0  0  0  0  0
    7.0941  -19.4456   28.8386 C   0  0  0  0  0  0  0  0  0  0  0  0
    8.4979  -18.9119   28.4821 C   0  0  2  0  0  0  0  0  0  0  0  0
    9.1076  -18.4767   29.7677 C   0  0  0  0  0  0  0  0  0  0  0  0
    8.2947  -17.8758   27.4468 C   0  0  0  0  0  0  0  0  0  0  0  0
    7.8140  -18.3543   26.1046 C   0  0  2  0  0  0  0  0  0  0  0  0
    8.7551  -19.3278   25.5927 N   0  0  0  0  0  0  0  0  0  0  0  0
    7.8007  -17.1881   25.1431 C   0  0  0  0  0  0  0  0  0  0  0  0
    6.7808  -16.4724   25.0093 O   0  0  0  0  0  0  0  0  0  0  0  0
    8.9418  -16.8743   24.3677 N   0  0  0  0  0  0  0  0  0  0  0  0
    8.9527  -15.8041   23.3480 C   0  0  1  0  0  0  0  0  0  0  0  0
    9.4497  -14.5363   23.9367 C   0  0  0  0  0  0  0  0  0  0  0  0
    8.7920  -14.1487   25.1891 C   0  0  0  0  0  0  0  0  0  0  0  0
    8.9644  -14.7308   26.4406 C   0  0  0  0  0  0  0  0  0  0  0  0
    8.1713  -14.1294   27.3393 N   0  0  0  0  0  0  0  0  0  0  0  0
    7.4704  -13.1604   26.7344 C   0  0  0  0  0  0  0  0  0  0  0  0
    6.5355  -12.2295   27.1570 C   0  0  0  0  0  0  0  0  0  0  0  0
    5.9709  -11.3086   26.3004 C   0  0  0  0  0  0  0  0  0  0  0  0
    6.3427  -11.3031   24.9661 C   0  0  0  0  0  0  0  0  0  0  0  0
    7.2697  -12.2240   24.5365 C   0  0  0  0  0  0  0  0  0  0  0  0
    7.8457  -13.1563   25.3851 C   0  0  0  0  0  0  0  0  0  0  0  0
    9.5760  -16.2822   22.1147 C   0  0  0  0  0  0  0  0  0  0  0  0
   10.0898  -17.5438   21.8874 O   0  0  0  0  0  0  0  0  0  0  0  0
    9.6741  -15.4707   21.1301 O   0  0  0  0  0  0  0  0  0  0  0  0
  2  3  1  0
  2  1  1  0
  3  4  1  1
  5  3  1  0
  5  7  1  0
  5  6  1  6
  7  8  2  0
 10  9  1  1
 10 12  1  0
 11 10  1  0
 13 12  1  1
 13 15  1  0
 14 13  1  0
 14  7  1  0
 15 17  1  0
 16 15  2  0
 17 18  1  0
 18 19  1  1
 19 20  1  0
 20 21  2  0
 22 21  1  0
 23 22  1  0
 24 23  2  0
 25 24  1  0
 26 27  1  0
 26 25  2  0
 27 28  2  0
 28 23  1  0
 28 20  1  0
 29 30  1  0
 29 18  1  0
 31 29  2  0
M  END
$$$$
