ILW.pdb
     RDKit          3D

 31 32  0  0  1  0  0  0  0  0999 V2000
    5.4309  -21.0191   24.8932 C   0  0  0  0  0  0  0  0  0  0  0  0
    5.4472  -20.2978   23.5840 C   0  0  0  0  0  0  0  0  0  0  0  0
    6.6209  -19.4546   23.2894 C   0  0  2  0  0  0  0  0  0  0  0  0
    6.8381  -18.4816   24.4555 C   0  0  0  0  0  0  0  0  0  0  0  0
    6.6356  -18.6849   22.0188 C   0  0  2  0  0  0  0  0  0  0  0  0
    6.3293  -19.5621   20.8771 N   0  0  0  0  0  0  0  0  0  0  0  0
    7.8614  -17.9373   21.7169 C   0  0  0  0  0  0  0  0  0  0  0  0
    8.8889  -18.5313   21.3248 O   0  0  0  0  0  0  0  0  0  0  0  0
    8.4830  -14.5374   18.8897 C   0  0  0  0  0  0  0  0  0  0  0  0
    7.6623  -14.1434   20.1362 C   0  0  2  0  0  0  0  0  0  0  0  0
    7.1368  -12.7783   19.8639 C   0  0  0  0  0  0  0  0  0  0  0  0
    8.5695  -14.2987   21.2936 C   0  0  0  0  0  0  0  0  0  0  0  0
    9.0372  -15.6956   21.5962 C   0  0  2  0  0  0  0  0  0  0  0  0
    7.8821  -16.5256   21.8648 N   0  0  0  0  0  0  0  0  0  0  0  0
    9.8788  -15.6708   22.8515 C   0  0  0  0  0  0  0  0  0  0  0  0
   11.0008  -15.1129   22.8664 O   0  0  0  0  0  0  0  0  0  0  0  0
    9.4205  -16.2784   24.0442 N   0  0  0  0  0  0  0  0  0  0  0  0
   10.1794  -16.2366   25.3121 C   0  0  1  0  0  0  0  0  0  0  0  0
    9.7375  -15.0873   26.1396 C   0  0  0  0  0  0  0  0  0  0  0  0
    8.2854  -14.8830   26.1700 C   0  0  0  0  0  0  0  0  0  0  0  0
    7.3000  -15.8438   25.9683 C   0  0  0  0  0  0  0  0  0  0  0  0
    6.0863  -15.2780   26.0399 N   0  0  0  0  0  0  0  0  0  0  0  0
    6.2214  -13.9672   26.2840 C   0  0  0  0  0  0  0  0  0  0  0  0
    5.3367  -12.9173   26.4684 C   0  0  0  0  0  0  0  0  0  0  0  0
    5.7602  -11.6321   26.7318 C   0  0  0  0  0  0  0  0  0  0  0  0
    7.1170  -11.3670   26.8178 C   0  0  0  0  0  0  0  0  0  0  0  0
    8.0037  -12.4027   26.6355 C   0  0  0  0  0  0  0  0  0  0  0  0
    7.5935  -13.6996   26.3694 C   0  0  0  0  0  0  0  0  0  0  0  0
   10.2093  -17.5607   25.9316 C   0  0  0  0  0  0  0  0  0  0  0  0
   11.0842  -17.9928   26.9089 O   0  0  0  0  0  0  0  0  0  0  0  0
    9.3534  -18.4306   25.5463 O   0  0  0  0  0  0  0  0  0  0  0  0
  2  3  1  0
  2  1  1  0
  3  4  1  1
  5  3  1  0
  5  7  1  0
  5  6  1  6
  7  8  2  0
 10  9  1  6
 10 12  1  0
 11 10  1  0
 13 12  1  1
 13 15  1  0
 14 13  1  0
 14  7  1  0
 15 17  1  0
 16 15  2  0
 17 18  1  0
 18 19  1  1
 19 20  1  0
 20 21  2  0
 22 21  1  0
 23 22  1  0
 24 23  2  0
 25 24  1  0
 26 27  1  0
 26 25  2  0
 27 28  2  0
 28 23  1  0
 28 20  1  0
 29 30  1  0
 29 18  1  0
 31 29  2  0
M  END
$$$$
