ILW.pdb
     RDKit          3D

 31 32  0  0  1  0  0  0  0  0999 V2000
    8.0622  -12.5776   16.6729 C   0  0  0  0  0  0  0  0  0  0  0  0
    8.8058  -13.4294   17.6508 C   0  0  0  0  0  0  0  0  0  0  0  0
    8.1227  -13.7643   18.9144 C   0  0  2  0  0  0  0  0  0  0  0  0
    7.7697  -12.4637   19.6475 C   0  0  0  0  0  0  0  0  0  0  0  0
    8.8078  -14.6760   19.8665 C   0  0  2  0  0  0  0  0  0  0  0  0
    9.2491  -15.9032   19.1837 N   0  0  0  0  0  0  0  0  0  0  0  0
    8.0579  -15.0553   21.0691 C   0  0  0  0  0  0  0  0  0  0  0  0
    7.5112  -14.1840   21.7794 O   0  0  0  0  0  0  0  0  0  0  0  0
    4.6157  -18.6176   22.8392 C   0  0  0  0  0  0  0  0  0  0  0  0
    5.7064  -18.9403   21.7959 C   0  0  2  0  0  0  0  0  0  0  0  0
    5.6241  -20.4070   21.5597 C   0  0  0  0  0  0  0  0  0  0  0  0
    6.9740  -18.4159   22.3484 C   0  0  0  0  0  0  0  0  0  0  0  0
    7.0814  -16.9216   22.4782 C   0  0  2  0  0  0  0  0  0  0  0  0
    7.9456  -16.4238   21.4290 N   0  0  0  0  0  0  0  0  0  0  0  0
    7.7356  -16.5890   23.7996 C   0  0  0  0  0  0  0  0  0  0  0  0
    7.1328  -15.9158   24.6678 O   0  0  0  0  0  0  0  0  0  0  0  0
    9.0481  -17.0300   24.0905 N   0  0  0  0  0  0  0  0  0  0  0  0
    9.9947  -16.2507   24.9163 C   0  0  1  0  0  0  0  0  0  0  0  0
    9.4183  -15.9959   26.2593 C   0  0  0  0  0  0  0  0  0  0  0  0
    8.1490  -15.2611   26.2466 C   0  0  0  0  0  0  0  0  0  0  0  0
    6.8698  -15.8006   26.1607 C   0  0  0  0  0  0  0  0  0  0  0  0
    5.9576  -14.8177   26.1442 N   0  0  0  0  0  0  0  0  0  0  0  0
    6.5803  -13.6332   26.2171 C   0  0  0  0  0  0  0  0  0  0  0  0
    6.1578  -12.3144   26.2532 C   0  0  0  0  0  0  0  0  0  0  0  0
    7.0391  -11.2589   26.3518 C   0  0  0  0  0  0  0  0  0  0  0  0
    8.3993  -11.5121   26.4178 C   0  0  0  0  0  0  0  0  0  0  0  0
    8.8290  -12.8183   26.3818 C   0  0  0  0  0  0  0  0  0  0  0  0
    7.9556  -13.8899   26.2823 C   0  0  0  0  0  0  0  0  0  0  0  0
   11.3344  -16.8316   24.8402 C   0  0  0  0  0  0  0  0  0  0  0  0
   12.4804  -16.3381   25.4323 O   0  0  0  0  0  0  0  0  0  0  0  0
   11.4936  -17.9032   24.1592 O   0  0  0  0  0  0  0  0  0  0  0  0
  2  3  1  0
  2  1  1  0
  3  4  1  1
  5  3  1  0
  5  7  1  0
  5  6  1  6
  7  8  2  0
 10  9  1  1
 10 12  1  0
 11 10  1  0
 13 12  1  6
 13 15  1  0
 14 13  1  0
 14  7  1  0
 15 17  1  0
 16 15  2  0
 17 18  1  0
 18 19  1  1
 19 20  1  0
 20 21  2  0
 22 21  1  0
 23 22  1  0
 24 23  2  0
 25 24  1  0
 26 27  1  0
 26 25  2  0
 27 28  2  0
 28 23  1  0
 28 20  1  0
 29 30  1  0
 29 18  1  0
 31 29  2  0
M  END
$$$$
