ILW.pdb
     RDKit          3D

 31 32  0  0  1  0  0  0  0  0999 V2000
    2.0023  -19.0570   20.8270 C   0  0  0  0  0  0  0  0  0  0  0  0
    3.2184  -19.0535   21.6964 C   0  0  0  0  0  0  0  0  0  0  0  0
    4.4753  -18.5620   21.1014 C   0  0  2  0  0  0  0  0  0  0  0  0
    4.7052  -19.2790   19.7647 C   0  0  0  0  0  0  0  0  0  0  0  0
    5.7196  -18.6500   21.9083 C   0  0  2  0  0  0  0  0  0  0  0  0
    5.5410  -17.9885   23.2112 N   0  0  0  0  0  0  0  0  0  0  0  0
    6.9443  -18.1337   21.2871 C   0  0  0  0  0  0  0  0  0  0  0  0
    7.5667  -18.8156   20.4444 O   0  0  0  0  0  0  0  0  0  0  0  0
    6.5651  -13.7526   21.6402 C   0  0  0  0  0  0  0  0  0  0  0  0
    8.0778  -13.7928   21.3362 C   0  0  2  0  0  0  0  0  0  0  0  0
    8.4214  -12.4496   20.7963 C   0  0  0  0  0  0  0  0  0  0  0  0
    8.2886  -14.9530   20.4437 C   0  0  0  0  0  0  0  0  0  0  0  0
    8.6368  -16.2560   21.1087 C   0  0  2  0  0  0  0  0  0  0  0  0
    7.4264  -16.8460   21.6398 N   0  0  0  0  0  0  0  0  0  0  0  0
    9.5568  -15.9814   22.2762 C   0  0  0  0  0  0  0  0  0  0  0  0
   10.6806  -15.4544   22.1034 O   0  0  0  0  0  0  0  0  0  0  0  0
    9.1720  -16.3132   23.5966 N   0  0  0  0  0  0  0  0  0  0  0  0
   10.1036  -16.2634   24.7432 C   0  0  1  0  0  0  0  0  0  0  0  0
    9.8373  -15.0622   25.5720 C   0  0  0  0  0  0  0  0  0  0  0  0
    8.4163  -14.8006   25.8242 C   0  0  0  0  0  0  0  0  0  0  0  0
    7.3661  -15.7063   25.7168 C   0  0  0  0  0  0  0  0  0  0  0  0
    6.2044  -15.0966   25.9942 N   0  0  0  0  0  0  0  0  0  0  0  0
    6.4374  -13.8094   26.2858 C   0  0  0  0  0  0  0  0  0  0  0  0
    5.6409  -12.7370   26.6528 C   0  0  0  0  0  0  0  0  0  0  0  0
    6.1605  -11.4884   26.9203 C   0  0  0  0  0  0  0  0  0  0  0  0
    7.5271  -11.2849   26.8221 C   0  0  0  0  0  0  0  0  0  0  0  0
    8.3265  -12.3433   26.4576 C   0  0  0  0  0  0  0  0  0  0  0  0
    7.8191  -13.6040   26.1850 C   0  0  0  0  0  0  0  0  0  0  0  0
   10.1591  -17.5630   25.4110 C   0  0  0  0  0  0  0  0  0  0  0  0
   11.1155  -17.9846   26.3137 O   0  0  0  0  0  0  0  0  0  0  0  0
    9.2451  -18.4196   25.1491 O   0  0  0  0  0  0  0  0  0  0  0  0
  2  3  1  0
  2  1  1  0
  3  4  1  6
  5  3  1  0
  5  7  1  0
  5  6  1  1
  7  8  2  0
 10  9  1  6
 10 12  1  0
 11 10  1  0
 13 12  1  1
 13 15  1  0
 14 13  1  0
 14  7  1  0
 15 17  1  0
 16 15  2  0
 17 18  1  0
 18 19  1  1
 19 20  1  0
 20 21  2  0
 22 21  1  0
 23 22  1  0
 24 23  2  0
 25 24  1  0
 26 27  1  0
 26 25  2  0
 27 28  2  0
 28 23  1  0
 28 20  1  0
 29 30  1  0
 29 18  1  0
 31 29  2  0
M  END
$$$$
