KLN.pdb
     RDKit          3D

 26 25  0  0  1  0  0  0  0  0999 V2000
    7.1113  -15.5102   20.8069 N   0  0  0  0  0  0  0  0  0  0  0  0
    8.4090  -14.8432   20.7552 C   0  0  1  0  0  0  0  0  0  0  0  0
    8.2240  -13.6602   19.8199 C   0  0  0  0  0  0  0  0  0  0  0  0
    7.7198  -14.2201   18.5177 C   0  0  0  0  0  0  0  0  0  0  0  0
    8.3157  -13.5140   17.3230 C   0  0  0  0  0  0  0  0  0  0  0  0
    7.6612  -13.9836   16.0329 C   0  0  0  0  0  0  0  0  0  0  0  0
    8.1003  -13.2171   14.9009 N   0  0  0  0  0  0  0  0  0  0  0  0
    8.7462  -14.3292   22.1307 C   0  0  0  0  0  0  0  0  0  0  0  0
    9.9080  -13.9142   22.4090 O   0  0  0  0  0  0  0  0  0  0  0  0
    5.6745  -12.6428   27.2158 C   0  0  0  0  0  0  0  0  0  0  0  0
    7.0584  -12.8916   26.5871 C   0  0  2  0  0  0  0  0  0  0  0  0
    7.7739  -11.5655   26.6638 C   0  0  0  0  0  0  0  0  0  0  0  0
    6.8718  -13.4117   25.2046 C   0  0  0  0  0  0  0  0  0  0  0  0
    8.1170  -13.8926   24.5178 C   0  0  2  0  0  0  0  0  0  0  0  0
    7.7769  -14.2907   23.1640 N   0  0  0  0  0  0  0  0  0  0  0  0
    8.8704  -14.9042   25.2667 C   0  0  0  0  0  0  0  0  0  0  0  0
    9.1770  -14.6431   26.4575 O   0  0  0  0  0  0  0  0  0  0  0  0
   10.3530  -19.4574   27.8559 N   0  0  0  0  0  0  0  0  0  0  0  0
   10.0555  -19.4320   26.4681 C   0  0  0  0  0  0  0  0  0  0  0  0
   10.5417  -20.4186   25.8102 O   0  0  0  0  0  0  0  0  0  0  0  0
    9.2637  -18.3861   25.8027 C   0  0  0  0  0  0  0  0  0  0  0  0
   10.0113  -17.1231   25.5368 C   0  0  2  0  0  0  0  0  0  0  0  0
    9.2822  -16.1599   24.7457 N   0  0  0  0  0  0  0  0  0  0  0  0
   11.3416  -17.3623   24.9170 C   0  0  0  0  0  0  0  0  0  0  0  0
   11.5224  -17.1060   23.7010 O   0  0  0  0  0  0  0  0  0  0  0  0
   12.4157  -17.8663   25.6349 O   0  0  0  0  0  0  0  0  0  0  0  0
  2  1  1  1
  3  4  1  0
  3  2  1  0
  5  6  1  0
  5  4  1  0
  7  6  1  0
  8  2  1  0
  8  9  2  0
 11 10  1  6
 11 13  1  0
 12 11  1  0
 14 13  1  1
 14 15  1  0
 15  8  1  0
 16 14  1  0
 17 16  2  0
 19 18  1  0
 19 21  1  0
 20 19  2  0
 22 21  1  6
 22 23  1  0
 22 24  1  0
 23 16  1  0
 24 26  1  0
 25 24  2  0
M  END
$$$$
