KLN.pdb
     RDKit          3D

 26 25  0  0  1  0  0  0  0  0999 V2000
    6.7965  -16.0955   21.5117 N   0  0  0  0  0  0  0  0  0  0  0  0
    8.1458  -15.5433   21.4337 C   0  0  1  0  0  0  0  0  0  0  0  0
    8.0109  -14.2409   20.6629 C   0  0  0  0  0  0  0  0  0  0  0  0
    7.8505  -14.6164   19.2148 C   0  0  0  0  0  0  0  0  0  0  0  0
    8.4265  -13.5734   18.2867 C   0  0  0  0  0  0  0  0  0  0  0  0
    8.1161  -13.9073   16.8357 C   0  0  0  0  0  0  0  0  0  0  0  0
    8.5833  -12.8865   15.9405 N   0  0  0  0  0  0  0  0  0  0  0  0
    8.6267  -15.2369   22.8283 C   0  0  0  0  0  0  0  0  0  0  0  0
    9.8256  -14.9003   23.0492 O   0  0  0  0  0  0  0  0  0  0  0  0
    8.0167  -12.0867   25.8976 C   0  0  0  0  0  0  0  0  0  0  0  0
    6.8301  -13.0227   25.6010 C   0  0  2  0  0  0  0  0  0  0  0  0
    5.6455  -12.3938   26.2922 C   0  0  0  0  0  0  0  0  0  0  0  0
    7.1666  -14.3919   26.0792 C   0  0  0  0  0  0  0  0  0  0  0  0
    8.2313  -15.1085   25.3005 C   0  0  2  0  0  0  0  0  0  0  0  0
    7.7564  -15.3138   23.9443 N   0  0  0  0  0  0  0  0  0  0  0  0
    8.7403  -16.3236   25.9457 C   0  0  0  0  0  0  0  0  0  0  0  0
    7.9074  -17.2090   26.2661 O   0  0  0  0  0  0  0  0  0  0  0  0
   12.8849  -17.7569   24.0509 N   0  0  0  0  0  0  0  0  0  0  0  0
   11.9557  -18.4377   24.8805 C   0  0  0  0  0  0  0  0  0  0  0  0
   11.1622  -19.2193   24.2463 O   0  0  0  0  0  0  0  0  0  0  0  0
   11.8754  -18.2891   26.3417 C   0  0  0  0  0  0  0  0  0  0  0  0
   10.5541  -17.8095   26.8403 C   0  0  2  0  0  0  0  0  0  0  0  0
   10.1073  -16.5755   26.2380 N   0  0  0  0  0  0  0  0  0  0  0  0
   10.5118  -17.6775   28.3208 C   0  0  0  0  0  0  0  0  0  0  0  0
   10.7823  -18.6659   29.0467 O   0  0  0  0  0  0  0  0  0  0  0  0
   10.1803  -16.4877   28.9512 O   0  0  0  0  0  0  0  0  0  0  0  0
  2  1  1  1
  3  4  1  0
  3  2  1  0
  5  6  1  0
  5  4  1  0
  7  6  1  0
  8  2  1  0
  8  9  2  0
 11 10  1  1
 11 13  1  0
 12 11  1  0
 14 13  1  1
 14 15  1  0
 15  8  1  0
 16 14  1  0
 17 16  2  0
 19 18  1  0
 19 21  1  0
 20 19  2  0
 22 21  1  6
 22 23  1  0
 22 24  1  0
 23 16  1  0
 24 26  1  0
 25 24  2  0
M  END
$$$$
