KLN.pdb
     RDKit          3D

 26 25  0  0  1  0  0  0  0  0999 V2000
    6.9267  -15.8857   21.9735 N   0  0  0  0  0  0  0  0  0  0  0  0
    8.2467  -15.2758   21.8430 C   0  0  1  0  0  0  0  0  0  0  0  0
    8.0474  -14.0538   20.9623 C   0  0  0  0  0  0  0  0  0  0  0  0
    8.0605  -14.5455   19.5404 C   0  0  0  0  0  0  0  0  0  0  0  0
    8.3242  -13.4332   18.5534 C   0  0  0  0  0  0  0  0  0  0  0  0
    8.1485  -13.9228   17.1242 C   0  0  0  0  0  0  0  0  0  0  0  0
    8.4568  -12.8984   16.1664 N   0  0  0  0  0  0  0  0  0  0  0  0
    8.7105  -14.8256   23.2039 C   0  0  0  0  0  0  0  0  0  0  0  0
    9.9078  -14.4707   23.4043 O   0  0  0  0  0  0  0  0  0  0  0  0
    7.9081  -11.4198   25.5665 C   0  0  0  0  0  0  0  0  0  0  0  0
    6.7695  -12.4560   25.6117 C   0  0  2  0  0  0  0  0  0  0  0  0
    5.6092  -11.7433   26.2613 C   0  0  0  0  0  0  0  0  0  0  0  0
    7.2438  -13.6595   26.3489 C   0  0  0  0  0  0  0  0  0  0  0  0
    8.2908  -14.4781   25.6509 C   0  0  2  0  0  0  0  0  0  0  0  0
    7.8255  -14.7822   24.3100 N   0  0  0  0  0  0  0  0  0  0  0  0
    8.7465  -15.6506   26.4054 C   0  0  0  0  0  0  0  0  0  0  0  0
    9.0777  -15.4814   27.6062 O   0  0  0  0  0  0  0  0  0  0  0  0
    6.2979  -20.5054   25.9897 N   0  0  0  0  0  0  0  0  0  0  0  0
    7.2697  -19.4731   25.9185 C   0  0  0  0  0  0  0  0  0  0  0  0
    7.4348  -18.9895   24.7431 O   0  0  0  0  0  0  0  0  0  0  0  0
    8.0418  -18.9723   27.0660 C   0  0  0  0  0  0  0  0  0  0  0  0
    9.1961  -18.1021   26.6990 C   0  0  2  0  0  0  0  0  0  0  0  0
    8.8435  -16.9665   25.8796 N   0  0  0  0  0  0  0  0  0  0  0  0
   10.2994  -18.8557   26.0463 C   0  0  0  0  0  0  0  0  0  0  0  0
   10.8216  -19.8361   26.6319 O   0  0  0  0  0  0  0  0  0  0  0  0
   10.7893  -18.5188   24.7935 O   0  0  0  0  0  0  0  0  0  0  0  0
  2  1  1  1
  3  4  1  0
  3  2  1  0
  5  6  1  0
  5  4  1  0
  7  6  1  0
  8  2  1  0
  8  9  2  0
 11 10  1  1
 11 13  1  0
 12 11  1  0
 14 13  1  1
 14 15  1  0
 15  8  1  0
 16 14  1  0
 17 16  2  0
 19 18  1  0
 19 21  1  0
 20 19  2  0
 22 21  1  6
 22 23  1  0
 22 24  1  0
 23 16  1  0
 24 26  1  0
 25 24  2  0
M  END
$$$$
