KLN.pdb
     RDKit          3D

 26 25  0  0  1  0  0  0  0  0999 V2000
    8.2620  -15.1824   20.4159 N   0  0  0  0  0  0  0  0  0  0  0  0
    7.5109  -15.6140   21.5911 C   0  0  1  0  0  0  0  0  0  0  0  0
    7.5165  -17.1327   21.5452 C   0  0  0  0  0  0  0  0  0  0  0  0
    6.5808  -17.5298   20.4360 C   0  0  0  0  0  0  0  0  0  0  0  0
    6.3916  -19.0261   20.3560 C   0  0  0  0  0  0  0  0  0  0  0  0
    5.3650  -19.3873   19.2936 C   0  0  0  0  0  0  0  0  0  0  0  0
    5.2614  -20.8077   19.1113 N   0  0  0  0  0  0  0  0  0  0  0  0
    8.2419  -15.1609   22.8282 C   0  0  0  0  0  0  0  0  0  0  0  0
    9.4932  -14.9772   22.8199 O   0  0  0  0  0  0  0  0  0  0  0  0
    7.8656  -11.4606   25.4562 C   0  0  0  0  0  0  0  0  0  0  0  0
    6.7200  -12.4824   25.5822 C   0  0  2  0  0  0  0  0  0  0  0  0
    5.6928  -11.8207   26.4672 C   0  0  0  0  0  0  0  0  0  0  0  0
    7.2695  -13.7564   26.1226 C   0  0  0  0  0  0  0  0  0  0  0  0
    8.2512  -14.4677   25.2374 C   0  0  2  0  0  0  0  0  0  0  0  0
    7.5577  -14.9233   24.0464 N   0  0  0  0  0  0  0  0  0  0  0  0
    9.0298  -15.5121   25.9117 C   0  0  0  0  0  0  0  0  0  0  0  0
    9.6382  -15.1995   26.9665 O   0  0  0  0  0  0  0  0  0  0  0  0
   12.7272  -18.2979   23.3248 N   0  0  0  0  0  0  0  0  0  0  0  0
   12.1683  -18.4795   24.6170 C   0  0  0  0  0  0  0  0  0  0  0  0
   12.2419  -19.6818   25.0551 O   0  0  0  0  0  0  0  0  0  0  0  0
   11.5499  -17.4113   25.4171 C   0  0  0  0  0  0  0  0  0  0  0  0
   10.1891  -17.7377   25.9333 C   0  0  2  0  0  0  0  0  0  0  0  0
    9.1498  -16.8536   25.4607 N   0  0  0  0  0  0  0  0  0  0  0  0
   10.1388  -17.8064   27.4179 C   0  0  0  0  0  0  0  0  0  0  0  0
    9.5233  -18.7445   27.9819 O   0  0  0  0  0  0  0  0  0  0  0  0
   10.7532  -16.8620   28.2264 O   0  0  0  0  0  0  0  0  0  0  0  0
  2  1  1  6
  3  4  1  0
  3  2  1  0
  5  6  1  0
  5  4  1  0
  7  6  1  0
  8  2  1  0
  8  9  2  0
 11 10  1  1
 11 13  1  0
 12 11  1  0
 14 13  1  1
 14 15  1  0
 15  8  1  0
 16 14  1  0
 17 16  2  0
 19 18  1  0
 19 21  1  0
 20 19  2  0
 22 21  1  1
 22 23  1  0
 22 24  1  0
 23 16  1  0
 24 26  1  0
 25 24  2  0
M  END
$$$$
