KLN.pdb
     RDKit          3D

 26 25  0  0  1  0  0  0  0  0999 V2000
    7.1215  -16.8476   21.3052 N   0  0  0  0  0  0  0  0  0  0  0  0
    8.4628  -16.3095   21.0975 C   0  0  1  0  0  0  0  0  0  0  0  0
    8.4029  -15.5598   19.7774 C   0  0  0  0  0  0  0  0  0  0  0  0
    8.0796  -16.5808   18.7207 C   0  0  0  0  0  0  0  0  0  0  0  0
    8.1408  -16.0007   17.3276 C   0  0  0  0  0  0  0  0  0  0  0  0
    7.8034  -17.0556   16.2851 C   0  0  0  0  0  0  0  0  0  0  0  0
    7.6977  -16.4918   14.9689 N   0  0  0  0  0  0  0  0  0  0  0  0
    8.7696  -15.3305   22.2008 C   0  0  0  0  0  0  0  0  0  0  0  0
    9.8995  -14.7682   22.2829 O   0  0  0  0  0  0  0  0  0  0  0  0
    5.7408  -12.8258   26.9936 C   0  0  0  0  0  0  0  0  0  0  0  0
    7.1070  -13.0061   26.3056 C   0  0  2  0  0  0  0  0  0  0  0  0
    7.6385  -11.6084   26.1051 C   0  0  0  0  0  0  0  0  0  0  0  0
    6.9133  -13.7778   25.0471 C   0  0  0  0  0  0  0  0  0  0  0  0
    8.1665  -14.2951   24.4029 C   0  0  2  0  0  0  0  0  0  0  0  0
    7.8065  -15.0021   23.1873 N   0  0  0  0  0  0  0  0  0  0  0  0
    9.0398  -15.0580   25.3014 C   0  0  0  0  0  0  0  0  0  0  0  0
    9.1533  -14.6569   26.4873 O   0  0  0  0  0  0  0  0  0  0  0  0
   11.7349  -18.7883   27.8224 N   0  0  0  0  0  0  0  0  0  0  0  0
   10.3901  -18.3628   27.9819 C   0  0  0  0  0  0  0  0  0  0  0  0
    9.8206  -18.8118   29.0387 O   0  0  0  0  0  0  0  0  0  0  0  0
    9.6748  -17.4853   27.0427 C   0  0  0  0  0  0  0  0  0  0  0  0
   10.4981  -17.0130   25.8923 C   0  0  2  0  0  0  0  0  0  0  0  0
    9.7702  -16.2186   24.9309 N   0  0  0  0  0  0  0  0  0  0  0  0
   11.1919  -18.1236   25.1876 C   0  0  0  0  0  0  0  0  0  0  0  0
   10.5420  -18.8945   24.4391 O   0  0  0  0  0  0  0  0  0  0  0  0
   12.5530  -18.3529   25.3216 O   0  0  0  0  0  0  0  0  0  0  0  0
  2  1  1  1
  3  4  1  0
  3  2  1  0
  5  6  1  0
  5  4  1  0
  7  6  1  0
  8  2  1  0
  8  9  2  0
 11 10  1  6
 11 13  1  0
 12 11  1  0
 14 13  1  1
 14 15  1  0
 15  8  1  0
 16 14  1  0
 17 16  2  0
 19 18  1  0
 19 21  1  0
 20 19  2  0
 22 21  1  1
 22 23  1  0
 22 24  1  0
 23 16  1  0
 24 26  1  0
 25 24  2  0
M  END
$$$$
