KLN.pdb
     RDKit          3D

 26 25  0  0  1  0  0  0  0  0999 V2000
   10.4155  -18.2242   17.3602 N   0  0  0  0  0  0  0  0  0  0  0  0
    9.4446  -18.0856   18.4418 C   0  0  1  0  0  0  0  0  0  0  0  0
    9.4811  -19.4042   19.1957 C   0  0  0  0  0  0  0  0  0  0  0  0
    9.0377  -20.4640   18.2242 C   0  0  0  0  0  0  0  0  0  0  0  0
    8.3358  -21.6114   18.9110 C   0  0  0  0  0  0  0  0  0  0  0  0
    7.8474  -22.6341   17.8967 C   0  0  0  0  0  0  0  0  0  0  0  0
    7.2693  -23.7841   18.5330 N   0  0  0  0  0  0  0  0  0  0  0  0
    9.8987  -16.9840   19.3639 C   0  0  0  0  0  0  0  0  0  0  0  0
   11.1259  -16.7936   19.6032 O   0  0  0  0  0  0  0  0  0  0  0  0
    8.4517  -12.6932   19.2289 C   0  0  0  0  0  0  0  0  0  0  0  0
    7.5343  -13.6792   19.9762 C   0  0  2  0  0  0  0  0  0  0  0  0
    6.2697  -12.9073   20.2613 C   0  0  0  0  0  0  0  0  0  0  0  0
    8.2433  -14.1698   21.1900 C   0  0  0  0  0  0  0  0  0  0  0  0
    9.3946  -15.0996   20.9385 C   0  0  2  0  0  0  0  0  0  0  0  0
    8.9708  -16.1202   19.9974 N   0  0  0  0  0  0  0  0  0  0  0  0
   10.0217  -15.6307   22.1536 C   0  0  0  0  0  0  0  0  0  0  0  0
   10.4999  -14.8066   22.9737 O   0  0  0  0  0  0  0  0  0  0  0  0
   10.7112  -20.3903   26.0764 N   0  0  0  0  0  0  0  0  0  0  0  0
   11.2193  -19.4100   25.1843 C   0  0  0  0  0  0  0  0  0  0  0  0
   12.3848  -18.9751   25.4929 O   0  0  0  0  0  0  0  0  0  0  0  0
   10.5060  -18.9090   23.9995 C   0  0  0  0  0  0  0  0  0  0  0  0
   10.7658  -17.4744   23.6850 C   0  0  2  0  0  0  0  0  0  0  0  0
   10.1311  -17.0102   22.4738 N   0  0  0  0  0  0  0  0  0  0  0  0
   12.2162  -17.1504   23.6353 C   0  0  0  0  0  0  0  0  0  0  0  0
   12.8003  -16.7282   24.6637 O   0  0  0  0  0  0  0  0  0  0  0  0
   12.9706  -17.2958   22.4808 O   0  0  0  0  0  0  0  0  0  0  0  0
  2  1  1  6
  3  4  1  0
  3  2  1  0
  5  6  1  0
  5  4  1  0
  7  6  1  0
  8  2  1  0
  8  9  2  0
 11 10  1  1
 11 13  1  0
 12 11  1  0
 14 13  1  1
 14 15  1  0
 15  8  1  0
 16 14  1  0
 17 16  2  0
 19 18  1  0
 19 21  1  0
 20 19  2  0
 22 21  1  6
 22 23  1  0
 22 24  1  0
 23 16  1  0
 24 26  1  0
 25 24  2  0
M  END
$$$$
