KLN.pdb
     RDKit          3D

 26 25  0  0  1  0  0  0  0  0999 V2000
    7.1723  -16.3423   21.7575 N   0  0  0  0  0  0  0  0  0  0  0  0
    8.4958  -15.7611   21.5523 C   0  0  1  0  0  0  0  0  0  0  0  0
    8.3010  -14.6486   20.5360 C   0  0  0  0  0  0  0  0  0  0  0  0
    8.0046  -15.3180   19.2216 C   0  0  0  0  0  0  0  0  0  0  0  0
    8.2573  -14.4050   18.0454 C   0  0  0  0  0  0  0  0  0  0  0  0
    7.9293  -15.1044   16.7352 C   0  0  0  0  0  0  0  0  0  0  0  0
    8.1959  -14.2661   15.6004 N   0  0  0  0  0  0  0  0  0  0  0  0
    8.9685  -15.1588   22.8499 C   0  0  0  0  0  0  0  0  0  0  0  0
   10.1327  -14.6781   22.9640 O   0  0  0  0  0  0  0  0  0  0  0  0
    7.5341  -11.6924   25.3841 C   0  0  0  0  0  0  0  0  0  0  0  0
    6.6210  -12.9324   25.4182 C   0  0  2  0  0  0  0  0  0  0  0  0
    5.4040  -12.5083   26.2027 C   0  0  0  0  0  0  0  0  0  0  0  0
    7.3748  -14.0681   26.0171 C   0  0  0  0  0  0  0  0  0  0  0  0
    8.5764  -14.5295   25.2447 C   0  0  2  0  0  0  0  0  0  0  0  0
    8.1289  -15.1074   23.9907 N   0  0  0  0  0  0  0  0  0  0  0  0
    9.4931  -15.3866   26.0042 C   0  0  0  0  0  0  0  0  0  0  0  0
    9.5311  -15.2417   27.2523 O   0  0  0  0  0  0  0  0  0  0  0  0
    9.1618  -20.2906   28.2640 N   0  0  0  0  0  0  0  0  0  0  0  0
    9.7251  -19.0405   27.8965 C   0  0  0  0  0  0  0  0  0  0  0  0
   10.4296  -18.4928   28.8165 O   0  0  0  0  0  0  0  0  0  0  0  0
    9.5423  -18.3946   26.5876 C   0  0  0  0  0  0  0  0  0  0  0  0
   10.7065  -17.5795   26.1351 C   0  0  2  0  0  0  0  0  0  0  0  0
   10.3446  -16.3701   25.4339 N   0  0  0  0  0  0  0  0  0  0  0  0
   11.6669  -18.3581   25.3090 C   0  0  0  0  0  0  0  0  0  0  0  0
   11.3157  -18.7984   24.1866 O   0  0  0  0  0  0  0  0  0  0  0  0
   12.9608  -18.6267   25.7295 O   0  0  0  0  0  0  0  0  0  0  0  0
  2  1  1  1
  3  4  1  0
  3  2  1  0
  5  6  1  0
  5  4  1  0
  7  6  1  0
  8  2  1  0
  8  9  2  0
 11 10  1  1
 11 13  1  0
 12 11  1  0
 14 13  1  1
 14 15  1  0
 15  8  1  0
 16 14  1  0
 17 16  2  0
 19 18  1  0
 19 21  1  0
 20 19  2  0
 22 21  1  6
 22 23  1  0
 22 24  1  0
 23 16  1  0
 24 26  1  0
 25 24  2  0
M  END
$$$$
