KLN.pdb
     RDKit          3D

 26 25  0  0  1  0  0  0  0  0999 V2000
    6.7967  -15.3285   21.1637 N   0  0  0  0  0  0  0  0  0  0  0  0
    8.1452  -14.7706   21.1187 C   0  0  1  0  0  0  0  0  0  0  0  0
    8.0043  -13.4135   20.4501 C   0  0  0  0  0  0  0  0  0  0  0  0
    7.5161  -13.6753   19.0513 C   0  0  0  0  0  0  0  0  0  0  0  0
    8.6047  -13.4881   18.0214 C   0  0  0  0  0  0  0  0  0  0  0  0
    8.1047  -13.8496   16.6313 C   0  0  0  0  0  0  0  0  0  0  0  0
    9.1312  -13.7004   15.6384 N   0  0  0  0  0  0  0  0  0  0  0  0
    8.6355  -14.5706   22.5292 C   0  0  0  0  0  0  0  0  0  0  0  0
    9.8139  -14.1759   22.7639 O   0  0  0  0  0  0  0  0  0  0  0  0
    8.0863  -12.0141   26.2016 C   0  0  0  0  0  0  0  0  0  0  0  0
    6.9090  -12.8943   25.7418 C   0  0  2  0  0  0  0  0  0  0  0  0
    5.7271  -12.4363   26.5599 C   0  0  0  0  0  0  0  0  0  0  0  0
    7.2744  -14.3247   25.9346 C   0  0  0  0  0  0  0  0  0  0  0  0
    8.3193  -14.8602   24.9993 C   0  0  2  0  0  0  0  0  0  0  0  0
    7.7974  -14.8164   23.6455 N   0  0  0  0  0  0  0  0  0  0  0  0
    8.8685  -16.1642   25.3860 C   0  0  0  0  0  0  0  0  0  0  0  0
    8.1272  -17.1718   25.2613 O   0  0  0  0  0  0  0  0  0  0  0  0
   11.6410  -18.1882   23.3586 N   0  0  0  0  0  0  0  0  0  0  0  0
   12.4159  -17.6869   24.4371 C   0  0  0  0  0  0  0  0  0  0  0  0
   13.4389  -17.0052   24.0744 O   0  0  0  0  0  0  0  0  0  0  0  0
   12.1089  -17.9061   25.8588 C   0  0  0  0  0  0  0  0  0  0  0  0
   10.6781  -17.6897   26.2204 C   0  0  2  0  0  0  0  0  0  0  0  0
   10.1782  -16.3749   25.8939 N   0  0  0  0  0  0  0  0  0  0  0  0
   10.3963  -17.9815   27.6510 C   0  0  0  0  0  0  0  0  0  0  0  0
    9.9211  -17.0860   28.3921 O   0  0  0  0  0  0  0  0  0  0  0  0
   10.6393  -19.2237   28.2174 O   0  0  0  0  0  0  0  0  0  0  0  0
  2  1  1  1
  3  4  1  0
  3  2  1  0
  5  6  1  0
  5  4  1  0
  7  6  1  0
  8  2  1  0
  8  9  2  0
 11 10  1  1
 11 13  1  0
 12 11  1  0
 14 13  1  1
 14 15  1  0
 15  8  1  0
 16 14  1  0
 17 16  2  0
 19 18  1  0
 19 21  1  0
 20 19  2  0
 22 21  1  1
 22 23  1  0
 22 24  1  0
 23 16  1  0
 24 26  1  0
 25 24  2  0
M  END
$$$$
