KLN.pdb
     RDKit          3D

 26 25  0  0  1  0  0  0  0  0999 V2000
    6.8973  -15.1207   21.4119 N   0  0  0  0  0  0  0  0  0  0  0  0
    8.3561  -15.1492   21.4643 C   0  0  1  0  0  0  0  0  0  0  0  0
    8.8160  -13.8959   20.7389 C   0  0  0  0  0  0  0  0  0  0  0  0
    8.1139  -13.8907   19.4082 C   0  0  0  0  0  0  0  0  0  0  0  0
    8.9289  -13.2095   18.3346 C   0  0  0  0  0  0  0  0  0  0  0  0
    8.2124  -13.2617   16.9941 C   0  0  0  0  0  0  0  0  0  0  0  0
    8.9682  -12.6154   15.9584 N   0  0  0  0  0  0  0  0  0  0  0  0
    8.7921  -15.0670   22.9041 C   0  0  0  0  0  0  0  0  0  0  0  0
   10.0155  -15.1092   23.2220 O   0  0  0  0  0  0  0  0  0  0  0  0
    8.1011  -11.8946   25.8096 C   0  0  0  0  0  0  0  0  0  0  0  0
    6.8591  -12.7929   25.6584 C   0  0  2  0  0  0  0  0  0  0  0  0
    5.7747  -12.1090   26.4537 C   0  0  0  0  0  0  0  0  0  0  0  0
    7.1973  -14.1640   26.1301 C   0  0  0  0  0  0  0  0  0  0  0  0
    8.2612  -14.8766   25.3468 C   0  0  2  0  0  0  0  0  0  0  0  0
    7.8508  -14.9394   23.9559 N   0  0  0  0  0  0  0  0  0  0  0  0
    8.6650  -16.1697   25.9095 C   0  0  0  0  0  0  0  0  0  0  0  0
    8.1264  -17.2051   25.4426 O   0  0  0  0  0  0  0  0  0  0  0  0
   10.4267  -20.0548   24.3561 N   0  0  0  0  0  0  0  0  0  0  0  0
   10.5392  -19.5569   25.6806 C   0  0  0  0  0  0  0  0  0  0  0  0
   10.2351  -20.4094   26.5881 O   0  0  0  0  0  0  0  0  0  0  0  0
   10.9629  -18.1914   26.0264 C   0  0  0  0  0  0  0  0  0  0  0  0
   10.2606  -17.6088   27.2061 C   0  0  2  0  0  0  0  0  0  0  0  0
    9.6207  -16.3406   26.9464 N   0  0  0  0  0  0  0  0  0  0  0  0
   11.1444  -17.4791   28.3949 C   0  0  0  0  0  0  0  0  0  0  0  0
   11.9395  -16.5111   28.4829 O   0  0  0  0  0  0  0  0  0  0  0  0
   11.1313  -18.3976   29.4338 O   0  0  0  0  0  0  0  0  0  0  0  0
  2  1  1  1
  3  4  1  0
  3  2  1  0
  5  6  1  0
  5  4  1  0
  7  6  1  0
  8  2  1  0
  8  9  2  0
 11 10  1  1
 11 13  1  0
 12 11  1  0
 14 13  1  1
 14 15  1  0
 15  8  1  0
 16 14  1  0
 17 16  2  0
 19 18  1  0
 19 21  1  0
 20 19  2  0
 22 21  1  6
 22 23  1  0
 22 24  1  0
 23 16  1  0
 24 26  1  0
 25 24  2  0
M  END
$$$$
