QSM.pdb
     RDKit          3D

 24 23  0  0  1  0  0  0  0  0999 V2000
   16.6005  -21.8357    3.4209 N   0  0  0  0  0  0  0  0  0  0  0  0
   16.1663  -21.3486    2.1348 C   0  0  0  0  0  0  0  0  0  0  0  0
   15.8080  -22.2258    1.3332 O   0  0  0  0  0  0  0  0  0  0  0  0
   16.1680  -19.9150    1.8382 C   0  0  0  0  0  0  0  0  0  0  0  0
   16.5948  -19.0607    2.9843 C   0  0  0  0  0  0  0  0  0  0  0  0
   15.5330  -18.6714    3.9528 C   0  0  2  0  0  0  0  0  0  0  0  0
   14.4430  -17.9120    3.4615 N   0  0  0  0  0  0  0  0  0  0  0  0
   16.1012  -17.9848    5.1471 C   0  0  0  0  0  0  0  0  0  0  0  0
   16.0149  -16.7111    5.1664 O   0  0  0  0  0  0  0  0  0  0  0  0
   16.9233  -19.8122    8.7572 O   0  0  0  0  0  0  0  0  0  0  0  0
   16.5635  -18.4757    8.6253 C   0  0  0  0  0  0  0  0  0  0  0  0
   17.1438  -17.8730    7.3558 C   0  0  2  0  0  0  0  0  0  0  0  0
   16.7159  -18.6403    6.2344 N   0  0  0  0  0  0  0  0  0  0  0  0
   18.6291  -17.8836    7.5284 C   0  0  0  0  0  0  0  0  0  0  0  0
   19.2999  -18.7609    6.9310 O   0  0  0  0  0  0  0  0  0  0  0  0
   24.8389  -14.2446   10.9947 C   0  0  0  0  0  0  0  0  0  0  0  0
   23.1040  -14.2456   10.5364 S   0  0  0  0  0  0  0  0  0  0  0  0
   22.6138  -15.7551    9.7141 C   0  0  0  0  0  0  0  0  0  0  0  0
   21.2256  -15.7745    9.2023 C   0  0  0  0  0  0  0  0  0  0  0  0
   20.7738  -17.0624    8.6252 C   0  0  2  0  0  0  0  0  0  0  0  0
   19.3071  -16.9479    8.3350 N   0  0  0  0  0  0  0  0  0  0  0  0
   20.9252  -18.2034    9.5165 C   0  0  0  0  0  0  0  0  0  0  0  0
   20.2069  -18.4744   10.5151 O   0  0  0  0  0  0  0  0  0  0  0  0
   21.9775  -19.1272    9.2672 O   0  0  0  0  0  0  0  0  0  0  0  0
  2  1  1  0
  3  2  2  0
  4  2  1  0
  5  4  1  0
  6  5  1  0
  6  7  1  6
  8  9  2  0
  8  6  1  0
 10 11  1  0
 12 11  1  1
 12 13  1  0
 13  8  1  0
 14 12  1  0
 15 14  2  0
 17 16  1  0
 18 17  1  0
 19 18  1  0
 20 19  1  1
 20 22  1  0
 20 21  1  0
 21 14  1  0
 22 24  1  0
 23 22  2  0
M  END
$$$$
