QSM.pdb
     RDKit          3D

 24 23  0  0  1  0  0  0  0  0999 V2000
   24.4477  -24.4687  -14.7341 N   0  0  0  0  0  0  0  0  0  0  0  0
   25.6942  -23.7488  -14.8206 C   0  0  0  0  0  0  0  0  0  0  0  0
   26.6530  -24.4063  -15.2554 O   0  0  0  0  0  0  0  0  0  0  0  0
   25.7780  -22.3458  -14.4108 C   0  0  0  0  0  0  0  0  0  0  0  0
   24.4814  -21.7731  -13.9458 C   0  0  0  0  0  0  0  0  0  0  0  0
   23.4977  -21.4133  -15.0040 C   0  0  2  0  0  0  0  0  0  0  0  0
   23.9102  -20.4918  -15.9975 N   0  0  0  0  0  0  0  0  0  0  0  0
   22.2064  -20.9506  -14.4219 C   0  0  0  0  0  0  0  0  0  0  0  0
   22.2781  -20.0452  -13.5245 O   0  0  0  0  0  0  0  0  0  0  0  0
   18.4579  -21.9859  -15.7862 O   0  0  0  0  0  0  0  0  0  0  0  0
   18.5982  -20.9082  -14.9191 C   0  0  0  0  0  0  0  0  0  0  0  0
   19.8009  -21.0898  -14.0068 C   0  0  2  0  0  0  0  0  0  0  0  0
   20.9364  -21.4405  -14.7922 N   0  0  0  0  0  0  0  0  0  0  0  0
   19.4262  -22.1558  -13.0273 C   0  0  0  0  0  0  0  0  0  0  0  0
   19.5135  -23.3575  -13.3803 O   0  0  0  0  0  0  0  0  0  0  0  0
   19.7284  -21.1733   -6.6530 C   0  0  0  0  0  0  0  0  0  0  0  0
   19.1790  -22.8814   -6.6695 S   0  0  0  0  0  0  0  0  0  0  0  0
   18.6636  -23.4193   -8.2945 C   0  0  0  0  0  0  0  0  0  0  0  0
   19.0807  -22.5441   -9.4123 C   0  0  0  0  0  0  0  0  0  0  0  0
   18.5971  -22.9451  -10.7543 C   0  0  2  0  0  0  0  0  0  0  0  0
   18.9785  -21.8659  -11.7230 N   0  0  0  0  0  0  0  0  0  0  0  0
   17.1516  -23.0878  -10.8515 C   0  0  0  0  0  0  0  0  0  0  0  0
   16.4927  -24.1521  -10.7106 O   0  0  0  0  0  0  0  0  0  0  0  0
   16.3706  -21.9327  -11.1318 O   0  0  0  0  0  0  0  0  0  0  0  0
  2  1  1  0
  3  2  2  0
  4  2  1  0
  5  4  1  0
  6  5  1  0
  6  7  1  1
  8  9  2  0
  8  6  1  0
 10 11  1  0
 12 11  1  6
 12 13  1  0
 13  8  1  0
 14 12  1  0
 15 14  2  0
 17 16  1  0
 18 17  1  0
 19 18  1  0
 20 19  1  1
 20 22  1  0
 20 21  1  0
 21 14  1  0
 22 24  1  0
 23 22  2  0
M  END
$$$$
