QSM.pdb
     RDKit          3D

 24 23  0  0  1  0  0  0  0  0999 V2000
   15.8353  -14.1617  -16.4221 N   0  0  0  0  0  0  0  0  0  0  0  0
   16.7755  -14.0534  -15.3340 C   0  0  0  0  0  0  0  0  0  0  0  0
   17.1493  -15.1343  -14.8517 O   0  0  0  0  0  0  0  0  0  0  0  0
   17.2265  -12.7430  -14.8623 C   0  0  0  0  0  0  0  0  0  0  0  0
   16.6172  -11.5943  -15.5938 C   0  0  0  0  0  0  0  0  0  0  0  0
   17.5335  -10.7929  -16.4511 C   0  0  2  0  0  0  0  0  0  0  0  0
   18.5840  -11.4783  -17.1089 N   0  0  0  0  0  0  0  0  0  0  0  0
   18.1025   -9.6300  -15.7132 C   0  0  0  0  0  0  0  0  0  0  0  0
   17.2797   -8.9281  -15.0347 O   0  0  0  0  0  0  0  0  0  0  0  0
   21.6267   -7.2796  -13.5841 O   0  0  0  0  0  0  0  0  0  0  0  0
   21.2503   -8.3337  -14.4088 C   0  0  0  0  0  0  0  0  0  0  0  0
   19.8727   -8.0982  -15.0077 C   0  0  2  0  0  0  0  0  0  0  0  0
   19.4648   -9.2638  -15.7179 N   0  0  0  0  0  0  0  0  0  0  0  0
   20.0002   -6.8994  -15.8923 C   0  0  0  0  0  0  0  0  0  0  0  0
   20.5124   -7.0405  -17.0299 O   0  0  0  0  0  0  0  0  0  0  0  0
   17.6746    0.6128  -17.1271 C   0  0  0  0  0  0  0  0  0  0  0  0
   17.5668   -0.9084  -16.1814 S   0  0  0  0  0  0  0  0  0  0  0  0
   18.7874   -2.1142  -16.6827 C   0  0  0  0  0  0  0  0  0  0  0  0
   18.7006   -3.4238  -15.9993 C   0  0  0  0  0  0  0  0  0  0  0  0
   19.7293   -4.4175  -16.3866 C   0  0  2  0  0  0  0  0  0  0  0  0
   19.5683   -5.6165  -15.5005 N   0  0  0  0  0  0  0  0  0  0  0  0
   21.1000   -3.9604  -16.2089 C   0  0  0  0  0  0  0  0  0  0  0  0
   21.7761   -4.0148  -15.1475 O   0  0  0  0  0  0  0  0  0  0  0  0
   21.7772   -3.3898  -17.3218 O   0  0  0  0  0  0  0  0  0  0  0  0
  2  1  1  0
  3  2  2  0
  4  2  1  0
  5  4  1  0
  6  5  1  0
  6  7  1  1
  8  9  2  0
  8  6  1  0
 10 11  1  0
 12 11  1  6
 12 13  1  0
 13  8  1  0
 14 12  1  0
 15 14  2  0
 17 16  1  0
 18 17  1  0
 19 18  1  0
 20 19  1  1
 20 22  1  0
 20 21  1  0
 21 14  1  0
 22 24  1  0
 23 22  2  0
M  END
$$$$
