QSM.pdb
     RDKit          3D

 24 23  0  0  1  0  0  0  0  0999 V2000
   27.7739  -24.6896  -16.6399 N   0  0  0  0  0  0  0  0  0  0  0  0
   28.1564  -23.4179  -16.0777 C   0  0  0  0  0  0  0  0  0  0  0  0
   27.2700  -22.8419  -15.4271 O   0  0  0  0  0  0  0  0  0  0  0  0
   29.5022  -22.8814  -16.2874 C   0  0  0  0  0  0  0  0  0  0  0  0
   30.3982  -23.7837  -17.0677 C   0  0  0  0  0  0  0  0  0  0  0  0
   30.9079  -24.9887  -16.3570 C   0  0  2  0  0  0  0  0  0  0  0  0
   31.4780  -24.8017  -15.0740 N   0  0  0  0  0  0  0  0  0  0  0  0
   31.8602  -25.7645  -17.2007 C   0  0  0  0  0  0  0  0  0  0  0  0
   31.4481  -26.1026  -18.3608 O   0  0  0  0  0  0  0  0  0  0  0  0
   35.7155  -25.2514  -17.2411 O   0  0  0  0  0  0  0  0  0  0  0  0
   35.4472  -26.6093  -17.3721 C   0  0  0  0  0  0  0  0  0  0  0  0
   33.9878  -26.8496  -17.7244 C   0  0  2  0  0  0  0  0  0  0  0  0
   33.1610  -26.1412  -16.8057 N   0  0  0  0  0  0  0  0  0  0  0  0
   33.7805  -28.3292  -17.6636 C   0  0  0  0  0  0  0  0  0  0  0  0
   33.1945  -28.8161  -16.6656 O   0  0  0  0  0  0  0  0  0  0  0  0
   29.2839  -31.6979  -20.6455 C   0  0  0  0  0  0  0  0  0  0  0  0
   29.9318  -32.0566  -19.0111 S   0  0  0  0  0  0  0  0  0  0  0  0
   31.7181  -32.0187  -18.9591 C   0  0  0  0  0  0  0  0  0  0  0  0
   32.3167  -30.6815  -18.7521 C   0  0  0  0  0  0  0  0  0  0  0  0
   33.7977  -30.6390  -18.7322 C   0  0  2  0  0  0  0  0  0  0  0  0
   34.2168  -29.2001  -18.6819 N   0  0  0  0  0  0  0  0  0  0  0  0
   34.4287  -31.2063  -19.9150 C   0  0  0  0  0  0  0  0  0  0  0  0
   34.6814  -30.6030  -20.9915 O   0  0  0  0  0  0  0  0  0  0  0  0
   34.8131  -32.5754  -19.8914 O   0  0  0  0  0  0  0  0  0  0  0  0
  2  1  1  0
  3  2  2  0
  4  2  1  0
  5  4  1  0
  6  5  1  0
  6  7  1  1
  8  9  2  0
  8  6  1  0
 10 11  1  0
 12 11  1  1
 12 13  1  0
 13  8  1  0
 14 12  1  0
 15 14  2  0
 17 16  1  0
 18 17  1  0
 19 18  1  0
 20 19  1  6
 20 22  1  0
 20 21  1  0
 21 14  1  0
 22 24  1  0
 23 22  2  0
M  END
$$$$
