QSM.pdb
     RDKit          3D

 24 23  0  0  1  0  0  0  0  0999 V2000
   25.0013  -25.4700  -19.1934 N   0  0  0  0  0  0  0  0  0  0  0  0
   26.2701  -25.4740  -18.5079 C   0  0  0  0  0  0  0  0  0  0  0  0
   27.2647  -25.3528  -19.2405 O   0  0  0  0  0  0  0  0  0  0  0  0
   26.3337  -25.6167  -17.0524 C   0  0  0  0  0  0  0  0  0  0  0  0
   26.9636  -24.4563  -16.3578 C   0  0  0  0  0  0  0  0  0  0  0  0
   26.4014  -23.1129  -16.6679 C   0  0  2  0  0  0  0  0  0  0  0  0
   26.7839  -22.5077  -17.8900 N   0  0  0  0  0  0  0  0  0  0  0  0
   26.6346  -22.1479  -15.5567 C   0  0  0  0  0  0  0  0  0  0  0  0
   27.7464  -21.5202  -15.5715 O   0  0  0  0  0  0  0  0  0  0  0  0
   23.9813  -19.9115  -13.9821 O   0  0  0  0  0  0  0  0  0  0  0  0
   25.3200  -19.6676  -13.6967 C   0  0  0  0  0  0  0  0  0  0  0  0
   26.0830  -20.9662  -13.4885 C   0  0  2  0  0  0  0  0  0  0  0  0
   25.7233  -21.8904  -14.5113 N   0  0  0  0  0  0  0  0  0  0  0  0
   25.7205  -21.4502  -12.1210 C   0  0  0  0  0  0  0  0  0  0  0  0
   24.6918  -22.1569  -11.9838 O   0  0  0  0  0  0  0  0  0  0  0  0
   29.1376  -19.9198   -6.4476 C   0  0  0  0  0  0  0  0  0  0  0  0
   27.4772  -19.2622   -6.2728 S   0  0  0  0  0  0  0  0  0  0  0  0
   26.3067  -20.0592   -7.3637 C   0  0  0  0  0  0  0  0  0  0  0  0
   26.7892  -20.3008   -8.7415 C   0  0  0  0  0  0  0  0  0  0  0  0
   25.8857  -21.0955   -9.6062 C   0  0  2  0  0  0  0  0  0  0  0  0
   26.4874  -21.1450  -10.9788 N   0  0  0  0  0  0  0  0  0  0  0  0
   24.5552  -20.5264   -9.7646 C   0  0  0  0  0  0  0  0  0  0  0  0
   23.5213  -20.8480   -9.1209 O   0  0  0  0  0  0  0  0  0  0  0  0
   24.3635  -19.5021  -10.7325 O   0  0  0  0  0  0  0  0  0  0  0  0
  2  1  1  0
  3  2  2  0
  4  2  1  0
  5  4  1  0
  6  5  1  0
  6  7  1  6
  8  9  2  0
  8  6  1  0
 10 11  1  0
 12 11  1  6
 12 13  1  0
 13  8  1  0
 14 12  1  0
 15 14  2  0
 17 16  1  0
 18 17  1  0
 19 18  1  0
 20 19  1  1
 20 22  1  0
 20 21  1  0
 21 14  1  0
 22 24  1  0
 23 22  2  0
M  END
$$$$
