QSM.pdb
     RDKit          3D

 24 23  0  0  1  0  0  0  0  0999 V2000
   14.9204  -10.7698  -16.9507 N   0  0  0  0  0  0  0  0  0  0  0  0
   15.4997  -11.2982  -18.1611 C   0  0  0  0  0  0  0  0  0  0  0  0
   14.6998  -11.8608  -18.9255 O   0  0  0  0  0  0  0  0  0  0  0  0
   16.9328  -11.1615  -18.4265 C   0  0  0  0  0  0  0  0  0  0  0  0
   17.6792  -10.4357  -17.3580 C   0  0  0  0  0  0  0  0  0  0  0  0
   18.7629  -11.1938  -16.6740 C   0  0  2  0  0  0  0  0  0  0  0  0
   18.4013  -12.3763  -15.9832 N   0  0  0  0  0  0  0  0  0  0  0  0
   19.5528  -10.3221  -15.7593 C   0  0  0  0  0  0  0  0  0  0  0  0
   18.9513   -9.8984  -14.7159 O   0  0  0  0  0  0  0  0  0  0  0  0
   23.5698   -9.6814  -16.1766 O   0  0  0  0  0  0  0  0  0  0  0  0
   23.0122   -9.5398  -14.9110 C   0  0  0  0  0  0  0  0  0  0  0  0
   21.5494   -9.1343  -14.9971 C   0  0  2  0  0  0  0  0  0  0  0  0
   20.8952   -9.9433  -15.9703 N   0  0  0  0  0  0  0  0  0  0  0  0
   21.5378   -7.6820  -15.3529 C   0  0  0  0  0  0  0  0  0  0  0  0
   21.3583   -7.3558  -16.5521 O   0  0  0  0  0  0  0  0  0  0  0  0
   18.4387   -1.0575  -16.0826 C   0  0  0  0  0  0  0  0  0  0  0  0
   18.5402   -2.7980  -15.6581 S   0  0  0  0  0  0  0  0  0  0  0  0
   20.2154   -3.3248  -15.3241 C   0  0  0  0  0  0  0  0  0  0  0  0
   20.3818   -4.7699  -15.0529 C   0  0  0  0  0  0  0  0  0  0  0  0
   21.7681   -5.2139  -14.7761 C   0  0  2  0  0  0  0  0  0  0  0  0
   21.7203   -6.6637  -14.3961 N   0  0  0  0  0  0  0  0  0  0  0  0
   22.4077   -4.5224  -13.6662 C   0  0  0  0  0  0  0  0  0  0  0  0
   22.5065   -4.9385  -12.4814 O   0  0  0  0  0  0  0  0  0  0  0  0
   22.9913   -3.2474  -13.9038 O   0  0  0  0  0  0  0  0  0  0  0  0
  2  1  1  0
  3  2  2  0
  4  2  1  0
  5  4  1  0
  6  5  1  0
  6  7  1  1
  8  9  2  0
  8  6  1  0
 10 11  1  0
 12 11  1  6
 12 13  1  0
 13  8  1  0
 14 12  1  0
 15 14  2  0
 17 16  1  0
 18 17  1  0
 19 18  1  0
 20 19  1  1
 20 22  1  0
 20 21  1  0
 21 14  1  0
 22 24  1  0
 23 22  2  0
M  END
$$$$
