QSM.pdb
     RDKit          3D

 24 23  0  0  1  0  0  0  0  0999 V2000
   17.6487  -29.1607   -8.6878 N   0  0  0  0  0  0  0  0  0  0  0  0
   18.9376  -29.4257   -9.2780 C   0  0  0  0  0  0  0  0  0  0  0  0
   19.4568  -30.5033   -8.9466 O   0  0  0  0  0  0  0  0  0  0  0  0
   19.5534  -28.4636  -10.1935 C   0  0  0  0  0  0  0  0  0  0  0  0
   18.6642  -27.3232  -10.5603 C   0  0  0  0  0  0  0  0  0  0  0  0
   18.8071  -26.0831   -9.7487 C   0  0  2  0  0  0  0  0  0  0  0  0
   18.4072  -26.1377   -8.3910 N   0  0  0  0  0  0  0  0  0  0  0  0
   18.1455  -24.9181  -10.4010 C   0  0  0  0  0  0  0  0  0  0  0  0
   16.8722  -24.8679  -10.3208 O   0  0  0  0  0  0  0  0  0  0  0  0
   17.7683  -20.5410  -12.0120 O   0  0  0  0  0  0  0  0  0  0  0  0
   18.5347  -21.5258  -11.3990 C   0  0  0  0  0  0  0  0  0  0  0  0
   18.0679  -22.9156  -11.8018 C   0  0  2  0  0  0  0  0  0  0  0  0
   18.8238  -23.8893  -11.0875 N   0  0  0  0  0  0  0  0  0  0  0  0
   18.2598  -23.0091  -13.2818 C   0  0  0  0  0  0  0  0  0  0  0  0
   19.4134  -23.2237  -13.7285 O   0  0  0  0  0  0  0  0  0  0  0  0
   14.6321  -24.8120  -20.0871 C   0  0  0  0  0  0  0  0  0  0  0  0
   14.5513  -24.4853  -18.3246 S   0  0  0  0  0  0  0  0  0  0  0  0
   16.1062  -23.9007  -17.6644 C   0  0  0  0  0  0  0  0  0  0  0  0
   16.1014  -23.5866  -16.2185 C   0  0  0  0  0  0  0  0  0  0  0  0
   17.3808  -23.0797  -15.6692 C   0  0  2  0  0  0  0  0  0  0  0  0
   17.1973  -22.8660  -14.1963 N   0  0  0  0  0  0  0  0  0  0  0  0
   17.8018  -21.7986  -16.2176 C   0  0  0  0  0  0  0  0  0  0  0  0
   18.5426  -21.6202  -17.2207 O   0  0  0  0  0  0  0  0  0  0  0  0
   17.3521  -20.6065  -15.5857 O   0  0  0  0  0  0  0  0  0  0  0  0
  2  1  1  0
  3  2  2  0
  4  2  1  0
  5  4  1  0
  6  5  1  0
  6  7  1  1
  8  9  2  0
  8  6  1  0
 10 11  1  0
 12 11  1  1
 12 13  1  0
 13  8  1  0
 14 12  1  0
 15 14  2  0
 17 16  1  0
 18 17  1  0
 19 18  1  0
 20 19  1  6
 20 22  1  0
 20 21  1  0
 21 14  1  0
 22 24  1  0
 23 22  2  0
M  END
$$$$
