QSM.pdb
     RDKit          3D

 24 23  0  0  1  0  0  0  0  0999 V2000
   22.0670  -34.5711   -8.7661 N   0  0  0  0  0  0  0  0  0  0  0  0
   22.1776  -35.5456   -7.7088 C   0  0  0  0  0  0  0  0  0  0  0  0
   21.3329  -35.4405   -6.8055 O   0  0  0  0  0  0  0  0  0  0  0  0
   23.2280  -36.5649   -7.7375 C   0  0  0  0  0  0  0  0  0  0  0  0
   24.2869  -36.3715   -6.7046 C   0  0  0  0  0  0  0  0  0  0  0  0
   25.5015  -35.6237   -7.1319 C   0  0  2  0  0  0  0  0  0  0  0  0
   26.3140  -36.2092   -8.1335 N   0  0  0  0  0  0  0  0  0  0  0  0
   26.3579  -35.2533   -5.9701 C   0  0  0  0  0  0  0  0  0  0  0  0
   27.4954  -35.8282   -5.8949 O   0  0  0  0  0  0  0  0  0  0  0  0
   25.1661  -32.6255   -3.0967 O   0  0  0  0  0  0  0  0  0  0  0  0
   26.5411  -32.7009   -3.2876 C   0  0  0  0  0  0  0  0  0  0  0  0
   26.9339  -34.0163   -3.9413 C   0  0  2  0  0  0  0  0  0  0  0  0
   25.9977  -34.3269   -4.9691 N   0  0  0  0  0  0  0  0  0  0  0  0
   26.9511  -35.0377   -2.8494 C   0  0  0  0  0  0  0  0  0  0  0  0
   25.9672  -35.8083   -2.7282 O   0  0  0  0  0  0  0  0  0  0  0  0
   31.1119  -37.8548    3.3574 C   0  0  0  0  0  0  0  0  0  0  0  0
   31.0890  -37.1480    1.7083 S   0  0  0  0  0  0  0  0  0  0  0  0
   29.4317  -36.9692    1.0629 C   0  0  0  0  0  0  0  0  0  0  0  0
   29.3214  -36.1894   -0.1899 C   0  0  0  0  0  0  0  0  0  0  0  0
   27.9542  -36.0626   -0.7468 C   0  0  2  0  0  0  0  0  0  0  0  0
   28.0278  -35.1707   -1.9501 N   0  0  0  0  0  0  0  0  0  0  0  0
   26.9939  -35.4477    0.1582 C   0  0  0  0  0  0  0  0  0  0  0  0
   26.3314  -36.0313    1.0567 O   0  0  0  0  0  0  0  0  0  0  0  0
   26.7526  -34.0504    0.0483 O   0  0  0  0  0  0  0  0  0  0  0  0
  2  1  1  0
  3  2  2  0
  4  2  1  0
  5  4  1  0
  6  5  1  0
  6  7  1  6
  8  9  2  0
  8  6  1  0
 10 11  1  0
 12 11  1  1
 12 13  1  0
 13  8  1  0
 14 12  1  0
 15 14  2  0
 17 16  1  0
 18 17  1  0
 19 18  1  0
 20 19  1  1
 20 22  1  0
 20 21  1  0
 21 14  1  0
 22 24  1  0
 23 22  2  0
M  END
$$$$
