QSM.pdb
     RDKit          3D

 24 23  0  0  1  0  0  0  0  0999 V2000
   12.3549  -15.5173  -16.1780 N   0  0  0  0  0  0  0  0  0  0  0  0
   13.2829  -14.7788  -15.3576 C   0  0  0  0  0  0  0  0  0  0  0  0
   12.8088  -14.3257  -14.3038 O   0  0  0  0  0  0  0  0  0  0  0  0
   14.6735  -14.5981  -15.7778 C   0  0  0  0  0  0  0  0  0  0  0  0
   15.4797  -13.7501  -14.8524 C   0  0  0  0  0  0  0  0  0  0  0  0
   16.9071  -13.5390  -15.2200 C   0  0  2  0  0  0  0  0  0  0  0  0
   17.7931  -14.6333  -15.0661 N   0  0  0  0  0  0  0  0  0  0  0  0
   17.4835  -12.3497  -14.5318 C   0  0  0  0  0  0  0  0  0  0  0  0
   17.9453  -12.5400  -13.3568 O   0  0  0  0  0  0  0  0  0  0  0  0
   18.0158   -8.5883  -16.2604 O   0  0  0  0  0  0  0  0  0  0  0  0
   18.8543   -9.0450  -15.2499 C   0  0  0  0  0  0  0  0  0  0  0  0
   18.1236   -9.9996  -14.3189 C   0  0  2  0  0  0  0  0  0  0  0  0
   17.5490  -11.0540  -15.0855 N   0  0  0  0  0  0  0  0  0  0  0  0
   17.0967   -9.1820  -13.6028 C   0  0  0  0  0  0  0  0  0  0  0  0
   15.9160   -9.1866  -14.0301 O   0  0  0  0  0  0  0  0  0  0  0  0
   14.2456   -6.1960   -6.9689 C   0  0  0  0  0  0  0  0  0  0  0  0
   15.3561   -7.2901   -7.8574 S   0  0  0  0  0  0  0  0  0  0  0  0
   15.4777   -6.8804   -9.5931 C   0  0  0  0  0  0  0  0  0  0  0  0
   16.3484   -7.7696  -10.3934 C   0  0  0  0  0  0  0  0  0  0  0  0
   16.3993   -7.4783  -11.8454 C   0  0  2  0  0  0  0  0  0  0  0  0
   17.4005   -8.4058  -12.4666 N   0  0  0  0  0  0  0  0  0  0  0  0
   16.8376   -6.1286  -12.1700 C   0  0  0  0  0  0  0  0  0  0  0  0
   18.0004   -5.7788  -12.5049 O   0  0  0  0  0  0  0  0  0  0  0  0
   15.8869   -5.0722  -12.1155 O   0  0  0  0  0  0  0  0  0  0  0  0
  2  1  1  0
  3  2  2  0
  4  2  1  0
  5  4  1  0
  6  5  1  0
  6  7  1  1
  8  9  2  0
  8  6  1  0
 10 11  1  0
 12 11  1  6
 12 13  1  0
 13  8  1  0
 14 12  1  0
 15 14  2  0
 17 16  1  0
 18 17  1  0
 19 18  1  0
 20 19  1  1
 20 22  1  0
 20 21  1  0
 21 14  1  0
 22 24  1  0
 23 22  2  0
M  END
$$$$
