QSM.pdb
     RDKit          3D

 24 23  0  0  1  0  0  0  0  0999 V2000
   21.2755  -29.7124  -12.7609 N   0  0  0  0  0  0  0  0  0  0  0  0
   19.8841  -29.8867  -13.0979 C   0  0  0  0  0  0  0  0  0  0  0  0
   19.6695  -30.5726  -14.1098 O   0  0  0  0  0  0  0  0  0  0  0  0
   18.8341  -29.2775  -12.2797 C   0  0  0  0  0  0  0  0  0  0  0  0
   19.3484  -28.5147  -11.1054 C   0  0  0  0  0  0  0  0  0  0  0  0
   19.4263  -27.0356  -11.2577 C   0  0  2  0  0  0  0  0  0  0  0  0
   20.5001  -26.5098  -12.0172 N   0  0  0  0  0  0  0  0  0  0  0  0
   19.3818  -26.3425   -9.9394 C   0  0  0  0  0  0  0  0  0  0  0  0
   20.3567  -26.5653   -9.1456 O   0  0  0  0  0  0  0  0  0  0  0  0
   16.6290  -23.4611   -9.0043 O   0  0  0  0  0  0  0  0  0  0  0  0
   17.8570  -23.4360   -8.3529 C   0  0  0  0  0  0  0  0  0  0  0  0
   18.4563  -24.8300   -8.2560 C   0  0  2  0  0  0  0  0  0  0  0  0
   18.3512  -25.4744   -9.5222 N   0  0  0  0  0  0  0  0  0  0  0  0
   17.6941  -25.5398   -7.1830 C   0  0  0  0  0  0  0  0  0  0  0  0
   16.6496  -26.1624   -7.4957 O   0  0  0  0  0  0  0  0  0  0  0  0
   17.9265  -28.6685    0.0642 C   0  0  0  0  0  0  0  0  0  0  0  0
   18.6748  -27.5790   -1.1494 S   0  0  0  0  0  0  0  0  0  0  0  0
   17.6590  -27.3762   -2.6061 C   0  0  0  0  0  0  0  0  0  0  0  0
   18.1252  -26.3497   -3.5645 C   0  0  0  0  0  0  0  0  0  0  0  0
   17.2590  -26.1382   -4.7480 C   0  0  2  0  0  0  0  0  0  0  0  0
   18.1011  -25.5381   -5.8339 N   0  0  0  0  0  0  0  0  0  0  0  0
   16.1585  -25.2114   -4.5262 C   0  0  0  0  0  0  0  0  0  0  0  0
   14.9778  -25.5129   -4.2072 O   0  0  0  0  0  0  0  0  0  0  0  0
   16.4015  -23.8179   -4.6745 O   0  0  0  0  0  0  0  0  0  0  0  0
  2  1  1  0
  3  2  2  0
  4  2  1  0
  5  4  1  0
  6  5  1  0
  6  7  1  1
  8  9  2  0
  8  6  1  0
 10 11  1  0
 12 11  1  6
 12 13  1  0
 13  8  1  0
 14 12  1  0
 15 14  2  0
 17 16  1  0
 18 17  1  0
 19 18  1  0
 20 19  1  1
 20 22  1  0
 20 21  1  0
 21 14  1  0
 22 24  1  0
 23 22  2  0
M  END
$$$$
