VNE.pdb
     RDKit          3D

 25 24  0  0  1  0  0  0  0  0999 V2000
    6.7436  -12.8871   21.4361 C   0  0  0  0  0  0  0  0  0  0  0  0
    8.1894  -13.2892   21.1228 C   0  0  2  0  0  0  0  0  0  0  0  0
    8.5137  -12.6839   19.7785 C   0  0  0  0  0  0  0  0  0  0  0  0
    8.2154  -14.8045   20.9585 C   0  0  2  0  0  0  0  0  0  0  0  0
    7.2777  -15.1643   19.9125 N   0  0  0  0  0  0  0  0  0  0  0  0
    7.8033  -15.4792   22.2094 C   0  0  0  0  0  0  0  0  0  0  0  0
    7.0203  -14.8879   22.9900 O   0  0  0  0  0  0  0  0  0  0  0  0
    5.3726  -17.4963   22.3672 N   0  0  0  0  0  0  0  0  0  0  0  0
    6.0010  -18.7247   22.8297 C   0  0  0  0  0  0  0  0  0  0  0  0
    5.3575  -19.7455   22.5456 O   0  0  0  0  0  0  0  0  0  0  0  0
    7.2606  -18.6893   23.5492 C   0  0  0  0  0  0  0  0  0  0  0  0
    7.8437  -17.3543   23.9180 C   0  0  2  0  0  0  0  0  0  0  0  0
    8.2333  -16.7674   22.6021 N   0  0  0  0  0  0  0  0  0  0  0  0
    9.0125  -17.3698   24.7905 C   0  0  0  0  0  0  0  0  0  0  0  0
   10.1797  -17.0476   24.3037 O   0  0  0  0  0  0  0  0  0  0  0  0
    9.0590  -17.6934   26.1537 N   0  0  0  0  0  0  0  0  0  0  0  0
   10.2912  -17.5970   26.9599 C   0  0  1  0  0  0  0  0  0  0  0  0
   10.5904  -16.1866   27.2943 C   0  0  0  0  0  0  0  0  0  0  0  0
    9.4791  -15.5463   28.0718 C   0  0  0  0  0  0  0  0  0  0  0  0
    9.8511  -14.1268   28.4450 C   0  0  0  0  0  0  0  0  0  0  0  0
   10.9809  -13.8769   28.8966 O   0  0  0  0  0  0  0  0  0  0  0  0
   10.1022  -18.4170   28.1653 C   0  0  0  0  0  0  0  0  0  0  0  0
   10.9833  -18.5792   29.0322 O   0  0  0  0  0  0  0  0  0  0  0  0
    8.9169  -13.1275   28.2739 O   0  0  0  0  0  0  0  0  0  0  0  0
    8.8777  -19.0607   28.3756 O   0  0  0  0  0  0  0  0  0  0  0  0
  2  1  1  6
  3  2  1  0
  4  2  1  0
  4  6  1  0
  4  5  1  6
  6  7  2  0
  9  8  1  0
 10  9  2  0
 12 11  1  6
 11  9  1  0
 12 14  1  0
 13  6  1  0
 13 12  1  0
 14 15  2  0
 16 17  1  0
 16 14  1  0
 17 22  1  0
 17 18  1  1
 19 18  1  0
 20 19  1  0
 21 20  2  0
 22 23  2  0
 22 25  1  0
 24 20  1  0
M  END
$$$$
