VNE.pdb
     RDKit          3D

 25 24  0  0  1  0  0  0  0  0999 V2000
    8.1186  -12.1000   25.6368 C   0  0  0  0  0  0  0  0  0  0  0  0
    6.5951  -12.1731   25.4820 C   0  0  2  0  0  0  0  0  0  0  0  0
    6.0141  -11.6138   26.7580 C   0  0  0  0  0  0  0  0  0  0  0  0
    6.2142  -13.6476   25.4157 C   0  0  2  0  0  0  0  0  0  0  0  0
    6.6264  -14.2796   26.6542 N   0  0  0  0  0  0  0  0  0  0  0  0
    6.9039  -14.3221   24.2936 C   0  0  0  0  0  0  0  0  0  0  0  0
    6.6479  -13.9648   23.1193 O   0  0  0  0  0  0  0  0  0  0  0  0
    9.0723  -16.4223   20.2639 N   0  0  0  0  0  0  0  0  0  0  0  0
    8.1302  -15.4611   20.8173 C   0  0  0  0  0  0  0  0  0  0  0  0
    7.2267  -15.1458   20.0293 O   0  0  0  0  0  0  0  0  0  0  0  0
    8.2897  -14.9587   22.1692 C   0  0  0  0  0  0  0  0  0  0  0  0
    8.5739  -15.9371   23.2738 C   0  0  2  0  0  0  0  0  0  0  0  0
    7.8502  -15.3614   24.4455 N   0  0  0  0  0  0  0  0  0  0  0  0
    9.9745  -16.1282   23.6338 C   0  0  0  0  0  0  0  0  0  0  0  0
   10.7643  -15.0918   23.7071 O   0  0  0  0  0  0  0  0  0  0  0  0
   10.6244  -17.3333   23.9346 N   0  0  0  0  0  0  0  0  0  0  0  0
   11.4182  -17.5323   25.1625 C   0  0  1  0  0  0  0  0  0  0  0  0
   10.5945  -18.1503   26.2255 C   0  0  0  0  0  0  0  0  0  0  0  0
   11.3884  -18.4100   27.4711 C   0  0  0  0  0  0  0  0  0  0  0  0
   10.5278  -19.1040   28.5057 C   0  0  0  0  0  0  0  0  0  0  0  0
    9.3707  -19.4542   28.2203 O   0  0  0  0  0  0  0  0  0  0  0  0
   12.5783  -18.3657   24.8148 C   0  0  0  0  0  0  0  0  0  0  0  0
   12.6187  -19.1043   23.8113 O   0  0  0  0  0  0  0  0  0  0  0  0
   11.0521  -19.3363   29.7594 O   0  0  0  0  0  0  0  0  0  0  0  0
   13.7107  -18.3477   25.6366 O   0  0  0  0  0  0  0  0  0  0  0  0
  2  1  1  1
  3  2  1  0
  4  2  1  0
  4  6  1  0
  4  5  1  1
  6  7  2  0
  9  8  1  0
 10  9  2  0
 12 11  1  6
 11  9  1  0
 12 14  1  0
 13  6  1  0
 13 12  1  0
 14 15  2  0
 16 17  1  0
 16 14  1  0
 17 22  1  0
 17 18  1  1
 19 18  1  0
 20 19  1  0
 21 20  2  0
 22 23  2  0
 22 25  1  0
 24 20  1  0
M  END
$$$$
