VNE.pdb
     RDKit          3D

 25 24  0  0  1  0  0  0  0  0999 V2000
    9.1723  -12.1248   18.6573 C   0  0  0  0  0  0  0  0  0  0  0  0
    8.1575  -13.2587   18.8441 C   0  0  2  0  0  0  0  0  0  0  0  0
    6.9463  -12.6374   19.4968 C   0  0  0  0  0  0  0  0  0  0  0  0
    8.7556  -14.2459   19.8398 C   0  0  2  0  0  0  0  0  0  0  0  0
    8.8851  -13.5777   21.1204 N   0  0  0  0  0  0  0  0  0  0  0  0
   10.0990  -14.6878   19.4042 C   0  0  0  0  0  0  0  0  0  0  0  0
   10.1930  -15.6358   18.5890 O   0  0  0  0  0  0  0  0  0  0  0  0
   15.2951  -15.4742   18.6691 N   0  0  0  0  0  0  0  0  0  0  0  0
   14.6261  -14.2943   18.1419 C   0  0  0  0  0  0  0  0  0  0  0  0
   15.2879  -13.6945   17.2823 O   0  0  0  0  0  0  0  0  0  0  0  0
   13.3105  -13.9110   18.6191 C   0  0  0  0  0  0  0  0  0  0  0  0
   12.6244  -14.7892   19.6272 C   0  0  2  0  0  0  0  0  0  0  0  0
   11.3123  -14.1117   19.8455 N   0  0  0  0  0  0  0  0  0  0  0  0
   13.2904  -14.9504   20.9149 C   0  0  0  0  0  0  0  0  0  0  0  0
   13.7222  -13.8949   21.5494 O   0  0  0  0  0  0  0  0  0  0  0  0
   13.5392  -16.1441   21.6065 N   0  0  0  0  0  0  0  0  0  0  0  0
   13.9066  -16.1822   23.0352 C   0  0  1  0  0  0  0  0  0  0  0  0
   13.1794  -17.2646   23.7352 C   0  0  0  0  0  0  0  0  0  0  0  0
   13.5261  -17.3218   25.1933 C   0  0  0  0  0  0  0  0  0  0  0  0
   12.7804  -18.4557   25.8649 C   0  0  0  0  0  0  0  0  0  0  0  0
   12.9546  -18.6869   27.0728 O   0  0  0  0  0  0  0  0  0  0  0  0
   15.3636  -16.3593   23.1177 C   0  0  0  0  0  0  0  0  0  0  0  0
   16.0167  -16.2077   24.1687 O   0  0  0  0  0  0  0  0  0  0  0  0
   11.9122  -19.2183   25.1131 O   0  0  0  0  0  0  0  0  0  0  0  0
   16.0802  -16.7173   21.9703 O   0  0  0  0  0  0  0  0  0  0  0  0
  2  1  1  1
  3  2  1  0
  4  2  1  0
  4  6  1  0
  4  5  1  1
  6  7  2  0
  9  8  1  0
 10  9  2  0
 12 11  1  6
 11  9  1  0
 12 14  1  0
 13  6  1  0
 13 12  1  0
 14 15  2  0
 16 17  1  0
 16 14  1  0
 17 22  1  0
 17 18  1  1
 19 18  1  0
 20 19  1  0
 21 20  2  0
 22 23  2  0
 22 25  1  0
 24 20  1  0
M  END
$$$$
