VNE.pdb
     RDKit          3D

 25 24  0  0  1  0  0  0  0  0999 V2000
    7.8843  -13.0437   26.9315 C   0  0  0  0  0  0  0  0  0  0  0  0
    7.2947  -12.4005   25.6710 C   0  0  2  0  0  0  0  0  0  0  0  0
    6.5069  -11.2008   26.1387 C   0  0  0  0  0  0  0  0  0  0  0  0
    6.3030  -13.3927   25.0746 C   0  0  2  0  0  0  0  0  0  0  0  0
    5.4250  -13.8503   26.1342 N   0  0  0  0  0  0  0  0  0  0  0  0
    7.0046  -14.5661   24.5082 C   0  0  0  0  0  0  0  0  0  0  0  0
    7.1516  -15.5884   25.2190 O   0  0  0  0  0  0  0  0  0  0  0  0
    9.7193  -17.7308   21.0358 N   0  0  0  0  0  0  0  0  0  0  0  0
    9.0337  -16.6067   20.4160 C   0  0  0  0  0  0  0  0  0  0  0  0
    9.1188  -16.5978   19.1793 O   0  0  0  0  0  0  0  0  0  0  0  0
    8.3357  -15.6250   21.2249 C   0  0  0  0  0  0  0  0  0  0  0  0
    8.2894  -15.8186   22.7144 C   0  0  2  0  0  0  0  0  0  0  0  0
    7.5342  -14.6256   23.1987 N   0  0  0  0  0  0  0  0  0  0  0  0
    9.5721  -15.8759   23.4066 C   0  0  0  0  0  0  0  0  0  0  0  0
   10.3452  -14.8245   23.4110 O   0  0  0  0  0  0  0  0  0  0  0  0
   10.1172  -16.9583   24.1111 N   0  0  0  0  0  0  0  0  0  0  0  0
   11.4189  -16.8920   24.8028 C   0  0  1  0  0  0  0  0  0  0  0  0
   11.2808  -17.2939   26.2205 C   0  0  0  0  0  0  0  0  0  0  0  0
   10.7329  -18.6832   26.3591 C   0  0  0  0  0  0  0  0  0  0  0  0
   10.7170  -19.0971   27.8155 C   0  0  0  0  0  0  0  0  0  0  0  0
    9.7427  -18.8156   28.5327 O   0  0  0  0  0  0  0  0  0  0  0  0
   12.3561  -17.7610   24.0763 C   0  0  0  0  0  0  0  0  0  0  0  0
   12.0151  -18.5094   23.1393 O   0  0  0  0  0  0  0  0  0  0  0  0
   11.7975  -19.7869   28.3228 O   0  0  0  0  0  0  0  0  0  0  0  0
   13.7086  -17.7677   24.4349 O   0  0  0  0  0  0  0  0  0  0  0  0
  2  1  1  1
  3  2  1  0
  4  2  1  0
  4  6  1  0
  4  5  1  1
  6  7  2  0
  9  8  1  0
 10  9  2  0
 12 11  1  6
 11  9  1  0
 12 14  1  0
 13  6  1  0
 13 12  1  0
 14 15  2  0
 16 17  1  0
 16 14  1  0
 17 22  1  0
 17 18  1  1
 19 18  1  0
 20 19  1  0
 21 20  2  0
 22 23  2  0
 22 25  1  0
 24 20  1  0
M  END
$$$$
