VNE.pdb
     RDKit          3D

 25 24  0  0  1  0  0  0  0  0999 V2000
    8.0019  -12.2801   20.7486 C   0  0  0  0  0  0  0  0  0  0  0  0
    7.8881  -13.5012   19.8286 C   0  0  2  0  0  0  0  0  0  0  0  0
    6.5921  -14.1842   20.1927 C   0  0  0  0  0  0  0  0  0  0  0  0
    9.0223  -14.4525   20.1920 C   0  0  2  0  0  0  0  0  0  0  0  0
    9.1100  -15.4697   19.1621 N   0  0  0  0  0  0  0  0  0  0  0  0
    8.7595  -15.1187   21.4870 C   0  0  0  0  0  0  0  0  0  0  0  0
    8.5908  -14.4141   22.5103 O   0  0  0  0  0  0  0  0  0  0  0  0
    5.5112  -17.5616   22.4151 N   0  0  0  0  0  0  0  0  0  0  0  0
    6.4360  -18.6836   22.3560 C   0  0  0  0  0  0  0  0  0  0  0  0
    5.8915  -19.7569   22.0589 O   0  0  0  0  0  0  0  0  0  0  0  0
    7.8488  -18.4968   22.6296 C   0  0  0  0  0  0  0  0  0  0  0  0
    8.3391  -17.1218   22.9863 C   0  0  2  0  0  0  0  0  0  0  0  0
    8.6821  -16.5191   21.6645 N   0  0  0  0  0  0  0  0  0  0  0  0
    9.5094  -17.0496   23.8539 C   0  0  0  0  0  0  0  0  0  0  0  0
   10.7019  -17.0653   23.3238 O   0  0  0  0  0  0  0  0  0  0  0  0
    9.5339  -16.9540   25.2523 N   0  0  0  0  0  0  0  0  0  0  0  0
   10.7858  -16.8822   26.0300 C   0  0  1  0  0  0  0  0  0  0  0  0
   10.9124  -15.5689   26.7006 C   0  0  0  0  0  0  0  0  0  0  0  0
    9.7063  -15.2443   27.5310 C   0  0  0  0  0  0  0  0  0  0  0  0
    9.8965  -13.9171   28.2345 C   0  0  0  0  0  0  0  0  0  0  0  0
   11.0343  -13.5448   28.5659 O   0  0  0  0  0  0  0  0  0  0  0  0
   10.7768  -17.9910   26.9952 C   0  0  0  0  0  0  0  0  0  0  0  0
    9.7835  -18.7157   27.2013 O   0  0  0  0  0  0  0  0  0  0  0  0
    8.7894  -13.1385   28.4965 O   0  0  0  0  0  0  0  0  0  0  0  0
   11.9313  -18.2699   27.7351 O   0  0  0  0  0  0  0  0  0  0  0  0
  2  1  1  1
  3  2  1  0
  4  2  1  0
  4  6  1  0
  4  5  1  6
  6  7  2  0
  9  8  1  0
 10  9  2  0
 12 11  1  6
 11  9  1  0
 12 14  1  0
 13  6  1  0
 13 12  1  0
 14 15  2  0
 16 17  1  0
 16 14  1  0
 17 22  1  0
 17 18  1  1
 19 18  1  0
 20 19  1  0
 21 20  2  0
 22 23  2  0
 22 25  1  0
 24 20  1  0
M  END
$$$$
