VNE.pdb
     RDKit          3D

 25 24  0  0  1  0  0  0  0  0999 V2000
    8.7873  -12.5428   20.4059 C   0  0  0  0  0  0  0  0  0  0  0  0
    8.9391  -13.5497   19.2599 C   0  0  2  0  0  0  0  0  0  0  0  0
    8.4387  -12.8533   18.0176 C   0  0  0  0  0  0  0  0  0  0  0  0
    7.9924  -14.7100   19.5446 C   0  0  2  0  0  0  0  0  0  0  0  0
    6.6524  -14.1767   19.6955 N   0  0  0  0  0  0  0  0  0  0  0  0
    8.3653  -15.4013   20.7987 C   0  0  0  0  0  0  0  0  0  0  0  0
    7.9966  -14.9152   21.8941 O   0  0  0  0  0  0  0  0  0  0  0  0
    6.5953  -19.0617   21.1990 N   0  0  0  0  0  0  0  0  0  0  0  0
    7.4165  -18.5699   22.2951 C   0  0  0  0  0  0  0  0  0  0  0  0
    6.7584  -18.2146   23.2838 O   0  0  0  0  0  0  0  0  0  0  0  0
    8.8621  -18.5254   22.1782 C   0  0  0  0  0  0  0  0  0  0  0  0
    9.5440  -17.1863   22.1632 C   0  0  2  0  0  0  0  0  0  0  0  0
    9.1222  -16.5938   20.8597 N   0  0  0  0  0  0  0  0  0  0  0  0
   11.0012  -17.1938   22.2268 C   0  0  0  0  0  0  0  0  0  0  0  0
   11.6883  -17.4535   21.1481 O   0  0  0  0  0  0  0  0  0  0  0  0
   11.8107  -16.9410   23.3431 N   0  0  0  0  0  0  0  0  0  0  0  0
   13.2842  -17.0049   23.2968 C   0  0  1  0  0  0  0  0  0  0  0  0
   13.8455  -15.7611   22.7238 C   0  0  0  0  0  0  0  0  0  0  0  0
   14.1751  -15.9125   21.2685 C   0  0  0  0  0  0  0  0  0  0  0  0
   15.1636  -14.8479   20.8417 C   0  0  0  0  0  0  0  0  0  0  0  0
   15.7169  -14.1336   21.6941 O   0  0  0  0  0  0  0  0  0  0  0  0
   13.7647  -17.2424   24.6657 C   0  0  0  0  0  0  0  0  0  0  0  0
   13.0255  -17.2128   25.6692 O   0  0  0  0  0  0  0  0  0  0  0  0
   15.4332  -14.6906   19.4989 O   0  0  0  0  0  0  0  0  0  0  0  0
   15.1192  -17.5190   24.8822 O   0  0  0  0  0  0  0  0  0  0  0  0
  2  1  1  1
  3  2  1  0
  4  2  1  0
  4  6  1  0
  4  5  1  1
  6  7  2  0
  9  8  1  0
 10  9  2  0
 12 11  1  6
 11  9  1  0
 12 14  1  0
 13  6  1  0
 13 12  1  0
 14 15  2  0
 16 17  1  0
 16 14  1  0
 17 22  1  0
 17 18  1  1
 19 18  1  0
 20 19  1  0
 21 20  2  0
 22 23  2  0
 22 25  1  0
 24 20  1  0
M  END
$$$$
