VNE.pdb
     RDKit          3D

 25 24  0  0  1  0  0  0  0  0999 V2000
    6.9028  -13.4547   19.6442 C   0  0  0  0  0  0  0  0  0  0  0  0
    8.2298  -12.7168   19.8553 C   0  0  2  0  0  0  0  0  0  0  0  0
    8.5048  -11.9684   18.5735 C   0  0  0  0  0  0  0  0  0  0  0  0
    9.3186  -13.7724   20.0092 C   0  0  2  0  0  0  0  0  0  0  0  0
    9.2785  -14.6395   18.8475 N   0  0  0  0  0  0  0  0  0  0  0  0
    9.0894  -14.5964   21.2168 C   0  0  0  0  0  0  0  0  0  0  0  0
    9.0068  -14.0306   22.3327 O   0  0  0  0  0  0  0  0  0  0  0  0
    6.1644  -15.7778   21.6592 N   0  0  0  0  0  0  0  0  0  0  0  0
    6.4004  -17.2130   21.7064 C   0  0  0  0  0  0  0  0  0  0  0  0
    5.4262  -17.8857   21.3386 O   0  0  0  0  0  0  0  0  0  0  0  0
    7.6763  -17.7417   22.1515 C   0  0  0  0  0  0  0  0  0  0  0  0
    8.7833  -16.7782   22.4751 C   0  0  2  0  0  0  0  0  0  0  0  0
    8.9533  -16.0036   21.2105 N   0  0  0  0  0  0  0  0  0  0  0  0
   10.0683  -17.3596   22.8468 C   0  0  0  0  0  0  0  0  0  0  0  0
   10.5426  -18.3603   22.1562 O   0  0  0  0  0  0  0  0  0  0  0  0
   10.9139  -16.9688   23.8945 N   0  0  0  0  0  0  0  0  0  0  0  0
   12.1368  -17.7102   24.2579 C   0  0  1  0  0  0  0  0  0  0  0  0
   13.3391  -16.8719   24.0525 C   0  0  0  0  0  0  0  0  0  0  0  0
   13.4459  -16.3805   22.6395 C   0  0  0  0  0  0  0  0  0  0  0  0
   14.7384  -15.6157   22.4471 C   0  0  0  0  0  0  0  0  0  0  0  0
   15.0909  -15.2640   21.3091 O   0  0  0  0  0  0  0  0  0  0  0  0
   12.0008  -18.1385   25.6576 C   0  0  0  0  0  0  0  0  0  0  0  0
   11.0323  -17.8312   26.3801 O   0  0  0  0  0  0  0  0  0  0  0  0
   15.5079  -15.3211   23.5524 O   0  0  0  0  0  0  0  0  0  0  0  0
   12.9968  -18.9342   26.2345 O   0  0  0  0  0  0  0  0  0  0  0  0
  2  1  1  6
  3  2  1  0
  4  2  1  0
  4  6  1  0
  4  5  1  6
  6  7  2  0
  9  8  1  0
 10  9  2  0
 12 11  1  6
 11  9  1  0
 12 14  1  0
 13  6  1  0
 13 12  1  0
 14 15  2  0
 16 17  1  0
 16 14  1  0
 17 22  1  0
 17 18  1  1
 19 18  1  0
 20 19  1  0
 21 20  2  0
 22 23  2  0
 22 25  1  0
 24 20  1  0
M  END
$$$$
