VNE.pdb
     RDKit          3D

 25 24  0  0  1  0  0  0  0  0999 V2000
    8.4649  -13.7638   20.9528 C   0  0  0  0  0  0  0  0  0  0  0  0
    8.7343  -12.8957   19.7183 C   0  0  2  0  0  0  0  0  0  0  0  0
    7.4339  -12.1972   19.4019 C   0  0  0  0  0  0  0  0  0  0  0  0
    9.0405  -13.8359   18.5582 C   0  0  2  0  0  0  0  0  0  0  0  0
    7.9540  -14.7899   18.4474 N   0  0  0  0  0  0  0  0  0  0  0  0
   10.2958  -14.5817   18.7992 C   0  0  0  0  0  0  0  0  0  0  0  0
   10.2330  -15.7438   19.2657 O   0  0  0  0  0  0  0  0  0  0  0  0
   16.2676  -13.9162   17.6711 N   0  0  0  0  0  0  0  0  0  0  0  0
   15.1652  -14.8518   17.8364 C   0  0  0  0  0  0  0  0  0  0  0  0
   15.5337  -16.0190   18.0326 O   0  0  0  0  0  0  0  0  0  0  0  0
   13.7889  -14.3975   17.7669 C   0  0  0  0  0  0  0  0  0  0  0  0
   12.8146  -14.8859   18.8016 C   0  0  2  0  0  0  0  0  0  0  0  0
   11.5896  -14.0747   18.5387 N   0  0  0  0  0  0  0  0  0  0  0  0
   13.2020  -14.7138   20.1973 C   0  0  0  0  0  0  0  0  0  0  0  0
   13.3218  -13.5092   20.6851 O   0  0  0  0  0  0  0  0  0  0  0  0
   13.4719  -15.7151   21.1406 N   0  0  0  0  0  0  0  0  0  0  0  0
   13.9750  -15.4251   22.4971 C   0  0  1  0  0  0  0  0  0  0  0  0
   12.9745  -15.8037   23.5199 C   0  0  0  0  0  0  0  0  0  0  0  0
   12.7628  -17.2875   23.5755 C   0  0  0  0  0  0  0  0  0  0  0  0
   11.8797  -17.6468   24.7517 C   0  0  0  0  0  0  0  0  0  0  0  0
   10.7093  -17.2336   24.8015 O   0  0  0  0  0  0  0  0  0  0  0  0
   15.2389  -16.1557   22.6709 C   0  0  0  0  0  0  0  0  0  0  0  0
   15.6426  -17.0300   21.8791 O   0  0  0  0  0  0  0  0  0  0  0  0
   12.3984  -18.4355   25.7565 O   0  0  0  0  0  0  0  0  0  0  0  0
   16.0512  -15.8742   23.7749 O   0  0  0  0  0  0  0  0  0  0  0  0
  2  1  1  1
  3  2  1  0
  4  2  1  0
  4  6  1  0
  4  5  1  1
  6  7  2  0
  9  8  1  0
 10  9  2  0
 12 11  1  6
 11  9  1  0
 12 14  1  0
 13  6  1  0
 13 12  1  0
 14 15  2  0
 16 17  1  0
 16 14  1  0
 17 22  1  0
 17 18  1  1
 19 18  1  0
 20 19  1  0
 21 20  2  0
 22 23  2  0
 22 25  1  0
 24 20  1  0
M  END
$$$$
