VNE.pdb
     RDKit          3D

 25 24  0  0  1  0  0  0  0  0999 V2000
   11.0189  -19.6787   18.9924 C   0  0  0  0  0  0  0  0  0  0  0  0
    9.6090  -19.3513   18.4871 C   0  0  2  0  0  0  0  0  0  0  0  0
    9.2808  -20.3952   17.4472 C   0  0  0  0  0  0  0  0  0  0  0  0
    9.6815  -18.0055   17.7748 C   0  0  2  0  0  0  0  0  0  0  0  0
   10.7827  -18.0489   16.8322 N   0  0  0  0  0  0  0  0  0  0  0  0
    9.9321  -16.9103   18.7379 C   0  0  0  0  0  0  0  0  0  0  0  0
   11.1091  -16.5185   18.9207 O   0  0  0  0  0  0  0  0  0  0  0  0
    7.6958  -12.0806   19.3374 N   0  0  0  0  0  0  0  0  0  0  0  0
    7.6229  -13.5333   19.2910 C   0  0  0  0  0  0  0  0  0  0  0  0
    7.2422  -13.9736   18.1965 O   0  0  0  0  0  0  0  0  0  0  0  0
    7.9759  -14.3321   20.4499 C   0  0  0  0  0  0  0  0  0  0  0  0
    9.2467  -15.1334   20.4141 C   0  0  2  0  0  0  0  0  0  0  0  0
    8.9256  -16.2567   19.4850 N   0  0  0  0  0  0  0  0  0  0  0  0
    9.7054  -15.6888   21.6824 C   0  0  0  0  0  0  0  0  0  0  0  0
    8.8779  -16.3835   22.4144 O   0  0  0  0  0  0  0  0  0  0  0  0
   10.9813  -15.5804   22.2529 N   0  0  0  0  0  0  0  0  0  0  0  0
   11.5123  -16.5573   23.2231 C   0  0  1  0  0  0  0  0  0  0  0  0
   11.4357  -17.9316   22.6791 C   0  0  0  0  0  0  0  0  0  0  0  0
   11.9545  -18.9494   23.6508 C   0  0  0  0  0  0  0  0  0  0  0  0
   11.8321  -20.3411   23.0670 C   0  0  0  0  0  0  0  0  0  0  0  0
   12.8525  -21.0037   22.8163 O   0  0  0  0  0  0  0  0  0  0  0  0
   12.8950  -16.1692   23.5373 C   0  0  0  0  0  0  0  0  0  0  0  0
   13.5483  -15.3469   22.8655 O   0  0  0  0  0  0  0  0  0  0  0  0
   10.5751  -20.8516   22.8223 O   0  0  0  0  0  0  0  0  0  0  0  0
   13.5355  -16.7376   24.6439 O   0  0  0  0  0  0  0  0  0  0  0  0
  2  1  1  6
  3  2  1  0
  4  2  1  0
  4  6  1  0
  4  5  1  6
  6  7  2  0
  9  8  1  0
 10  9  2  0
 12 11  1  1
 11  9  1  0
 12 14  1  0
 13  6  1  0
 13 12  1  0
 14 15  2  0
 16 17  1  0
 16 14  1  0
 17 22  1  0
 17 18  1  6
 19 18  1  0
 20 19  1  0
 21 20  2  0
 22 23  2  0
 22 25  1  0
 24 20  1  0
M  END
$$$$
