QKS.pdb
     RDKit          3D

 25 24  0  0  1  0  0  0  0  0999 V2000
   14.1156  -14.6756   16.5105 N   0  0  0  0  0  0  0  0  0  0  0  0
   13.7368  -15.8262   15.7634 C   0  0  0  0  0  0  0  0  0  0  0  0
   13.4216  -15.6353   14.5729 O   0  0  0  0  0  0  0  0  0  0  0  0
   13.7183  -17.1547   16.3501 C   0  0  0  0  0  0  0  0  0  0  0  0
   14.0757  -17.2959   17.7781 C   0  0  0  0  0  0  0  0  0  0  0  0
   13.1630  -18.0849   18.6414 C   0  0  2  0  0  0  0  0  0  0  0  0
   12.0908  -18.7607   17.9931 N   0  0  0  0  0  0  0  0  0  0  0  0
   12.6998  -17.3041   19.8185 C   0  0  0  0  0  0  0  0  0  0  0  0
   13.4943  -16.5629   20.4757 O   0  0  0  0  0  0  0  0  0  0  0  0
   11.3659  -17.3410   20.2683 N   0  0  0  0  0  0  0  0  0  0  0  0
   10.8838  -16.5666   21.3960 C   0  0  1  0  0  0  0  0  0  0  0  0
    9.6159  -15.8437   21.0571 C   0  0  0  0  0  0  0  0  0  0  0  0
    9.8727  -14.6977   20.1046 C   0  0  0  0  0  0  0  0  0  0  0  0
    8.5822  -14.0156   19.7003 C   0  0  0  0  0  0  0  0  0  0  0  0
    8.9077  -12.9017   18.7147 C   0  0  0  0  0  0  0  0  0  0  0  0
    7.6751  -12.2467   18.3029 N   0  0  0  0  0  0  0  0  0  0  0  0
   10.8238  -17.3565   22.6279 C   0  0  0  0  0  0  0  0  0  0  0  0
   10.0593  -18.3636   22.6480 O   0  0  0  0  0  0  0  0  0  0  0  0
   13.4805  -16.8358   25.8519 O   0  0  0  0  0  0  0  0  0  0  0  0
   12.9456  -18.0819   25.5408 C   0  0  0  0  0  0  0  0  0  0  0  0
   11.5379  -17.9322   24.9733 C   0  0  2  0  0  0  0  0  0  0  0  0
   11.5631  -17.0696   23.7975 N   0  0  0  0  0  0  0  0  0  0  0  0
   10.6521  -17.3203   25.9897 C   0  0  0  0  0  0  0  0  0  0  0  0
   10.1023  -16.2279   25.7673 O   0  0  0  0  0  0  0  0  0  0  0  0
   10.4163  -17.9448   27.2030 O   0  0  0  0  0  0  0  0  0  0  0  0
  2  1  1  0
  3  2  2  0
  4  2  1  0
  5  4  1  0
  6  8  1  0
  6  5  1  0
  6  7  1  6
  8  9  2  0
 10  8  1  0
 10 11  1  0
 11 12  1  6
 13 12  1  0
 14 13  1  0
 15 14  1  0
 16 15  1  0
 17 22  1  0
 17 11  1  0
 18 17  2  0
 20 19  1  0
 21 23  1  0
 21 20  1  1
 21 22  1  0
 23 25  1  0
 24 23  2  0
M  END
$$$$
