QKS.pdb
     RDKit          3D

 25 24  0  0  1  0  0  0  0  0999 V2000
    8.4394  -12.6940   16.9115 N   0  0  0  0  0  0  0  0  0  0  0  0
    8.1436  -13.8627   16.1550 C   0  0  0  0  0  0  0  0  0  0  0  0
    7.4425  -13.7017   15.1373 O   0  0  0  0  0  0  0  0  0  0  0  0
    8.6309  -15.1751   16.5415 C   0  0  0  0  0  0  0  0  0  0  0  0
    9.4060  -15.2943   17.7952 C   0  0  0  0  0  0  0  0  0  0  0  0
    8.8388  -16.1350   18.8780 C   0  0  2  0  0  0  0  0  0  0  0  0
    7.4577  -16.4654   18.7773 N   0  0  0  0  0  0  0  0  0  0  0  0
    9.1914  -15.6162   20.2256 C   0  0  0  0  0  0  0  0  0  0  0  0
   10.3743  -15.2484   20.5050 O   0  0  0  0  0  0  0  0  0  0  0  0
    8.2429  -15.5035   21.2604 N   0  0  0  0  0  0  0  0  0  0  0  0
    8.5711  -15.0392   22.5947 C   0  0  1  0  0  0  0  0  0  0  0  0
    7.4044  -14.3486   23.2326 C   0  0  0  0  0  0  0  0  0  0  0  0
    7.7490  -13.8510   24.6183 C   0  0  0  0  0  0  0  0  0  0  0  0
    6.5486  -13.2201   25.2931 C   0  0  0  0  0  0  0  0  0  0  0  0
    6.9677  -12.7268   26.6712 C   0  0  0  0  0  0  0  0  0  0  0  0
    5.7957  -12.2477   27.3888 N   0  0  0  0  0  0  0  0  0  0  0  0
    9.1800  -16.0891   23.4146 C   0  0  0  0  0  0  0  0  0  0  0  0
    8.4845  -17.1119   23.6778 O   0  0  0  0  0  0  0  0  0  0  0  0
   13.2339  -16.0521   24.5164 O   0  0  0  0  0  0  0  0  0  0  0  0
   12.5905  -17.2548   24.2421 C   0  0  0  0  0  0  0  0  0  0  0  0
   11.1140  -17.1674   24.6142 C   0  0  2  0  0  0  0  0  0  0  0  0
   10.4937  -16.0371   23.9325 N   0  0  0  0  0  0  0  0  0  0  0  0
   10.9779  -16.9709   26.0755 C   0  0  0  0  0  0  0  0  0  0  0  0
   11.4395  -17.8105   26.8674 O   0  0  0  0  0  0  0  0  0  0  0  0
   10.3385  -15.8562   26.5914 O   0  0  0  0  0  0  0  0  0  0  0  0
  2  1  1  0
  3  2  2  0
  4  2  1  0
  5  4  1  0
  6  8  1  0
  6  5  1  0
  6  7  1  1
  8  9  2  0
 10  8  1  0
 10 11  1  0
 11 12  1  1
 13 12  1  0
 14 13  1  0
 15 14  1  0
 16 15  1  0
 17 22  1  0
 17 11  1  0
 18 17  2  0
 20 19  1  0
 21 23  1  0
 21 20  1  1
 21 22  1  0
 23 25  1  0
 24 23  2  0
M  END
$$$$
