QKS.pdb
     RDKit          3D

 25 24  0  0  1  0  0  0  0  0999 V2000
    5.0473  -18.4288   13.9495 N   0  0  0  0  0  0  0  0  0  0  0  0
    6.2070  -17.8950   13.3203 C   0  0  0  0  0  0  0  0  0  0  0  0
    6.0963  -17.5967   12.1154 O   0  0  0  0  0  0  0  0  0  0  0  0
    7.4547  -17.7038   14.0385 C   0  0  0  0  0  0  0  0  0  0  0  0
    7.5252  -18.1383   15.4502 C   0  0  0  0  0  0  0  0  0  0  0  0
    8.0420  -19.5013   15.7261 C   0  0  2  0  0  0  0  0  0  0  0  0
    7.3527  -20.5853   15.1125 N   0  0  0  0  0  0  0  0  0  0  0  0
    8.2586  -19.7289   17.1789 C   0  0  0  0  0  0  0  0  0  0  0  0
    8.9044  -18.8985   17.8902 O   0  0  0  0  0  0  0  0  0  0  0  0
    7.7648  -20.8676   17.8441 N   0  0  0  0  0  0  0  0  0  0  0  0
    7.9022  -21.0780   19.2726 C   0  0  1  0  0  0  0  0  0  0  0  0
    6.9822  -22.1580   19.7543 C   0  0  0  0  0  0  0  0  0  0  0  0
    5.5366  -21.7191   19.6914 C   0  0  0  0  0  0  0  0  0  0  0  0
    4.6035  -22.8248   20.1398 C   0  0  0  0  0  0  0  0  0  0  0  0
    3.1691  -22.3257   20.0318 C   0  0  0  0  0  0  0  0  0  0  0  0
    2.2596  -23.3736   20.4707 N   0  0  0  0  0  0  0  0  0  0  0  0
    9.2998  -21.2427   19.6784 C   0  0  0  0  0  0  0  0  0  0  0  0
   10.0302  -22.0088   18.9864 O   0  0  0  0  0  0  0  0  0  0  0  0
   13.3818  -19.7350   21.4934 O   0  0  0  0  0  0  0  0  0  0  0  0
   12.0836  -19.5526   21.0274 C   0  0  0  0  0  0  0  0  0  0  0  0
   11.2732  -20.8345   21.1889 C   0  0  2  0  0  0  0  0  0  0  0  0
    9.8889  -20.6030   20.7922 N   0  0  0  0  0  0  0  0  0  0  0  0
   11.2936  -21.2631   22.6060 C   0  0  0  0  0  0  0  0  0  0  0  0
   10.2751  -21.1522   23.3100 O   0  0  0  0  0  0  0  0  0  0  0  0
   12.4381  -21.7935   23.1771 O   0  0  0  0  0  0  0  0  0  0  0  0
  2  1  1  0
  3  2  2  0
  4  2  1  0
  5  4  1  0
  6  8  1  0
  6  5  1  0
  6  7  1  1
  8  9  2  0
 10  8  1  0
 10 11  1  0
 11 12  1  6
 13 12  1  0
 14 13  1  0
 15 14  1  0
 16 15  1  0
 17 22  1  0
 17 11  1  0
 18 17  2  0
 20 19  1  0
 21 23  1  0
 21 20  1  1
 21 22  1  0
 23 25  1  0
 24 23  2  0
M  END
$$$$
