QKS.pdb
     RDKit          3D

 25 24  0  0  1  0  0  0  0  0999 V2000
    8.6839  -12.9800   16.8640 N   0  0  0  0  0  0  0  0  0  0  0  0
    7.9257  -13.9810   17.5339 C   0  0  0  0  0  0  0  0  0  0  0  0
    8.0094  -15.1379   17.0779 O   0  0  0  0  0  0  0  0  0  0  0  0
    7.0984  -13.6779   18.6884 C   0  0  0  0  0  0  0  0  0  0  0  0
    7.7677  -13.2849   19.9471 C   0  0  0  0  0  0  0  0  0  0  0  0
    8.7818  -14.2121   20.5063 C   0  0  2  0  0  0  0  0  0  0  0  0
    9.1356  -15.3348   19.7056 N   0  0  0  0  0  0  0  0  0  0  0  0
    8.4652  -14.6023   21.9052 C   0  0  0  0  0  0  0  0  0  0  0  0
    8.0923  -13.7442   22.7638 O   0  0  0  0  0  0  0  0  0  0  0  0
    8.5596  -15.9335   22.3548 N   0  0  0  0  0  0  0  0  0  0  0  0
    8.3157  -16.3295   23.7287 C   0  0  1  0  0  0  0  0  0  0  0  0
    8.3649  -17.8191   23.8823 C   0  0  0  0  0  0  0  0  0  0  0  0
    8.1006  -18.2346   25.3120 C   0  0  0  0  0  0  0  0  0  0  0  0
    8.2388  -19.7328   25.4864 C   0  0  0  0  0  0  0  0  0  0  0  0
    7.9685  -20.0807   26.9439 C   0  0  0  0  0  0  0  0  0  0  0  0
    7.9078  -21.5273   27.0911 N   0  0  0  0  0  0  0  0  0  0  0  0
    9.1532  -15.5915   24.6770 C   0  0  0  0  0  0  0  0  0  0  0  0
   10.3994  -15.5597   24.4650 O   0  0  0  0  0  0  0  0  0  0  0  0
    7.5900  -12.7765   27.1140 O   0  0  0  0  0  0  0  0  0  0  0  0
    8.9574  -12.7230   26.8629 C   0  0  0  0  0  0  0  0  0  0  0  0
    9.5245  -14.1286   26.6930 C   0  0  2  0  0  0  0  0  0  0  0  0
    8.6628  -14.9115   25.8145 N   0  0  0  0  0  0  0  0  0  0  0  0
    9.5939  -14.8017   28.0099 C   0  0  0  0  0  0  0  0  0  0  0  0
    9.0133  -15.8857   28.1921 O   0  0  0  0  0  0  0  0  0  0  0  0
   10.3012  -14.2450   29.0621 O   0  0  0  0  0  0  0  0  0  0  0  0
  2  1  1  0
  3  2  2  0
  4  2  1  0
  5  4  1  0
  6  8  1  0
  6  5  1  0
  6  7  1  6
  8  9  2  0
 10  8  1  0
 10 11  1  0
 11 12  1  6
 13 12  1  0
 14 13  1  0
 15 14  1  0
 16 15  1  0
 17 22  1  0
 17 11  1  0
 18 17  2  0
 20 19  1  0
 21 23  1  0
 21 20  1  1
 21 22  1  0
 23 25  1  0
 24 23  2  0
M  END
$$$$
