QKS.pdb
     RDKit          3D

 25 24  0  0  1  0  0  0  0  0999 V2000
    7.9169  -11.9521   20.2948 N   0  0  0  0  0  0  0  0  0  0  0  0
    8.2004  -12.8244   19.2065 C   0  0  0  0  0  0  0  0  0  0  0  0
    8.6153  -12.2890   18.1603 O   0  0  0  0  0  0  0  0  0  0  0  0
    8.0199  -14.2621   19.3037 C   0  0  0  0  0  0  0  0  0  0  0  0
    7.5553  -14.8255   20.5896 C   0  0  0  0  0  0  0  0  0  0  0  0
    7.3476  -16.2925   20.6636 C   0  0  2  0  0  0  0  0  0  0  0  0
    6.4006  -16.8529   19.7603 N   0  0  0  0  0  0  0  0  0  0  0  0
    7.1261  -16.7518   22.0599 C   0  0  0  0  0  0  0  0  0  0  0  0
    6.4739  -16.0489   22.8925 O   0  0  0  0  0  0  0  0  0  0  0  0
    7.6218  -17.9810   22.5353 N   0  0  0  0  0  0  0  0  0  0  0  0
    7.3408  -18.4935   23.8627 C   0  0  1  0  0  0  0  0  0  0  0  0
    6.8240  -19.8987   23.8051 C   0  0  0  0  0  0  0  0  0  0  0  0
    5.4489  -19.9548   23.1788 C   0  0  0  0  0  0  0  0  0  0  0  0
    5.0081  -21.3843   22.9407 C   0  0  0  0  0  0  0  0  0  0  0  0
    3.7057  -21.3678   22.1523 C   0  0  0  0  0  0  0  0  0  0  0  0
    3.2456  -22.7339   21.9524 N   0  0  0  0  0  0  0  0  0  0  0  0
    8.4614  -18.2942   24.7845 C   0  0  0  0  0  0  0  0  0  0  0  0
    9.5971  -18.0419   24.2888 O   0  0  0  0  0  0  0  0  0  0  0  0
    8.0655  -17.1138   28.5937 O   0  0  0  0  0  0  0  0  0  0  0  0
    9.3388  -17.0891   28.0335 C   0  0  0  0  0  0  0  0  0  0  0  0
    9.5206  -18.2564   27.0690 C   0  0  2  0  0  0  0  0  0  0  0  0
    8.3601  -18.3645   26.1921 N   0  0  0  0  0  0  0  0  0  0  0  0
    9.6560  -19.5182   27.8318 C   0  0  0  0  0  0  0  0  0  0  0  0
    8.8282  -20.4335   27.6831 O   0  0  0  0  0  0  0  0  0  0  0  0
   10.6993  -19.7080   28.7223 O   0  0  0  0  0  0  0  0  0  0  0  0
  2  1  1  0
  3  2  2  0
  4  2  1  0
  5  4  1  0
  6  8  1  0
  6  5  1  0
  6  7  1  6
  8  9  2  0
 10  8  1  0
 10 11  1  0
 11 12  1  6
 13 12  1  0
 14 13  1  0
 15 14  1  0
 16 15  1  0
 17 22  1  0
 17 11  1  0
 18 17  2  0
 20 19  1  0
 21 23  1  0
 21 20  1  1
 21 22  1  0
 23 25  1  0
 24 23  2  0
M  END
$$$$
