QKS.pdb
     RDKit          3D

 25 24  0  0  1  0  0  0  0  0999 V2000
    6.4047  -19.3613   19.2547 N   0  0  0  0  0  0  0  0  0  0  0  0
    7.7419  -19.5273   19.7132 C   0  0  0  0  0  0  0  0  0  0  0  0
    8.1189  -20.6986   19.9107 O   0  0  0  0  0  0  0  0  0  0  0  0
    8.6254  -18.3970   19.9389 C   0  0  0  0  0  0  0  0  0  0  0  0
    8.1176  -17.0398   19.6437 C   0  0  0  0  0  0  0  0  0  0  0  0
    9.0455  -15.8994   19.8416 C   0  0  2  0  0  0  0  0  0  0  0  0
   10.2750  -15.9407   19.1250 N   0  0  0  0  0  0  0  0  0  0  0  0
    9.2494  -15.5936   21.2819 C   0  0  0  0  0  0  0  0  0  0  0  0
   10.3291  -15.8977   21.8771 O   0  0  0  0  0  0  0  0  0  0  0  0
    8.2663  -14.9548   22.0621 N   0  0  0  0  0  0  0  0  0  0  0  0
    8.4526  -14.6206   23.4611 C   0  0  1  0  0  0  0  0  0  0  0  0
    7.3391  -13.7546   23.9664 C   0  0  0  0  0  0  0  0  0  0  0  0
    7.5424  -13.3876   25.4191 C   0  0  0  0  0  0  0  0  0  0  0  0
    6.3981  -12.5436   25.9410 C   0  0  0  0  0  0  0  0  0  0  0  0
    6.6470  -12.2413   27.4124 C   0  0  0  0  0  0  0  0  0  0  0  0
    5.5759  -11.3964   27.9190 N   0  0  0  0  0  0  0  0  0  0  0  0
    8.7266  -15.8015   24.2831 C   0  0  0  0  0  0  0  0  0  0  0  0
    7.8679  -16.7298   24.2894 O   0  0  0  0  0  0  0  0  0  0  0  0
   12.4684  -17.0452   25.3732 O   0  0  0  0  0  0  0  0  0  0  0  0
   11.3688  -17.8975   25.3559 C   0  0  0  0  0  0  0  0  0  0  0  0
   10.1252  -17.1752   25.8638 C   0  0  2  0  0  0  0  0  0  0  0  0
    9.8868  -15.9746   25.0709 N   0  0  0  0  0  0  0  0  0  0  0  0
   10.3206  -16.7777   27.2767 C   0  0  0  0  0  0  0  0  0  0  0  0
   10.2455  -15.5821   27.6085 O   0  0  0  0  0  0  0  0  0  0  0  0
   10.5897  -17.7202   28.2548 O   0  0  0  0  0  0  0  0  0  0  0  0
  2  1  1  0
  3  2  2  0
  4  2  1  0
  5  4  1  0
  6  8  1  0
  6  5  1  0
  6  7  1  1
  8  9  2  0
 10  8  1  0
 10 11  1  0
 11 12  1  1
 13 12  1  0
 14 13  1  0
 15 14  1  0
 16 15  1  0
 17 22  1  0
 17 11  1  0
 18 17  2  0
 20 19  1  0
 21 23  1  0
 21 20  1  6
 21 22  1  0
 23 25  1  0
 24 23  2  0
M  END
$$$$
