QKS.pdb
     RDKit          3D

 25 24  0  0  1  0  0  0  0  0999 V2000
    9.8823  -21.1925   16.5483 N   0  0  0  0  0  0  0  0  0  0  0  0
   10.3706  -20.0130   17.1776 C   0  0  0  0  0  0  0  0  0  0  0  0
   11.5990  -19.8149   17.1073 O   0  0  0  0  0  0  0  0  0  0  0  0
    9.4899  -19.0848   17.8647 C   0  0  0  0  0  0  0  0  0  0  0  0
    8.0362  -19.3557   17.8502 C   0  0  0  0  0  0  0  0  0  0  0  0
    7.1514  -18.4045   18.5666 C   0  0  2  0  0  0  0  0  0  0  0  0
    7.4608  -17.0206   18.4401 N   0  0  0  0  0  0  0  0  0  0  0  0
    6.9412  -18.8019   19.9834 C   0  0  0  0  0  0  0  0  0  0  0  0
    7.2809  -18.0413   20.9418 O   0  0  0  0  0  0  0  0  0  0  0  0
    6.3585  -20.0329   20.3411 N   0  0  0  0  0  0  0  0  0  0  0  0
    6.1659  -20.4536   21.7158 C   0  0  1  0  0  0  0  0  0  0  0  0
    5.0082  -21.3967   21.8390 C   0  0  0  0  0  0  0  0  0  0  0  0
    4.7893  -21.8157   23.2753 C   0  0  0  0  0  0  0  0  0  0  0  0
    3.6900  -22.8517   23.3871 C   0  0  0  0  0  0  0  0  0  0  0  0
    3.4767  -23.1791   24.8587 C   0  0  0  0  0  0  0  0  0  0  0  0
    2.4976  -24.2491   24.9777 N   0  0  0  0  0  0  0  0  0  0  0  0
    7.4072  -20.9295   22.3306 C   0  0  0  0  0  0  0  0  0  0  0  0
    8.2551  -21.5000   21.5858 O   0  0  0  0  0  0  0  0  0  0  0  0
   10.7242  -18.7310   24.1332 O   0  0  0  0  0  0  0  0  0  0  0  0
    9.4596  -19.0751   23.6659 C   0  0  0  0  0  0  0  0  0  0  0  0
    9.0626  -20.4590   24.1692 C   0  0  2  0  0  0  0  0  0  0  0  0
    7.7225  -20.7945   23.7014 N   0  0  0  0  0  0  0  0  0  0  0  0
    9.0634  -20.4711   25.6498 C   0  0  0  0  0  0  0  0  0  0  0  0
    7.9914  -20.4394   26.2783 O   0  0  0  0  0  0  0  0  0  0  0  0
   10.2484  -20.5178   26.3647 O   0  0  0  0  0  0  0  0  0  0  0  0
  2  1  1  0
  3  2  2  0
  4  2  1  0
  5  4  1  0
  6  8  1  0
  6  5  1  0
  6  7  1  1
  8  9  2  0
 10  8  1  0
 10 11  1  0
 11 12  1  6
 13 12  1  0
 14 13  1  0
 15 14  1  0
 16 15  1  0
 17 22  1  0
 17 11  1  0
 18 17  2  0
 20 19  1  0
 21 23  1  0
 21 20  1  1
 21 22  1  0
 23 25  1  0
 24 23  2  0
M  END
$$$$
