HWN.pdb
     RDKit          3D

 33 35  0  0  1  0  0  0  0  0999 V2000
   10.1293  -15.1321   20.4609 N   0  0  0  0  0  0  0  0  0  0  0  0
    9.5072  -16.1005   21.3294 C   0  0  1  0  0  0  0  0  0  0  0  0
    9.5953  -17.5060   20.8283 C   0  0  0  0  0  0  0  0  0  0  0  0
    8.9226  -17.6308   19.5123 C   0  0  0  0  0  0  0  0  0  0  0  0
    8.8956  -16.6460   18.5182 C   0  0  0  0  0  0  0  0  0  0  0  0
    8.1977  -17.1042   17.4635 N   0  0  0  0  0  0  0  0  0  0  0  0
    7.7773  -18.3419   17.7428 C   0  0  0  0  0  0  0  0  0  0  0  0
    8.2215  -18.6451   18.9800 N   0  0  0  0  0  0  0  0  0  0  0  0
    9.9494  -15.9558   22.7399 C   0  0  0  0  0  0  0  0  0  0  0  0
   11.0350  -15.3338   22.9836 O   0  0  0  0  0  0  0  0  0  0  0  0
    9.2531  -16.4604   23.8510 N   0  0  0  0  0  0  0  0  0  0  0  0
    9.7773  -16.3687   25.2433 C   0  0  1  0  0  0  0  0  0  0  0  0
    8.6115  -16.2507   26.1383 C   0  0  0  0  0  0  0  0  0  0  0  0
    7.5584  -15.3025   25.8415 C   0  0  0  0  0  0  0  0  0  0  0  0
    6.2845  -15.5375   25.3140 C   0  0  0  0  0  0  0  0  0  0  0  0
    5.6217  -14.3781   25.1868 N   0  0  0  0  0  0  0  0  0  0  0  0
    6.4075  -13.3675   25.6122 C   0  0  0  0  0  0  0  0  0  0  0  0
    6.1921  -12.0116   25.7058 C   0  0  0  0  0  0  0  0  0  0  0  0
    7.1923  -11.2177   26.2131 C   0  0  0  0  0  0  0  0  0  0  0  0
    8.4066  -11.7342   26.6316 C   0  0  0  0  0  0  0  0  0  0  0  0
    8.5830  -13.1015   26.5200 C   0  0  0  0  0  0  0  0  0  0  0  0
    7.6159  -13.9319   26.0216 C   0  0  0  0  0  0  0  0  0  0  0  0
   10.6585  -17.4951   25.5338 C   0  0  0  0  0  0  0  0  0  0  0  0
   11.0518  -17.6448   26.7382 O   0  0  0  0  0  0  0  0  0  0  0  0
    9.7776  -21.2879   25.1295 N   0  0  0  0  0  0  0  0  0  0  0  0
   10.7271  -21.5071   24.0608 C   0  0  0  0  0  0  0  0  0  0  0  0
   10.5326  -22.4261   23.2252 O   0  0  0  0  0  0  0  0  0  0  0  0
   11.9007  -20.6523   23.9716 C   0  0  0  0  0  0  0  0  0  0  0  0
   11.9897  -19.5738   25.0514 C   0  0  2  0  0  0  0  0  0  0  0  0
   11.1272  -18.4658   24.6136 N   0  0  0  0  0  0  0  0  0  0  0  0
   13.3581  -19.0570   25.1591 C   0  0  0  0  0  0  0  0  0  0  0  0
   14.2189  -19.4328   25.9858 O   0  0  0  0  0  0  0  0  0  0  0  0
   13.7913  -18.0503   24.2746 O   0  0  0  0  0  0  0  0  0  0  0  0
  2  1  1  6
  2  3  1  0
  3  4  1  0
  4  5  2  0
  4  8  1  0
  5  6  1  0
  6  7  1  0
  8  7  2  0
  9 10  2  0
  9  2  1  0
 11  9  1  0
 12 13  1  1
 12 11  1  0
 13 14  1  0
 14 15  2  0
 14 22  1  0
 15 16  1  0
 16 17  1  0
 17 18  2  0
 19 18  1  0
 20 19  2  0
 21 22  2  0
 21 20  1  0
 22 17  1  0
 23 12  1  0
 24 23  2  0
 25 26  1  0
 26 28  1  0
 27 26  2  0
 29 28  1  6
 29 30  1  0
 30 23  1  0
 31 33  1  0
 31 29  1  0
 32 31  2  0
M  END
$$$$
