HWN.pdb
     RDKit          3D

 33 35  0  0  1  0  0  0  0  0999 V2000
    9.4249  -17.7435   21.6148 N   0  0  0  0  0  0  0  0  0  0  0  0
    9.6837  -16.3274   21.6974 C   0  0  1  0  0  0  0  0  0  0  0  0
    8.7073  -15.4895   20.9366 C   0  0  0  0  0  0  0  0  0  0  0  0
    8.6466  -15.9217   19.5191 C   0  0  0  0  0  0  0  0  0  0  0  0
    9.7415  -16.3249   18.7461 C   0  0  0  0  0  0  0  0  0  0  0  0
    9.3144  -16.6465   17.5118 N   0  0  0  0  0  0  0  0  0  0  0  0
    7.9909  -16.4653   17.4640 C   0  0  0  0  0  0  0  0  0  0  0  0
    7.6033  -16.0286   18.6801 N   0  0  0  0  0  0  0  0  0  0  0  0
    9.8750  -15.8723   23.0982 C   0  0  0  0  0  0  0  0  0  0  0  0
   10.1788  -14.6531   23.3128 O   0  0  0  0  0  0  0  0  0  0  0  0
    9.7458  -16.6947   24.2300 N   0  0  0  0  0  0  0  0  0  0  0  0
    9.9659  -16.1995   25.6184 C   0  0  1  0  0  0  0  0  0  0  0  0
    8.6690  -16.2743   26.3159 C   0  0  0  0  0  0  0  0  0  0  0  0
    7.5729  -15.4203   25.9091 C   0  0  0  0  0  0  0  0  0  0  0  0
    6.3678  -15.7684   25.2902 C   0  0  0  0  0  0  0  0  0  0  0  0
    5.6295  -14.6687   25.0769 N   0  0  0  0  0  0  0  0  0  0  0  0
    6.2976  -13.5891   25.5326 C   0  0  0  0  0  0  0  0  0  0  0  0
    5.9708  -12.2528   25.5687 C   0  0  0  0  0  0  0  0  0  0  0  0
    6.8621  -11.3701   26.1293 C   0  0  0  0  0  0  0  0  0  0  0  0
    8.0751  -11.7782   26.6573 C   0  0  0  0  0  0  0  0  0  0  0  0
    8.3654  -13.1294   26.6005 C   0  0  0  0  0  0  0  0  0  0  0  0
    7.5091  -14.0457   26.0525 C   0  0  0  0  0  0  0  0  0  0  0  0
   11.0479  -16.9392   26.2603 C   0  0  0  0  0  0  0  0  0  0  0  0
   11.1860  -16.8116   27.5222 O   0  0  0  0  0  0  0  0  0  0  0  0
   12.1282  -21.7544   27.2225 N   0  0  0  0  0  0  0  0  0  0  0  0
   10.9467  -21.2924   26.5280 C   0  0  0  0  0  0  0  0  0  0  0  0
    9.9805  -22.0748   26.3414 O   0  0  0  0  0  0  0  0  0  0  0  0
   10.8975  -19.9182   26.0535 C   0  0  0  0  0  0  0  0  0  0  0  0
   12.2219  -19.1606   26.1503 C   0  0  2  0  0  0  0  0  0  0  0  0
   11.9734  -17.8077   25.6297 N   0  0  0  0  0  0  0  0  0  0  0  0
   13.2414  -19.7846   25.3003 C   0  0  0  0  0  0  0  0  0  0  0  0
   13.0668  -20.1982   24.1325 O   0  0  0  0  0  0  0  0  0  0  0  0
   14.5491  -19.9530   25.7952 O   0  0  0  0  0  0  0  0  0  0  0  0
  2  1  1  1
  2  3  1  0
  3  4  1  0
  4  5  2  0
  4  8  1  0
  5  6  1  0
  6  7  1  0
  8  7  2  0
  9 10  2  0
  9  2  1  0
 11  9  1  0
 12 13  1  1
 12 11  1  0
 13 14  1  0
 14 15  2  0
 14 22  1  0
 15 16  1  0
 16 17  1  0
 17 18  2  0
 19 18  1  0
 20 19  2  0
 21 22  2  0
 21 20  1  0
 22 17  1  0
 23 12  1  0
 24 23  2  0
 25 26  1  0
 26 28  1  0
 27 26  2  0
 29 28  1  6
 29 30  1  0
 30 23  1  0
 31 33  1  0
 31 29  1  0
 32 31  2  0
M  END
$$$$
