HWN.pdb
     RDKit          3D

 33 35  0  0  1  0  0  0  0  0999 V2000
   10.7524  -16.7310   18.3792 N   0  0  0  0  0  0  0  0  0  0  0  0
    9.9443  -17.4128   19.3597 C   0  0  1  0  0  0  0  0  0  0  0  0
   10.2832  -18.8597   19.5212 C   0  0  0  0  0  0  0  0  0  0  0  0
    9.8485  -19.6305   18.3309 C   0  0  0  0  0  0  0  0  0  0  0  0
    8.5285  -19.7551   17.8825 C   0  0  0  0  0  0  0  0  0  0  0  0
    8.5092  -20.5238   16.7789 N   0  0  0  0  0  0  0  0  0  0  0  0
    9.7631  -20.8958   16.5033 C   0  0  0  0  0  0  0  0  0  0  0  0
   10.5582  -20.3503   17.4467 N   0  0  0  0  0  0  0  0  0  0  0  0
    9.8893  -16.6796   20.6501 C   0  0  0  0  0  0  0  0  0  0  0  0
   10.9628  -16.1763   21.1180 O   0  0  0  0  0  0  0  0  0  0  0  0
    8.7245  -16.4922   21.4132 N   0  0  0  0  0  0  0  0  0  0  0  0
    8.7314  -15.8336   22.7503 C   0  0  1  0  0  0  0  0  0  0  0  0
    7.3339  -15.4901   23.0713 C   0  0  0  0  0  0  0  0  0  0  0  0
    6.9835  -15.0295   24.3984 C   0  0  0  0  0  0  0  0  0  0  0  0
    6.3839  -15.7359   25.4462 C   0  0  0  0  0  0  0  0  0  0  0  0
    6.2259  -14.9312   26.5080 N   0  0  0  0  0  0  0  0  0  0  0  0
    6.7005  -13.7040   26.2107 C   0  0  0  0  0  0  0  0  0  0  0  0
    6.7892  -12.5478   26.9516 C   0  0  0  0  0  0  0  0  0  0  0  0
    7.3564  -11.4366   26.3757 C   0  0  0  0  0  0  0  0  0  0  0  0
    7.8398  -11.4406   25.0785 C   0  0  0  0  0  0  0  0  0  0  0  0
    7.7308  -12.6222   24.3679 C   0  0  0  0  0  0  0  0  0  0  0  0
    7.1742  -13.7540   24.8994 C   0  0  0  0  0  0  0  0  0  0  0  0
    9.3933  -16.6825   23.7357 C   0  0  0  0  0  0  0  0  0  0  0  0
    9.1417  -17.9328   23.7055 O   0  0  0  0  0  0  0  0  0  0  0  0
   13.6588  -16.9965   27.9813 N   0  0  0  0  0  0  0  0  0  0  0  0
   13.1353  -17.6154   26.7836 C   0  0  0  0  0  0  0  0  0  0  0  0
   13.3381  -18.8370   26.5666 O   0  0  0  0  0  0  0  0  0  0  0  0
   12.3768  -16.8055   25.8430 C   0  0  0  0  0  0  0  0  0  0  0  0
   10.9234  -17.2397   25.6524 C   0  0  2  0  0  0  0  0  0  0  0  0
   10.3094  -16.2682   24.7347 N   0  0  0  0  0  0  0  0  0  0  0  0
   10.1912  -17.1776   26.9218 C   0  0  0  0  0  0  0  0  0  0  0  0
    9.4074  -16.2667   27.2702 O   0  0  0  0  0  0  0  0  0  0  0  0
   10.3475  -18.2123   27.8643 O   0  0  0  0  0  0  0  0  0  0  0  0
  2  1  1  6
  2  3  1  0
  3  4  1  0
  4  5  2  0
  4  8  1  0
  5  6  1  0
  6  7  1  0
  8  7  2  0
  9 10  2  0
  9  2  1  0
 11  9  1  0
 12 13  1  1
 12 11  1  0
 13 14  1  0
 14 15  2  0
 14 22  1  0
 15 16  1  0
 16 17  1  0
 17 18  2  0
 19 18  1  0
 20 19  2  0
 21 22  2  0
 21 20  1  0
 22 17  1  0
 23 12  1  0
 24 23  2  0
 25 26  1  0
 26 28  1  0
 27 26  2  0
 29 28  1  1
 29 30  1  0
 30 23  1  0
 31 33  1  0
 31 29  1  0
 32 31  2  0
M  END
$$$$
