HWN.pdb
     RDKit          3D

 33 35  0  0  1  0  0  0  0  0999 V2000
    9.5513  -16.6635   19.4080 N   0  0  0  0  0  0  0  0  0  0  0  0
    8.8859  -16.9254   20.6601 C   0  0  1  0  0  0  0  0  0  0  0  0
    8.2913  -18.2936   20.7536 C   0  0  0  0  0  0  0  0  0  0  0  0
    7.3495  -18.5279   19.6318 C   0  0  0  0  0  0  0  0  0  0  0  0
    6.9736  -17.5772   18.6760 C   0  0  0  0  0  0  0  0  0  0  0  0
    6.1085  -18.1390   17.8128 N   0  0  0  0  0  0  0  0  0  0  0  0
    5.9158  -19.4103   18.1778 C   0  0  0  0  0  0  0  0  0  0  0  0
    6.6696  -19.6297   19.2749 N   0  0  0  0  0  0  0  0  0  0  0  0
    9.7324  -16.5768   21.8296 C   0  0  0  0  0  0  0  0  0  0  0  0
   10.9913  -16.4620   21.6655 O   0  0  0  0  0  0  0  0  0  0  0  0
    9.2474  -16.3590   23.1301 N   0  0  0  0  0  0  0  0  0  0  0  0
   10.1391  -16.0544   24.2849 C   0  0  1  0  0  0  0  0  0  0  0  0
    9.6524  -14.8005   24.8892 C   0  0  0  0  0  0  0  0  0  0  0  0
    8.2765  -14.6884   25.3254 C   0  0  0  0  0  0  0  0  0  0  0  0
    7.2592  -15.6476   25.2870 C   0  0  0  0  0  0  0  0  0  0  0  0
    6.1253  -15.1311   25.7842 N   0  0  0  0  0  0  0  0  0  0  0  0
    6.3447  -13.8536   26.1579 C   0  0  0  0  0  0  0  0  0  0  0  0
    5.5253  -12.9102   26.7343 C   0  0  0  0  0  0  0  0  0  0  0  0
    6.0479  -11.6744   27.0306 C   0  0  0  0  0  0  0  0  0  0  0  0
    7.3673  -11.3468   26.7691 C   0  0  0  0  0  0  0  0  0  0  0  0
    8.1568  -12.3230   26.1887 C   0  0  0  0  0  0  0  0  0  0  0  0
    7.6809  -13.5676   25.8762 C   0  0  0  0  0  0  0  0  0  0  0  0
   10.1986  -17.1901   25.1995 C   0  0  0  0  0  0  0  0  0  0  0  0
    9.1318  -17.8679   25.3730 O   0  0  0  0  0  0  0  0  0  0  0  0
   12.5852  -20.7004   25.0117 N   0  0  0  0  0  0  0  0  0  0  0  0
   13.3054  -19.7860   25.8701 C   0  0  0  0  0  0  0  0  0  0  0  0
   14.4751  -19.4336   25.5732 O   0  0  0  0  0  0  0  0  0  0  0  0
   12.6572  -19.2862   27.0727 C   0  0  0  0  0  0  0  0  0  0  0  0
   11.2350  -18.7659   26.8632 C   0  0  2  0  0  0  0  0  0  0  0  0
   11.3318  -17.6396   25.9224 N   0  0  0  0  0  0  0  0  0  0  0  0
   10.6793  -18.2507   28.1190 C   0  0  0  0  0  0  0  0  0  0  0  0
   10.1102  -18.9318   29.0008 O   0  0  0  0  0  0  0  0  0  0  0  0
   10.7720  -16.8750   28.4059 O   0  0  0  0  0  0  0  0  0  0  0  0
  2  1  1  6
  2  3  1  0
  3  4  1  0
  4  5  2  0
  4  8  1  0
  5  6  1  0
  6  7  1  0
  8  7  2  0
  9 10  2  0
  9  2  1  0
 11  9  1  0
 12 13  1  1
 12 11  1  0
 13 14  1  0
 14 15  2  0
 14 22  1  0
 15 16  1  0
 16 17  1  0
 17 18  2  0
 19 18  1  0
 20 19  2  0
 21 22  2  0
 21 20  1  0
 22 17  1  0
 23 12  1  0
 24 23  2  0
 25 26  1  0
 26 28  1  0
 27 26  2  0
 29 28  1  1
 29 30  1  0
 30 23  1  0
 31 33  1  0
 31 29  1  0
 32 31  2  0
M  END
$$$$
