HWN.pdb
     RDKit          3D

 33 35  0  0  1  0  0  0  0  0999 V2000
    8.4858  -15.7963   20.1117 N   0  0  0  0  0  0  0  0  0  0  0  0
    8.8157  -16.9701   20.8816 C   0  0  1  0  0  0  0  0  0  0  0  0
    9.6946  -17.9393   20.1587 C   0  0  0  0  0  0  0  0  0  0  0  0
    9.1185  -18.2735   18.8335 C   0  0  0  0  0  0  0  0  0  0  0  0
    8.5827  -17.3526   17.9260 C   0  0  0  0  0  0  0  0  0  0  0  0
    8.1552  -18.0096   16.8328 N   0  0  0  0  0  0  0  0  0  0  0  0
    8.3958  -19.3131   17.0044 C   0  0  0  0  0  0  0  0  0  0  0  0
    8.9760  -19.4565   18.2138 N   0  0  0  0  0  0  0  0  0  0  0  0
    9.3155  -16.6297   22.2382 C   0  0  0  0  0  0  0  0  0  0  0  0
   10.3012  -15.8290   22.3477 O   0  0  0  0  0  0  0  0  0  0  0  0
    8.7784  -17.1302   23.4361 N   0  0  0  0  0  0  0  0  0  0  0  0
    9.3682  -16.8337   24.7724 C   0  0  1  0  0  0  0  0  0  0  0  0
    8.2453  -16.6415   25.7086 C   0  0  0  0  0  0  0  0  0  0  0  0
    7.3443  -15.5202   25.5448 C   0  0  0  0  0  0  0  0  0  0  0  0
    6.0228  -15.5116   25.0865 C   0  0  0  0  0  0  0  0  0  0  0  0
    5.5495  -14.2563   25.0804 N   0  0  0  0  0  0  0  0  0  0  0  0
    6.5093  -13.4169   25.5208 C   0  0  0  0  0  0  0  0  0  0  0  0
    6.5203  -12.0552   25.7187 C   0  0  0  0  0  0  0  0  0  0  0  0
    7.6609  -11.4690   26.2122 C   0  0  0  0  0  0  0  0  0  0  0  0
    8.7967  -12.1999   26.5156 C   0  0  0  0  0  0  0  0  0  0  0  0
    8.7445  -13.5653   26.3015 C   0  0  0  0  0  0  0  0  0  0  0  0
    7.6312  -14.1934   25.8123 C   0  0  0  0  0  0  0  0  0  0  0  0
   10.3128  -17.8772   25.1581 C   0  0  0  0  0  0  0  0  0  0  0  0
   10.1270  -19.0483   24.6876 O   0  0  0  0  0  0  0  0  0  0  0  0
   15.3094  -20.1833   26.0719 N   0  0  0  0  0  0  0  0  0  0  0  0
   14.6758  -19.3021   27.0278 C   0  0  0  0  0  0  0  0  0  0  0  0
   14.9650  -19.3857   28.2484 O   0  0  0  0  0  0  0  0  0  0  0  0
   13.7063  -18.3261   26.5549 C   0  0  0  0  0  0  0  0  0  0  0  0
   12.2989  -18.8797   26.3309 C   0  0  2  0  0  0  0  0  0  0  0  0
   11.4405  -17.7310   26.0040 N   0  0  0  0  0  0  0  0  0  0  0  0
   11.7783  -19.4895   27.5590 C   0  0  0  0  0  0  0  0  0  0  0  0
   10.9124  -18.9917   28.3126 O   0  0  0  0  0  0  0  0  0  0  0  0
   12.2614  -20.7476   27.9678 O   0  0  0  0  0  0  0  0  0  0  0  0
  2  1  1  6
  2  3  1  0
  3  4  1  0
  4  5  2  0
  4  8  1  0
  5  6  1  0
  6  7  1  0
  8  7  2  0
  9 10  2  0
  9  2  1  0
 11  9  1  0
 12 13  1  1
 12 11  1  0
 13 14  1  0
 14 15  2  0
 14 22  1  0
 15 16  1  0
 16 17  1  0
 17 18  2  0
 19 18  1  0
 20 19  2  0
 21 22  2  0
 21 20  1  0
 22 17  1  0
 23 12  1  0
 24 23  2  0
 25 26  1  0
 26 28  1  0
 27 26  2  0
 29 28  1  1
 29 30  1  0
 30 23  1  0
 31 33  1  0
 31 29  1  0
 32 31  2  0
M  END
$$$$
