HWN.pdb
     RDKit          3D

 33 35  0  0  1  0  0  0  0  0999 V2000
   11.2688  -15.8096   18.5311 N   0  0  0  0  0  0  0  0  0  0  0  0
    9.9479  -15.4855   19.0100 C   0  0  1  0  0  0  0  0  0  0  0  0
    8.8669  -16.3332   18.4208 C   0  0  0  0  0  0  0  0  0  0  0  0
    8.4488  -15.7984   17.1020 C   0  0  0  0  0  0  0  0  0  0  0  0
    8.1787  -14.4544   16.8200 C   0  0  0  0  0  0  0  0  0  0  0  0
    7.8293  -14.3377   15.5264 N   0  0  0  0  0  0  0  0  0  0  0  0
    7.8649  -15.5523   14.9696 C   0  0  0  0  0  0  0  0  0  0  0  0
    8.2394  -16.4216   15.9309 N   0  0  0  0  0  0  0  0  0  0  0  0
    9.8898  -15.4141   20.4924 C   0  0  0  0  0  0  0  0  0  0  0  0
   10.9213  -15.7432   21.1651 O   0  0  0  0  0  0  0  0  0  0  0  0
    8.7655  -15.0046   21.2288 N   0  0  0  0  0  0  0  0  0  0  0  0
    8.7642  -14.9100   22.7163 C   0  0  1  0  0  0  0  0  0  0  0  0
    7.4823  -14.2972   23.1104 C   0  0  0  0  0  0  0  0  0  0  0  0
    7.1043  -14.2330   24.5064 C   0  0  0  0  0  0  0  0  0  0  0  0
    6.6416  -15.2551   25.3417 C   0  0  0  0  0  0  0  0  0  0  0  0
    6.3970  -14.7678   26.5675 N   0  0  0  0  0  0  0  0  0  0  0  0
    6.6806  -13.4492   26.5867 C   0  0  0  0  0  0  0  0  0  0  0  0
    6.6205  -12.5100   27.5907 C   0  0  0  0  0  0  0  0  0  0  0  0
    7.0050  -11.2205   27.3124 C   0  0  0  0  0  0  0  0  0  0  0  0
    7.4491  -10.8349   26.0591 C   0  0  0  0  0  0  0  0  0  0  0  0
    7.4937  -11.8089   25.0781 C   0  0  0  0  0  0  0  0  0  0  0  0
    7.1214  -13.1057   25.3084 C   0  0  0  0  0  0  0  0  0  0  0  0
    9.0253  -16.2162   23.3126 C   0  0  0  0  0  0  0  0  0  0  0  0
    8.3478  -17.2091   22.8853 O   0  0  0  0  0  0  0  0  0  0  0  0
   11.4928  -19.4642   22.5471 N   0  0  0  0  0  0  0  0  0  0  0  0
   11.9890  -18.3993   23.3906 C   0  0  0  0  0  0  0  0  0  0  0  0
   12.8172  -17.5703   22.9354 O   0  0  0  0  0  0  0  0  0  0  0  0
   11.5162  -18.3062   24.7632 C   0  0  0  0  0  0  0  0  0  0  0  0
   10.0613  -17.8600   24.9094 C   0  0  2  0  0  0  0  0  0  0  0  0
    9.9719  -16.5135   24.3248 N   0  0  0  0  0  0  0  0  0  0  0  0
    9.6885  -17.7570   26.3242 C   0  0  0  0  0  0  0  0  0  0  0  0
    9.5594  -18.7152   27.1183 O   0  0  0  0  0  0  0  0  0  0  0  0
    9.4468  -16.4890   26.8874 O   0  0  0  0  0  0  0  0  0  0  0  0
  2  1  1  1
  2  3  1  0
  3  4  1  0
  4  5  2  0
  4  8  1  0
  5  6  1  0
  6  7  1  0
  8  7  2  0
  9 10  2  0
  9  2  1  0
 11  9  1  0
 12 13  1  1
 12 11  1  0
 13 14  1  0
 14 15  2  0
 14 22  1  0
 15 16  1  0
 16 17  1  0
 17 18  2  0
 19 18  1  0
 20 19  2  0
 21 22  2  0
 21 20  1  0
 22 17  1  0
 23 12  1  0
 24 23  2  0
 25 26  1  0
 26 28  1  0
 27 26  2  0
 29 28  1  1
 29 30  1  0
 30 23  1  0
 31 33  1  0
 31 29  1  0
 32 31  2  0
M  END
$$$$
