HWN.pdb
     RDKit          3D

 33 35  0  0  1  0  0  0  0  0999 V2000
   11.6773  -16.9053   19.2095 N   0  0  0  0  0  0  0  0  0  0  0  0
   10.7076  -17.5659   20.0476 C   0  0  1  0  0  0  0  0  0  0  0  0
   10.9744  -19.0231   20.2470 C   0  0  0  0  0  0  0  0  0  0  0  0
   10.8744  -19.7501   18.9580 C   0  0  0  0  0  0  0  0  0  0  0  0
    9.6891  -20.2216   18.3822 C   0  0  0  0  0  0  0  0  0  0  0  0
    9.9769  -20.8291   17.2172 N   0  0  0  0  0  0  0  0  0  0  0  0
   11.2980  -20.7653   17.0245 C   0  0  0  0  0  0  0  0  0  0  0  0
   11.8248  -20.1128   18.0812 N   0  0  0  0  0  0  0  0  0  0  0  0
   10.4756  -16.8364   21.3204 C   0  0  0  0  0  0  0  0  0  0  0  0
   11.4818  -16.4241   21.9854 O   0  0  0  0  0  0  0  0  0  0  0  0
    9.2094  -16.5585   21.8623 N   0  0  0  0  0  0  0  0  0  0  0  0
    9.0222  -15.7969   23.1298 C   0  0  1  0  0  0  0  0  0  0  0  0
    7.6061  -15.3899   23.1854 C   0  0  0  0  0  0  0  0  0  0  0  0
    7.0651  -14.7983   24.3910 C   0  0  0  0  0  0  0  0  0  0  0  0
    6.2856  -15.3908   25.3899 C   0  0  0  0  0  0  0  0  0  0  0  0
    5.9873  -14.4855   26.3338 N   0  0  0  0  0  0  0  0  0  0  0  0
    6.5412  -13.3004   26.0045 C   0  0  0  0  0  0  0  0  0  0  0  0
    6.5481  -12.0799   26.6402 C   0  0  0  0  0  0  0  0  0  0  0  0
    7.2337  -11.0386   26.0626 C   0  0  0  0  0  0  0  0  0  0  0  0
    7.9155  -11.1750   24.8655 C   0  0  0  0  0  0  0  0  0  0  0  0
    7.8830  -12.4175   24.2588 C   0  0  0  0  0  0  0  0  0  0  0  0
    7.2142  -13.4838   24.7962 C   0  0  0  0  0  0  0  0  0  0  0  0
    9.4766  -16.5837   24.2718 C   0  0  0  0  0  0  0  0  0  0  0  0
    9.2276  -17.8349   24.2664 O   0  0  0  0  0  0  0  0  0  0  0  0
   11.7097  -18.3626   28.6721 N   0  0  0  0  0  0  0  0  0  0  0  0
   11.6825  -16.9180   28.7352 C   0  0  0  0  0  0  0  0  0  0  0  0
   12.0898  -16.3257   29.7666 O   0  0  0  0  0  0  0  0  0  0  0  0
   11.1795  -16.1699   27.5936 C   0  0  0  0  0  0  0  0  0  0  0  0
   10.6818  -17.0320   26.4333 C   0  0  2  0  0  0  0  0  0  0  0  0
   10.1858  -16.1073   25.4027 N   0  0  0  0  0  0  0  0  0  0  0  0
    9.5570  -17.8733   26.8554 C   0  0  0  0  0  0  0  0  0  0  0  0
    8.3531  -17.5327   26.8674 O   0  0  0  0  0  0  0  0  0  0  0  0
    9.8007  -19.1900   27.2914 O   0  0  0  0  0  0  0  0  0  0  0  0
  2  1  1  1
  2  3  1  0
  3  4  1  0
  4  5  2  0
  4  8  1  0
  5  6  1  0
  6  7  1  0
  8  7  2  0
  9 10  2  0
  9  2  1  0
 11  9  1  0
 12 13  1  1
 12 11  1  0
 13 14  1  0
 14 15  2  0
 14 22  1  0
 15 16  1  0
 16 17  1  0
 17 18  2  0
 19 18  1  0
 20 19  2  0
 21 22  2  0
 21 20  1  0
 22 17  1  0
 23 12  1  0
 24 23  2  0
 25 26  1  0
 26 28  1  0
 27 26  2  0
 29 28  1  1
 29 30  1  0
 30 23  1  0
 31 33  1  0
 31 29  1  0
 32 31  2  0
M  END
$$$$
