HWN.pdb
     RDKit          3D

 33 35  0  0  1  0  0  0  0  0999 V2000
    8.8229  -17.9943   18.9563 N   0  0  0  0  0  0  0  0  0  0  0  0
    9.6052  -16.7837   18.9964 C   0  0  1  0  0  0  0  0  0  0  0  0
    9.3729  -15.8755   17.8322 C   0  0  0  0  0  0  0  0  0  0  0  0
    9.4148  -16.6395   16.5616 C   0  0  0  0  0  0  0  0  0  0  0  0
   10.4779  -16.6424   15.6512 C   0  0  0  0  0  0  0  0  0  0  0  0
   10.1697  -17.4456   14.6172 N   0  0  0  0  0  0  0  0  0  0  0  0
    8.9528  -17.9563   14.8292 C   0  0  0  0  0  0  0  0  0  0  0  0
    8.5110  -17.4615   16.0039 N   0  0  0  0  0  0  0  0  0  0  0  0
    9.5011  -16.0908   20.3060 C   0  0  0  0  0  0  0  0  0  0  0  0
   10.1519  -15.0093   20.4832 O   0  0  0  0  0  0  0  0  0  0  0  0
    8.7268  -16.5411   21.3885 N   0  0  0  0  0  0  0  0  0  0  0  0
    8.7381  -15.8760   22.7223 C   0  0  1  0  0  0  0  0  0  0  0  0
    7.3348  -15.5988   23.0801 C   0  0  0  0  0  0  0  0  0  0  0  0
    7.0049  -15.0935   24.3960 C   0  0  0  0  0  0  0  0  0  0  0  0
    6.5104  -15.7851   25.5068 C   0  0  0  0  0  0  0  0  0  0  0  0
    6.3326  -14.9370   26.5309 N   0  0  0  0  0  0  0  0  0  0  0  0
    6.6918  -13.6947   26.1473 C   0  0  0  0  0  0  0  0  0  0  0  0
    6.7171  -12.4951   26.8212 C   0  0  0  0  0  0  0  0  0  0  0  0
    7.1661  -11.3766   26.1615 C   0  0  0  0  0  0  0  0  0  0  0  0
    7.5924  -11.4152   24.8449 C   0  0  0  0  0  0  0  0  0  0  0  0
    7.5503  -12.6399   24.2036 C   0  0  0  0  0  0  0  0  0  0  0  0
    7.1116  -13.7806   24.8196 C   0  0  0  0  0  0  0  0  0  0  0  0
    9.4668  -16.6869   23.6926 C   0  0  0  0  0  0  0  0  0  0  0  0
    9.2463  -17.9434   23.6998 O   0  0  0  0  0  0  0  0  0  0  0  0
   13.1681  -16.6181   23.0632 N   0  0  0  0  0  0  0  0  0  0  0  0
   13.1880  -17.4267   24.2622 C   0  0  0  0  0  0  0  0  0  0  0  0
   13.7348  -18.5587   24.2485 O   0  0  0  0  0  0  0  0  0  0  0  0
   12.5691  -16.9106   25.4732 C   0  0  0  0  0  0  0  0  0  0  0  0
   11.0640  -17.1580   25.5774 C   0  0  2  0  0  0  0  0  0  0  0  0
   10.4174  -16.2285   24.6386 N   0  0  0  0  0  0  0  0  0  0  0  0
   10.5767  -16.8414   26.9241 C   0  0  0  0  0  0  0  0  0  0  0  0
    9.7931  -15.9116   27.2185 O   0  0  0  0  0  0  0  0  0  0  0  0
   10.9963  -17.6258   28.0159 O   0  0  0  0  0  0  0  0  0  0  0  0
  2  1  1  1
  2  3  1  0
  3  4  1  0
  4  5  2  0
  4  8  1  0
  5  6  1  0
  6  7  1  0
  8  7  2  0
  9 10  2  0
  9  2  1  0
 11  9  1  0
 12 13  1  1
 12 11  1  0
 13 14  1  0
 14 15  2  0
 14 22  1  0
 15 16  1  0
 16 17  1  0
 17 18  2  0
 19 18  1  0
 20 19  2  0
 21 22  2  0
 21 20  1  0
 22 17  1  0
 23 12  1  0
 24 23  2  0
 25 26  1  0
 26 28  1  0
 27 26  2  0
 29 28  1  1
 29 30  1  0
 30 23  1  0
 31 33  1  0
 31 29  1  0
 32 31  2  0
M  END
$$$$
