ECT.pdb
     RDKit          3D

 23 22  0  0  1  0  0  0  0  0999 V2000
    8.9961  -14.9633   20.5864 N   0  0  0  0  0  0  0  0  0  0  0  0
    8.0370  -15.2522   21.6073 C   0  0  1  0  0  0  0  0  0  0  0  0
    7.9742  -16.7696   21.7765 C   0  0  0  0  0  0  0  0  0  0  0  0
    7.5829  -17.4439   20.5088 C   0  0  0  0  0  0  0  0  0  0  0  0
    7.5441  -18.9047   20.7181 C   0  0  0  0  0  0  0  0  0  0  0  0
    6.4725  -19.5346   20.5457 O   0  0  0  0  0  0  0  0  0  0  0  0
    8.4644  -14.7027   22.9393 C   0  0  0  0  0  0  0  0  0  0  0  0
    9.6818  -14.7747   23.2508 O   0  0  0  0  0  0  0  0  0  0  0  0
    8.6632  -19.6299   21.1045 O   0  0  0  0  0  0  0  0  0  0  0  0
    7.5442  -14.1125   23.8429 N   0  0  0  0  0  0  0  0  0  0  0  0
    8.0743  -13.5863   25.1133 C   0  0  1  0  0  0  0  0  0  0  0  0
    6.9873  -12.7038   25.7032 C   0  0  0  0  0  0  0  0  0  0  0  0
    7.3514  -12.1431   27.3722 S   0  0  0  0  0  0  0  0  0  0  0  0
    8.3470  -14.7150   26.0386 C   0  0  0  0  0  0  0  0  0  0  0  0
    7.3779  -15.4575   26.3325 O   0  0  0  0  0  0  0  0  0  0  0  0
    9.9427  -17.7418   25.7962 C   0  0  0  0  0  0  0  0  0  0  0  0
   10.6496  -17.1787   27.0140 C   0  0  1  0  0  0  0  0  0  0  0  0
   11.9396  -16.8641   26.6560 O   0  0  0  0  0  0  0  0  0  0  0  0
    9.8376  -16.0315   27.5159 C   0  0  2  0  0  0  0  0  0  0  0  0
    9.6226  -14.9726   26.5786 N   0  0  0  0  0  0  0  0  0  0  0  0
   10.2374  -15.5571   28.8702 C   0  0  0  0  0  0  0  0  0  0  0  0
   10.3575  -16.3863   29.7889 O   0  0  0  0  0  0  0  0  0  0  0  0
   10.4814  -14.2225   29.1436 O   0  0  0  0  0  0  0  0  0  0  0  0
  2  1  1  6
  2  7  1  0
  3  2  1  0
  4  3  1  0
  5  6  2  0
  5  4  1  0
  7  8  2  0
  9  5  1  0
 10  7  1  0
 10 11  1  0
 11 14  1  0
 11 12  1  1
 13 12  1  0
 14 20  1  0
 15 14  2  0
 17 18  1  0
 17 16  1  6
 19 17  1  0
 19 20  1  6
 21 23  1  0
 21 19  1  0
 22 21  2  0
M  END
$$$$
