ECT.pdb
     RDKit          3D

 23 22  0  0  1  0  0  0  0  0999 V2000
    8.0936  -13.0682   19.5903 N   0  0  0  0  0  0  0  0  0  0  0  0
    7.2596  -13.6629   20.5885 C   0  0  1  0  0  0  0  0  0  0  0  0
    6.9279  -15.0846   20.1371 C   0  0  0  0  0  0  0  0  0  0  0  0
    8.1553  -15.9168   20.0106 C   0  0  0  0  0  0  0  0  0  0  0  0
    7.7773  -17.3114   19.7085 C   0  0  0  0  0  0  0  0  0  0  0  0
    8.6455  -18.2170   19.7389 O   0  0  0  0  0  0  0  0  0  0  0  0
    7.9794  -13.8007   21.9006 C   0  0  0  0  0  0  0  0  0  0  0  0
    9.2363  -13.7330   21.9008 O   0  0  0  0  0  0  0  0  0  0  0  0
    6.4769  -17.6756   19.3861 O   0  0  0  0  0  0  0  0  0  0  0  0
    7.2890  -14.0021   23.1230 N   0  0  0  0  0  0  0  0  0  0  0  0
    8.0899  -14.0712   24.3582 C   0  0  1  0  0  0  0  0  0  0  0  0
    7.3625  -13.2297   25.3931 C   0  0  0  0  0  0  0  0  0  0  0  0
    5.7389  -13.8724   25.8215 S   0  0  0  0  0  0  0  0  0  0  0  0
    8.1538  -15.4788   24.8260 C   0  0  0  0  0  0  0  0  0  0  0  0
    7.4363  -16.3131   24.2212 O   0  0  0  0  0  0  0  0  0  0  0  0
    9.3933  -17.3183   23.5533 C   0  0  0  0  0  0  0  0  0  0  0  0
   10.1970  -17.7268   24.7727 C   0  0  1  0  0  0  0  0  0  0  0  0
   11.4753  -17.2407   24.6286 O   0  0  0  0  0  0  0  0  0  0  0  0
    9.4681  -17.2345   25.9784 C   0  0  2  0  0  0  0  0  0  0  0  0
    8.9727  -15.8952   25.8943 N   0  0  0  0  0  0  0  0  0  0  0  0
   10.1574  -17.5357   27.2640 C   0  0  0  0  0  0  0  0  0  0  0  0
   10.4621  -16.5966   28.0198 O   0  0  0  0  0  0  0  0  0  0  0  0
   10.4713  -18.8274   27.6495 O   0  0  0  0  0  0  0  0  0  0  0  0
  2  1  1  6
  2  7  1  0
  3  2  1  0
  4  3  1  0
  5  6  2  0
  5  4  1  0
  7  8  2  0
  9  5  1  0
 10  7  1  0
 10 11  1  0
 11 14  1  0
 11 12  1  1
 13 12  1  0
 14 20  1  0
 15 14  2  0
 17 18  1  0
 17 16  1  6
 19 17  1  0
 19 20  1  6
 21 23  1  0
 21 19  1  0
 22 21  2  0
M  END
$$$$
