ECT.pdb
     RDKit          3D

 23 22  0  0  1  0  0  0  0  0999 V2000
   11.3262  -16.4299   19.5974 N   0  0  0  0  0  0  0  0  0  0  0  0
   10.4086  -17.1377   20.4356 C   0  0  1  0  0  0  0  0  0  0  0  0
   10.6139  -18.6333   20.1984 C   0  0  0  0  0  0  0  0  0  0  0  0
   10.3332  -19.0047   18.7848 C   0  0  0  0  0  0  0  0  0  0  0  0
   10.3678  -20.4738   18.6441 C   0  0  0  0  0  0  0  0  0  0  0  0
   10.1007  -21.0043   17.5386 O   0  0  0  0  0  0  0  0  0  0  0  0
   10.6967  -16.9045   21.8921 C   0  0  0  0  0  0  0  0  0  0  0  0
   11.8869  -16.6813   22.2358 O   0  0  0  0  0  0  0  0  0  0  0  0
   10.6901  -21.3141   19.7013 O   0  0  0  0  0  0  0  0  0  0  0  0
    9.6764  -16.9285   22.8769 N   0  0  0  0  0  0  0  0  0  0  0  0
   10.0464  -16.5604   24.2550 C   0  0  1  0  0  0  0  0  0  0  0  0
    8.9093  -15.7102   24.7959 C   0  0  0  0  0  0  0  0  0  0  0  0
    8.6477  -14.1939   23.8658 S   0  0  0  0  0  0  0  0  0  0  0  0
   10.1740  -17.7907   25.0763 C   0  0  0  0  0  0  0  0  0  0  0  0
    9.2755  -18.6581   24.9462 O   0  0  0  0  0  0  0  0  0  0  0  0
   12.4195  -20.4230   24.7726 C   0  0  0  0  0  0  0  0  0  0  0  0
   12.5953  -20.0612   26.2347 C   0  0  1  0  0  0  0  0  0  0  0  0
   13.8048  -19.4224   26.3779 O   0  0  0  0  0  0  0  0  0  0  0  0
   11.4064  -19.2584   26.6463 C   0  0  2  0  0  0  0  0  0  0  0  0
   11.2423  -18.0094   25.9687 N   0  0  0  0  0  0  0  0  0  0  0  0
   11.2239  -19.1648   28.1217 C   0  0  0  0  0  0  0  0  0  0  0  0
   11.0729  -18.0453   28.6412 O   0  0  0  0  0  0  0  0  0  0  0  0
   11.2153  -20.2826   28.9377 O   0  0  0  0  0  0  0  0  0  0  0  0
  2  1  1  6
  2  7  1  0
  3  2  1  0
  4  3  1  0
  5  6  2  0
  5  4  1  0
  7  8  2  0
  9  5  1  0
 10  7  1  0
 10 11  1  0
 11 14  1  0
 11 12  1  1
 13 12  1  0
 14 20  1  0
 15 14  2  0
 17 18  1  0
 17 16  1  6
 19 17  1  0
 19 20  1  1
 21 23  1  0
 21 19  1  0
 22 21  2  0
M  END
$$$$
