ECT.pdb
     RDKit          3D

 23 22  0  0  1  0  0  0  0  0999 V2000
    8.0734  -12.8270   19.6748 N   0  0  0  0  0  0  0  0  0  0  0  0
    7.2405  -13.4620   20.6488 C   0  0  1  0  0  0  0  0  0  0  0  0
    6.8965  -14.8588   20.1334 C   0  0  0  0  0  0  0  0  0  0  0  0
    8.0539  -15.4833   19.4367 C   0  0  0  0  0  0  0  0  0  0  0  0
    7.6690  -16.8190   18.9397 C   0  0  0  0  0  0  0  0  0  0  0  0
    8.2760  -17.3239   17.9643 O   0  0  0  0  0  0  0  0  0  0  0  0
    7.9665  -13.6658   21.9490 C   0  0  0  0  0  0  0  0  0  0  0  0
    9.2235  -13.7270   21.9264 O   0  0  0  0  0  0  0  0  0  0  0  0
    6.6446  -17.5589   19.5147 O   0  0  0  0  0  0  0  0  0  0  0  0
    7.2816  -13.7891   23.1848 N   0  0  0  0  0  0  0  0  0  0  0  0
    8.0907  -14.0083   24.3969 C   0  0  1  0  0  0  0  0  0  0  0  0
    7.2823  -13.4616   25.5614 C   0  0  0  0  0  0  0  0  0  0  0  0
    5.5565  -13.1642   25.1542 S   0  0  0  0  0  0  0  0  0  0  0  0
    8.3062  -15.4647   24.5888 C   0  0  0  0  0  0  0  0  0  0  0  0
    7.7417  -16.2361   23.7746 O   0  0  0  0  0  0  0  0  0  0  0  0
    9.7108  -16.9499   23.1037 C   0  0  0  0  0  0  0  0  0  0  0  0
   10.5189  -17.4954   24.2652 C   0  0  1  0  0  0  0  0  0  0  0  0
   11.7547  -16.8923   24.2510 O   0  0  0  0  0  0  0  0  0  0  0  0
    9.7248  -17.2751   25.5095 C   0  0  2  0  0  0  0  0  0  0  0  0
    9.1033  -15.9919   25.6241 N   0  0  0  0  0  0  0  0  0  0  0  0
   10.4176  -17.7153   26.7525 C   0  0  0  0  0  0  0  0  0  0  0  0
   10.6174  -16.8866   27.6577 O   0  0  0  0  0  0  0  0  0  0  0  0
   10.8478  -19.0177   26.9372 O   0  0  0  0  0  0  0  0  0  0  0  0
  2  1  1  6
  2  7  1  0
  3  2  1  0
  4  3  1  0
  5  6  2  0
  5  4  1  0
  7  8  2  0
  9  5  1  0
 10  7  1  0
 10 11  1  0
 11 14  1  0
 11 12  1  1
 13 12  1  0
 14 20  1  0
 15 14  2  0
 17 18  1  0
 17 16  1  6
 19 17  1  0
 19 20  1  1
 21 23  1  0
 21 19  1  0
 22 21  2  0
M  END
$$$$
