ECT.pdb
     RDKit          3D

 23 22  0  0  1  0  0  0  0  0999 V2000
    8.0084  -13.1818   19.9669 N   0  0  0  0  0  0  0  0  0  0  0  0
    7.3929  -14.0422   20.9295 C   0  0  1  0  0  0  0  0  0  0  0  0
    7.6962  -15.4858   20.5306 C   0  0  0  0  0  0  0  0  0  0  0  0
    7.0457  -15.8431   19.2406 C   0  0  0  0  0  0  0  0  0  0  0  0
    7.3186  -17.2593   18.9257 C   0  0  0  0  0  0  0  0  0  0  0  0
    8.3450  -17.5703   18.2742 O   0  0  0  0  0  0  0  0  0  0  0  0
    7.9862  -13.8556   22.2977 C   0  0  0  0  0  0  0  0  0  0  0  0
    9.2275  -13.6670   22.3884 O   0  0  0  0  0  0  0  0  0  0  0  0
    6.4739  -18.2857   19.3265 O   0  0  0  0  0  0  0  0  0  0  0  0
    7.1949  -13.8856   23.4743 N   0  0  0  0  0  0  0  0  0  0  0  0
    7.8813  -13.7041   24.7657 C   0  0  1  0  0  0  0  0  0  0  0  0
    6.9020  -12.9865   25.6791 C   0  0  0  0  0  0  0  0  0  0  0  0
    7.4795  -12.8486   27.3762 S   0  0  0  0  0  0  0  0  0  0  0  0
    8.2072  -15.0332   25.3416 C   0  0  0  0  0  0  0  0  0  0  0  0
    7.2863  -15.8866   25.3615 O   0  0  0  0  0  0  0  0  0  0  0  0
   10.7773  -18.8478   26.2961 C   0  0  0  0  0  0  0  0  0  0  0  0
   10.6995  -17.4956   25.6141 C   0  0  1  0  0  0  0  0  0  0  0  0
   10.3397  -17.6952   24.3019 O   0  0  0  0  0  0  0  0  0  0  0  0
    9.7591  -16.6466   26.4029 C   0  0  2  0  0  0  0  0  0  0  0  0
    9.4810  -15.3575   25.8489 N   0  0  0  0  0  0  0  0  0  0  0  0
   10.0535  -16.6174   27.8628 C   0  0  0  0  0  0  0  0  0  0  0  0
   10.2742  -15.5240   28.4121 O   0  0  0  0  0  0  0  0  0  0  0  0
   10.0898  -17.7671   28.6326 O   0  0  0  0  0  0  0  0  0  0  0  0
  2  1  1  6
  2  7  1  0
  3  2  1  0
  4  3  1  0
  5  6  2  0
  5  4  1  0
  7  8  2  0
  9  5  1  0
 10  7  1  0
 10 11  1  0
 11 14  1  0
 11 12  1  1
 13 12  1  0
 14 20  1  0
 15 14  2  0
 17 18  1  0
 17 16  1  1
 19 17  1  0
 19 20  1  6
 21 23  1  0
 21 19  1  0
 22 21  2  0
M  END
$$$$
