ECT.pdb
     RDKit          3D

 23 22  0  0  1  0  0  0  0  0999 V2000
    8.3769  -14.0350   15.3076 N   0  0  0  0  0  0  0  0  0  0  0  0
    8.0485  -15.0136   16.2977 C   0  0  1  0  0  0  0  0  0  0  0  0
    8.7605  -16.3139   15.9268 C   0  0  0  0  0  0  0  0  0  0  0  0
    8.1518  -16.9450   14.7243 C   0  0  0  0  0  0  0  0  0  0  0  0
    8.8804  -18.1862   14.3958 C   0  0  0  0  0  0  0  0  0  0  0  0
    8.3969  -19.2998   14.7132 O   0  0  0  0  0  0  0  0  0  0  0  0
    8.5700  -14.6261   17.6529 C   0  0  0  0  0  0  0  0  0  0  0  0
    9.7504  -14.1972   17.7370 O   0  0  0  0  0  0  0  0  0  0  0  0
   10.1024  -18.1782   13.7367 O   0  0  0  0  0  0  0  0  0  0  0  0
    7.7775  -14.7292   18.8246 N   0  0  0  0  0  0  0  0  0  0  0  0
    8.3752  -14.2855   20.0965 C   0  0  1  0  0  0  0  0  0  0  0  0
    7.2724  -13.5843   20.8715 C   0  0  0  0  0  0  0  0  0  0  0  0
    7.6128  -13.4491   22.6317 S   0  0  0  0  0  0  0  0  0  0  0  0
    8.8381  -15.4697   20.8630 C   0  0  0  0  0  0  0  0  0  0  0  0
    8.0427  -16.4372   20.9519 O   0  0  0  0  0  0  0  0  0  0  0  0
   11.1733  -17.9359   20.2917 C   0  0  0  0  0  0  0  0  0  0  0  0
   11.6031  -17.4969   21.6782 C   0  0  1  0  0  0  0  0  0  0  0  0
   12.8125  -16.8512   21.5700 O   0  0  0  0  0  0  0  0  0  0  0  0
   10.4987  -16.6736   22.2526 C   0  0  2  0  0  0  0  0  0  0  0  0
   10.1062  -15.5402   21.4733 N   0  0  0  0  0  0  0  0  0  0  0  0
   10.6627  -16.3726   23.7023 C   0  0  0  0  0  0  0  0  0  0  0  0
   10.6086  -15.1902   24.0829 O   0  0  0  0  0  0  0  0  0  0  0  0
   10.8730  -17.3649   24.6440 O   0  0  0  0  0  0  0  0  0  0  0  0
  2  1  1  6
  2  7  1  0
  3  2  1  0
  4  3  1  0
  5  6  2  0
  5  4  1  0
  7  8  2  0
  9  5  1  0
 10  7  1  0
 10 11  1  0
 11 14  1  0
 11 12  1  1
 13 12  1  0
 14 20  1  0
 15 14  2  0
 17 18  1  0
 17 16  1  6
 19 17  1  0
 19 20  1  6
 21 23  1  0
 21 19  1  0
 22 21  2  0
M  END
$$$$
