ECT.pdb
     RDKit          3D

 23 22  0  0  1  0  0  0  0  0999 V2000
    8.2893  -12.5744   19.5025 N   0  0  0  0  0  0  0  0  0  0  0  0
    7.3378  -13.1761   20.3846 C   0  0  1  0  0  0  0  0  0  0  0  0
    6.9998  -14.5617   19.8360 C   0  0  0  0  0  0  0  0  0  0  0  0
    8.2297  -15.3417   19.5295 C   0  0  0  0  0  0  0  0  0  0  0  0
    7.8544  -16.6772   19.0248 C   0  0  0  0  0  0  0  0  0  0  0  0
    7.5573  -17.5916   19.8312 O   0  0  0  0  0  0  0  0  0  0  0  0
    7.9170  -13.4009   21.7531 C   0  0  0  0  0  0  0  0  0  0  0  0
    9.1685  -13.4758   21.8656 O   0  0  0  0  0  0  0  0  0  0  0  0
    7.8134  -16.9747   17.6692 O   0  0  0  0  0  0  0  0  0  0  0  0
    7.1015  -13.5288   22.9064 N   0  0  0  0  0  0  0  0  0  0  0  0
    7.7744  -13.6059   24.2153 C   0  0  1  0  0  0  0  0  0  0  0  0
    6.8297  -12.9762   25.2251 C   0  0  0  0  0  0  0  0  0  0  0  0
    7.3924  -13.1375   26.9251 S   0  0  0  0  0  0  0  0  0  0  0  0
    7.9969  -15.0299   24.5719 C   0  0  0  0  0  0  0  0  0  0  0  0
    7.0114  -15.8019   24.4754 O   0  0  0  0  0  0  0  0  0  0  0  0
    9.4617  -17.5436   22.9526 C   0  0  0  0  0  0  0  0  0  0  0  0
   10.1915  -17.6919   24.2736 C   0  0  1  0  0  0  0  0  0  0  0  0
   11.4958  -17.2957   24.0919 O   0  0  0  0  0  0  0  0  0  0  0  0
    9.4336  -16.9135   25.2969 C   0  0  2  0  0  0  0  0  0  0  0  0
    9.2438  -15.5272   24.9998 N   0  0  0  0  0  0  0  0  0  0  0  0
    9.8749  -17.1684   26.6966 C   0  0  0  0  0  0  0  0  0  0  0  0
   10.1492  -16.2013   27.4284 O   0  0  0  0  0  0  0  0  0  0  0  0
    9.9901  -18.4469   27.2139 O   0  0  0  0  0  0  0  0  0  0  0  0
  2  1  1  6
  2  7  1  0
  3  2  1  0
  4  3  1  0
  5  6  2  0
  5  4  1  0
  7  8  2  0
  9  5  1  0
 10  7  1  0
 10 11  1  0
 11 14  1  0
 11 12  1  1
 13 12  1  0
 14 20  1  0
 15 14  2  0
 17 18  1  0
 17 16  1  6
 19 17  1  0
 19 20  1  6
 21 23  1  0
 21 19  1  0
 22 21  2  0
M  END
$$$$
