ECT.pdb
     RDKit          3D

 23 22  0  0  1  0  0  0  0  0999 V2000
   11.3320  -17.7558   19.1941 N   0  0  0  0  0  0  0  0  0  0  0  0
   10.0446  -17.6107   19.8001 C   0  0  1  0  0  0  0  0  0  0  0  0
    9.8050  -18.8291   20.6908 C   0  0  0  0  0  0  0  0  0  0  0  0
   11.0871  -19.4346   21.1429 C   0  0  0  0  0  0  0  0  0  0  0  0
   10.8078  -20.6497   21.9332 C   0  0  0  0  0  0  0  0  0  0  0  0
    9.6281  -21.0591   22.0579 O   0  0  0  0  0  0  0  0  0  0  0  0
    9.9926  -16.4148   20.7090 C   0  0  0  0  0  0  0  0  0  0  0  0
   11.0722  -15.9896   21.1968 O   0  0  0  0  0  0  0  0  0  0  0  0
   11.8119  -21.3769   22.5580 O   0  0  0  0  0  0  0  0  0  0  0  0
    8.7750  -15.7608   21.0272 N   0  0  0  0  0  0  0  0  0  0  0  0
    8.8267  -14.6518   21.9964 C   0  0  1  0  0  0  0  0  0  0  0  0
    7.5390  -13.8644   21.8220 C   0  0  0  0  0  0  0  0  0  0  0  0
    6.0588  -14.8512   22.0829 S   0  0  0  0  0  0  0  0  0  0  0  0
    8.8828  -15.2034   23.3737 C   0  0  0  0  0  0  0  0  0  0  0  0
    9.0566  -14.3837   24.3089 O   0  0  0  0  0  0  0  0  0  0  0  0
    6.4602  -17.2205   25.4161 C   0  0  0  0  0  0  0  0  0  0  0  0
    7.7558  -18.0087   25.4097 C   0  0  1  0  0  0  0  0  0  0  0  0
    7.5872  -19.1078   24.6005 O   0  0  0  0  0  0  0  0  0  0  0  0
    8.8462  -17.0797   24.9911 C   0  0  2  0  0  0  0  0  0  0  0  0
    8.7483  -16.5774   23.6554 N   0  0  0  0  0  0  0  0  0  0  0  0
   10.2121  -17.5522   25.3519 C   0  0  0  0  0  0  0  0  0  0  0  0
   11.1144  -17.4981   24.4981 O   0  0  0  0  0  0  0  0  0  0  0  0
   10.5143  -18.0501   26.6074 O   0  0  0  0  0  0  0  0  0  0  0  0
  2  1  1  1
  2  7  1  0
  3  2  1  0
  4  3  1  0
  5  6  2  0
  5  4  1  0
  7  8  2  0
  9  5  1  0
 10  7  1  0
 10 11  1  0
 11 14  1  0
 11 12  1  1
 13 12  1  0
 14 20  1  0
 15 14  2  0
 17 18  1  0
 17 16  1  6
 19 17  1  0
 19 20  1  6
 21 23  1  0
 21 19  1  0
 22 21  2  0
M  END
$$$$
