ECT.pdb
     RDKit          3D

 23 22  0  0  1  0  0  0  0  0999 V2000
   10.4472  -16.2265   19.9149 N   0  0  0  0  0  0  0  0  0  0  0  0
    9.0351  -16.0567   19.7637 C   0  0  1  0  0  0  0  0  0  0  0  0
    8.4970  -17.2624   18.9943 C   0  0  0  0  0  0  0  0  0  0  0  0
    7.0248  -17.1706   18.7971 C   0  0  0  0  0  0  0  0  0  0  0  0
    6.5571  -18.3351   18.0196 C   0  0  0  0  0  0  0  0  0  0  0  0
    6.6288  -18.3223   16.7668 O   0  0  0  0  0  0  0  0  0  0  0  0
    8.3317  -16.0636   21.0919 C   0  0  0  0  0  0  0  0  0  0  0  0
    7.0958  -15.8259   21.1129 O   0  0  0  0  0  0  0  0  0  0  0  0
    6.0309  -19.4690   18.6237 O   0  0  0  0  0  0  0  0  0  0  0  0
    9.0147  -16.3277   22.3065 N   0  0  0  0  0  0  0  0  0  0  0  0
    8.2281  -16.3066   23.5526 C   0  0  1  0  0  0  0  0  0  0  0  0
    8.8083  -17.3875   24.4488 C   0  0  0  0  0  0  0  0  0  0  0  0
   10.4835  -17.0349   24.9986 S   0  0  0  0  0  0  0  0  0  0  0  0
    8.3844  -14.9853   24.2116 C   0  0  0  0  0  0  0  0  0  0  0  0
    8.4480  -13.9794   23.4629 O   0  0  0  0  0  0  0  0  0  0  0  0
    7.3279  -12.5920   24.2366 C   0  0  0  0  0  0  0  0  0  0  0  0
    7.2064  -12.7027   25.7442 C   0  0  1  0  0  0  0  0  0  0  0  0
    5.9547  -13.1890   26.0408 O   0  0  0  0  0  0  0  0  0  0  0  0
    8.3400  -13.5450   26.2269 C   0  0  2  0  0  0  0  0  0  0  0  0
    8.4584  -14.8302   25.6101 N   0  0  0  0  0  0  0  0  0  0  0  0
    8.4756  -13.5806   27.7098 C   0  0  0  0  0  0  0  0  0  0  0  0
    8.5116  -12.5084   28.3383 O   0  0  0  0  0  0  0  0  0  0  0  0
    8.5624  -14.7679   28.4159 O   0  0  0  0  0  0  0  0  0  0  0  0
  2  1  1  1
  2  7  1  0
  3  2  1  0
  4  3  1  0
  5  6  2  0
  5  4  1  0
  7  8  2  0
  9  5  1  0
 10  7  1  0
 10 11  1  0
 11 14  1  0
 11 12  1  1
 13 12  1  0
 14 20  1  0
 15 14  2  0
 17 18  1  0
 17 16  1  6
 19 17  1  0
 19 20  1  1
 21 23  1  0
 21 19  1  0
 22 21  2  0
M  END
$$$$
