ECT.pdb
     RDKit          3D

 23 22  0  0  1  0  0  0  0  0999 V2000
    4.3902  -23.4585   25.1219 N   0  0  0  0  0  0  0  0  0  0  0  0
    5.6183  -22.8206   24.7607 C   0  0  1  0  0  0  0  0  0  0  0  0
    5.7005  -22.7902   23.2351 C   0  0  0  0  0  0  0  0  0  0  0  0
    6.6979  -23.7690   22.7233 C   0  0  0  0  0  0  0  0  0  0  0  0
    6.8002  -23.6480   21.2556 C   0  0  0  0  0  0  0  0  0  0  0  0
    7.9047  -23.8264   20.6872 O   0  0  0  0  0  0  0  0  0  0  0  0
    5.6488  -21.3859   25.2073 C   0  0  0  0  0  0  0  0  0  0  0  0
    4.5524  -20.7986   25.4012 O   0  0  0  0  0  0  0  0  0  0  0  0
    5.7068  -23.3400   20.4574 O   0  0  0  0  0  0  0  0  0  0  0  0
    6.8644  -20.6851   25.4138 N   0  0  0  0  0  0  0  0  0  0  0  0
    6.7792  -19.2626   25.7893 C   0  0  1  0  0  0  0  0  0  0  0  0
    6.9884  -19.1987   27.2928 C   0  0  0  0  0  0  0  0  0  0  0  0
    8.6676  -19.5977   27.7967 S   0  0  0  0  0  0  0  0  0  0  0  0
    7.8622  -18.5078   25.1097 C   0  0  0  0  0  0  0  0  0  0  0  0
    8.8057  -19.1788   24.6237 O   0  0  0  0  0  0  0  0  0  0  0  0
    7.2679  -15.4756   22.7556 C   0  0  0  0  0  0  0  0  0  0  0  0
    8.4800  -15.1525   23.6077 C   0  0  1  0  0  0  0  0  0  0  0  0
    8.1507  -14.1161   24.4496 O   0  0  0  0  0  0  0  0  0  0  0  0
    8.8982  -16.4112   24.2920 C   0  0  2  0  0  0  0  0  0  0  0  0
    7.8623  -17.1035   24.9946 N   0  0  0  0  0  0  0  0  0  0  0  0
   10.1629  -16.2835   25.0685 C   0  0  0  0  0  0  0  0  0  0  0  0
   10.1674  -16.6004   26.2708 O   0  0  0  0  0  0  0  0  0  0  0  0
   11.3372  -15.8239   24.4981 O   0  0  0  0  0  0  0  0  0  0  0  0
  2  1  1  6
  2  7  1  0
  3  2  1  0
  4  3  1  0
  5  6  2  0
  5  4  1  0
  7  8  2  0
  9  5  1  0
 10  7  1  0
 10 11  1  0
 11 14  1  0
 11 12  1  1
 13 12  1  0
 14 20  1  0
 15 14  2  0
 17 18  1  0
 17 16  1  1
 19 17  1  0
 19 20  1  1
 21 23  1  0
 21 19  1  0
 22 21  2  0
M  END
$$$$
