TYG.pdb
     RDKit          3D

 24 24  0  0  1  0  0  0  0  0999 V2000
    7.3081  -14.6268   17.8175 C   0  0  0  0  0  0  0  0  0  0  0  0
    7.9568  -14.8806   19.1613 C   0  0  1  0  0  0  0  0  0  0  0  0
    9.2592  -15.3069   18.9816 O   0  0  0  0  0  0  0  0  0  0  0  0
    7.8519  -13.6542   20.0427 C   0  0  2  0  0  0  0  0  0  0  0  0
    8.2799  -12.4582   19.3881 N   0  0  0  0  0  0  0  0  0  0  0  0
    8.4840  -13.8683   21.3639 C   0  0  0  0  0  0  0  0  0  0  0  0
    9.5024  -13.1643   21.6229 O   0  0  0  0  0  0  0  0  0  0  0  0
    6.1162  -10.3417   27.5694 O   0  0  0  0  0  0  0  0  0  0  0  0
    6.4878  -11.4949   26.8696 C   0  0  0  0  0  0  0  0  0  0  0  0
    7.5813  -12.2336   27.2642 C   0  0  0  0  0  0  0  0  0  0  0  0
    7.9550  -13.3692   26.5825 C   0  0  0  0  0  0  0  0  0  0  0  0
    7.2595  -13.8210   25.4797 C   0  0  0  0  0  0  0  0  0  0  0  0
    7.6053  -15.0198   24.7231 C   0  0  0  0  0  0  0  0  0  0  0  0
    8.6416  -14.8272   23.6435 C   0  0  2  0  0  0  0  0  0  0  0  0
    8.0310  -14.7840   22.3230 N   0  0  0  0  0  0  0  0  0  0  0  0
    9.6813  -15.8761   23.7043 C   0  0  0  0  0  0  0  0  0  0  0  0
    9.9359  -16.4114   24.8067 O   0  0  0  0  0  0  0  0  0  0  0  0
    6.1673  -13.0773   25.0912 C   0  0  0  0  0  0  0  0  0  0  0  0
    5.7777  -11.9232   25.7742 C   0  0  0  0  0  0  0  0  0  0  0  0
   10.3906  -16.2861   22.5534 N   0  0  0  0  0  0  0  0  0  0  0  0
   11.4820  -17.2408   22.6751 C   0  0  0  0  0  0  0  0  0  0  0  0
   12.0859  -17.5085   21.3511 C   0  0  0  0  0  0  0  0  0  0  0  0
   13.1430  -18.4196   21.3083 O   0  0  0  0  0  0  0  0  0  0  0  0
   11.7260  -16.9876   20.2822 O   0  0  0  0  0  0  0  0  0  0  0  0
  2  1  1  6
  2  3  1  0
  4  6  1  0
  4  2  1  0
  4  5  1  6
  6  7  2  0
  8  9  1  0
  9 10  2  0
 10 11  1  0
 12 11  2  0
 12 13  1  0
 14 13  1  1
 14 16  1  0
 15 14  1  0
 15  6  1  0
 16 17  2  0
 16 20  1  0
 18 12  1  0
 19  9  1  0
 19 18  2  0
 20 21  1  0
 21 22  1  0
 22 23  1  0
 24 22  2  0
M  END
$$$$
