TYG.pdb
     RDKit          3D

 24 24  0  0  1  0  0  0  0  0999 V2000
    6.4661  -14.2842   18.8488 C   0  0  0  0  0  0  0  0  0  0  0  0
    7.3218  -14.7425   20.0102 C   0  0  1  0  0  0  0  0  0  0  0  0
    8.3572  -15.5328   19.5482 O   0  0  0  0  0  0  0  0  0  0  0  0
    7.7991  -13.5558   20.8200 C   0  0  2  0  0  0  0  0  0  0  0  0
    8.4732  -12.5750   20.0289 N   0  0  0  0  0  0  0  0  0  0  0  0
    8.5569  -13.9755   22.0202 C   0  0  0  0  0  0  0  0  0  0  0  0
    9.7575  -13.5847   22.0948 O   0  0  0  0  0  0  0  0  0  0  0  0
    5.5377  -10.3660   27.1498 O   0  0  0  0  0  0  0  0  0  0  0  0
    6.1398  -11.5587   26.7344 C   0  0  0  0  0  0  0  0  0  0  0  0
    5.3955  -12.5469   26.1287 C   0  0  0  0  0  0  0  0  0  0  0  0
    5.9782  -13.7235   25.7167 C   0  0  0  0  0  0  0  0  0  0  0  0
    7.3250  -13.9705   25.8878 C   0  0  0  0  0  0  0  0  0  0  0  0
    7.9973  -15.1948   25.4656 C   0  0  0  0  0  0  0  0  0  0  0  0
    8.8454  -15.0720   24.2237 C   0  0  2  0  0  0  0  0  0  0  0  0
    8.0345  -14.7624   23.0554 N   0  0  0  0  0  0  0  0  0  0  0  0
    9.6441  -16.2948   23.9963 C   0  0  0  0  0  0  0  0  0  0  0  0
   10.3870  -16.7108   24.9137 O   0  0  0  0  0  0  0  0  0  0  0  0
    8.0627  -12.9778   26.4939 C   0  0  0  0  0  0  0  0  0  0  0  0
    7.4835  -11.7795   26.9167 C   0  0  0  0  0  0  0  0  0  0  0  0
    9.5889  -17.0010   22.7739 N   0  0  0  0  0  0  0  0  0  0  0  0
   10.8115  -17.2567   22.0274 C   0  0  0  0  0  0  0  0  0  0  0  0
   11.6989  -18.1678   22.7835 C   0  0  0  0  0  0  0  0  0  0  0  0
   12.9411  -17.6641   23.1743 O   0  0  0  0  0  0  0  0  0  0  0  0
   11.4243  -19.3387   23.0947 O   0  0  0  0  0  0  0  0  0  0  0  0
  2  1  1  6
  2  3  1  0
  4  6  1  0
  4  2  1  0
  4  5  1  6
  6  7  2  0
  8  9  1  0
  9 10  2  0
 10 11  1  0
 12 11  2  0
 12 13  1  0
 14 13  1  1
 14 16  1  0
 15 14  1  0
 15  6  1  0
 16 17  2  0
 16 20  1  0
 18 12  1  0
 19  9  1  0
 19 18  2  0
 20 21  1  0
 21 22  1  0
 22 23  1  0
 24 22  2  0
M  END
$$$$
