TYG.pdb
     RDKit          3D

 24 24  0  0  1  0  0  0  0  0999 V2000
    7.9958  -15.7012   17.0559 C   0  0  0  0  0  0  0  0  0  0  0  0
    8.2685  -15.4855   18.5290 C   0  0  1  0  0  0  0  0  0  0  0  0
    9.5574  -15.8825   18.8316 O   0  0  0  0  0  0  0  0  0  0  0  0
    7.9848  -14.0502   18.9180 C   0  0  2  0  0  0  0  0  0  0  0  0
    8.6190  -13.1027   18.0566 N   0  0  0  0  0  0  0  0  0  0  0  0
    8.2362  -13.8081   20.3564 C   0  0  0  0  0  0  0  0  0  0  0  0
    9.2408  -13.0946   20.6414 O   0  0  0  0  0  0  0  0  0  0  0  0
    7.0732  -11.7919   28.8433 O   0  0  0  0  0  0  0  0  0  0  0  0
    6.9316  -12.3224   27.5565 C   0  0  0  0  0  0  0  0  0  0  0  0
    7.2308  -13.6432   27.3049 C   0  0  0  0  0  0  0  0  0  0  0  0
    7.0950  -14.1745   26.0427 C   0  0  0  0  0  0  0  0  0  0  0  0
    6.6563  -13.4180   24.9753 C   0  0  0  0  0  0  0  0  0  0  0  0
    6.4872  -13.9287   23.6189 C   0  0  0  0  0  0  0  0  0  0  0  0
    7.7406  -13.9633   22.7795 C   0  0  2  0  0  0  0  0  0  0  0  0
    7.4447  -14.3114   21.3976 N   0  0  0  0  0  0  0  0  0  0  0  0
    8.7423  -14.8893   23.3487 C   0  0  0  0  0  0  0  0  0  0  0  0
    9.1160  -14.7227   24.5315 O   0  0  0  0  0  0  0  0  0  0  0  0
    6.3589  -12.0984   25.2345 C   0  0  0  0  0  0  0  0  0  0  0  0
    6.4925  -11.5471   26.5106 C   0  0  0  0  0  0  0  0  0  0  0  0
    9.2848  -15.9523   22.5926 N   0  0  0  0  0  0  0  0  0  0  0  0
   10.2606  -16.8478   23.1954 C   0  0  0  0  0  0  0  0  0  0  0  0
   11.6348  -16.4338   22.8359 C   0  0  0  0  0  0  0  0  0  0  0  0
   12.2957  -15.5858   23.7267 O   0  0  0  0  0  0  0  0  0  0  0  0
   12.2409  -16.7813   21.8086 O   0  0  0  0  0  0  0  0  0  0  0  0
  2  1  1  6
  2  3  1  0
  4  6  1  0
  4  2  1  0
  4  5  1  6
  6  7  2  0
  8  9  1  0
  9 10  2  0
 10 11  1  0
 12 11  2  0
 12 13  1  0
 14 13  1  1
 14 16  1  0
 15 14  1  0
 15  6  1  0
 16 17  2  0
 16 20  1  0
 18 12  1  0
 19  9  1  0
 19 18  2  0
 20 21  1  0
 21 22  1  0
 22 23  1  0
 24 22  2  0
M  END
$$$$
