TYG.pdb
     RDKit          3D

 24 24  0  0  1  0  0  0  0  0999 V2000
 5536.5176  632.138124388.3633 C   0  0  0  0  0  0  0  0  0  0  0  0
 5536.9902  631.676524386.9961 C   0  0  1  0  0  0  0  0  0  0  0  0
 5536.2480  630.590824386.5801 O   0  0  0  0  0  0  0  0  0  0  0  0
 5536.9683  632.823724386.0098 C   0  0  2  0  0  0  0  0  0  0  0  0
 5537.7002  633.965124386.4473 N   0  0  0  0  0  0  0  0  0  0  0  0
 5535.5869  633.136624385.5645 C   0  0  0  0  0  0  0  0  0  0  0  0
 5534.9546  633.994424386.2441 O   0  0  0  0  0  0  0  0  0  0  0  0
 5530.1060  632.295824389.6367 O   0  0  0  0  0  0  0  0  0  0  0  0
 5530.7358  632.133724388.3906 C   0  0  0  0  0  0  0  0  0  0  0  0
 5529.9995  632.092324387.2402 C   0  0  0  0  0  0  0  0  0  0  0  0
 5530.6113  631.933124386.0078 C   0  0  0  0  0  0  0  0  0  0  0  0
 5531.9810  631.807024385.8848 C   0  0  0  0  0  0  0  0  0  0  0  0
 5532.6821  631.641124384.6250 C   0  0  0  0  0  0  0  0  0  0  0  0
 5533.5439  632.806324384.1973 C   0  0  2  0  0  0  0  0  0  0  0  0
 5534.9526  632.547524384.4609 N   0  0  0  0  0  0  0  0  0  0  0  0
 5533.1113  634.058224384.8613 C   0  0  0  0  0  0  0  0  0  0  0  0
 5533.4858  635.152524384.3809 O   0  0  0  0  0  0  0  0  0  0  0  0
 5532.7104  631.847724387.0605 C   0  0  0  0  0  0  0  0  0  0  0  0
 5532.1011  632.010024388.3047 C   0  0  0  0  0  0  0  0  0  0  0  0
 5532.2915  634.049024386.0059 N   0  0  0  0  0  0  0  0  0  0  0  0
 5531.8413  632.783024386.5742 C   0  0  0  0  0  0  0  0  0  0  0  0
 5532.9570  631.815224386.6250 C   0  0  0  0  0  0  0  0  0  0  0  0
 5532.9712  630.920124387.6953 O   0  0  0  0  0  0  0  0  0  0  0  0
 5533.8779  631.740724385.7949 O   0  0  0  0  0  0  0  0  0  0  0  0
  2  1  1  1
  2  3  1  0
  4  6  1  0
  4  2  1  0
  4  5  1  1
  6  7  2  0
  8  9  1  0
  9 10  2  0
 10 11  1  0
 12 11  2  0
 12 13  1  0
 14 13  1  1
 14 16  1  0
 15 14  1  0
 15  6  1  0
 16 17  2  0
 16 20  1  0
 18 12  1  0
 19  9  1  0
 19 18  2  0
 20 21  1  0
 21 22  1  0
 22 23  1  0
 24 22  2  0
M  END
$$$$
