TYG.pdb
     RDKit          3D

 24 24  0  0  1  0  0  0  0  0999 V2000
    6.7965  -13.7950   18.3646 C   0  0  0  0  0  0  0  0  0  0  0  0
    7.5433  -14.3827   19.5428 C   0  0  1  0  0  0  0  0  0  0  0  0
    8.6867  -15.0225   19.1029 O   0  0  0  0  0  0  0  0  0  0  0  0
    7.8237  -13.3166   20.5804 C   0  0  2  0  0  0  0  0  0  0  0  0
    8.4550  -12.1574   20.0330 N   0  0  0  0  0  0  0  0  0  0  0  0
    8.5179  -13.8687   21.7653 C   0  0  0  0  0  0  0  0  0  0  0  0
    9.7242  -13.5233   21.9243 O   0  0  0  0  0  0  0  0  0  0  0  0
    6.2113  -10.4802   27.3145 O   0  0  0  0  0  0  0  0  0  0  0  0
    6.6242  -11.6950   26.7566 C   0  0  0  0  0  0  0  0  0  0  0  0
    5.7877  -12.4055   25.9242 C   0  0  0  0  0  0  0  0  0  0  0  0
    6.1844  -13.6013   25.3706 C   0  0  0  0  0  0  0  0  0  0  0  0
    7.4285  -14.1440   25.6190 C   0  0  0  0  0  0  0  0  0  0  0  0
    7.9047  -15.4029   25.0554 C   0  0  0  0  0  0  0  0  0  0  0  0
    8.7217  -15.2787   23.7930 C   0  0  2  0  0  0  0  0  0  0  0  0
    7.9309  -14.7318   22.7004 N   0  0  0  0  0  0  0  0  0  0  0  0
    9.3167  -16.5761   23.4090 C   0  0  0  0  0  0  0  0  0  0  0  0
    8.8187  -17.6288   23.8677 O   0  0  0  0  0  0  0  0  0  0  0  0
    8.2594  -13.4279   26.4520 C   0  0  0  0  0  0  0  0  0  0  0  0
    7.8689  -12.2134   27.0202 C   0  0  0  0  0  0  0  0  0  0  0  0
   10.4285  -16.6552   22.5408 N   0  0  0  0  0  0  0  0  0  0  0  0
   11.7669  -16.3964   23.0499 C   0  0  0  0  0  0  0  0  0  0  0  0
   12.4004  -17.6541   23.5038 C   0  0  0  0  0  0  0  0  0  0  0  0
   11.8633  -18.2607   24.6410 O   0  0  0  0  0  0  0  0  0  0  0  0
   13.3672  -18.2073   22.9536 O   0  0  0  0  0  0  0  0  0  0  0  0
  2  1  1  6
  2  3  1  0
  4  6  1  0
  4  2  1  0
  4  5  1  6
  6  7  2  0
  8  9  1  0
  9 10  2  0
 10 11  1  0
 12 11  2  0
 12 13  1  0
 14 13  1  1
 14 16  1  0
 15 14  1  0
 15  6  1  0
 16 17  2  0
 16 20  1  0
 18 12  1  0
 19  9  1  0
 19 18  2  0
 20 21  1  0
 21 22  1  0
 22 23  1  0
 24 22  2  0
M  END
$$$$
