TYG.pdb
     RDKit          3D

 24 24  0  0  1  0  0  0  0  0999 V2000
    6.8447  -14.3097   18.4998 C   0  0  0  0  0  0  0  0  0  0  0  0
    7.5759  -14.7280   19.7573 C   0  0  1  0  0  0  0  0  0  0  0  0
    8.6587  -15.5221   19.4294 O   0  0  0  0  0  0  0  0  0  0  0  0
    7.9588  -13.5152   20.5786 C   0  0  2  0  0  0  0  0  0  0  0  0
    8.6789  -12.5365   19.8265 N   0  0  0  0  0  0  0  0  0  0  0  0
    8.6187  -13.8942   21.8480 C   0  0  0  0  0  0  0  0  0  0  0  0
    9.8079  -13.4938   22.0071 O   0  0  0  0  0  0  0  0  0  0  0  0
    5.7870  -10.1166   27.3168 O   0  0  0  0  0  0  0  0  0  0  0  0
    6.2837  -11.3234   26.8124 C   0  0  0  0  0  0  0  0  0  0  0  0
    7.6270  -11.6173   26.8916 C   0  0  0  0  0  0  0  0  0  0  0  0
    8.1255  -12.8015   26.3984 C   0  0  0  0  0  0  0  0  0  0  0  0
    7.3123  -13.7453   25.8051 C   0  0  0  0  0  0  0  0  0  0  0  0
    7.7836  -15.0189   25.2712 C   0  0  0  0  0  0  0  0  0  0  0  0
    8.7313  -14.9193   24.1014 C   0  0  2  0  0  0  0  0  0  0  0  0
    8.0176  -14.6531   22.8611 N   0  0  0  0  0  0  0  0  0  0  0  0
    9.5597  -16.1370   23.9765 C   0  0  0  0  0  0  0  0  0  0  0  0
   10.0952  -16.6116   25.0035 O   0  0  0  0  0  0  0  0  0  0  0  0
    5.9704  -13.4445   25.7296 C   0  0  0  0  0  0  0  0  0  0  0  0
    5.4520  -12.2466   26.2261 C   0  0  0  0  0  0  0  0  0  0  0  0
    9.7600  -16.7744   22.7317 N   0  0  0  0  0  0  0  0  0  0  0  0
   10.5867  -17.9693   22.6527 C   0  0  0  0  0  0  0  0  0  0  0  0
   12.0124  -17.6036   22.5015 C   0  0  0  0  0  0  0  0  0  0  0  0
   12.9097  -18.6414   22.2421 O   0  0  0  0  0  0  0  0  0  0  0  0
   12.4683  -16.4511   22.5875 O   0  0  0  0  0  0  0  0  0  0  0  0
  2  1  1  6
  2  3  1  0
  4  6  1  0
  4  2  1  0
  4  5  1  6
  6  7  2  0
  8  9  1  0
  9 10  2  0
 10 11  1  0
 12 11  2  0
 12 13  1  0
 14 13  1  1
 14 16  1  0
 15 14  1  0
 15  6  1  0
 16 17  2  0
 16 20  1  0
 18 12  1  0
 19  9  1  0
 19 18  2  0
 20 21  1  0
 21 22  1  0
 22 23  1  0
 24 22  2  0
M  END
$$$$
