TYG.pdb
     RDKit          3D

 24 24  0  0  1  0  0  0  0  0999 V2000
    6.4618  -26.2764   19.5090 C   0  0  0  0  0  0  0  0  0  0  0  0
    6.2196  -25.0058   20.2951 C   0  0  1  0  0  0  0  0  0  0  0  0
    6.5458  -23.9064   19.5237 O   0  0  0  0  0  0  0  0  0  0  0  0
    4.7979  -24.9639   20.8137 C   0  0  2  0  0  0  0  0  0  0  0  0
    3.8251  -24.8864   19.7699 N   0  0  0  0  0  0  0  0  0  0  0  0
    4.6244  -23.9380   21.8664 C   0  0  0  0  0  0  0  0  0  0  0  0
    4.2343  -22.7973   21.4836 O   0  0  0  0  0  0  0  0  0  0  0  0
   -1.5302  -23.8848   22.4064 O   0  0  0  0  0  0  0  0  0  0  0  0
   -0.3025  -23.7682   23.0673 C   0  0  0  0  0  0  0  0  0  0  0  0
    0.4742  -24.8803   23.3066 C   0  0  0  0  0  0  0  0  0  0  0  0
    1.6831  -24.7762   23.9560 C   0  0  0  0  0  0  0  0  0  0  0  0
    2.1737  -23.5639   24.3959 C   0  0  0  0  0  0  0  0  0  0  0  0
    3.4496  -23.3929   25.0830 C   0  0  0  0  0  0  0  0  0  0  0  0
    4.6277  -23.0834   24.1925 C   0  0  2  0  0  0  0  0  0  0  0  0
    4.8613  -24.1508   23.2310 N   0  0  0  0  0  0  0  0  0  0  0  0
    5.8460  -22.8196   24.9866 C   0  0  0  0  0  0  0  0  0  0  0  0
    6.0702  -23.5192   26.0000 O   0  0  0  0  0  0  0  0  0  0  0  0
    1.3917  -22.4565   24.1529 C   0  0  0  0  0  0  0  0  0  0  0  0
    0.1632  -22.5485   23.4952 C   0  0  0  0  0  0  0  0  0  0  0  0
    6.7586  -21.8017   24.6304 N   0  0  0  0  0  0  0  0  0  0  0  0
    7.9583  -21.5911   25.4265 C   0  0  0  0  0  0  0  0  0  0  0  0
    8.7386  -20.4516   24.8958 C   0  0  0  0  0  0  0  0  0  0  0  0
    9.8871  -20.0858   25.6005 O   0  0  0  0  0  0  0  0  0  0  0  0
    8.4512  -19.8002   23.8777 O   0  0  0  0  0  0  0  0  0  0  0  0
  2  1  1  6
  2  3  1  0
  4  6  1  0
  4  2  1  0
  4  5  1  6
  6  7  2  0
  8  9  1  0
  9 10  2  0
 10 11  1  0
 12 11  2  0
 12 13  1  0
 14 13  1  1
 14 16  1  0
 15 14  1  0
 15  6  1  0
 16 17  2  0
 16 20  1  0
 18 12  1  0
 19  9  1  0
 19 18  2  0
 20 21  1  0
 21 22  1  0
 22 23  1  0
 24 22  2  0
M  END
$$$$
