TYG.pdb
     RDKit          3D

 24 24  0  0  1  0  0  0  0  0999 V2000
    6.5772  -14.8455   18.2429 C   0  0  0  0  0  0  0  0  0  0  0  0
    7.4503  -14.9542   19.4745 C   0  0  1  0  0  0  0  0  0  0  0  0
    8.6778  -15.4910   19.1347 O   0  0  0  0  0  0  0  0  0  0  0  0
    7.5625  -13.6128   20.1672 C   0  0  2  0  0  0  0  0  0  0  0  0
    8.0173  -12.5727   19.2992 N   0  0  0  0  0  0  0  0  0  0  0  0
    8.3240  -13.7071   21.4329 C   0  0  0  0  0  0  0  0  0  0  0  0
    9.4482  -13.1280   21.4595 O   0  0  0  0  0  0  0  0  0  0  0  0
   10.5446  -14.7196   29.9788 O   0  0  0  0  0  0  0  0  0  0  0  0
    9.8724  -14.7189   28.7516 C   0  0  0  0  0  0  0  0  0  0  0  0
    9.5984  -15.9015   28.1008 C   0  0  0  0  0  0  0  0  0  0  0  0
    8.9380  -15.9115   26.8935 C   0  0  0  0  0  0  0  0  0  0  0  0
    8.5207  -14.7482   26.2797 C   0  0  0  0  0  0  0  0  0  0  0  0
    7.8119  -14.6987   25.0052 C   0  0  0  0  0  0  0  0  0  0  0  0
    8.6533  -14.3215   23.8110 C   0  0  2  0  0  0  0  0  0  0  0  0
    7.8832  -14.3847   22.5776 N   0  0  0  0  0  0  0  0  0  0  0  0
    9.8613  -15.1680   23.7166 C   0  0  0  0  0  0  0  0  0  0  0  0
   10.7362  -15.0740   24.6067 O   0  0  0  0  0  0  0  0  0  0  0  0
    8.7981  -13.5698   26.9365 C   0  0  0  0  0  0  0  0  0  0  0  0
    9.4676  -13.5460   28.1618 C   0  0  0  0  0  0  0  0  0  0  0  0
   10.0504  -16.0759   22.6508 N   0  0  0  0  0  0  0  0  0  0  0  0
   11.1879  -16.9833   22.6634 C   0  0  0  0  0  0  0  0  0  0  0  0
   11.1712  -17.8512   21.4652 C   0  0  0  0  0  0  0  0  0  0  0  0
   12.2042  -18.7824   21.3416 O   0  0  0  0  0  0  0  0  0  0  0  0
   10.3136  -17.8143   20.5671 O   0  0  0  0  0  0  0  0  0  0  0  0
  2  1  1  6
  2  3  1  0
  4  6  1  0
  4  2  1  0
  4  5  1  6
  6  7  2  0
  8  9  1  0
  9 10  2  0
 10 11  1  0
 12 11  2  0
 12 13  1  0
 14 13  1  1
 14 16  1  0
 15 14  1  0
 15  6  1  0
 16 17  2  0
 16 20  1  0
 18 12  1  0
 19  9  1  0
 19 18  2  0
 20 21  1  0
 21 22  1  0
 22 23  1  0
 24 22  2  0
M  END
$$$$
