TYG.pdb
     RDKit          3D

 24 24  0  0  1  0  0  0  0  0999 V2000
    6.4699  -14.5650   18.7170 C   0  0  0  0  0  0  0  0  0  0  0  0
    7.4166  -14.9256   19.8416 C   0  0  1  0  0  0  0  0  0  0  0  0
    8.5383  -15.5502   19.3298 O   0  0  0  0  0  0  0  0  0  0  0  0
    7.7468  -13.7034   20.6717 C   0  0  2  0  0  0  0  0  0  0  0  0
    8.2408  -12.6143   19.8894 N   0  0  0  0  0  0  0  0  0  0  0  0
    8.6024  -14.0388   21.8320 C   0  0  0  0  0  0  0  0  0  0  0  0
    9.7286  -13.4659   21.8869 O   0  0  0  0  0  0  0  0  0  0  0  0
    5.8754  -10.4496   27.1513 O   0  0  0  0  0  0  0  0  0  0  0  0
    6.4607  -11.6339   26.6905 C   0  0  0  0  0  0  0  0  0  0  0  0
    5.6780  -12.6948   26.2915 C   0  0  0  0  0  0  0  0  0  0  0  0
    6.2440  -13.8639   25.8369 C   0  0  0  0  0  0  0  0  0  0  0  0
    7.6115  -14.0309   25.7586 C   0  0  0  0  0  0  0  0  0  0  0  0
    8.2663  -15.2437   25.2793 C   0  0  0  0  0  0  0  0  0  0  0  0
    9.0910  -15.0817   24.0262 C   0  0  2  0  0  0  0  0  0  0  0  0
    8.2464  -14.9333   22.8502 N   0  0  0  0  0  0  0  0  0  0  0  0
   10.0328  -16.2078   23.8543 C   0  0  0  0  0  0  0  0  0  0  0  0
   10.7189  -16.5769   24.8339 O   0  0  0  0  0  0  0  0  0  0  0  0
    8.3876  -12.9659   26.1591 C   0  0  0  0  0  0  0  0  0  0  0  0
    7.8258  -11.7744   26.6224 C   0  0  0  0  0  0  0  0  0  0  0  0
   10.1759  -16.8738   22.6165 N   0  0  0  0  0  0  0  0  0  0  0  0
   11.0907  -17.9994   22.4993 C   0  0  0  0  0  0  0  0  0  0  0  0
   10.9555  -18.6405   21.1728 C   0  0  0  0  0  0  0  0  0  0  0  0
   12.1168  -18.7680   20.4082 O   0  0  0  0  0  0  0  0  0  0  0  0
    9.8943  -19.0710   20.6912 O   0  0  0  0  0  0  0  0  0  0  0  0
  2  1  1  6
  2  3  1  0
  4  6  1  0
  4  2  1  0
  4  5  1  6
  6  7  2  0
  8  9  1  0
  9 10  2  0
 10 11  1  0
 12 11  2  0
 12 13  1  0
 14 13  1  1
 14 16  1  0
 15 14  1  0
 15  6  1  0
 16 17  2  0
 16 20  1  0
 18 12  1  0
 19  9  1  0
 19 18  2  0
 20 21  1  0
 21 22  1  0
 22 23  1  0
 24 22  2  0
M  END
$$$$
