TYG.pdb
     RDKit          3D

 24 24  0  0  1  0  0  0  0  0999 V2000
    6.3673  -14.3855   18.3346 C   0  0  0  0  0  0  0  0  0  0  0  0
    7.2747  -14.6450   19.5179 C   0  0  1  0  0  0  0  0  0  0  0  0
    8.3983  -15.3364   19.1061 O   0  0  0  0  0  0  0  0  0  0  0  0
    7.6046  -13.3500   20.2294 C   0  0  2  0  0  0  0  0  0  0  0  0
    8.2072  -12.3795   19.3710 N   0  0  0  0  0  0  0  0  0  0  0  0
    8.3564  -13.5847   21.4826 C   0  0  0  0  0  0  0  0  0  0  0  0
    9.6046  -13.3857   21.4374 O   0  0  0  0  0  0  0  0  0  0  0  0
   10.8017  -14.9763   29.8994 O   0  0  0  0  0  0  0  0  0  0  0  0
   10.0697  -14.7826   28.7229 C   0  0  0  0  0  0  0  0  0  0  0  0
    9.4730  -15.8472   28.0841 C   0  0  0  0  0  0  0  0  0  0  0  0
    8.7511  -15.6671   26.9264 C   0  0  0  0  0  0  0  0  0  0  0  0
    8.5900  -14.4227   26.3524 C   0  0  0  0  0  0  0  0  0  0  0  0
    7.8312  -14.1716   25.1315 C   0  0  0  0  0  0  0  0  0  0  0  0
    8.6175  -14.2759   23.8480 C   0  0  2  0  0  0  0  0  0  0  0  0
    7.7801  -14.0049   22.6888 N   0  0  0  0  0  0  0  0  0  0  0  0
    9.2698  -15.5965   23.7240 C   0  0  0  0  0  0  0  0  0  0  0  0
    8.5533  -16.6155   23.6028 O   0  0  0  0  0  0  0  0  0  0  0  0
    9.1893  -13.3632   26.9967 C   0  0  0  0  0  0  0  0  0  0  0  0
    9.9245  -13.5324   28.1719 C   0  0  0  0  0  0  0  0  0  0  0  0
   10.6758  -15.7345   23.7391 N   0  0  0  0  0  0  0  0  0  0  0  0
   11.2782  -17.0477   23.5654 C   0  0  0  0  0  0  0  0  0  0  0  0
   12.1103  -17.3949   24.7385 C   0  0  0  0  0  0  0  0  0  0  0  0
   11.7145  -18.5018   25.4920 O   0  0  0  0  0  0  0  0  0  0  0  0
   13.1272  -16.7805   25.1013 O   0  0  0  0  0  0  0  0  0  0  0  0
  2  1  1  6
  2  3  1  0
  4  6  1  0
  4  2  1  0
  4  5  1  6
  6  7  2  0
  8  9  1  0
  9 10  2  0
 10 11  1  0
 12 11  2  0
 12 13  1  0
 14 13  1  1
 14 16  1  0
 15 14  1  0
 15  6  1  0
 16 17  2  0
 16 20  1  0
 18 12  1  0
 19  9  1  0
 19 18  2  0
 20 21  1  0
 21 22  1  0
 22 23  1  0
 24 22  2  0
M  END
$$$$
