YWN.pdb
     RDKit          3D

 35 37  0  0  1  0  0  0  0  0999 V2000
    7.3895  -14.2688   14.2579 O   0  0  0  0  0  0  0  0  0  0  0  0
    7.8245  -14.0285   15.5412 C   0  0  0  0  0  0  0  0  0  0  0  0
    6.9289  -14.1217   16.5723 C   0  0  0  0  0  0  0  0  0  0  0  0
    7.3711  -13.8807   17.8614 C   0  0  0  0  0  0  0  0  0  0  0  0
    8.6869  -13.5583   18.0527 C   0  0  0  0  0  0  0  0  0  0  0  0
    9.1361  -13.3028   19.4604 C   0  0  0  0  0  0  0  0  0  0  0  0
    9.8037  -14.5496   19.9344 C   0  0  2  0  0  0  0  0  0  0  0  0
    9.1517  -15.7575   19.4801 N   0  0  0  0  0  0  0  0  0  0  0  0
    9.9316  -14.5995   21.4094 C   0  0  0  0  0  0  0  0  0  0  0  0
   10.5496  -13.7210   22.0717 O   0  0  0  0  0  0  0  0  0  0  0  0
    9.6001  -13.4591   17.0359 C   0  0  0  0  0  0  0  0  0  0  0  0
    9.1563  -13.7002   15.7523 C   0  0  0  0  0  0  0  0  0  0  0  0
    9.3456  -15.6719   22.1563 N   0  0  0  0  0  0  0  0  0  0  0  0
    8.9868  -15.4451   23.5794 C   0  0  1  0  0  0  0  0  0  0  0  0
    7.4977  -15.2834   23.6850 C   0  0  0  0  0  0  0  0  0  0  0  0
    6.9838  -14.9581   25.0199 C   0  0  0  0  0  0  0  0  0  0  0  0
    6.2964  -15.7028   25.9528 C   0  0  0  0  0  0  0  0  0  0  0  0
    6.0193  -14.9596   27.0316 N   0  0  0  0  0  0  0  0  0  0  0  0
    6.5063  -13.7251   26.8455 C   0  0  0  0  0  0  0  0  0  0  0  0
    6.4679  -12.6037   27.6826 C   0  0  0  0  0  0  0  0  0  0  0  0
    7.0478  -11.4390   27.2571 C   0  0  0  0  0  0  0  0  0  0  0  0
    7.6577  -11.4067   26.0027 C   0  0  0  0  0  0  0  0  0  0  0  0
    7.6919  -12.5058   25.1907 C   0  0  0  0  0  0  0  0  0  0  0  0
    7.1047  -13.6981   25.6143 C   0  0  0  0  0  0  0  0  0  0  0  0
    9.4662  -16.6363   24.2957 C   0  0  0  0  0  0  0  0  0  0  0  0
    9.1810  -16.8316   25.4981 O   0  0  0  0  0  0  0  0  0  0  0  0
   11.1706  -21.8411   24.7604 N   0  0  0  0  0  0  0  0  0  0  0  0
   12.0431  -20.8201   24.3164 C   0  0  0  0  0  0  0  0  0  0  0  0
   13.2633  -20.8841   24.5531 O   0  0  0  0  0  0  0  0  0  0  0  0
   11.4923  -19.6751   23.5634 C   0  0  0  0  0  0  0  0  0  0  0  0
   10.7883  -18.6967   24.5119 C   0  0  2  0  0  0  0  0  0  0  0  0
   10.2798  -17.6366   23.6525 N   0  0  0  0  0  0  0  0  0  0  0  0
   11.8331  -18.2351   25.4477 C   0  0  0  0  0  0  0  0  0  0  0  0
   12.5410  -17.0886   25.1957 O   0  0  0  0  0  0  0  0  0  0  0  0
   12.0850  -18.8880   26.4826 O   0  0  0  0  0  0  0  0  0  0  0  0
  2  3  2  0
  2  1  1  0
  4  3  1  0
  5  4  2  0
  6  7  1  0
  6  5  1  0
  7  8  1  1
  9  7  1  0
  9 10  2  0
 11  5  1  0
 11 12  2  0
 12  2  1  0
 13  9  1  0
 14 13  1  0
 14 25  1  0
 15 16  1  0
 14 15  1  6
 16 24  1  0
 17 18  1  0
 17 16  2  0
 18 19  1  0
 19 24  2  0
 19 20  1  0
 20 21  2  0
 21 22  1  0
 23 22  2  0
 24 23  1  0
 25 32  1  0
 26 25  2  0
 28 27  1  0
 29 28  2  0
 30 28  1  0
 31 30  1  6
 32 31  1  0
 33 31  1  0
 34 33  1  0
 35 33  2  0
M  END
$$$$
