YWN.pdb
     RDKit          3D

 35 37  0  0  1  0  0  0  0  0999 V2000
    7.2095  -13.6945   15.8005 O   0  0  0  0  0  0  0  0  0  0  0  0
    7.3394  -13.8294   17.1639 C   0  0  0  0  0  0  0  0  0  0  0  0
    7.8848  -12.7995   17.8822 C   0  0  0  0  0  0  0  0  0  0  0  0
    8.0120  -12.9389   19.2532 C   0  0  0  0  0  0  0  0  0  0  0  0
    7.5875  -14.1020   19.8353 C   0  0  0  0  0  0  0  0  0  0  0  0
    7.7384  -14.2234   21.3223 C   0  0  0  0  0  0  0  0  0  0  0  0
    8.8266  -15.2137   21.5671 C   0  0  2  0  0  0  0  0  0  0  0  0
    8.5187  -16.5376   21.0743 N   0  0  0  0  0  0  0  0  0  0  0  0
    9.1961  -15.3089   22.9985 C   0  0  0  0  0  0  0  0  0  0  0  0
    9.7982  -14.3849   23.6116 O   0  0  0  0  0  0  0  0  0  0  0  0
    7.0394  -15.1451   19.1361 C   0  0  0  0  0  0  0  0  0  0  0  0
    6.9136  -15.0031   17.7698 C   0  0  0  0  0  0  0  0  0  0  0  0
    8.8770  -16.4807   23.7576 N   0  0  0  0  0  0  0  0  0  0  0  0
    9.3171  -16.5622   25.1736 C   0  0  1  0  0  0  0  0  0  0  0  0
    8.1096  -16.7413   26.0480 C   0  0  0  0  0  0  0  0  0  0  0  0
    7.1355  -15.6447   26.0239 C   0  0  0  0  0  0  0  0  0  0  0  0
    5.8262  -15.5802   25.6010 C   0  0  0  0  0  0  0  0  0  0  0  0
    5.3446  -14.3408   25.7595 N   0  0  0  0  0  0  0  0  0  0  0  0
    6.3047  -13.5653   26.2816 C   0  0  0  0  0  0  0  0  0  0  0  0
    6.2818  -12.2083   26.6252 C   0  0  0  0  0  0  0  0  0  0  0  0
    7.4100  -11.6388   27.1511 C   0  0  0  0  0  0  0  0  0  0  0  0
    8.5466  -12.4287   27.3271 C   0  0  0  0  0  0  0  0  0  0  0  0
    8.5616  -13.7532   26.9898 C   0  0  0  0  0  0  0  0  0  0  0  0
    7.4174  -14.3442   26.4536 C   0  0  0  0  0  0  0  0  0  0  0  0
   10.2205  -17.7207   25.2337 C   0  0  0  0  0  0  0  0  0  0  0  0
   10.3508  -18.4958   24.2603 O   0  0  0  0  0  0  0  0  0  0  0  0
   15.2215  -19.8242   25.2370 N   0  0  0  0  0  0  0  0  0  0  0  0
   13.8269  -20.0132   25.0953 C   0  0  0  0  0  0  0  0  0  0  0  0
   13.3666  -21.1338   24.8103 O   0  0  0  0  0  0  0  0  0  0  0  0
   12.9179  -18.8659   25.2928 C   0  0  0  0  0  0  0  0  0  0  0  0
   11.8422  -19.2053   26.3321 C   0  0  2  0  0  0  0  0  0  0  0  0
   11.0015  -18.0184   26.4075 N   0  0  0  0  0  0  0  0  0  0  0  0
   12.5765  -19.4776   27.5840 C   0  0  0  0  0  0  0  0  0  0  0  0
   12.4781  -18.6246   28.6525 O   0  0  0  0  0  0  0  0  0  0  0  0
   13.2992  -20.4918   27.6825 O   0  0  0  0  0  0  0  0  0  0  0  0
  2  3  2  0
  2  1  1  0
  4  3  1  0
  5  4  2  0
  6  7  1  0
  6  5  1  0
  7  8  1  1
  9  7  1  0
  9 10  2  0
 11  5  1  0
 11 12  2  0
 12  2  1  0
 13  9  1  0
 14 13  1  0
 14 25  1  0
 15 16  1  0
 14 15  1  1
 16 24  1  0
 17 18  1  0
 17 16  2  0
 18 19  1  0
 19 24  2  0
 19 20  1  0
 20 21  2  0
 21 22  1  0
 23 22  2  0
 24 23  1  0
 25 32  1  0
 26 25  2  0
 28 27  1  0
 29 28  2  0
 30 28  1  0
 31 30  1  6
 32 31  1  0
 33 31  1  0
 34 33  1  0
 35 33  2  0
M  END
$$$$
