YWN.pdb
     RDKit          3D

 35 37  0  0  1  0  0  0  0  0999 V2000
    7.4437  -14.4026   14.4435 O   0  0  0  0  0  0  0  0  0  0  0  0
    7.8381  -14.3289   15.7599 C   0  0  0  0  0  0  0  0  0  0  0  0
    8.5257  -15.3797   16.3049 C   0  0  0  0  0  0  0  0  0  0  0  0
    8.9218  -15.3005   17.6287 C   0  0  0  0  0  0  0  0  0  0  0  0
    8.6089  -14.1742   18.3395 C   0  0  0  0  0  0  0  0  0  0  0  0
    9.0513  -14.1178   19.7712 C   0  0  0  0  0  0  0  0  0  0  0  0
    9.6423  -15.4487   20.0940 C   0  0  2  0  0  0  0  0  0  0  0  0
    8.6688  -16.5174   20.1202 N   0  0  0  0  0  0  0  0  0  0  0  0
   10.3843  -15.4445   21.3761 C   0  0  0  0  0  0  0  0  0  0  0  0
   11.5150  -14.9004   21.5094 O   0  0  0  0  0  0  0  0  0  0  0  0
    7.9215  -13.1114   17.8146 C   0  0  0  0  0  0  0  0  0  0  0  0
    7.5284  -13.1931   16.4949 C   0  0  0  0  0  0  0  0  0  0  0  0
    9.8336  -16.0728   22.5394 N   0  0  0  0  0  0  0  0  0  0  0  0
    9.6944  -15.2798   23.7873 C   0  0  1  0  0  0  0  0  0  0  0  0
    8.4930  -14.3876   23.6642 C   0  0  0  0  0  0  0  0  0  0  0  0
    7.5723  -14.3952   24.8063 C   0  0  0  0  0  0  0  0  0  0  0  0
    6.7455  -15.3694   25.3208 C   0  0  0  0  0  0  0  0  0  0  0  0
    6.0693  -14.8985   26.3763 N   0  0  0  0  0  0  0  0  0  0  0  0
    6.4233  -13.6230   26.5851 C   0  0  0  0  0  0  0  0  0  0  0  0
    5.9945  -12.7151   27.5607 C   0  0  0  0  0  0  0  0  0  0  0  0
    6.5156  -11.4493   27.5628 C   0  0  0  0  0  0  0  0  0  0  0  0
    7.4568  -11.1045   26.5922 C   0  0  0  0  0  0  0  0  0  0  0  0
    7.8713  -11.9963   25.6428 C   0  0  0  0  0  0  0  0  0  0  0  0
    7.3474  -13.2891   25.6316 C   0  0  0  0  0  0  0  0  0  0  0  0
    9.5399  -16.2709   24.8624 C   0  0  0  0  0  0  0  0  0  0  0  0
    9.1954  -15.9312   26.0162 O   0  0  0  0  0  0  0  0  0  0  0  0
   11.2059  -19.2657   28.1721 N   0  0  0  0  0  0  0  0  0  0  0  0
    9.8377  -19.4535   27.8660 C   0  0  0  0  0  0  0  0  0  0  0  0
    9.0729  -19.9865   28.6906 O   0  0  0  0  0  0  0  0  0  0  0  0
    9.3218  -19.0068   26.5562 C   0  0  0  0  0  0  0  0  0  0  0  0
   10.4475  -18.3886   25.7176 C   0  0  2  0  0  0  0  0  0  0  0  0
    9.7707  -17.6761   24.6428 N   0  0  0  0  0  0  0  0  0  0  0  0
   11.2547  -19.5293   25.2405 C   0  0  0  0  0  0  0  0  0  0  0  0
   12.0871  -20.2037   26.0957 O   0  0  0  0  0  0  0  0  0  0  0  0
   11.1883  -19.8927   24.0471 O   0  0  0  0  0  0  0  0  0  0  0  0
  2  3  2  0
  2  1  1  0
  4  3  1  0
  5  4  2  0
  6  7  1  0
  6  5  1  0
  7  8  1  1
  9  7  1  0
  9 10  2  0
 11  5  1  0
 11 12  2  0
 12  2  1  0
 13  9  1  0
 14 13  1  0
 14 25  1  0
 15 16  1  0
 14 15  1  6
 16 24  1  0
 17 18  1  0
 17 16  2  0
 18 19  1  0
 19 24  2  0
 19 20  1  0
 20 21  2  0
 21 22  1  0
 23 22  2  0
 24 23  1  0
 25 32  1  0
 26 25  2  0
 28 27  1  0
 29 28  2  0
 30 28  1  0
 31 30  1  1
 32 31  1  0
 33 31  1  0
 34 33  1  0
 35 33  2  0
M  END
$$$$
