YWN.pdb
     RDKit          3D

 35 37  0  0  1  0  0  0  0  0999 V2000
    7.6431  -13.7448   16.3507 O   0  0  0  0  0  0  0  0  0  0  0  0
    7.8255  -13.8223   17.7125 C   0  0  0  0  0  0  0  0  0  0  0  0
    8.8766  -13.1527   18.2790 C   0  0  0  0  0  0  0  0  0  0  0  0
    9.0552  -13.2322   19.6491 C   0  0  0  0  0  0  0  0  0  0  0  0
    8.1732  -13.9780   20.3822 C   0  0  0  0  0  0  0  0  0  0  0  0
    8.3928  -14.0451   21.8641 C   0  0  0  0  0  0  0  0  0  0  0  0
    9.3103  -15.1942   22.1138 C   0  0  2  0  0  0  0  0  0  0  0  0
    8.7851  -16.4588   21.6497 N   0  0  0  0  0  0  0  0  0  0  0  0
    9.6814  -15.3244   23.5420 C   0  0  0  0  0  0  0  0  0  0  0  0
   10.3964  -14.4753   24.1423 O   0  0  0  0  0  0  0  0  0  0  0  0
    7.1151  -14.6562   19.8364 C   0  0  0  0  0  0  0  0  0  0  0  0
    6.9395  -14.5749   18.4706 C   0  0  0  0  0  0  0  0  0  0  0  0
    9.2329  -16.4450   24.3128 N   0  0  0  0  0  0  0  0  0  0  0  0
    9.5263  -16.4806   25.7682 C   0  0  1  0  0  0  0  0  0  0  0  0
    8.2297  -16.5258   26.5241 C   0  0  0  0  0  0  0  0  0  0  0  0
    7.2783  -15.4500   26.2248 C   0  0  0  0  0  0  0  0  0  0  0  0
    6.0515  -15.4484   25.5984 C   0  0  0  0  0  0  0  0  0  0  0  0
    5.5590  -14.2047   25.5390 N   0  0  0  0  0  0  0  0  0  0  0  0
    6.4306  -13.3644   26.1135 C   0  0  0  0  0  0  0  0  0  0  0  0
    6.3629  -11.9778   26.2940 C   0  0  0  0  0  0  0  0  0  0  0  0
    7.3987  -11.3399   26.9218 C   0  0  0  0  0  0  0  0  0  0  0  0
    8.4888  -12.0920   27.3608 C   0  0  0  0  0  0  0  0  0  0  0  0
    8.5479  -13.4458   27.1816 C   0  0  0  0  0  0  0  0  0  0  0  0
    7.4978  -14.1063   26.5437 C   0  0  0  0  0  0  0  0  0  0  0  0
   10.3290  -17.6953   25.9732 C   0  0  0  0  0  0  0  0  0  0  0  0
   10.6186  -18.0979   27.1218 O   0  0  0  0  0  0  0  0  0  0  0  0
   14.8941  -20.2141   24.9238 N   0  0  0  0  0  0  0  0  0  0  0  0
   14.2836  -19.1251   24.2588 C   0  0  0  0  0  0  0  0  0  0  0  0
   14.6617  -18.7860   23.1226 O   0  0  0  0  0  0  0  0  0  0  0  0
   13.1872  -18.3935   24.9252 C   0  0  0  0  0  0  0  0  0  0  0  0
   11.9800  -19.3146   25.1413 C   0  0  2  0  0  0  0  0  0  0  0  0
   10.8161  -18.4827   24.8691 N   0  0  0  0  0  0  0  0  0  0  0  0
   12.0654  -19.7515   26.5493 C   0  0  0  0  0  0  0  0  0  0  0  0
   12.0674  -21.0843   26.8694 O   0  0  0  0  0  0  0  0  0  0  0  0
   12.1358  -18.9074   27.4676 O   0  0  0  0  0  0  0  0  0  0  0  0
  2  3  2  0
  2  1  1  0
  4  3  1  0
  5  4  2  0
  6  7  1  0
  6  5  1  0
  7  8  1  1
  9  7  1  0
  9 10  2  0
 11  5  1  0
 11 12  2  0
 12  2  1  0
 13  9  1  0
 14 13  1  0
 14 25  1  0
 15 16  1  0
 14 15  1  1
 16 24  1  0
 17 18  1  0
 17 16  2  0
 18 19  1  0
 19 24  2  0
 19 20  1  0
 20 21  2  0
 21 22  1  0
 23 22  2  0
 24 23  1  0
 25 32  1  0
 26 25  2  0
 28 27  1  0
 29 28  2  0
 30 28  1  0
 31 30  1  1
 32 31  1  0
 33 31  1  0
 34 33  1  0
 35 33  2  0
M  END
$$$$
