YWN.pdb
     RDKit          3D

 35 37  0  0  1  0  0  0  0  0999 V2000
    7.6276  -13.3127   16.0659 O   0  0  0  0  0  0  0  0  0  0  0  0
    7.8325  -13.4415   17.4207 C   0  0  0  0  0  0  0  0  0  0  0  0
    8.9934  -12.9600   17.9634 C   0  0  0  0  0  0  0  0  0  0  0  0
    9.1945  -13.0903   19.3265 C   0  0  0  0  0  0  0  0  0  0  0  0
    8.2239  -13.6962   20.0767 C   0  0  0  0  0  0  0  0  0  0  0  0
    8.4706  -13.8227   21.5503 C   0  0  0  0  0  0  0  0  0  0  0  0
    9.2259  -15.0925   21.7551 C   0  0  2  0  0  0  0  0  0  0  0  0
    8.5695  -16.2483   21.1862 N   0  0  0  0  0  0  0  0  0  0  0  0
    9.5123  -15.3587   23.1839 C   0  0  0  0  0  0  0  0  0  0  0  0
   10.3088  -14.6546   23.8637 O   0  0  0  0  0  0  0  0  0  0  0  0
    7.0554  -14.1855   19.5546 C   0  0  0  0  0  0  0  0  0  0  0  0
    6.8577  -14.0539   18.1958 C   0  0  0  0  0  0  0  0  0  0  0  0
    8.8818  -16.4507   23.8629 N   0  0  0  0  0  0  0  0  0  0  0  0
    9.1129  -16.6215   25.3199 C   0  0  1  0  0  0  0  0  0  0  0  0
    7.7855  -16.6628   26.0206 C   0  0  0  0  0  0  0  0  0  0  0  0
    7.0035  -15.4223   25.9806 C   0  0  0  0  0  0  0  0  0  0  0  0
    5.7377  -15.1420   25.5154 C   0  0  0  0  0  0  0  0  0  0  0  0
    5.4580  -13.8424   25.6764 N   0  0  0  0  0  0  0  0  0  0  0  0
    6.5119  -13.2381   26.2418 C   0  0  0  0  0  0  0  0  0  0  0  0
    6.6971  -11.8988   26.6049 C   0  0  0  0  0  0  0  0  0  0  0  0
    7.8833  -11.5251   27.1767 C   0  0  0  0  0  0  0  0  0  0  0  0
    8.8700  -12.4908   27.3785 C   0  0  0  0  0  0  0  0  0  0  0  0
    8.6821  -13.7969   27.0219 C   0  0  0  0  0  0  0  0  0  0  0  0
    7.4770  -14.1890   26.4391 C   0  0  0  0  0  0  0  0  0  0  0  0
    9.8476  -17.8883   25.4510 C   0  0  0  0  0  0  0  0  0  0  0  0
    9.7955  -18.7661   24.5610 O   0  0  0  0  0  0  0  0  0  0  0  0
   13.1527  -21.4319   24.4591 N   0  0  0  0  0  0  0  0  0  0  0  0
   13.3514  -20.4438   25.4515 C   0  0  0  0  0  0  0  0  0  0  0  0
   14.2708  -20.5585   26.2825 O   0  0  0  0  0  0  0  0  0  0  0  0
   12.4577  -19.2686   25.4910 C   0  0  0  0  0  0  0  0  0  0  0  0
   11.3830  -19.4467   26.5707 C   0  0  2  0  0  0  0  0  0  0  0  0
   10.6644  -18.1804   26.6016 N   0  0  0  0  0  0  0  0  0  0  0  0
   12.1215  -19.7262   27.8186 C   0  0  0  0  0  0  0  0  0  0  0  0
   12.4240  -18.7156   28.6939 O   0  0  0  0  0  0  0  0  0  0  0  0
   12.4811  -20.8914   28.0903 O   0  0  0  0  0  0  0  0  0  0  0  0
  2  3  2  0
  2  1  1  0
  4  3  1  0
  5  4  2  0
  6  7  1  0
  6  5  1  0
  7  8  1  1
  9  7  1  0
  9 10  2  0
 11  5  1  0
 11 12  2  0
 12  2  1  0
 13  9  1  0
 14 13  1  0
 14 25  1  0
 15 16  1  0
 14 15  1  1
 16 24  1  0
 17 18  1  0
 17 16  2  0
 18 19  1  0
 19 24  2  0
 19 20  1  0
 20 21  2  0
 21 22  1  0
 23 22  2  0
 24 23  1  0
 25 32  1  0
 26 25  2  0
 28 27  1  0
 29 28  2  0
 30 28  1  0
 31 30  1  6
 32 31  1  0
 33 31  1  0
 34 33  1  0
 35 33  2  0
M  END
$$$$
