YWN.pdb
     RDKit          3D

 35 37  0  0  1  0  0  0  0  0999 V2000
    7.4027  -13.3754   15.8589 O   0  0  0  0  0  0  0  0  0  0  0  0
    7.5986  -13.4976   17.2155 C   0  0  0  0  0  0  0  0  0  0  0  0
    6.5864  -14.0003   17.9881 C   0  0  0  0  0  0  0  0  0  0  0  0
    6.7885  -14.1230   19.3518 C   0  0  0  0  0  0  0  0  0  0  0  0
    7.9929  -13.7357   19.8726 C   0  0  0  0  0  0  0  0  0  0  0  0
    8.1818  -13.8804   21.3532 C   0  0  0  0  0  0  0  0  0  0  0  0
    9.0523  -15.0732   21.5636 C   0  0  2  0  0  0  0  0  0  0  0  0
    8.4487  -16.3093   21.1186 N   0  0  0  0  0  0  0  0  0  0  0  0
    9.4737  -15.2265   22.9754 C   0  0  0  0  0  0  0  0  0  0  0  0
   10.1861  -14.3729   23.5724 O   0  0  0  0  0  0  0  0  0  0  0  0
    9.0190  -13.2298   19.1186 C   0  0  0  0  0  0  0  0  0  0  0  0
    8.8147  -13.1091   17.7597 C   0  0  0  0  0  0  0  0  0  0  0  0
    9.0799  -16.3762   23.7333 N   0  0  0  0  0  0  0  0  0  0  0  0
    9.4802  -16.4685   25.1604 C   0  0  1  0  0  0  0  0  0  0  0  0
    8.2508  -16.6761   25.9972 C   0  0  0  0  0  0  0  0  0  0  0  0
    7.2541  -15.6010   25.9453 C   0  0  0  0  0  0  0  0  0  0  0  0
    5.9645  -15.5583   25.4631 C   0  0  0  0  0  0  0  0  0  0  0  0
    5.4480  -14.3327   25.6187 N   0  0  0  0  0  0  0  0  0  0  0  0
    6.3649  -13.5451   26.1971 C   0  0  0  0  0  0  0  0  0  0  0  0
    6.2953  -12.1950   26.5608 C   0  0  0  0  0  0  0  0  0  0  0  0
    7.3847  -11.6097   27.1475 C   0  0  0  0  0  0  0  0  0  0  0  0
    8.5297  -12.3771   27.3635 C   0  0  0  0  0  0  0  0  0  0  0  0
    8.5906  -13.6951   27.0063 C   0  0  0  0  0  0  0  0  0  0  0  0
    7.4861  -14.3021   26.4082 C   0  0  0  0  0  0  0  0  0  0  0  0
   10.3990  -17.6142   25.2331 C   0  0  0  0  0  0  0  0  0  0  0  0
   10.1338  -18.6981   24.6673 O   0  0  0  0  0  0  0  0  0  0  0  0
   14.0623  -19.0111   23.5959 N   0  0  0  0  0  0  0  0  0  0  0  0
   14.2105  -18.0551   24.6279 C   0  0  0  0  0  0  0  0  0  0  0  0
   14.6360  -16.9131   24.3753 O   0  0  0  0  0  0  0  0  0  0  0  0
   13.8512  -18.4238   26.0122 C   0  0  0  0  0  0  0  0  0  0  0  0
   12.3676  -18.8031   26.0996 C   0  0  2  0  0  0  0  0  0  0  0  0
   11.6467  -17.5465   25.9507 N   0  0  0  0  0  0  0  0  0  0  0  0
   12.1962  -19.4170   27.4316 C   0  0  0  0  0  0  0  0  0  0  0  0
   11.3919  -18.8306   28.3740 O   0  0  0  0  0  0  0  0  0  0  0  0
   12.7859  -20.4812   27.7154 O   0  0  0  0  0  0  0  0  0  0  0  0
  2  3  2  0
  2  1  1  0
  4  3  1  0
  5  4  2  0
  6  7  1  0
  6  5  1  0
  7  8  1  1
  9  7  1  0
  9 10  2  0
 11  5  1  0
 11 12  2  0
 12  2  1  0
 13  9  1  0
 14 13  1  0
 14 25  1  0
 15 16  1  0
 14 15  1  1
 16 24  1  0
 17 18  1  0
 17 16  2  0
 18 19  1  0
 19 24  2  0
 19 20  1  0
 20 21  2  0
 21 22  1  0
 23 22  2  0
 24 23  1  0
 25 32  1  0
 26 25  2  0
 28 27  1  0
 29 28  2  0
 30 28  1  0
 31 30  1  1
 32 31  1  0
 33 31  1  0
 34 33  1  0
 35 33  2  0
M  END
$$$$
