YWN.pdb
     RDKit          3D

 35 37  0  0  1  0  0  0  0  0999 V2000
    7.3583  -13.8925   15.8892 O   0  0  0  0  0  0  0  0  0  0  0  0
    7.6263  -13.9381   17.2383 C   0  0  0  0  0  0  0  0  0  0  0  0
    7.9592  -12.7793   17.8868 C   0  0  0  0  0  0  0  0  0  0  0  0
    8.2263  -12.8297   19.2438 C   0  0  0  0  0  0  0  0  0  0  0  0
    8.1472  -14.0371   19.8824 C   0  0  0  0  0  0  0  0  0  0  0  0
    8.4422  -14.0597   21.3524 C   0  0  0  0  0  0  0  0  0  0  0  0
    9.1440  -15.3456   21.6330 C   0  0  2  0  0  0  0  0  0  0  0  0
    8.3658  -16.5123   21.2813 N   0  0  0  0  0  0  0  0  0  0  0  0
    9.5712  -15.4625   23.0466 C   0  0  0  0  0  0  0  0  0  0  0  0
   10.3505  -14.6357   23.5955 O   0  0  0  0  0  0  0  0  0  0  0  0
    7.8165  -15.2086   19.2533 C   0  0  0  0  0  0  0  0  0  0  0  0
    7.5505  -15.1551   17.9009 C   0  0  0  0  0  0  0  0  0  0  0  0
    9.1053  -16.5438   23.8621 N   0  0  0  0  0  0  0  0  0  0  0  0
    9.5019  -16.5884   25.2926 C   0  0  1  0  0  0  0  0  0  0  0  0
    8.2624  -16.6348   26.1389 C   0  0  0  0  0  0  0  0  0  0  0  0
    7.2918  -15.5591   25.9092 C   0  0  0  0  0  0  0  0  0  0  0  0
    6.0277  -15.5558   25.3621 C   0  0  0  0  0  0  0  0  0  0  0  0
    5.5298  -14.3128   25.3439 N   0  0  0  0  0  0  0  0  0  0  0  0
    6.4344  -13.4749   25.8685 C   0  0  0  0  0  0  0  0  0  0  0  0
    6.3756  -12.0899   26.0639 C   0  0  0  0  0  0  0  0  0  0  0  0
    7.4479  -11.4543   26.6297 C   0  0  0  0  0  0  0  0  0  0  0  0
    8.5652  -12.2070   26.9925 C   0  0  0  0  0  0  0  0  0  0  0  0
    8.6156  -13.5592   26.7992 C   0  0  0  0  0  0  0  0  0  0  0  0
    7.5284  -14.2174   26.2242 C   0  0  0  0  0  0  0  0  0  0  0  0
   10.3138  -17.8061   25.4331 C   0  0  0  0  0  0  0  0  0  0  0  0
    9.8621  -18.9295   25.1180 O   0  0  0  0  0  0  0  0  0  0  0  0
   13.5067  -19.1551   24.1348 N   0  0  0  0  0  0  0  0  0  0  0  0
   14.3143  -18.8785   25.2626 C   0  0  0  0  0  0  0  0  0  0  0  0
   15.5378  -18.6910   25.1331 O   0  0  0  0  0  0  0  0  0  0  0  0
   13.6904  -18.8102   26.5995 C   0  0  0  0  0  0  0  0  0  0  0  0
   12.1734  -19.0114   26.4956 C   0  0  2  0  0  0  0  0  0  0  0  0
   11.6648  -17.7682   25.9328 N   0  0  0  0  0  0  0  0  0  0  0  0
   11.7132  -19.2548   27.8774 C   0  0  0  0  0  0  0  0  0  0  0  0
   10.9154  -18.3438   28.5198 O   0  0  0  0  0  0  0  0  0  0  0  0
   12.0484  -20.2973   28.4787 O   0  0  0  0  0  0  0  0  0  0  0  0
  2  3  2  0
  2  1  1  0
  4  3  1  0
  5  4  2  0
  6  7  1  0
  6  5  1  0
  7  8  1  1
  9  7  1  0
  9 10  2  0
 11  5  1  0
 11 12  2  0
 12  2  1  0
 13  9  1  0
 14 13  1  0
 14 25  1  0
 15 16  1  0
 14 15  1  1
 16 24  1  0
 17 18  1  0
 17 16  2  0
 18 19  1  0
 19 24  2  0
 19 20  1  0
 20 21  2  0
 21 22  1  0
 23 22  2  0
 24 23  1  0
 25 32  1  0
 26 25  2  0
 28 27  1  0
 29 28  2  0
 30 28  1  0
 31 30  1  1
 32 31  1  0
 33 31  1  0
 34 33  1  0
 35 33  2  0
M  END
$$$$
