MGA.pdb
     RDKit          3D

 18 17  0  0  1  0  0  0  0  0999 V2000
   27.3755  -18.8716   -6.6768 C   0  0  0  0  0  0  0  0  0  0  0  0
   27.4371  -20.4412   -7.5249 S   0  0  0  0  0  0  0  0  0  0  0  0
   25.8833  -21.1442   -7.9543 C   0  0  0  0  0  0  0  0  0  0  0  0
   25.5573  -21.4359   -9.3753 C   0  0  0  0  0  0  0  0  0  0  0  0
   25.0708  -20.2964  -10.1679 C   0  0  2  0  0  0  0  0  0  0  0  0
   23.8386  -19.7923   -9.6125 N   0  0  0  0  0  0  0  0  0  0  0  0
   24.8245  -20.6159  -11.5960 C   0  0  0  0  0  0  0  0  0  0  0  0
   25.4123  -21.5747  -12.1567 O   0  0  0  0  0  0  0  0  0  0  0  0
   23.9190  -19.8706  -12.4187 N   0  0  0  0  0  0  0  0  0  0  0  0
   23.4070  -20.3582  -13.6617 C   0  0  0  0  0  0  0  0  0  0  0  0
   21.9585  -20.6791  -13.6152 C   0  0  0  0  0  0  0  0  0  0  0  0
   21.3024  -20.6805  -12.5555 O   0  0  0  0  0  0  0  0  0  0  0  0
   19.5314  -21.3478  -16.3960 C   0  0  0  0  0  0  0  0  0  0  0  0
   19.9061  -21.2135  -14.9310 C   0  0  2  0  0  0  0  0  0  0  0  0
   21.3328  -20.9924  -14.8552 N   0  0  0  0  0  0  0  0  0  0  0  0
   19.5881  -22.4364  -14.1752 C   0  0  0  0  0  0  0  0  0  0  0  0
   20.4043  -23.3774  -14.0024 O   0  0  0  0  0  0  0  0  0  0  0  0
   18.3252  -22.5742  -13.6177 O   0  0  0  0  0  0  0  0  0  0  0  0
  2  1  1  0
  3  2  1  0
  4  3  1  0
  5  4  1  0
  5  6  1  1
  7  8  2  0
  7  5  1  0
  9  7  1  0
 10 11  1  0
 10  9  1  0
 11 15  1  0
 12 11  2  0
 14 13  1  6
 14 16  1  0
 15 14  1  0
 16 17  2  0
 16 18  1  0
M  END
$$$$
