MGA.pdb
     RDKit          3D

 18 17  0  0  1  0  0  0  0  0999 V2000
   17.8017  -15.2235  -19.5473 C   0  0  0  0  0  0  0  0  0  0  0  0
   18.2321  -13.5604  -19.0620 S   0  0  0  0  0  0  0  0  0  0  0  0
   16.8912  -12.5286  -18.5819 C   0  0  0  0  0  0  0  0  0  0  0  0
   17.1344  -11.1172  -18.1826 C   0  0  0  0  0  0  0  0  0  0  0  0
   18.1682  -10.9106  -17.1570 C   0  0  2  0  0  0  0  0  0  0  0  0
   17.6842  -11.3395  -15.8675 N   0  0  0  0  0  0  0  0  0  0  0  0
   18.6147   -9.5015  -17.0254 C   0  0  0  0  0  0  0  0  0  0  0  0
   19.1817   -8.9093  -17.9778 O   0  0  0  0  0  0  0  0  0  0  0  0
   18.4350   -8.7332  -15.8298 N   0  0  0  0  0  0  0  0  0  0  0  0
   18.7418   -7.3393  -15.7403 C   0  0  0  0  0  0  0  0  0  0  0  0
   20.0660   -7.0673  -15.1273 C   0  0  0  0  0  0  0  0  0  0  0  0
   20.6526   -7.8902  -14.3978 O   0  0  0  0  0  0  0  0  0  0  0  0
   22.4361   -4.2195  -15.6671 C   0  0  0  0  0  0  0  0  0  0  0  0
   21.9927   -5.4893  -14.9632 C   0  0  2  0  0  0  0  0  0  0  0  0
   20.6541   -5.8019  -15.4107 N   0  0  0  0  0  0  0  0  0  0  0  0
   21.9619   -5.3169  -13.5013 C   0  0  0  0  0  0  0  0  0  0  0  0
   22.9955   -5.2033  -12.7940 O   0  0  0  0  0  0  0  0  0  0  0  0
   20.7356   -5.2759  -12.8538 O   0  0  0  0  0  0  0  0  0  0  0  0
  2  1  1  0
  3  2  1  0
  4  3  1  0
  5  4  1  0
  5  6  1  1
  7  8  2  0
  7  5  1  0
  9  7  1  0
 10 11  1  0
 10  9  1  0
 11 15  1  0
 12 11  2  0
 14 13  1  6
 14 16  1  0
 15 14  1  0
 16 17  2  0
 16 18  1  0
M  END
$$$$
