MGA.pdb
     RDKit          3D

 18 17  0  0  1  0  0  0  0  0999 V2000
   13.6735  -14.8612  -13.5938 C   0  0  0  0  0  0  0  0  0  0  0  0
   15.0881  -14.5165  -14.6266 S   0  0  0  0  0  0  0  0  0  0  0  0
   15.9484  -13.0228  -14.2780 C   0  0  0  0  0  0  0  0  0  0  0  0
   15.2010  -11.7996  -13.8829 C   0  0  0  0  0  0  0  0  0  0  0  0
   16.0235  -10.6340  -13.5249 C   0  0  2  0  0  0  0  0  0  0  0  0
   17.4070  -11.0209  -13.3942 N   0  0  0  0  0  0  0  0  0  0  0  0
   15.6179   -9.9752  -12.2585 C   0  0  0  0  0  0  0  0  0  0  0  0
   14.4254   -9.6326  -12.0588 O   0  0  0  0  0  0  0  0  0  0  0  0
   16.5364   -9.6896  -11.1970 N   0  0  0  0  0  0  0  0  0  0  0  0
   16.1313   -9.1658   -9.9295 C   0  0  0  0  0  0  0  0  0  0  0  0
   15.9458   -7.6931   -9.9344 C   0  0  0  0  0  0  0  0  0  0  0  0
   16.3522   -6.9659  -10.8615 O   0  0  0  0  0  0  0  0  0  0  0  0
   14.0471   -5.4466   -7.6250 C   0  0  0  0  0  0  0  0  0  0  0  0
   15.0876   -5.7003   -8.7009 C   0  0  2  0  0  0  0  0  0  0  0  0
   15.2706   -7.1299   -8.8145 N   0  0  0  0  0  0  0  0  0  0  0  0
   16.3846   -5.0953   -8.3550 C   0  0  0  0  0  0  0  0  0  0  0  0
   16.6045   -3.8576   -8.3907 O   0  0  0  0  0  0  0  0  0  0  0  0
   17.4305   -5.9202   -7.9675 O   0  0  0  0  0  0  0  0  0  0  0  0
  2  1  1  0
  3  2  1  0
  4  3  1  0
  5  4  1  0
  5  6  1  1
  7  8  2  0
  7  5  1  0
  9  7  1  0
 10 11  1  0
 10  9  1  0
 11 15  1  0
 12 11  2  0
 14 13  1  1
 14 16  1  0
 15 14  1  0
 16 17  2  0
 16 18  1  0
M  END
$$$$
