MGA.pdb
     RDKit          3D

 18 17  0  0  1  0  0  0  0  0999 V2000
   28.2149  -13.4791  -15.2007 C   0  0  0  0  0  0  0  0  0  0  0  0
   27.0564  -14.8365  -15.1555 S   0  0  0  0  0  0  0  0  0  0  0  0
   25.7972  -14.8134  -16.3830 C   0  0  0  0  0  0  0  0  0  0  0  0
   24.5127  -14.1090  -16.1290 C   0  0  0  0  0  0  0  0  0  0  0  0
   23.6189  -13.9685  -17.2885 C   0  0  2  0  0  0  0  0  0  0  0  0
   24.3252  -13.3661  -18.3926 N   0  0  0  0  0  0  0  0  0  0  0  0
   22.4114  -13.1475  -17.0237 C   0  0  0  0  0  0  0  0  0  0  0  0
   21.6062  -13.4546  -16.1090 O   0  0  0  0  0  0  0  0  0  0  0  0
   22.0849  -11.9725  -17.7753 N   0  0  0  0  0  0  0  0  0  0  0  0
   20.8980  -11.2060  -17.5554 C   0  0  0  0  0  0  0  0  0  0  0  0
   21.1678   -9.7765  -17.2604 C   0  0  0  0  0  0  0  0  0  0  0  0
   22.3157   -9.3357  -17.0564 O   0  0  0  0  0  0  0  0  0  0  0  0
   18.8674   -6.8178  -17.2250 C   0  0  0  0  0  0  0  0  0  0  0  0
   20.2024   -7.4936  -16.9684 C   0  0  2  0  0  0  0  0  0  0  0  0
   20.0402   -8.9082  -17.2185 N   0  0  0  0  0  0  0  0  0  0  0  0
   20.6398   -7.3189  -15.5735 C   0  0  0  0  0  0  0  0  0  0  0  0
   20.5586   -8.2223  -14.7024 O   0  0  0  0  0  0  0  0  0  0  0  0
   21.1719   -6.0988  -15.1823 O   0  0  0  0  0  0  0  0  0  0  0  0
  2  1  1  0
  3  2  1  0
  4  3  1  0
  5  4  1  0
  5  6  1  6
  7  8  2  0
  7  5  1  0
  9  7  1  0
 10 11  1  0
 10  9  1  0
 11 15  1  0
 12 11  2  0
 14 13  1  1
 14 16  1  0
 15 14  1  0
 16 17  2  0
 16 18  1  0
M  END
$$$$
