MPH.pdb
     RDKit          3D

 26 27  0  0  1  0  0  0  0  0999 V2000
   28.0110  -26.6248  -21.6656 C   0  0  0  0  0  0  0  0  0  0  0  0
   27.7267  -26.6048  -19.8781 S   0  0  0  0  0  0  0  0  0  0  0  0
   26.6637  -25.1971  -19.4592 C   0  0  0  0  0  0  0  0  0  0  0  0
   26.3678  -25.1953  -17.9736 C   0  0  0  0  0  0  0  0  0  0  0  0
   27.5764  -24.7040  -17.2112 C   0  0  2  0  0  0  0  0  0  0  0  0
   28.3314  -25.8320  -16.6668 N   0  0  0  0  0  0  0  0  0  0  0  0
   27.2410  -23.7991  -16.1119 C   0  0  0  0  0  0  0  0  0  0  0  0
   27.0581  -24.3013  -14.9740 O   0  0  0  0  0  0  0  0  0  0  0  0
   27.1068  -22.3939  -16.2347 N   0  0  0  0  0  0  0  0  0  0  0  0
   27.2408  -21.5435  -17.3921 C   0  0  0  0  0  0  0  0  0  0  0  0
   28.1246  -20.4192  -16.8366 C   0  0  0  0  0  0  0  0  0  0  0  0
   27.4249  -20.1753  -15.5032 C   0  0  0  0  0  0  0  0  0  0  0  0
   26.7963  -21.5003  -15.1359 C   0  0  1  0  0  0  0  0  0  0  0  0
   25.3264  -21.3937  -14.9233 C   0  0  0  0  0  0  0  0  0  0  0  0
   24.6062  -21.4761  -15.9588 O   0  0  0  0  0  0  0  0  0  0  0  0
   24.8084  -21.2121  -13.6291 N   0  0  0  0  0  0  0  0  0  0  0  0
   23.3616  -21.2571  -13.4490 C   0  0  1  0  0  0  0  0  0  0  0  0
   22.9901  -21.9060  -12.1616 C   0  0  0  0  0  0  0  0  0  0  0  0
   23.7176  -21.2870  -11.0352 C   0  0  0  0  0  0  0  0  0  0  0  0
   25.0828  -20.9687  -10.9925 C   0  0  0  0  0  0  0  0  0  0  0  0
   25.3376  -20.4230   -9.7912 N   0  0  0  0  0  0  0  0  0  0  0  0
   24.1997  -20.3820   -9.0752 C   0  0  0  0  0  0  0  0  0  0  0  0
   23.2280  -20.9047   -9.8324 N   0  0  0  0  0  0  0  0  0  0  0  0
   22.8674  -19.8647  -13.4740 C   0  0  0  0  0  0  0  0  0  0  0  0
   23.6693  -18.8938  -13.4765 O   0  0  0  0  0  0  0  0  0  0  0  0
   21.4831  -19.6577  -13.4949 O   0  0  0  0  0  0  0  0  0  0  0  0
  2  1  1  0
  3  2  1  0
  3  4  1  0
  4  5  1  0
  5  6  1  1
  5  7  1  0
  7  8  2  0
  9  7  1  0
  9 13  1  0
 10 11  1  0
 10  9  1  0
 11 12  1  0
 12 13  1  0
 13 14  1  6
 14 15  2  0
 16 17  1  0
 16 14  1  0
 17 24  1  0
 17 18  1  1
 19 18  1  0
 20 19  2  0
 21 20  1  0
 22 21  1  0
 22 23  2  0
 23 19  1  0
 24 26  1  0
 25 24  2  0
M  END
$$$$
