MPH.pdb
     RDKit          3D

 26 27  0  0  1  0  0  0  0  0999 V2000
   24.7815  -22.0156  -21.0742 C   0  0  0  0  0  0  0  0  0  0  0  0
   26.2770  -21.1025  -21.5283 S   0  0  0  0  0  0  0  0  0  0  0  0
   27.5011  -21.2651  -20.2009 C   0  0  0  0  0  0  0  0  0  0  0  0
   26.8038  -21.5316  -18.8828 C   0  0  0  0  0  0  0  0  0  0  0  0
   27.8271  -21.6552  -17.7778 C   0  0  2  0  0  0  0  0  0  0  0  0
   28.5945  -22.8912  -17.9269 N   0  0  0  0  0  0  0  0  0  0  0  0
   27.2402  -21.6347  -16.4381 C   0  0  0  0  0  0  0  0  0  0  0  0
   27.0918  -22.7336  -15.8460 O   0  0  0  0  0  0  0  0  0  0  0  0
   26.8253  -20.4642  -15.7558 N   0  0  0  0  0  0  0  0  0  0  0  0
   26.8498  -19.0842  -16.1750 C   0  0  0  0  0  0  0  0  0  0  0  0
   27.4463  -18.4054  -14.9353 C   0  0  0  0  0  0  0  0  0  0  0  0
   26.6321  -19.0959  -13.8456 C   0  0  0  0  0  0  0  0  0  0  0  0
   26.2708  -20.4485  -14.4162 C   0  0  1  0  0  0  0  0  0  0  0  0
   24.8006  -20.6838  -14.4359 C   0  0  0  0  0  0  0  0  0  0  0  0
   24.1990  -20.3623  -15.5002 O   0  0  0  0  0  0  0  0  0  0  0  0
   24.1554  -21.2341  -13.3147 N   0  0  0  0  0  0  0  0  0  0  0  0
   22.7372  -21.5581  -13.4208 C   0  0  1  0  0  0  0  0  0  0  0  0
   22.3250  -22.5548  -12.3946 C   0  0  0  0  0  0  0  0  0  0  0  0
   20.8713  -22.8062  -12.4644 C   0  0  0  0  0  0  0  0  0  0  0  0
   20.1961  -23.5574  -13.4373 C   0  0  0  0  0  0  0  0  0  0  0  0
   18.8872  -23.5368  -13.1336 N   0  0  0  0  0  0  0  0  0  0  0  0
   18.7050  -22.8094  -12.0170 C   0  0  0  0  0  0  0  0  0  0  0  0
   19.9061  -22.3727  -11.6201 N   0  0  0  0  0  0  0  0  0  0  0  0
   21.9798  -20.3024  -13.2383 C   0  0  0  0  0  0  0  0  0  0  0  0
   20.8799  -20.1196  -13.8237 O   0  0  0  0  0  0  0  0  0  0  0  0
   22.5207  -19.3236  -12.3963 O   0  0  0  0  0  0  0  0  0  0  0  0
  2  1  1  0
  3  2  1  0
  3  4  1  0
  4  5  1  0
  5  6  1  6
  5  7  1  0
  7  8  2  0
  9  7  1  0
  9 13  1  0
 10 11  1  0
 10  9  1  0
 11 12  1  0
 12 13  1  0
 13 14  1  6
 14 15  2  0
 16 17  1  0
 16 14  1  0
 17 24  1  0
 17 18  1  1
 19 18  1  0
 20 19  2  0
 21 20  1  0
 22 21  1  0
 22 23  2  0
 23 19  1  0
 24 26  1  0
 25 24  2  0
M  END
$$$$
