MPH.pdb
     RDKit          3D

 26 27  0  0  1  0  0  0  0  0999 V2000
   26.3979  -20.9938   -3.5429 C   0  0  0  0  0  0  0  0  0  0  0  0
   28.0366  -21.3096   -4.2438 S   0  0  0  0  0  0  0  0  0  0  0  0
   28.3455  -20.1356   -5.5904 C   0  0  0  0  0  0  0  0  0  0  0  0
   27.5009  -20.4952   -6.7954 C   0  0  0  0  0  0  0  0  0  0  0  0
   27.7012  -19.4687   -7.8861 C   0  0  2  0  0  0  0  0  0  0  0  0
   27.3911  -18.1282   -7.3904 N   0  0  0  0  0  0  0  0  0  0  0  0
   26.8890  -19.7204   -9.0764 C   0  0  0  0  0  0  0  0  0  0  0  0
   25.7747  -19.1443   -9.1585 O   0  0  0  0  0  0  0  0  0  0  0  0
   27.2664  -20.5679  -10.1474 N   0  0  0  0  0  0  0  0  0  0  0  0
   28.3211  -21.5483  -10.2316 C   0  0  0  0  0  0  0  0  0  0  0  0
   28.9468  -21.1991  -11.5881 C   0  0  0  0  0  0  0  0  0  0  0  0
   27.6801  -21.0318  -12.4216 C   0  0  0  0  0  0  0  0  0  0  0  0
   26.6151  -20.5928  -11.4425 C   0  0  1  0  0  0  0  0  0  0  0  0
   25.4359  -21.5020  -11.4383 C   0  0  0  0  0  0  0  0  0  0  0  0
   25.3318  -22.2749  -10.4435 O   0  0  0  0  0  0  0  0  0  0  0  0
   24.5136  -21.4722  -12.4988 N   0  0  0  0  0  0  0  0  0  0  0  0
   23.0922  -21.3997  -12.1794 C   0  0  1  0  0  0  0  0  0  0  0  0
   22.8002  -20.2909  -11.2298 C   0  0  0  0  0  0  0  0  0  0  0  0
   22.3430  -20.8227   -9.9300 C   0  0  0  0  0  0  0  0  0  0  0  0
   22.2741  -22.1719   -9.5535 C   0  0  0  0  0  0  0  0  0  0  0  0
   21.8068  -22.2213   -8.2946 N   0  0  0  0  0  0  0  0  0  0  0  0
   21.5779  -20.9693   -7.8597 C   0  0  0  0  0  0  0  0  0  0  0  0
   21.9038  -20.1322   -8.8517 N   0  0  0  0  0  0  0  0  0  0  0  0
   22.3626  -21.1851  -13.4464 C   0  0  0  0  0  0  0  0  0  0  0  0
   22.7358  -20.3053  -14.2664 O   0  0  0  0  0  0  0  0  0  0  0  0
   21.2460  -21.9879  -13.7073 O   0  0  0  0  0  0  0  0  0  0  0  0
  2  1  1  0
  3  2  1  0
  3  4  1  0
  4  5  1  0
  5  6  1  1
  5  7  1  0
  7  8  2  0
  9  7  1  0
  9 13  1  0
 10 11  1  0
 10  9  1  0
 11 12  1  0
 12 13  1  0
 13 14  1  1
 14 15  2  0
 16 17  1  0
 16 14  1  0
 17 24  1  0
 17 18  1  1
 19 18  1  0
 20 19  2  0
 21 20  1  0
 22 21  1  0
 22 23  2  0
 23 19  1  0
 24 26  1  0
 25 24  2  0
M  END
$$$$
