MPH.pdb
     RDKit          3D

 26 27  0  0  1  0  0  0  0  0999 V2000
   21.5795  -12.6021    5.5140 C   0  0  0  0  0  0  0  0  0  0  0  0
   20.2677  -11.4076    5.8727 S   0  0  0  0  0  0  0  0  0  0  0  0
   18.7401  -11.9348    5.0509 C   0  0  0  0  0  0  0  0  0  0  0  0
   18.4937  -13.4068    5.3101 C   0  0  0  0  0  0  0  0  0  0  0  0
   17.2151  -13.8395    4.6308 C   0  0  2  0  0  0  0  0  0  0  0  0
   16.0649  -13.1574    5.2229 N   0  0  0  0  0  0  0  0  0  0  0  0
   16.9816  -15.2820    4.6977 C   0  0  0  0  0  0  0  0  0  0  0  0
   16.3171  -15.7239    5.6690 O   0  0  0  0  0  0  0  0  0  0  0  0
   17.4502  -16.2212    3.7459 N   0  0  0  0  0  0  0  0  0  0  0  0
   18.2876  -16.0329    2.5866 C   0  0  0  0  0  0  0  0  0  0  0  0
   17.5142  -16.8275    1.5265 C   0  0  0  0  0  0  0  0  0  0  0  0
   17.1983  -18.0871    2.3270 C   0  0  0  0  0  0  0  0  0  0  0  0
   17.1399  -17.6372    3.7692 C   0  0  1  0  0  0  0  0  0  0  0  0
   18.0898  -18.3856    4.6379 C   0  0  0  0  0  0  0  0  0  0  0  0
   19.2371  -17.8742    4.7791 O   0  0  0  0  0  0  0  0  0  0  0  0
   17.6951  -19.5888    5.2485 N   0  0  0  0  0  0  0  0  0  0  0  0
   18.4319  -20.0450    6.4218 C   0  0  1  0  0  0  0  0  0  0  0  0
   18.2491  -19.1225    7.5759 C   0  0  0  0  0  0  0  0  0  0  0  0
   19.5368  -18.5147    7.9682 C   0  0  0  0  0  0  0  0  0  0  0  0
   20.7919  -18.7667    7.3956 C   0  0  0  0  0  0  0  0  0  0  0  0
   21.6953  -18.0111    8.0426 N   0  0  0  0  0  0  0  0  0  0  0  0
   21.0705  -17.2955    8.9949 C   0  0  0  0  0  0  0  0  0  0  0  0
   19.7696  -17.6050    8.9433 N   0  0  0  0  0  0  0  0  0  0  0  0
   17.9290  -21.3911    6.7664 C   0  0  0  0  0  0  0  0  0  0  0  0
   16.9427  -21.8875    6.1611 O   0  0  0  0  0  0  0  0  0  0  0  0
   18.5811  -22.0968    7.7844 O   0  0  0  0  0  0  0  0  0  0  0  0
  2  1  1  0
  3  2  1  0
  3  4  1  0
  4  5  1  0
  5  6  1  1
  5  7  1  0
  7  8  2  0
  9  7  1  0
  9 13  1  0
 10 11  1  0
 10  9  1  0
 11 12  1  0
 12 13  1  0
 13 14  1  1
 14 15  2  0
 16 17  1  0
 16 14  1  0
 17 24  1  0
 17 18  1  1
 19 18  1  0
 20 19  2  0
 21 20  1  0
 22 21  1  0
 22 23  2  0
 23 19  1  0
 24 26  1  0
 25 24  2  0
M  END
$$$$
