MPH.pdb
     RDKit          3D

 26 27  0  0  1  0  0  0  0  0999 V2000
   23.3112  -10.8524  -21.7757 C   0  0  0  0  0  0  0  0  0  0  0  0
   21.8069  -11.8584  -21.8120 S   0  0  0  0  0  0  0  0  0  0  0  0
   21.5640  -12.6267  -20.1879 C   0  0  0  0  0  0  0  0  0  0  0  0
   21.3266  -11.5591  -19.1398 C   0  0  0  0  0  0  0  0  0  0  0  0
   21.1540  -12.2023  -17.7834 C   0  0  2  0  0  0  0  0  0  0  0  0
   19.9000  -12.9529  -17.7288 N   0  0  0  0  0  0  0  0  0  0  0  0
   21.1662  -11.2422  -16.6798 C   0  0  0  0  0  0  0  0  0  0  0  0
   20.0591  -10.8566  -16.2259 O   0  0  0  0  0  0  0  0  0  0  0  0
   22.3369  -10.7129  -16.0825 N   0  0  0  0  0  0  0  0  0  0  0  0
   23.7261  -10.9300  -16.4045 C   0  0  0  0  0  0  0  0  0  0  0  0
   24.3200  -11.1828  -15.0128 C   0  0  0  0  0  0  0  0  0  0  0  0
   23.6472  -10.0555  -14.2360 C   0  0  0  0  0  0  0  0  0  0  0  0
   22.3423   -9.8004  -14.9558 C   0  0  1  0  0  0  0  0  0  0  0  0
   22.2058   -8.3868  -15.4031 C   0  0  0  0  0  0  0  0  0  0  0  0
   22.6292   -8.1268  -16.5654 O   0  0  0  0  0  0  0  0  0  0  0  0
   21.6330   -7.4257  -14.5519 N   0  0  0  0  0  0  0  0  0  0  0  0
   21.5571   -6.0453  -15.0168 C   0  0  1  0  0  0  0  0  0  0  0  0
   20.1461   -5.5952  -15.1679 C   0  0  0  0  0  0  0  0  0  0  0  0
   19.4578   -6.3761  -16.2157 C   0  0  0  0  0  0  0  0  0  0  0  0
   18.6295   -7.4912  -16.0225 C   0  0  0  0  0  0  0  0  0  0  0  0
   18.2077   -7.9010  -17.2307 N   0  0  0  0  0  0  0  0  0  0  0  0
   18.7299   -7.0986  -18.1756 C   0  0  0  0  0  0  0  0  0  0  0  0
   19.4822   -6.1821  -17.5552 N   0  0  0  0  0  0  0  0  0  0  0  0
   22.2523   -5.2026  -14.0216 C   0  0  0  0  0  0  0  0  0  0  0  0
   22.6366   -5.6830  -12.9229 O   0  0  0  0  0  0  0  0  0  0  0  0
   22.4707   -3.8562  -14.3366 O   0  0  0  0  0  0  0  0  0  0  0  0
  2  1  1  0
  3  2  1  0
  3  4  1  0
  4  5  1  0
  5  6  1  6
  5  7  1  0
  7  8  2  0
  9  7  1  0
  9 13  1  0
 10 11  1  0
 10  9  1  0
 11 12  1  0
 12 13  1  0
 13 14  1  6
 14 15  2  0
 16 17  1  0
 16 14  1  0
 17 24  1  0
 17 18  1  1
 19 18  1  0
 20 19  2  0
 21 20  1  0
 22 21  1  0
 22 23  2  0
 23 19  1  0
 24 26  1  0
 25 24  2  0
M  END
$$$$
