MPH.pdb
     RDKit          3D

 26 27  0  0  1  0  0  0  0  0999 V2000
   23.0375  -16.3364  -17.2505 C   0  0  0  0  0  0  0  0  0  0  0  0
   24.6393  -16.0501  -18.0433 S   0  0  0  0  0  0  0  0  0  0  0  0
   25.5736  -17.6035  -18.0781 C   0  0  0  0  0  0  0  0  0  0  0  0
   25.3629  -18.3639  -16.7850 C   0  0  0  0  0  0  0  0  0  0  0  0
   26.1284  -19.6661  -16.8260 C   0  0  2  0  0  0  0  0  0  0  0  0
   25.4904  -20.6061  -17.7470 N   0  0  0  0  0  0  0  0  0  0  0  0
   26.2486  -20.3103  -15.5182 C   0  0  0  0  0  0  0  0  0  0  0  0
   25.3306  -21.0924  -15.1632 O   0  0  0  0  0  0  0  0  0  0  0  0
   27.3266  -20.1178  -14.6189 N   0  0  0  0  0  0  0  0  0  0  0  0
   28.5472  -19.3655  -14.7763 C   0  0  0  0  0  0  0  0  0  0  0  0
   29.5858  -20.3684  -14.2576 C   0  0  0  0  0  0  0  0  0  0  0  0
   28.8736  -20.8495  -12.9973 C   0  0  0  0  0  0  0  0  0  0  0  0
   27.3986  -20.6924  -13.2897 C   0  0  1  0  0  0  0  0  0  0  0  0
   26.7084  -19.8318  -12.2896 C   0  0  0  0  0  0  0  0  0  0  0  0
   26.4873  -18.6376  -12.6401 O   0  0  0  0  0  0  0  0  0  0  0  0
   26.3398  -20.3550  -11.0379 N   0  0  0  0  0  0  0  0  0  0  0  0
   24.9675  -20.1622  -10.5829 C   0  0  1  0  0  0  0  0  0  0  0  0
   23.9861  -20.7340  -11.5454 C   0  0  0  0  0  0  0  0  0  0  0  0
   22.6032  -20.5017  -11.0817 C   0  0  0  0  0  0  0  0  0  0  0  0
   22.2015  -20.1509   -9.7847 C   0  0  0  0  0  0  0  0  0  0  0  0
   20.8627  -20.0361   -9.7886 N   0  0  0  0  0  0  0  0  0  0  0  0
   20.4014  -20.2975  -11.0248 C   0  0  0  0  0  0  0  0  0  0  0  0
   21.4571  -20.5773  -11.7981 N   0  0  0  0  0  0  0  0  0  0  0  0
   24.8364  -20.8299   -9.2712 C   0  0  0  0  0  0  0  0  0  0  0  0
   25.3188  -21.9771   -9.0784 O   0  0  0  0  0  0  0  0  0  0  0  0
   24.1612  -20.1499   -8.2508 O   0  0  0  0  0  0  0  0  0  0  0  0
  2  1  1  0
  3  2  1  0
  3  4  1  0
  4  5  1  0
  5  6  1  6
  5  7  1  0
  7  8  2  0
  9  7  1  0
  9 13  1  0
 10 11  1  0
 10  9  1  0
 11 12  1  0
 12 13  1  0
 13 14  1  1
 14 15  2  0
 16 17  1  0
 16 14  1  0
 17 24  1  0
 17 18  1  6
 19 18  1  0
 20 19  2  0
 21 20  1  0
 22 21  1  0
 22 23  2  0
 23 19  1  0
 24 26  1  0
 25 24  2  0
M  END
$$$$
