MPH.pdb
     RDKit          3D

 26 27  0  0  1  0  0  0  0  0999 V2000
   26.5042  -20.4384   -3.6453 C   0  0  0  0  0  0  0  0  0  0  0  0
   28.1221  -20.8991   -4.3134 S   0  0  0  0  0  0  0  0  0  0  0  0
   28.4891  -19.8624   -5.7549 C   0  0  0  0  0  0  0  0  0  0  0  0
   27.5647  -20.2213   -6.9001 C   0  0  0  0  0  0  0  0  0  0  0  0
   27.7957  -19.2796   -8.0590 C   0  0  2  0  0  0  0  0  0  0  0  0
   27.4628  -17.9075   -7.6778 N   0  0  0  0  0  0  0  0  0  0  0  0
   27.0243  -19.6274   -9.2523 C   0  0  0  0  0  0  0  0  0  0  0  0
   25.9081  -19.0715   -9.4116 O   0  0  0  0  0  0  0  0  0  0  0  0
   27.4433  -20.5473  -10.2452 N   0  0  0  0  0  0  0  0  0  0  0  0
   28.4562  -21.5731  -10.1960 C   0  0  0  0  0  0  0  0  0  0  0  0
   29.1979  -21.3250  -11.5157 C   0  0  0  0  0  0  0  0  0  0  0  0
   28.0070  -21.1523  -12.4531 C   0  0  0  0  0  0  0  0  0  0  0  0
   26.8916  -20.6168  -11.5842 C   0  0  1  0  0  0  0  0  0  0  0  0
   25.6758  -21.4755  -11.6251 C   0  0  0  0  0  0  0  0  0  0  0  0
   25.3716  -22.0623  -10.5476 O   0  0  0  0  0  0  0  0  0  0  0  0
   24.9354  -21.6005  -12.8136 N   0  0  0  0  0  0  0  0  0  0  0  0
   23.4976  -21.3608  -12.7630 C   0  0  1  0  0  0  0  0  0  0  0  0
   23.1889  -19.9770  -12.3086 C   0  0  0  0  0  0  0  0  0  0  0  0
   21.7330  -19.7301  -12.3372 C   0  0  0  0  0  0  0  0  0  0  0  0
   20.7287  -20.6684  -12.6161 C   0  0  0  0  0  0  0  0  0  0  0  0
   19.5457  -20.0359  -12.5381 N   0  0  0  0  0  0  0  0  0  0  0  0
   19.7557  -18.7451  -12.2237 C   0  0  0  0  0  0  0  0  0  0  0  0
   21.0769  -18.5691  -12.1044 N   0  0  0  0  0  0  0  0  0  0  0  0
   22.9631  -21.5767  -14.1237 C   0  0  0  0  0  0  0  0  0  0  0  0
   23.5421  -21.0905  -15.1306 O   0  0  0  0  0  0  0  0  0  0  0  0
   21.7956  -22.3370  -14.2594 O   0  0  0  0  0  0  0  0  0  0  0  0
  2  1  1  0
  3  2  1  0
  3  4  1  0
  4  5  1  0
  5  6  1  1
  5  7  1  0
  7  8  2  0
  9  7  1  0
  9 13  1  0
 10 11  1  0
 10  9  1  0
 11 12  1  0
 12 13  1  0
 13 14  1  1
 14 15  2  0
 16 17  1  0
 16 14  1  0
 17 24  1  0
 17 18  1  6
 19 18  1  0
 20 19  2  0
 21 20  1  0
 22 21  1  0
 22 23  2  0
 23 19  1  0
 24 26  1  0
 25 24  2  0
M  END
$$$$
