QAR.pdb
     RDKit          3D

 26 25  0  0  1  0  0  0  0  0999 V2000
    7.1124  -17.6839   16.8393 N   0  0  0  0  0  0  0  0  0  0  0  0
    7.0645  -17.3029   15.4769 C   0  0  0  0  0  0  0  0  0  0  0  0
    6.2187  -17.8174   14.7295 O   0  0  0  0  0  0  0  0  0  0  0  0
    8.0179  -16.3064   14.9740 C   0  0  0  0  0  0  0  0  0  0  0  0
    8.8876  -15.6710   16.0227 C   0  0  0  0  0  0  0  0  0  0  0  0
    8.2818  -14.4212   16.5587 C   0  0  2  0  0  0  0  0  0  0  0  0
    8.7137  -13.3352   15.6716 N   0  0  0  0  0  0  0  0  0  0  0  0
    8.6717  -14.1414   17.9620 C   0  0  0  0  0  0  0  0  0  0  0  0
    9.9008  -13.9574   18.2531 O   0  0  0  0  0  0  0  0  0  0  0  0
    7.0296  -13.5648   21.3360 C   0  0  0  0  0  0  0  0  0  0  0  0
    8.2051  -13.8665   20.4291 C   0  0  2  0  0  0  0  0  0  0  0  0
    7.7585  -14.0579   19.0487 N   0  0  0  0  0  0  0  0  0  0  0  0
    8.8982  -15.0550   20.9432 C   0  0  0  0  0  0  0  0  0  0  0  0
    8.5912  -16.1990   20.4614 O   0  0  0  0  0  0  0  0  0  0  0  0
   16.0183  -13.8328   19.3196 N   0  0  0  0  0  0  0  0  0  0  0  0
   15.1838  -14.6253   18.5054 C   0  0  0  0  0  0  0  0  0  0  0  0
   15.4747  -14.8193   17.2494 N   0  0  0  0  0  0  0  0  0  0  0  0
   13.9981  -15.2467   19.0030 N   0  0  0  0  0  0  0  0  0  0  0  0
   13.7202  -15.3561   20.4070 C   0  0  0  0  0  0  0  0  0  0  0  0
   12.4156  -16.0780   20.6772 C   0  0  0  0  0  0  0  0  0  0  0  0
   12.0629  -16.1384   22.1292 C   0  0  0  0  0  0  0  0  0  0  0  0
   10.6015  -16.2894   22.3513 C   0  0  2  0  0  0  0  0  0  0  0  0
    9.8929  -15.0520   21.9413 N   0  0  0  0  0  0  0  0  0  0  0  0
   10.2881  -16.4503   23.7733 C   0  0  0  0  0  0  0  0  0  0  0  0
   10.7338  -17.5325   24.4881 O   0  0  0  0  0  0  0  0  0  0  0  0
    9.5995  -15.6008   24.3774 O   0  0  0  0  0  0  0  0  0  0  0  0
  2  1  1  0
  2  3  2  0
  4  5  1  0
  4  2  1  0
  6  7  1  6
  6  5  1  0
  8  6  1  0
  9  8  2  0
 11 10  1  1
 11 12  1  0
 12  8  1  0
 13 11  1  0
 13 23  1  0
 14 13  2  0
 16 15  1  0
 17 16  2  0
 18 16  1  0
 19 18  1  0
 20 21  1  0
 20 19  1  0
 22 21  1  1
 22 23  1  0
 22 24  1  0
 24 25  1  0
 26 24  2  0
M  END
$$$$
