QAR.pdb
     RDKit          3D

 26 25  0  0  1  0  0  0  0  0999 V2000
    8.5113  -12.3607   18.0794 N   0  0  0  0  0  0  0  0  0  0  0  0
    8.2560  -13.7340   17.8498 C   0  0  0  0  0  0  0  0  0  0  0  0
    8.2066  -14.1583   16.6853 O   0  0  0  0  0  0  0  0  0  0  0  0
    8.0535  -14.6300   18.9948 C   0  0  0  0  0  0  0  0  0  0  0  0
    8.1344  -13.9692   20.3427 C   0  0  0  0  0  0  0  0  0  0  0  0
    8.0330  -14.9596   21.4495 C   0  0  2  0  0  0  0  0  0  0  0  0
    6.7540  -15.6557   21.2699 N   0  0  0  0  0  0  0  0  0  0  0  0
    8.1103  -14.3389   22.7942 C   0  0  0  0  0  0  0  0  0  0  0  0
    9.2184  -13.8583   23.2071 O   0  0  0  0  0  0  0  0  0  0  0  0
    5.9226  -12.9939   25.5062 C   0  0  0  0  0  0  0  0  0  0  0  0
    7.1725  -13.7227   25.0572 C   0  0  2  0  0  0  0  0  0  0  0  0
    7.0145  -14.2304   23.6938 N   0  0  0  0  0  0  0  0  0  0  0  0
    7.4485  -14.8064   26.0093 C   0  0  0  0  0  0  0  0  0  0  0  0
    7.6613  -14.5059   27.2339 O   0  0  0  0  0  0  0  0  0  0  0  0
    9.3614  -20.0019   21.8100 N   0  0  0  0  0  0  0  0  0  0  0  0
    8.0206  -19.6112   21.6178 C   0  0  0  0  0  0  0  0  0  0  0  0
    7.4710  -19.6877   20.4380 N   0  0  0  0  0  0  0  0  0  0  0  0
    7.2077  -19.1203   22.6845 N   0  0  0  0  0  0  0  0  0  0  0  0
    7.2262  -19.7052   23.9953 C   0  0  0  0  0  0  0  0  0  0  0  0
    8.1164  -18.9374   24.9515 C   0  0  0  0  0  0  0  0  0  0  0  0
    7.4269  -18.5526   26.2216 C   0  0  0  0  0  0  0  0  0  0  0  0
    7.8381  -17.2090   26.7046 C   0  0  2  0  0  0  0  0  0  0  0  0
    7.5023  -16.1782   25.6917 N   0  0  0  0  0  0  0  0  0  0  0  0
    9.2911  -17.1184   26.8679 C   0  0  0  0  0  0  0  0  0  0  0  0
    9.9296  -17.6901   27.9386 O   0  0  0  0  0  0  0  0  0  0  0  0
    9.9930  -16.5117   26.0314 O   0  0  0  0  0  0  0  0  0  0  0  0
  2  1  1  0
  2  3  2  0
  4  5  1  0
  4  2  1  0
  6  7  1  1
  6  5  1  0
  8  6  1  0
  9  8  2  0
 11 10  1  1
 11 12  1  0
 12  8  1  0
 13 11  1  0
 13 23  1  0
 14 13  2  0
 16 15  1  0
 17 16  2  0
 18 16  1  0
 19 18  1  0
 20 21  1  0
 20 19  1  0
 22 21  1  6
 22 23  1  0
 22 24  1  0
 24 25  1  0
 26 24  2  0
M  END
$$$$
