QAR.pdb
     RDKit          3D

 26 25  0  0  1  0  0  0  0  0999 V2000
    8.8087  -12.5913   18.2773 N   0  0  0  0  0  0  0  0  0  0  0  0
    8.2987  -13.4105   17.2417 C   0  0  0  0  0  0  0  0  0  0  0  0
    8.5958  -13.1595   16.0638 O   0  0  0  0  0  0  0  0  0  0  0  0
    7.4266  -14.5413   17.5816 C   0  0  0  0  0  0  0  0  0  0  0  0
    7.5311  -15.0217   19.0022 C   0  0  0  0  0  0  0  0  0  0  0  0
    8.9248  -15.4113   19.3517 C   0  0  2  0  0  0  0  0  0  0  0  0
    9.4630  -16.1227   18.1868 N   0  0  0  0  0  0  0  0  0  0  0  0
    9.0048  -16.2562   20.5679 C   0  0  0  0  0  0  0  0  0  0  0  0
    8.1774  -16.0723   21.5222 O   0  0  0  0  0  0  0  0  0  0  0  0
   11.0306  -19.1976   21.8727 C   0  0  0  0  0  0  0  0  0  0  0  0
    9.9753  -18.1156   21.9754 C   0  0  2  0  0  0  0  0  0  0  0  0
    9.9600  -17.2906   20.7668 N   0  0  0  0  0  0  0  0  0  0  0  0
   10.2454  -17.3125   23.1751 C   0  0  0  0  0  0  0  0  0  0  0  0
   11.1809  -16.4419   23.1312 O   0  0  0  0  0  0  0  0  0  0  0  0
    4.7142  -11.6757   25.6557 N   0  0  0  0  0  0  0  0  0  0  0  0
    6.0709  -11.6201   26.0345 C   0  0  0  0  0  0  0  0  0  0  0  0
    6.4888  -10.7096   26.8689 N   0  0  0  0  0  0  0  0  0  0  0  0
    7.0418  -12.5406   25.5348 N   0  0  0  0  0  0  0  0  0  0  0  0
    7.2311  -13.8428   26.1081 C   0  0  0  0  0  0  0  0  0  0  0  0
    8.3803  -14.5903   25.4623 C   0  0  0  0  0  0  0  0  0  0  0  0
    8.6502  -15.9192   26.0932 C   0  0  0  0  0  0  0  0  0  0  0  0
    9.8832  -16.5574   25.5640 C   0  0  2  0  0  0  0  0  0  0  0  0
    9.5537  -17.4146   24.3986 N   0  0  0  0  0  0  0  0  0  0  0  0
   10.4805  -17.4671   26.5446 C   0  0  0  0  0  0  0  0  0  0  0  0
   10.4921  -18.8245   26.3498 O   0  0  0  0  0  0  0  0  0  0  0  0
   10.9975  -17.0281   27.5937 O   0  0  0  0  0  0  0  0  0  0  0  0
  2  1  1  0
  2  3  2  0
  4  5  1  0
  4  2  1  0
  6  7  1  6
  6  5  1  0
  8  6  1  0
  9  8  2  0
 11 10  1  6
 11 12  1  0
 12  8  1  0
 13 11  1  0
 13 23  1  0
 14 13  2  0
 16 15  1  0
 17 16  2  0
 18 16  1  0
 19 18  1  0
 20 21  1  0
 20 19  1  0
 22 21  1  1
 22 23  1  0
 22 24  1  0
 24 25  1  0
 26 24  2  0
M  END
$$$$
