QAR.pdb
     RDKit          3D

 26 25  0  0  1  0  0  0  0  0999 V2000
    8.6225  -18.7788   16.0488 N   0  0  0  0  0  0  0  0  0  0  0  0
    9.2646  -18.2504   14.9033 C   0  0  0  0  0  0  0  0  0  0  0  0
   10.2792  -18.8101   14.4607 O   0  0  0  0  0  0  0  0  0  0  0  0
    8.7177  -17.0490   14.2612 C   0  0  0  0  0  0  0  0  0  0  0  0
    7.5804  -16.3958   14.9960 C   0  0  0  0  0  0  0  0  0  0  0  0
    7.7588  -14.9207   15.0895 C   0  0  2  0  0  0  0  0  0  0  0  0
    8.5754  -14.5259   13.9362 N   0  0  0  0  0  0  0  0  0  0  0  0
    8.3965  -14.4914   16.3578 C   0  0  0  0  0  0  0  0  0  0  0  0
    9.6671  -14.5315   16.4730 O   0  0  0  0  0  0  0  0  0  0  0  0
    7.3595  -13.2074   19.7846 C   0  0  0  0  0  0  0  0  0  0  0  0
    8.3609  -13.6694   18.7460 C   0  0  2  0  0  0  0  0  0  0  0  0
    7.6857  -14.0223   17.4965 N   0  0  0  0  0  0  0  0  0  0  0  0
    9.1119  -14.8061   19.2947 C   0  0  0  0  0  0  0  0  0  0  0  0
    9.0672  -15.9249   18.6770 O   0  0  0  0  0  0  0  0  0  0  0  0
   16.6477  -13.1975   17.0071 N   0  0  0  0  0  0  0  0  0  0  0  0
   16.8541  -14.2708   17.8976 C   0  0  0  0  0  0  0  0  0  0  0  0
   17.9983  -14.8950   17.9284 N   0  0  0  0  0  0  0  0  0  0  0  0
   15.8408  -14.7230   18.7967 N   0  0  0  0  0  0  0  0  0  0  0  0
   14.4987  -14.2154   18.7585 C   0  0  0  0  0  0  0  0  0  0  0  0
   13.6156  -14.8540   19.8114 C   0  0  0  0  0  0  0  0  0  0  0  0
   12.1858  -14.4242   19.7240 C   0  0  0  0  0  0  0  0  0  0  0  0
   11.2799  -15.3093   20.5008 C   0  0  2  0  0  0  0  0  0  0  0  0
    9.8949  -14.7782   20.4659 N   0  0  0  0  0  0  0  0  0  0  0  0
   11.6394  -15.3328   21.9207 C   0  0  0  0  0  0  0  0  0  0  0  0
   12.7508  -16.0001   22.3683 O   0  0  0  0  0  0  0  0  0  0  0  0
   10.9371  -14.7432   22.7691 O   0  0  0  0  0  0  0  0  0  0  0  0
  2  1  1  0
  2  3  2  0
  4  5  1  0
  4  2  1  0
  6  7  1  6
  6  5  1  0
  8  6  1  0
  9  8  2  0
 11 10  1  1
 11 12  1  0
 12  8  1  0
 13 11  1  0
 13 23  1  0
 14 13  2  0
 16 15  1  0
 17 16  2  0
 18 16  1  0
 19 18  1  0
 20 21  1  0
 20 19  1  0
 22 21  1  6
 22 23  1  0
 22 24  1  0
 24 25  1  0
 26 24  2  0
M  END
$$$$
