QAR.pdb
     RDKit          3D

 26 25  0  0  1  0  0  0  0  0999 V2000
    8.2811  -12.5454   18.0452 N   0  0  0  0  0  0  0  0  0  0  0  0
    8.0161  -13.3197   16.8902 C   0  0  0  0  0  0  0  0  0  0  0  0
    7.9147  -12.7571   15.7893 O   0  0  0  0  0  0  0  0  0  0  0  0
    7.8652  -14.7743   17.0176 C   0  0  0  0  0  0  0  0  0  0  0  0
    7.8447  -15.2913   18.4291 C   0  0  0  0  0  0  0  0  0  0  0  0
    9.2084  -15.3209   19.0255 C   0  0  2  0  0  0  0  0  0  0  0  0
   10.1320  -15.6593   17.9368 N   0  0  0  0  0  0  0  0  0  0  0  0
    9.3338  -16.2887   20.1422 C   0  0  0  0  0  0  0  0  0  0  0  0
    8.4677  -16.2893   21.0799 O   0  0  0  0  0  0  0  0  0  0  0  0
   11.6735  -19.0697   21.2642 C   0  0  0  0  0  0  0  0  0  0  0  0
   10.4868  -18.1402   21.4160 C   0  0  2  0  0  0  0  0  0  0  0  0
   10.3749  -17.2500   20.2599 N   0  0  0  0  0  0  0  0  0  0  0  0
   10.6419  -17.3858   22.6666 C   0  0  0  0  0  0  0  0  0  0  0  0
   11.4870  -16.4268   22.7023 O   0  0  0  0  0  0  0  0  0  0  0  0
    6.5422  -12.0822   26.8048 N   0  0  0  0  0  0  0  0  0  0  0  0
    6.4993  -12.0741   25.3957 C   0  0  0  0  0  0  0  0  0  0  0  0
    6.3382  -10.9560   24.7445 N   0  0  0  0  0  0  0  0  0  0  0  0
    6.6278  -13.2667   24.6207 N   0  0  0  0  0  0  0  0  0  0  0  0
    6.9543  -14.5339   25.2106 C   0  0  0  0  0  0  0  0  0  0  0  0
    8.3461  -14.9990   24.8326 C   0  0  0  0  0  0  0  0  0  0  0  0
    8.7446  -16.2761   25.5010 C   0  0  0  0  0  0  0  0  0  0  0  0
   10.0767  -16.7581   25.0530 C   0  0  2  0  0  0  0  0  0  0  0  0
    9.9297  -17.6260   23.8586 N   0  0  0  0  0  0  0  0  0  0  0  0
   10.7073  -17.6107   26.0637 C   0  0  0  0  0  0  0  0  0  0  0  0
   11.6671  -17.1250   26.9143 O   0  0  0  0  0  0  0  0  0  0  0  0
   10.3871  -18.8128   26.1776 O   0  0  0  0  0  0  0  0  0  0  0  0
  2  1  1  0
  2  3  2  0
  4  5  1  0
  4  2  1  0
  6  7  1  6
  6  5  1  0
  8  6  1  0
  9  8  2  0
 11 10  1  6
 11 12  1  0
 12  8  1  0
 13 11  1  0
 13 23  1  0
 14 13  2  0
 16 15  1  0
 17 16  2  0
 18 16  1  0
 19 18  1  0
 20 21  1  0
 20 19  1  0
 22 21  1  1
 22 23  1  0
 22 24  1  0
 24 25  1  0
 26 24  2  0
M  END
$$$$
