QAR.pdb
     RDKit          3D

 26 25  0  0  1  0  0  0  0  0999 V2000
    8.0346  -14.8143   14.1002 N   0  0  0  0  0  0  0  0  0  0  0  0
    7.6908  -16.0387   14.7217 C   0  0  0  0  0  0  0  0  0  0  0  0
    7.1871  -16.9465   14.0429 O   0  0  0  0  0  0  0  0  0  0  0  0
    7.9361  -16.2104   16.1588 C   0  0  0  0  0  0  0  0  0  0  0  0
    8.4743  -14.9960   16.8626 C   0  0  0  0  0  0  0  0  0  0  0  0
    9.5270  -15.3536   17.8527 C   0  0  2  0  0  0  0  0  0  0  0  0
    9.7306  -16.8022   17.7395 N   0  0  0  0  0  0  0  0  0  0  0  0
    9.1694  -14.9792   19.2425 C   0  0  0  0  0  0  0  0  0  0  0  0
    8.6174  -15.8387   20.0078 O   0  0  0  0  0  0  0  0  0  0  0  0
    7.0616  -12.9655   19.9188 C   0  0  0  0  0  0  0  0  0  0  0  0
    8.3947  -13.0202   20.6363 C   0  0  2  0  0  0  0  0  0  0  0  0
    9.3981  -13.6974   19.8139 N   0  0  0  0  0  0  0  0  0  0  0  0
    8.2038  -13.6989   21.9248 C   0  0  0  0  0  0  0  0  0  0  0  0
    7.4222  -13.1680   22.7865 O   0  0  0  0  0  0  0  0  0  0  0  0
    5.6157  -20.4411   20.9317 N   0  0  0  0  0  0  0  0  0  0  0  0
    5.5734  -20.1603   22.3125 C   0  0  0  0  0  0  0  0  0  0  0  0
    5.0738  -21.0262   23.1494 N   0  0  0  0  0  0  0  0  0  0  0  0
    6.0663  -18.9361   22.8585 N   0  0  0  0  0  0  0  0  0  0  0  0
    6.1729  -17.7358   22.0785 C   0  0  0  0  0  0  0  0  0  0  0  0
    6.5662  -16.5394   22.9211 C   0  0  0  0  0  0  0  0  0  0  0  0
    7.8698  -16.7193   23.6316 C   0  0  0  0  0  0  0  0  0  0  0  0
    8.6685  -15.4672   23.6755 C   0  0  2  0  0  0  0  0  0  0  0  0
    8.8162  -14.9084   22.3090 N   0  0  0  0  0  0  0  0  0  0  0  0
   10.0381  -15.7194   24.1302 C   0  0  0  0  0  0  0  0  0  0  0  0
   11.1180  -15.4860   23.3177 O   0  0  0  0  0  0  0  0  0  0  0  0
   10.2612  -16.1590   25.2780 O   0  0  0  0  0  0  0  0  0  0  0  0
  2  1  1  0
  2  3  2  0
  4  5  1  0
  4  2  1  0
  6  7  1  1
  6  5  1  0
  8  6  1  0
  9  8  2  0
 11 10  1  6
 11 12  1  0
 12  8  1  0
 13 11  1  0
 13 23  1  0
 14 13  2  0
 16 15  1  0
 17 16  2  0
 18 16  1  0
 19 18  1  0
 20 21  1  0
 20 19  1  0
 22 21  1  6
 22 23  1  0
 22 24  1  0
 24 25  1  0
 26 24  2  0
M  END
$$$$
