QAR.pdb
     RDKit          3D

 26 25  0  0  1  0  0  0  0  0999 V2000
   10.5291  -15.4161   16.5321 N   0  0  0  0  0  0  0  0  0  0  0  0
    9.8226  -15.7975   15.3664 C   0  0  0  0  0  0  0  0  0  0  0  0
    9.2430  -14.9311   14.6941 O   0  0  0  0  0  0  0  0  0  0  0  0
    9.7885  -17.2121   14.9756 C   0  0  0  0  0  0  0  0  0  0  0  0
   10.7029  -18.1116   15.7595 C   0  0  0  0  0  0  0  0  0  0  0  0
    9.9976  -19.3311   16.2408 C   0  0  2  0  0  0  0  0  0  0  0  0
    8.6407  -19.2741   15.6854 N   0  0  0  0  0  0  0  0  0  0  0  0
    9.9572  -19.4339   17.7197 C   0  0  0  0  0  0  0  0  0  0  0  0
    9.1433  -18.7082   18.3830 O   0  0  0  0  0  0  0  0  0  0  0  0
   11.4536  -21.5756   20.4712 C   0  0  0  0  0  0  0  0  0  0  0  0
   10.6810  -20.3830   19.9458 C   0  0  2  0  0  0  0  0  0  0  0  0
   10.7785  -20.3042   18.4878 N   0  0  0  0  0  0  0  0  0  0  0  0
   11.2013  -19.1695   20.5892 C   0  0  0  0  0  0  0  0  0  0  0  0
   12.2019  -18.5761   20.0582 O   0  0  0  0  0  0  0  0  0  0  0  0
    6.7317  -12.6180   20.8589 N   0  0  0  0  0  0  0  0  0  0  0  0
    7.7839  -12.7797   19.9347 C   0  0  0  0  0  0  0  0  0  0  0  0
    7.8225  -12.0668   18.8437 N   0  0  0  0  0  0  0  0  0  0  0  0
    8.8438  -13.7146   20.1398 N   0  0  0  0  0  0  0  0  0  0  0  0
    8.9208  -14.5430   21.3095 C   0  0  0  0  0  0  0  0  0  0  0  0
   10.1069  -15.4851   21.2660 C   0  0  0  0  0  0  0  0  0  0  0  0
   10.2545  -16.3077   22.5062 C   0  0  0  0  0  0  0  0  0  0  0  0
   11.2871  -17.3665   22.3639 C   0  0  2  0  0  0  0  0  0  0  0  0
   10.6890  -18.5849   21.7645 N   0  0  0  0  0  0  0  0  0  0  0  0
   11.7966  -17.7986   23.6677 C   0  0  0  0  0  0  0  0  0  0  0  0
   11.3222  -18.9276   24.2849 O   0  0  0  0  0  0  0  0  0  0  0  0
   12.6821  -17.1444   24.2581 O   0  0  0  0  0  0  0  0  0  0  0  0
  2  1  1  0
  2  3  2  0
  4  5  1  0
  4  2  1  0
  6  7  1  1
  6  5  1  0
  8  6  1  0
  9  8  2  0
 11 10  1  1
 11 12  1  0
 12  8  1  0
 13 11  1  0
 13 23  1  0
 14 13  2  0
 16 15  1  0
 17 16  2  0
 18 16  1  0
 19 18  1  0
 20 21  1  0
 20 19  1  0
 22 21  1  1
 22 23  1  0
 22 24  1  0
 24 25  1  0
 26 24  2  0
M  END
$$$$
