QAR.pdb
     RDKit          3D

 26 25  0  0  1  0  0  0  0  0999 V2000
   -1.1995  -19.4297   22.4380 N   0  0  0  0  0  0  0  0  0  0  0  0
   -0.2602  -19.9597   21.5212 C   0  0  0  0  0  0  0  0  0  0  0  0
   -0.5837  -20.1044   20.3324 O   0  0  0  0  0  0  0  0  0  0  0  0
    1.0790  -20.3291   21.9952 C   0  0  0  0  0  0  0  0  0  0  0  0
    1.9873  -19.1716   22.3035 C   0  0  0  0  0  0  0  0  0  0  0  0
    3.4137  -19.5031   22.0358 C   0  0  2  0  0  0  0  0  0  0  0  0
    3.4890  -20.9646   21.9301 N   0  0  0  0  0  0  0  0  0  0  0  0
    4.3338  -19.0030   23.0859 C   0  0  0  0  0  0  0  0  0  0  0  0
    4.3413  -17.7616   23.3826 O   0  0  0  0  0  0  0  0  0  0  0  0
    6.9443  -20.3736   25.4881 C   0  0  0  0  0  0  0  0  0  0  0  0
    6.1456  -19.2697   24.8257 C   0  0  2  0  0  0  0  0  0  0  0  0
    5.2406  -19.8198   23.8158 N   0  0  0  0  0  0  0  0  0  0  0  0
    7.0828  -18.3011   24.2420 C   0  0  0  0  0  0  0  0  0  0  0  0
    7.7114  -18.6234   23.1761 O   0  0  0  0  0  0  0  0  0  0  0  0
    8.5247  -13.8332   18.7050 N   0  0  0  0  0  0  0  0  0  0  0  0
    8.4792  -12.6864   19.5236 C   0  0  0  0  0  0  0  0  0  0  0  0
    8.3986  -11.4977   18.9942 N   0  0  0  0  0  0  0  0  0  0  0  0
    8.5176  -12.7635   20.9492 N   0  0  0  0  0  0  0  0  0  0  0  0
    7.8294  -13.7887   21.6811 C   0  0  0  0  0  0  0  0  0  0  0  0
    8.0246  -13.6519   23.1776 C   0  0  0  0  0  0  0  0  0  0  0  0
    7.3339  -14.7200   23.9642 C   0  0  0  0  0  0  0  0  0  0  0  0
    8.0948  -15.9961   23.9762 C   0  0  2  0  0  0  0  0  0  0  0  0
    7.3606  -17.0203   24.7595 N   0  0  0  0  0  0  0  0  0  0  0  0
    9.3813  -15.8480   24.6611 C   0  0  0  0  0  0  0  0  0  0  0  0
    9.5985  -16.3858   25.9038 O   0  0  0  0  0  0  0  0  0  0  0  0
   10.3218  -15.2213   24.1288 O   0  0  0  0  0  0  0  0  0  0  0  0
  2  1  1  0
  2  3  2  0
  4  5  1  0
  4  2  1  0
  6  7  1  1
  6  5  1  0
  8  6  1  0
  9  8  2  0
 11 10  1  6
 11 12  1  0
 12  8  1  0
 13 11  1  0
 13 23  1  0
 14 13  2  0
 16 15  1  0
 17 16  2  0
 18 16  1  0
 19 18  1  0
 20 21  1  0
 20 19  1  0
 22 21  1  1
 22 23  1  0
 22 24  1  0
 24 25  1  0
 26 24  2  0
M  END
$$$$
