QAR.pdb
     RDKit          3D

 26 25  0  0  1  0  0  0  0  0999 V2000
    9.3065  -18.5933   16.6823 N   0  0  0  0  0  0  0  0  0  0  0  0
    8.6851  -18.2227   15.4657 C   0  0  0  0  0  0  0  0  0  0  0  0
    8.1535  -19.0953   14.7622 O   0  0  0  0  0  0  0  0  0  0  0  0
    8.6823  -16.8122   15.0589 C   0  0  0  0  0  0  0  0  0  0  0  0
    9.3351  -15.8682   16.0297 C   0  0  0  0  0  0  0  0  0  0  0  0
    8.3623  -14.8869   16.5838 C   0  0  2  0  0  0  0  0  0  0  0  0
    8.4309  -13.7007   15.7229 N   0  0  0  0  0  0  0  0  0  0  0  0
    8.6381  -14.5289   17.9964 C   0  0  0  0  0  0  0  0  0  0  0  0
    9.7890  -14.7634   18.4960 O   0  0  0  0  0  0  0  0  0  0  0  0
    6.8462  -12.9563   20.9570 C   0  0  0  0  0  0  0  0  0  0  0  0
    7.9564  -13.7513   20.3009 C   0  0  2  0  0  0  0  0  0  0  0  0
    7.6942  -13.9250   18.8717 N   0  0  0  0  0  0  0  0  0  0  0  0
    8.0756  -15.0430   20.9898 C   0  0  0  0  0  0  0  0  0  0  0  0
    7.8004  -16.1103   20.3415 O   0  0  0  0  0  0  0  0  0  0  0  0
   13.8832  -19.4092   20.0676 N   0  0  0  0  0  0  0  0  0  0  0  0
   14.5307  -19.0155   21.2563 C   0  0  0  0  0  0  0  0  0  0  0  0
   15.7535  -19.3954   21.5014 N   0  0  0  0  0  0  0  0  0  0  0  0
   13.8945  -18.1948   22.2368 N   0  0  0  0  0  0  0  0  0  0  0  0
   13.0260  -17.1085   21.8818 C   0  0  0  0  0  0  0  0  0  0  0  0
   11.6863  -17.1943   22.5848 C   0  0  0  0  0  0  0  0  0  0  0  0
   10.7156  -16.1483   22.1373 C   0  0  0  0  0  0  0  0  0  0  0  0
    9.3717  -16.3253   22.7458 C   0  0  2  0  0  0  0  0  0  0  0  0
    8.4739  -15.2197   22.3299 N   0  0  0  0  0  0  0  0  0  0  0  0
    9.4279  -16.2365   24.2070 C   0  0  0  0  0  0  0  0  0  0  0  0
    8.7652  -15.2500   24.8916 O   0  0  0  0  0  0  0  0  0  0  0  0
   10.0874  -17.0616   24.8740 O   0  0  0  0  0  0  0  0  0  0  0  0
  2  1  1  0
  2  3  2  0
  4  5  1  0
  4  2  1  0
  6  7  1  6
  6  5  1  0
  8  6  1  0
  9  8  2  0
 11 10  1  1
 11 12  1  0
 12  8  1  0
 13 11  1  0
 13 23  1  0
 14 13  2  0
 16 15  1  0
 17 16  2  0
 18 16  1  0
 19 18  1  0
 20 21  1  0
 20 19  1  0
 22 21  1  6
 22 23  1  0
 22 24  1  0
 24 25  1  0
 26 24  2  0
M  END
$$$$
