QAR.pdb
     RDKit          3D

 26 25  0  0  1  0  0  0  0  0999 V2000
   12.4606  -18.9208   15.6514 N   0  0  0  0  0  0  0  0  0  0  0  0
   13.0215  -17.6728   16.0140 C   0  0  0  0  0  0  0  0  0  0  0  0
   14.1741  -17.6323   16.4709 O   0  0  0  0  0  0  0  0  0  0  0  0
   12.2278  -16.4498   15.8433 C   0  0  0  0  0  0  0  0  0  0  0  0
   11.8633  -15.7438   17.1194 C   0  0  0  0  0  0  0  0  0  0  0  0
   11.1385  -14.4701   16.8575 C   0  0  2  0  0  0  0  0  0  0  0  0
   12.0930  -13.5769   16.1913 N   0  0  0  0  0  0  0  0  0  0  0  0
   10.6017  -13.8427   18.0894 C   0  0  0  0  0  0  0  0  0  0  0  0
   11.3799  -13.1781   18.8524 O   0  0  0  0  0  0  0  0  0  0  0  0
    7.2779  -13.1418   19.7430 C   0  0  0  0  0  0  0  0  0  0  0  0
    8.7802  -13.3364   19.7646 C   0  0  2  0  0  0  0  0  0  0  0  0
    9.2446  -13.9222   18.5065 N   0  0  0  0  0  0  0  0  0  0  0  0
    9.1248  -14.1822   20.9148 C   0  0  0  0  0  0  0  0  0  0  0  0
    8.6850  -13.8538   22.0698 O   0  0  0  0  0  0  0  0  0  0  0  0
   10.8649  -21.9706   18.6507 N   0  0  0  0  0  0  0  0  0  0  0  0
    9.6153  -21.3305   18.5239 C   0  0  0  0  0  0  0  0  0  0  0  0
    8.7155  -21.7916   17.7008 N   0  0  0  0  0  0  0  0  0  0  0  0
    9.2742  -20.1653   19.2760 N   0  0  0  0  0  0  0  0  0  0  0  0
   10.1832  -19.5595   20.2071 C   0  0  0  0  0  0  0  0  0  0  0  0
    9.6496  -18.2533   20.7597 C   0  0  0  0  0  0  0  0  0  0  0  0
   10.6253  -17.5421   21.6422 C   0  0  0  0  0  0  0  0  0  0  0  0
   10.1403  -16.2003   22.0568 C   0  0  2  0  0  0  0  0  0  0  0  0
    9.9137  -15.3486   20.8631 N   0  0  0  0  0  0  0  0  0  0  0  0
   11.1470  -15.4851   22.8450 C   0  0  0  0  0  0  0  0  0  0  0  0
   11.2743  -15.6839   24.1959 O   0  0  0  0  0  0  0  0  0  0  0  0
   11.9212  -14.6672   22.3044 O   0  0  0  0  0  0  0  0  0  0  0  0
  2  1  1  0
  2  3  2  0
  4  5  1  0
  4  2  1  0
  6  7  1  1
  6  5  1  0
  8  6  1  0
  9  8  2  0
 11 10  1  6
 11 12  1  0
 12  8  1  0
 13 11  1  0
 13 23  1  0
 14 13  2  0
 16 15  1  0
 17 16  2  0
 18 16  1  0
 19 18  1  0
 20 21  1  0
 20 19  1  0
 22 21  1  6
 22 23  1  0
 22 24  1  0
 24 25  1  0
 26 24  2  0
M  END
$$$$
