QAR.pdb
     RDKit          3D

 26 25  0  0  1  0  0  0  0  0999 V2000
    3.4914  -17.8379   22.3576 N   0  0  0  0  0  0  0  0  0  0  0  0
    4.5041  -18.8087   22.1688 C   0  0  0  0  0  0  0  0  0  0  0  0
    4.7219  -19.6435   23.0601 O   0  0  0  0  0  0  0  0  0  0  0  0
    5.2782  -18.8085   20.9217 C   0  0  0  0  0  0  0  0  0  0  0  0
    4.9871  -17.6638   19.9916 C   0  0  0  0  0  0  0  0  0  0  0  0
    6.2209  -17.1718   19.3193 C   0  0  2  0  0  0  0  0  0  0  0  0
    6.9228  -18.3582   18.8167 N   0  0  0  0  0  0  0  0  0  0  0  0
    7.0977  -16.3828   20.2183 C   0  0  0  0  0  0  0  0  0  0  0  0
    8.0640  -16.9561   20.8238 O   0  0  0  0  0  0  0  0  0  0  0  0
    7.4047  -12.8139   21.4974 C   0  0  0  0  0  0  0  0  0  0  0  0
    7.7947  -14.2760   21.4250 C   0  0  2  0  0  0  0  0  0  0  0  0
    6.9465  -14.9917   20.4710 N   0  0  0  0  0  0  0  0  0  0  0  0
    7.6984  -14.8521   22.7726 C   0  0  0  0  0  0  0  0  0  0  0  0
    6.5504  -15.2166   23.2020 O   0  0  0  0  0  0  0  0  0  0  0  0
    5.7275  -21.5960   25.8997 N   0  0  0  0  0  0  0  0  0  0  0  0
    6.6104  -21.1301   26.8951 C   0  0  0  0  0  0  0  0  0  0  0  0
    6.5205  -21.5706   28.1190 N   0  0  0  0  0  0  0  0  0  0  0  0
    7.6312  -20.1694   26.6218 N   0  0  0  0  0  0  0  0  0  0  0  0
    7.5489  -19.2550   25.5185 C   0  0  0  0  0  0  0  0  0  0  0  0
    8.7940  -18.4010   25.3894 C   0  0  0  0  0  0  0  0  0  0  0  0
    8.7096  -17.3953   24.2858 C   0  0  0  0  0  0  0  0  0  0  0  0
    8.7071  -15.9982   24.7917 C   0  0  2  0  0  0  0  0  0  0  0  0
    8.7783  -15.0449   23.6570 N   0  0  0  0  0  0  0  0  0  0  0  0
    9.8981  -15.7164   25.5968 C   0  0  0  0  0  0  0  0  0  0  0  0
    9.9403  -15.9982   26.9382 O   0  0  0  0  0  0  0  0  0  0  0  0
   10.9145  -15.2059   25.0799 O   0  0  0  0  0  0  0  0  0  0  0  0
  2  1  1  0
  2  3  2  0
  4  5  1  0
  4  2  1  0
  6  7  1  1
  6  5  1  0
  8  6  1  0
  9  8  2  0
 11 10  1  1
 11 12  1  0
 12  8  1  0
 13 11  1  0
 13 23  1  0
 14 13  2  0
 16 15  1  0
 17 16  2  0
 18 16  1  0
 19 18  1  0
 20 21  1  0
 20 19  1  0
 22 21  1  6
 22 23  1  0
 22 24  1  0
 24 25  1  0
 26 24  2  0
M  END
$$$$
