LHM.pdb
     RDKit          3D

 27 27  0  0  1  0  0  0  0  0999 V2000
    6.6306  -12.8389   18.1295 C   0  0  0  0  0  0  0  0  0  0  0  0
    8.0183  -13.4268   18.4160 C   0  0  1  0  0  0  0  0  0  0  0  0
    9.0262  -12.2852   18.5247 C   0  0  0  0  0  0  0  0  0  0  0  0
    7.9559  -14.1951   19.7033 C   0  0  0  0  0  0  0  0  0  0  0  0
    9.2846  -14.6198   20.2513 C   0  0  2  0  0  0  0  0  0  0  0  0
   10.0266  -15.3978   19.2564 N   0  0  0  0  0  0  0  0  0  0  0  0
    9.1135  -15.4121   21.4944 C   0  0  0  0  0  0  0  0  0  0  0  0
    8.2583  -15.1776   22.3759 O   0  0  0  0  0  0  0  0  0  0  0  0
    9.9629  -16.5494   21.7687 N   0  0  0  0  0  0  0  0  0  0  0  0
    9.8221  -17.2975   22.9968 C   0  0  1  0  0  0  0  0  0  0  0  0
   10.6175  -18.5767   22.9727 C   0  0  0  0  0  0  0  0  0  0  0  0
    9.9836  -19.6211   22.1410 C   0  0  0  0  0  0  0  0  0  0  0  0
    8.6409  -19.7498   21.8800 C   0  0  0  0  0  0  0  0  0  0  0  0
    8.4394  -20.8277   21.0772 N   0  0  0  0  0  0  0  0  0  0  0  0
    9.6365  -21.3660   20.8386 C   0  0  0  0  0  0  0  0  0  0  0  0
   10.5615  -20.6378   21.4798 N   0  0  0  0  0  0  0  0  0  0  0  0
   10.1073  -16.4243   24.1491 C   0  0  0  0  0  0  0  0  0  0  0  0
   11.1610  -15.7534   24.1578 O   0  0  0  0  0  0  0  0  0  0  0  0
    6.3490  -11.4934   26.6691 C   0  0  0  0  0  0  0  0  0  0  0  0
    6.7340  -12.7813   27.8282 S   0  0  0  0  0  0  0  0  0  0  0  0
    8.2967  -13.5719   27.5809 C   0  0  0  0  0  0  0  0  0  0  0  0
    8.2849  -14.5898   26.5159 C   0  0  0  0  0  0  0  0  0  0  0  0
    9.5807  -15.3175   26.2803 C   0  0  2  0  0  0  0  0  0  0  0  0
    9.2264  -16.3216   25.2403 N   0  0  0  0  0  0  0  0  0  0  0  0
    9.9015  -16.0728   27.5269 C   0  0  0  0  0  0  0  0  0  0  0  0
   10.4722  -15.4984   28.6304 O   0  0  0  0  0  0  0  0  0  0  0  0
    9.6474  -17.3069   27.6044 O   0  0  0  0  0  0  0  0  0  0  0  0
  2  4  1  0
  2  1  1  1
  3  2  1  0
  4  5  1  0
  5  6  1  6
  7  8  2  0
  7  5  1  0
  9  7  1  0
 10  9  1  0
 10 11  1  6
 12 16  1  0
 12 11  1  0
 13 12  2  0
 14 13  1  0
 14 15  1  0
 15 16  2  0
 17 10  1  0
 18 17  2  0
 20 19  1  0
 21 20  1  0
 22 21  1  0
 23 22  1  1
 23 24  1  0
 24 17  1  0
 25 23  1  0
 26 25  1  0
 27 25  2  0
M  END
$$$$
