LHM.pdb
     RDKit          3D

 27 27  0  0  1  0  0  0  0  0999 V2000
    7.3521  -11.7612   19.4437 C   0  0  0  0  0  0  0  0  0  0  0  0
    8.2115  -12.9291   18.9424 C   0  0  1  0  0  0  0  0  0  0  0  0
    9.6666  -12.4737   18.8624 C   0  0  0  0  0  0  0  0  0  0  0  0
    8.0724  -14.0726   19.9040 C   0  0  0  0  0  0  0  0  0  0  0  0
    8.8929  -15.2818   19.5714 C   0  0  2  0  0  0  0  0  0  0  0  0
    8.3519  -15.9623   18.3924 N   0  0  0  0  0  0  0  0  0  0  0  0
    8.9435  -16.2175   20.7222 C   0  0  0  0  0  0  0  0  0  0  0  0
    7.9457  -16.7683   21.2361 O   0  0  0  0  0  0  0  0  0  0  0  0
   10.2043  -16.5599   21.3412 N   0  0  0  0  0  0  0  0  0  0  0  0
   10.2439  -17.3625   22.5420 C   0  0  1  0  0  0  0  0  0  0  0  0
   11.4740  -18.2302   22.6006 C   0  0  0  0  0  0  0  0  0  0  0  0
   11.4809  -19.1226   23.7787 C   0  0  0  0  0  0  0  0  0  0  0  0
   10.3780  -19.5993   24.4449 C   0  0  0  0  0  0  0  0  0  0  0  0
   10.7805  -20.3902   25.4742 N   0  0  0  0  0  0  0  0  0  0  0  0
   12.1143  -20.4091   25.4536 C   0  0  0  0  0  0  0  0  0  0  0  0
   12.5310  -19.6460   24.4333 N   0  0  0  0  0  0  0  0  0  0  0  0
   10.0471  -16.5040   23.7234 C   0  0  0  0  0  0  0  0  0  0  0  0
   10.7702  -15.4960   23.8701 O   0  0  0  0  0  0  0  0  0  0  0  0
    7.8994  -11.2568   27.0506 C   0  0  0  0  0  0  0  0  0  0  0  0
    6.9396  -12.6603   26.5409 S   0  0  0  0  0  0  0  0  0  0  0  0
    7.6122  -14.2332   26.9898 C   0  0  0  0  0  0  0  0  0  0  0  0
    7.8826  -15.1132   25.8397 C   0  0  0  0  0  0  0  0  0  0  0  0
    9.1168  -15.9685   25.9353 C   0  0  2  0  0  0  0  0  0  0  0  0
    9.0665  -16.7844   24.6915 N   0  0  0  0  0  0  0  0  0  0  0  0
    8.9235  -16.9048   27.0813 C   0  0  0  0  0  0  0  0  0  0  0  0
    9.2992  -16.6131   28.3646 O   0  0  0  0  0  0  0  0  0  0  0  0
    8.3889  -18.0332   26.8956 O   0  0  0  0  0  0  0  0  0  0  0  0
  2  4  1  0
  2  1  1  1
  3  2  1  0
  4  5  1  0
  5  6  1  6
  7  8  2  0
  7  5  1  0
  9  7  1  0
 10  9  1  0
 10 11  1  1
 12 16  1  0
 12 11  1  0
 13 12  2  0
 14 13  1  0
 14 15  1  0
 15 16  2  0
 17 10  1  0
 18 17  2  0
 20 19  1  0
 21 20  1  0
 22 21  1  0
 23 22  1  6
 23 24  1  0
 24 17  1  0
 25 23  1  0
 26 25  1  0
 27 25  2  0
M  END
$$$$
