LHM.pdb
     RDKit          3D

 27 27  0  0  1  0  0  0  0  0999 V2000
    7.2284  -11.9698   18.7730 C   0  0  0  0  0  0  0  0  0  0  0  0
    8.3602  -12.9951   18.6268 C   0  0  1  0  0  0  0  0  0  0  0  0
    9.7000  -12.2747   18.7572 C   0  0  0  0  0  0  0  0  0  0  0  0
    8.2131  -14.0272   19.7060 C   0  0  0  0  0  0  0  0  0  0  0  0
    9.3446  -15.0049   19.8045 C   0  0  2  0  0  0  0  0  0  0  0  0
    9.4440  -15.8020   18.5795 N   0  0  0  0  0  0  0  0  0  0  0  0
    9.1719  -15.8947   20.9795 C   0  0  0  0  0  0  0  0  0  0  0  0
    8.1867  -15.8745   21.7490 O   0  0  0  0  0  0  0  0  0  0  0  0
   10.1770  -16.8780   21.3159 N   0  0  0  0  0  0  0  0  0  0  0  0
   10.0714  -17.6575   22.5279 C   0  0  1  0  0  0  0  0  0  0  0  0
   11.0191  -18.8286   22.5301 C   0  0  0  0  0  0  0  0  0  0  0  0
   10.5581  -19.9306   21.6599 C   0  0  0  0  0  0  0  0  0  0  0  0
    9.3300  -20.0280   21.0518 C   0  0  0  0  0  0  0  0  0  0  0  0
    9.2738  -21.1792   20.3319 N   0  0  0  0  0  0  0  0  0  0  0  0
   10.4478  -21.7939   20.4861 C   0  0  0  0  0  0  0  0  0  0  0  0
   11.2164  -21.0401   21.2849 N   0  0  0  0  0  0  0  0  0  0  0  0
   10.1912  -16.7747   23.7017 C   0  0  0  0  0  0  0  0  0  0  0  0
   11.1986  -16.0445   23.8135 O   0  0  0  0  0  0  0  0  0  0  0  0
    6.1124  -11.7016   27.7400 C   0  0  0  0  0  0  0  0  0  0  0  0
    6.3440  -13.0156   26.5693 S   0  0  0  0  0  0  0  0  0  0  0  0
    7.8616  -13.9089   26.7334 C   0  0  0  0  0  0  0  0  0  0  0  0
    8.0746  -14.9157   25.6792 C   0  0  0  0  0  0  0  0  0  0  0  0
    9.3699  -15.6788   25.7436 C   0  0  2  0  0  0  0  0  0  0  0  0
    9.2028  -16.7276   24.7008 N   0  0  0  0  0  0  0  0  0  0  0  0
    9.4124  -16.3757   27.0626 C   0  0  0  0  0  0  0  0  0  0  0  0
    9.9052  -15.8012   28.2030 O   0  0  0  0  0  0  0  0  0  0  0  0
    8.9802  -17.5568   27.1706 O   0  0  0  0  0  0  0  0  0  0  0  0
  2  4  1  0
  2  1  1  1
  3  2  1  0
  4  5  1  0
  5  6  1  6
  7  8  2  0
  7  5  1  0
  9  7  1  0
 10  9  1  0
 10 11  1  6
 12 16  1  0
 12 11  1  0
 13 12  2  0
 14 13  1  0
 14 15  1  0
 15 16  2  0
 17 10  1  0
 18 17  2  0
 20 19  1  0
 21 20  1  0
 22 21  1  0
 23 22  1  1
 23 24  1  0
 24 17  1  0
 25 23  1  0
 26 25  1  0
 27 25  2  0
M  END
$$$$
