LHM.pdb
     RDKit          3D

 27 27  0  0  1  0  0  0  0  0999 V2000
    7.2870  -12.0827   19.0809 C   0  0  0  0  0  0  0  0  0  0  0  0
    7.8536  -13.4413   18.6485 C   0  0  1  0  0  0  0  0  0  0  0  0
    9.0759  -13.2083   17.7638 C   0  0  0  0  0  0  0  0  0  0  0  0
    8.2355  -14.2132   19.8772 C   0  0  0  0  0  0  0  0  0  0  0  0
    8.8382  -15.5603   19.6158 C   0  0  2  0  0  0  0  0  0  0  0  0
    7.9889  -16.3368   18.7094 N   0  0  0  0  0  0  0  0  0  0  0  0
    9.0421  -16.3021   20.8848 C   0  0  0  0  0  0  0  0  0  0  0  0
    8.1663  -16.9855   21.4584 O   0  0  0  0  0  0  0  0  0  0  0  0
   10.3206  -16.2751   21.5592 N   0  0  0  0  0  0  0  0  0  0  0  0
   10.5462  -17.0666   22.7468 C   0  0  1  0  0  0  0  0  0  0  0  0
   11.8540  -17.8121   22.6881 C   0  0  0  0  0  0  0  0  0  0  0  0
   11.8143  -18.9501   21.7459 C   0  0  0  0  0  0  0  0  0  0  0  0
   12.2966  -18.9587   20.4595 C   0  0  0  0  0  0  0  0  0  0  0  0
   12.0820  -20.1813   19.9061 N   0  0  0  0  0  0  0  0  0  0  0  0
   11.4750  -20.9272   20.8308 C   0  0  0  0  0  0  0  0  0  0  0  0
   11.3161  -20.1835   21.9346 N   0  0  0  0  0  0  0  0  0  0  0  0
   10.3766  -16.2274   23.9462 C   0  0  0  0  0  0  0  0  0  0  0  0
   10.6279  -15.0059   23.8744 O   0  0  0  0  0  0  0  0  0  0  0  0
    6.5977  -12.1249   27.8367 C   0  0  0  0  0  0  0  0  0  0  0  0
    7.6651  -13.0438   26.7563 S   0  0  0  0  0  0  0  0  0  0  0  0
    7.0932  -14.6634   26.3347 C   0  0  0  0  0  0  0  0  0  0  0  0
    8.0338  -15.4251   25.4949 C   0  0  0  0  0  0  0  0  0  0  0  0
    9.3445  -15.7943   26.1352 C   0  0  2  0  0  0  0  0  0  0  0  0
    9.9375  -16.7607   25.1710 N   0  0  0  0  0  0  0  0  0  0  0  0
    9.0340  -16.5542   27.3816 C   0  0  0  0  0  0  0  0  0  0  0  0
    8.8008  -17.9027   27.4039 O   0  0  0  0  0  0  0  0  0  0  0  0
    8.9752  -15.9558   28.4916 O   0  0  0  0  0  0  0  0  0  0  0  0
  2  4  1  0
  2  1  1  1
  3  2  1  0
  4  5  1  0
  5  6  1  6
  7  8  2  0
  7  5  1  0
  9  7  1  0
 10  9  1  0
 10 11  1  6
 12 16  1  0
 12 11  1  0
 13 12  2  0
 14 13  1  0
 14 15  1  0
 15 16  2  0
 17 10  1  0
 18 17  2  0
 20 19  1  0
 21 20  1  0
 22 21  1  0
 23 22  1  6
 23 24  1  0
 24 17  1  0
 25 23  1  0
 26 25  1  0
 27 25  2  0
M  END
$$$$
