LHM.pdb
     RDKit          3D

 27 27  0  0  1  0  0  0  0  0999 V2000
    7.4602  -11.9514   19.3367 C   0  0  0  0  0  0  0  0  0  0  0  0
    8.1989  -13.1845   18.8007 C   0  0  1  0  0  0  0  0  0  0  0  0
    9.5506  -12.7469   18.2415 C   0  0  0  0  0  0  0  0  0  0  0  0
    8.3880  -14.1565   19.9280 C   0  0  0  0  0  0  0  0  0  0  0  0
    9.2138  -15.3613   19.5924 C   0  0  2  0  0  0  0  0  0  0  0  0
    8.5667  -16.1526   18.5433 N   0  0  0  0  0  0  0  0  0  0  0  0
    9.4393  -16.1982   20.7970 C   0  0  0  0  0  0  0  0  0  0  0  0
    8.5461  -16.8299   21.4023 O   0  0  0  0  0  0  0  0  0  0  0  0
   10.7621  -16.3365   21.3637 N   0  0  0  0  0  0  0  0  0  0  0  0
   10.9820  -17.1514   22.5364 C   0  0  1  0  0  0  0  0  0  0  0  0
   12.3493  -17.7840   22.5357 C   0  0  0  0  0  0  0  0  0  0  0  0
   12.4877  -18.8303   21.5012 C   0  0  0  0  0  0  0  0  0  0  0  0
   12.0329  -20.1240   21.5861 C   0  0  0  0  0  0  0  0  0  0  0  0
   12.3440  -20.7870   20.4414 N   0  0  0  0  0  0  0  0  0  0  0  0
   12.9835  -19.9229   19.6513 C   0  0  0  0  0  0  0  0  0  0  0  0
   13.0677  -18.7485   20.2921 N   0  0  0  0  0  0  0  0  0  0  0  0
   10.6703  -16.3754   23.7497 C   0  0  0  0  0  0  0  0  0  0  0  0
   11.4286  -15.4413   24.0858 O   0  0  0  0  0  0  0  0  0  0  0  0
    6.1215  -11.9902   27.5876 C   0  0  0  0  0  0  0  0  0  0  0  0
    6.6842  -13.0071   26.2460 S   0  0  0  0  0  0  0  0  0  0  0  0
    7.3420  -14.5791   26.7196 C   0  0  0  0  0  0  0  0  0  0  0  0
    7.8944  -15.3544   25.5953 C   0  0  0  0  0  0  0  0  0  0  0  0
    9.3337  -15.7743   25.7237 C   0  0  2  0  0  0  0  0  0  0  0  0
    9.5417  -16.6536   24.5409 N   0  0  0  0  0  0  0  0  0  0  0  0
    9.4403  -16.6383   26.9358 C   0  0  0  0  0  0  0  0  0  0  0  0
    9.5710  -16.1433   28.2051 O   0  0  0  0  0  0  0  0  0  0  0  0
    9.4118  -17.8954   26.8236 O   0  0  0  0  0  0  0  0  0  0  0  0
  2  4  1  0
  2  1  1  1
  3  2  1  0
  4  5  1  0
  5  6  1  6
  7  8  2  0
  7  5  1  0
  9  7  1  0
 10  9  1  0
 10 11  1  1
 12 16  1  0
 12 11  1  0
 13 12  2  0
 14 13  1  0
 14 15  1  0
 15 16  2  0
 17 10  1  0
 18 17  2  0
 20 19  1  0
 21 20  1  0
 22 21  1  0
 23 22  1  6
 23 24  1  0
 24 17  1  0
 25 23  1  0
 26 25  1  0
 27 25  2  0
M  END
$$$$
