LHM.pdb
     RDKit          3D

 27 27  0  0  1  0  0  0  0  0999 V2000
    6.8874  -12.6329   19.0672 C   0  0  0  0  0  0  0  0  0  0  0  0
    8.2288  -13.3762   19.1091 C   0  0  1  0  0  0  0  0  0  0  0  0
    9.3615  -12.3524   19.1147 C   0  0  0  0  0  0  0  0  0  0  0  0
    8.2732  -14.2135   20.3534 C   0  0  0  0  0  0  0  0  0  0  0  0
    9.5994  -14.8497   20.6406 C   0  0  2  0  0  0  0  0  0  0  0  0
   10.0697  -15.6063   19.4778 N   0  0  0  0  0  0  0  0  0  0  0  0
    9.5124  -15.7380   21.8262 C   0  0  0  0  0  0  0  0  0  0  0  0
    8.6639  -15.6274   22.7378 O   0  0  0  0  0  0  0  0  0  0  0  0
   10.4445  -16.8290   22.0021 N   0  0  0  0  0  0  0  0  0  0  0  0
   10.3882  -17.6665   23.1781 C   0  0  1  0  0  0  0  0  0  0  0  0
   11.1127  -18.9719   22.9766 C   0  0  0  0  0  0  0  0  0  0  0  0
   10.4144  -19.8656   22.0288 C   0  0  0  0  0  0  0  0  0  0  0  0
    9.1151  -20.3009   22.1276 C   0  0  0  0  0  0  0  0  0  0  0  0
    8.8284  -21.1065   21.0713 N   0  0  0  0  0  0  0  0  0  0  0  0
    9.9302  -21.1750   20.3222 C   0  0  0  0  0  0  0  0  0  0  0  0
   10.8808  -20.4280   20.9013 N   0  0  0  0  0  0  0  0  0  0  0  0
   10.8284  -16.9013   24.3580 C   0  0  0  0  0  0  0  0  0  0  0  0
   11.8099  -16.1353   24.2547 O   0  0  0  0  0  0  0  0  0  0  0  0
    8.4799  -11.6889   26.9131 C   0  0  0  0  0  0  0  0  0  0  0  0
    8.4533  -12.9928   28.1173 S   0  0  0  0  0  0  0  0  0  0  0  0
    9.7665  -14.1695   27.9793 C   0  0  0  0  0  0  0  0  0  0  0  0
    9.6204  -15.0908   26.8391 C   0  0  0  0  0  0  0  0  0  0  0  0
   10.6919  -16.1368   26.6907 C   0  0  2  0  0  0  0  0  0  0  0  0
   10.1747  -17.0057   25.5985 N   0  0  0  0  0  0  0  0  0  0  0  0
   10.6924  -16.9555   27.9385 C   0  0  0  0  0  0  0  0  0  0  0  0
   11.2812  -16.5501   29.1057 O   0  0  0  0  0  0  0  0  0  0  0  0
   10.1302  -18.0856   27.9563 O   0  0  0  0  0  0  0  0  0  0  0  0
  2  4  1  0
  2  1  1  1
  3  2  1  0
  4  5  1  0
  5  6  1  6
  7  8  2  0
  7  5  1  0
  9  7  1  0
 10  9  1  0
 10 11  1  6
 12 16  1  0
 12 11  1  0
 13 12  2  0
 14 13  1  0
 14 15  1  0
 15 16  2  0
 17 10  1  0
 18 17  2  0
 20 19  1  0
 21 20  1  0
 22 21  1  0
 23 22  1  1
 23 24  1  0
 24 17  1  0
 25 23  1  0
 26 25  1  0
 27 25  2  0
M  END
$$$$
