GRW.pdb
     RDKit          3D

 30 31  0  0  1  0  0  0  0  0999 V2000
   32.0137  -21.6496  -11.4829 N   0  0  0  0  0  0  0  0  0  0  0  0
   31.4259  -22.1161  -12.7132 C   0  0  0  0  0  0  0  0  0  0  0  0
   30.1097  -21.4288  -12.9261 C   0  0  0  0  0  0  0  0  0  0  0  0
   29.7727  -20.5105  -12.1736 O   0  0  0  0  0  0  0  0  0  0  0  0
   28.9170  -24.5419  -17.3725 N   0  0  0  0  0  0  0  0  0  0  0  0
   27.7825  -24.6440  -18.2532 C   0  0  0  0  0  0  0  0  0  0  0  0
   27.3523  -25.7919  -18.6326 N   0  0  0  0  0  0  0  0  0  0  0  0
   27.1973  -23.4245  -18.6557 N   0  0  0  0  0  0  0  0  0  0  0  0
   27.4482  -22.2048  -17.9469 C   0  0  0  0  0  0  0  0  0  0  0  0
   27.6960  -22.4657  -16.4924 C   0  0  0  0  0  0  0  0  0  0  0  0
   27.7471  -21.1476  -15.7672 C   0  0  0  0  0  0  0  0  0  0  0  0
   28.0095  -21.1723  -14.3188 C   0  0  2  0  0  0  0  0  0  0  0  0
   29.2625  -21.8220  -13.9707 N   0  0  0  0  0  0  0  0  0  0  0  0
   26.8750  -21.8176  -13.5712 C   0  0  0  0  0  0  0  0  0  0  0  0
   26.8257  -23.0632  -13.4059 O   0  0  0  0  0  0  0  0  0  0  0  0
   26.5486  -25.8334  -19.2893 N   0  0  0  0  0  0  0  0  0  0  0  0
   25.8646  -20.9603  -13.0628 C   0  0  1  0  0  0  0  0  0  0  0  0
   24.7646  -21.5060  -12.2286 C   0  0  0  0  0  0  0  0  0  0  0  0
   25.4451  -22.0819  -11.0376 C   0  0  0  0  0  0  0  0  0  0  0  0
   25.7674  -21.0582  -10.0386 C   0  0  0  0  0  0  0  0  0  0  0  0
   24.9273  -20.0345   -9.5888 N   0  0  0  0  0  0  0  0  0  0  0  0
   25.5741  -19.2687   -8.6973 C   0  0  0  0  0  0  0  0  0  0  0  0
   26.8213  -19.7636   -8.5475 C   0  0  0  0  0  0  0  0  0  0  0  0
   27.8834  -19.3621   -7.7415 C   0  0  0  0  0  0  0  0  0  0  0  0
   29.0439  -20.0797   -7.7823 C   0  0  0  0  0  0  0  0  0  0  0  0
   29.1742  -21.1821   -8.6014 C   0  0  0  0  0  0  0  0  0  0  0  0
   28.1327  -21.5797   -9.3961 C   0  0  0  0  0  0  0  0  0  0  0  0
   26.9526  -20.8726   -9.3735 C   0  0  0  0  0  0  0  0  0  0  0  0
   23.7384  -20.5092  -11.9864 O   0  0  0  0  0  0  0  0  0  0  0  0
   23.8470  -19.1761  -12.3179 O   0  0  0  0  0  0  0  0  0  0  0  0
  2  1  1  0
  3  2  1  0
  4  3  2  0
  6  8  1  0
  6  5  1  0
  7  6  2  0
  9  8  1  0
 10  9  1  0
 11 10  1  0
 12 11  1  6
 12 13  1  0
 13  3  1  0
 14 16  1  0
 14 12  1  0
 15 14  2  0
 17 18  1  1
 17 16  1  0
 18 19  1  0
 19 20  2  0
 19 27  1  0
 20 21  1  0
 21 22  1  0
 22 23  2  0
 23 24  1  0
 25 24  2  0
 26 25  1  0
 27 26  2  0
 27 22  1  0
 28 17  1  0
 28 29  1  0
 30 28  2  0
M  END
$$$$
