GRW.pdb
     RDKit          3D

 30 31  0  0  1  0  0  0  0  0999 V2000
   26.8774  -24.4791  -17.2421 N   0  0  0  0  0  0  0  0  0  0  0  0
   26.3838  -25.5085  -16.3626 C   0  0  0  0  0  0  0  0  0  0  0  0
   25.5208  -26.4556  -17.1426 C   0  0  0  0  0  0  0  0  0  0  0  0
   25.4882  -26.3777  -18.3738 O   0  0  0  0  0  0  0  0  0  0  0  0
   28.5506  -31.8855  -15.7252 N   0  0  0  0  0  0  0  0  0  0  0  0
   27.3106  -32.1146  -15.0302 C   0  0  0  0  0  0  0  0  0  0  0  0
   27.3101  -32.4811  -13.8004 N   0  0  0  0  0  0  0  0  0  0  0  0
   26.1322  -31.9122  -15.7797 N   0  0  0  0  0  0  0  0  0  0  0  0
   26.1798  -31.5041  -17.1523 C   0  0  0  0  0  0  0  0  0  0  0  0
   25.8967  -30.0392  -17.2911 C   0  0  0  0  0  0  0  0  0  0  0  0
   24.4421  -29.7976  -16.9885 C   0  0  0  0  0  0  0  0  0  0  0  0
   23.9291  -28.4263  -17.1417 C   0  0  2  0  0  0  0  0  0  0  0  0
   24.7531  -27.4255  -16.4839 N   0  0  0  0  0  0  0  0  0  0  0  0
   22.5098  -28.3187  -16.6556 C   0  0  0  0  0  0  0  0  0  0  0  0
   22.2469  -28.1571  -15.4366 O   0  0  0  0  0  0  0  0  0  0  0  0
   26.4000  -32.6320  -13.3233 N   0  0  0  0  0  0  0  0  0  0  0  0
   21.4832  -28.4087  -17.6313 C   0  0  1  0  0  0  0  0  0  0  0  0
   20.0594  -28.2505  -17.2421 C   0  0  0  0  0  0  0  0  0  0  0  0
   19.4749  -27.3796  -18.2971 C   0  0  0  0  0  0  0  0  0  0  0  0
   20.0351  -26.0250  -18.2661 C   0  0  0  0  0  0  0  0  0  0  0  0
   20.5572  -25.3610  -17.1513 N   0  0  0  0  0  0  0  0  0  0  0  0
   20.9469  -24.1243  -17.4949 C   0  0  0  0  0  0  0  0  0  0  0  0
   20.6951  -23.9567  -18.8107 C   0  0  0  0  0  0  0  0  0  0  0  0
   20.9205  -22.8798  -19.6642 C   0  0  0  0  0  0  0  0  0  0  0  0
   20.5772  -23.0039  -20.9796 C   0  0  0  0  0  0  0  0  0  0  0  0
   20.0176  -24.1675  -21.4654 C   0  0  0  0  0  0  0  0  0  0  0  0
   19.7935  -25.2283  -20.6296 C   0  0  0  0  0  0  0  0  0  0  0  0
   20.1302  -25.1279  -19.2993 C   0  0  0  0  0  0  0  0  0  0  0  0
   19.4247  -29.5362  -17.0191 O   0  0  0  0  0  0  0  0  0  0  0  0
   18.0863  -29.7119  -16.7426 O   0  0  0  0  0  0  0  0  0  0  0  0
  2  1  1  0
  3  2  1  0
  4  3  2  0
  6  8  1  0
  6  5  1  0
  7  6  2  0
  9  8  1  0
 10  9  1  0
 11 10  1  0
 12 11  1  1
 12 13  1  0
 13  3  1  0
 14 16  1  0
 14 12  1  0
 15 14  2  0
 17 18  1  1
 17 16  1  0
 18 19  1  0
 19 20  2  0
 19 27  1  0
 20 21  1  0
 21 22  1  0
 22 23  2  0
 23 24  1  0
 25 24  2  0
 26 25  1  0
 27 26  2  0
 27 22  1  0
 28 17  1  0
 28 29  1  0
 30 28  2  0
M  END
$$$$
