GRW.pdb
     RDKit          3D

 30 31  0  0  1  0  0  0  0  0999 V2000
   23.3715  -17.3076  -13.9933 N   0  0  0  0  0  0  0  0  0  0  0  0
   24.7319  -17.4805  -13.5505 C   0  0  0  0  0  0  0  0  0  0  0  0
   24.8715  -18.8190  -12.8877 C   0  0  0  0  0  0  0  0  0  0  0  0
   23.8603  -19.4389  -12.5468 O   0  0  0  0  0  0  0  0  0  0  0  0
   29.0033  -23.0225  -16.5365 N   0  0  0  0  0  0  0  0  0  0  0  0
   28.2605  -21.8971  -17.0415 C   0  0  0  0  0  0  0  0  0  0  0  0
   27.7341  -21.9346  -18.2112 N   0  0  0  0  0  0  0  0  0  0  0  0
   28.1581  -20.7840  -16.1802 N   0  0  0  0  0  0  0  0  0  0  0  0
   28.5034  -20.8777  -14.7927 C   0  0  0  0  0  0  0  0  0  0  0  0
   27.5258  -21.7358  -14.0489 C   0  0  0  0  0  0  0  0  0  0  0  0
   27.5608  -21.3566  -12.5926 C   0  0  0  0  0  0  0  0  0  0  0  0
   26.3881  -20.6612  -12.0374 C   0  0  2  0  0  0  0  0  0  0  0  0
   26.1393  -19.3682  -12.6534 N   0  0  0  0  0  0  0  0  0  0  0  0
   26.5051  -20.5022  -10.5463 C   0  0  0  0  0  0  0  0  0  0  0  0
   27.3669  -19.7421  -10.0357 O   0  0  0  0  0  0  0  0  0  0  0  0
   27.1749  -21.1215  -18.5349 N   0  0  0  0  0  0  0  0  0  0  0  0
   25.6027  -21.2473   -9.7434 C   0  0  1  0  0  0  0  0  0  0  0  0
   25.6602  -21.1546   -8.2630 C   0  0  0  0  0  0  0  0  0  0  0  0
   25.4692  -19.7090   -7.9683 C   0  0  0  0  0  0  0  0  0  0  0  0
   26.6628  -19.1071   -7.3661 C   0  0  0  0  0  0  0  0  0  0  0  0
   27.4506  -18.0874   -7.9100 N   0  0  0  0  0  0  0  0  0  0  0  0
   28.4790  -17.8166   -7.0924 C   0  0  0  0  0  0  0  0  0  0  0  0
   28.3880  -18.6331   -6.0211 C   0  0  0  0  0  0  0  0  0  0  0  0
   29.1793  -18.7531   -4.8816 C   0  0  0  0  0  0  0  0  0  0  0  0
   28.8273  -19.6701   -3.9337 C   0  0  0  0  0  0  0  0  0  0  0  0
   27.7127  -20.4677   -4.0899 C   0  0  0  0  0  0  0  0  0  0  0  0
   26.9324  -20.3536   -5.2091 C   0  0  0  0  0  0  0  0  0  0  0  0
   27.2664  -19.4371   -6.1794 C   0  0  0  0  0  0  0  0  0  0  0  0
   24.7387  -22.0846   -7.6373 O   0  0  0  0  0  0  0  0  0  0  0  0
   24.9603  -22.7167   -6.4331 O   0  0  0  0  0  0  0  0  0  0  0  0
  2  1  1  0
  3  2  1  0
  4  3  2  0
  6  8  1  0
  6  5  1  0
  7  6  2  0
  9  8  1  0
 10  9  1  0
 11 10  1  0
 12 11  1  6
 12 13  1  0
 13  3  1  0
 14 16  1  0
 14 12  1  0
 15 14  2  0
 17 18  1  1
 17 16  1  0
 18 19  1  0
 19 20  2  0
 19 27  1  0
 20 21  1  0
 21 22  1  0
 22 23  2  0
 23 24  1  0
 25 24  2  0
 26 25  1  0
 27 26  2  0
 27 22  1  0
 28 17  1  0
 28 29  1  0
 30 28  2  0
M  END
$$$$
