GRW.pdb
     RDKit          3D

 30 31  0  0  1  0  0  0  0  0999 V2000
   33.9151  -38.0245  -12.9036 N   0  0  0  0  0  0  0  0  0  0  0  0
   33.6778  -37.7343  -14.2952 C   0  0  0  0  0  0  0  0  0  0  0  0
   33.2240  -36.3114  -14.4347 C   0  0  0  0  0  0  0  0  0  0  0  0
   33.0085  -35.6381  -13.4231 O   0  0  0  0  0  0  0  0  0  0  0  0
   35.5774  -29.9182  -14.6522 N   0  0  0  0  0  0  0  0  0  0  0  0
   36.0616  -30.3207  -15.9471 C   0  0  0  0  0  0  0  0  0  0  0  0
   37.2182  -29.9452  -16.3568 N   0  0  0  0  0  0  0  0  0  0  0  0
   35.1954  -31.1340  -16.7085 N   0  0  0  0  0  0  0  0  0  0  0  0
   33.8526  -31.3984  -16.2844 C   0  0  0  0  0  0  0  0  0  0  0  0
   33.1298  -32.2543  -17.2796 C   0  0  0  0  0  0  0  0  0  0  0  0
   33.4345  -33.6988  -16.9857 C   0  0  0  0  0  0  0  0  0  0  0  0
   32.6305  -34.3720  -15.9524 C   0  0  2  0  0  0  0  0  0  0  0  0
   33.0432  -35.7434  -15.7030 N   0  0  0  0  0  0  0  0  0  0  0  0
   31.1657  -34.3335  -16.2918 C   0  0  0  0  0  0  0  0  0  0  0  0
   30.6915  -35.0345  -17.2218 O   0  0  0  0  0  0  0  0  0  0  0  0
   37.5387  -30.2474  -17.2975 N   0  0  0  0  0  0  0  0  0  0  0  0
   30.3448  -33.4721  -15.5183 C   0  0  2  0  0  0  0  0  0  0  0  0
   28.8824  -33.4048  -15.7647 C   0  0  0  0  0  0  0  0  0  0  0  0
   28.3445  -32.6124  -14.6264 C   0  0  0  0  0  0  0  0  0  0  0  0
   26.8912  -32.4390  -14.7139 C   0  0  0  0  0  0  0  0  0  0  0  0
   25.9139  -33.2996  -14.2037 N   0  0  0  0  0  0  0  0  0  0  0  0
   24.6918  -32.8345  -14.5030 C   0  0  0  0  0  0  0  0  0  0  0  0
   24.8396  -31.6865  -15.1980 C   0  0  0  0  0  0  0  0  0  0  0  0
   23.9047  -30.8011  -15.7281 C   0  0  0  0  0  0  0  0  0  0  0  0
   24.3529  -29.6869  -16.3772 C   0  0  0  0  0  0  0  0  0  0  0  0
   25.7020  -29.4324  -16.5119 C   0  0  0  0  0  0  0  0  0  0  0  0
   26.6245  -30.3007  -15.9928 C   0  0  0  0  0  0  0  0  0  0  0  0
   26.1981  -31.4312  -15.3346 C   0  0  0  0  0  0  0  0  0  0  0  0
   28.5918  -32.9227  -17.1021 O   0  0  0  0  0  0  0  0  0  0  0  0
   27.3431  -32.9332  -17.6847 O   0  0  0  0  0  0  0  0  0  0  0  0
  2  1  1  0
  3  2  1  0
  4  3  2  0
  6  8  1  0
  6  5  1  0
  7  6  2  0
  9  8  1  0
 10  9  1  0
 11 10  1  0
 12 11  1  6
 12 13  1  0
 13  3  1  0
 14 16  1  0
 14 12  1  0
 15 14  2  0
 17 18  1  1
 17 16  1  0
 18 19  1  0
 19 20  2  0
 19 27  1  0
 20 21  1  0
 21 22  1  0
 22 23  2  0
 23 24  1  0
 25 24  2  0
 26 25  1  0
 27 26  2  0
 27 22  1  0
 28 17  1  0
 28 29  1  0
 30 28  2  0
M  END
$$$$
