GRW.pdb
     RDKit          3D

 30 31  0  0  1  0  0  0  0  0999 V2000
   24.9310  -24.1077  -15.6875 N   0  0  0  0  0  0  0  0  0  0  0  0
   25.0497  -22.6939  -15.4347 C   0  0  0  0  0  0  0  0  0  0  0  0
   26.2332  -22.4464  -14.5469 C   0  0  0  0  0  0  0  0  0  0  0  0
   26.7381  -23.3869  -13.9276 O   0  0  0  0  0  0  0  0  0  0  0  0
   26.1249  -18.9970  -16.6333 N   0  0  0  0  0  0  0  0  0  0  0  0
   25.5299  -17.7550  -16.2133 C   0  0  0  0  0  0  0  0  0  0  0  0
   24.3560  -17.4257  -16.6134 N   0  0  0  0  0  0  0  0  0  0  0  0
   26.3106  -16.9515  -15.3552 N   0  0  0  0  0  0  0  0  0  0  0  0
   27.5825  -17.3952  -14.8669 C   0  0  0  0  0  0  0  0  0  0  0  0
   27.4215  -18.3044  -13.6868 C   0  0  0  0  0  0  0  0  0  0  0  0
   28.4009  -19.4402  -13.8150 C   0  0  0  0  0  0  0  0  0  0  0  0
   27.9019  -20.8049  -13.5785 C   0  0  2  0  0  0  0  0  0  0  0  0
   26.7673  -21.1574  -14.4162 N   0  0  0  0  0  0  0  0  0  0  0  0
   27.5518  -21.0130  -12.1307 C   0  0  0  0  0  0  0  0  0  0  0  0
   28.4348  -21.2820  -11.2767 O   0  0  0  0  0  0  0  0  0  0  0  0
   23.9718  -16.5025  -16.3326 N   0  0  0  0  0  0  0  0  0  0  0  0
   26.1837  -20.8937  -11.7723 C   0  0  2  0  0  0  0  0  0  0  0  0
   25.7648  -21.0113  -10.3530 C   0  0  0  0  0  0  0  0  0  0  0  0
   26.6467  -20.0636   -9.6200 C   0  0  0  0  0  0  0  0  0  0  0  0
   26.4647  -20.1525   -8.1679 C   0  0  0  0  0  0  0  0  0  0  0  0
   25.2794  -20.4560   -7.4905 N   0  0  0  0  0  0  0  0  0  0  0  0
   25.4845  -20.4133   -6.1655 C   0  0  0  0  0  0  0  0  0  0  0  0
   26.7778  -20.0897   -5.9525 C   0  0  0  0  0  0  0  0  0  0  0  0
   27.5089  -19.9317   -4.7780 C   0  0  0  0  0  0  0  0  0  0  0  0
   28.8340  -19.6167   -4.8689 C   0  0  0  0  0  0  0  0  0  0  0  0
   29.4478  -19.4553   -6.0938 C   0  0  0  0  0  0  0  0  0  0  0  0
   28.7325  -19.6088   -7.2510 C   0  0  0  0  0  0  0  0  0  0  0  0
   27.3952  -19.9258   -7.1860 C   0  0  0  0  0  0  0  0  0  0  0  0
   24.3326  -20.8304  -10.2062 O   0  0  0  0  0  0  0  0  0  0  0  0
   23.5745  -21.3715   -9.1907 O   0  0  0  0  0  0  0  0  0  0  0  0
  2  1  1  0
  3  2  1  0
  4  3  2  0
  6  8  1  0
  6  5  1  0
  7  6  2  0
  9  8  1  0
 10  9  1  0
 11 10  1  0
 12 11  1  1
 12 13  1  0
 13  3  1  0
 14 16  1  0
 14 12  1  0
 15 14  2  0
 17 18  1  6
 17 16  1  0
 18 19  1  0
 19 20  2  0
 19 27  1  0
 20 21  1  0
 21 22  1  0
 22 23  2  0
 23 24  1  0
 25 24  2  0
 26 25  1  0
 27 26  2  0
 27 22  1  0
 28 17  1  0
 28 29  1  0
 30 28  2  0
M  END
$$$$
