GRW.pdb
     RDKit          3D

 30 31  0  0  1  0  0  0  0  0999 V2000
   28.1754  -16.7750  -15.9967 N   0  0  0  0  0  0  0  0  0  0  0  0
   28.4537  -17.9761  -15.2505 C   0  0  0  0  0  0  0  0  0  0  0  0
   27.3747  -18.1872  -14.2300 C   0  0  0  0  0  0  0  0  0  0  0  0
   27.0941  -17.2793  -13.4425 O   0  0  0  0  0  0  0  0  0  0  0  0
   24.7938  -24.7541  -14.8852 N   0  0  0  0  0  0  0  0  0  0  0  0
   23.6534  -24.4715  -14.0530 C   0  0  0  0  0  0  0  0  0  0  0  0
   23.2350  -25.3375  -13.2034 N   0  0  0  0  0  0  0  0  0  0  0  0
   23.0486  -23.2097  -14.2360 N   0  0  0  0  0  0  0  0  0  0  0  0
   23.5717  -22.2583  -15.1710 C   0  0  0  0  0  0  0  0  0  0  0  0
   24.8491  -21.6551  -14.6714 C   0  0  0  0  0  0  0  0  0  0  0  0
   24.5167  -20.4739  -13.7994 C   0  0  0  0  0  0  0  0  0  0  0  0
   25.6361  -19.7212  -13.2098 C   0  0  2  0  0  0  0  0  0  0  0  0
   26.6856  -19.4057  -14.1649 N   0  0  0  0  0  0  0  0  0  0  0  0
   26.2209  -20.4500  -12.0311 C   0  0  0  0  0  0  0  0  0  0  0  0
   26.9805  -21.4401  -12.1860 O   0  0  0  0  0  0  0  0  0  0  0  0
   22.3944  -25.1159  -12.6351 N   0  0  0  0  0  0  0  0  0  0  0  0
   25.8772  -19.9723  -10.7396 C   0  0  2  0  0  0  0  0  0  0  0  0
   26.2686  -20.7339   -9.5270 C   0  0  0  0  0  0  0  0  0  0  0  0
   27.1735  -19.8176   -8.7823 C   0  0  0  0  0  0  0  0  0  0  0  0
   27.1466  -20.0701   -7.3383 C   0  0  0  0  0  0  0  0  0  0  0  0
   26.2475  -20.8904   -6.6492 N   0  0  0  0  0  0  0  0  0  0  0  0
   26.5071  -20.8519   -5.3337 C   0  0  0  0  0  0  0  0  0  0  0  0
   27.5571  -20.0260   -5.1384 C   0  0  0  0  0  0  0  0  0  0  0  0
   28.2341  -19.6509   -3.9809 C   0  0  0  0  0  0  0  0  0  0  0  0
   29.2955  -18.7994   -4.0901 C   0  0  0  0  0  0  0  0  0  0  0  0
   29.6988  -18.3135   -5.3166 C   0  0  0  0  0  0  0  0  0  0  0  0
   29.0354  -18.6792   -6.4570 C   0  0  0  0  0  0  0  0  0  0  0  0
   27.9620  -19.5358   -6.3734 C   0  0  0  0  0  0  0  0  0  0  0  0
   25.1063  -21.2360   -8.8182 O   0  0  0  0  0  0  0  0  0  0  0  0
   25.1423  -22.2130   -7.8471 O   0  0  0  0  0  0  0  0  0  0  0  0
  2  1  1  0
  3  2  1  0
  4  3  2  0
  6  8  1  0
  6  5  1  0
  7  6  2  0
  9  8  1  0
 10  9  1  0
 11 10  1  0
 12 11  1  6
 12 13  1  0
 13  3  1  0
 14 16  1  0
 14 12  1  0
 15 14  2  0
 17 18  1  1
 17 16  1  0
 18 19  1  0
 19 20  2  0
 19 27  1  0
 20 21  1  0
 21 22  1  0
 22 23  2  0
 23 24  1  0
 25 24  2  0
 26 25  1  0
 27 26  2  0
 27 22  1  0
 28 17  1  0
 28 29  1  0
 30 28  2  0
M  END
$$$$
