GRW.pdb
     RDKit          3D

 30 31  0  0  1  0  0  0  0  0999 V2000
   29.0703  -22.8535  -16.6445 N   0  0  0  0  0  0  0  0  0  0  0  0
   27.8248  -22.1622  -16.4260 C   0  0  0  0  0  0  0  0  0  0  0  0
   27.8658  -21.4757  -15.0929 C   0  0  0  0  0  0  0  0  0  0  0  0
   28.6999  -21.8244  -14.2529 O   0  0  0  0  0  0  0  0  0  0  0  0
   28.3252  -15.3902  -16.1119 N   0  0  0  0  0  0  0  0  0  0  0  0
   27.0205  -15.3646  -16.7204 C   0  0  0  0  0  0  0  0  0  0  0  0
   26.8937  -15.1869  -17.9849 N   0  0  0  0  0  0  0  0  0  0  0  0
   25.9253  -15.5439  -15.8487 N   0  0  0  0  0  0  0  0  0  0  0  0
   26.0884  -16.1387  -14.5555 C   0  0  0  0  0  0  0  0  0  0  0  0
   26.8500  -17.4260  -14.6445 C   0  0  0  0  0  0  0  0  0  0  0  0
   26.2738  -18.3978  -13.6498 C   0  0  0  0  0  0  0  0  0  0  0  0
   26.9105  -19.7203  -13.5364 C   0  0  2  0  0  0  0  0  0  0  0  0
   26.9651  -20.4440  -14.7959 N   0  0  0  0  0  0  0  0  0  0  0  0
   26.2314  -20.5634  -12.4922 C   0  0  0  0  0  0  0  0  0  0  0  0
   25.1399  -21.1417  -12.7274 O   0  0  0  0  0  0  0  0  0  0  0  0
   25.9417  -15.2024  -18.3998 N   0  0  0  0  0  0  0  0  0  0  0  0
   26.8753  -20.6761  -11.2325 C   0  0  2  0  0  0  0  0  0  0  0  0
   26.2784  -21.5030  -10.1537 C   0  0  0  0  0  0  0  0  0  0  0  0
   27.3755  -21.6814   -9.1649 C   0  0  0  0  0  0  0  0  0  0  0  0
   27.3492  -20.6521   -8.1211 C   0  0  0  0  0  0  0  0  0  0  0  0
   26.5008  -19.5417   -8.0625 N   0  0  0  0  0  0  0  0  0  0  0  0
   26.7878  -18.8018   -6.9810 C   0  0  0  0  0  0  0  0  0  0  0  0
   27.8052  -19.3984   -6.3238 C   0  0  0  0  0  0  0  0  0  0  0  0
   28.4681  -19.0610   -5.1467 C   0  0  0  0  0  0  0  0  0  0  0  0
   29.4651  -19.8791   -4.6993 C   0  0  0  0  0  0  0  0  0  0  0  0
   29.8180  -21.0196   -5.3904 C   0  0  0  0  0  0  0  0  0  0  0  0
   29.1694  -21.3545   -6.5487 C   0  0  0  0  0  0  0  0  0  0  0  0
   28.1613  -20.5459   -7.0208 C   0  0  0  0  0  0  0  0  0  0  0  0
   25.0382  -20.9268   -9.6688 O   0  0  0  0  0  0  0  0  0  0  0  0
   24.6738  -19.6070   -9.8243 O   0  0  0  0  0  0  0  0  0  0  0  0
  2  1  1  0
  3  2  1  0
  4  3  2  0
  6  8  1  0
  6  5  1  0
  7  6  2  0
  9  8  1  0
 10  9  1  0
 11 10  1  0
 12 11  1  6
 12 13  1  0
 13  3  1  0
 14 16  1  0
 14 12  1  0
 15 14  2  0
 17 18  1  6
 17 16  1  0
 18 19  1  0
 19 20  2  0
 19 27  1  0
 20 21  1  0
 21 22  1  0
 22 23  2  0
 23 24  1  0
 25 24  2  0
 26 25  1  0
 27 26  2  0
 27 22  1  0
 28 17  1  0
 28 29  1  0
 30 28  2  0
M  END
$$$$
