GRW.pdb
     RDKit          3D

 30 31  0  0  1  0  0  0  0  0999 V2000
   31.3852  -23.7690  -14.6190 N   0  0  0  0  0  0  0  0  0  0  0  0
   30.1089  -23.2165  -14.9965 C   0  0  0  0  0  0  0  0  0  0  0  0
   29.6540  -22.2522  -13.9413 C   0  0  0  0  0  0  0  0  0  0  0  0
   30.2374  -22.2180  -12.8544 O   0  0  0  0  0  0  0  0  0  0  0  0
   26.7048  -16.7955  -17.8945 N   0  0  0  0  0  0  0  0  0  0  0  0
   25.7542  -17.4569  -17.0390 C   0  0  0  0  0  0  0  0  0  0  0  0
   24.5895  -17.7701  -17.4773 N   0  0  0  0  0  0  0  0  0  0  0  0
   26.1860  -17.7267  -15.7228 N   0  0  0  0  0  0  0  0  0  0  0  0
   27.4552  -17.2665  -15.2431 C   0  0  0  0  0  0  0  0  0  0  0  0
   28.2798  -18.4028  -14.7196 C   0  0  0  0  0  0  0  0  0  0  0  0
   27.4110  -19.2679  -13.8463 C   0  0  0  0  0  0  0  0  0  0  0  0
   28.0290  -20.4480  -13.2198 C   0  0  2  0  0  0  0  0  0  0  0  0
   28.5736  -21.3926  -14.1812 N   0  0  0  0  0  0  0  0  0  0  0  0
   27.0606  -21.1494  -12.3072 C   0  0  0  0  0  0  0  0  0  0  0  0
   26.3183  -22.0732  -12.7276 O   0  0  0  0  0  0  0  0  0  0  0  0
   23.9420  -18.2887  -16.8523 N   0  0  0  0  0  0  0  0  0  0  0  0
   27.0213  -20.7225  -10.9543 C   0  0  2  0  0  0  0  0  0  0  0  0
   26.2088  -21.4613   -9.9556 C   0  0  0  0  0  0  0  0  0  0  0  0
   27.1056  -21.6132   -8.7783 C   0  0  0  0  0  0  0  0  0  0  0  0
   27.0668  -20.4391   -7.9011 C   0  0  0  0  0  0  0  0  0  0  0  0
   26.3178  -19.2740   -8.0955 N   0  0  0  0  0  0  0  0  0  0  0  0
   26.5603  -18.4022   -7.1052 C   0  0  0  0  0  0  0  0  0  0  0  0
   27.4511  -18.9651   -6.2611 C   0  0  0  0  0  0  0  0  0  0  0  0
   28.0214  -18.5029   -5.0778 C   0  0  0  0  0  0  0  0  0  0  0  0
   28.8933  -19.3142   -4.4108 C   0  0  0  0  0  0  0  0  0  0  0  0
   29.2112  -20.5685   -4.8891 C   0  0  0  0  0  0  0  0  0  0  0  0
   28.6534  -21.0264   -6.0526 C   0  0  0  0  0  0  0  0  0  0  0  0
   27.7721  -20.2273   -6.7439 C   0  0  0  0  0  0  0  0  0  0  0  0
   24.9281  -20.8167   -9.7326 O   0  0  0  0  0  0  0  0  0  0  0  0
   23.9568  -21.2802   -8.8721 O   0  0  0  0  0  0  0  0  0  0  0  0
  2  1  1  0
  3  2  1  0
  4  3  2  0
  6  8  1  0
  6  5  1  0
  7  6  2  0
  9  8  1  0
 10  9  1  0
 11 10  1  0
 12 11  1  6
 12 13  1  0
 13  3  1  0
 14 16  1  0
 14 12  1  0
 15 14  2  0
 17 18  1  6
 17 16  1  0
 18 19  1  0
 19 20  2  0
 19 27  1  0
 20 21  1  0
 21 22  1  0
 22 23  2  0
 23 24  1  0
 25 24  2  0
 26 25  1  0
 27 26  2  0
 27 22  1  0
 28 17  1  0
 28 29  1  0
 30 28  2  0
M  END
$$$$
