GRW.pdb
     RDKit          3D

 30 31  0  0  1  0  0  0  0  0999 V2000
   26.2454  -21.6000  -12.2324 N   0  0  0  0  0  0  0  0  0  0  0  0
   25.8214  -21.9488  -13.5649 C   0  0  0  0  0  0  0  0  0  0  0  0
   24.7418  -21.0048  -14.0049 C   0  0  0  0  0  0  0  0  0  0  0  0
   24.4375  -20.0488  -13.2861 O   0  0  0  0  0  0  0  0  0  0  0  0
   23.9938  -18.4490  -21.5266 N   0  0  0  0  0  0  0  0  0  0  0  0
   23.3443  -19.1404  -20.4434 C   0  0  0  0  0  0  0  0  0  0  0  0
   22.7149  -20.2386  -20.6545 N   0  0  0  0  0  0  0  0  0  0  0  0
   23.4483  -18.5383  -19.1714 N   0  0  0  0  0  0  0  0  0  0  0  0
   24.7028  -18.4542  -18.4842 C   0  0  0  0  0  0  0  0  0  0  0  0
   24.6402  -19.1477  -17.1574 C   0  0  0  0  0  0  0  0  0  0  0  0
   23.2519  -19.6962  -16.9642 C   0  0  0  0  0  0  0  0  0  0  0  0
   22.9633  -20.4021  -15.7050 C   0  0  2  0  0  0  0  0  0  0  0  0
   24.0780  -21.2013  -15.2233 N   0  0  0  0  0  0  0  0  0  0  0  0
   21.7359  -21.2622  -15.8322 C   0  0  0  0  0  0  0  0  0  0  0  0
   21.7880  -22.4012  -16.3624 O   0  0  0  0  0  0  0  0  0  0  0  0
   22.2294  -20.6982  -19.8597 N   0  0  0  0  0  0  0  0  0  0  0  0
   20.5192  -20.7318  -15.3296 C   0  0  1  0  0  0  0  0  0  0  0  0
   19.9289  -21.2619  -14.0750 C   0  0  0  0  0  0  0  0  0  0  0  0
   21.0975  -21.5465  -13.1995 C   0  0  0  0  0  0  0  0  0  0  0  0
   20.6898  -21.9525  -11.8509 C   0  0  0  0  0  0  0  0  0  0  0  0
   19.9368  -23.0804  -11.5087 N   0  0  0  0  0  0  0  0  0  0  0  0
   19.7299  -23.1090  -10.1837 C   0  0  0  0  0  0  0  0  0  0  0  0
   20.3295  -22.0268   -9.6431 C   0  0  0  0  0  0  0  0  0  0  0  0
   20.4342  -21.5914   -8.3246 C   0  0  0  0  0  0  0  0  0  0  0  0
   21.1338  -20.4480   -8.0664 C   0  0  0  0  0  0  0  0  0  0  0  0
   21.7293  -19.7295   -9.0824 C   0  0  0  0  0  0  0  0  0  0  0  0
   21.6280  -20.1536  -10.3802 C   0  0  0  0  0  0  0  0  0  0  0  0
   20.9277  -21.3028  -10.6666 C   0  0  0  0  0  0  0  0  0  0  0  0
   18.9108  -20.3710  -13.5503 O   0  0  0  0  0  0  0  0  0  0  0  0
   19.0767  -19.0161  -13.3619 O   0  0  0  0  0  0  0  0  0  0  0  0
  2  1  1  0
  3  2  1  0
  4  3  2  0
  6  8  1  0
  6  5  1  0
  7  6  2  0
  9  8  1  0
 10  9  1  0
 11 10  1  0
 12 11  1  6
 12 13  1  0
 13  3  1  0
 14 16  1  0
 14 12  1  0
 15 14  2  0
 17 18  1  6
 17 16  1  0
 18 19  1  0
 19 20  2  0
 19 27  1  0
 20 21  1  0
 21 22  1  0
 22 23  2  0
 23 24  1  0
 25 24  2  0
 26 25  1  0
 27 26  2  0
 27 22  1  0
 28 17  1  0
 28 29  1  0
 30 28  2  0
M  END
$$$$
