GRW.pdb
     RDKit          3D

 30 31  0  0  1  0  0  0  0  0999 V2000
   24.9220  -26.3051  -16.5785 N   0  0  0  0  0  0  0  0  0  0  0  0
   24.7087  -24.8859  -16.4467 C   0  0  0  0  0  0  0  0  0  0  0  0
   25.6744  -24.3304  -15.4422 C   0  0  0  0  0  0  0  0  0  0  0  0
   25.9094  -24.9619  -14.4083 O   0  0  0  0  0  0  0  0  0  0  0  0
   31.9795  -24.8745  -15.4772 N   0  0  0  0  0  0  0  0  0  0  0  0
   31.5582  -24.1120  -16.6236 C   0  0  0  0  0  0  0  0  0  0  0  0
   31.4248  -24.6754  -17.7688 N   0  0  0  0  0  0  0  0  0  0  0  0
   31.3105  -22.7408  -16.4003 N   0  0  0  0  0  0  0  0  0  0  0  0
   30.2671  -22.3027  -15.5215 C   0  0  0  0  0  0  0  0  0  0  0  0
   29.0651  -21.8494  -16.2929 C   0  0  0  0  0  0  0  0  0  0  0  0
   28.0143  -21.3845  -15.3205 C   0  0  0  0  0  0  0  0  0  0  0  0
   27.1481  -22.4053  -14.7081 C   0  0  2  0  0  0  0  0  0  0  0  0
   26.3093  -23.1019  -15.6695 N   0  0  0  0  0  0  0  0  0  0  0  0
   26.2945  -21.8132  -13.6204 C   0  0  0  0  0  0  0  0  0  0  0  0
   25.2703  -21.1352  -13.8894 O   0  0  0  0  0  0  0  0  0  0  0  0
   31.1068  -24.1026  -18.5747 N   0  0  0  0  0  0  0  0  0  0  0  0
   26.6962  -22.0523  -12.2804 C   0  0  2  0  0  0  0  0  0  0  0  0
   25.9117  -21.4966  -11.1493 C   0  0  0  0  0  0  0  0  0  0  0  0
   26.6437  -21.9362   -9.9310 C   0  0  0  0  0  0  0  0  0  0  0  0
   26.5951  -20.9299   -8.8659 C   0  0  0  0  0  0  0  0  0  0  0  0
   25.5205  -20.0894   -8.5576 N   0  0  0  0  0  0  0  0  0  0  0  0
   25.8508  -19.2760   -7.5433 C   0  0  0  0  0  0  0  0  0  0  0  0
   27.1179  -19.5606   -7.1743 C   0  0  0  0  0  0  0  0  0  0  0  0
   27.9297  -19.0307   -6.1747 C   0  0  0  0  0  0  0  0  0  0  0  0
   29.1866  -19.5385   -6.0143 C   0  0  0  0  0  0  0  0  0  0  0  0
   29.6546  -20.5558   -6.8199 C   0  0  0  0  0  0  0  0  0  0  0  0
   28.8601  -21.0790   -7.8044 C   0  0  0  0  0  0  0  0  0  0  0  0
   27.5894  -20.5839   -7.9866 C   0  0  0  0  0  0  0  0  0  0  0  0
   25.6881  -20.0718  -11.3085 O   0  0  0  0  0  0  0  0  0  0  0  0
   26.6332  -19.1759  -11.7591 O   0  0  0  0  0  0  0  0  0  0  0  0
  2  1  1  0
  3  2  1  0
  4  3  2  0
  6  8  1  0
  6  5  1  0
  7  6  2  0
  9  8  1  0
 10  9  1  0
 11 10  1  0
 12 11  1  6
 12 13  1  0
 13  3  1  0
 14 16  1  0
 14 12  1  0
 15 14  2  0
 17 18  1  1
 17 16  1  0
 18 19  1  0
 19 20  2  0
 19 27  1  0
 20 21  1  0
 21 22  1  0
 22 23  2  0
 23 24  1  0
 25 24  2  0
 26 25  1  0
 27 26  2  0
 27 22  1  0
 28 17  1  0
 28 29  1  0
 30 28  2  0
M  END
$$$$
