GRW.pdb
     RDKit          3D

 30 31  0  0  1  0  0  0  0  0999 V2000
   29.0177  -21.1613  -15.9622 N   0  0  0  0  0  0  0  0  0  0  0  0
   28.0561  -21.8640  -15.1509 C   0  0  0  0  0  0  0  0  0  0  0  0
   27.2935  -20.8764  -14.3183 C   0  0  0  0  0  0  0  0  0  0  0  0
   27.6811  -19.7066  -14.2522 O   0  0  0  0  0  0  0  0  0  0  0  0
   22.4887  -21.3744  -16.9828 N   0  0  0  0  0  0  0  0  0  0  0  0
   21.7012  -21.8113  -15.8594 C   0  0  0  0  0  0  0  0  0  0  0  0
   21.1448  -22.9677  -15.8629 N   0  0  0  0  0  0  0  0  0  0  0  0
   21.5904  -20.9005  -14.7872 N   0  0  0  0  0  0  0  0  0  0  0  0
   22.2916  -19.6511  -14.7918 C   0  0  0  0  0  0  0  0  0  0  0  0
   23.7613  -19.8550  -14.5831 C   0  0  0  0  0  0  0  0  0  0  0  0
   24.0000  -20.2048  -13.1386 C   0  0  0  0  0  0  0  0  0  0  0  0
   25.3903  -20.4268  -12.7082 C   0  0  2  0  0  0  0  0  0  0  0  0
   26.1471  -21.2727  -13.6165 N   0  0  0  0  0  0  0  0  0  0  0  0
   25.4450  -20.9948  -11.3166 C   0  0  0  0  0  0  0  0  0  0  0  0
   25.3011  -22.2263  -11.1071 O   0  0  0  0  0  0  0  0  0  0  0  0
   20.5439  -23.2367  -15.0596 N   0  0  0  0  0  0  0  0  0  0  0  0
   25.6645  -20.0811  -10.2530 C   0  0  1  0  0  0  0  0  0  0  0  0
   25.5747  -20.5334   -8.8420 C   0  0  0  0  0  0  0  0  0  0  0  0
   26.4243  -19.5756   -8.0844 C   0  0  0  0  0  0  0  0  0  0  0  0
   27.7413  -20.1376   -7.7689 C   0  0  0  0  0  0  0  0  0  0  0  0
   28.4813  -21.0270   -8.5548 N   0  0  0  0  0  0  0  0  0  0  0  0
   29.6235  -21.3499   -7.9299 C   0  0  0  0  0  0  0  0  0  0  0  0
   29.6552  -20.6938   -6.7504 C   0  0  0  0  0  0  0  0  0  0  0  0
   30.6101  -20.6606   -5.7376 C   0  0  0  0  0  0  0  0  0  0  0  0
   30.3792  -19.8747   -4.6455 C   0  0  0  0  0  0  0  0  0  0  0  0
   29.2270  -19.1241   -4.5360 C   0  0  0  0  0  0  0  0  0  0  0  0
   28.2851  -19.1545   -5.5291 C   0  0  0  0  0  0  0  0  0  0  0  0
   28.4942  -19.9393   -6.6397 C   0  0  0  0  0  0  0  0  0  0  0  0
   24.1944  -20.6727   -8.4168 O   0  0  0  0  0  0  0  0  0  0  0  0
   23.0996  -20.4491   -9.2233 O   0  0  0  0  0  0  0  0  0  0  0  0
  2  1  1  0
  3  2  1  0
  4  3  2  0
  6  8  1  0
  6  5  1  0
  7  6  2  0
  9  8  1  0
 10  9  1  0
 11 10  1  0
 12 11  1  6
 12 13  1  0
 13  3  1  0
 14 16  1  0
 14 12  1  0
 15 14  2  0
 17 18  1  1
 17 16  1  0
 18 19  1  0
 19 20  2  0
 19 27  1  0
 20 21  1  0
 21 22  1  0
 22 23  2  0
 23 24  1  0
 25 24  2  0
 26 25  1  0
 27 26  2  0
 27 22  1  0
 28 17  1  0
 28 29  1  0
 30 28  2  0
M  END
$$$$
