CIP.pdb
     RDKit          3D

 22 22  0  0  1  0  0  0  0  0999 V2000
   20.1960  -20.6003  -12.4119 N   0  0  0  0  0  0  0  0  0  0  0  0
   20.9527  -20.9039  -13.6082 C   0  0  1  0  0  0  0  0  0  0  0  0
   20.1165  -20.4852  -14.7843 C   0  0  0  0  0  0  0  0  0  0  0  0
   19.0649  -21.8339  -15.3817 S   0  0  0  0  0  0  0  0  0  0  0  0
   22.2618  -20.2750  -13.5344 C   0  0  0  0  0  0  0  0  0  0  0  0
   22.3214  -19.0606  -13.1879 O   0  0  0  0  0  0  0  0  0  0  0  0
   27.6932  -20.9014  -11.2881 C   0  0  0  0  0  0  0  0  0  0  0  0
   26.9715  -20.3816  -12.4987 C   0  0  0  0  0  0  0  0  0  0  0  0
   25.5799  -20.9124  -12.5794 C   0  0  2  0  0  0  0  0  0  0  0  0
   25.5614  -22.4149  -12.8632 C   0  0  0  0  0  0  0  0  0  0  0  0
   24.8001  -20.2342  -13.6824 C   0  0  2  0  0  0  0  0  0  0  0  0
   23.4925  -20.8913  -13.8144 N   0  0  0  0  0  0  0  0  0  0  0  0
   25.4900  -20.1543  -14.9689 C   0  0  0  0  0  0  0  0  0  0  0  0
   25.1592  -21.0368  -15.8565 O   0  0  0  0  0  0  0  0  0  0  0  0
   26.4708  -19.2182  -15.3398 N   0  0  0  0  0  0  0  0  0  0  0  0
   27.2230  -18.3612  -14.4577 C   0  0  0  0  0  0  0  0  0  0  0  0
   27.6333  -17.1515  -15.3089 C   0  0  0  0  0  0  0  0  0  0  0  0
   26.8587  -17.3656  -16.5765 C   0  0  0  0  0  0  0  0  0  0  0  0
   26.9268  -18.8952  -16.7085 C   0  0  1  0  0  0  0  0  0  0  0  0
   28.3420  -19.2549  -16.8956 C   0  0  0  0  0  0  0  0  0  0  0  0
   28.9910  -18.7631  -18.0132 O   0  0  0  0  0  0  0  0  0  0  0  0
   29.0086  -19.9786  -16.1130 O   0  0  0  0  0  0  0  0  0  0  0  0
  2  1  1  1
  2  5  1  0
  2  3  1  0
  4  3  1  0
  5  6  2  0
  7  8  1  0
  8  9  1  0
  9 10  1  6
  9 11  1  0
 11 12  1  6
 12  5  1  0
 13 11  1  0
 13 15  1  0
 14 13  2  0
 15 16  1  0
 17 18  1  0
 17 16  1  0
 18 19  1  0
 19 15  1  0
 19 20  1  1
 20 22  2  0
 20 21  1  0
M  END
$$$$
