CIP.pdb
     RDKit          3D

 22 22  0  0  1  0  0  0  0  0999 V2000
   20.9516  -12.9488  -20.2133 N   0  0  0  0  0  0  0  0  0  0  0  0
   21.6246  -11.6716  -20.1057 C   0  0  1  0  0  0  0  0  0  0  0  0
   21.2862  -10.8828  -21.3390 C   0  0  0  0  0  0  0  0  0  0  0  0
   21.9583  -11.6476  -22.8374 S   0  0  0  0  0  0  0  0  0  0  0  0
   21.2633  -11.0299  -18.8517 C   0  0  0  0  0  0  0  0  0  0  0  0
   20.0819  -11.1757  -18.4259 O   0  0  0  0  0  0  0  0  0  0  0  0
   23.8387  -11.7065  -14.4632 C   0  0  0  0  0  0  0  0  0  0  0  0
   22.7583  -11.3669  -15.4500 C   0  0  0  0  0  0  0  0  0  0  0  0
   22.7028   -9.9015  -15.7222 C   0  0  2  0  0  0  0  0  0  0  0  0
   22.3017   -9.1081  -14.4780 C   0  0  0  0  0  0  0  0  0  0  0  0
   21.6961   -9.5851  -16.8044 C   0  0  2  0  0  0  0  0  0  0  0  0
   22.1100  -10.2485  -18.0484 N   0  0  0  0  0  0  0  0  0  0  0  0
   21.4434   -8.1609  -17.0172 C   0  0  0  0  0  0  0  0  0  0  0  0
   22.3918   -7.4849  -17.5824 O   0  0  0  0  0  0  0  0  0  0  0  0
   20.2781   -7.4538  -16.6739 N   0  0  0  0  0  0  0  0  0  0  0  0
   19.0994   -7.9890  -16.0393 C   0  0  0  0  0  0  0  0  0  0  0  0
   17.9487   -7.0642  -16.4599 C   0  0  0  0  0  0  0  0  0  0  0  0
   18.5924   -6.1923  -17.4981 C   0  0  0  0  0  0  0  0  0  0  0  0
   20.0004   -6.0205  -16.9065 C   0  0  1  0  0  0  0  0  0  0  0  0
   19.8541   -5.2944  -15.6343 C   0  0  0  0  0  0  0  0  0  0  0  0
   19.9351   -6.0231  -14.4618 O   0  0  0  0  0  0  0  0  0  0  0  0
   19.6602   -4.0565  -15.5321 O   0  0  0  0  0  0  0  0  0  0  0  0
  2  1  1  6
  2  5  1  0
  2  3  1  0
  4  3  1  0
  5  6  2  0
  7  8  1  0
  8  9  1  0
  9 10  1  1
  9 11  1  0
 11 12  1  6
 12  5  1  0
 13 11  1  0
 13 15  1  0
 14 13  2  0
 15 16  1  0
 17 18  1  0
 17 16  1  0
 18 19  1  0
 19 15  1  0
 19 20  1  1
 20 22  2  0
 20 21  1  0
M  END
$$$$
