CIP.pdb
     RDKit          3D

 22 22  0  0  1  0  0  0  0  0999 V2000
   22.4706  -12.6112  -18.6308 N   0  0  0  0  0  0  0  0  0  0  0  0
   22.9575  -11.2488  -18.5770 C   0  0  1  0  0  0  0  0  0  0  0  0
   23.0721  -10.7590  -19.9929 C   0  0  0  0  0  0  0  0  0  0  0  0
   23.6001   -9.0278  -20.0696 S   0  0  0  0  0  0  0  0  0  0  0  0
   22.0925  -10.4512  -17.7225 C   0  0  0  0  0  0  0  0  0  0  0  0
   20.8448  -10.5068  -17.9188 O   0  0  0  0  0  0  0  0  0  0  0  0
   22.5380  -10.2793  -12.4332 C   0  0  0  0  0  0  0  0  0  0  0  0
   22.7222   -9.6893  -13.8024 C   0  0  0  0  0  0  0  0  0  0  0  0
   21.4206   -9.5334  -14.5138 C   0  0  2  0  0  0  0  0  0  0  0  0
   20.7704  -10.8855  -14.8097 C   0  0  0  0  0  0  0  0  0  0  0  0
   21.6021   -8.8203  -15.8340 C   0  0  2  0  0  0  0  0  0  0  0  0
   22.5098   -9.6079  -16.6797 N   0  0  0  0  0  0  0  0  0  0  0  0
   22.0405   -7.4293  -15.7310 C   0  0  0  0  0  0  0  0  0  0  0  0
   23.2985   -7.2043  -15.9376 O   0  0  0  0  0  0  0  0  0  0  0  0
   21.2371   -6.3149  -15.4338 N   0  0  0  0  0  0  0  0  0  0  0  0
   19.8122   -6.3121  -15.2150 C   0  0  0  0  0  0  0  0  0  0  0  0
   19.3430   -4.8948  -15.5718 C   0  0  0  0  0  0  0  0  0  0  0  0
   20.5734   -4.2857  -16.1781 C   0  0  0  0  0  0  0  0  0  0  0  0
   21.6723   -4.9082  -15.3024 C   0  0  1  0  0  0  0  0  0  0  0  0
   21.4689   -4.4151  -13.9302 C   0  0  0  0  0  0  0  0  0  0  0  0
   21.9082   -3.1386  -13.6310 O   0  0  0  0  0  0  0  0  0  0  0  0
   20.9237   -5.0694  -13.0055 O   0  0  0  0  0  0  0  0  0  0  0  0
  2  1  1  6
  2  5  1  0
  2  3  1  0
  4  3  1  0
  5  6  2  0
  7  8  1  0
  8  9  1  0
  9 10  1  6
  9 11  1  0
 11 12  1  6
 12  5  1  0
 13 11  1  0
 13 15  1  0
 14 13  2  0
 15 16  1  0
 17 18  1  0
 17 16  1  0
 18 19  1  0
 19 15  1  0
 19 20  1  1
 20 22  2  0
 20 21  1  0
M  END
$$$$
