RRR.pdb
     RDKit          3D

 34 33  0  0  1  0  0  0  0  0999 V2000
    6.1507  -24.1822   18.2495 N   0  0  0  0  0  0  0  0  0  0  0  0
    7.5096  -24.5438   18.1247 C   0  0  0  0  0  0  0  0  0  0  0  0
    7.7951  -25.5941   17.4548 N   0  0  0  0  0  0  0  0  0  0  0  0
    8.5676  -23.7937   18.7082 N   0  0  0  0  0  0  0  0  0  0  0  0
    8.2722  -22.6433   19.5355 C   0  0  0  0  0  0  0  0  0  0  0  0
    6.9560  -22.8720   20.2398 C   0  0  0  0  0  0  0  0  0  0  0  0
    6.6593  -21.8108   21.2391 C   0  0  0  0  0  0  0  0  0  0  0  0
    6.4051  -20.4986   20.5373 C   0  0  2  0  0  0  0  0  0  0  0  0
    6.9609  -20.6611   19.1963 N   0  0  0  0  0  0  0  0  0  0  0  0
    7.0897  -19.3836   21.2497 C   0  0  0  0  0  0  0  0  0  0  0  0
    8.2484  -19.5814   21.6871 O   0  0  0  0  0  0  0  0  0  0  0  0
    8.7258  -25.9850   17.2910 N   0  0  0  0  0  0  0  0  0  0  0  0
    8.6075  -11.3120   19.4514 C   0  0  0  0  0  0  0  0  0  0  0  0
    8.9184  -12.7244   19.3299 N   0  0  0  0  0  0  0  0  0  0  0  0
    9.4736  -13.1806   18.2843 N   0  0  0  0  0  0  0  0  0  0  0  0
    8.6056  -13.6191   20.3770 C   0  0  0  0  0  0  0  0  0  0  0  0
    7.6193  -13.4869   21.3564 C   0  0  0  0  0  0  0  0  0  0  0  0
    7.3987  -14.5464   22.3685 C   0  0  0  0  0  0  0  0  0  0  0  0
    6.7131  -15.6869   21.5900 C   0  0  1  0  0  0  0  0  0  0  0  0
    7.1584  -17.0404   22.0778 N   0  0  0  0  0  0  0  0  0  0  0  0
    6.4816  -18.1200   21.4449 C   0  0  0  0  0  0  0  0  0  0  0  0
    7.1379  -17.2022   23.5380 O   0  0  0  0  0  0  0  0  0  0  0  0
    6.0223  -17.3212   24.1147 N   0  0  0  0  0  0  0  0  0  0  0  0
    9.7006  -14.1410   18.1085 C   0  0  0  0  0  0  0  0  0  0  0  0
   12.5647  -19.0243   30.8230 N   0  0  0  0  0  0  0  0  0  0  0  0
   11.6695  -20.0134   30.2718 N   0  0  0  0  0  0  0  0  0  0  0  0
   11.8444  -21.2670   30.5112 C   0  0  0  0  0  0  0  0  0  0  0  0
   10.5794  -19.6266   29.4567 C   0  0  0  0  0  0  0  0  0  0  0  0
   10.7497  -19.4154   27.9887 C   0  0  0  0  0  0  0  0  0  0  0  0
    9.6354  -18.5368   27.5909 C   0  0  1  0  0  0  0  0  0  0  0  0
    9.3545  -18.1427   26.2311 N   0  0  0  0  0  0  0  0  0  0  0  0
    8.1516  -17.3773   25.8259 C   0  0  0  0  0  0  0  0  0  0  0  0
    8.2980  -17.2314   24.3351 O   0  0  0  0  0  0  0  0  0  0  0  0
    8.1068  -16.0008   26.3336 O   0  0  0  0  0  0  0  0  0  0  0  0
  1  2  1  0
  2  3  2  0
  4  2  1  0
  5  4  1  0
  6  5  1  0
  7  6  1  0
  8  7  1  0
  8  9  1  6
 10 20  1  0
 10  8  1  0
 11 10  2  0
 13 12  1  0
 14 13  2  0
 15 13  1  0
 16 15  1  0
 17 16  1  0
 17 18  1  0
 19 18  1  6
 19 20  1  0
 21 31  1  0
 21 19  1  0
 22 21  2  0
 23 24  1  0
 24 25  2  0
 26 27  1  0
 26 24  1  0
 27 28  1  0
 28 29  1  0
 30 29  1  1
 30 31  1  0
 30 32  1  0
 32 33  1  0
 34 32  2  0
M  END
$$$$
