RRR.pdb
     RDKit          3D

 34 33  0  0  1  0  0  0  0  0999 V2000
   11.3106  -15.0684   14.0153 N   0  0  0  0  0  0  0  0  0  0  0  0
   11.9591  -16.1803   13.4356 C   0  0  0  0  0  0  0  0  0  0  0  0
   11.6552  -16.4976   12.2355 N   0  0  0  0  0  0  0  0  0  0  0  0
   12.9304  -16.9570   14.1253 N   0  0  0  0  0  0  0  0  0  0  0  0
   13.2952  -16.6230   15.4857 C   0  0  0  0  0  0  0  0  0  0  0  0
   12.3613  -17.3387   16.4325 C   0  0  0  0  0  0  0  0  0  0  0  0
   12.6869  -17.0671   17.8584 C   0  0  0  0  0  0  0  0  0  0  0  0
   11.7708  -17.8623   18.7568 C   0  0  2  0  0  0  0  0  0  0  0  0
   10.5263  -18.0135   18.0070 N   0  0  0  0  0  0  0  0  0  0  0  0
   11.5221  -17.1297   20.0300 C   0  0  0  0  0  0  0  0  0  0  0  0
   12.4773  -16.9895   20.8305 O   0  0  0  0  0  0  0  0  0  0  0  0
   12.0422  -17.2686   11.6863 N   0  0  0  0  0  0  0  0  0  0  0  0
    7.5555  -14.7999   16.4471 C   0  0  0  0  0  0  0  0  0  0  0  0
    7.3865  -13.7789   17.4646 N   0  0  0  0  0  0  0  0  0  0  0  0
    7.8792  -12.6198   17.3111 N   0  0  0  0  0  0  0  0  0  0  0  0
    6.6692  -14.0595   18.6484 C   0  0  0  0  0  0  0  0  0  0  0  0
    7.1660  -14.5344   19.8638 C   0  0  0  0  0  0  0  0  0  0  0  0
    8.5734  -14.2957   20.2612 C   0  0  0  0  0  0  0  0  0  0  0  0
    8.7446  -15.0909   21.5709 C   0  0  2  0  0  0  0  0  0  0  0  0
   10.0230  -15.8871   21.5758 N   0  0  0  0  0  0  0  0  0  0  0  0
   10.2556  -16.5902   20.3611 C   0  0  0  0  0  0  0  0  0  0  0  0
   10.1822  -16.7823   22.7300 O   0  0  0  0  0  0  0  0  0  0  0  0
    9.6223  -17.9122   22.6970 N   0  0  0  0  0  0  0  0  0  0  0  0
    7.8705  -11.8810   17.9885 C   0  0  0  0  0  0  0  0  0  0  0  0
   14.6499  -22.4216   22.0656 N   0  0  0  0  0  0  0  0  0  0  0  0
   13.5735  -22.5938   23.0117 N   0  0  0  0  0  0  0  0  0  0  0  0
   12.8710  -23.6735   23.0216 C   0  0  0  0  0  0  0  0  0  0  0  0
   13.2674  -21.5797   23.9499 C   0  0  0  0  0  0  0  0  0  0  0  0
   13.0870  -20.1609   23.5220 C   0  0  0  0  0  0  0  0  0  0  0  0
   12.7215  -19.4290   24.7477 C   0  0  1  0  0  0  0  0  0  0  0  0
   12.4241  -18.0174   24.7953 N   0  0  0  0  0  0  0  0  0  0  0  0
   11.0598  -17.4676   24.9780 C   0  0  0  0  0  0  0  0  0  0  0  0
   10.9271  -16.4496   23.8773 O   0  0  0  0  0  0  0  0  0  0  0  0
   10.8724  -16.7043   26.2177 O   0  0  0  0  0  0  0  0  0  0  0  0
  1  2  1  0
  2  3  2  0
  4  2  1  0
  5  4  1  0
  6  5  1  0
  7  6  1  0
  8  7  1  0
  8  9  1  6
 10 20  1  0
 10  8  1  0
 11 10  2  0
 13 12  1  0
 14 13  2  0
 15 13  1  0
 16 15  1  0
 17 16  1  0
 17 18  1  0
 19 18  1  6
 19 20  1  0
 21 31  1  0
 21 19  1  0
 22 21  2  0
 23 24  1  0
 24 25  2  0
 26 27  1  0
 26 24  1  0
 27 28  1  0
 28 29  1  0
 30 29  1  1
 30 31  1  0
 30 32  1  0
 32 33  1  0
 34 32  2  0
M  END
$$$$
