RRR.pdb
     RDKit          3D

 34 33  0  0  1  0  0  0  0  0999 V2000
    6.9071  -24.9316   18.1970 N   0  0  0  0  0  0  0  0  0  0  0  0
    8.2388  -25.0592   18.6478 C   0  0  0  0  0  0  0  0  0  0  0  0
    8.9581  -25.9899   18.1482 N   0  0  0  0  0  0  0  0  0  0  0  0
    8.8105  -24.2014   19.6275 N   0  0  0  0  0  0  0  0  0  0  0  0
    7.9979  -23.1924   20.2729 C   0  0  0  0  0  0  0  0  0  0  0  0
    8.2608  -21.8583   19.6157 C   0  0  0  0  0  0  0  0  0  0  0  0
    7.0047  -21.1199   19.3163 C   0  0  0  0  0  0  0  0  0  0  0  0
    7.3216  -19.8411   18.5794 C   0  0  2  0  0  0  0  0  0  0  0  0
    8.1687  -20.2387   17.4577 N   0  0  0  0  0  0  0  0  0  0  0  0
    8.0505  -18.8928   19.4676 C   0  0  0  0  0  0  0  0  0  0  0  0
    9.3040  -18.9325   19.4770 O   0  0  0  0  0  0  0  0  0  0  0  0
    9.9149  -26.2367   18.4120 N   0  0  0  0  0  0  0  0  0  0  0  0
    8.2373  -11.9401   18.0756 C   0  0  0  0  0  0  0  0  0  0  0  0
    7.8950  -11.7521   19.4734 N   0  0  0  0  0  0  0  0  0  0  0  0
    8.3332  -10.7534   20.1218 N   0  0  0  0  0  0  0  0  0  0  0  0
    7.0662  -12.6821   20.1390 C   0  0  0  0  0  0  0  0  0  0  0  0
    7.2516  -13.2520   21.4001 C   0  0  0  0  0  0  0  0  0  0  0  0
    8.1026  -14.4515   21.5804 C   0  0  0  0  0  0  0  0  0  0  0  0
    7.2898  -15.5996   20.9496 C   0  0  2  0  0  0  0  0  0  0  0  0
    8.0637  -16.8916   20.9428 N   0  0  0  0  0  0  0  0  0  0  0  0
    7.3807  -17.9562   20.2914 C   0  0  0  0  0  0  0  0  0  0  0  0
    8.5517  -17.3201   22.2608 O   0  0  0  0  0  0  0  0  0  0  0  0
    7.7300  -17.8325   23.0692 N   0  0  0  0  0  0  0  0  0  0  0  0
    8.2440  -10.6064   21.1093 C   0  0  0  0  0  0  0  0  0  0  0  0
   12.7087  -23.9559   24.8081 N   0  0  0  0  0  0  0  0  0  0  0  0
   13.0329  -22.7041   24.1667 N   0  0  0  0  0  0  0  0  0  0  0  0
   13.2191  -22.6447   22.8935 C   0  0  0  0  0  0  0  0  0  0  0  0
   13.1525  -21.5145   24.9235 C   0  0  0  0  0  0  0  0  0  0  0  0
   13.4308  -20.2044   24.2640 C   0  0  0  0  0  0  0  0  0  0  0  0
   12.2813  -19.3469   24.6031 C   0  0  1  0  0  0  0  0  0  0  0  0
   11.4780  -18.6409   23.6338 N   0  0  0  0  0  0  0  0  0  0  0  0
   10.3075  -17.8026   23.9862 C   0  0  0  0  0  0  0  0  0  0  0  0
    9.8905  -17.1902   22.6761 O   0  0  0  0  0  0  0  0  0  0  0  0
   10.6172  -16.6583   24.8519 O   0  0  0  0  0  0  0  0  0  0  0  0
  1  2  1  0
  2  3  2  0
  4  2  1  0
  5  4  1  0
  6  5  1  0
  7  6  1  0
  8  7  1  0
  8  9  1  6
 10 20  1  0
 10  8  1  0
 11 10  2  0
 13 12  1  0
 14 13  2  0
 15 13  1  0
 16 15  1  0
 17 16  1  0
 17 18  1  0
 19 18  1  6
 19 20  1  0
 21 31  1  0
 21 19  1  0
 22 21  2  0
 23 24  1  0
 24 25  2  0
 26 27  1  0
 26 24  1  0
 27 28  1  0
 28 29  1  0
 30 29  1  1
 30 31  1  0
 30 32  1  0
 32 33  1  0
 34 32  2  0
M  END
$$$$
