RRR.pdb
     RDKit          3D

 34 33  0  0  1  0  0  0  0  0999 V2000
    8.1148  -11.7447   16.8966 N   0  0  0  0  0  0  0  0  0  0  0  0
    7.7672  -12.9515   17.5415 C   0  0  0  0  0  0  0  0  0  0  0  0
    8.2704  -14.0392   17.0976 N   0  0  0  0  0  0  0  0  0  0  0  0
    6.8873  -13.0080   18.6573 N   0  0  0  0  0  0  0  0  0  0  0  0
    7.3345  -13.5859   19.9067 C   0  0  0  0  0  0  0  0  0  0  0  0
    7.6695  -15.0411   19.6806 C   0  0  0  0  0  0  0  0  0  0  0  0
    8.1451  -15.7096   20.9215 C   0  0  0  0  0  0  0  0  0  0  0  0
    8.6077  -17.1117   20.6067 C   0  0  2  0  0  0  0  0  0  0  0  0
    7.3891  -17.9126   20.5193 N   0  0  0  0  0  0  0  0  0  0  0  0
    9.4891  -17.6273   21.6914 C   0  0  0  0  0  0  0  0  0  0  0  0
    8.9685  -18.3114   22.6046 O   0  0  0  0  0  0  0  0  0  0  0  0
    8.1793  -14.9715   17.5080 N   0  0  0  0  0  0  0  0  0  0  0  0
   16.2903  -14.6769   20.9276 C   0  0  0  0  0  0  0  0  0  0  0  0
   15.3803  -15.0134   19.8483 N   0  0  0  0  0  0  0  0  0  0  0  0
   14.8717  -14.1075   19.1199 N   0  0  0  0  0  0  0  0  0  0  0  0
   15.0427  -16.3603   19.5900 C   0  0  0  0  0  0  0  0  0  0  0  0
   14.4255  -17.2727   20.4479 C   0  0  0  0  0  0  0  0  0  0  0  0
   13.7494  -16.8218   21.6869 C   0  0  0  0  0  0  0  0  0  0  0  0
   13.1484  -18.1079   22.2884 C   0  0  1  0  0  0  0  0  0  0  0  0
   11.7268  -17.8999   22.7400 N   0  0  0  0  0  0  0  0  0  0  0  0
   10.8818  -17.3743   21.7232 C   0  0  0  0  0  0  0  0  0  0  0  0
   11.5856  -17.1259   23.9809 O   0  0  0  0  0  0  0  0  0  0  0  0
   11.6609  -15.8682   23.9175 N   0  0  0  0  0  0  0  0  0  0  0  0
   14.1990  -14.2464   18.3899 C   0  0  0  0  0  0  0  0  0  0  0  0
    7.0343  -13.4243   23.8965 N   0  0  0  0  0  0  0  0  0  0  0  0
    6.6649  -13.5329   25.2876 N   0  0  0  0  0  0  0  0  0  0  0  0
    6.7612  -12.5189   26.0762 C   0  0  0  0  0  0  0  0  0  0  0  0
    6.1881  -14.7564   25.8149 C   0  0  0  0  0  0  0  0  0  0  0  0
    6.7541  -16.0631   25.3670 C   0  0  0  0  0  0  0  0  0  0  0  0
    8.0474  -16.1852   26.0628 C   0  0  1  0  0  0  0  0  0  0  0  0
    9.1652  -16.9570   25.5748 N   0  0  0  0  0  0  0  0  0  0  0  0
   10.4918  -16.9957   26.2347 C   0  0  0  0  0  0  0  0  0  0  0  0
   11.3708  -17.7101   25.2436 O   0  0  0  0  0  0  0  0  0  0  0  0
   10.5449  -17.8232   27.4460 O   0  0  0  0  0  0  0  0  0  0  0  0
  1  2  1  0
  2  3  2  0
  4  2  1  0
  5  4  1  0
  6  5  1  0
  7  6  1  0
  8  7  1  0
  8  9  1  1
 10 20  1  0
 10  8  1  0
 11 10  2  0
 13 12  1  0
 14 13  2  0
 15 13  1  0
 16 15  1  0
 17 16  1  0
 17 18  1  0
 19 18  1  6
 19 20  1  0
 21 31  1  0
 21 19  1  0
 22 21  2  0
 23 24  1  0
 24 25  2  0
 26 27  1  0
 26 24  1  0
 27 28  1  0
 28 29  1  0
 30 29  1  1
 30 31  1  0
 30 32  1  0
 32 33  1  0
 34 32  2  0
M  END
$$$$
