RRR.pdb
     RDKit          3D

 34 33  0  0  1  0  0  0  0  0999 V2000
    9.1129  -14.8328   14.3215 N   0  0  0  0  0  0  0  0  0  0  0  0
    7.8960  -15.2424   14.9081 C   0  0  0  0  0  0  0  0  0  0  0  0
    7.6723  -16.4957   15.0204 N   0  0  0  0  0  0  0  0  0  0  0  0
    6.9149  -14.3259   15.3771 N   0  0  0  0  0  0  0  0  0  0  0  0
    7.2032  -13.4680   16.5068 C   0  0  0  0  0  0  0  0  0  0  0  0
    6.8471  -14.1988   17.7796 C   0  0  0  0  0  0  0  0  0  0  0  0
    7.3312  -13.4869   18.9928 C   0  0  0  0  0  0  0  0  0  0  0  0
    8.8284  -13.3075   18.9222 C   0  0  2  0  0  0  0  0  0  0  0  0
    9.1681  -13.4293   17.5067 N   0  0  0  0  0  0  0  0  0  0  0  0
    9.5194  -14.3641   19.7130 C   0  0  0  0  0  0  0  0  0  0  0  0
    9.1594  -14.5479   20.9003 O   0  0  0  0  0  0  0  0  0  0  0  0
    6.8538  -16.9389   15.4441 N   0  0  0  0  0  0  0  0  0  0  0  0
   13.5886  -20.7099   21.6198 C   0  0  0  0  0  0  0  0  0  0  0  0
   14.5332  -20.6042   20.5231 N   0  0  0  0  0  0  0  0  0  0  0  0
   15.7639  -20.8586   20.6978 N   0  0  0  0  0  0  0  0  0  0  0  0
   14.0974  -20.2134   19.2377 C   0  0  0  0  0  0  0  0  0  0  0  0
   13.4349  -19.0397   18.8734 C   0  0  0  0  0  0  0  0  0  0  0  0
   12.5228  -18.3512   19.8166 C   0  0  0  0  0  0  0  0  0  0  0  0
   12.0336  -17.1101   19.0439 C   0  0  2  0  0  0  0  0  0  0  0  0
   11.1327  -16.2477   19.8882 N   0  0  0  0  0  0  0  0  0  0  0  0
   10.5574  -15.1610   19.1724 C   0  0  0  0  0  0  0  0  0  0  0  0
   11.7346  -15.7789   21.1438 O   0  0  0  0  0  0  0  0  0  0  0  0
   12.5492  -14.8166   21.0983 N   0  0  0  0  0  0  0  0  0  0  0  0
   16.4818  -20.8057   20.0002 C   0  0  0  0  0  0  0  0  0  0  0  0
   10.3868  -17.1327   29.0562 N   0  0  0  0  0  0  0  0  0  0  0  0
    9.9606  -15.7538   29.0733 N   0  0  0  0  0  0  0  0  0  0  0  0
    9.5232  -15.2125   30.1573 C   0  0  0  0  0  0  0  0  0  0  0  0
   10.0150  -14.9664   27.8989 C   0  0  0  0  0  0  0  0  0  0  0  0
    9.4745  -15.4739   26.6032 C   0  0  0  0  0  0  0  0  0  0  0  0
   10.4958  -15.1341   25.5965 C   0  0  1  0  0  0  0  0  0  0  0  0
   11.1246  -16.0919   24.7188 N   0  0  0  0  0  0  0  0  0  0  0  0
   12.0607  -15.7230   23.6305 C   0  0  0  0  0  0  0  0  0  0  0  0
   11.4539  -16.3453   22.4017 O   0  0  0  0  0  0  0  0  0  0  0  0
   13.3915  -16.3327   23.7399 O   0  0  0  0  0  0  0  0  0  0  0  0
  1  2  1  0
  2  3  2  0
  4  2  1  0
  5  4  1  0
  6  5  1  0
  7  6  1  0
  8  7  1  0
  8  9  1  6
 10 20  1  0
 10  8  1  0
 11 10  2  0
 13 12  1  0
 14 13  2  0
 15 13  1  0
 16 15  1  0
 17 16  1  0
 17 18  1  0
 19 18  1  6
 19 20  1  0
 21 31  1  0
 21 19  1  0
 22 21  2  0
 23 24  1  0
 24 25  2  0
 26 27  1  0
 26 24  1  0
 27 28  1  0
 28 29  1  0
 30 29  1  1
 30 31  1  0
 30 32  1  0
 32 33  1  0
 34 32  2  0
M  END
$$$$
