RRR.pdb
     RDKit          3D

 34 33  0  0  1  0  0  0  0  0999 V2000
    8.1713  -12.4663   16.1042 N   0  0  0  0  0  0  0  0  0  0  0  0
    8.4872  -13.5397   16.9651 C   0  0  0  0  0  0  0  0  0  0  0  0
    9.0723  -14.5607   16.4665 N   0  0  0  0  0  0  0  0  0  0  0  0
    8.1848  -13.5331   18.3547 N   0  0  0  0  0  0  0  0  0  0  0  0
    6.8080  -13.5838   18.7988 C   0  0  0  0  0  0  0  0  0  0  0  0
    6.7810  -13.5954   20.3088 C   0  0  0  0  0  0  0  0  0  0  0  0
    7.8291  -14.4802   20.8846 C   0  0  0  0  0  0  0  0  0  0  0  0
    7.6002  -15.9054   20.4431 C   0  0  2  0  0  0  0  0  0  0  0  0
    6.5162  -16.4041   21.2858 N   0  0  0  0  0  0  0  0  0  0  0  0
    8.8308  -16.7200   20.6470 C   0  0  0  0  0  0  0  0  0  0  0  0
    8.9084  -17.4305   21.6776 O   0  0  0  0  0  0  0  0  0  0  0  0
    9.2956  -15.4364   16.9451 N   0  0  0  0  0  0  0  0  0  0  0  0
   15.6289  -18.5593   15.2293 C   0  0  0  0  0  0  0  0  0  0  0  0
   16.0272  -19.1753   16.4816 N   0  0  0  0  0  0  0  0  0  0  0  0
   17.0801  -19.8796   16.5542 N   0  0  0  0  0  0  0  0  0  0  0  0
   15.2457  -19.0020   17.6452 C   0  0  0  0  0  0  0  0  0  0  0  0
   14.0323  -18.3234   17.7741 C   0  0  0  0  0  0  0  0  0  0  0  0
   13.2948  -18.3112   19.0592 C   0  0  0  0  0  0  0  0  0  0  0  0
   11.9938  -17.5441   18.7501 C   0  0  2  0  0  0  0  0  0  0  0  0
   11.1191  -17.4169   19.9696 N   0  0  0  0  0  0  0  0  0  0  0  0
    9.9037  -16.7197   19.7231 C   0  0  0  0  0  0  0  0  0  0  0  0
   11.7962  -16.8727   21.1546 O   0  0  0  0  0  0  0  0  0  0  0  0
   11.4221  -15.7536   21.6006 N   0  0  0  0  0  0  0  0  0  0  0  0
   17.4458  -20.3096   17.3825 C   0  0  0  0  0  0  0  0  0  0  0  0
   12.4241  -16.7068   30.3418 N   0  0  0  0  0  0  0  0  0  0  0  0
   11.7752  -17.1326   29.1249 N   0  0  0  0  0  0  0  0  0  0  0  0
   10.5876  -17.6309   29.1507 C   0  0  0  0  0  0  0  0  0  0  0  0
   12.4300  -17.0108   27.8764 C   0  0  0  0  0  0  0  0  0  0  0  0
   11.7109  -17.2848   26.5972 C   0  0  0  0  0  0  0  0  0  0  0  0
   12.6972  -17.0249   25.5337 C   0  0  1  0  0  0  0  0  0  0  0  0
   12.4540  -17.2391   24.1272 N   0  0  0  0  0  0  0  0  0  0  0  0
   13.4265  -16.9012   23.0610 C   0  0  0  0  0  0  0  0  0  0  0  0
   12.8447  -17.5316   21.8243 O   0  0  0  0  0  0  0  0  0  0  0  0
   14.7435  -17.5305   23.2171 O   0  0  0  0  0  0  0  0  0  0  0  0
  1  2  1  0
  2  3  2  0
  4  2  1  0
  5  4  1  0
  6  5  1  0
  7  6  1  0
  8  7  1  0
  8  9  1  1
 10 20  1  0
 10  8  1  0
 11 10  2  0
 13 12  1  0
 14 13  2  0
 15 13  1  0
 16 15  1  0
 17 16  1  0
 17 18  1  0
 19 18  1  6
 19 20  1  0
 21 31  1  0
 21 19  1  0
 22 21  2  0
 23 24  1  0
 24 25  2  0
 26 27  1  0
 26 24  1  0
 27 28  1  0
 28 29  1  0
 30 29  1  1
 30 31  1  0
 30 32  1  0
 32 33  1  0
 34 32  2  0
M  END
$$$$
