RRR.pdb
     RDKit          3D

 34 33  0  0  1  0  0  0  0  0999 V2000
    9.9624  -21.2225   15.9565 N   0  0  0  0  0  0  0  0  0  0  0  0
    9.9250  -21.6782   14.6208 C   0  0  0  0  0  0  0  0  0  0  0  0
    9.2961  -22.7623   14.3707 N   0  0  0  0  0  0  0  0  0  0  0  0
   10.5528  -20.9864   13.5485 N   0  0  0  0  0  0  0  0  0  0  0  0
   11.1844  -19.7050   13.7813 C   0  0  0  0  0  0  0  0  0  0  0  0
   10.1122  -18.6586   13.9725 C   0  0  0  0  0  0  0  0  0  0  0  0
   10.6810  -17.2997   14.1789 C   0  0  0  0  0  0  0  0  0  0  0  0
    9.5733  -16.3156   14.4674 C   0  0  2  0  0  0  0  0  0  0  0  0
    9.3947  -15.5581   13.2312 N   0  0  0  0  0  0  0  0  0  0  0  0
    9.9599  -15.4049   15.5811 C   0  0  0  0  0  0  0  0  0  0  0  0
   10.9360  -14.6366   15.4080 O   0  0  0  0  0  0  0  0  0  0  0  0
    9.1654  -23.2005   13.4560 N   0  0  0  0  0  0  0  0  0  0  0  0
    8.0543  -13.0033   25.0203 C   0  0  0  0  0  0  0  0  0  0  0  0
    7.6214  -13.4637   23.7138 N   0  0  0  0  0  0  0  0  0  0  0  0
    6.4064  -13.7587   23.4977 N   0  0  0  0  0  0  0  0  0  0  0  0
    8.5489  -13.5932   22.6566 C   0  0  0  0  0  0  0  0  0  0  0  0
    8.2927  -13.9051   21.3200 C   0  0  0  0  0  0  0  0  0  0  0  0
    9.3707  -13.8641   20.3042 C   0  0  0  0  0  0  0  0  0  0  0  0
    8.7741  -14.5855   19.0793 C   0  0  1  0  0  0  0  0  0  0  0  0
    9.7709  -14.6912   17.9552 N   0  0  0  0  0  0  0  0  0  0  0  0
    9.2667  -15.3773   16.8153 C   0  0  0  0  0  0  0  0  0  0  0  0
   11.0801  -15.2312   18.3465 O   0  0  0  0  0  0  0  0  0  0  0  0
   11.2376  -16.4828   18.3519 N   0  0  0  0  0  0  0  0  0  0  0  0
    6.0187  -14.0567   22.6227 C   0  0  0  0  0  0  0  0  0  0  0  0
   18.5097  -11.2068   16.7939 N   0  0  0  0  0  0  0  0  0  0  0  0
   18.8130  -12.3173   17.6646 N   0  0  0  0  0  0  0  0  0  0  0  0
   20.0270  -12.5670   18.0158 C   0  0  0  0  0  0  0  0  0  0  0  0
   17.7824  -13.1556   18.1519 C   0  0  0  0  0  0  0  0  0  0  0  0
   16.8115  -13.8056   17.2227 C   0  0  0  0  0  0  0  0  0  0  0  0
   15.8742  -14.5394   18.0914 C   0  0  1  0  0  0  0  0  0  0  0  0
   14.4613  -14.2598   18.1848 N   0  0  0  0  0  0  0  0  0  0  0  0
   13.5071  -15.0838   18.9640 C   0  0  0  0  0  0  0  0  0  0  0  0
   12.1747  -14.4280   18.7186 O   0  0  0  0  0  0  0  0  0  0  0  0
   13.6935  -15.0187   20.4185 O   0  0  0  0  0  0  0  0  0  0  0  0
  1  2  1  0
  2  3  2  0
  4  2  1  0
  5  4  1  0
  6  5  1  0
  7  6  1  0
  8  7  1  0
  8  9  1  6
 10 20  1  0
 10  8  1  0
 11 10  2  0
 13 12  1  0
 14 13  2  0
 15 13  1  0
 16 15  1  0
 17 16  1  0
 17 18  1  0
 19 18  1  6
 19 20  1  0
 21 31  1  0
 21 19  1  0
 22 21  2  0
 23 24  1  0
 24 25  2  0
 26 27  1  0
 26 24  1  0
 27 28  1  0
 28 29  1  0
 30 29  1  1
 30 31  1  0
 30 32  1  0
 32 33  1  0
 34 32  2  0
M  END
$$$$
