RFQ.pdb
     RDKit          3D

 32 32  0  0  1  0  0  0  0  0999 V2000
    7.6621  -14.8883   16.9923 N   0  0  0  0  0  0  0  0  0  0  0  0
    8.4666  -13.8434   17.5108 C   0  0  0  0  0  0  0  0  0  0  0  0
    7.8847  -12.7135   17.7743 N   0  0  0  0  0  0  0  0  0  0  0  0
    9.8508  -14.0383   17.7276 N   0  0  0  0  0  0  0  0  0  0  0  0
   10.4482  -15.3257   17.4762 C   0  0  0  0  0  0  0  0  0  0  0  0
    9.6036  -16.4378   18.0553 C   0  0  0  0  0  0  0  0  0  0  0  0
   10.0715  -16.7893   19.4176 C   0  0  0  0  0  0  0  0  0  0  0  0
    9.0118  -17.1497   20.3954 C   0  0  2  0  0  0  0  0  0  0  0  0
    7.6749  -16.9754   19.9641 N   0  0  0  0  0  0  0  0  0  0  0  0
    9.2115  -16.3135   21.6251 C   0  0  0  0  0  0  0  0  0  0  0  0
   10.3687  -16.1240   22.0950 O   0  0  0  0  0  0  0  0  0  0  0  0
    8.3484  -11.9095   18.2243 N   0  0  0  0  0  0  0  0  0  0  0  0
    8.1250  -15.7088   22.3029 C   0  0  1  0  0  0  0  0  0  0  0  0
    8.2460  -14.9690   23.5339 C   0  0  0  0  0  0  0  0  0  0  0  0
    7.0152  -14.0974   23.6968 C   0  0  0  0  0  0  0  0  0  0  0  0
    7.1215  -13.3429   24.9678 C   0  0  0  0  0  0  0  0  0  0  0  0
    6.3033  -13.6631   26.0280 C   0  0  0  0  0  0  0  0  0  0  0  0
    6.3330  -13.0161   27.2444 C   0  0  0  0  0  0  0  0  0  0  0  0
    7.2250  -11.9926   27.4209 C   0  0  0  0  0  0  0  0  0  0  0  0
    8.0611  -11.6404   26.3872 C   0  0  0  0  0  0  0  0  0  0  0  0
    8.0126  -12.3052   25.1744 C   0  0  0  0  0  0  0  0  0  0  0  0
    8.3870  -15.9232   24.6636 O   0  0  0  0  0  0  0  0  0  0  0  0
    7.4842  -16.8031   24.8766 N   0  0  0  0  0  0  0  0  0  0  0  0
   12.6690  -19.7713   24.7683 C   0  0  0  0  0  0  0  0  0  0  0  0
   12.3095  -19.9384   26.1433 O   0  0  0  0  0  0  0  0  0  0  0  0
   12.8685  -20.8817   26.7289 C   0  0  0  0  0  0  0  0  0  0  0  0
   11.3478  -19.0108   26.6939 C   0  0  0  0  0  0  0  0  0  0  0  0
   10.8232  -17.8835   25.9160 C   0  0  1  0  0  0  0  0  0  0  0  0
    9.7586  -17.0246   26.4934 N   0  0  0  0  0  0  0  0  0  0  0  0
    9.4806  -15.9265   25.5447 C   0  0  0  0  0  0  0  0  0  0  0  0
   10.1315  -16.4757   27.8020 O   0  0  0  0  0  0  0  0  0  0  0  0
   10.4140  -15.2743   28.0042 O   0  0  0  0  0  0  0  0  0  0  0  0
  2  1  1  0
  2  3  2  0
  4  2  1  0
  5  4  1  0
  6  5  1  0
  7  6  1  0
  8  7  1  0
  8  9  1  6
 10 11  2  0
 10  8  1  0
 12 10  1  0
 13 21  1  0
 13 12  1  0
 13 14  1  1
 15 14  1  0
 16 15  2  0
 17 16  1  0
 18 19  1  0
 18 17  2  0
 19 20  2  0
 20 15  1  0
 21 29  1  0
 22 21  2  0
 23 24  1  0
 24 25  2  0
 24 26  1  0
 26 27  1  0
 28 27  1  6
 28 30  1  0
 29 28  1  0
 30 31  2  0
 30 32  1  0
M  END
$$$$
