RFQ.pdb
     RDKit          3D

 32 32  0  0  1  0  0  0  0  0999 V2000
    9.3413  -14.2659   15.9469 N   0  0  0  0  0  0  0  0  0  0  0  0
    8.5831  -13.5417   16.9001 C   0  0  0  0  0  0  0  0  0  0  0  0
    7.6261  -12.7858   16.4555 N   0  0  0  0  0  0  0  0  0  0  0  0
    8.8698  -13.6478   18.2812 N   0  0  0  0  0  0  0  0  0  0  0  0
    7.9797  -13.0623   19.2519 C   0  0  0  0  0  0  0  0  0  0  0  0
    7.4216  -14.1163   20.1809 C   0  0  0  0  0  0  0  0  0  0  0  0
    8.4369  -15.1635   20.4474 C   0  0  0  0  0  0  0  0  0  0  0  0
    8.0125  -16.2646   21.3509 C   0  0  2  0  0  0  0  0  0  0  0  0
    6.6177  -16.4263   21.5305 N   0  0  0  0  0  0  0  0  0  0  0  0
    8.6249  -16.0209   22.6987 C   0  0  0  0  0  0  0  0  0  0  0  0
    9.8531  -15.7464   22.8087 O   0  0  0  0  0  0  0  0  0  0  0  0
    6.9884  -12.2394   17.0543 N   0  0  0  0  0  0  0  0  0  0  0  0
    7.8620  -16.0873   23.8900 C   0  0  1  0  0  0  0  0  0  0  0  0
    8.3944  -15.8570   25.2095 C   0  0  0  0  0  0  0  0  0  0  0  0
    7.2506  -15.4852   26.1339 C   0  0  0  0  0  0  0  0  0  0  0  0
    7.0196  -14.0237   26.0540 C   0  0  0  0  0  0  0  0  0  0  0  0
    5.8392  -13.5415   25.5342 C   0  0  0  0  0  0  0  0  0  0  0  0
    5.5399  -12.2010   25.4216 C   0  0  0  0  0  0  0  0  0  0  0  0
    6.4634  -11.2850   25.8487 C   0  0  0  0  0  0  0  0  0  0  0  0
    7.6560  -11.7240   26.3746 C   0  0  0  0  0  0  0  0  0  0  0  0
    7.9339  -13.0758   26.4775 C   0  0  0  0  0  0  0  0  0  0  0  0
    9.0897  -17.0844   25.6751 O   0  0  0  0  0  0  0  0  0  0  0  0
    8.7084  -18.2331   25.2631 N   0  0  0  0  0  0  0  0  0  0  0  0
   15.0674  -17.0857   24.7236 C   0  0  0  0  0  0  0  0  0  0  0  0
   14.1124  -18.1306   24.9336 O   0  0  0  0  0  0  0  0  0  0  0  0
   14.5581  -19.2869   24.8354 C   0  0  0  0  0  0  0  0  0  0  0  0
   12.7536  -17.7366   25.2283 C   0  0  0  0  0  0  0  0  0  0  0  0
   11.7734  -18.6796   25.7770 C   0  0  1  0  0  0  0  0  0  0  0  0
   10.9389  -18.2794   26.9380 N   0  0  0  0  0  0  0  0  0  0  0  0
   10.1743  -17.0707   26.5672 C   0  0  0  0  0  0  0  0  0  0  0  0
   11.7403  -18.0182   28.1389 O   0  0  0  0  0  0  0  0  0  0  0  0
   12.4422  -18.8782   28.7148 O   0  0  0  0  0  0  0  0  0  0  0  0
  2  1  1  0
  2  3  2  0
  4  2  1  0
  5  4  1  0
  6  5  1  0
  7  6  1  0
  8  7  1  0
  8  9  1  1
 10 11  2  0
 10  8  1  0
 12 10  1  0
 13 21  1  0
 13 12  1  0
 13 14  1  6
 15 14  1  0
 16 15  2  0
 17 16  1  0
 18 19  1  0
 18 17  2  0
 19 20  2  0
 20 15  1  0
 21 29  1  0
 22 21  2  0
 23 24  1  0
 24 25  2  0
 24 26  1  0
 26 27  1  0
 28 27  1  6
 28 30  1  0
 29 28  1  0
 30 31  2  0
 30 32  1  0
M  END
$$$$
