RFQ.pdb
     RDKit          3D

 32 32  0  0  1  0  0  0  0  0999 V2000
    9.9593  -14.7917   14.4956 N   0  0  0  0  0  0  0  0  0  0  0  0
    8.6423  -14.3502   14.2159 C   0  0  0  0  0  0  0  0  0  0  0  0
    8.1178  -14.7082   13.0839 N   0  0  0  0  0  0  0  0  0  0  0  0
    7.9374  -13.5493   15.1447 N   0  0  0  0  0  0  0  0  0  0  0  0
    8.5027  -13.2795   16.4428 C   0  0  0  0  0  0  0  0  0  0  0  0
    8.7264  -14.5606   17.2137 C   0  0  0  0  0  0  0  0  0  0  0  0
    9.2001  -14.2639   18.5870 C   0  0  0  0  0  0  0  0  0  0  0  0
    9.3675  -15.4372   19.4839 C   0  0  2  0  0  0  0  0  0  0  0  0
    8.3411  -16.4111   19.4406 N   0  0  0  0  0  0  0  0  0  0  0  0
    9.4647  -14.9333   20.8937 C   0  0  0  0  0  0  0  0  0  0  0  0
   10.3634  -14.1089   21.2232 O   0  0  0  0  0  0  0  0  0  0  0  0
    7.1562  -14.4805   12.7884 N   0  0  0  0  0  0  0  0  0  0  0  0
    8.5646  -15.3550   21.9026 C   0  0  1  0  0  0  0  0  0  0  0  0
    8.5011  -14.7845   23.2246 C   0  0  0  0  0  0  0  0  0  0  0  0
    7.0601  -14.4164   23.5232 C   0  0  0  0  0  0  0  0  0  0  0  0
    7.0085  -13.6558   24.7939 C   0  0  0  0  0  0  0  0  0  0  0  0
    7.4613  -12.3561   24.8361 C   0  0  0  0  0  0  0  0  0  0  0  0
    7.4515  -11.5753   25.9717 C   0  0  0  0  0  0  0  0  0  0  0  0
    6.9649  -12.1132   27.1328 C   0  0  0  0  0  0  0  0  0  0  0  0
    6.5024  -13.4085   27.1346 C   0  0  0  0  0  0  0  0  0  0  0  0
    6.5225  -14.1731   25.9812 C   0  0  0  0  0  0  0  0  0  0  0  0
    9.0224  -15.7704   24.2059 O   0  0  0  0  0  0  0  0  0  0  0  0
    8.5957  -16.9755   24.1929 N   0  0  0  0  0  0  0  0  0  0  0  0
   10.7716  -14.2543   29.8921 C   0  0  0  0  0  0  0  0  0  0  0  0
   10.5887  -15.6691   30.0051 O   0  0  0  0  0  0  0  0  0  0  0  0
   10.9211  -16.1634   31.0962 C   0  0  0  0  0  0  0  0  0  0  0  0
   10.0500  -16.3612   28.8565 C   0  0  0  0  0  0  0  0  0  0  0  0
    9.8507  -15.6890   27.5683 C   0  0  1  0  0  0  0  0  0  0  0  0
   10.3066  -16.3472   26.3179 N   0  0  0  0  0  0  0  0  0  0  0  0
    9.9846  -15.4604   25.1808 C   0  0  0  0  0  0  0  0  0  0  0  0
    9.6871  -17.6624   26.1204 O   0  0  0  0  0  0  0  0  0  0  0  0
    8.4544  -17.8501   26.0250 O   0  0  0  0  0  0  0  0  0  0  0  0
  2  1  1  0
  2  3  2  0
  4  2  1  0
  5  4  1  0
  6  5  1  0
  7  6  1  0
  8  7  1  0
  8  9  1  1
 10 11  2  0
 10  8  1  0
 12 10  1  0
 13 21  1  0
 13 12  1  0
 13 14  1  1
 15 14  1  0
 16 15  2  0
 17 16  1  0
 18 19  1  0
 18 17  2  0
 19 20  2  0
 20 15  1  0
 21 29  1  0
 22 21  2  0
 23 24  1  0
 24 25  2  0
 24 26  1  0
 26 27  1  0
 28 27  1  1
 28 30  1  0
 29 28  1  0
 30 31  2  0
 30 32  1  0
M  END
$$$$
