RFQ.pdb
     RDKit          3D

 32 32  0  0  1  0  0  0  0  0999 V2000
    9.8857  -14.8312   14.8358 N   0  0  0  0  0  0  0  0  0  0  0  0
    8.5066  -14.5535   14.6670 C   0  0  0  0  0  0  0  0  0  0  0  0
    8.0601  -14.4510   13.4526 N   0  0  0  0  0  0  0  0  0  0  0  0
    7.6598  -14.3958   15.7891 N   0  0  0  0  0  0  0  0  0  0  0  0
    7.9964  -13.4485   16.8220 C   0  0  0  0  0  0  0  0  0  0  0  0
    9.1293  -13.9625   17.6809 C   0  0  0  0  0  0  0  0  0  0  0  0
    8.7871  -13.8407   19.1185 C   0  0  0  0  0  0  0  0  0  0  0  0
    8.7699  -15.1100   19.8917 C   0  0  2  0  0  0  0  0  0  0  0  0
    7.5869  -15.8823   19.8032 N   0  0  0  0  0  0  0  0  0  0  0  0
    8.9943  -14.7757   21.3370 C   0  0  0  0  0  0  0  0  0  0  0  0
   10.1135  -14.3435   21.7326 O   0  0  0  0  0  0  0  0  0  0  0  0
    7.0703  -14.2976   13.2059 N   0  0  0  0  0  0  0  0  0  0  0  0
    7.9740  -14.9285   22.3072 C   0  0  2  0  0  0  0  0  0  0  0  0
    8.0902  -14.5086   23.6811 C   0  0  0  0  0  0  0  0  0  0  0  0
    6.9128  -13.6117   24.0134 C   0  0  0  0  0  0  0  0  0  0  0  0
    7.0921  -13.0639   25.3785 C   0  0  0  0  0  0  0  0  0  0  0  0
    6.1109  -13.2465   26.3271 C   0  0  0  0  0  0  0  0  0  0  0  0
    6.1927  -12.7727   27.6186 C   0  0  0  0  0  0  0  0  0  0  0  0
    7.3116  -12.0777   27.9921 C   0  0  0  0  0  0  0  0  0  0  0  0
    8.3160  -11.8726   27.0753 C   0  0  0  0  0  0  0  0  0  0  0  0
    8.2109  -12.3583   25.7837 C   0  0  0  0  0  0  0  0  0  0  0  0
    8.1202  -15.7087   24.5561 O   0  0  0  0  0  0  0  0  0  0  0  0
    7.3323  -16.6892   24.3275 N   0  0  0  0  0  0  0  0  0  0  0  0
   10.3385  -19.8023   23.2409 C   0  0  0  0  0  0  0  0  0  0  0  0
   11.4434  -19.7070   24.1453 O   0  0  0  0  0  0  0  0  0  0  0  0
   12.1706  -20.7133   24.2054 C   0  0  0  0  0  0  0  0  0  0  0  0
   11.5910  -18.4730   24.8830 C   0  0  0  0  0  0  0  0  0  0  0  0
   10.6076  -17.3891   24.7874 C   0  0  1  0  0  0  0  0  0  0  0  0
    9.7359  -17.0834   25.9498 N   0  0  0  0  0  0  0  0  0  0  0  0
    8.9838  -15.8463   25.6552 C   0  0  0  0  0  0  0  0  0  0  0  0
   10.4980  -16.9238   27.1934 O   0  0  0  0  0  0  0  0  0  0  0  0
   10.9345  -15.8298   27.6134 O   0  0  0  0  0  0  0  0  0  0  0  0
  2  1  1  0
  2  3  2  0
  4  2  1  0
  5  4  1  0
  6  5  1  0
  7  6  1  0
  8  7  1  0
  8  9  1  1
 10 11  2  0
 10  8  1  0
 12 10  1  0
 13 21  1  0
 13 12  1  0
 13 14  1  6
 15 14  1  0
 16 15  2  0
 17 16  1  0
 18 19  1  0
 18 17  2  0
 19 20  2  0
 20 15  1  0
 21 29  1  0
 22 21  2  0
 23 24  1  0
 24 25  2  0
 24 26  1  0
 26 27  1  0
 28 27  1  6
 28 30  1  0
 29 28  1  0
 30 31  2  0
 30 32  1  0
M  END
$$$$
