RFQ.pdb
     RDKit          3D

 32 32  0  0  1  0  0  0  0  0999 V2000
    7.8456  -13.4844   19.9110 N   0  0  0  0  0  0  0  0  0  0  0  0
    8.3414  -13.8313   18.6297 C   0  0  0  0  0  0  0  0  0  0  0  0
    9.3568  -13.1606   18.1782 N   0  0  0  0  0  0  0  0  0  0  0  0
    7.7420  -14.8715   17.8816 N   0  0  0  0  0  0  0  0  0  0  0  0
    6.7166  -15.6918   18.4758 C   0  0  0  0  0  0  0  0  0  0  0  0
    7.1681  -17.1305   18.5842 C   0  0  0  0  0  0  0  0  0  0  0  0
    7.8038  -17.3771   19.9008 C   0  0  0  0  0  0  0  0  0  0  0  0
    6.8953  -17.3460   21.0767 C   0  0  2  0  0  0  0  0  0  0  0  0
    5.5296  -17.0885   20.8075 N   0  0  0  0  0  0  0  0  0  0  0  0
    7.3876  -16.2841   22.0154 C   0  0  0  0  0  0  0  0  0  0  0  0
    8.0135  -15.2774   21.5788 O   0  0  0  0  0  0  0  0  0  0  0  0
    9.6876  -13.1899   17.2017 N   0  0  0  0  0  0  0  0  0  0  0  0
    7.1745  -16.3641   23.4132 C   0  0  1  0  0  0  0  0  0  0  0  0
    7.8762  -15.5682   24.3886 C   0  0  0  0  0  0  0  0  0  0  0  0
    6.9033  -15.1804   25.4859 C   0  0  0  0  0  0  0  0  0  0  0  0
    7.5960  -14.3028   26.4586 C   0  0  0  0  0  0  0  0  0  0  0  0
    8.3546  -14.8566   27.4655 C   0  0  0  0  0  0  0  0  0  0  0  0
    9.0318  -14.1187   28.4121 C   0  0  0  0  0  0  0  0  0  0  0  0
    8.9530  -12.7529   28.3582 C   0  0  0  0  0  0  0  0  0  0  0  0
    8.2057  -12.1588   27.3681 C   0  0  0  0  0  0  0  0  0  0  0  0
    7.5343  -12.9212   26.4284 C   0  0  0  0  0  0  0  0  0  0  0  0
    9.0161  -16.3531   24.9284 O   0  0  0  0  0  0  0  0  0  0  0  0
    8.7994  -17.4070   25.6190 N   0  0  0  0  0  0  0  0  0  0  0  0
   14.3551  -16.1645   21.7266 C   0  0  0  0  0  0  0  0  0  0  0  0
   14.1440  -15.1539   22.7176 O   0  0  0  0  0  0  0  0  0  0  0  0
   14.8251  -14.1232   22.5804 C   0  0  0  0  0  0  0  0  0  0  0  0
   13.1807  -15.4367   23.7571 C   0  0  0  0  0  0  0  0  0  0  0  0
   12.4746  -16.7199   23.8330 C   0  0  1  0  0  0  0  0  0  0  0  0
   11.4830  -16.9502   24.9139 N   0  0  0  0  0  0  0  0  0  0  0  0
   10.3620  -16.0063   24.7261 C   0  0  0  0  0  0  0  0  0  0  0  0
   12.0638  -16.7809   26.2506 O   0  0  0  0  0  0  0  0  0  0  0  0
   11.8138  -15.8171   27.0072 O   0  0  0  0  0  0  0  0  0  0  0  0
  2  1  1  0
  2  3  2  0
  4  2  1  0
  5  4  1  0
  6  5  1  0
  7  6  1  0
  8  7  1  0
  8  9  1  6
 10 11  2  0
 10  8  1  0
 12 10  1  0
 13 21  1  0
 13 12  1  0
 13 14  1  1
 15 14  1  0
 16 15  2  0
 17 16  1  0
 18 19  1  0
 18 17  2  0
 19 20  2  0
 20 15  1  0
 21 29  1  0
 22 21  2  0
 23 24  1  0
 24 25  2  0
 24 26  1  0
 26 27  1  0
 28 27  1  6
 28 30  1  0
 29 28  1  0
 30 31  2  0
 30 32  1  0
M  END
$$$$
