RFQ.pdb
     RDKit          3D

 32 32  0  0  1  0  0  0  0  0999 V2000
    8.1194  -14.1714   15.8442 N   0  0  0  0  0  0  0  0  0  0  0  0
    7.7708  -13.8406   17.1771 C   0  0  0  0  0  0  0  0  0  0  0  0
    7.9127  -12.6038   17.5444 N   0  0  0  0  0  0  0  0  0  0  0  0
    7.2879  -14.8315   18.0636 N   0  0  0  0  0  0  0  0  0  0  0  0
    8.1912  -15.4911   18.9727 C   0  0  0  0  0  0  0  0  0  0  0  0
    8.4123  -14.6598   20.2159 C   0  0  0  0  0  0  0  0  0  0  0  0
    9.3387  -15.3511   21.1445 C   0  0  0  0  0  0  0  0  0  0  0  0
    8.7313  -16.3956   22.0100 C   0  0  2  0  0  0  0  0  0  0  0  0
    7.3754  -16.7116   21.7540 N   0  0  0  0  0  0  0  0  0  0  0  0
    8.8358  -15.9361   23.4345 C   0  0  0  0  0  0  0  0  0  0  0  0
    9.9181  -15.4618   23.8812 O   0  0  0  0  0  0  0  0  0  0  0  0
    7.6979  -12.2472   18.4882 N   0  0  0  0  0  0  0  0  0  0  0  0
    7.7396  -16.0136   24.3277 C   0  0  1  0  0  0  0  0  0  0  0  0
    7.7949  -15.6320   25.7165 C   0  0  0  0  0  0  0  0  0  0  0  0
    6.4625  -15.0180   26.1023 C   0  0  0  0  0  0  0  0  0  0  0  0
    6.5681  -13.5422   26.0196 C   0  0  0  0  0  0  0  0  0  0  0  0
    7.7340  -12.9600   25.5749 C   0  0  0  0  0  0  0  0  0  0  0  0
    7.9206  -11.5990   25.4662 C   0  0  0  0  0  0  0  0  0  0  0  0
    6.8926  -10.7662   25.8185 C   0  0  0  0  0  0  0  0  0  0  0  0
    5.7103  -11.3064   26.2679 C   0  0  0  0  0  0  0  0  0  0  0  0
    5.5466  -12.6769   26.3685 C   0  0  0  0  0  0  0  0  0  0  0  0
    8.0966  -16.8315   26.5393 O   0  0  0  0  0  0  0  0  0  0  0  0
    8.3696  -16.7049   27.7819 N   0  0  0  0  0  0  0  0  0  0  0  0
    6.4723  -22.7992   24.9584 C   0  0  0  0  0  0  0  0  0  0  0  0
    7.2107  -23.0009   26.1676 O   0  0  0  0  0  0  0  0  0  0  0  0
    7.2766  -24.1782   26.5610 C   0  0  0  0  0  0  0  0  0  0  0  0
    7.7878  -21.8333   26.7938 C   0  0  0  0  0  0  0  0  0  0  0  0
    7.6682  -20.4963   26.2028 C   0  0  1  0  0  0  0  0  0  0  0  0
    8.3188  -19.3386   26.8668 N   0  0  0  0  0  0  0  0  0  0  0  0
    8.1031  -18.1403   26.0299 C   0  0  0  0  0  0  0  0  0  0  0  0
    9.7549  -19.5509   27.0796 O   0  0  0  0  0  0  0  0  0  0  0  0
   10.2560  -19.9248   28.1626 O   0  0  0  0  0  0  0  0  0  0  0  0
  2  1  1  0
  2  3  2  0
  4  2  1  0
  5  4  1  0
  6  5  1  0
  7  6  1  0
  8  7  1  0
  8  9  1  6
 10 11  2  0
 10  8  1  0
 12 10  1  0
 13 21  1  0
 13 12  1  0
 13 14  1  1
 15 14  1  0
 16 15  2  0
 17 16  1  0
 18 19  1  0
 18 17  2  0
 19 20  2  0
 20 15  1  0
 21 29  1  0
 22 21  2  0
 23 24  1  0
 24 25  2  0
 24 26  1  0
 26 27  1  0
 28 27  1  1
 28 30  1  0
 29 28  1  0
 30 31  2  0
 30 32  1  0
M  END
$$$$
