RFQ.pdb
     RDKit          3D

 32 32  0  0  1  0  0  0  0  0999 V2000
    8.0651  -12.3043   16.4624 N   0  0  0  0  0  0  0  0  0  0  0  0
    7.8432  -13.4170   15.6136 C   0  0  0  0  0  0  0  0  0  0  0  0
    7.2326  -13.2005   14.4889 N   0  0  0  0  0  0  0  0  0  0  0  0
    8.2759  -14.7099   15.9909 N   0  0  0  0  0  0  0  0  0  0  0  0
    9.0073  -14.8983   17.2186 C   0  0  0  0  0  0  0  0  0  0  0  0
    8.0907  -14.7981   18.4166 C   0  0  0  0  0  0  0  0  0  0  0  0
    8.8552  -14.9896   19.6725 C   0  0  0  0  0  0  0  0  0  0  0  0
    8.2848  -15.9654   20.6377 C   0  0  2  0  0  0  0  0  0  0  0  0
    6.8723  -16.0356   20.6976 N   0  0  0  0  0  0  0  0  0  0  0  0
    8.7866  -15.6112   22.0066 C   0  0  0  0  0  0  0  0  0  0  0  0
    9.9626  -15.1799   22.1706 O   0  0  0  0  0  0  0  0  0  0  0  0
    7.0820  -13.9146   13.7600 N   0  0  0  0  0  0  0  0  0  0  0  0
    7.9737  -15.7437   23.1587 C   0  0  1  0  0  0  0  0  0  0  0  0
    8.4390  -15.5454   24.5083 C   0  0  0  0  0  0  0  0  0  0  0  0
    7.2398  -15.2819   25.3990 C   0  0  0  0  0  0  0  0  0  0  0  0
    7.1360  -13.8256   25.6523 C   0  0  0  0  0  0  0  0  0  0  0  0
    5.8979  -13.2350   25.7719 C   0  0  0  0  0  0  0  0  0  0  0  0
    5.7073  -11.8905   26.0068 C   0  0  0  0  0  0  0  0  0  0  0  0
    6.8069  -11.0843   26.1305 C   0  0  0  0  0  0  0  0  0  0  0  0
    8.0626  -11.6338   26.0177 C   0  0  0  0  0  0  0  0  0  0  0  0
    8.2288  -12.9873   25.7816 C   0  0  0  0  0  0  0  0  0  0  0  0
    9.1854  -16.7521   24.9483 O   0  0  0  0  0  0  0  0  0  0  0  0
    8.8204  -17.9118   24.5526 N   0  0  0  0  0  0  0  0  0  0  0  0
   16.0777  -17.9259   25.2633 C   0  0  0  0  0  0  0  0  0  0  0  0
   14.8710  -18.0916   24.5120 O   0  0  0  0  0  0  0  0  0  0  0  0
   14.9917  -17.9811   23.2797 C   0  0  0  0  0  0  0  0  0  0  0  0
   13.6605  -18.3610   25.2540 C   0  0  0  0  0  0  0  0  0  0  0  0
   12.4906  -17.4797   25.1774 C   0  0  1  0  0  0  0  0  0  0  0  0
   11.2632  -17.8201   25.9404 N   0  0  0  0  0  0  0  0  0  0  0  0
   10.3027  -16.7065   25.7980 C   0  0  0  0  0  0  0  0  0  0  0  0
   11.5383  -18.0677   27.3602 O   0  0  0  0  0  0  0  0  0  0  0  0
   11.1703  -17.3143   28.2880 O   0  0  0  0  0  0  0  0  0  0  0  0
  2  1  1  0
  2  3  2  0
  4  2  1  0
  5  4  1  0
  6  5  1  0
  7  6  1  0
  8  7  1  0
  8  9  1  1
 10 11  2  0
 10  8  1  0
 12 10  1  0
 13 21  1  0
 13 12  1  0
 13 14  1  6
 15 14  1  0
 16 15  2  0
 17 16  1  0
 18 19  1  0
 18 17  2  0
 19 20  2  0
 20 15  1  0
 21 29  1  0
 22 21  2  0
 23 24  1  0
 24 25  2  0
 24 26  1  0
 26 27  1  0
 28 27  1  6
 28 30  1  0
 29 28  1  0
 30 31  2  0
 30 32  1  0
M  END
$$$$
