RFQ.pdb
     RDKit          3D

 32 32  0  0  1  0  0  0  0  0999 V2000
    6.6522  -13.6129   14.9941 N   0  0  0  0  0  0  0  0  0  0  0  0
    7.9287  -13.8374   15.5668 C   0  0  0  0  0  0  0  0  0  0  0  0
    8.9618  -13.7319   14.7882 N   0  0  0  0  0  0  0  0  0  0  0  0
    8.0572  -14.1641   16.9371 N   0  0  0  0  0  0  0  0  0  0  0  0
    9.3618  -14.3841   17.5091 C   0  0  0  0  0  0  0  0  0  0  0  0
    9.5661  -15.8432   17.8481 C   0  0  0  0  0  0  0  0  0  0  0  0
   10.2584  -15.9810   19.1520 C   0  0  0  0  0  0  0  0  0  0  0  0
    9.5102  -16.7075   20.2109 C   0  0  2  0  0  0  0  0  0  0  0  0
    8.1576  -17.0128   19.9261 N   0  0  0  0  0  0  0  0  0  0  0  0
    9.5410  -15.8722   21.4569 C   0  0  0  0  0  0  0  0  0  0  0  0
   10.6254  -15.3761   21.8739 O   0  0  0  0  0  0  0  0  0  0  0  0
    8.9215  -13.4281   13.8033 N   0  0  0  0  0  0  0  0  0  0  0  0
    8.3706  -15.6075   22.2091 C   0  0  1  0  0  0  0  0  0  0  0  0
    8.3490  -14.8614   23.4421 C   0  0  0  0  0  0  0  0  0  0  0  0
    7.1647  -13.9139   23.4126 C   0  0  0  0  0  0  0  0  0  0  0  0
    7.0820  -13.2027   24.7100 C   0  0  0  0  0  0  0  0  0  0  0  0
    7.7911  -12.0381   24.9022 C   0  0  0  0  0  0  0  0  0  0  0  0
    7.7738  -11.3122   26.0735 C   0  0  0  0  0  0  0  0  0  0  0  0
    7.0097  -11.7661   27.1148 C   0  0  0  0  0  0  0  0  0  0  0  0
    6.2854  -12.9257   26.9650 C   0  0  0  0  0  0  0  0  0  0  0  0
    6.3188  -13.6376   25.7787 C   0  0  0  0  0  0  0  0  0  0  0  0
    8.2562  -15.8085   24.5828 O   0  0  0  0  0  0  0  0  0  0  0  0
    7.3355  -16.6953   24.6070 N   0  0  0  0  0  0  0  0  0  0  0  0
   12.6030  -18.5379   23.2270 C   0  0  0  0  0  0  0  0  0  0  0  0
   12.5413  -19.1880   24.5004 O   0  0  0  0  0  0  0  0  0  0  0  0
   13.3047  -20.1591   24.6399 C   0  0  0  0  0  0  0  0  0  0  0  0
   11.6108  -18.6575   25.4705 C   0  0  0  0  0  0  0  0  0  0  0  0
   10.8140  -17.4551   25.2051 C   0  0  2  0  0  0  0  0  0  0  0  0
    9.8030  -17.0099   26.1972 N   0  0  0  0  0  0  0  0  0  0  0  0
    9.1399  -15.7976   25.6743 C   0  0  0  0  0  0  0  0  0  0  0  0
   10.3937  -16.7322   27.5113 O   0  0  0  0  0  0  0  0  0  0  0  0
   10.6862  -15.5876   27.9214 O   0  0  0  0  0  0  0  0  0  0  0  0
  2  1  1  0
  2  3  2  0
  4  2  1  0
  5  4  1  0
  6  5  1  0
  7  6  1  0
  8  7  1  0
  8  9  1  6
 10 11  2  0
 10  8  1  0
 12 10  1  0
 13 21  1  0
 13 12  1  0
 13 14  1  1
 15 14  1  0
 16 15  2  0
 17 16  1  0
 18 19  1  0
 18 17  2  0
 19 20  2  0
 20 15  1  0
 21 29  1  0
 22 21  2  0
 23 24  1  0
 24 25  2  0
 24 26  1  0
 26 27  1  0
 28 27  1  6
 28 30  1  0
 29 28  1  0
 30 31  2  0
 30 32  1  0
M  END
$$$$
