RFQ.pdb
     RDKit          3D

 32 32  0  0  1  0  0  0  0  0999 V2000
    7.6275  -14.9778   17.4175 N   0  0  0  0  0  0  0  0  0  0  0  0
    8.6353  -14.1640   16.8432 C   0  0  0  0  0  0  0  0  0  0  0  0
    8.3543  -12.9125   16.6448 N   0  0  0  0  0  0  0  0  0  0  0  0
    9.8958  -14.7087   16.5033 N   0  0  0  0  0  0  0  0  0  0  0  0
   10.2313  -16.0549   16.8941 C   0  0  0  0  0  0  0  0  0  0  0  0
    9.2792  -16.5658   17.9514 C   0  0  0  0  0  0  0  0  0  0  0  0
    9.7691  -16.2122   19.3055 C   0  0  0  0  0  0  0  0  0  0  0  0
    9.0741  -16.8735   20.4407 C   0  0  2  0  0  0  0  0  0  0  0  0
    7.6935  -17.1325   20.2657 N   0  0  0  0  0  0  0  0  0  0  0  0
    9.2288  -16.0006   21.6512 C   0  0  0  0  0  0  0  0  0  0  0  0
   10.3635  -15.5574   21.9857 O   0  0  0  0  0  0  0  0  0  0  0  0
    8.9844  -12.2392   16.1826 N   0  0  0  0  0  0  0  0  0  0  0  0
    8.1235  -15.6409   22.4603 C   0  0  1  0  0  0  0  0  0  0  0  0
    8.2235  -14.8809   23.6808 C   0  0  0  0  0  0  0  0  0  0  0  0
    6.9405  -14.0931   23.8659 C   0  0  0  0  0  0  0  0  0  0  0  0
    7.0081  -13.3528   25.1478 C   0  0  0  0  0  0  0  0  0  0  0  0
    7.7482  -12.1949   25.2350 C   0  0  0  0  0  0  0  0  0  0  0  0
    7.8674  -11.4436   26.3841 C   0  0  0  0  0  0  0  0  0  0  0  0
    7.2155  -11.8637   27.5124 C   0  0  0  0  0  0  0  0  0  0  0  0
    6.4651  -13.0154   27.4689 C   0  0  0  0  0  0  0  0  0  0  0  0
    6.3605  -13.7533   26.3028 C   0  0  0  0  0  0  0  0  0  0  0  0
    8.4562  -15.8108   24.8157 O   0  0  0  0  0  0  0  0  0  0  0  0
    7.7101  -16.8379   24.9668 N   0  0  0  0  0  0  0  0  0  0  0  0
   12.5888  -18.8328   23.8202 C   0  0  0  0  0  0  0  0  0  0  0  0
   12.8987  -19.0131   25.2056 O   0  0  0  0  0  0  0  0  0  0  0  0
   13.5937  -20.0091   25.4704 C   0  0  0  0  0  0  0  0  0  0  0  0
   12.3757  -18.0367   26.1338 C   0  0  0  0  0  0  0  0  0  0  0  0
   11.4748  -16.9620   25.7044 C   0  0  2  0  0  0  0  0  0  0  0  0
   10.1872  -16.7551   26.4140 N   0  0  0  0  0  0  0  0  0  0  0  0
    9.4739  -15.6343   25.7673 C   0  0  0  0  0  0  0  0  0  0  0  0
   10.3746  -16.4742   27.8419 O   0  0  0  0  0  0  0  0  0  0  0  0
   10.8603  -15.4127   28.2903 O   0  0  0  0  0  0  0  0  0  0  0  0
  2  1  1  0
  2  3  2  0
  4  2  1  0
  5  4  1  0
  6  5  1  0
  7  6  1  0
  8  7  1  0
  8  9  1  6
 10 11  2  0
 10  8  1  0
 12 10  1  0
 13 21  1  0
 13 12  1  0
 13 14  1  1
 15 14  1  0
 16 15  2  0
 17 16  1  0
 18 19  1  0
 18 17  2  0
 19 20  2  0
 20 15  1  0
 21 29  1  0
 22 21  2  0
 23 24  1  0
 24 25  2  0
 24 26  1  0
 26 27  1  0
 28 27  1  6
 28 30  1  0
 29 28  1  0
 30 31  2  0
 30 32  1  0
M  END
$$$$
