RFQ.pdb
     RDKit          3D

 32 32  0  0  1  0  0  0  0  0999 V2000
    9.6255  -14.8005   16.7711 N   0  0  0  0  0  0  0  0  0  0  0  0
    8.6756  -14.0591   16.0256 C   0  0  0  0  0  0  0  0  0  0  0  0
    8.9818  -13.7514   14.8023 N   0  0  0  0  0  0  0  0  0  0  0  0
    7.4440  -13.6750   16.6056 N   0  0  0  0  0  0  0  0  0  0  0  0
    7.2141  -13.8754   18.0144 C   0  0  0  0  0  0  0  0  0  0  0  0
    8.1044  -12.9769   18.8422 C   0  0  0  0  0  0  0  0  0  0  0  0
    7.9123  -13.2452   20.2877 C   0  0  0  0  0  0  0  0  0  0  0  0
    8.1085  -14.6542   20.7184 C   0  0  2  0  0  0  0  0  0  0  0  0
    6.9515  -15.4695   20.7426 N   0  0  0  0  0  0  0  0  0  0  0  0
    8.6905  -14.6399   22.1012 C   0  0  0  0  0  0  0  0  0  0  0  0
    9.7341  -13.9746   22.3546 O   0  0  0  0  0  0  0  0  0  0  0  0
    8.3412  -13.2889   14.1393 N   0  0  0  0  0  0  0  0  0  0  0  0
    8.1024  -15.3625   23.1678 C   0  0  1  0  0  0  0  0  0  0  0  0
    8.6059  -15.3707   24.5183 C   0  0  0  0  0  0  0  0  0  0  0  0
    7.4277  -15.3420   25.4733 C   0  0  0  0  0  0  0  0  0  0  0  0
    6.9957  -13.9377   25.6665 C   0  0  0  0  0  0  0  0  0  0  0  0
    7.8123  -13.0529   26.3347 C   0  0  0  0  0  0  0  0  0  0  0  0
    7.4922  -11.7316   26.5600 C   0  0  0  0  0  0  0  0  0  0  0  0
    6.2936  -11.2593   26.0965 C   0  0  0  0  0  0  0  0  0  0  0  0
    5.4478  -12.1099   25.4237 C   0  0  0  0  0  0  0  0  0  0  0  0
    5.7914  -13.4333   25.2095 C   0  0  0  0  0  0  0  0  0  0  0  0
    9.4372  -16.5851   24.7206 O   0  0  0  0  0  0  0  0  0  0  0  0
    8.8987  -17.7442   24.6863 N   0  0  0  0  0  0  0  0  0  0  0  0
   16.4377  -19.1425   24.4866 C   0  0  0  0  0  0  0  0  0  0  0  0
   15.4956  -18.0681   24.5640 O   0  0  0  0  0  0  0  0  0  0  0  0
   15.9890  -16.9271   24.5738 C   0  0  0  0  0  0  0  0  0  0  0  0
   14.0950  -18.4185   24.6256 C   0  0  0  0  0  0  0  0  0  0  0  0
   13.0385  -17.4015   24.6004 C   0  0  1  0  0  0  0  0  0  0  0  0
   11.6657  -17.7572   25.0404 N   0  0  0  0  0  0  0  0  0  0  0  0
   10.8214  -16.5477   24.9550 C   0  0  0  0  0  0  0  0  0  0  0  0
   11.6378  -18.2940   26.4056 O   0  0  0  0  0  0  0  0  0  0  0  0
   11.8640  -19.4895   26.6943 O   0  0  0  0  0  0  0  0  0  0  0  0
  2  1  1  0
  2  3  2  0
  4  2  1  0
  5  4  1  0
  6  5  1  0
  7  6  1  0
  8  7  1  0
  8  9  1  1
 10 11  2  0
 10  8  1  0
 12 10  1  0
 13 21  1  0
 13 12  1  0
 13 14  1  1
 15 14  1  0
 16 15  2  0
 17 16  1  0
 18 19  1  0
 18 17  2  0
 19 20  2  0
 20 15  1  0
 21 29  1  0
 22 21  2  0
 23 24  1  0
 24 25  2  0
 24 26  1  0
 26 27  1  0
 28 27  1  6
 28 30  1  0
 29 28  1  0
 30 31  2  0
 30 32  1  0
M  END
$$$$
