FNS.pdb
     RDKit          3D

 26 26  0  0  1  0  0  0  0  0999 V2000
   28.1760  -21.4065  -14.7584 N   0  0  0  0  0  0  0  0  0  0  0  0
   27.1069  -20.9481  -13.8961 C   0  0  1  0  0  0  0  0  0  0  0  0
   27.6071  -19.8500  -12.9641 C   0  0  0  0  0  0  0  0  0  0  0  0
   28.5923  -20.4106  -11.9894 C   0  0  0  0  0  0  0  0  0  0  0  0
   28.1710  -21.1323  -10.8886 C   0  0  0  0  0  0  0  0  0  0  0  0
   29.0853  -21.6477   -9.9918 C   0  0  0  0  0  0  0  0  0  0  0  0
   30.4507  -21.4679  -10.1512 C   0  0  0  0  0  0  0  0  0  0  0  0
   30.8768  -20.7479  -11.2489 C   0  0  0  0  0  0  0  0  0  0  0  0
   29.9513  -20.2316  -12.1481 C   0  0  0  0  0  0  0  0  0  0  0  0
   26.0519  -20.3497  -14.7480 C   0  0  0  0  0  0  0  0  0  0  0  0
   26.3591  -19.6894  -15.7555 O   0  0  0  0  0  0  0  0  0  0  0  0
   21.9080  -21.2945  -18.3130 N   0  0  0  0  0  0  0  0  0  0  0  0
   22.5982  -20.3792  -17.4705 C   0  0  0  0  0  0  0  0  0  0  0  0
   22.3195  -19.1589  -17.5974 O   0  0  0  0  0  0  0  0  0  0  0  0
   23.5859  -20.9117  -16.5119 C   0  0  0  0  0  0  0  0  0  0  0  0
   23.6553  -20.0346  -15.2843 C   0  0  2  0  0  0  0  0  0  0  0  0
   24.6620  -20.5329  -14.4086 N   0  0  0  0  0  0  0  0  0  0  0  0
   22.3428  -19.9203  -14.6037 C   0  0  0  0  0  0  0  0  0  0  0  0
   22.0540  -20.7624  -13.7274 O   0  0  0  0  0  0  0  0  0  0  0  0
   19.3113  -17.4138  -16.0077 O   0  0  0  0  0  0  0  0  0  0  0  0
   19.4182  -17.4912  -14.6026 C   0  0  0  0  0  0  0  0  0  0  0  0
   20.1120  -18.7951  -14.2862 C   0  0  2  0  0  0  0  0  0  0  0  0
   21.4035  -18.9000  -14.9029 N   0  0  0  0  0  0  0  0  0  0  0  0
   19.2366  -19.9536  -14.6133 C   0  0  0  0  0  0  0  0  0  0  0  0
   19.4297  -20.6947  -15.5997 O   0  0  0  0  0  0  0  0  0  0  0  0
   18.1616  -20.2166  -13.7833 O   0  0  0  0  0  0  0  0  0  0  0  0
  2  1  1  6
  2 10  1  0
  3  2  1  0
  3  4  1  0
  4  5  2  0
  4  9  1  0
  5  6  1  0
  6  7  2  0
  8  7  1  0
  9  8  2  0
 10 11  2  0
 13 12  1  0
 14 13  2  0
 15 13  1  0
 16 15  1  6
 16 18  1  0
 17 16  1  0
 17 10  1  0
 18 23  1  0
 19 18  2  0
 21 20  1  0
 22 21  1  6
 23 22  1  0
 24 26  1  0
 24 22  1  0
 25 24  2  0
M  END
$$$$
