FNS.pdb
     RDKit          3D

 26 26  0  0  1  0  0  0  0  0999 V2000
   18.4106  -12.5869  -19.8524 N   0  0  0  0  0  0  0  0  0  0  0  0
   19.4893  -12.9684  -18.9648 C   0  0  1  0  0  0  0  0  0  0  0  0
   19.0432  -14.0916  -18.0354 C   0  0  0  0  0  0  0  0  0  0  0  0
   17.9532  -13.6109  -17.1323 C   0  0  0  0  0  0  0  0  0  0  0  0
   18.2422  -12.8752  -15.9985 C   0  0  0  0  0  0  0  0  0  0  0  0
   17.2315  -12.4339  -15.1682 C   0  0  0  0  0  0  0  0  0  0  0  0
   15.8970  -12.7042  -15.4292 C   0  0  0  0  0  0  0  0  0  0  0  0
   15.6028  -13.4385  -16.5602 C   0  0  0  0  0  0  0  0  0  0  0  0
   16.6250  -13.8800  -17.3921 C   0  0  0  0  0  0  0  0  0  0  0  0
   20.5994  -13.5006  -19.7904 C   0  0  0  0  0  0  0  0  0  0  0  0
   20.3755  -13.9488  -20.9281 O   0  0  0  0  0  0  0  0  0  0  0  0
   24.6555  -11.4053  -21.6316 N   0  0  0  0  0  0  0  0  0  0  0  0
   24.0491  -11.7193  -20.3835 C   0  0  0  0  0  0  0  0  0  0  0  0
   23.3858  -10.8096  -19.8219 O   0  0  0  0  0  0  0  0  0  0  0  0
   24.2337  -13.0757  -19.8322 C   0  0  0  0  0  0  0  0  0  0  0  0
   23.0174  -13.9274  -20.1086 C   0  0  2  0  0  0  0  0  0  0  0  0
   21.9460  -13.4996  -19.2735 N   0  0  0  0  0  0  0  0  0  0  0  0
   23.2985  -15.3740  -19.9437 C   0  0  0  0  0  0  0  0  0  0  0  0
   23.5265  -15.8063  -18.7942 O   0  0  0  0  0  0  0  0  0  0  0  0
   21.5334  -18.2275  -22.0768 O   0  0  0  0  0  0  0  0  0  0  0  0
   22.1700  -18.4436  -20.8359 C   0  0  0  0  0  0  0  0  0  0  0  0
   23.4859  -17.7035  -20.8826 C   0  0  2  0  0  0  0  0  0  0  0  0
   23.3199  -16.2858  -21.0304 N   0  0  0  0  0  0  0  0  0  0  0  0
   24.3792  -18.2771  -21.9259 C   0  0  0  0  0  0  0  0  0  0  0  0
   24.7154  -19.4797  -21.9471 O   0  0  0  0  0  0  0  0  0  0  0  0
   24.8558  -17.4352  -22.9147 O   0  0  0  0  0  0  0  0  0  0  0  0
  2  1  1  6
  2 10  1  0
  3  2  1  0
  3  4  1  0
  4  5  2  0
  4  9  1  0
  5  6  1  0
  6  7  2  0
  8  7  1  0
  9  8  2  0
 10 11  2  0
 13 12  1  0
 14 13  2  0
 15 13  1  0
 16 15  1  1
 16 18  1  0
 17 16  1  0
 17 10  1  0
 18 23  1  0
 19 18  2  0
 21 20  1  0
 22 21  1  6
 23 22  1  0
 24 26  1  0
 24 22  1  0
 25 24  2  0
M  END
$$$$
