FNS.pdb
     RDKit          3D

 26 26  0  0  1  0  0  0  0  0999 V2000
   24.8754  -12.8176  -18.8283 N   0  0  0  0  0  0  0  0  0  0  0  0
   24.3201  -12.3172  -17.5881 C   0  0  1  0  0  0  0  0  0  0  0  0
   25.4130  -12.1712  -16.5350 C   0  0  0  0  0  0  0  0  0  0  0  0
   25.9123  -13.5179  -16.1204 C   0  0  0  0  0  0  0  0  0  0  0  0
   25.2149  -14.2836  -15.2052 C   0  0  0  0  0  0  0  0  0  0  0  0
   25.6808  -15.5266  -14.8260 C   0  0  0  0  0  0  0  0  0  0  0  0
   26.8542  -16.0580  -15.3385 C   0  0  0  0  0  0  0  0  0  0  0  0
   27.5545  -15.2974  -16.2529 C   0  0  0  0  0  0  0  0  0  0  0  0
   27.0803  -14.0467  -16.6305 C   0  0  0  0  0  0  0  0  0  0  0  0
   23.7743  -10.9625  -17.8406 C   0  0  0  0  0  0  0  0  0  0  0  0
   24.3573  -10.1864  -18.6173 O   0  0  0  0  0  0  0  0  0  0  0  0
   20.9409   -7.0671  -18.6283 N   0  0  0  0  0  0  0  0  0  0  0  0
   20.1371   -8.2354  -18.7424 C   0  0  0  0  0  0  0  0  0  0  0  0
   19.0165   -8.1098  -19.3003 O   0  0  0  0  0  0  0  0  0  0  0  0
   20.6614   -9.5062  -18.2058 C   0  0  0  0  0  0  0  0  0  0  0  0
   21.9862   -9.2809  -17.5162 C   0  0  2  0  0  0  0  0  0  0  0  0
   22.5616  -10.5406  -17.1835 N   0  0  0  0  0  0  0  0  0  0  0  0
   21.8557   -8.4053  -16.3266 C   0  0  0  0  0  0  0  0  0  0  0  0
   21.5577   -8.9310  -15.2333 O   0  0  0  0  0  0  0  0  0  0  0  0
   22.8301   -4.1989  -14.1825 O   0  0  0  0  0  0  0  0  0  0  0  0
   22.8340   -4.8823  -15.4172 C   0  0  0  0  0  0  0  0  0  0  0  0
   22.0370   -6.1502  -15.2198 C   0  0  2  0  0  0  0  0  0  0  0  0
   22.0535   -7.0013  -16.3751 N   0  0  0  0  0  0  0  0  0  0  0  0
   20.6527   -5.8406  -14.7690 C   0  0  0  0  0  0  0  0  0  0  0  0
   19.8039   -5.2949  -15.5048 O   0  0  0  0  0  0  0  0  0  0  0  0
   20.2955   -6.1746  -13.4749 O   0  0  0  0  0  0  0  0  0  0  0  0
  2  1  1  6
  2 10  1  0
  3  2  1  0
  3  4  1  0
  4  5  2  0
  4  9  1  0
  5  6  1  0
  6  7  2  0
  8  7  1  0
  9  8  2  0
 10 11  2  0
 13 12  1  0
 14 13  2  0
 15 13  1  0
 16 15  1  1
 16 18  1  0
 17 16  1  0
 17 10  1  0
 18 23  1  0
 19 18  2  0
 21 20  1  0
 22 21  1  6
 23 22  1  0
 24 26  1  0
 24 22  1  0
 25 24  2  0
M  END
$$$$
