FNS.pdb
     RDKit          3D

 26 26  0  0  1  0  0  0  0  0999 V2000
   28.0513  -20.0173  -16.5684 N   0  0  0  0  0  0  0  0  0  0  0  0
   27.4868  -19.2164  -15.5021 C   0  0  1  0  0  0  0  0  0  0  0  0
   26.5243  -18.1778  -16.0674 C   0  0  0  0  0  0  0  0  0  0  0  0
   27.2827  -16.9895  -16.5650 C   0  0  0  0  0  0  0  0  0  0  0  0
   27.6848  -16.9046  -17.8846 C   0  0  0  0  0  0  0  0  0  0  0  0
   28.3849  -15.8048  -18.3386 C   0  0  0  0  0  0  0  0  0  0  0  0
   28.7132  -14.7481  -17.5033 C   0  0  0  0  0  0  0  0  0  0  0  0
   28.3140  -14.8278  -16.1845 C   0  0  0  0  0  0  0  0  0  0  0  0
   27.6094  -15.9378  -15.7336 C   0  0  0  0  0  0  0  0  0  0  0  0
   26.6962  -20.1105  -14.6231 C   0  0  0  0  0  0  0  0  0  0  0  0
   26.1860  -21.1479  -15.0799 O   0  0  0  0  0  0  0  0  0  0  0  0
   25.0827  -20.9527   -8.7209 N   0  0  0  0  0  0  0  0  0  0  0  0
   25.0291  -21.1334  -10.1311 C   0  0  0  0  0  0  0  0  0  0  0  0
   24.1972  -21.9677  -10.5723 O   0  0  0  0  0  0  0  0  0  0  0  0
   25.9414  -20.3406  -10.9779 C   0  0  0  0  0  0  0  0  0  0  0  0
   25.6136  -20.5417  -12.4385 C   0  0  2  0  0  0  0  0  0  0  0  0
   26.5168  -19.7773  -13.2312 N   0  0  0  0  0  0  0  0  0  0  0  0
   24.2004  -20.2132  -12.7449 C   0  0  0  0  0  0  0  0  0  0  0  0
   23.8515  -19.0141  -12.7187 O   0  0  0  0  0  0  0  0  0  0  0  0
   21.7693  -22.5194  -15.0508 O   0  0  0  0  0  0  0  0  0  0  0  0
   21.4894  -21.1604  -14.7929 C   0  0  0  0  0  0  0  0  0  0  0  0
   21.8549  -20.9029  -13.3501 C   0  0  2  0  0  0  0  0  0  0  0  0
   23.2303  -21.1975  -13.0654 N   0  0  0  0  0  0  0  0  0  0  0  0
   20.9251  -21.6167  -12.4329 C   0  0  0  0  0  0  0  0  0  0  0  0
   21.3132  -22.4335  -11.5715 O   0  0  0  0  0  0  0  0  0  0  0  0
   19.5703  -21.3598  -12.5441 O   0  0  0  0  0  0  0  0  0  0  0  0
  2  1  1  6
  2 10  1  0
  3  2  1  0
  3  4  1  0
  4  5  2  0
  4  9  1  0
  5  6  1  0
  6  7  2  0
  8  7  1  0
  9  8  2  0
 10 11  2  0
 13 12  1  0
 14 13  2  0
 15 13  1  0
 16 15  1  1
 16 18  1  0
 17 16  1  0
 17 10  1  0
 18 23  1  0
 19 18  2  0
 21 20  1  0
 22 21  1  6
 23 22  1  0
 24 26  1  0
 24 22  1  0
 25 24  2  0
M  END
$$$$
