FNS.pdb
     RDKit          3D

 26 26  0  0  1  0  0  0  0  0999 V2000
   25.3921  -20.7217   -9.6585 N   0  0  0  0  0  0  0  0  0  0  0  0
   25.2552  -20.4744  -11.0787 C   0  0  1  0  0  0  0  0  0  0  0  0
   26.0142  -21.5270  -11.8790 C   0  0  0  0  0  0  0  0  0  0  0  0
   27.4699  -21.1897  -11.9237 C   0  0  0  0  0  0  0  0  0  0  0  0
   27.9469  -20.2114  -12.7755 C   0  0  0  0  0  0  0  0  0  0  0  0
   29.2923  -19.9041  -12.8126 C   0  0  0  0  0  0  0  0  0  0  0  0
   30.2156  -20.5536  -12.0079 C   0  0  0  0  0  0  0  0  0  0  0  0
   29.7446  -21.5315  -11.1553 C   0  0  0  0  0  0  0  0  0  0  0  0
   28.3889  -21.8362  -11.1227 C   0  0  0  0  0  0  0  0  0  0  0  0
   23.8222  -20.6064  -11.4337 C   0  0  0  0  0  0  0  0  0  0  0  0
   23.1055  -21.4374  -10.8495 O   0  0  0  0  0  0  0  0  0  0  0  0
   19.1134  -18.4256  -12.0750 N   0  0  0  0  0  0  0  0  0  0  0  0
   19.8945  -18.4630  -13.2634 C   0  0  0  0  0  0  0  0  0  0  0  0
   19.2746  -18.4912  -14.3579 O   0  0  0  0  0  0  0  0  0  0  0  0
   21.3651  -18.4663  -13.1400 C   0  0  0  0  0  0  0  0  0  0  0  0
   21.8564  -19.8330  -12.7253 C   0  0  2  0  0  0  0  0  0  0  0  0
   23.2545  -19.7682  -12.4611 N   0  0  0  0  0  0  0  0  0  0  0  0
   21.5354  -20.8723  -13.7330 C   0  0  0  0  0  0  0  0  0  0  0  0
   22.2769  -20.9777  -14.7328 O   0  0  0  0  0  0  0  0  0  0  0  0
   20.0262  -24.0888  -12.5716 O   0  0  0  0  0  0  0  0  0  0  0  0
   19.4914  -24.0016  -13.8747 C   0  0  0  0  0  0  0  0  0  0  0  0
   20.1402  -22.8089  -14.5368 C   0  0  2  0  0  0  0  0  0  0  0  0
   20.4269  -21.7494  -13.6124 N   0  0  0  0  0  0  0  0  0  0  0  0
   19.3311  -22.3414  -15.6952 C   0  0  0  0  0  0  0  0  0  0  0  0
   18.9164  -21.1685  -15.8060 O   0  0  0  0  0  0  0  0  0  0  0  0
   19.0275  -23.2517  -16.6917 O   0  0  0  0  0  0  0  0  0  0  0  0
  2  1  1  1
  2 10  1  0
  3  2  1  0
  3  4  1  0
  4  5  2  0
  4  9  1  0
  5  6  1  0
  6  7  2  0
  8  7  1  0
  9  8  2  0
 10 11  2  0
 13 12  1  0
 14 13  2  0
 15 13  1  0
 16 15  1  6
 16 18  1  0
 17 16  1  0
 17 10  1  0
 18 23  1  0
 19 18  2  0
 21 20  1  0
 22 21  1  1
 23 22  1  0
 24 26  1  0
 24 22  1  0
 25 24  2  0
M  END
$$$$
