FNS.pdb
     RDKit          3D

 26 26  0  0  1  0  0  0  0  0999 V2000
   23.0153  -10.6101  -16.7604 N   0  0  0  0  0  0  0  0  0  0  0  0
   22.9825   -9.8751  -15.5131 C   0  0  1  0  0  0  0  0  0  0  0  0
   24.0144   -8.7528  -15.5282 C   0  0  0  0  0  0  0  0  0  0  0  0
   25.3915   -9.3207  -15.6546 C   0  0  0  0  0  0  0  0  0  0  0  0
   26.2754   -8.8376  -16.6009 C   0  0  0  0  0  0  0  0  0  0  0  0
   27.5459   -9.3659  -16.7131 C   0  0  0  0  0  0  0  0  0  0  0  0
   27.9888  -10.3921  -15.8928 C   0  0  0  0  0  0  0  0  0  0  0  0
   27.1100  -10.8783  -14.9460 C   0  0  0  0  0  0  0  0  0  0  0  0
   25.8322  -10.3421  -14.8381 C   0  0  0  0  0  0  0  0  0  0  0  0
   21.6493   -9.2396  -15.3874 C   0  0  0  0  0  0  0  0  0  0  0  0
   20.9259   -9.0967  -16.3882 O   0  0  0  0  0  0  0  0  0  0  0  0
   17.2941   -7.5763  -13.6109 N   0  0  0  0  0  0  0  0  0  0  0  0
   17.9229   -8.1808  -12.4870 C   0  0  0  0  0  0  0  0  0  0  0  0
   17.2101   -8.3851  -11.4707 O   0  0  0  0  0  0  0  0  0  0  0  0
   19.3545   -8.5263  -12.5822 C   0  0  0  0  0  0  0  0  0  0  0  0
   19.8718   -8.2523  -13.9745 C   0  0  2  0  0  0  0  0  0  0  0  0
   21.1870   -8.7844  -14.0991 N   0  0  0  0  0  0  0  0  0  0  0  0
   19.8288   -6.8093  -14.3131 C   0  0  0  0  0  0  0  0  0  0  0  0
   20.6524   -6.0468  -13.7647 O   0  0  0  0  0  0  0  0  0  0  0  0
   17.4404   -5.4196  -17.4114 O   0  0  0  0  0  0  0  0  0  0  0  0
   18.6459   -4.7384  -17.1386 C   0  0  0  0  0  0  0  0  0  0  0  0
   18.9101   -4.8888  -15.6590 C   0  0  2  0  0  0  0  0  0  0  0  0
   18.8966   -6.2581  -15.2296 N   0  0  0  0  0  0  0  0  0  0  0  0
   17.9784   -4.0413  -14.8659 C   0  0  0  0  0  0  0  0  0  0  0  0
   17.1991   -4.5064  -14.0080 O   0  0  0  0  0  0  0  0  0  0  0  0
   17.9800   -2.6768  -15.0938 O   0  0  0  0  0  0  0  0  0  0  0  0
  2  1  1  6
  2 10  1  0
  3  2  1  0
  3  4  1  0
  4  5  2  0
  4  9  1  0
  5  6  1  0
  6  7  2  0
  8  7  1  0
  9  8  2  0
 10 11  2  0
 13 12  1  0
 14 13  2  0
 15 13  1  0
 16 15  1  1
 16 18  1  0
 17 16  1  0
 17 10  1  0
 18 23  1  0
 19 18  2  0
 21 20  1  0
 22 21  1  6
 23 22  1  0
 24 26  1  0
 24 22  1  0
 25 24  2  0
M  END
$$$$
