FNS.pdb
     RDKit          3D

 26 26  0  0  1  0  0  0  0  0999 V2000
   29.4632  -19.7037  -12.7758 N   0  0  0  0  0  0  0  0  0  0  0  0
   28.4602  -20.7476  -12.7397 C   0  0  1  0  0  0  0  0  0  0  0  0
   28.2198  -21.2070  -11.3059 C   0  0  0  0  0  0  0  0  0  0  0  0
   29.5028  -21.6637  -10.6893 C   0  0  0  0  0  0  0  0  0  0  0  0
   30.4589  -22.3195  -11.4415 C   0  0  0  0  0  0  0  0  0  0  0  0
   31.6419  -22.7391  -10.8668 C   0  0  0  0  0  0  0  0  0  0  0  0
   31.9226  -22.5251   -9.5260 C   0  0  0  0  0  0  0  0  0  0  0  0
   30.9711  -21.8706   -8.7703 C   0  0  0  0  0  0  0  0  0  0  0  0
   29.7821  -21.4507   -9.3549 C   0  0  0  0  0  0  0  0  0  0  0  0
   27.1843  -20.1783  -13.2347 C   0  0  0  0  0  0  0  0  0  0  0  0
   26.9699  -18.9564  -13.1543 O   0  0  0  0  0  0  0  0  0  0  0  0
   26.0273  -18.6007  -17.1858 N   0  0  0  0  0  0  0  0  0  0  0  0
   24.9385  -19.2104  -16.5027 C   0  0  0  0  0  0  0  0  0  0  0  0
   23.8597  -18.5652  -16.4497 O   0  0  0  0  0  0  0  0  0  0  0  0
   25.1397  -20.5451  -15.9063 C   0  0  0  0  0  0  0  0  0  0  0  0
   25.0210  -20.4741  -14.4022 C   0  0  2  0  0  0  0  0  0  0  0  0
   26.1856  -21.0438  -13.8127 N   0  0  0  0  0  0  0  0  0  0  0  0
   23.7821  -21.1219  -13.9078 C   0  0  0  0  0  0  0  0  0  0  0  0
   23.7917  -22.3575  -13.7244 O   0  0  0  0  0  0  0  0  0  0  0  0
   20.8521  -19.1634  -11.8427 O   0  0  0  0  0  0  0  0  0  0  0  0
   20.3054  -20.0029  -12.8367 C   0  0  0  0  0  0  0  0  0  0  0  0
   21.3699  -21.0142  -13.1915 C   0  0  2  0  0  0  0  0  0  0  0  0
   22.5901  -20.4026  -13.6348 N   0  0  0  0  0  0  0  0  0  0  0  0
   20.8508  -22.0080  -14.1702 C   0  0  0  0  0  0  0  0  0  0  0  0
   20.7217  -21.7603  -15.3875 O   0  0  0  0  0  0  0  0  0  0  0  0
   20.4966  -23.2617  -13.7048 O   0  0  0  0  0  0  0  0  0  0  0  0
  2  1  1  1
  2 10  1  0
  3  2  1  0
  3  4  1  0
  4  5  2  0
  4  9  1  0
  5  6  1  0
  6  7  2  0
  8  7  1  0
  9  8  2  0
 10 11  2  0
 13 12  1  0
 14 13  2  0
 15 13  1  0
 16 15  1  6
 16 18  1  0
 17 16  1  0
 17 10  1  0
 18 23  1  0
 19 18  2  0
 21 20  1  0
 22 21  1  6
 23 22  1  0
 24 26  1  0
 24 22  1  0
 25 24  2  0
M  END
$$$$
