FNS.pdb
     RDKit          3D

 26 26  0  0  1  0  0  0  0  0999 V2000
   24.6763  -31.4639   -9.5014 N   0  0  0  0  0  0  0  0  0  0  0  0
   25.0530  -32.8291   -9.1995 C   0  0  1  0  0  0  0  0  0  0  0  0
   25.9192  -33.4026  -10.3155 C   0  0  0  0  0  0  0  0  0  0  0  0
   25.0797  -33.7077  -11.5142 C   0  0  0  0  0  0  0  0  0  0  0  0
   24.1969  -34.7711  -11.5116 C   0  0  0  0  0  0  0  0  0  0  0  0
   23.4241  -35.0482  -12.6215 C   0  0  0  0  0  0  0  0  0  0  0  0
   23.4964  -34.2830  -13.7754 C   0  0  0  0  0  0  0  0  0  0  0  0
   24.3765  -33.2198  -13.7833 C   0  0  0  0  0  0  0  0  0  0  0  0
   25.1517  -32.9461  -12.6626 C   0  0  0  0  0  0  0  0  0  0  0  0
   25.8788  -32.8180   -7.9687 C   0  0  0  0  0  0  0  0  0  0  0  0
   26.4069  -31.7628   -7.5774 O   0  0  0  0  0  0  0  0  0  0  0  0
   26.2321  -33.2049   -2.6005 N   0  0  0  0  0  0  0  0  0  0  0  0
   26.9014  -32.8725   -3.8111 C   0  0  0  0  0  0  0  0  0  0  0  0
   28.1037  -32.5126   -3.7230 O   0  0  0  0  0  0  0  0  0  0  0  0
   26.1529  -32.9696   -5.0793 C   0  0  0  0  0  0  0  0  0  0  0  0
   26.7869  -33.9953   -5.9888 C   0  0  2  0  0  0  0  0  0  0  0  0
   26.0720  -34.0357   -7.2200 N   0  0  0  0  0  0  0  0  0  0  0  0
   26.8645  -35.3333   -5.3545 C   0  0  0  0  0  0  0  0  0  0  0  0
   25.8070  -35.8577   -4.9456 O   0  0  0  0  0  0  0  0  0  0  0  0
   29.5062  -39.2466   -4.2419 O   0  0  0  0  0  0  0  0  0  0  0  0
   29.5895  -37.8814   -4.5895 C   0  0  0  0  0  0  0  0  0  0  0  0
   28.1786  -37.3419   -4.5915 C   0  0  2  0  0  0  0  0  0  0  0  0
   28.0827  -36.0420   -5.1919 N   0  0  0  0  0  0  0  0  0  0  0  0
   27.5980  -37.3729   -3.2214 C   0  0  0  0  0  0  0  0  0  0  0  0
   27.2365  -36.3442   -2.6125 O   0  0  0  0  0  0  0  0  0  0  0  0
   27.4545  -38.6000   -2.5989 O   0  0  0  0  0  0  0  0  0  0  0  0
  2  1  1  6
  2 10  1  0
  3  2  1  0
  3  4  1  0
  4  5  2  0
  4  9  1  0
  5  6  1  0
  6  7  2  0
  8  7  1  0
  9  8  2  0
 10 11  2  0
 13 12  1  0
 14 13  2  0
 15 13  1  0
 16 15  1  1
 16 18  1  0
 17 16  1  0
 17 10  1  0
 18 23  1  0
 19 18  2  0
 21 20  1  0
 22 21  1  1
 23 22  1  0
 24 26  1  0
 24 22  1  0
 25 24  2  0
M  END
$$$$
