FNS.pdb
     RDKit          3D

 26 26  0  0  1  0  0  0  0  0999 V2000
   17.2869  -10.3293  -17.4916 N   0  0  0  0  0  0  0  0  0  0  0  0
   18.4351   -9.5435  -17.8929 C   0  0  1  0  0  0  0  0  0  0  0  0
   18.1780   -8.8717  -19.2372 C   0  0  0  0  0  0  0  0  0  0  0  0
   18.1642   -9.8927  -20.3291 C   0  0  0  0  0  0  0  0  0  0  0  0
   19.3361  -10.2928  -20.9428 C   0  0  0  0  0  0  0  0  0  0  0  0
   19.3174  -11.2361  -21.9506 C   0  0  0  0  0  0  0  0  0  0  0  0
   18.1379  -11.8184  -22.3886 C   0  0  0  0  0  0  0  0  0  0  0  0
   16.9646  -11.4223  -21.7791 C   0  0  0  0  0  0  0  0  0  0  0  0
   16.9902  -10.4722  -20.7650 C   0  0  0  0  0  0  0  0  0  0  0  0
   18.6261   -8.4637  -16.8955 C   0  0  0  0  0  0  0  0  0  0  0  0
   17.6611   -8.0430  -16.2344 O   0  0  0  0  0  0  0  0  0  0  0  0
   20.5550   -5.0625  -13.7787 N   0  0  0  0  0  0  0  0  0  0  0  0
   21.6508   -5.9181  -14.0805 C   0  0  0  0  0  0  0  0  0  0  0  0
   22.7269   -5.7138  -13.4615 O   0  0  0  0  0  0  0  0  0  0  0  0
   21.4594   -6.9789  -15.0885 C   0  0  0  0  0  0  0  0  0  0  0  0
   20.1047   -6.8463  -15.7430 C   0  0  2  0  0  0  0  0  0  0  0  0
   19.9366   -7.8972  -16.6895 N   0  0  0  0  0  0  0  0  0  0  0  0
   19.9109   -5.5131  -16.3624 C   0  0  0  0  0  0  0  0  0  0  0  0
   20.3481   -5.3269  -17.5177 O   0  0  0  0  0  0  0  0  0  0  0  0
   16.6823   -3.1235  -17.2441 O   0  0  0  0  0  0  0  0  0  0  0  0
   18.0073   -3.4739  -17.5807 C   0  0  0  0  0  0  0  0  0  0  0  0
   18.8520   -3.2279  -16.3529 C   0  0  2  0  0  0  0  0  0  0  0  0
   19.2531   -4.4429  -15.7030 N   0  0  0  0  0  0  0  0  0  0  0  0
   18.1698   -2.2898  -15.4202 C   0  0  0  0  0  0  0  0  0  0  0  0
   17.9179   -2.5763  -14.2310 O   0  0  0  0  0  0  0  0  0  0  0  0
   17.8000   -1.0453  -15.8978 O   0  0  0  0  0  0  0  0  0  0  0  0
  2  1  1  1
  2 10  1  0
  3  2  1  0
  3  4  1  0
  4  5  2  0
  4  9  1  0
  5  6  1  0
  6  7  2  0
  8  7  1  0
  9  8  2  0
 10 11  2  0
 13 12  1  0
 14 13  2  0
 15 13  1  0
 16 15  1  6
 16 18  1  0
 17 16  1  0
 17 10  1  0
 18 23  1  0
 19 18  2  0
 21 20  1  0
 22 21  1  6
 23 22  1  0
 24 26  1  0
 24 22  1  0
 25 24  2  0
M  END
$$$$
