FNS.pdb
     RDKit          3D

 26 26  0  0  1  0  0  0  0  0999 V2000
   21.7012   -9.2019  -19.3603 N   0  0  0  0  0  0  0  0  0  0  0  0
   21.0531  -10.1442  -18.4721 C   0  0  1  0  0  0  0  0  0  0  0  0
   22.0633  -11.1515  -17.9340 C   0  0  0  0  0  0  0  0  0  0  0  0
   22.5327  -12.0482  -19.0341 C   0  0  0  0  0  0  0  0  0  0  0  0
   21.6340  -12.7815  -19.7856 C   0  0  0  0  0  0  0  0  0  0  0  0
   22.0731  -13.6081  -20.8004 C   0  0  0  0  0  0  0  0  0  0  0  0
   23.4183  -13.7397  -21.1091 C   0  0  0  0  0  0  0  0  0  0  0  0
   24.3201  -13.0096  -20.3616 C   0  0  0  0  0  0  0  0  0  0  0  0
   23.8716  -12.1792  -19.3414 C   0  0  0  0  0  0  0  0  0  0  0  0
   20.5247   -9.3929  -17.3088 C   0  0  0  0  0  0  0  0  0  0  0  0
   19.9318   -9.9898  -16.3937 O   0  0  0  0  0  0  0  0  0  0  0  0
   21.6493   -7.4218  -13.9168 N   0  0  0  0  0  0  0  0  0  0  0  0
   21.8665   -6.2620  -14.7116 C   0  0  0  0  0  0  0  0  0  0  0  0
   22.8143   -5.5052  -14.3770 O   0  0  0  0  0  0  0  0  0  0  0  0
   20.9775   -6.0218  -15.8648 C   0  0  0  0  0  0  0  0  0  0  0  0
   20.1341   -7.2432  -16.1440 C   0  0  2  0  0  0  0  0  0  0  0  0
   20.6982   -7.9628  -17.2360 N   0  0  0  0  0  0  0  0  0  0  0  0
   18.7131   -6.8974  -16.3894 C   0  0  0  0  0  0  0  0  0  0  0  0
   18.3940   -6.4677  -17.5181 O   0  0  0  0  0  0  0  0  0  0  0  0
   14.0724   -7.3147  -15.4568 O   0  0  0  0  0  0  0  0  0  0  0  0
   15.3718   -7.7303  -15.0954 C   0  0  0  0  0  0  0  0  0  0  0  0
   16.3279   -6.6804  -15.6106 C   0  0  2  0  0  0  0  0  0  0  0  0
   17.7033   -7.0328  -15.4022 N   0  0  0  0  0  0  0  0  0  0  0  0
   15.9983   -5.3425  -15.0478 C   0  0  0  0  0  0  0  0  0  0  0  0
   15.4256   -4.4497  -15.7069 O   0  0  0  0  0  0  0  0  0  0  0  0
   16.3446   -5.0816  -13.7341 O   0  0  0  0  0  0  0  0  0  0  0  0
  2  1  1  6
  2 10  1  0
  3  2  1  0
  3  4  1  0
  4  5  2  0
  4  9  1  0
  5  6  1  0
  6  7  2  0
  8  7  1  0
  9  8  2  0
 10 11  2  0
 13 12  1  0
 14 13  2  0
 15 13  1  0
 16 15  1  6
 16 18  1  0
 17 16  1  0
 17 10  1  0
 18 23  1  0
 19 18  2  0
 21 20  1  0
 22 21  1  1
 23 22  1  0
 24 26  1  0
 24 22  1  0
 25 24  2  0
M  END
$$$$
