NNA.pdb
     RDKit          3D

 22 21  0  0  1  0  0  0  0  0999 V2000
    0.7209  -20.1963   17.3217 N   0  0  0  0  0  0  0  0  0  0  0  0
    2.0222  -20.5214   16.8537 C   0  0  0  0  0  0  0  0  0  0  0  0
    2.3234  -20.1495   15.6786 O   0  0  0  0  0  0  0  0  0  0  0  0
    2.9748  -21.2614   17.7090 C   0  0  0  0  0  0  0  0  0  0  0  0
    3.8924  -20.2420   18.3675 C   0  0  2  0  0  0  0  0  0  0  0  0
    4.6209  -19.5766   17.3353 N   0  0  0  0  0  0  0  0  0  0  0  0
    4.8280  -20.9393   19.3134 C   0  0  0  0  0  0  0  0  0  0  0  0
    4.3444  -21.8172   20.0359 O   0  0  0  0  0  0  0  0  0  0  0  0
    8.8818  -23.5388   18.5940 N   0  0  0  0  0  0  0  0  0  0  0  0
    8.5677  -22.1569   18.3532 C   0  0  0  0  0  0  0  0  0  0  0  0
    8.2855  -21.8143   17.1666 O   0  0  0  0  0  0  0  0  0  0  0  0
    8.5809  -21.1793   19.4792 C   0  0  0  0  0  0  0  0  0  0  0  0
    7.2253  -21.1967   20.1709 C   0  0  2  0  0  0  0  0  0  0  0  0
    6.1882  -20.5917   19.3583 N   0  0  0  0  0  0  0  0  0  0  0  0
    7.2757  -20.6074   21.5136 C   0  0  0  0  0  0  0  0  0  0  0  0
    7.5582  -19.3720   21.7044 O   0  0  0  0  0  0  0  0  0  0  0  0
    5.8242  -20.9873   24.8481 C   0  0  0  0  0  0  0  0  0  0  0  0
    7.0588  -20.6984   24.0199 C   0  0  2  0  0  0  0  0  0  0  0  0
    7.0229  -21.3205   22.7311 N   0  0  0  0  0  0  0  0  0  0  0  0
    8.3117  -21.0158   24.7671 C   0  0  0  0  0  0  0  0  0  0  0  0
    8.5349  -20.5235   25.9021 O   0  0  0  0  0  0  0  0  0  0  0  0
    9.2820  -21.8608   24.2521 O   0  0  0  0  0  0  0  0  0  0  0  0
  1  2  1  0
  2  3  2  0
  2  4  1  0
  4  5  1  0
  5  7  1  0
  5  6  1  6
  7  8  2  0
  9 10  1  0
 10 12  1  0
 11 10  2  0
 13 12  1  6
 13 15  1  0
 14  7  1  0
 14 13  1  0
 15 19  1  0
 16 15  2  0
 18 17  1  1
 19 18  1  0
 20 22  1  0
 20 18  1  0
 21 20  2  0
M  END
$$$$
