NNA.pdb
     RDKit          3D

 22 21  0  0  1  0  0  0  0  0999 V2000
    7.7762  -12.9879   17.1042 N   0  0  0  0  0  0  0  0  0  0  0  0
    8.4274  -13.9018   16.2331 C   0  0  0  0  0  0  0  0  0  0  0  0
    8.1948  -13.7825   14.9915 O   0  0  0  0  0  0  0  0  0  0  0  0
    9.3348  -14.9421   16.7633 C   0  0  0  0  0  0  0  0  0  0  0  0
    9.3629  -14.8021   18.2781 C   0  0  2  0  0  0  0  0  0  0  0  0
    9.7255  -13.4561   18.5873 N   0  0  0  0  0  0  0  0  0  0  0  0
   10.3577  -15.7670   18.8574 C   0  0  0  0  0  0  0  0  0  0  0  0
   10.1496  -16.9699   18.6667 O   0  0  0  0  0  0  0  0  0  0  0  0
   14.4445  -13.8859   18.3409 N   0  0  0  0  0  0  0  0  0  0  0  0
   14.3060  -15.2110   18.8808 C   0  0  0  0  0  0  0  0  0  0  0  0
   14.5995  -16.1877   18.1292 O   0  0  0  0  0  0  0  0  0  0  0  0
   13.8305  -15.4025   20.2811 C   0  0  0  0  0  0  0  0  0  0  0  0
   12.4747  -16.0935   20.2576 C   0  0  2  0  0  0  0  0  0  0  0  0
   11.4674  -15.3001   19.5811 N   0  0  0  0  0  0  0  0  0  0  0  0
   12.0338  -16.5043   21.5953 C   0  0  0  0  0  0  0  0  0  0  0  0
   11.8918  -15.6645   22.5528 O   0  0  0  0  0  0  0  0  0  0  0  0
   10.5059  -19.5173   23.3096 C   0  0  0  0  0  0  0  0  0  0  0  0
   11.2524  -18.1998   23.2840 C   0  0  2  0  0  0  0  0  0  0  0  0
   11.7197  -17.8499   21.9769 N   0  0  0  0  0  0  0  0  0  0  0  0
   12.3423  -18.1627   24.3037 C   0  0  0  0  0  0  0  0  0  0  0  0
   13.5433  -18.3428   23.9790 O   0  0  0  0  0  0  0  0  0  0  0  0
   12.0872  -17.9300   25.6458 O   0  0  0  0  0  0  0  0  0  0  0  0
  1  2  1  0
  2  3  2  0
  2  4  1  0
  4  5  1  0
  5  7  1  0
  5  6  1  6
  7  8  2  0
  9 10  1  0
 10 12  1  0
 11 10  2  0
 13 12  1  1
 13 15  1  0
 14  7  1  0
 14 13  1  0
 15 19  1  0
 16 15  2  0
 18 17  1  6
 19 18  1  0
 20 22  1  0
 20 18  1  0
 21 20  2  0
M  END
$$$$
