NNA.pdb
     RDKit          3D

 22 21  0  0  1  0  0  0  0  0999 V2000
    8.6276  -12.1694   19.1526 N   0  0  0  0  0  0  0  0  0  0  0  0
    8.0939  -13.4642   19.3912 C   0  0  0  0  0  0  0  0  0  0  0  0
    8.2616  -14.3347   18.4835 O   0  0  0  0  0  0  0  0  0  0  0  0
    7.3764  -13.7710   20.6473 C   0  0  0  0  0  0  0  0  0  0  0  0
    8.4100  -14.2081   21.6747 C   0  0  2  0  0  0  0  0  0  0  0  0
    9.1342  -15.3099   21.1266 N   0  0  0  0  0  0  0  0  0  0  0  0
    7.7209  -14.6060   22.9486 C   0  0  0  0  0  0  0  0  0  0  0  0
    6.8045  -13.8769   23.3425 O   0  0  0  0  0  0  0  0  0  0  0  0
    5.2457  -18.4838   23.8037 N   0  0  0  0  0  0  0  0  0  0  0  0
    6.6568  -18.2473   23.6635 C   0  0  0  0  0  0  0  0  0  0  0  0
    7.1727  -18.4190   22.5192 O   0  0  0  0  0  0  0  0  0  0  0  0
    7.4636  -17.8154   24.8407 C   0  0  0  0  0  0  0  0  0  0  0  0
    7.5408  -16.2955   24.8622 C   0  0  2  0  0  0  0  0  0  0  0  0
    8.1180  -15.7593   23.6452 N   0  0  0  0  0  0  0  0  0  0  0  0
    8.2247  -15.7877   26.0568 C   0  0  0  0  0  0  0  0  0  0  0  0
    7.8670  -16.1242   27.2404 O   0  0  0  0  0  0  0  0  0  0  0  0
    8.9291  -13.1084   27.6869 C   0  0  0  0  0  0  0  0  0  0  0  0
    9.8283  -14.2332   27.2182 C   0  0  2  0  0  0  0  0  0  0  0  0
    9.3379  -14.8848   26.0416 N   0  0  0  0  0  0  0  0  0  0  0  0
   10.1244  -15.1983   28.3181 C   0  0  0  0  0  0  0  0  0  0  0  0
    9.2579  -15.4853   29.1826 O   0  0  0  0  0  0  0  0  0  0  0  0
   11.3568  -15.8202   28.4401 O   0  0  0  0  0  0  0  0  0  0  0  0
  1  2  1  0
  2  3  2  0
  2  4  1  0
  4  5  1  0
  5  7  1  0
  5  6  1  6
  7  8  2  0
  9 10  1  0
 10 12  1  0
 11 10  2  0
 13 12  1  6
 13 15  1  0
 14  7  1  0
 14 13  1  0
 15 19  1  0
 16 15  2  0
 18 17  1  1
 19 18  1  0
 20 22  1  0
 20 18  1  0
 21 20  2  0
M  END
$$$$
