NNA.pdb
     RDKit          3D

 22 21  0  0  1  0  0  0  0  0999 V2000
   13.2705  -15.7956   18.4822 N   0  0  0  0  0  0  0  0  0  0  0  0
   13.1488  -14.5135   19.0818 C   0  0  0  0  0  0  0  0  0  0  0  0
   14.1859  -13.7827   19.0990 O   0  0  0  0  0  0  0  0  0  0  0  0
   11.8634  -14.0623   19.6570 C   0  0  0  0  0  0  0  0  0  0  0  0
   10.8486  -15.1770   19.4512 C   0  0  2  0  0  0  0  0  0  0  0  0
   10.2883  -15.0244   18.1467 N   0  0  0  0  0  0  0  0  0  0  0  0
    9.7794  -15.0891   20.5025 C   0  0  0  0  0  0  0  0  0  0  0  0
    8.9793  -14.1520   20.4124 O   0  0  0  0  0  0  0  0  0  0  0  0
    6.0153  -17.7031   21.5486 N   0  0  0  0  0  0  0  0  0  0  0  0
    7.4204  -18.0029   21.5950 C   0  0  0  0  0  0  0  0  0  0  0  0
    7.9231  -18.6267   20.6136 O   0  0  0  0  0  0  0  0  0  0  0  0
    8.2366  -17.5831   22.7702 C   0  0  0  0  0  0  0  0  0  0  0  0
    8.7015  -16.1481   22.5678 C   0  0  2  0  0  0  0  0  0  0  0  0
    9.7119  -16.0406   21.5337 N   0  0  0  0  0  0  0  0  0  0  0  0
    9.1378  -15.5203   23.8201 C   0  0  0  0  0  0  0  0  0  0  0  0
   10.3222  -15.6773   24.2835 O   0  0  0  0  0  0  0  0  0  0  0  0
    8.0007  -12.8804   26.2820 C   0  0  0  0  0  0  0  0  0  0  0  0
    8.7751  -14.1177   25.8788 C   0  0  2  0  0  0  0  0  0  0  0  0
    8.3175  -14.6841   24.6462 N   0  0  0  0  0  0  0  0  0  0  0  0
    8.8219  -15.1235   26.9811 C   0  0  0  0  0  0  0  0  0  0  0  0
    8.3058  -16.2618   26.8456 O   0  0  0  0  0  0  0  0  0  0  0  0
    9.4307  -14.8556   28.1969 O   0  0  0  0  0  0  0  0  0  0  0  0
  1  2  1  0
  2  3  2  0
  2  4  1  0
  4  5  1  0
  5  7  1  0
  5  6  1  6
  7  8  2  0
  9 10  1  0
 10 12  1  0
 11 10  2  0
 13 12  1  1
 13 15  1  0
 14  7  1  0
 14 13  1  0
 15 19  1  0
 16 15  2  0
 18 17  1  1
 19 18  1  0
 20 22  1  0
 20 18  1  0
 21 20  2  0
M  END
$$$$
