NNA.pdb
     RDKit          3D

 22 21  0  0  1  0  0  0  0  0999 V2000
   16.5072  -12.9814   18.9523 N   0  0  0  0  0  0  0  0  0  0  0  0
   15.5908  -13.7411   18.1769 C   0  0  0  0  0  0  0  0  0  0  0  0
   15.9959  -14.1598   17.0497 O   0  0  0  0  0  0  0  0  0  0  0  0
   14.2273  -14.0247   18.6736 C   0  0  0  0  0  0  0  0  0  0  0  0
   14.2511  -15.3966   19.3311 C   0  0  2  0  0  0  0  0  0  0  0  0
   14.5204  -16.3644   18.3164 N   0  0  0  0  0  0  0  0  0  0  0  0
   12.9268  -15.6675   19.9860 C   0  0  0  0  0  0  0  0  0  0  0  0
   12.5874  -14.9095   20.9007 O   0  0  0  0  0  0  0  0  0  0  0  0
    7.7137  -18.0700   19.8885 N   0  0  0  0  0  0  0  0  0  0  0  0
    8.9790  -18.7303   20.0604 C   0  0  0  0  0  0  0  0  0  0  0  0
    9.0238  -19.7240   20.8450 O   0  0  0  0  0  0  0  0  0  0  0  0
   10.1832  -18.2424   19.3286 C   0  0  0  0  0  0  0  0  0  0  0  0
   10.9528  -17.2790   20.2209 C   0  0  2  0  0  0  0  0  0  0  0  0
   12.1266  -16.7411   19.5615 N   0  0  0  0  0  0  0  0  0  0  0  0
   11.2840  -17.8675   21.5235 C   0  0  0  0  0  0  0  0  0  0  0  0
   10.4427  -17.8987   22.4897 O   0  0  0  0  0  0  0  0  0  0  0  0
   13.8040  -20.2110   23.0310 C   0  0  0  0  0  0  0  0  0  0  0  0
   12.8064  -19.0752   23.1236 C   0  0  2  0  0  0  0  0  0  0  0  0
   12.5465  -18.4579   21.8583 N   0  0  0  0  0  0  0  0  0  0  0  0
   13.1953  -18.0825   24.1686 C   0  0  0  0  0  0  0  0  0  0  0  0
   13.6601  -16.9570   23.8559 O   0  0  0  0  0  0  0  0  0  0  0  0
   13.0647  -18.3490   25.5222 O   0  0  0  0  0  0  0  0  0  0  0  0
  1  2  1  0
  2  3  2  0
  2  4  1  0
  4  5  1  0
  5  7  1  0
  5  6  1  6
  7  8  2  0
  9 10  1  0
 10 12  1  0
 11 10  2  0
 13 12  1  6
 13 15  1  0
 14  7  1  0
 14 13  1  0
 15 19  1  0
 16 15  2  0
 18 17  1  6
 19 18  1  0
 20 22  1  0
 20 18  1  0
 21 20  2  0
M  END
$$$$
