EAC.pdb
     RDKit          3D

 21 20  0  0  1  0  0  0  0  0999 V2000
    8.9779  -18.3757   23.1154 N   0  0  0  0  0  0  0  0  0  0  0  0
   10.1639  -17.6033   22.9296 C   0  0  1  0  0  0  0  0  0  0  0  0
   11.1648  -18.1435   21.9579 C   0  0  0  0  0  0  0  0  0  0  0  0
   10.5248  -18.6290   20.7055 C   0  0  0  0  0  0  0  0  0  0  0  0
   11.3587  -19.1519   19.6472 C   0  0  0  0  0  0  0  0  0  0  0  0
   12.5100  -19.5670   19.8066 O   0  0  0  0  0  0  0  0  0  0  0  0
    9.7821  -16.2244   22.5204 C   0  0  0  0  0  0  0  0  0  0  0  0
   10.7155  -15.3847   22.3639 O   0  0  0  0  0  0  0  0  0  0  0  0
   10.7935  -19.1787   18.3498 O   0  0  0  0  0  0  0  0  0  0  0  0
    6.7101  -14.6030   21.2652 C   0  0  0  0  0  0  0  0  0  0  0  0
    8.0753  -14.5600   21.9282 C   0  0  2  0  0  0  0  0  0  0  0  0
    8.4257  -15.9077   22.3272 N   0  0  0  0  0  0  0  0  0  0  0  0
    7.9405  -13.6906   23.1319 C   0  0  0  0  0  0  0  0  0  0  0  0
    7.5667  -12.5249   22.9766 O   0  0  0  0  0  0  0  0  0  0  0  0
    8.2244  -14.1490   24.4468 N   0  0  0  0  0  0  0  0  0  0  0  0
    7.9932  -13.3903   25.6371 C   0  0  1  0  0  0  0  0  0  0  0  0
    6.5677  -12.8499   25.7144 C   0  0  0  0  0  0  0  0  0  0  0  0
    6.4687  -11.8313   27.2135 S   0  0  0  0  0  0  0  0  0  0  0  0
    8.3763  -14.0713   26.8812 C   0  0  0  0  0  0  0  0  0  0  0  0
    8.5888  -15.3121   26.8182 O   0  0  0  0  0  0  0  0  0  0  0  0
    8.5260  -13.4857   28.1108 O   0  0  0  0  0  0  0  0  0  0  0  0
  2  1  1  6
  3  2  1  0
  4  5  1  0
  4  3  1  0
  5  6  2  0
  7  2  1  0
  8  7  2  0
  9  5  1  0
 11 10  1  1
 11 13  1  0
 11 12  1  0
 12  7  1  0
 13 15  1  0
 14 13  2  0
 15 16  1  0
 16 19  1  0
 16 17  1  1
 18 17  1  0
 19 20  2  0
 19 21  1  0
M  END
$$$$
