EAC.pdb
     RDKit          3D

 21 20  0  0  1  0  0  0  0  0999 V2000
    7.4936  -17.1240   23.1558 N   0  0  0  0  0  0  0  0  0  0  0  0
    8.5861  -16.3432   22.6714 C   0  0  1  0  0  0  0  0  0  0  0  0
    8.6144  -16.0790   21.1993 C   0  0  0  0  0  0  0  0  0  0  0  0
    8.6434  -17.3364   20.4045 C   0  0  0  0  0  0  0  0  0  0  0  0
    8.7593  -17.2560   18.9661 C   0  0  0  0  0  0  0  0  0  0  0  0
    9.7547  -16.8372   18.3685 O   0  0  0  0  0  0  0  0  0  0  0  0
    8.6122  -15.0459   23.4002 C   0  0  0  0  0  0  0  0  0  0  0  0
    9.5527  -14.2448   23.1280 O   0  0  0  0  0  0  0  0  0  0  0  0
    7.6420  -17.6931   18.2150 O   0  0  0  0  0  0  0  0  0  0  0  0
    6.2681  -13.2508   25.6451 C   0  0  0  0  0  0  0  0  0  0  0  0
    7.6304  -13.4750   25.0134 C   0  0  2  0  0  0  0  0  0  0  0  0
    7.6128  -14.7614   24.3477 N   0  0  0  0  0  0  0  0  0  0  0  0
    8.6222  -13.4905   26.1265 C   0  0  0  0  0  0  0  0  0  0  0  0
    8.6776  -12.5136   26.8785 O   0  0  0  0  0  0  0  0  0  0  0  0
    9.5035  -14.5816   26.3557 N   0  0  0  0  0  0  0  0  0  0  0  0
   10.5017  -14.6158   27.3795 C   0  0  1  0  0  0  0  0  0  0  0  0
    9.9210  -14.3547   28.7668 C   0  0  0  0  0  0  0  0  0  0  0  0
    8.8782  -15.7815   29.1810 S   0  0  0  0  0  0  0  0  0  0  0  0
   11.3474  -15.8171   27.3701 C   0  0  0  0  0  0  0  0  0  0  0  0
   10.9917  -16.7675   26.6226 O   0  0  0  0  0  0  0  0  0  0  0  0
   12.4920  -16.0062   28.0990 O   0  0  0  0  0  0  0  0  0  0  0  0
  2  1  1  6
  3  2  1  0
  4  5  1  0
  4  3  1  0
  5  6  2  0
  7  2  1  0
  8  7  2  0
  9  5  1  0
 11 10  1  1
 11 13  1  0
 11 12  1  0
 12  7  1  0
 13 15  1  0
 14 13  2  0
 15 16  1  0
 16 19  1  0
 16 17  1  1
 18 17  1  0
 19 20  2  0
 19 21  1  0
M  END
$$$$
