EAC.pdb
     RDKit          3D

 21 20  0  0  1  0  0  0  0  0999 V2000
    9.9372  -16.3394   19.4397 N   0  0  0  0  0  0  0  0  0  0  0  0
    9.7673  -17.1277   20.6176 C   0  0  1  0  0  0  0  0  0  0  0  0
   10.7989  -18.1819   20.8676 C   0  0  0  0  0  0  0  0  0  0  0  0
   12.1835  -17.6544   20.7333 C   0  0  0  0  0  0  0  0  0  0  0  0
   13.2982  -18.5648   20.8651 C   0  0  0  0  0  0  0  0  0  0  0  0
   13.9988  -18.9508   19.9251 O   0  0  0  0  0  0  0  0  0  0  0  0
    9.6984  -16.2233   21.7974 C   0  0  0  0  0  0  0  0  0  0  0  0
   10.5578  -15.2979   21.8717 O   0  0  0  0  0  0  0  0  0  0  0  0
   13.5849  -19.0306   22.1706 O   0  0  0  0  0  0  0  0  0  0  0  0
    7.1126  -15.5470   24.3427 C   0  0  0  0  0  0  0  0  0  0  0  0
    8.5267  -15.4255   23.8036 C   0  0  2  0  0  0  0  0  0  0  0  0
    8.7028  -16.4248   22.7698 N   0  0  0  0  0  0  0  0  0  0  0  0
    9.4460  -15.7039   24.9438 C   0  0  0  0  0  0  0  0  0  0  0  0
    9.9633  -16.8215   25.0229 O   0  0  0  0  0  0  0  0  0  0  0  0
    9.7497  -14.7370   25.9401 N   0  0  0  0  0  0  0  0  0  0  0  0
   10.5923  -14.9757   27.0709 C   0  0  1  0  0  0  0  0  0  0  0  0
   10.6716  -13.7687   28.0020 C   0  0  0  0  0  0  0  0  0  0  0  0
    8.9770  -13.1556   28.2191 S   0  0  0  0  0  0  0  0  0  0  0  0
   10.2865  -16.2060   27.8135 C   0  0  0  0  0  0  0  0  0  0  0  0
    9.1635  -16.7401   27.6080 O   0  0  0  0  0  0  0  0  0  0  0  0
   11.1079  -16.8332   28.7130 O   0  0  0  0  0  0  0  0  0  0  0  0
  2  1  1  6
  3  2  1  0
  4  5  1  0
  4  3  1  0
  5  6  2  0
  7  2  1  0
  8  7  2  0
  9  5  1  0
 11 10  1  1
 11 13  1  0
 11 12  1  0
 12  7  1  0
 13 15  1  0
 14 13  2  0
 15 16  1  0
 16 19  1  0
 16 17  1  1
 18 17  1  0
 19 20  2  0
 19 21  1  0
M  END
$$$$
