EAC.pdb
     RDKit          3D

 21 20  0  0  1  0  0  0  0  0999 V2000
   -1.5192  -26.0803   28.6116 N   0  0  0  0  0  0  0  0  0  0  0  0
   -2.3777  -25.4399   27.6679 C   0  0  1  0  0  0  0  0  0  0  0  0
   -3.3552  -26.3188   26.9538 C   0  0  0  0  0  0  0  0  0  0  0  0
   -2.7352  -27.0259   25.8009 C   0  0  0  0  0  0  0  0  0  0  0  0
   -3.5647  -27.8553   24.9566 C   0  0  0  0  0  0  0  0  0  0  0  0
   -4.7759  -28.0270   25.1207 O   0  0  0  0  0  0  0  0  0  0  0  0
   -3.1167  -24.3452   28.3535 C   0  0  0  0  0  0  0  0  0  0  0  0
   -3.5219  -24.5660   29.5315 O   0  0  0  0  0  0  0  0  0  0  0  0
   -2.9204  -28.5036   23.8758 O   0  0  0  0  0  0  0  0  0  0  0  0
   -3.9137  -20.7999   27.5601 C   0  0  0  0  0  0  0  0  0  0  0  0
   -4.0627  -22.0782   28.3656 C   0  0  2  0  0  0  0  0  0  0  0  0
   -3.3364  -23.1291   27.6825 N   0  0  0  0  0  0  0  0  0  0  0  0
   -5.5181  -22.4001   28.3945 C   0  0  0  0  0  0  0  0  0  0  0  0
   -6.0578  -22.7780   27.3511 O   0  0  0  0  0  0  0  0  0  0  0  0
   -6.3066  -22.2896   29.5718 N   0  0  0  0  0  0  0  0  0  0  0  0
   -7.6964  -22.6181   29.6501 C   0  0  1  0  0  0  0  0  0  0  0  0
   -7.9531  -23.8611   30.4982 C   0  0  0  0  0  0  0  0  0  0  0  0
   -7.0385  -25.2260   29.7267 S   0  0  0  0  0  0  0  0  0  0  0  0
   -8.5668  -21.5053   30.0533 C   0  0  0  0  0  0  0  0  0  0  0  0
   -8.0383  -20.5675   30.7089 O   0  0  0  0  0  0  0  0  0  0  0  0
   -9.9050  -21.3867   29.7846 O   0  0  0  0  0  0  0  0  0  0  0  0
  2  1  1  1
  3  2  1  0
  4  5  1  0
  4  3  1  0
  5  6  2  0
  7  2  1  0
  8  7  2  0
  9  5  1  0
 11 10  1  6
 11 13  1  0
 11 12  1  0
 12  7  1  0
 13 15  1  0
 14 13  2  0
 15 16  1  0
 16 19  1  0
 16 17  1  1
 18 17  1  0
 19 20  2  0
 19 21  1  0
M  END
$$$$
