EAC.pdb
     RDKit          3D

 21 20  0  0  1  0  0  0  0  0999 V2000
    8.5608  -14.8216   20.6280 N   0  0  0  0  0  0  0  0  0  0  0  0
    7.8720  -15.4129   21.7297 C   0  0  1  0  0  0  0  0  0  0  0  0
    8.0323  -16.8905   21.8994 C   0  0  0  0  0  0  0  0  0  0  0  0
    7.9840  -17.6126   20.5994 C   0  0  0  0  0  0  0  0  0  0  0  0
    8.0275  -19.0572   20.5960 C   0  0  0  0  0  0  0  0  0  0  0  0
    8.1290  -19.7547   21.6091 O   0  0  0  0  0  0  0  0  0  0  0  0
    8.2916  -14.7298   22.9835 C   0  0  0  0  0  0  0  0  0  0  0  0
    9.5280  -14.7130   23.2509 O   0  0  0  0  0  0  0  0  0  0  0  0
    7.9466  -19.6905   19.3327 O   0  0  0  0  0  0  0  0  0  0  0  0
    6.5345  -12.8312   25.6672 C   0  0  0  0  0  0  0  0  0  0  0  0
    7.7494  -13.4782   25.0265 C   0  0  2  0  0  0  0  0  0  0  0  0
    7.3200  -14.1401   23.8117 N   0  0  0  0  0  0  0  0  0  0  0  0
    8.2641  -14.4830   26.0002 C   0  0  0  0  0  0  0  0  0  0  0  0
    7.8095  -15.6295   25.9579 O   0  0  0  0  0  0  0  0  0  0  0  0
    9.2541  -14.1747   26.9721 N   0  0  0  0  0  0  0  0  0  0  0  0
    9.8730  -15.1358   27.8316 C   0  0  1  0  0  0  0  0  0  0  0  0
   11.2233  -15.6079   27.2989 C   0  0  0  0  0  0  0  0  0  0  0  0
   11.8614  -16.8281   28.4816 S   0  0  0  0  0  0  0  0  0  0  0  0
    9.9655  -14.7279   29.2400 C   0  0  0  0  0  0  0  0  0  0  0  0
    9.9437  -13.4918   29.4854 O   0  0  0  0  0  0  0  0  0  0  0  0
   10.0739  -15.5650   30.3191 O   0  0  0  0  0  0  0  0  0  0  0  0
  2  1  1  6
  3  2  1  0
  4  5  1  0
  4  3  1  0
  5  6  2  0
  7  2  1  0
  8  7  2  0
  9  5  1  0
 11 10  1  1
 11 13  1  0
 11 12  1  0
 12  7  1  0
 13 15  1  0
 14 13  2  0
 15 16  1  0
 16 19  1  0
 16 17  1  6
 18 17  1  0
 19 20  2  0
 19 21  1  0
M  END
$$$$
