EAC.pdb
     RDKit          3D

 21 20  0  0  1  0  0  0  0  0999 V2000
   10.1448  -16.3269   20.5011 N   0  0  0  0  0  0  0  0  0  0  0  0
   10.0883  -17.3004   21.5436 C   0  0  1  0  0  0  0  0  0  0  0  0
   11.3105  -18.1414   21.7360 C   0  0  0  0  0  0  0  0  0  0  0  0
   12.5195  -17.5201   21.1311 C   0  0  0  0  0  0  0  0  0  0  0  0
   13.4746  -18.3618   20.4470 C   0  0  0  0  0  0  0  0  0  0  0  0
   14.3256  -19.0540   21.0127 O   0  0  0  0  0  0  0  0  0  0  0  0
    9.7601  -16.6171   22.8242 C   0  0  0  0  0  0  0  0  0  0  0  0
   10.3151  -15.5024   23.0475 O   0  0  0  0  0  0  0  0  0  0  0  0
   13.4087  -18.3754   19.0332 O   0  0  0  0  0  0  0  0  0  0  0  0
    7.2017  -17.1314   25.4564 C   0  0  0  0  0  0  0  0  0  0  0  0
    8.4596  -16.4850   24.9040 C   0  0  2  0  0  0  0  0  0  0  0  0
    8.8645  -17.2216   23.7243 N   0  0  0  0  0  0  0  0  0  0  0  0
    9.5031  -16.6034   25.9622 C   0  0  0  0  0  0  0  0  0  0  0  0
   10.3231  -17.5219   25.8795 O   0  0  0  0  0  0  0  0  0  0  0  0
    9.5911  -15.7039   27.0590 N   0  0  0  0  0  0  0  0  0  0  0  0
   10.5810  -15.7760   28.0888 C   0  0  1  0  0  0  0  0  0  0  0  0
   10.5540  -14.5574   29.0077 C   0  0  0  0  0  0  0  0  0  0  0  0
   10.4781  -13.0914   27.9401 S   0  0  0  0  0  0  0  0  0  0  0  0
   10.5739  -17.0275   28.8583 C   0  0  0  0  0  0  0  0  0  0  0  0
    9.5476  -17.7539   28.7693 O   0  0  0  0  0  0  0  0  0  0  0  0
   11.5799  -17.4849   29.6682 O   0  0  0  0  0  0  0  0  0  0  0  0
  2  1  1  6
  3  2  1  0
  4  5  1  0
  4  3  1  0
  5  6  2  0
  7  2  1  0
  8  7  2  0
  9  5  1  0
 11 10  1  1
 11 13  1  0
 11 12  1  0
 12  7  1  0
 13 15  1  0
 14 13  2  0
 15 16  1  0
 16 19  1  0
 16 17  1  1
 18 17  1  0
 19 20  2  0
 19 21  1  0
M  END
$$$$
