EAC.pdb
     RDKit          3D

 21 20  0  0  1  0  0  0  0  0999 V2000
    7.9106  -18.0819   22.4453 N   0  0  0  0  0  0  0  0  0  0  0  0
    9.2250  -17.6748   22.0656 C   0  0  1  0  0  0  0  0  0  0  0  0
    9.7700  -18.2735   20.8076 C   0  0  0  0  0  0  0  0  0  0  0  0
    8.7412  -18.3597   19.7363 C   0  0  0  0  0  0  0  0  0  0  0  0
    9.1074  -18.9158   18.4535 C   0  0  0  0  0  0  0  0  0  0  0  0
    9.3540  -18.2453   17.4470 O   0  0  0  0  0  0  0  0  0  0  0  0
    9.2568  -16.1913   21.9531 C   0  0  0  0  0  0  0  0  0  0  0  0
   10.3893  -15.6289   21.9952 O   0  0  0  0  0  0  0  0  0  0  0  0
    9.1808  -20.3269   18.3723 O   0  0  0  0  0  0  0  0  0  0  0  0
    6.8029  -13.5773   21.0390 C   0  0  0  0  0  0  0  0  0  0  0  0
    8.1078  -14.0397   21.6623 C   0  0  2  0  0  0  0  0  0  0  0  0
    8.0525  -15.4798   21.8085 N   0  0  0  0  0  0  0  0  0  0  0  0
    8.1953  -13.3940   23.0033 C   0  0  0  0  0  0  0  0  0  0  0  0
    8.1558  -12.1622   23.0667 O   0  0  0  0  0  0  0  0  0  0  0  0
    8.3220  -14.1377   24.2077 N   0  0  0  0  0  0  0  0  0  0  0  0
    8.0990  -13.6050   25.5163 C   0  0  1  0  0  0  0  0  0  0  0  0
    6.6963  -13.0248   25.6766 C   0  0  0  0  0  0  0  0  0  0  0  0
    6.6039  -12.3174   27.3457 S   0  0  0  0  0  0  0  0  0  0  0  0
    8.4280  -14.5230   26.6152 C   0  0  0  0  0  0  0  0  0  0  0  0
    8.5260  -14.0286   27.7704 O   0  0  0  0  0  0  0  0  0  0  0  0
    8.6398  -15.8722   26.5061 O   0  0  0  0  0  0  0  0  0  0  0  0
  2  1  1  6
  3  2  1  0
  4  5  1  0
  4  3  1  0
  5  6  2  0
  7  2  1  0
  8  7  2  0
  9  5  1  0
 11 10  1  1
 11 13  1  0
 11 12  1  0
 12  7  1  0
 13 15  1  0
 14 13  2  0
 15 16  1  0
 16 19  1  0
 16 17  1  6
 18 17  1  0
 19 20  2  0
 19 21  1  0
M  END
$$$$
