EAC.pdb
     RDKit          3D

 21 20  0  0  1  0  0  0  0  0999 V2000
    9.5564  -17.3408   19.8094 N   0  0  0  0  0  0  0  0  0  0  0  0
   10.1983  -17.4953   21.0751 C   0  0  1  0  0  0  0  0  0  0  0  0
   11.6593  -17.1778   21.1236 C   0  0  0  0  0  0  0  0  0  0  0  0
   12.4748  -18.1748   20.3789 C   0  0  0  0  0  0  0  0  0  0  0  0
   13.9156  -18.0641   20.4045 C   0  0  0  0  0  0  0  0  0  0  0  0
   14.6050  -17.7050   19.4458 O   0  0  0  0  0  0  0  0  0  0  0  0
    9.4849  -16.6639   22.0823 C   0  0  0  0  0  0  0  0  0  0  0  0
    9.2465  -15.4592   21.7784 O   0  0  0  0  0  0  0  0  0  0  0  0
   14.5550  -18.3960   21.6228 O   0  0  0  0  0  0  0  0  0  0  0  0
    7.3849  -17.2973   24.9841 C   0  0  0  0  0  0  0  0  0  0  0  0
    8.3915  -16.4147   24.2678 C   0  0  2  0  0  0  0  0  0  0  0  0
    9.1094  -17.2330   23.3122 N   0  0  0  0  0  0  0  0  0  0  0  0
    9.3297  -15.9029   25.3073 C   0  0  0  0  0  0  0  0  0  0  0  0
   10.4209  -16.4632   25.4420 O   0  0  0  0  0  0  0  0  0  0  0  0
    9.0189  -14.7990   26.1467 N   0  0  0  0  0  0  0  0  0  0  0  0
    9.8361  -14.3504   27.2314 C   0  0  1  0  0  0  0  0  0  0  0  0
    9.3698  -13.0107   27.7954 C   0  0  0  0  0  0  0  0  0  0  0  0
    8.3923  -12.2017   26.4974 S   0  0  0  0  0  0  0  0  0  0  0  0
   10.0354  -15.3406   28.2982 C   0  0  0  0  0  0  0  0  0  0  0  0
    9.3022  -16.3657   28.2784 O   0  0  0  0  0  0  0  0  0  0  0  0
   10.9458  -15.2582   29.3187 O   0  0  0  0  0  0  0  0  0  0  0  0
  2  1  1  6
  3  2  1  0
  4  5  1  0
  4  3  1  0
  5  6  2  0
  7  2  1  0
  8  7  2  0
  9  5  1  0
 11 10  1  1
 11 13  1  0
 11 12  1  0
 12  7  1  0
 13 15  1  0
 14 13  2  0
 15 16  1  0
 16 19  1  0
 16 17  1  1
 18 17  1  0
 19 20  2  0
 19 21  1  0
M  END
$$$$
