GTC.pdb
     RDKit          3D

 18 17  0  0  1  0  0  0  0  0999 V2000
   -6.4862  -22.2609   22.5593 N   0  0  0  0  0  0  0  0  0  0  0  0
   -5.7316  -22.2512   23.7938 C   0  0  0  0  0  0  0  0  0  0  0  0
   -6.4262  -23.0768   24.7865 C   0  0  0  0  0  0  0  0  0  0  0  0
   -7.5823  -23.5051   24.5331 O   0  0  0  0  0  0  0  0  0  0  0  0
   -5.7057  -26.3394   25.7293 C   0  0  0  0  0  0  0  0  0  0  0  0
   -5.7059  -25.5840   27.0373 C   0  0  1  0  0  0  0  0  0  0  0  0
   -4.4230  -25.3108   27.4394 O   0  0  0  0  0  0  0  0  0  0  0  0
   -6.5162  -24.3076   26.9364 C   0  0  2  0  0  0  0  0  0  0  0  0
   -5.8257  -23.3979   26.0132 N   0  0  0  0  0  0  0  0  0  0  0  0
   -6.6855  -23.6557   28.2610 C   0  0  0  0  0  0  0  0  0  0  0  0
   -5.8345  -22.8137   28.6970 O   0  0  0  0  0  0  0  0  0  0  0  0
   -7.7924  -23.9449   29.0805 N   0  0  0  0  0  0  0  0  0  0  0  0
   -8.0306  -23.2651   30.3409 C   0  0  1  0  0  0  0  0  0  0  0  0
   -9.4836  -23.0216   30.6016 C   0  0  0  0  0  0  0  0  0  0  0  0
  -10.0458  -21.7332   29.4513 S   0  0  0  0  0  0  0  0  0  0  0  0
   -7.4681  -24.0146   31.4884 C   0  0  0  0  0  0  0  0  0  0  0  0
   -7.2538  -25.2421   31.3159 O   0  0  0  0  0  0  0  0  0  0  0  0
   -7.1695  -23.4639   32.7112 O   0  0  0  0  0  0  0  0  0  0  0  0
  2  1  1  0
  3  2  1  0
  4  3  2  0
  6  5  1  6
  6  7  1  0
  6  8  1  0
  8  9  1  6
  9  3  1  0
 10  8  1  0
 10 12  1  0
 11 10  2  0
 13 14  1  1
 13 12  1  0
 13 16  1  0
 14 15  1  0
 16 18  1  0
 17 16  2  0
M  END
$$$$
