GTC.pdb
     RDKit          3D

 18 17  0  0  1  0  0  0  0  0999 V2000
    9.1231  -25.7715   28.7859 N   0  0  0  0  0  0  0  0  0  0  0  0
    9.1099  -24.7296   29.7899 C   0  0  0  0  0  0  0  0  0  0  0  0
   10.3950  -24.0242   29.7653 C   0  0  0  0  0  0  0  0  0  0  0  0
   11.4292  -24.6382   29.3941 O   0  0  0  0  0  0  0  0  0  0  0  0
   11.1331  -20.7782   28.0252 C   0  0  0  0  0  0  0  0  0  0  0  0
   11.6074  -20.6488   29.4533 C   0  0  1  0  0  0  0  0  0  0  0  0
   10.7340  -19.8865   30.1868 O   0  0  0  0  0  0  0  0  0  0  0  0
   11.7984  -22.0078   30.0960 C   0  0  2  0  0  0  0  0  0  0  0  0
   10.4927  -22.6780   30.1479 N   0  0  0  0  0  0  0  0  0  0  0  0
   12.3672  -21.8957   31.4641 C   0  0  0  0  0  0  0  0  0  0  0  0
   11.6215  -21.9428   32.4961 O   0  0  0  0  0  0  0  0  0  0  0  0
   13.7503  -21.7344   31.6684 N   0  0  0  0  0  0  0  0  0  0  0  0
   14.3254  -21.5113   32.9825 C   0  0  1  0  0  0  0  0  0  0  0  0
   14.6861  -22.7848   33.6801 C   0  0  0  0  0  0  0  0  0  0  0  0
   15.9884  -23.5993   32.7108 S   0  0  0  0  0  0  0  0  0  0  0  0
   15.5318  -20.6536   32.9199 C   0  0  0  0  0  0  0  0  0  0  0  0
   16.0140  -20.2696   34.0165 O   0  0  0  0  0  0  0  0  0  0  0  0
   16.1491  -20.2562   31.7587 O   0  0  0  0  0  0  0  0  0  0  0  0
  2  1  1  0
  3  2  1  0
  4  3  2  0
  6  5  1  6
  6  7  1  0
  6  8  1  0
  8  9  1  1
  9  3  1  0
 10  8  1  0
 10 12  1  0
 11 10  2  0
 13 14  1  6
 13 12  1  0
 13 16  1  0
 14 15  1  0
 16 18  1  0
 17 16  2  0
M  END
$$$$
