GTC.pdb
     RDKit          3D

 18 17  0  0  1  0  0  0  0  0999 V2000
    4.6124  -18.4227   18.4328 N   0  0  0  0  0  0  0  0  0  0  0  0
    4.7361  -17.6050   19.6201 C   0  0  0  0  0  0  0  0  0  0  0  0
    6.1110  -17.1048   19.7163 C   0  0  0  0  0  0  0  0  0  0  0  0
    6.9927  -17.5710   18.9485 O   0  0  0  0  0  0  0  0  0  0  0  0
    7.2339  -13.7477   19.2308 C   0  0  0  0  0  0  0  0  0  0  0  0
    7.8642  -14.1509   20.5430 C   0  0  1  0  0  0  0  0  0  0  0  0
    7.2310  -13.5369   21.5937 O   0  0  0  0  0  0  0  0  0  0  0  0
    7.8539  -15.6558   20.7200 C   0  0  2  0  0  0  0  0  0  0  0  0
    6.4613  -16.1163   20.6483 N   0  0  0  0  0  0  0  0  0  0  0  0
    8.4580  -16.0627   22.0152 C   0  0  0  0  0  0  0  0  0  0  0  0
    7.7853  -16.0332   23.0968 O   0  0  0  0  0  0  0  0  0  0  0  0
    9.7947  -16.4961   22.0927 N   0  0  0  0  0  0  0  0  0  0  0  0
   10.4416  -16.8134   23.3529 C   0  0  1  0  0  0  0  0  0  0  0  0
   10.9036  -18.2347   23.4247 C   0  0  0  0  0  0  0  0  0  0  0  0
    9.4302  -19.2959   23.4680 S   0  0  0  0  0  0  0  0  0  0  0  0
   11.6013  -15.9301   23.6171 C   0  0  0  0  0  0  0  0  0  0  0  0
   11.9805  -15.1915   22.6720 O   0  0  0  0  0  0  0  0  0  0  0  0
   12.2797  -15.8661   24.8101 O   0  0  0  0  0  0  0  0  0  0  0  0
  2  1  1  0
  3  2  1  0
  4  3  2  0
  6  5  1  6
  6  7  1  0
  6  8  1  0
  8  9  1  1
  9  3  1  0
 10  8  1  0
 10 12  1  0
 11 10  2  0
 13 14  1  6
 13 12  1  0
 13 16  1  0
 14 15  1  0
 16 18  1  0
 17 16  2  0
M  END
$$$$
