GTC.pdb
     RDKit          3D

 18 17  0  0  1  0  0  0  0  0999 V2000
    4.4007  -19.1521   20.7580 N   0  0  0  0  0  0  0  0  0  0  0  0
    4.2707  -17.7209   20.9264 C   0  0  0  0  0  0  0  0  0  0  0  0
    5.6002  -17.1071   20.8532 C   0  0  0  0  0  0  0  0  0  0  0  0
    6.6205  -17.8441   20.8391 O   0  0  0  0  0  0  0  0  0  0  0  0
    8.4602  -13.1911   20.0640 C   0  0  0  0  0  0  0  0  0  0  0  0
    7.1003  -13.8486   20.0538 C   0  0  1  0  0  0  0  0  0  0  0  0
    6.6827  -14.0780   18.7674 O   0  0  0  0  0  0  0  0  0  0  0  0
    7.1053  -15.1375   20.8506 C   0  0  2  0  0  0  0  0  0  0  0  0
    5.7556  -15.7138   20.7987 N   0  0  0  0  0  0  0  0  0  0  0  0
    7.5075  -14.9110   22.2630 C   0  0  0  0  0  0  0  0  0  0  0  0
    6.7576  -14.2701   23.0694 O   0  0  0  0  0  0  0  0  0  0  0  0
    8.7310  -15.3972   22.7603 N   0  0  0  0  0  0  0  0  0  0  0  0
    9.1308  -15.2355   24.1464 C   0  0  1  0  0  0  0  0  0  0  0  0
    8.2454  -15.9805   25.0949 C   0  0  0  0  0  0  0  0  0  0  0  0
    6.9868  -14.8222   25.7057 S   0  0  0  0  0  0  0  0  0  0  0  0
   10.5293  -15.6689   24.3728 C   0  0  0  0  0  0  0  0  0  0  0  0
   11.1178  -16.2187   23.4063 O   0  0  0  0  0  0  0  0  0  0  0  0
   11.2155  -15.5117   25.5526 O   0  0  0  0  0  0  0  0  0  0  0  0
  2  1  1  0
  3  2  1  0
  4  3  2  0
  6  5  1  6
  6  7  1  0
  6  8  1  0
  8  9  1  1
  9  3  1  0
 10  8  1  0
 10 12  1  0
 11 10  2  0
 13 14  1  1
 13 12  1  0
 13 16  1  0
 14 15  1  0
 16 18  1  0
 17 16  2  0
M  END
$$$$
