IEC.pdb
     RDKit          3D

 24 23  0  0  1  0  0  0  0  0999 V2000
   28.6437  -14.1439  -17.3090 C   0  0  0  0  0  0  0  0  0  0  0  0
   27.2267  -13.7601  -17.0357 C   0  0  0  0  0  0  0  0  0  0  0  0
   27.0626  -12.2680  -16.8154 C   0  0  2  0  0  0  0  0  0  0  0  0
   27.7527  -11.8235  -15.5342 C   0  0  0  0  0  0  0  0  0  0  0  0
   25.5896  -11.9591  -16.6345 C   0  0  2  0  0  0  0  0  0  0  0  0
   24.8992  -12.5323  -17.7750 N   0  0  0  0  0  0  0  0  0  0  0  0
   25.3029  -10.5296  -16.5799 C   0  0  0  0  0  0  0  0  0  0  0  0
   25.6377   -9.8195  -15.5710 O   0  0  0  0  0  0  0  0  0  0  0  0
   24.6494   -9.7853  -17.5891 N   0  0  0  0  0  0  0  0  0  0  0  0
   24.3530   -8.4055  -17.5702 C   0  0  1  0  0  0  0  0  0  0  0  0
   24.2688   -7.7051  -18.8794 C   0  0  0  0  0  0  0  0  0  0  0  0
   24.0260   -6.2000  -18.7081 C   0  0  0  0  0  0  0  0  0  0  0  0
   23.9359   -5.5368  -20.0193 C   0  0  0  0  0  0  0  0  0  0  0  0
   23.7428   -4.3104  -20.0763 O   0  0  0  0  0  0  0  0  0  0  0  0
   23.0525   -8.2311  -16.8762 C   0  0  0  0  0  0  0  0  0  0  0  0
   22.0318   -8.8016  -17.3275 O   0  0  0  0  0  0  0  0  0  0  0  0
   24.0638   -6.2653  -21.1739 O   0  0  0  0  0  0  0  0  0  0  0  0
   22.9254   -7.4279  -15.7015 N   0  0  0  0  0  0  0  0  0  0  0  0
   21.6262   -7.2862  -15.0749 C   0  0  1  0  0  0  0  0  0  0  0  0
   21.6682   -8.0157  -13.7511 C   0  0  0  0  0  0  0  0  0  0  0  0
   21.9426   -9.7866  -13.9892 S   0  0  0  0  0  0  0  0  0  0  0  0
   21.2560   -5.8577  -14.9062 C   0  0  0  0  0  0  0  0  0  0  0  0
   20.0640   -5.4459  -14.3574 O   0  0  0  0  0  0  0  0  0  0  0  0
   22.0786   -4.9947  -15.2865 O   0  0  0  0  0  0  0  0  0  0  0  0
  2  1  1  0
  3  2  1  0
  3  4  1  1
  5  7  1  0
  5  3  1  0
  5  6  1  6
  7  8  2  0
  9 10  1  0
  9  7  1  0
 11 12  1  0
 10 11  1  6
 12 13  1  0
 13 14  2  0
 13 17  1  0
 15 10  1  0
 16 15  2  0
 18 15  1  0
 19 18  1  0
 19 20  1  1
 20 21  1  0
 22 19  1  0
 23 22  1  0
 24 22  2  0
M  END
$$$$
