IEC.pdb
     RDKit          3D

 24 23  0  0  1  0  0  0  0  0999 V2000
   17.3162  -14.8822  -15.7327 C   0  0  0  0  0  0  0  0  0  0  0  0
   16.3733  -13.7420  -15.5303 C   0  0  0  0  0  0  0  0  0  0  0  0
   16.9791  -12.4106  -15.9332 C   0  0  2  0  0  0  0  0  0  0  0  0
   18.1802  -12.0688  -15.0635 C   0  0  0  0  0  0  0  0  0  0  0  0
   15.9572  -11.3163  -15.6963 C   0  0  2  0  0  0  0  0  0  0  0  0
   14.8390  -11.5904  -16.5797 N   0  0  0  0  0  0  0  0  0  0  0  0
   16.4673   -9.9797  -15.9826 C   0  0  0  0  0  0  0  0  0  0  0  0
   16.8544   -9.6497  -17.1555 O   0  0  0  0  0  0  0  0  0  0  0  0
   16.5915   -8.9307  -15.0425 N   0  0  0  0  0  0  0  0  0  0  0  0
   17.1676   -7.6604  -15.2578 C   0  0  1  0  0  0  0  0  0  0  0  0
   16.3524   -6.4691  -14.9001 C   0  0  0  0  0  0  0  0  0  0  0  0
   17.0479   -5.1604  -15.2964 C   0  0  0  0  0  0  0  0  0  0  0  0
   16.1981   -4.0028  -14.9724 C   0  0  0  0  0  0  0  0  0  0  0  0
   15.1112   -3.8548  -15.5568 O   0  0  0  0  0  0  0  0  0  0  0  0
   18.4304   -7.5980  -14.4801 C   0  0  0  0  0  0  0  0  0  0  0  0
   18.4284   -7.9370  -13.2735 O   0  0  0  0  0  0  0  0  0  0  0  0
   16.6004   -3.0905  -14.0311 O   0  0  0  0  0  0  0  0  0  0  0  0
   19.6576   -7.1609  -15.0668 N   0  0  0  0  0  0  0  0  0  0  0  0
   20.8565   -7.1137  -14.2539 C   0  0  1  0  0  0  0  0  0  0  0  0
   21.7757   -8.2205  -14.7190 C   0  0  0  0  0  0  0  0  0  0  0  0
   23.3421   -8.1916  -13.8171 S   0  0  0  0  0  0  0  0  0  0  0  0
   21.5129   -5.7834  -14.3286 C   0  0  0  0  0  0  0  0  0  0  0  0
   22.2128   -5.2265  -13.2838 O   0  0  0  0  0  0  0  0  0  0  0  0
   21.4172   -5.1468  -15.4018 O   0  0  0  0  0  0  0  0  0  0  0  0
  2  1  1  0
  3  2  1  0
  3  4  1  1
  5  7  1  0
  5  3  1  0
  5  6  1  6
  7  8  2  0
  9 10  1  0
  9  7  1  0
 11 12  1  0
 10 11  1  1
 12 13  1  0
 13 14  2  0
 13 17  1  0
 15 10  1  0
 16 15  2  0
 18 15  1  0
 19 18  1  0
 19 20  1  6
 20 21  1  0
 22 19  1  0
 23 22  1  0
 24 22  2  0
M  END
$$$$
