IEC.pdb
     RDKit          3D

 24 23  0  0  1  0  0  0  0  0999 V2000
   20.7719  -13.5332  -20.4727 C   0  0  0  0  0  0  0  0  0  0  0  0
   21.4363  -12.8941  -19.2981 C   0  0  0  0  0  0  0  0  0  0  0  0
   20.7884  -11.5779  -18.9111 C   0  0  2  0  0  0  0  0  0  0  0  0
   20.9108  -10.5558  -20.0318 C   0  0  0  0  0  0  0  0  0  0  0  0
   21.5302  -10.9978  -17.7233 C   0  0  2  0  0  0  0  0  0  0  0  0
   21.4629  -11.9878  -16.6644 N   0  0  0  0  0  0  0  0  0  0  0  0
   20.9536   -9.7486  -17.2377 C   0  0  0  0  0  0  0  0  0  0  0  0
   20.7010   -8.7774  -18.0296 O   0  0  0  0  0  0  0  0  0  0  0  0
   20.6175   -9.4689  -15.8929 N   0  0  0  0  0  0  0  0  0  0  0  0
   19.9524   -8.3242  -15.4037 C   0  0  1  0  0  0  0  0  0  0  0  0
   19.0956   -8.4920  -14.1997 C   0  0  0  0  0  0  0  0  0  0  0  0
   17.6987   -9.0136  -14.5603 C   0  0  0  0  0  0  0  0  0  0  0  0
   16.9352   -9.3350  -13.3433 C   0  0  0  0  0  0  0  0  0  0  0  0
   17.4791   -9.2316  -12.2306 O   0  0  0  0  0  0  0  0  0  0  0  0
   20.9817   -7.3014  -15.0909 C   0  0  0  0  0  0  0  0  0  0  0  0
   22.0714   -7.6584  -14.5851 O   0  0  0  0  0  0  0  0  0  0  0  0
   15.6303   -9.7467  -13.4332 O   0  0  0  0  0  0  0  0  0  0  0  0
   20.7690   -5.9125  -15.3497 N   0  0  0  0  0  0  0  0  0  0  0  0
   21.8363   -4.9687  -15.0840 C   0  0  1  0  0  0  0  0  0  0  0  0
   22.3589   -4.4737  -16.4137 C   0  0  0  0  0  0  0  0  0  0  0  0
   23.5208   -3.1068  -16.1913 S   0  0  0  0  0  0  0  0  0  0  0  0
   21.3727   -3.8510  -14.2227 C   0  0  0  0  0  0  0  0  0  0  0  0
   22.2046   -3.1516  -13.3798 O   0  0  0  0  0  0  0  0  0  0  0  0
   20.1618   -3.5394  -14.2755 O   0  0  0  0  0  0  0  0  0  0  0  0
  2  1  1  0
  3  2  1  0
  3  4  1  6
  5  7  1  0
  5  3  1  0
  5  6  1  1
  7  8  2  0
  9 10  1  0
  9  7  1  0
 11 12  1  0
 10 11  1  1
 12 13  1  0
 13 14  2  0
 13 17  1  0
 15 10  1  0
 16 15  2  0
 18 15  1  0
 19 18  1  0
 19 20  1  6
 20 21  1  0
 22 19  1  0
 23 22  1  0
 24 22  2  0
M  END
$$$$
