IEC.pdb
     RDKit          3D

 24 23  0  0  1  0  0  0  0  0999 V2000
   28.5170  -12.9860  -16.5383 C   0  0  0  0  0  0  0  0  0  0  0  0
   27.1776  -12.5660  -16.0289 C   0  0  0  0  0  0  0  0  0  0  0  0
   26.7917  -11.1739  -16.4928 C   0  0  2  0  0  0  0  0  0  0  0  0
   27.7769  -10.1327  -15.9822 C   0  0  0  0  0  0  0  0  0  0  0  0
   25.4455  -10.8147  -15.8958 C   0  0  2  0  0  0  0  0  0  0  0  0
   24.5456  -11.9106  -16.2044 N   0  0  0  0  0  0  0  0  0  0  0  0
   24.8866   -9.5798  -16.4354 C   0  0  0  0  0  0  0  0  0  0  0  0
   25.5118   -8.4684  -16.3450 O   0  0  0  0  0  0  0  0  0  0  0  0
   23.6415   -9.4631  -17.0954 N   0  0  0  0  0  0  0  0  0  0  0  0
   23.0551   -8.2831  -17.6011 C   0  0  1  0  0  0  0  0  0  0  0  0
   22.1127   -8.4216  -18.7432 C   0  0  0  0  0  0  0  0  0  0  0  0
   22.8461   -8.7249  -20.0561 C   0  0  0  0  0  0  0  0  0  0  0  0
   21.8851   -8.9149  -21.1550 C   0  0  0  0  0  0  0  0  0  0  0  0
   21.9304   -9.9511  -21.8396 O   0  0  0  0  0  0  0  0  0  0  0  0
   22.3267   -7.6258  -16.4871 C   0  0  0  0  0  0  0  0  0  0  0  0
   21.9987   -8.3001  -15.4828 O   0  0  0  0  0  0  0  0  0  0  0  0
   20.9432   -7.9555  -21.4247 O   0  0  0  0  0  0  0  0  0  0  0  0
   21.9848   -6.2391  -16.5228 N   0  0  0  0  0  0  0  0  0  0  0  0
   21.5629   -5.5798  -15.3030 C   0  0  1  0  0  0  0  0  0  0  0  0
   22.6824   -5.7099  -14.2950 C   0  0  0  0  0  0  0  0  0  0  0  0
   22.3427   -4.7341  -12.8115 S   0  0  0  0  0  0  0  0  0  0  0  0
   21.2033   -4.1597  -15.5481 C   0  0  0  0  0  0  0  0  0  0  0  0
   20.1892   -3.5115  -14.8826 O   0  0  0  0  0  0  0  0  0  0  0  0
   21.8639   -3.5319  -16.4060 O   0  0  0  0  0  0  0  0  0  0  0  0
  2  1  1  0
  3  2  1  0
  3  4  1  1
  5  7  1  0
  5  3  1  0
  5  6  1  6
  7  8  2  0
  9 10  1  0
  9  7  1  0
 11 12  1  0
 10 11  1  6
 12 13  1  0
 13 14  2  0
 13 17  1  0
 15 10  1  0
 16 15  2  0
 18 15  1  0
 19 18  1  0
 19 20  1  1
 20 21  1  0
 22 19  1  0
 23 22  1  0
 24 22  2  0
M  END
$$$$
