IEC.pdb
     RDKit          3D

 24 23  0  0  1  0  0  0  0  0999 V2000
   14.9547  -12.7315  -16.6196 C   0  0  0  0  0  0  0  0  0  0  0  0
   16.3487  -12.2018  -16.6972 C   0  0  0  0  0  0  0  0  0  0  0  0
   16.7297  -11.3915  -15.4724 C   0  0  2  0  0  0  0  0  0  0  0  0
   15.8799  -10.1342  -15.3604 C   0  0  0  0  0  0  0  0  0  0  0  0
   18.1638  -10.9237  -15.6218 C   0  0  2  0  0  0  0  0  0  0  0  0
   18.9946  -12.1135  -15.6114 N   0  0  0  0  0  0  0  0  0  0  0  0
   18.5961  -10.0378  -14.5462 C   0  0  0  0  0  0  0  0  0  0  0  0
   18.8961  -10.4899  -13.3886 O   0  0  0  0  0  0  0  0  0  0  0  0
   18.7310   -8.6337  -14.6448 N   0  0  0  0  0  0  0  0  0  0  0  0
   19.1583   -7.7479  -13.6324 C   0  0  1  0  0  0  0  0  0  0  0  0
   20.2388   -6.7854  -13.9757 C   0  0  0  0  0  0  0  0  0  0  0  0
   20.6663   -5.9492  -12.7627 C   0  0  0  0  0  0  0  0  0  0  0  0
   21.8011   -5.0773  -13.1079 C   0  0  0  0  0  0  0  0  0  0  0  0
   22.8838   -5.5830  -13.4495 O   0  0  0  0  0  0  0  0  0  0  0  0
   17.9776   -6.9666  -13.1863 C   0  0  0  0  0  0  0  0  0  0  0  0
   17.2135   -6.4620  -14.0421 O   0  0  0  0  0  0  0  0  0  0  0  0
   21.6680   -3.7136  -13.0539 O   0  0  0  0  0  0  0  0  0  0  0  0
   17.6817   -6.7695  -11.8026 N   0  0  0  0  0  0  0  0  0  0  0  0
   16.5459   -5.9506  -11.4286 C   0  0  1  0  0  0  0  0  0  0  0  0
   16.1289   -6.3474  -10.0305 C   0  0  0  0  0  0  0  0  0  0  0  0
   17.5595   -6.4730   -8.9325 S   0  0  0  0  0  0  0  0  0  0  0  0
   16.8653   -4.5029  -11.5192 C   0  0  0  0  0  0  0  0  0  0  0  0
   18.1202   -4.0230  -11.8134 O   0  0  0  0  0  0  0  0  0  0  0  0
   15.9371   -3.6884  -11.3154 O   0  0  0  0  0  0  0  0  0  0  0  0
  2  1  1  0
  3  2  1  0
  3  4  1  6
  5  7  1  0
  5  3  1  0
  5  6  1  1
  7  8  2  0
  9 10  1  0
  9  7  1  0
 11 12  1  0
 10 11  1  6
 12 13  1  0
 13 14  2  0
 13 17  1  0
 15 10  1  0
 16 15  2  0
 18 15  1  0
 19 18  1  0
 19 20  1  1
 20 21  1  0
 22 19  1  0
 23 22  1  0
 24 22  2  0
M  END
$$$$
