IEC.pdb
     RDKit          3D

 24 23  0  0  1  0  0  0  0  0999 V2000
   25.5947  -13.8534  -14.9776 C   0  0  0  0  0  0  0  0  0  0  0  0
   24.1191  -13.9415  -15.1887 C   0  0  0  0  0  0  0  0  0  0  0  0
   23.5129  -12.6141  -15.6042 C   0  0  2  0  0  0  0  0  0  0  0  0
   23.5276  -11.6198  -14.4523 C   0  0  0  0  0  0  0  0  0  0  0  0
   22.0555  -12.8316  -15.9600 C   0  0  2  0  0  0  0  0  0  0  0  0
   22.0320  -13.7534  -17.0805 N   0  0  0  0  0  0  0  0  0  0  0  0
   21.3669  -11.6043  -16.3449 C   0  0  0  0  0  0  0  0  0  0  0  0
   21.6079  -11.0245  -17.4585 O   0  0  0  0  0  0  0  0  0  0  0  0
   20.3921  -10.9337  -15.5706 N   0  0  0  0  0  0  0  0  0  0  0  0
   19.6846   -9.7642  -15.9223 C   0  0  1  0  0  0  0  0  0  0  0  0
   18.2031   -9.7960  -15.7965 C   0  0  0  0  0  0  0  0  0  0  0  0
   17.5667   -8.4576  -16.1931 C   0  0  0  0  0  0  0  0  0  0  0  0
   17.0930   -8.5013  -17.5862 C   0  0  0  0  0  0  0  0  0  0  0  0
   16.7369   -9.5843  -18.0812 O   0  0  0  0  0  0  0  0  0  0  0  0
   20.1899   -8.6565  -15.0731 C   0  0  0  0  0  0  0  0  0  0  0  0
   20.2913   -8.8260  -13.8354 O   0  0  0  0  0  0  0  0  0  0  0  0
   17.0437   -7.3550  -18.3371 O   0  0  0  0  0  0  0  0  0  0  0  0
   20.5673   -7.3939  -15.6249 N   0  0  0  0  0  0  0  0  0  0  0  0
   21.0104   -6.3355  -14.7394 C   0  0  1  0  0  0  0  0  0  0  0  0
   22.2478   -5.7123  -15.3450 C   0  0  0  0  0  0  0  0  0  0  0  0
   22.8341   -4.3225  -14.3486 S   0  0  0  0  0  0  0  0  0  0  0  0
   19.9403   -5.3305  -14.5141 C   0  0  0  0  0  0  0  0  0  0  0  0
   19.7463   -4.6898  -13.3126 O   0  0  0  0  0  0  0  0  0  0  0  0
   19.1832   -5.0616  -15.4737 O   0  0  0  0  0  0  0  0  0  0  0  0
  2  1  1  0
  3  2  1  0
  3  4  1  1
  5  7  1  0
  5  3  1  0
  5  6  1  6
  7  8  2  0
  9 10  1  0
  9  7  1  0
 11 12  1  0
 10 11  1  1
 12 13  1  0
 13 14  2  0
 13 17  1  0
 15 10  1  0
 16 15  2  0
 18 15  1  0
 19 18  1  0
 19 20  1  6
 20 21  1  0
 22 19  1  0
 23 22  1  0
 24 22  2  0
M  END
$$$$
