IEC.pdb
     RDKit          3D

 24 23  0  0  1  0  0  0  0  0999 V2000
   29.2726  -12.3470  -16.6766 C   0  0  0  0  0  0  0  0  0  0  0  0
   27.7921  -12.3750  -16.8693 C   0  0  0  0  0  0  0  0  0  0  0  0
   27.1280  -11.0783  -16.4458 C   0  0  2  0  0  0  0  0  0  0  0  0
   27.2130  -10.8851  -14.9388 C   0  0  0  0  0  0  0  0  0  0  0  0
   25.6519  -11.1517  -16.7827 C   0  0  2  0  0  0  0  0  0  0  0  0
   25.5600  -11.5673  -18.1701 N   0  0  0  0  0  0  0  0  0  0  0  0
   24.9608   -9.8763  -16.6262 C   0  0  0  0  0  0  0  0  0  0  0  0
   24.8078   -9.3364  -15.4775 O   0  0  0  0  0  0  0  0  0  0  0  0
   24.4000   -9.1133  -17.6763 N   0  0  0  0  0  0  0  0  0  0  0  0
   23.6470   -7.9257  -17.5556 C   0  0  1  0  0  0  0  0  0  0  0  0
   23.4681   -7.1007  -18.7800 C   0  0  0  0  0  0  0  0  0  0  0  0
   22.6493   -5.8337  -18.5011 C   0  0  0  0  0  0  0  0  0  0  0  0
   23.4903   -4.6329  -18.6352 C   0  0  0  0  0  0  0  0  0  0  0  0
   23.7135   -3.9239  -17.6392 O   0  0  0  0  0  0  0  0  0  0  0  0
   22.2994   -8.2930  -17.0532 C   0  0  0  0  0  0  0  0  0  0  0  0
   21.7339   -9.3187  -17.4993 O   0  0  0  0  0  0  0  0  0  0  0  0
   24.0264   -4.2954  -19.8513 O   0  0  0  0  0  0  0  0  0  0  0  0
   21.6207   -7.5093  -16.0702 N   0  0  0  0  0  0  0  0  0  0  0  0
   20.2964   -7.9064  -15.6353 C   0  0  1  0  0  0  0  0  0  0  0  0
   20.4569   -8.9766  -14.5794 C   0  0  0  0  0  0  0  0  0  0  0  0
   18.8916   -9.3020  -13.7354 S   0  0  0  0  0  0  0  0  0  0  0  0
   19.5182   -6.7461  -15.1312 C   0  0  0  0  0  0  0  0  0  0  0  0
   18.1518   -6.6437  -15.2501 O   0  0  0  0  0  0  0  0  0  0  0  0
   20.1490   -5.8213  -14.5718 O   0  0  0  0  0  0  0  0  0  0  0  0
  2  1  1  0
  3  2  1  0
  3  4  1  1
  5  7  1  0
  5  3  1  0
  5  6  1  6
  7  8  2  0
  9 10  1  0
  9  7  1  0
 11 12  1  0
 10 11  1  6
 12 13  1  0
 13 14  2  0
 13 17  1  0
 15 10  1  0
 16 15  2  0
 18 15  1  0
 19 18  1  0
 19 20  1  1
 20 21  1  0
 22 19  1  0
 23 22  1  0
 24 22  2  0
M  END
$$$$
