IEC.pdb
     RDKit          3D

 24 23  0  0  1  0  0  0  0  0999 V2000
   17.2050  -11.5526  -15.9758 C   0  0  0  0  0  0  0  0  0  0  0  0
   18.6380  -11.6806  -16.3756 C   0  0  0  0  0  0  0  0  0  0  0  0
   18.8186  -11.7149  -17.8817 C   0  0  2  0  0  0  0  0  0  0  0  0
   18.1666  -12.9508  -18.4843 C   0  0  0  0  0  0  0  0  0  0  0  0
   20.2980  -11.8188  -18.1950 C   0  0  2  0  0  0  0  0  0  0  0  0
   20.7924  -12.9894  -17.4940 N   0  0  0  0  0  0  0  0  0  0  0  0
   21.0619  -10.6533  -17.7629 C   0  0  0  0  0  0  0  0  0  0  0  0
   22.0196  -10.7567  -16.9223 O   0  0  0  0  0  0  0  0  0  0  0  0
   20.8486   -9.3253  -18.1994 N   0  0  0  0  0  0  0  0  0  0  0  0
   21.6276   -8.1915  -17.8835 C   0  0  1  0  0  0  0  0  0  0  0  0
   21.6568   -7.0830  -18.8744 C   0  0  0  0  0  0  0  0  0  0  0  0
   22.5323   -7.4233  -20.0874 C   0  0  0  0  0  0  0  0  0  0  0  0
   22.0046   -6.7833  -21.3036 C   0  0  0  0  0  0  0  0  0  0  0  0
   21.0016   -6.0531  -21.2288 O   0  0  0  0  0  0  0  0  0  0  0  0
   21.1263   -7.6411  -16.5993 C   0  0  0  0  0  0  0  0  0  0  0  0
   19.8935   -7.6290  -16.3734 O   0  0  0  0  0  0  0  0  0  0  0  0
   22.6139   -6.9895  -22.5146 O   0  0  0  0  0  0  0  0  0  0  0  0
   22.0101   -7.1206  -15.6048 N   0  0  0  0  0  0  0  0  0  0  0  0
   21.4574   -6.5249  -14.4047 C   0  0  1  0  0  0  0  0  0  0  0  0
   21.5419   -7.5506  -13.2970 C   0  0  0  0  0  0  0  0  0  0  0  0
   21.0225   -6.8477  -11.7145 S   0  0  0  0  0  0  0  0  0  0  0  0
   22.1618   -5.2672  -14.0470 C   0  0  0  0  0  0  0  0  0  0  0  0
   21.5329   -4.1845  -13.4779 O   0  0  0  0  0  0  0  0  0  0  0  0
   23.3897   -5.2015  -14.2802 O   0  0  0  0  0  0  0  0  0  0  0  0
  2  1  1  0
  3  2  1  0
  3  4  1  1
  5  7  1  0
  5  3  1  0
  5  6  1  1
  7  8  2  0
  9 10  1  0
  9  7  1  0
 11 12  1  0
 10 11  1  6
 12 13  1  0
 13 14  2  0
 13 17  1  0
 15 10  1  0
 16 15  2  0
 18 15  1  0
 19 18  1  0
 19 20  1  1
 20 21  1  0
 22 19  1  0
 23 22  1  0
 24 22  2  0
M  END
$$$$
