IEC.pdb
     RDKit          3D

 24 23  0  0  1  0  0  0  0  0999 V2000
   28.8632  -22.4862  -17.8266 C   0  0  0  0  0  0  0  0  0  0  0  0
   29.3817  -21.2399  -17.1880 C   0  0  0  0  0  0  0  0  0  0  0  0
   28.4245  -20.6769  -16.1543 C   0  0  2  0  0  0  0  0  0  0  0  0
   27.7794  -21.7894  -15.3407 C   0  0  0  0  0  0  0  0  0  0  0  0
   27.2948  -19.9637  -16.8705 C   0  0  2  0  0  0  0  0  0  0  0  0
   27.8945  -18.8689  -17.6107 N   0  0  0  0  0  0  0  0  0  0  0  0
   26.2876  -19.4234  -15.9637 C   0  0  0  0  0  0  0  0  0  0  0  0
   26.5716  -18.5049  -15.1211 O   0  0  0  0  0  0  0  0  0  0  0  0
   24.9343  -19.8293  -15.9060 N   0  0  0  0  0  0  0  0  0  0  0  0
   23.9304  -19.3214  -15.0536 C   0  0  1  0  0  0  0  0  0  0  0  0
   22.6506  -18.8961  -15.6802 C   0  0  0  0  0  0  0  0  0  0  0  0
   21.6656  -18.3366  -14.6457 C   0  0  0  0  0  0  0  0  0  0  0  0
   20.3985  -17.9539  -15.2900 C   0  0  0  0  0  0  0  0  0  0  0  0
   20.3433  -16.9147  -15.9695 O   0  0  0  0  0  0  0  0  0  0  0  0
   23.6191  -20.3672  -14.0472 C   0  0  0  0  0  0  0  0  0  0  0  0
   23.2849  -21.5124  -14.4318 O   0  0  0  0  0  0  0  0  0  0  0  0
   19.2829  -18.7376  -15.1435 O   0  0  0  0  0  0  0  0  0  0  0  0
   23.6885  -20.1090  -12.6438 N   0  0  0  0  0  0  0  0  0  0  0  0
   23.3005  -21.1475  -11.7103 C   0  0  1  0  0  0  0  0  0  0  0  0
   24.0256  -20.8943  -10.4078 C   0  0  0  0  0  0  0  0  0  0  0  0
   25.8177  -20.9024  -10.6452 S   0  0  0  0  0  0  0  0  0  0  0  0
   21.8276  -21.1886  -11.5229 C   0  0  0  0  0  0  0  0  0  0  0  0
   21.1668  -22.2570  -10.9632 O   0  0  0  0  0  0  0  0  0  0  0  0
   21.1656  -20.1947  -11.8973 O   0  0  0  0  0  0  0  0  0  0  0  0
  2  1  1  0
  3  2  1  0
  3  4  1  6
  5  7  1  0
  5  3  1  0
  5  6  1  1
  7  8  2  0
  9 10  1  0
  9  7  1  0
 11 12  1  0
 10 11  1  6
 12 13  1  0
 13 14  2  0
 13 17  1  0
 15 10  1  0
 16 15  2  0
 18 15  1  0
 19 18  1  0
 19 20  1  1
 20 21  1  0
 22 19  1  0
 23 22  1  0
 24 22  2  0
M  END
$$$$
