WEG.pdb
     RDKit          3D

 28 29  0  0  1  0  0  0  0  0999 V2000
   22.0039  -12.2036  -17.3125 N   0  0  0  0  0  0  0  0  0  0  0  0
   22.8412  -11.0379  -17.3927 C   0  0  1  0  0  0  0  0  0  0  0  0
   24.0413  -11.2452  -18.2743 C   0  0  0  0  0  0  0  0  0  0  0  0
   24.9407  -12.3242  -17.8089 C   0  0  0  0  0  0  0  0  0  0  0  0
   24.8851  -13.6749  -18.1071 C   0  0  0  0  0  0  0  0  0  0  0  0
   25.8816  -14.3058  -17.4489 N   0  0  0  0  0  0  0  0  0  0  0  0
   26.5856  -13.4086  -16.7310 C   0  0  0  0  0  0  0  0  0  0  0  0
   27.6762  -13.5556  -15.9156 C   0  0  0  0  0  0  0  0  0  0  0  0
   28.2222  -12.4726  -15.2949 C   0  0  0  0  0  0  0  0  0  0  0  0
   27.6776  -11.2286  -15.4875 C   0  0  0  0  0  0  0  0  0  0  0  0
   26.5894  -11.0865  -16.3016 C   0  0  0  0  0  0  0  0  0  0  0  0
   26.0035  -12.1593  -16.9500 C   0  0  0  0  0  0  0  0  0  0  0  0
   22.0688   -9.8171  -17.7979 C   0  0  0  0  0  0  0  0  0  0  0  0
   21.5648   -9.7344  -18.9667 O   0  0  0  0  0  0  0  0  0  0  0  0
   21.9203   -8.7738  -16.8481 N   0  0  0  0  0  0  0  0  0  0  0  0
   21.2015   -7.5468  -17.2513 C   0  0  1  0  0  0  0  0  0  0  0  0
   19.7418   -7.7456  -16.9500 C   0  0  0  0  0  0  0  0  0  0  0  0
   19.4103   -8.6654  -15.8447 C   0  0  0  0  0  0  0  0  0  0  0  0
   18.1349   -9.3845  -16.2006 C   0  0  0  0  0  0  0  0  0  0  0  0
   18.0158  -10.0262  -17.2625 O   0  0  0  0  0  0  0  0  0  0  0  0
   21.6736   -6.4014  -16.4406 C   0  0  0  0  0  0  0  0  0  0  0  0
   21.2773   -5.2441  -16.7138 O   0  0  0  0  0  0  0  0  0  0  0  0
   17.0684   -9.3369  -15.3356 O   0  0  0  0  0  0  0  0  0  0  0  0
   22.5739   -6.5145  -15.3350 N   0  0  0  0  0  0  0  0  0  0  0  0
   23.0435   -5.3915  -14.5810 C   0  0  0  0  0  0  0  0  0  0  0  0
   22.0256   -4.3507  -14.3375 C   0  0  0  0  0  0  0  0  0  0  0  0
   21.1955   -4.5239  -13.2236 O   0  0  0  0  0  0  0  0  0  0  0  0
   21.8373   -3.3382  -15.0269 O   0  0  0  0  0  0  0  0  0  0  0  0
  2  1  1  6
  2  3  1  0
  2 13  1  0
  3  4  1  0
  4  5  2  0
  5  6  1  0
  7  8  2  0
  7  6  1  0
  9  8  1  0
 10  9  2  0
 11 10  1  0
 11 12  2  0
 12  4  1  0
 12  7  1  0
 13 15  1  0
 13 14  2  0
 15 16  1  0
 16 17  1  1
 18 17  1  0
 19 20  2  0
 19 18  1  0
 21 16  1  0
 21 22  2  0
 23 19  1  0
 24 21  1  0
 25 24  1  0
 26 25  1  0
 27 26  1  0
 28 26  2  0
M  END
$$$$
