WEG.pdb
     RDKit          3D

 28 29  0  0  1  0  0  0  0  0999 V2000
   28.0449  -21.1092  -10.5268 N   0  0  0  0  0  0  0  0  0  0  0  0
   26.7056  -21.0390  -10.0094 C   0  0  1  0  0  0  0  0  0  0  0  0
   26.6274  -20.3045   -8.6999 C   0  0  0  0  0  0  0  0  0  0  0  0
   27.8610  -20.4043   -7.8885 C   0  0  0  0  0  0  0  0  0  0  0  0
   29.0709  -20.9805   -8.2354 C   0  0  0  0  0  0  0  0  0  0  0  0
   29.9174  -20.8756   -7.1882 N   0  0  0  0  0  0  0  0  0  0  0  0
   29.2973  -20.2486   -6.1693 C   0  0  0  0  0  0  0  0  0  0  0  0
   29.7324  -19.9066   -4.9163 C   0  0  0  0  0  0  0  0  0  0  0  0
   28.9022  -19.2568   -4.0533 C   0  0  0  0  0  0  0  0  0  0  0  0
   27.6245  -18.9430   -4.4406 C   0  0  0  0  0  0  0  0  0  0  0  0
   27.1945  -19.2862   -5.6914 C   0  0  0  0  0  0  0  0  0  0  0  0
   28.0040  -19.9471   -6.5982 C   0  0  0  0  0  0  0  0  0  0  0  0
   25.7438  -20.4733  -11.0124 C   0  0  0  0  0  0  0  0  0  0  0  0
   25.7968  -19.2385  -11.3278 O   0  0  0  0  0  0  0  0  0  0  0  0
   24.7879  -21.3483  -11.5898 N   0  0  0  0  0  0  0  0  0  0  0  0
   23.8562  -20.8094  -12.6027 C   0  0  1  0  0  0  0  0  0  0  0  0
   23.6840  -21.8510  -13.6735 C   0  0  0  0  0  0  0  0  0  0  0  0
   22.3010  -22.1579  -14.0863 C   0  0  0  0  0  0  0  0  0  0  0  0
   22.3575  -23.1920  -15.1807 C   0  0  0  0  0  0  0  0  0  0  0  0
   23.4353  -23.6900  -15.5603 O   0  0  0  0  0  0  0  0  0  0  0  0
   22.5296  -20.5763  -11.9881 C   0  0  0  0  0  0  0  0  0  0  0  0
   22.2474  -21.1251  -10.8970 O   0  0  0  0  0  0  0  0  0  0  0  0
   21.1928  -23.6033  -15.7826 O   0  0  0  0  0  0  0  0  0  0  0  0
   21.5125  -19.7479  -12.5582 N   0  0  0  0  0  0  0  0  0  0  0  0
   20.2343  -19.5347  -11.9492 C   0  0  0  0  0  0  0  0  0  0  0  0
   19.3658  -18.5833  -12.6696 C   0  0  0  0  0  0  0  0  0  0  0  0
   18.0890  -18.3636  -12.1393 O   0  0  0  0  0  0  0  0  0  0  0  0
   19.6613  -17.9610  -13.6999 O   0  0  0  0  0  0  0  0  0  0  0  0
  2  1  1  6
  2  3  1  0
  2 13  1  0
  3  4  1  0
  4  5  2  0
  5  6  1  0
  7  8  2  0
  7  6  1  0
  9  8  1  0
 10  9  2  0
 11 10  1  0
 11 12  2  0
 12  4  1  0
 12  7  1  0
 13 15  1  0
 13 14  2  0
 15 16  1  0
 16 17  1  6
 18 17  1  0
 19 20  2  0
 19 18  1  0
 21 16  1  0
 21 22  2  0
 23 19  1  0
 24 21  1  0
 25 24  1  0
 26 25  1  0
 27 26  1  0
 28 26  2  0
M  END
$$$$
