WEG.pdb
     RDKit          3D

 28 29  0  0  1  0  0  0  0  0999 V2000
   26.3124  -22.8144  -12.8701 N   0  0  0  0  0  0  0  0  0  0  0  0
   25.6899  -21.6066  -12.4006 C   0  0  1  0  0  0  0  0  0  0  0  0
   26.6735  -20.4876  -12.1991 C   0  0  0  0  0  0  0  0  0  0  0  0
   27.7289  -20.7959  -11.2087 C   0  0  0  0  0  0  0  0  0  0  0  0
   29.0499  -21.1379  -11.4419 C   0  0  0  0  0  0  0  0  0  0  0  0
   29.6558  -21.3621  -10.2558 N   0  0  0  0  0  0  0  0  0  0  0  0
   28.7713  -21.1766   -9.2563 C   0  0  0  0  0  0  0  0  0  0  0  0
   28.9055  -21.2773   -7.8969 C   0  0  0  0  0  0  0  0  0  0  0  0
   27.8439  -21.0276   -7.0803 C   0  0  0  0  0  0  0  0  0  0  0  0
   26.6346  -20.6732   -7.6216 C   0  0  0  0  0  0  0  0  0  0  0  0
   26.5050  -20.5741   -8.9783 C   0  0  0  0  0  0  0  0  0  0  0  0
   27.5565  -20.8198   -9.8433 C   0  0  0  0  0  0  0  0  0  0  0  0
   24.5507  -21.1822  -13.2799 C   0  0  0  0  0  0  0  0  0  0  0  0
   24.6998  -21.1332  -14.5457 O   0  0  0  0  0  0  0  0  0  0  0  0
   23.3193  -20.8434  -12.6622 N   0  0  0  0  0  0  0  0  0  0  0  0
   22.1589  -20.5297  -13.5223 C   0  0  1  0  0  0  0  0  0  0  0  0
   20.9469  -21.1868  -12.9217 C   0  0  0  0  0  0  0  0  0  0  0  0
   20.9562  -22.6606  -12.8507 C   0  0  0  0  0  0  0  0  0  0  0  0
   20.6400  -23.1975  -14.2226 C   0  0  0  0  0  0  0  0  0  0  0  0
   20.3536  -22.4446  -15.1738 O   0  0  0  0  0  0  0  0  0  0  0  0
   21.9197  -19.0686  -13.5261 C   0  0  0  0  0  0  0  0  0  0  0  0
   21.7941  -18.4588  -12.4382 O   0  0  0  0  0  0  0  0  0  0  0  0
   20.6660  -24.5539  -14.4400 O   0  0  0  0  0  0  0  0  0  0  0  0
   21.8181  -18.2726  -14.7100 N   0  0  0  0  0  0  0  0  0  0  0  0
   20.8632  -18.5193  -15.7480 C   0  0  0  0  0  0  0  0  0  0  0  0
   19.5550  -17.8678  -15.5417 C   0  0  0  0  0  0  0  0  0  0  0  0
   19.1289  -16.9738  -16.5312 O   0  0  0  0  0  0  0  0  0  0  0  0
   18.7988  -18.0382  -14.5747 O   0  0  0  0  0  0  0  0  0  0  0  0
  2  1  1  6
  2  3  1  0
  2 13  1  0
  3  4  1  0
  4  5  2  0
  5  6  1  0
  7  8  2  0
  7  6  1  0
  9  8  1  0
 10  9  2  0
 11 10  1  0
 11 12  2  0
 12  4  1  0
 12  7  1  0
 13 15  1  0
 13 14  2  0
 15 16  1  0
 16 17  1  1
 18 17  1  0
 19 20  2  0
 19 18  1  0
 21 16  1  0
 21 22  2  0
 23 19  1  0
 24 21  1  0
 25 24  1  0
 26 25  1  0
 27 26  1  0
 28 26  2  0
M  END
$$$$
