WEG.pdb
     RDKit          3D

 28 29  0  0  1  0  0  0  0  0999 V2000
   23.4311  -13.1841  -18.2896 N   0  0  0  0  0  0  0  0  0  0  0  0
   23.8709  -13.7136  -17.0276 C   0  0  1  0  0  0  0  0  0  0  0  0
   23.0855  -13.1718  -15.8657 C   0  0  0  0  0  0  0  0  0  0  0  0
   23.2590  -11.7168  -15.6587 C   0  0  0  0  0  0  0  0  0  0  0  0
   22.2910  -10.7273  -15.6743 C   0  0  0  0  0  0  0  0  0  0  0  0
   22.8878   -9.5335  -15.4673 N   0  0  0  0  0  0  0  0  0  0  0  0
   24.2147   -9.7136  -15.3168 C   0  0  0  0  0  0  0  0  0  0  0  0
   25.2295   -8.8236  -15.0837 C   0  0  0  0  0  0  0  0  0  0  0  0
   26.5137   -9.2615  -14.9599 C   0  0  0  0  0  0  0  0  0  0  0  0
   26.7923  -10.6000  -15.0686 C   0  0  0  0  0  0  0  0  0  0  0  0
   25.7770  -11.4844  -15.3015 C   0  0  0  0  0  0  0  0  0  0  0  0
   24.4597  -11.0824  -15.4347 C   0  0  0  0  0  0  0  0  0  0  0  0
   23.8904  -15.2139  -17.0229 C   0  0  0  0  0  0  0  0  0  0  0  0
   23.2516  -15.8674  -17.9127 O   0  0  0  0  0  0  0  0  0  0  0  0
   24.6349  -15.8699  -16.0090 N   0  0  0  0  0  0  0  0  0  0  0  0
   24.8150  -17.3342  -16.0987 C   0  0  1  0  0  0  0  0  0  0  0  0
   26.2206  -17.6545  -15.6707 C   0  0  0  0  0  0  0  0  0  0  0  0
   26.6171  -19.0755  -15.7003 C   0  0  0  0  0  0  0  0  0  0  0  0
   27.1922  -19.3729  -17.0609 C   0  0  0  0  0  0  0  0  0  0  0  0
   27.8233  -18.5162  -17.7100 O   0  0  0  0  0  0  0  0  0  0  0  0
   23.8954  -18.0099  -15.1554 C   0  0  0  0  0  0  0  0  0  0  0  0
   23.6329  -17.4721  -14.0540 O   0  0  0  0  0  0  0  0  0  0  0  0
   27.0206  -20.6211  -17.6089 O   0  0  0  0  0  0  0  0  0  0  0  0
   23.2624  -19.2670  -15.4094 N   0  0  0  0  0  0  0  0  0  0  0  0
   22.4947  -19.9765  -14.4310 C   0  0  0  0  0  0  0  0  0  0  0  0
   21.0383  -19.7533  -14.5182 C   0  0  0  0  0  0  0  0  0  0  0  0
   20.2346  -20.4475  -13.6061 O   0  0  0  0  0  0  0  0  0  0  0  0
   20.4607  -19.0088  -15.3234 O   0  0  0  0  0  0  0  0  0  0  0  0
  2  1  1  6
  2  3  1  0
  2 13  1  0
  3  4  1  0
  4  5  2  0
  5  6  1  0
  7  8  2  0
  7  6  1  0
  9  8  1  0
 10  9  2  0
 11 10  1  0
 11 12  2  0
 12  4  1  0
 12  7  1  0
 13 15  1  0
 13 14  2  0
 15 16  1  0
 16 17  1  1
 18 17  1  0
 19 20  2  0
 19 18  1  0
 21 16  1  0
 21 22  2  0
 23 19  1  0
 24 21  1  0
 25 24  1  0
 26 25  1  0
 27 26  1  0
 28 26  2  0
M  END
$$$$
