WEG.pdb
     RDKit          3D

 28 29  0  0  1  0  0  0  0  0999 V2000
   26.2758  -17.2347  -17.8616 N   0  0  0  0  0  0  0  0  0  0  0  0
   25.5761  -17.0662  -16.6173 C   0  0  1  0  0  0  0  0  0  0  0  0
   24.4835  -16.0368  -16.7010 C   0  0  0  0  0  0  0  0  0  0  0  0
   24.9530  -14.7079  -17.1521 C   0  0  0  0  0  0  0  0  0  0  0  0
   24.5383  -13.9811  -18.2549 C   0  0  0  0  0  0  0  0  0  0  0  0
   25.2470  -12.8326  -18.3089 N   0  0  0  0  0  0  0  0  0  0  0  0
   26.1106  -12.7875  -17.2755 C   0  0  0  0  0  0  0  0  0  0  0  0
   27.0259  -11.8403  -16.9000 C   0  0  0  0  0  0  0  0  0  0  0  0
   27.7915  -12.0259  -15.7884 C   0  0  0  0  0  0  0  0  0  0  0  0
   27.6451  -13.1666  -15.0411 C   0  0  0  0  0  0  0  0  0  0  0  0
   26.7310  -14.1091  -15.4195 C   0  0  0  0  0  0  0  0  0  0  0  0
   25.9344  -13.9610  -16.5411 C   0  0  0  0  0  0  0  0  0  0  0  0
   25.0606  -18.3690  -16.0806 C   0  0  0  0  0  0  0  0  0  0  0  0
   24.7680  -19.3212  -16.8773 O   0  0  0  0  0  0  0  0  0  0  0  0
   24.9135  -18.5024  -14.6759 N   0  0  0  0  0  0  0  0  0  0  0  0
   24.5408  -19.8226  -14.1256 C   0  0  1  0  0  0  0  0  0  0  0  0
   25.5598  -20.1939  -13.0839 C   0  0  0  0  0  0  0  0  0  0  0  0
   26.9511  -20.3632  -13.5453 C   0  0  0  0  0  0  0  0  0  0  0  0
   27.1216  -21.7878  -14.0058 C   0  0  0  0  0  0  0  0  0  0  0  0
   26.5040  -22.7300  -13.4724 O   0  0  0  0  0  0  0  0  0  0  0  0
   23.2257  -19.7304  -13.4520 C   0  0  0  0  0  0  0  0  0  0  0  0
   22.9338  -18.6994  -12.8016 O   0  0  0  0  0  0  0  0  0  0  0  0
   27.9799  -22.0647  -15.0423 O   0  0  0  0  0  0  0  0  0  0  0  0
   22.2301  -20.7567  -13.4860 N   0  0  0  0  0  0  0  0  0  0  0  0
   20.9388  -20.6247  -12.8815 C   0  0  0  0  0  0  0  0  0  0  0  0
   20.1107  -21.8451  -12.9375 C   0  0  0  0  0  0  0  0  0  0  0  0
   18.8807  -21.8080  -12.2700 O   0  0  0  0  0  0  0  0  0  0  0  0
   20.4024  -22.8993  -13.5203 O   0  0  0  0  0  0  0  0  0  0  0  0
  2  1  1  6
  2  3  1  0
  2 13  1  0
  3  4  1  0
  4  5  2  0
  5  6  1  0
  7  8  2  0
  7  6  1  0
  9  8  1  0
 10  9  2  0
 11 10  1  0
 11 12  2  0
 12  4  1  0
 12  7  1  0
 13 15  1  0
 13 14  2  0
 15 16  1  0
 16 17  1  1
 18 17  1  0
 19 20  2  0
 19 18  1  0
 21 16  1  0
 21 22  2  0
 23 19  1  0
 24 21  1  0
 25 24  1  0
 26 25  1  0
 27 26  1  0
 28 26  2  0
M  END
$$$$
