WEG.pdb
     RDKit          3D

 28 29  0  0  1  0  0  0  0  0999 V2000
   26.2132  -23.0628  -12.0130 N   0  0  0  0  0  0  0  0  0  0  0  0
   25.6430  -21.7532  -11.8504 C   0  0  1  0  0  0  0  0  0  0  0  0
   26.6719  -20.6594  -11.9238 C   0  0  0  0  0  0  0  0  0  0  0  0
   27.7354  -20.7750  -10.9013 C   0  0  0  0  0  0  0  0  0  0  0  0
   29.0680  -21.1027  -11.0837 C   0  0  0  0  0  0  0  0  0  0  0  0
   29.6789  -21.1209   -9.8793 N   0  0  0  0  0  0  0  0  0  0  0  0
   28.7864  -20.8149   -8.9172 C   0  0  0  0  0  0  0  0  0  0  0  0
   28.9213  -20.7010   -7.5589 C   0  0  0  0  0  0  0  0  0  0  0  0
   27.8500  -20.3658   -6.7868 C   0  0  0  0  0  0  0  0  0  0  0  0
   26.6301  -20.1410   -7.3720 C   0  0  0  0  0  0  0  0  0  0  0  0
   26.4999  -20.2560   -8.7274 C   0  0  0  0  0  0  0  0  0  0  0  0
   27.5611  -20.5950   -9.5479 C   0  0  0  0  0  0  0  0  0  0  0  0
   24.5143  -21.5080  -12.8080 C   0  0  0  0  0  0  0  0  0  0  0  0
   24.5903  -21.9253  -14.0109 O   0  0  0  0  0  0  0  0  0  0  0  0
   23.3757  -20.8066  -12.3343 N   0  0  0  0  0  0  0  0  0  0  0  0
   22.2045  -20.6742  -13.2261 C   0  0  1  0  0  0  0  0  0  0  0  0
   21.0225  -20.2837  -12.3826 C   0  0  0  0  0  0  0  0  0  0  0  0
   19.7223  -20.1715  -13.0712 C   0  0  0  0  0  0  0  0  0  0  0  0
   18.6765  -19.8247  -12.0433 C   0  0  0  0  0  0  0  0  0  0  0  0
   17.7462  -19.0335  -12.2924 O   0  0  0  0  0  0  0  0  0  0  0  0
   22.4384  -19.5841  -14.2003 C   0  0  0  0  0  0  0  0  0  0  0  0
   23.0283  -18.5410  -13.8327 O   0  0  0  0  0  0  0  0  0  0  0  0
   18.7428  -20.3923  -10.7938 O   0  0  0  0  0  0  0  0  0  0  0  0
   22.0324  -19.6285  -15.5710 N   0  0  0  0  0  0  0  0  0  0  0  0
   22.2628  -18.5617  -16.4978 C   0  0  0  0  0  0  0  0  0  0  0  0
   23.6215  -18.5361  -17.0739 C   0  0  0  0  0  0  0  0  0  0  0  0
   23.8639  -19.3802  -18.1641 O   0  0  0  0  0  0  0  0  0  0  0  0
   24.5673  -17.8373  -16.6827 O   0  0  0  0  0  0  0  0  0  0  0  0
  2  1  1  6
  2  3  1  0
  2 13  1  0
  3  4  1  0
  4  5  2  0
  5  6  1  0
  7  8  2  0
  7  6  1  0
  9  8  1  0
 10  9  2  0
 11 10  1  0
 11 12  2  0
 12  4  1  0
 12  7  1  0
 13 15  1  0
 13 14  2  0
 15 16  1  0
 16 17  1  1
 18 17  1  0
 19 20  2  0
 19 18  1  0
 21 16  1  0
 21 22  2  0
 23 19  1  0
 24 21  1  0
 25 24  1  0
 26 25  1  0
 27 26  1  0
 28 26  2  0
M  END
$$$$
