WEG.pdb
     RDKit          3D

 28 29  0  0  1  0  0  0  0  0999 V2000
   26.6260  -22.5710  -12.4935 N   0  0  0  0  0  0  0  0  0  0  0  0
   25.7661  -21.4996  -12.0702 C   0  0  1  0  0  0  0  0  0  0  0  0
   26.5151  -20.2217  -11.8129 C   0  0  0  0  0  0  0  0  0  0  0  0
   27.6400  -20.3737  -10.8635 C   0  0  0  0  0  0  0  0  0  0  0  0
   28.9449  -20.7488  -11.1335 C   0  0  0  0  0  0  0  0  0  0  0  0
   29.6342  -20.7870   -9.9726 N   0  0  0  0  0  0  0  0  0  0  0  0
   28.8197  -20.4482   -8.9540 C   0  0  0  0  0  0  0  0  0  0  0  0
   29.0494  -20.3372   -7.6083 C   0  0  0  0  0  0  0  0  0  0  0  0
   28.0447  -19.9631   -6.7674 C   0  0  0  0  0  0  0  0  0  0  0  0
   26.7971  -19.6958   -7.2705 C   0  0  0  0  0  0  0  0  0  0  0  0
   26.5723  -19.8080   -8.6137 C   0  0  0  0  0  0  0  0  0  0  0  0
   27.5634  -20.1857   -9.5022 C   0  0  0  0  0  0  0  0  0  0  0  0
   24.6261  -21.2837  -13.0215 C   0  0  0  0  0  0  0  0  0  0  0  0
   24.8028  -21.4197  -14.2773 O   0  0  0  0  0  0  0  0  0  0  0  0
   23.3628  -20.9291  -12.4820 N   0  0  0  0  0  0  0  0  0  0  0  0
   22.2240  -20.7481  -13.4067 C   0  0  1  0  0  0  0  0  0  0  0  0
   21.0025  -21.3374  -12.7572 C   0  0  0  0  0  0  0  0  0  0  0  0
   20.8594  -22.8047  -12.8183 C   0  0  0  0  0  0  0  0  0  0  0  0
   19.5118  -23.1678  -12.2504 C   0  0  0  0  0  0  0  0  0  0  0  0
   18.7341  -22.3048  -11.7985 O   0  0  0  0  0  0  0  0  0  0  0  0
   21.9697  -19.3039  -13.6101 C   0  0  0  0  0  0  0  0  0  0  0  0
   22.0991  -18.5107  -12.6482 O   0  0  0  0  0  0  0  0  0  0  0  0
   19.1212  -24.4848  -12.2262 O   0  0  0  0  0  0  0  0  0  0  0  0
   21.5763  -18.7234  -14.8567 N   0  0  0  0  0  0  0  0  0  0  0  0
   21.4034  -17.3157  -15.0527 C   0  0  0  0  0  0  0  0  0  0  0  0
   22.3208  -16.7199  -16.0436 C   0  0  0  0  0  0  0  0  0  0  0  0
   22.1871  -15.3477  -16.2868 O   0  0  0  0  0  0  0  0  0  0  0  0
   23.1982  -17.3207  -16.6801 O   0  0  0  0  0  0  0  0  0  0  0  0
  2  1  1  6
  2  3  1  0
  2 13  1  0
  3  4  1  0
  4  5  2  0
  5  6  1  0
  7  8  2  0
  7  6  1  0
  9  8  1  0
 10  9  2  0
 11 10  1  0
 11 12  2  0
 12  4  1  0
 12  7  1  0
 13 15  1  0
 13 14  2  0
 15 16  1  0
 16 17  1  1
 18 17  1  0
 19 20  2  0
 19 18  1  0
 21 16  1  0
 21 22  2  0
 23 19  1  0
 24 21  1  0
 25 24  1  0
 26 25  1  0
 27 26  1  0
 28 26  2  0
M  END
$$$$
