WEG.pdb
     RDKit          3D

 28 29  0  0  1  0  0  0  0  0999 V2000
   26.5211  -22.3290   -9.9557 N   0  0  0  0  0  0  0  0  0  0  0  0
   26.4307  -20.8973   -9.8635 C   0  0  1  0  0  0  0  0  0  0  0  0
   27.7648  -20.2209  -10.0152 C   0  0  0  0  0  0  0  0  0  0  0  0
   28.6916  -20.4768   -8.8903 C   0  0  0  0  0  0  0  0  0  0  0  0
   29.8968  -21.1576   -8.9103 C   0  0  0  0  0  0  0  0  0  0  0  0
   30.4029  -21.1802   -7.6583 N   0  0  0  0  0  0  0  0  0  0  0  0
   29.5657  -20.5351   -6.8225 C   0  0  0  0  0  0  0  0  0  0  0  0
   29.6397  -20.2889   -5.4771 C   0  0  0  0  0  0  0  0  0  0  0  0
   28.6503  -19.5937   -4.8494 C   0  0  0  0  0  0  0  0  0  0  0  0
   27.5747  -19.1376   -5.5678 C   0  0  0  0  0  0  0  0  0  0  0  0
   27.5047  -19.3857   -6.9098 C   0  0  0  0  0  0  0  0  0  0  0  0
   28.4864  -20.0881   -7.5860 C   0  0  0  0  0  0  0  0  0  0  0  0
   25.4200  -20.3346  -10.8189 C   0  0  0  0  0  0  0  0  0  0  0  0
   25.3734  -19.0790  -11.0389 O   0  0  0  0  0  0  0  0  0  0  0  0
   24.5318  -21.2357  -11.4605 N   0  0  0  0  0  0  0  0  0  0  0  0
   23.4960  -20.6876  -12.3613 C   0  0  1  0  0  0  0  0  0  0  0  0
   23.6855  -21.3102  -13.7170 C   0  0  0  0  0  0  0  0  0  0  0  0
   22.6974  -20.9575  -14.7545 C   0  0  0  0  0  0  0  0  0  0  0  0
   23.1183  -19.6517  -15.3774 C   0  0  0  0  0  0  0  0  0  0  0  0
   24.2618  -19.4838  -15.8443 O   0  0  0  0  0  0  0  0  0  0  0  0
   22.1531  -21.0765  -11.8744 C   0  0  0  0  0  0  0  0  0  0  0  0
   21.9462  -22.2558  -11.5034 O   0  0  0  0  0  0  0  0  0  0  0  0
   22.2226  -18.6115  -15.4366 O   0  0  0  0  0  0  0  0  0  0  0  0
   21.0379  -20.1849  -11.7904 N   0  0  0  0  0  0  0  0  0  0  0  0
   19.7467  -20.5781  -11.3123 C   0  0  0  0  0  0  0  0  0  0  0  0
   18.9168  -21.2856  -12.3068 C   0  0  0  0  0  0  0  0  0  0  0  0
   17.6114  -21.6156  -11.9238 O   0  0  0  0  0  0  0  0  0  0  0  0
   19.2676  -21.6148  -13.4491 O   0  0  0  0  0  0  0  0  0  0  0  0
  2  1  1  6
  2  3  1  0
  2 13  1  0
  3  4  1  0
  4  5  2  0
  5  6  1  0
  7  8  2  0
  7  6  1  0
  9  8  1  0
 10  9  2  0
 11 10  1  0
 11 12  2  0
 12  4  1  0
 12  7  1  0
 13 15  1  0
 13 14  2  0
 15 16  1  0
 16 17  1  6
 18 17  1  0
 19 20  2  0
 19 18  1  0
 21 16  1  0
 21 22  2  0
 23 19  1  0
 24 21  1  0
 25 24  1  0
 26 25  1  0
 27 26  1  0
 28 26  2  0
M  END
$$$$
