WEG.pdb
     RDKit          3D

 28 29  0  0  1  0  0  0  0  0999 V2000
   27.8508  -19.0692   -9.6547 N   0  0  0  0  0  0  0  0  0  0  0  0
   26.9668  -20.2026   -9.6771 C   0  0  1  0  0  0  0  0  0  0  0  0
   26.2371  -20.3949   -8.3767 C   0  0  0  0  0  0  0  0  0  0  0  0
   26.9980  -19.9323   -7.1949 C   0  0  0  0  0  0  0  0  0  0  0  0
   26.6638  -18.9324   -6.2977 C   0  0  0  0  0  0  0  0  0  0  0  0
   27.6534  -18.8197   -5.3854 N   0  0  0  0  0  0  0  0  0  0  0  0
   28.6222  -19.7153   -5.6592 C   0  0  0  0  0  0  0  0  0  0  0  0
   29.8078  -19.9888   -5.0302 C   0  0  0  0  0  0  0  0  0  0  0  0
   30.6289  -20.9670   -5.5048 C   0  0  0  0  0  0  0  0  0  0  0  0
   30.2668  -21.6821   -6.6177 C   0  0  0  0  0  0  0  0  0  0  0  0
   29.0833  -21.4058   -7.2423 C   0  0  0  0  0  0  0  0  0  0  0  0
   28.2210  -20.4208   -6.7945 C   0  0  0  0  0  0  0  0  0  0  0  0
   26.0154  -20.1513  -10.8361 C   0  0  0  0  0  0  0  0  0  0  0  0
   25.6298  -19.0280  -11.3015 O   0  0  0  0  0  0  0  0  0  0  0  0
   25.5675  -21.3788  -11.3886 N   0  0  0  0  0  0  0  0  0  0  0  0
   24.7719  -21.3459  -12.6339 C   0  0  1  0  0  0  0  0  0  0  0  0
   25.0860  -22.5910  -13.4165 C   0  0  0  0  0  0  0  0  0  0  0  0
   26.3924  -22.6340  -14.1012 C   0  0  0  0  0  0  0  0  0  0  0  0
   26.2701  -21.8662  -15.3919 C   0  0  0  0  0  0  0  0  0  0  0  0
   25.7118  -22.3510  -16.3954 O   0  0  0  0  0  0  0  0  0  0  0  0
   23.3285  -21.3760  -12.3060 C   0  0  0  0  0  0  0  0  0  0  0  0
   22.9274  -22.0639  -11.3380 O   0  0  0  0  0  0  0  0  0  0  0  0
   26.7855  -20.5952  -15.4735 O   0  0  0  0  0  0  0  0  0  0  0  0
   22.3237  -20.6592  -13.0287 N   0  0  0  0  0  0  0  0  0  0  0  0
   20.9452  -20.6271  -12.6431 C   0  0  0  0  0  0  0  0  0  0  0  0
   20.1440  -21.7603  -13.1455 C   0  0  0  0  0  0  0  0  0  0  0  0
   18.7818  -21.7664  -12.8226 O   0  0  0  0  0  0  0  0  0  0  0  0
   20.5645  -22.7067  -13.8264 O   0  0  0  0  0  0  0  0  0  0  0  0
  2  1  1  1
  2  3  1  0
  2 13  1  0
  3  4  1  0
  4  5  2  0
  5  6  1  0
  7  8  2  0
  7  6  1  0
  9  8  1  0
 10  9  2  0
 11 10  1  0
 11 12  2  0
 12  4  1  0
 12  7  1  0
 13 15  1  0
 13 14  2  0
 15 16  1  0
 16 17  1  6
 18 17  1  0
 19 20  2  0
 19 18  1  0
 21 16  1  0
 21 22  2  0
 23 19  1  0
 24 21  1  0
 25 24  1  0
 26 25  1  0
 27 26  1  0
 28 26  2  0
M  END
$$$$
