WEG.pdb
     RDKit          3D

 28 29  0  0  1  0  0  0  0  0999 V2000
   22.0584  -22.6724  -14.7282 N   0  0  0  0  0  0  0  0  0  0  0  0
   21.1855  -21.9343  -13.8566 C   0  0  1  0  0  0  0  0  0  0  0  0
   20.6017  -20.7159  -14.5162 C   0  0  0  0  0  0  0  0  0  0  0  0
   21.6201  -19.7603  -15.0056 C   0  0  0  0  0  0  0  0  0  0  0  0
   22.8749  -19.5015  -14.4813 C   0  0  0  0  0  0  0  0  0  0  0  0
   23.4638  -18.5373  -15.2214 N   0  0  0  0  0  0  0  0  0  0  0  0
   22.6323  -18.1594  -16.2122 C   0  0  0  0  0  0  0  0  0  0  0  0
   22.7749  -17.2334  -17.2114 C   0  0  0  0  0  0  0  0  0  0  0  0
   21.7740  -17.0360  -18.1144 C   0  0  0  0  0  0  0  0  0  0  0  0
   20.6178  -17.7681  -18.0232 C   0  0  0  0  0  0  0  0  0  0  0  0
   20.4796  -18.6906  -17.0247 C   0  0  0  0  0  0  0  0  0  0  0  0
   21.4702  -18.9219  -16.0868 C   0  0  0  0  0  0  0  0  0  0  0  0
   20.1144  -22.8029  -13.2656 C   0  0  0  0  0  0  0  0  0  0  0  0
   19.7033  -23.8336  -13.8947 O   0  0  0  0  0  0  0  0  0  0  0  0
   19.5837  -22.4429  -12.0002 N   0  0  0  0  0  0  0  0  0  0  0  0
   18.5469  -23.3059  -11.3961 C   0  0  1  0  0  0  0  0  0  0  0  0
   18.9829  -23.6425   -9.9968 C   0  0  0  0  0  0  0  0  0  0  0  0
   18.1593  -24.6210   -9.2610 C   0  0  0  0  0  0  0  0  0  0  0  0
   18.8307  -24.8997   -7.9411 C   0  0  0  0  0  0  0  0  0  0  0  0
   18.3509  -25.7003   -7.1150 O   0  0  0  0  0  0  0  0  0  0  0  0
   17.2706  -22.5619  -11.3000 C   0  0  0  0  0  0  0  0  0  0  0  0
   17.2604  -21.4110  -10.8036 O   0  0  0  0  0  0  0  0  0  0  0  0
   20.0053  -24.2576   -7.6316 O   0  0  0  0  0  0  0  0  0  0  0  0
   16.0084  -23.0679  -11.7433 N   0  0  0  0  0  0  0  0  0  0  0  0
   15.5691  -23.0114  -13.1049 C   0  0  0  0  0  0  0  0  0  0  0  0
   15.2850  -21.6498  -13.5987 C   0  0  0  0  0  0  0  0  0  0  0  0
   13.9383  -21.2963  -13.7445 O   0  0  0  0  0  0  0  0  0  0  0  0
   16.1271  -20.7905  -13.8962 O   0  0  0  0  0  0  0  0  0  0  0  0
  2  1  1  6
  2  3  1  0
  2 13  1  0
  3  4  1  0
  4  5  2  0
  5  6  1  0
  7  8  2  0
  7  6  1  0
  9  8  1  0
 10  9  2  0
 11 10  1  0
 11 12  2  0
 12  4  1  0
 12  7  1  0
 13 15  1  0
 13 14  2  0
 15 16  1  0
 16 17  1  1
 18 17  1  0
 19 20  2  0
 19 18  1  0
 21 16  1  0
 21 22  2  0
 23 19  1  0
 24 21  1  0
 25 24  1  0
 26 25  1  0
 27 26  1  0
 28 26  2  0
M  END
$$$$
