IGA.pdb
     RDKit          3D

 18 17  0  0  1  0  0  0  0  0999 V2000
    5.9902  -10.8759   26.2074 C   0  0  0  0  0  0  0  0  0  0  0  0
    7.0225  -11.8205   25.6851 C   0  0  0  0  0  0  0  0  0  0  0  0
    6.5502  -13.2279   25.5464 C   0  0  2  0  0  0  0  0  0  0  0  0
    5.9980  -13.7688   26.8239 C   0  0  0  0  0  0  0  0  0  0  0  0
    7.6632  -14.1104   24.9758 C   0  0  2  0  0  0  0  0  0  0  0  0
    8.1810  -13.4419   23.8238 N   0  0  0  0  0  0  0  0  0  0  0  0
    7.1464  -15.4708   24.6773 C   0  0  0  0  0  0  0  0  0  0  0  0
    6.5569  -15.6796   23.5863 O   0  0  0  0  0  0  0  0  0  0  0  0
    7.3178  -16.5194   25.6147 N   0  0  0  0  0  0  0  0  0  0  0  0
    6.9131  -17.8926   25.3346 C   0  0  0  0  0  0  0  0  0  0  0  0
    8.1439  -18.6919   25.1267 C   0  0  0  0  0  0  0  0  0  0  0  0
    8.1126  -19.9458   25.0366 O   0  0  0  0  0  0  0  0  0  0  0  0
   11.4738  -17.9326   23.7599 C   0  0  0  0  0  0  0  0  0  0  0  0
   10.6232  -18.7638   24.6943 C   0  0  2  0  0  0  0  0  0  0  0  0
    9.4233  -18.0340   25.0220 N   0  0  0  0  0  0  0  0  0  0  0  0
   11.3394  -19.1050   25.9413 C   0  0  0  0  0  0  0  0  0  0  0  0
   10.9234  -18.6328   27.1689 O   0  0  0  0  0  0  0  0  0  0  0  0
   12.3493  -19.8423   25.8740 O   0  0  0  0  0  0  0  0  0  0  0  0
  1  2  1  0
  2  3  1  0
  3  5  1  0
  3  4  1  1
  5  7  1  0
  5  6  1  6
  7  8  2  0
  9 10  1  0
  9  7  1  0
 11 12  2  0
 11 10  1  0
 14 13  1  6
 14 16  1  0
 14 15  1  0
 15 11  1  0
 16 17  1  0
 18 16  2  0
M  END
$$$$
