IGA.pdb
     RDKit          3D

 18 17  0  0  1  0  0  0  0  0999 V2000
    8.0200  -12.3751   19.1679 C   0  0  0  0  0  0  0  0  0  0  0  0
    7.5524  -13.7226   19.6111 C   0  0  0  0  0  0  0  0  0  0  0  0
    7.9189  -14.0666   21.0148 C   0  0  2  0  0  0  0  0  0  0  0  0
    9.3961  -14.0617   21.2323 C   0  0  0  0  0  0  0  0  0  0  0  0
    7.2768  -15.3946   21.4238 C   0  0  2  0  0  0  0  0  0  0  0  0
    5.9755  -15.4317   20.8343 N   0  0  0  0  0  0  0  0  0  0  0  0
    7.2506  -15.5255   22.9033 C   0  0  0  0  0  0  0  0  0  0  0  0
    6.5119  -14.7617   23.5758 O   0  0  0  0  0  0  0  0  0  0  0  0
    8.0509  -16.5021   23.5462 N   0  0  0  0  0  0  0  0  0  0  0  0
    8.0159  -16.7157   24.9888 C   0  0  0  0  0  0  0  0  0  0  0  0
    9.0008  -15.7953   25.6050 C   0  0  0  0  0  0  0  0  0  0  0  0
   10.1028  -15.5395   25.0557 O   0  0  0  0  0  0  0  0  0  0  0  0
    9.0290  -13.1448   28.1431 C   0  0  0  0  0  0  0  0  0  0  0  0
    9.6931  -14.3743   27.5646 C   0  0  2  0  0  0  0  0  0  0  0  0
    8.7079  -15.1648   26.8688 N   0  0  0  0  0  0  0  0  0  0  0  0
   10.3315  -15.2035   28.6084 C   0  0  0  0  0  0  0  0  0  0  0  0
   11.4145  -14.7502   29.3327 O   0  0  0  0  0  0  0  0  0  0  0  0
    9.8720  -16.3459   28.8356 O   0  0  0  0  0  0  0  0  0  0  0  0
  1  2  1  0
  2  3  1  0
  3  5  1  0
  3  4  1  6
  5  7  1  0
  5  6  1  1
  7  8  2  0
  9 10  1  0
  9  7  1  0
 11 12  2  0
 11 10  1  0
 14 13  1  1
 14 16  1  0
 14 15  1  0
 15 11  1  0
 16 17  1  0
 18 16  2  0
M  END
$$$$
