IGA.pdb
     RDKit          3D

 18 17  0  0  1  0  0  0  0  0999 V2000
    7.5329  -12.6419   19.5182 C   0  0  0  0  0  0  0  0  0  0  0  0
    8.2345  -13.7274   20.2666 C   0  0  0  0  0  0  0  0  0  0  0  0
    7.6411  -14.0341   21.5995 C   0  0  2  0  0  0  0  0  0  0  0  0
    7.6288  -12.8445   22.5018 C   0  0  0  0  0  0  0  0  0  0  0  0
    8.3462  -15.2359   22.2337 C   0  0  2  0  0  0  0  0  0  0  0  0
    8.2824  -16.3070   21.2898 N   0  0  0  0  0  0  0  0  0  0  0  0
    7.7253  -15.5726   23.5406 C   0  0  0  0  0  0  0  0  0  0  0  0
    7.9368  -14.8289   24.5323 O   0  0  0  0  0  0  0  0  0  0  0  0
    6.9041  -16.7206   23.6643 N   0  0  0  0  0  0  0  0  0  0  0  0
    6.2166  -17.0603   24.9052 C   0  0  0  0  0  0  0  0  0  0  0  0
    7.1284  -17.9094   25.7080 C   0  0  0  0  0  0  0  0  0  0  0  0
    6.7708  -18.4161   26.8020 O   0  0  0  0  0  0  0  0  0  0  0  0
   10.5435  -19.3880   25.0866 C   0  0  0  0  0  0  0  0  0  0  0  0
    9.3616  -19.0432   25.9651 C   0  0  2  0  0  0  0  0  0  0  0  0
    8.4670  -18.1747   25.2405 N   0  0  0  0  0  0  0  0  0  0  0  0
    9.7766  -18.3767   27.2174 C   0  0  0  0  0  0  0  0  0  0  0  0
   10.3366  -19.0815   28.2627 O   0  0  0  0  0  0  0  0  0  0  0  0
    9.6124  -17.1401   27.3251 O   0  0  0  0  0  0  0  0  0  0  0  0
  1  2  1  0
  2  3  1  0
  3  5  1  0
  3  4  1  1
  5  7  1  0
  5  6  1  6
  7  8  2  0
  9 10  1  0
  9  7  1  0
 11 12  2  0
 11 10  1  0
 14 13  1  6
 14 16  1  0
 14 15  1  0
 15 11  1  0
 16 17  1  0
 18 16  2  0
M  END
$$$$
