IGA.pdb
     RDKit          3D

 18 17  0  0  1  0  0  0  0  0999 V2000
    6.3794  -11.3950   27.4805 C   0  0  0  0  0  0  0  0  0  0  0  0
    6.4422  -12.8172   27.0286 C   0  0  0  0  0  0  0  0  0  0  0  0
    7.2155  -13.0263   25.7712 C   0  0  2  0  0  0  0  0  0  0  0  0
    6.6616  -12.2415   24.6280 C   0  0  0  0  0  0  0  0  0  0  0  0
    7.3216  -14.5197   25.4521 C   0  0  2  0  0  0  0  0  0  0  0  0
    7.7585  -15.1745   26.6448 N   0  0  0  0  0  0  0  0  0  0  0  0
    8.2310  -14.7415   24.2986 C   0  0  0  0  0  0  0  0  0  0  0  0
    9.4345  -14.3878   24.3868 O   0  0  0  0  0  0  0  0  0  0  0  0
    7.7436  -15.3456   23.1132 N   0  0  0  0  0  0  0  0  0  0  0  0
    8.5906  -15.5776   21.9485 C   0  0  0  0  0  0  0  0  0  0  0  0
    9.5105  -16.6930   22.2750 C   0  0  0  0  0  0  0  0  0  0  0  0
    9.3508  -17.8454   21.7974 O   0  0  0  0  0  0  0  0  0  0  0  0
   13.0055  -16.8528   23.1250 C   0  0  0  0  0  0  0  0  0  0  0  0
   11.6460  -17.4739   23.3560 C   0  0  2  0  0  0  0  0  0  0  0  0
   10.6260  -16.4730   23.1626 N   0  0  0  0  0  0  0  0  0  0  0  0
   11.5182  -18.0405   24.7151 C   0  0  0  0  0  0  0  0  0  0  0  0
   12.2923  -19.1030   25.1334 O   0  0  0  0  0  0  0  0  0  0  0  0
   10.6837  -17.5380   25.5018 O   0  0  0  0  0  0  0  0  0  0  0  0
  1  2  1  0
  2  3  1  0
  3  5  1  0
  3  4  1  6
  5  7  1  0
  5  6  1  1
  7  8  2  0
  9 10  1  0
  9  7  1  0
 11 12  2  0
 11 10  1  0
 14 13  1  1
 14 16  1  0
 14 15  1  0
 15 11  1  0
 16 17  1  0
 18 16  2  0
M  END
$$$$
