IGA.pdb
     RDKit          3D

 18 17  0  0  1  0  0  0  0  0999 V2000
    5.8150  -11.6143   27.0917 C   0  0  0  0  0  0  0  0  0  0  0  0
    5.7472  -12.7471   26.1207 C   0  0  0  0  0  0  0  0  0  0  0  0
    7.0740  -13.1946   25.6085 C   0  0  2  0  0  0  0  0  0  0  0  0
    7.8204  -12.0935   24.9303 C   0  0  0  0  0  0  0  0  0  0  0  0
    6.9125  -14.4244   24.7113 C   0  0  2  0  0  0  0  0  0  0  0  0
    6.1583  -15.3876   25.4499 N   0  0  0  0  0  0  0  0  0  0  0  0
    8.2406  -14.9305   24.2791 C   0  0  0  0  0  0  0  0  0  0  0  0
    8.8984  -14.2823   23.4257 O   0  0  0  0  0  0  0  0  0  0  0  0
    8.7572  -16.1316   24.8252 N   0  0  0  0  0  0  0  0  0  0  0  0
   10.0961  -16.6198   24.5138 C   0  0  0  0  0  0  0  0  0  0  0  0
   10.9181  -16.4952   25.7408 C   0  0  0  0  0  0  0  0  0  0  0  0
   12.1130  -16.8854   25.7806 O   0  0  0  0  0  0  0  0  0  0  0  0
   10.7745  -14.4770   28.8217 C   0  0  0  0  0  0  0  0  0  0  0  0
   11.1184  -15.7870   28.1485 C   0  0  2  0  0  0  0  0  0  0  0  0
   10.3523  -15.9134   26.9333 N   0  0  0  0  0  0  0  0  0  0  0  0
   10.8414  -16.9483   29.0197 C   0  0  0  0  0  0  0  0  0  0  0  0
   11.5651  -17.1800   30.1711 O   0  0  0  0  0  0  0  0  0  0  0  0
    9.9246  -17.7382   28.6981 O   0  0  0  0  0  0  0  0  0  0  0  0
  1  2  1  0
  2  3  1  0
  3  5  1  0
  3  4  1  6
  5  7  1  0
  5  6  1  1
  7  8  2  0
  9 10  1  0
  9  7  1  0
 11 12  2  0
 11 10  1  0
 14 13  1  1
 14 16  1  0
 14 15  1  0
 15 11  1  0
 16 17  1  0
 18 16  2  0
M  END
$$$$
