IGA.pdb
     RDKit          3D

 18 17  0  0  1  0  0  0  0  0999 V2000
    7.7009  -11.6121   27.2042 C   0  0  0  0  0  0  0  0  0  0  0  0
    7.4053  -12.9522   26.6147 C   0  0  0  0  0  0  0  0  0  0  0  0
    6.5491  -12.9089   25.3948 C   0  0  2  0  0  0  0  0  0  0  0  0
    5.1834  -12.3765   25.6795 C   0  0  0  0  0  0  0  0  0  0  0  0
    6.5072  -14.2839   24.7233 C   0  0  2  0  0  0  0  0  0  0  0  0
    6.0544  -15.2180   25.7054 N   0  0  0  0  0  0  0  0  0  0  0  0
    7.8383  -14.6284   24.1609 C   0  0  0  0  0  0  0  0  0  0  0  0
    8.3196  -13.9200   23.2401 O   0  0  0  0  0  0  0  0  0  0  0  0
    8.5551  -15.7444   24.6594 N   0  0  0  0  0  0  0  0  0  0  0  0
    9.8840  -16.1003   24.1747 C   0  0  0  0  0  0  0  0  0  0  0  0
   10.8094  -16.0692   25.3321 C   0  0  0  0  0  0  0  0  0  0  0  0
   12.0206  -16.3890   25.2212 O   0  0  0  0  0  0  0  0  0  0  0  0
   10.9971  -14.3367   28.5275 C   0  0  0  0  0  0  0  0  0  0  0  0
   11.1961  -15.6377   27.7822 C   0  0  2  0  0  0  0  0  0  0  0  0
   10.3288  -15.6641   26.6305 N   0  0  0  0  0  0  0  0  0  0  0  0
   10.9110  -16.8132   28.6315 C   0  0  0  0  0  0  0  0  0  0  0  0
   11.6510  -17.0869   29.7631 O   0  0  0  0  0  0  0  0  0  0  0  0
    9.9718  -17.5761   28.3093 O   0  0  0  0  0  0  0  0  0  0  0  0
  1  2  1  0
  2  3  1  0
  3  5  1  0
  3  4  1  1
  5  7  1  0
  5  6  1  1
  7  8  2  0
  9 10  1  0
  9  7  1  0
 11 12  2  0
 11 10  1  0
 14 13  1  1
 14 16  1  0
 14 15  1  0
 15 11  1  0
 16 17  1  0
 18 16  2  0
M  END
$$$$
