IGA.pdb
     RDKit          3D

 18 17  0  0  1  0  0  0  0  0999 V2000
    7.4283  -11.4352   26.9865 C   0  0  0  0  0  0  0  0  0  0  0  0
    7.4149  -12.9185   27.1606 C   0  0  0  0  0  0  0  0  0  0  0  0
    7.4064  -13.6849   25.8817 C   0  0  2  0  0  0  0  0  0  0  0  0
    6.2998  -13.2600   24.9737 C   0  0  0  0  0  0  0  0  0  0  0  0
    7.3818  -15.1897   26.1616 C   0  0  2  0  0  0  0  0  0  0  0  0
    8.4136  -15.4573   27.1133 N   0  0  0  0  0  0  0  0  0  0  0  0
    7.5403  -15.9559   24.8988 C   0  0  0  0  0  0  0  0  0  0  0  0
    8.6947  -16.2641   24.5066 O   0  0  0  0  0  0  0  0  0  0  0  0
    6.4003  -16.3336   24.1469 N   0  0  0  0  0  0  0  0  0  0  0  0
    6.4686  -17.2964   23.0532 C   0  0  0  0  0  0  0  0  0  0  0  0
    7.0939  -16.6175   21.8934 C   0  0  0  0  0  0  0  0  0  0  0  0
    7.4407  -17.2498   20.8632 O   0  0  0  0  0  0  0  0  0  0  0  0
    7.2988  -13.0284   20.8674 C   0  0  0  0  0  0  0  0  0  0  0  0
    7.7446  -14.4692   20.7533 C   0  0  2  0  0  0  0  0  0  0  0  0
    7.3201  -15.1933   21.9259 N   0  0  0  0  0  0  0  0  0  0  0  0
    9.2113  -14.5871   20.6147 C   0  0  0  0  0  0  0  0  0  0  0  0
    9.9835  -15.2026   21.5780 O   0  0  0  0  0  0  0  0  0  0  0  0
    9.7604  -14.1136   19.5938 O   0  0  0  0  0  0  0  0  0  0  0  0
  1  2  1  0
  2  3  1  0
  3  5  1  0
  3  4  1  6
  5  7  1  0
  5  6  1  1
  7  8  2  0
  9 10  1  0
  9  7  1  0
 11 12  2  0
 11 10  1  0
 14 13  1  1
 14 16  1  0
 14 15  1  0
 15 11  1  0
 16 17  1  0
 18 16  2  0
M  END
$$$$
