IGA.pdb
     RDKit          3D

 18 17  0  0  1  0  0  0  0  0999 V2000
    5.5320  -11.6094   26.6841 C   0  0  0  0  0  0  0  0  0  0  0  0
    5.5590  -12.8621   25.8712 C   0  0  0  0  0  0  0  0  0  0  0  0
    6.9073  -13.4880   25.7559 C   0  0  2  0  0  0  0  0  0  0  0  0
    7.9227  -12.5476   25.1956 C   0  0  0  0  0  0  0  0  0  0  0  0
    6.8235  -14.7928   24.9598 C   0  0  2  0  0  0  0  0  0  0  0  0
    5.6606  -15.4885   25.4138 N   0  0  0  0  0  0  0  0  0  0  0  0
    8.0732  -15.5801   25.1190 C   0  0  0  0  0  0  0  0  0  0  0  0
    8.1590  -16.4160   26.0545 O   0  0  0  0  0  0  0  0  0  0  0  0
    9.1548  -15.3882   24.2240 N   0  0  0  0  0  0  0  0  0  0  0  0
   10.3094  -16.2789   24.1904 C   0  0  0  0  0  0  0  0  0  0  0  0
   11.0445  -16.1126   25.4667 C   0  0  0  0  0  0  0  0  0  0  0  0
   12.1866  -16.6085   25.6433 O   0  0  0  0  0  0  0  0  0  0  0  0
   10.6853  -13.9303   28.4711 C   0  0  0  0  0  0  0  0  0  0  0  0
   11.1150  -15.2273   27.8225 C   0  0  2  0  0  0  0  0  0  0  0  0
   10.4524  -15.3653   26.5491 N   0  0  0  0  0  0  0  0  0  0  0  0
   10.7982  -16.4003   28.6640 C   0  0  0  0  0  0  0  0  0  0  0  0
   11.4122  -16.6060   29.8820 O   0  0  0  0  0  0  0  0  0  0  0  0
    9.9493  -17.2246   28.2541 O   0  0  0  0  0  0  0  0  0  0  0  0
  1  2  1  0
  2  3  1  0
  3  5  1  0
  3  4  1  6
  5  7  1  0
  5  6  1  1
  7  8  2  0
  9 10  1  0
  9  7  1  0
 11 12  2  0
 11 10  1  0
 14 13  1  1
 14 16  1  0
 14 15  1  0
 15 11  1  0
 16 17  1  0
 18 16  2  0
M  END
$$$$
