FWV.pdb
     RDKit          3D

 33 35  0  0  1  0  0  0  0  0999 V2000
    6.0937  -19.7429   25.6415 N   0  0  0  0  0  0  0  0  0  0  0  0
    6.3256  -18.3348   25.5132 C   0  0  1  0  0  0  0  0  0  0  0  0
    6.2599  -17.7062   26.9098 C   0  0  0  0  0  0  0  0  0  0  0  0
    6.3033  -16.2381   26.7245 C   0  0  0  0  0  0  0  0  0  0  0  0
    5.6398  -15.6934   25.6611 C   0  0  0  0  0  0  0  0  0  0  0  0
    5.6781  -14.3388   25.4872 C   0  0  0  0  0  0  0  0  0  0  0  0
    6.3585  -13.5153   26.3433 C   0  0  0  0  0  0  0  0  0  0  0  0
    7.0226  -14.0543   27.4065 C   0  0  0  0  0  0  0  0  0  0  0  0
    6.9871  -15.4223   27.5868 C   0  0  0  0  0  0  0  0  0  0  0  0
    7.6933  -18.1432   24.9773 C   0  0  0  0  0  0  0  0  0  0  0  0
    8.6321  -18.7969   25.4861 O   0  0  0  0  0  0  0  0  0  0  0  0
    8.0406  -17.2811   23.9327 N   0  0  0  0  0  0  0  0  0  0  0  0
    9.3292  -17.1498   23.3591 C   0  0  1  0  0  0  0  0  0  0  0  0
    9.4090  -16.6964   21.9476 C   0  0  0  0  0  0  0  0  0  0  0  0
    8.4302  -15.5863   21.6688 C   0  0  0  0  0  0  0  0  0  0  0  0
    7.0712  -15.5581   21.8809 C   0  0  0  0  0  0  0  0  0  0  0  0
    6.5693  -14.3634   21.4897 N   0  0  0  0  0  0  0  0  0  0  0  0
    7.5656  -13.5928   21.0207 C   0  0  0  0  0  0  0  0  0  0  0  0
    7.6110  -12.3132   20.5060 C   0  0  0  0  0  0  0  0  0  0  0  0
    8.7893  -11.7324   20.0822 C   0  0  0  0  0  0  0  0  0  0  0  0
    9.9489  -12.4660   20.1825 C   0  0  0  0  0  0  0  0  0  0  0  0
    9.8900  -13.7512   20.7017 C   0  0  0  0  0  0  0  0  0  0  0  0
    8.7225  -14.3388   21.1264 C   0  0  0  0  0  0  0  0  0  0  0  0
   10.1056  -16.2198   24.2237 C   0  0  0  0  0  0  0  0  0  0  0  0
   10.8858  -15.3487   23.7628 O   0  0  0  0  0  0  0  0  0  0  0  0
    9.8302  -13.2453   25.7796 C   0  0  0  0  0  0  0  0  0  0  0  0
   10.0376  -14.2072   26.9433 C   0  0  2  0  0  0  0  0  0  0  0  0
   10.9043  -13.4474   27.9451 C   0  0  0  0  0  0  0  0  0  0  0  0
   10.7773  -15.4322   26.5216 C   0  0  2  0  0  0  0  0  0  0  0  0
    9.9925  -16.2817   25.6428 N   0  0  0  0  0  0  0  0  0  0  0  0
   11.2297  -16.1673   27.7227 C   0  0  0  0  0  0  0  0  0  0  0  0
   10.7668  -17.4293   28.0031 O   0  0  0  0  0  0  0  0  0  0  0  0
   12.0593  -15.6656   28.5400 O   0  0  0  0  0  0  0  0  0  0  0  0
  2  1  1  1
  2  3  1  0
  3  4  1  0
  4  5  2  0
  4  9  1  0
  5  6  1  0
  6  7  2  0
  8  7  1  0
  9  8  2  0
 10 12  1  0
 10  2  1  0
 11 10  2  0
 13 12  1  0
 13 14  1  6
 15 14  1  0
 15 16  2  0
 17 16  1  0
 18 23  2  0
 18 17  1  0
 19 18  1  0
 20 21  1  0
 20 19  2  0
 21 22  2  0
 22 23  1  0
 23 15  1  0
 24 13  1  0
 25 24  2  0
 27 26  1  6
 27 29  1  0
 27 28  1  0
 29 30  1  1
 30 24  1  0
 31 32  1  0
 31 29  1  0
 33 31  2  0
M  END
$$$$
