FWV.pdb
     RDKit          3D

 33 35  0  0  1  0  0  0  0  0999 V2000
   10.4644  -18.1001   20.1556 N   0  0  0  0  0  0  0  0  0  0  0  0
   10.0256  -16.7581   20.3994 C   0  0  1  0  0  0  0  0  0  0  0  0
    8.9600  -16.4024   19.3564 C   0  0  0  0  0  0  0  0  0  0  0  0
    8.4691  -15.0454   19.6869 C   0  0  0  0  0  0  0  0  0  0  0  0
    9.1997  -13.9670   19.2733 C   0  0  0  0  0  0  0  0  0  0  0  0
    8.7495  -12.7134   19.5769 C   0  0  0  0  0  0  0  0  0  0  0  0
    7.5932  -12.5071   20.2801 C   0  0  0  0  0  0  0  0  0  0  0  0
    6.8601  -13.5805   20.6954 C   0  0  0  0  0  0  0  0  0  0  0  0
    7.3106  -14.8493   20.3912 C   0  0  0  0  0  0  0  0  0  0  0  0
    9.3994  -16.7180   21.7413 C   0  0  0  0  0  0  0  0  0  0  0  0
    8.8041  -17.7392   22.1543 O   0  0  0  0  0  0  0  0  0  0  0  0
    9.4119  -15.6215   22.6086 N   0  0  0  0  0  0  0  0  0  0  0  0
    8.8733  -15.5937   23.9186 C   0  0  1  0  0  0  0  0  0  0  0  0
    7.5537  -16.2397   24.1318 C   0  0  0  0  0  0  0  0  0  0  0  0
    6.5907  -15.3115   24.8239 C   0  0  0  0  0  0  0  0  0  0  0  0
    5.2958  -15.5495   25.2231 C   0  0  0  0  0  0  0  0  0  0  0  0
    4.7844  -14.4421   25.8098 N   0  0  0  0  0  0  0  0  0  0  0  0
    5.7116  -13.4690   25.8109 C   0  0  0  0  0  0  0  0  0  0  0  0
    5.7190  -12.1686   26.2726 C   0  0  0  0  0  0  0  0  0  0  0  0
    6.8247  -11.3514   26.1510 C   0  0  0  0  0  0  0  0  0  0  0  0
    7.9495  -11.8644   25.5472 C   0  0  0  0  0  0  0  0  0  0  0  0
    7.9293  -13.1731   25.0873 C   0  0  0  0  0  0  0  0  0  0  0  0
    6.8341  -13.9952   25.2032 C   0  0  0  0  0  0  0  0  0  0  0  0
    9.8803  -16.2113   24.8241 C   0  0  0  0  0  0  0  0  0  0  0  0
   10.7506  -17.0254   24.4245 O   0  0  0  0  0  0  0  0  0  0  0  0
   11.4204  -14.2188   28.1035 C   0  0  0  0  0  0  0  0  0  0  0  0
   11.0124  -15.6606   28.3815 C   0  0  2  0  0  0  0  0  0  0  0  0
   12.1554  -16.2518   29.2037 C   0  0  0  0  0  0  0  0  0  0  0  0
   10.8861  -16.4508   27.1225 C   0  0  2  0  0  0  0  0  0  0  0  0
    9.8979  -15.8964   26.2137 N   0  0  0  0  0  0  0  0  0  0  0  0
   10.5827  -17.8591   27.4582 C   0  0  0  0  0  0  0  0  0  0  0  0
   11.5784  -18.7424   27.7957 O   0  0  0  0  0  0  0  0  0  0  0  0
    9.3967  -18.3077   27.4480 O   0  0  0  0  0  0  0  0  0  0  0  0
  2  1  1  6
  2  3  1  0
  3  4  1  0
  4  5  2  0
  4  9  1  0
  5  6  1  0
  6  7  2  0
  8  7  1  0
  9  8  2  0
 10 12  1  0
 10  2  1  0
 11 10  2  0
 13 12  1  0
 13 14  1  6
 15 14  1  0
 15 16  2  0
 17 16  1  0
 18 23  2  0
 18 17  1  0
 19 18  1  0
 20 21  1  0
 20 19  2  0
 21 22  2  0
 22 23  1  0
 23 15  1  0
 24 13  1  0
 25 24  2  0
 27 26  1  6
 27 29  1  0
 27 28  1  0
 29 30  1  6
 30 24  1  0
 31 32  1  0
 31 29  1  0
 33 31  2  0
M  END
$$$$
