FWV.pdb
     RDKit          3D

 33 35  0  0  1  0  0  0  0  0999 V2000
    8.5930  -15.5819   19.8848 N   0  0  0  0  0  0  0  0  0  0  0  0
    8.3580  -16.6635   20.7946 C   0  0  1  0  0  0  0  0  0  0  0  0
    8.9155  -17.9479   20.1708 C   0  0  0  0  0  0  0  0  0  0  0  0
    8.0379  -18.2886   19.0282 C   0  0  0  0  0  0  0  0  0  0  0  0
    6.9458  -19.0782   19.2553 C   0  0  0  0  0  0  0  0  0  0  0  0
    6.1341  -19.3946   18.2029 C   0  0  0  0  0  0  0  0  0  0  0  0
    6.3818  -18.9458   16.9336 C   0  0  0  0  0  0  0  0  0  0  0  0
    7.4710  -18.1573   16.7016 C   0  0  0  0  0  0  0  0  0  0  0  0
    8.2944  -17.8345   17.7614 C   0  0  0  0  0  0  0  0  0  0  0  0
    9.1082  -16.3843   22.0411 C   0  0  0  0  0  0  0  0  0  0  0  0
   10.1707  -15.7262   21.9650 O   0  0  0  0  0  0  0  0  0  0  0  0
    8.7314  -16.7963   23.3229 N   0  0  0  0  0  0  0  0  0  0  0  0
    9.4209  -16.5023   24.5250 C   0  0  1  0  0  0  0  0  0  0  0  0
    8.6148  -16.3782   25.7656 C   0  0  0  0  0  0  0  0  0  0  0  0
    7.4795  -15.4042   25.5904 C   0  0  0  0  0  0  0  0  0  0  0  0
    6.1906  -15.6443   25.1734 C   0  0  0  0  0  0  0  0  0  0  0  0
    5.4899  -14.4864   25.1550 N   0  0  0  0  0  0  0  0  0  0  0  0
    6.2845  -13.4775   25.5515 C   0  0  0  0  0  0  0  0  0  0  0  0
    6.0845  -12.1216   25.7121 C   0  0  0  0  0  0  0  0  0  0  0  0
    7.0870  -11.2764   26.1430 C   0  0  0  0  0  0  0  0  0  0  0  0
    8.3215  -11.8183   26.4176 C   0  0  0  0  0  0  0  0  0  0  0  0
    8.5098  -13.1828   26.2521 C   0  0  0  0  0  0  0  0  0  0  0  0
    7.5188  -14.0332   25.8238 C   0  0  0  0  0  0  0  0  0  0  0  0
   10.4569  -17.5549   24.7096 C   0  0  0  0  0  0  0  0  0  0  0  0
   10.2129  -18.7822   24.5910 O   0  0  0  0  0  0  0  0  0  0  0  0
   14.0813  -17.3524   23.1913 C   0  0  0  0  0  0  0  0  0  0  0  0
   14.1619  -17.7296   24.6656 C   0  0  2  0  0  0  0  0  0  0  0  0
   15.1454  -18.8960   24.7303 C   0  0  0  0  0  0  0  0  0  0  0  0
   12.8459  -18.1997   25.1877 C   0  0  2  0  0  0  0  0  0  0  0  0
   11.7988  -17.2044   25.0360 N   0  0  0  0  0  0  0  0  0  0  0  0
   12.9998  -18.6124   26.5997 C   0  0  0  0  0  0  0  0  0  0  0  0
   12.3977  -17.9134   27.6169 O   0  0  0  0  0  0  0  0  0  0  0  0
   13.6909  -19.6233   26.9287 O   0  0  0  0  0  0  0  0  0  0  0  0
  2  1  1  6
  2  3  1  0
  3  4  1  0
  4  5  2  0
  4  9  1  0
  5  6  1  0
  6  7  2  0
  8  7  1  0
  9  8  2  0
 10 12  1  0
 10  2  1  0
 11 10  2  0
 13 12  1  0
 13 14  1  1
 15 14  1  0
 15 16  2  0
 17 16  1  0
 18 23  2  0
 18 17  1  0
 19 18  1  0
 20 21  1  0
 20 19  2  0
 21 22  2  0
 22 23  1  0
 23 15  1  0
 24 13  1  0
 25 24  2  0
 27 26  1  6
 27 29  1  0
 27 28  1  0
 29 30  1  1
 30 24  1  0
 31 32  1  0
 31 29  1  0
 33 31  2  0
M  END
$$$$
