FWV.pdb
     RDKit          3D

 33 35  0  0  1  0  0  0  0  0999 V2000
    7.0933  -14.3310   19.9999 N   0  0  0  0  0  0  0  0  0  0  0  0
    7.6129  -15.6071   20.3930 C   0  0  1  0  0  0  0  0  0  0  0  0
    8.5432  -16.1112   19.2839 C   0  0  0  0  0  0  0  0  0  0  0  0
    7.8064  -17.1636   18.5481 C   0  0  0  0  0  0  0  0  0  0  0  0
    8.4844  -17.9169   17.6313 C   0  0  0  0  0  0  0  0  0  0  0  0
    7.8073  -18.8888   16.9504 C   0  0  0  0  0  0  0  0  0  0  0  0
    6.4757  -19.1286   17.1589 C   0  0  0  0  0  0  0  0  0  0  0  0
    5.7943  -18.3791   18.0732 C   0  0  0  0  0  0  0  0  0  0  0  0
    6.4737  -17.3959   18.7639 C   0  0  0  0  0  0  0  0  0  0  0  0
    8.4133  -15.4156   21.6247 C   0  0  0  0  0  0  0  0  0  0  0  0
    9.2575  -14.4914   21.6518 O   0  0  0  0  0  0  0  0  0  0  0  0
    8.3111  -16.1882   22.7855 N   0  0  0  0  0  0  0  0  0  0  0  0
    9.1142  -16.0541   23.9448 C   0  0  1  0  0  0  0  0  0  0  0  0
    8.4484  -16.2102   25.2626 C   0  0  0  0  0  0  0  0  0  0  0  0
    7.3298  -15.2170   25.4364 C   0  0  0  0  0  0  0  0  0  0  0  0
    5.9799  -15.3908   25.2354 C   0  0  0  0  0  0  0  0  0  0  0  0
    5.3224  -14.2393   25.5069 N   0  0  0  0  0  0  0  0  0  0  0  0
    6.2056  -13.2996   25.8854 C   0  0  0  0  0  0  0  0  0  0  0  0
    6.0788  -11.9792   26.2660 C   0  0  0  0  0  0  0  0  0  0  0  0
    7.1678  -11.2071   26.6169 C   0  0  0  0  0  0  0  0  0  0  0  0
    8.4149  -11.7871   26.5812 C   0  0  0  0  0  0  0  0  0  0  0  0
    8.5291  -13.1153   26.1969 C   0  0  0  0  0  0  0  0  0  0  0  0
    7.4518  -13.8928   25.8456 C   0  0  0  0  0  0  0  0  0  0  0  0
   10.2246  -17.0386   23.8300 C   0  0  0  0  0  0  0  0  0  0  0  0
   10.0485  -18.2276   23.4625 O   0  0  0  0  0  0  0  0  0  0  0  0
   13.6242  -16.4241   22.0368 C   0  0  0  0  0  0  0  0  0  0  0  0
   13.8911  -16.9594   23.4385 C   0  0  2  0  0  0  0  0  0  0  0  0
   14.9535  -18.0420   23.2612 C   0  0  0  0  0  0  0  0  0  0  0  0
   12.6755  -17.5911   24.0288 C   0  0  2  0  0  0  0  0  0  0  0  0
   11.5637  -16.6629   24.1399 N   0  0  0  0  0  0  0  0  0  0  0  0
   13.0201  -18.1822   25.3402 C   0  0  0  0  0  0  0  0  0  0  0  0
   12.5787  -17.6216   26.5134 O   0  0  0  0  0  0  0  0  0  0  0  0
   13.7342  -19.2257   25.4357 O   0  0  0  0  0  0  0  0  0  0  0  0
  2  1  1  6
  2  3  1  0
  3  4  1  0
  4  5  2  0
  4  9  1  0
  5  6  1  0
  6  7  2  0
  8  7  1  0
  9  8  2  0
 10 12  1  0
 10  2  1  0
 11 10  2  0
 13 12  1  0
 13 14  1  1
 15 14  1  0
 15 16  2  0
 17 16  1  0
 18 23  2  0
 18 17  1  0
 19 18  1  0
 20 21  1  0
 20 19  2  0
 21 22  2  0
 22 23  1  0
 23 15  1  0
 24 13  1  0
 25 24  2  0
 27 26  1  6
 27 29  1  0
 27 28  1  0
 29 30  1  1
 30 24  1  0
 31 32  1  0
 31 29  1  0
 33 31  2  0
M  END
$$$$
