FWV.pdb
     RDKit          3D

 33 35  0  0  1  0  0  0  0  0999 V2000
    8.1839  -16.9963   21.1373 N   0  0  0  0  0  0  0  0  0  0  0  0
    9.5860  -16.8008   21.3582 C   0  0  1  0  0  0  0  0  0  0  0  0
   10.0163  -15.5254   20.6248 C   0  0  0  0  0  0  0  0  0  0  0  0
    8.9079  -14.5538   20.7626 C   0  0  0  0  0  0  0  0  0  0  0  0
    7.6251  -14.9990   20.6080 C   0  0  0  0  0  0  0  0  0  0  0  0
    6.6000  -14.1047   20.7345 C   0  0  0  0  0  0  0  0  0  0  0  0
    6.8196  -12.7819   21.0101 C   0  0  0  0  0  0  0  0  0  0  0  0
    8.0986  -12.3324   21.1653 C   0  0  0  0  0  0  0  0  0  0  0  0
    9.1380  -13.2318   21.0386 C   0  0  0  0  0  0  0  0  0  0  0  0
    9.7968  -16.5997   22.8107 C   0  0  0  0  0  0  0  0  0  0  0  0
   10.6718  -15.7841   23.1807 O   0  0  0  0  0  0  0  0  0  0  0  0
    9.0936  -17.2503   23.8291 N   0  0  0  0  0  0  0  0  0  0  0  0
    9.3411  -17.1260   25.2184 C   0  0  1  0  0  0  0  0  0  0  0  0
    8.1691  -16.9372   26.1099 C   0  0  0  0  0  0  0  0  0  0  0  0
    7.3884  -15.7034   25.7406 C   0  0  0  0  0  0  0  0  0  0  0  0
    6.2352  -15.5998   24.9976 C   0  0  0  0  0  0  0  0  0  0  0  0
    5.8639  -14.3016   24.9031 N   0  0  0  0  0  0  0  0  0  0  0  0
    6.7457  -13.5357   25.5682 C   0  0  0  0  0  0  0  0  0  0  0  0
    6.8431  -12.1768   25.7877 C   0  0  0  0  0  0  0  0  0  0  0  0
    7.8708  -11.6226   26.5239 C   0  0  0  0  0  0  0  0  0  0  0  0
    8.8221  -12.4658   27.0501 C   0  0  0  0  0  0  0  0  0  0  0  0
    8.7129  -13.8300   26.8224 C   0  0  0  0  0  0  0  0  0  0  0  0
    7.6941  -14.3920   26.0911 C   0  0  0  0  0  0  0  0  0  0  0  0
   10.0978  -18.3354   25.6428 C   0  0  0  0  0  0  0  0  0  0  0  0
    9.6224  -19.4970   25.5771 O   0  0  0  0  0  0  0  0  0  0  0  0
   14.2396  -18.6079   25.3959 C   0  0  0  0  0  0  0  0  0  0  0  0
   13.6453  -19.0828   26.7165 C   0  0  2  0  0  0  0  0  0  0  0  0
   14.3689  -20.3886   27.0379 C   0  0  0  0  0  0  0  0  0  0  0  0
   12.1879  -19.3756   26.5921 C   0  0  2  0  0  0  0  0  0  0  0  0
   11.4234  -18.2212   26.1529 N   0  0  0  0  0  0  0  0  0  0  0  0
   11.6836  -19.9006   27.8797 C   0  0  0  0  0  0  0  0  0  0  0  0
   11.7102  -21.2443   28.1618 O   0  0  0  0  0  0  0  0  0  0  0  0
   11.2075  -19.1361   28.7724 O   0  0  0  0  0  0  0  0  0  0  0  0
  2  1  1  1
  2  3  1  0
  3  4  1  0
  4  5  2  0
  4  9  1  0
  5  6  1  0
  6  7  2  0
  8  7  1  0
  9  8  2  0
 10 12  1  0
 10  2  1  0
 11 10  2  0
 13 12  1  0
 13 14  1  1
 15 14  1  0
 15 16  2  0
 17 16  1  0
 18 23  2  0
 18 17  1  0
 19 18  1  0
 20 21  1  0
 20 19  2  0
 21 22  2  0
 22 23  1  0
 23 15  1  0
 24 13  1  0
 25 24  2  0
 27 26  1  6
 27 29  1  0
 27 28  1  0
 29 30  1  1
 30 24  1  0
 31 32  1  0
 31 29  1  0
 33 31  2  0
M  END
$$$$
