FWV.pdb
     RDKit          3D

 33 35  0  0  1  0  0  0  0  0999 V2000
    8.5871  -16.1066   21.4098 N   0  0  0  0  0  0  0  0  0  0  0  0
    9.5884  -15.1591   21.8003 C   0  0  1  0  0  0  0  0  0  0  0  0
    8.9627  -13.7599   21.7785 C   0  0  0  0  0  0  0  0  0  0  0  0
    8.3622  -13.5768   20.4377 C   0  0  0  0  0  0  0  0  0  0  0  0
    7.0635  -13.9566   20.2456 C   0  0  0  0  0  0  0  0  0  0  0  0
    6.5065  -13.7892   19.0093 C   0  0  0  0  0  0  0  0  0  0  0  0
    7.2083  -13.2546   17.9626 C   0  0  0  0  0  0  0  0  0  0  0  0
    8.5053  -12.8739   18.1493 C   0  0  0  0  0  0  0  0  0  0  0  0
    9.0728  -13.0409   19.3964 C   0  0  0  0  0  0  0  0  0  0  0  0
    9.9942  -15.4690   23.1909 C   0  0  0  0  0  0  0  0  0  0  0  0
   11.0406  -14.9475   23.6390 O   0  0  0  0  0  0  0  0  0  0  0  0
    9.3017  -16.3083   24.0689 N   0  0  0  0  0  0  0  0  0  0  0  0
    9.3485  -16.2491   25.4835 C   0  0  1  0  0  0  0  0  0  0  0  0
    8.0816  -16.4803   26.2222 C   0  0  0  0  0  0  0  0  0  0  0  0
    7.0456  -15.4427   25.8785 C   0  0  0  0  0  0  0  0  0  0  0  0
    5.8031  -15.6153   25.3136 C   0  0  0  0  0  0  0  0  0  0  0  0
    5.1911  -14.4162   25.1730 N   0  0  0  0  0  0  0  0  0  0  0  0
    5.9996  -13.4459   25.6329 C   0  0  0  0  0  0  0  0  0  0  0  0
    5.8755  -12.0747   25.7255 C   0  0  0  0  0  0  0  0  0  0  0  0
    6.8744  -11.2796   26.2501 C   0  0  0  0  0  0  0  0  0  0  0  0
    8.0264  -11.8889   26.6914 C   0  0  0  0  0  0  0  0  0  0  0  0
    8.1388  -13.2682   26.5928 C   0  0  0  0  0  0  0  0  0  0  0  0
    7.1507  -14.0690   26.0723 C   0  0  0  0  0  0  0  0  0  0  0  0
   10.3719  -17.2316   25.9338 C   0  0  0  0  0  0  0  0  0  0  0  0
   10.7399  -18.2061   25.2303 O   0  0  0  0  0  0  0  0  0  0  0  0
   13.8021  -18.5244   29.3308 C   0  0  0  0  0  0  0  0  0  0  0  0
   12.8317  -17.4871   28.7789 C   0  0  2  0  0  0  0  0  0  0  0  0
   11.9285  -17.1150   29.9527 C   0  0  0  0  0  0  0  0  0  0  0  0
   11.9776  -18.0525   27.6943 C   0  0  2  0  0  0  0  0  0  0  0  0
   10.9899  -17.1033   27.2113 N   0  0  0  0  0  0  0  0  0  0  0  0
   11.3412  -19.2989   28.1734 C   0  0  0  0  0  0  0  0  0  0  0  0
   12.0654  -20.4551   28.3299 O   0  0  0  0  0  0  0  0  0  0  0  0
   10.1066  -19.3520   28.4579 O   0  0  0  0  0  0  0  0  0  0  0  0
  2  1  1  1
  2  3  1  0
  3  4  1  0
  4  5  2  0
  4  9  1  0
  5  6  1  0
  6  7  2  0
  8  7  1  0
  9  8  2  0
 10 12  1  0
 10  2  1  0
 11 10  2  0
 13 12  1  0
 13 14  1  1
 15 14  1  0
 15 16  2  0
 17 16  1  0
 18 23  2  0
 18 17  1  0
 19 18  1  0
 20 21  1  0
 20 19  2  0
 21 22  2  0
 22 23  1  0
 23 15  1  0
 24 13  1  0
 25 24  2  0
 27 26  1  1
 27 29  1  0
 27 28  1  0
 29 30  1  1
 30 24  1  0
 31 32  1  0
 31 29  1  0
 33 31  2  0
M  END
$$$$
