FWV.pdb
     RDKit          3D

 33 35  0  0  1  0  0  0  0  0999 V2000
    6.8459  -14.6808   21.6805 N   0  0  0  0  0  0  0  0  0  0  0  0
    8.1994  -15.1385   21.5738 C   0  0  1  0  0  0  0  0  0  0  0  0
    9.0211  -14.0533   20.8688 C   0  0  0  0  0  0  0  0  0  0  0  0
    8.4500  -13.8926   19.5125 C   0  0  0  0  0  0  0  0  0  0  0  0
    8.5939  -14.9151   18.6172 C   0  0  0  0  0  0  0  0  0  0  0  0
    8.0682  -14.7699   17.3646 C   0  0  0  0  0  0  0  0  0  0  0  0
    7.4046  -13.6353   16.9821 C   0  0  0  0  0  0  0  0  0  0  0  0
    7.2584  -12.6115   17.8723 C   0  0  0  0  0  0  0  0  0  0  0  0
    7.7876  -12.7531   19.1392 C   0  0  0  0  0  0  0  0  0  0  0  0
    8.7329  -15.3136   22.9446 C   0  0  0  0  0  0  0  0  0  0  0  0
    9.2072  -14.3158   23.5338 O   0  0  0  0  0  0  0  0  0  0  0  0
    8.7560  -16.5162   23.6574 N   0  0  0  0  0  0  0  0  0  0  0  0
    9.2454  -16.6901   24.9754 C   0  0  1  0  0  0  0  0  0  0  0  0
    8.2477  -16.7872   26.0705 C   0  0  0  0  0  0  0  0  0  0  0  0
    7.3019  -15.6153   26.0605 C   0  0  0  0  0  0  0  0  0  0  0  0
    6.0181  -15.5442   25.5711 C   0  0  0  0  0  0  0  0  0  0  0  0
    5.5213  -14.2997   25.7621 N   0  0  0  0  0  0  0  0  0  0  0  0
    6.4472  -13.5379   26.3694 C   0  0  0  0  0  0  0  0  0  0  0  0
    6.4655  -12.2230   26.7878 C   0  0  0  0  0  0  0  0  0  0  0  0
    7.5668  -11.6620   27.4021 C   0  0  0  0  0  0  0  0  0  0  0  0
    8.6759  -12.4525   27.5970 C   0  0  0  0  0  0  0  0  0  0  0  0
    8.6449  -13.7728   27.1719 C   0  0  0  0  0  0  0  0  0  0  0  0
    7.5539  -14.3411   26.5594 C   0  0  0  0  0  0  0  0  0  0  0  0
   10.0998  -17.9088   24.9728 C   0  0  0  0  0  0  0  0  0  0  0  0
    9.6634  -19.0488   24.6728 O   0  0  0  0  0  0  0  0  0  0  0  0
   14.0712  -17.8075   23.9725 C   0  0  0  0  0  0  0  0  0  0  0  0
   13.7894  -18.6374   25.2192 C   0  0  2  0  0  0  0  0  0  0  0  0
   14.5886  -19.9256   25.0352 C   0  0  0  0  0  0  0  0  0  0  0  0
   12.3455  -18.9960   25.3287 C   0  0  2  0  0  0  0  0  0  0  0  0
   11.4797  -17.8296   25.3190 N   0  0  0  0  0  0  0  0  0  0  0  0
   12.1363  -19.8150   26.5425 C   0  0  0  0  0  0  0  0  0  0  0  0
   12.4308  -21.1561   26.5576 O   0  0  0  0  0  0  0  0  0  0  0  0
   11.6782  -19.3159   27.6144 O   0  0  0  0  0  0  0  0  0  0  0  0
  2  1  1  1
  2  3  1  0
  3  4  1  0
  4  5  2  0
  4  9  1  0
  5  6  1  0
  6  7  2  0
  8  7  1  0
  9  8  2  0
 10 12  1  0
 10  2  1  0
 11 10  2  0
 13 12  1  0
 13 14  1  1
 15 14  1  0
 15 16  2  0
 17 16  1  0
 18 23  2  0
 18 17  1  0
 19 18  1  0
 20 21  1  0
 20 19  2  0
 21 22  2  0
 22 23  1  0
 23 15  1  0
 24 13  1  0
 25 24  2  0
 27 26  1  6
 27 29  1  0
 27 28  1  0
 29 30  1  1
 30 24  1  0
 31 32  1  0
 31 29  1  0
 33 31  2  0
M  END
$$$$
