FWV.pdb
     RDKit          3D

 33 35  0  0  1  0  0  0  0  0999 V2000
    8.6944  -17.2051   20.9820 N   0  0  0  0  0  0  0  0  0  0  0  0
    8.9698  -15.8637   21.4034 C   0  0  1  0  0  0  0  0  0  0  0  0
    7.6469  -15.0905   21.4457 C   0  0  0  0  0  0  0  0  0  0  0  0
    7.6028  -14.2445   20.2316 C   0  0  0  0  0  0  0  0  0  0  0  0
    8.6650  -14.2780   19.3724 C   0  0  0  0  0  0  0  0  0  0  0  0
    8.6275  -13.4983   18.2511 C   0  0  0  0  0  0  0  0  0  0  0  0
    7.5617  -12.6883   17.9647 C   0  0  0  0  0  0  0  0  0  0  0  0
    6.4987  -12.6512   18.8195 C   0  0  0  0  0  0  0  0  0  0  0  0
    6.5315  -13.4371   19.9538 C   0  0  0  0  0  0  0  0  0  0  0  0
    9.5236  -15.9198   22.7762 C   0  0  0  0  0  0  0  0  0  0  0  0
   10.4312  -15.1158   23.0884 O   0  0  0  0  0  0  0  0  0  0  0  0
    9.1175  -16.8068   23.7779 N   0  0  0  0  0  0  0  0  0  0  0  0
    9.6293  -16.8582   25.0979 C   0  0  1  0  0  0  0  0  0  0  0  0
    8.6495  -16.8964   26.2126 C   0  0  0  0  0  0  0  0  0  0  0  0
    7.5861  -15.8427   26.0485 C   0  0  0  0  0  0  0  0  0  0  0  0
    6.2860  -15.9852   25.6213 C   0  0  0  0  0  0  0  0  0  0  0  0
    5.6680  -14.7810   25.6190 N   0  0  0  0  0  0  0  0  0  0  0  0
    6.5287  -13.8368   26.0363 C   0  0  0  0  0  0  0  0  0  0  0  0
    6.4230  -12.4730   26.2187 C   0  0  0  0  0  0  0  0  0  0  0  0
    7.4795  -11.7071   26.6685 C   0  0  0  0  0  0  0  0  0  0  0  0
    8.6714  -12.3385   26.9399 C   0  0  0  0  0  0  0  0  0  0  0  0
    8.7649  -13.7099   26.7524 C   0  0  0  0  0  0  0  0  0  0  0  0
    7.7196  -14.4817   26.3051 C   0  0  0  0  0  0  0  0  0  0  0  0
   10.5215  -18.0466   25.1804 C   0  0  0  0  0  0  0  0  0  0  0  0
   10.1814  -19.1862   24.7735 O   0  0  0  0  0  0  0  0  0  0  0  0
   14.3125  -18.1533   24.1534 C   0  0  0  0  0  0  0  0  0  0  0  0
   14.1439  -18.7138   25.5605 C   0  0  2  0  0  0  0  0  0  0  0  0
   14.9767  -19.9936   25.5872 C   0  0  0  0  0  0  0  0  0  0  0  0
   12.7246  -19.0750   25.8442 C   0  0  2  0  0  0  0  0  0  0  0  0
   11.8283  -17.9369   25.7377 N   0  0  0  0  0  0  0  0  0  0  0  0
   12.6391  -19.7081   27.1783 C   0  0  0  0  0  0  0  0  0  0  0  0
   13.0001  -21.0190   27.3702 O   0  0  0  0  0  0  0  0  0  0  0  0
   12.2305  -19.0705   28.1953 O   0  0  0  0  0  0  0  0  0  0  0  0
  2  1  1  1
  2  3  1  0
  3  4  1  0
  4  5  2  0
  4  9  1  0
  5  6  1  0
  6  7  2  0
  8  7  1  0
  9  8  2  0
 10 12  1  0
 10  2  1  0
 11 10  2  0
 13 12  1  0
 13 14  1  1
 15 14  1  0
 15 16  2  0
 17 16  1  0
 18 23  2  0
 18 17  1  0
 19 18  1  0
 20 21  1  0
 20 19  2  0
 21 22  2  0
 22 23  1  0
 23 15  1  0
 24 13  1  0
 25 24  2  0
 27 26  1  6
 27 29  1  0
 27 28  1  0
 29 30  1  1
 30 24  1  0
 31 32  1  0
 31 29  1  0
 33 31  2  0
M  END
$$$$
