FWV.pdb
     RDKit          3D

 33 35  0  0  1  0  0  0  0  0999 V2000
    6.0019  -15.4717   21.2177 N   0  0  0  0  0  0  0  0  0  0  0  0
    7.3739  -15.0780   21.0926 C   0  0  1  0  0  0  0  0  0  0  0  0
    7.4165  -13.6440   20.5527 C   0  0  0  0  0  0  0  0  0  0  0  0
    7.6995  -13.7373   19.1026 C   0  0  0  0  0  0  0  0  0  0  0  0
    7.8662  -14.9748   18.5473 C   0  0  0  0  0  0  0  0  0  0  0  0
    8.1277  -15.0643   17.2093 C   0  0  0  0  0  0  0  0  0  0  0  0
    8.2270  -13.9555   16.4127 C   0  0  0  0  0  0  0  0  0  0  0  0
    8.0614  -12.7176   16.9623 C   0  0  0  0  0  0  0  0  0  0  0  0
    7.7970  -12.6216   18.3137 C   0  0  0  0  0  0  0  0  0  0  0  0
    7.9778  -15.0874   22.4453 C   0  0  0  0  0  0  0  0  0  0  0  0
    7.9094  -14.0468   23.1381 O   0  0  0  0  0  0  0  0  0  0  0  0
    8.6314  -16.1747   23.0331 N   0  0  0  0  0  0  0  0  0  0  0  0
    9.3930  -16.1383   24.2270 C   0  0  1  0  0  0  0  0  0  0  0  0
    8.7026  -16.4936   25.4924 C   0  0  0  0  0  0  0  0  0  0  0  0
    7.5652  -15.5504   25.7837 C   0  0  0  0  0  0  0  0  0  0  0  0
    6.2141  -15.7464   25.6140 C   0  0  0  0  0  0  0  0  0  0  0  0
    5.5367  -14.6400   26.0003 N   0  0  0  0  0  0  0  0  0  0  0  0
    6.4080  -13.7089   26.4250 C   0  0  0  0  0  0  0  0  0  0  0  0
    6.2603  -12.4278   26.9163 C   0  0  0  0  0  0  0  0  0  0  0  0
    7.3405  -11.6556   27.2930 C   0  0  0  0  0  0  0  0  0  0  0  0
    8.6003  -12.1945   27.1689 C   0  0  0  0  0  0  0  0  0  0  0  0
    8.7354  -13.4834   26.6736 C   0  0  0  0  0  0  0  0  0  0  0  0
    7.6670  -14.2607   26.2957 C   0  0  0  0  0  0  0  0  0  0  0  0
   10.5645  -17.0354   24.0320 C   0  0  0  0  0  0  0  0  0  0  0  0
   10.4606  -18.2109   23.5991 O   0  0  0  0  0  0  0  0  0  0  0  0
   14.0356  -15.7506   22.5396 C   0  0  0  0  0  0  0  0  0  0  0  0
   14.2652  -16.6166   23.7725 C   0  0  2  0  0  0  0  0  0  0  0  0
   15.3812  -17.5838   23.3838 C   0  0  0  0  0  0  0  0  0  0  0  0
   13.0543  -17.4163   24.1184 C   0  0  2  0  0  0  0  0  0  0  0  0
   11.8822  -16.5863   24.3359 N   0  0  0  0  0  0  0  0  0  0  0  0
   13.3466  -18.2598   25.2978 C   0  0  0  0  0  0  0  0  0  0  0  0
   13.8946  -19.5114   25.1615 O   0  0  0  0  0  0  0  0  0  0  0  0
   13.1041  -17.8648   26.4781 O   0  0  0  0  0  0  0  0  0  0  0  0
  2  1  1  1
  2  3  1  0
  3  4  1  0
  4  5  2  0
  4  9  1  0
  5  6  1  0
  6  7  2  0
  8  7  1  0
  9  8  2  0
 10 12  1  0
 10  2  1  0
 11 10  2  0
 13 12  1  0
 13 14  1  1
 15 14  1  0
 15 16  2  0
 17 16  1  0
 18 23  2  0
 18 17  1  0
 19 18  1  0
 20 21  1  0
 20 19  2  0
 21 22  2  0
 22 23  1  0
 23 15  1  0
 24 13  1  0
 25 24  2  0
 27 26  1  6
 27 29  1  0
 27 28  1  0
 29 30  1  1
 30 24  1  0
 31 32  1  0
 31 29  1  0
 33 31  2  0
M  END
$$$$
