FYI.pdb
     RDKit          3D

 32 33  0  0  1  0  0  0  0  0999 V2000
   25.8753  -17.8656  -18.8090 N   0  0  0  0  0  0  0  0  0  0  0  0
   25.6736  -17.9672  -17.3533 C   0  0  1  0  0  0  0  0  0  0  0  0
   24.3178  -17.4243  -17.0460 C   0  0  0  0  0  0  0  0  0  0  0  0
   24.1432  -15.9930  -17.3243 C   0  0  0  0  0  0  0  0  0  0  0  0
   24.7634  -15.0760  -16.5133 C   0  0  0  0  0  0  0  0  0  0  0  0
   24.6361  -13.7143  -16.7234 C   0  0  0  0  0  0  0  0  0  0  0  0
   23.8630  -13.3088  -17.7780 C   0  0  0  0  0  0  0  0  0  0  0  0
   23.2342  -14.2103  -18.6010 C   0  0  0  0  0  0  0  0  0  0  0  0
   23.3769  -15.5558  -18.3707 C   0  0  0  0  0  0  0  0  0  0  0  0
   25.9013  -19.3643  -16.9866 C   0  0  0  0  0  0  0  0  0  0  0  0
   25.5655  -20.3345  -17.7485 O   0  0  0  0  0  0  0  0  0  0  0  0
   31.0804  -21.1387  -20.0665 O   0  0  0  0  0  0  0  0  0  0  0  0
   30.3594  -21.2057  -18.8586 C   0  0  0  0  0  0  0  0  0  0  0  0
   30.1697  -20.0724  -18.0960 C   0  0  0  0  0  0  0  0  0  0  0  0
   29.4659  -20.1434  -16.9192 C   0  0  0  0  0  0  0  0  0  0  0  0
   28.9219  -21.3173  -16.4419 C   0  0  0  0  0  0  0  0  0  0  0  0
   28.1662  -21.3813  -15.1754 C   0  0  0  0  0  0  0  0  0  0  0  0
   26.6765  -21.1574  -15.3633 C   0  0  2  0  0  0  0  0  0  0  0  0
   26.5176  -19.7696  -15.7509 N   0  0  0  0  0  0  0  0  0  0  0  0
   25.8547  -21.5668  -14.2347 C   0  0  0  0  0  0  0  0  0  0  0  0
   25.7816  -22.7934  -13.8924 O   0  0  0  0  0  0  0  0  0  0  0  0
   29.1197  -22.4373  -17.2131 C   0  0  0  0  0  0  0  0  0  0  0  0
   29.8291  -22.3947  -18.4105 C   0  0  0  0  0  0  0  0  0  0  0  0
   26.6350  -21.7083   -9.7080 C   0  0  0  0  0  0  0  0  0  0  0  0
   26.2913  -20.6314  -10.6955 C   0  0  0  0  0  0  0  0  0  0  0  0
   24.8345  -20.4576  -10.9748 C   0  0  2  0  0  0  0  0  0  0  0  0
   24.0083  -21.1040   -9.8514 C   0  0  0  0  0  0  0  0  0  0  0  0
   24.3522  -21.1230  -12.2497 C   0  0  2  0  0  0  0  0  0  0  0  0
   25.0824  -20.6887  -13.4265 N   0  0  0  0  0  0  0  0  0  0  0  0
   22.9420  -20.7314  -12.4298 C   0  0  0  0  0  0  0  0  0  0  0  0
   21.9320  -21.4633  -11.8454 O   0  0  0  0  0  0  0  0  0  0  0  0
   22.6437  -19.7313  -13.1153 O   0  0  0  0  0  0  0  0  0  0  0  0
  2  1  1  6
  3  2  1  0
  3  4  1  0
  4  9  1  0
  5  4  2  0
  5  6  1  0
  6  7  2  0
  7  8  1  0
  9  8  2  0
 10 11  2  0
 10  2  1  0
 12 13  1  0
 13 14  2  0
 14 15  1  0
 16 15  2  0
 16 17  1  0
 18 17  1  1
 18 19  1  0
 19 10  1  0
 20 29  1  0
 20 18  1  0
 21 20  2  0
 22 16  1  0
 23 13  1  0
 23 22  2  0
 24 25  1  0
 25 26  1  0
 26 27  1  1
 26 28  1  0
 28 29  1  6
 28 30  1  0
 30 31  1  0
 32 30  2  0
M  END
$$$$
