FYI.pdb
     RDKit          3D

 32 33  0  0  1  0  0  0  0  0999 V2000
   21.3194  -12.2143  -15.8535 N   0  0  0  0  0  0  0  0  0  0  0  0
   22.1582  -11.1302  -15.3142 C   0  0  1  0  0  0  0  0  0  0  0  0
   23.1449  -10.7548  -16.3692 C   0  0  0  0  0  0  0  0  0  0  0  0
   24.0811  -11.8194  -16.7523 C   0  0  0  0  0  0  0  0  0  0  0  0
   23.9594  -12.4004  -17.9896 C   0  0  0  0  0  0  0  0  0  0  0  0
   24.8098  -13.4086  -18.4075 C   0  0  0  0  0  0  0  0  0  0  0  0
   25.7865  -13.8109  -17.5365 C   0  0  0  0  0  0  0  0  0  0  0  0
   25.9250  -13.2424  -16.2943 C   0  0  0  0  0  0  0  0  0  0  0  0
   25.0680  -12.2438  -15.9042 C   0  0  0  0  0  0  0  0  0  0  0  0
   21.2542  -10.0674  -14.8768 C   0  0  0  0  0  0  0  0  0  0  0  0
   19.9896  -10.2363  -14.7946 O   0  0  0  0  0  0  0  0  0  0  0  0
   17.0543   -4.6184   -9.7532 O   0  0  0  0  0  0  0  0  0  0  0  0
   17.8525   -5.5333  -10.4667 C   0  0  0  0  0  0  0  0  0  0  0  0
   17.3424   -6.1970  -11.5627 C   0  0  0  0  0  0  0  0  0  0  0  0
   18.1252   -7.0880  -12.2546 C   0  0  0  0  0  0  0  0  0  0  0  0
   19.4303   -7.3656  -11.9064 C   0  0  0  0  0  0  0  0  0  0  0  0
   20.2626   -8.3250  -12.6586 C   0  0  0  0  0  0  0  0  0  0  0  0
   20.8169   -7.7444  -13.9472 C   0  0  2  0  0  0  0  0  0  0  0  0
   21.6999   -8.7512  -14.5023 N   0  0  0  0  0  0  0  0  0  0  0  0
   21.4159   -6.4257  -13.8097 C   0  0  0  0  0  0  0  0  0  0  0  0
   22.5535   -6.2814  -13.2511 O   0  0  0  0  0  0  0  0  0  0  0  0
   19.9236   -6.6963  -10.8124 C   0  0  0  0  0  0  0  0  0  0  0  0
   19.1528   -5.7876  -10.0920 C   0  0  0  0  0  0  0  0  0  0  0  0
   20.7277   -3.1756  -18.1225 C   0  0  0  0  0  0  0  0  0  0  0  0
   20.5389   -3.5499  -16.6812 C   0  0  0  0  0  0  0  0  0  0  0  0
   21.7837   -3.5763  -15.8564 C   0  0  2  0  0  0  0  0  0  0  0  0
   22.7586   -4.6232  -16.4187 C   0  0  0  0  0  0  0  0  0  0  0  0
   21.5731   -3.9738  -14.4079 C   0  0  2  0  0  0  0  0  0  0  0  0
   20.8302   -5.2122  -14.2626 N   0  0  0  0  0  0  0  0  0  0  0  0
   20.7791   -2.9010  -13.7807 C   0  0  0  0  0  0  0  0  0  0  0  0
   21.3311   -1.6582  -13.5615 O   0  0  0  0  0  0  0  0  0  0  0  0
   19.5955   -3.1044  -13.4390 O   0  0  0  0  0  0  0  0  0  0  0  0
  2  1  1  6
  3  2  1  0
  3  4  1  0
  4  9  1  0
  5  4  2  0
  5  6  1  0
  6  7  2  0
  7  8  1  0
  9  8  2  0
 10 11  2  0
 10  2  1  0
 12 13  1  0
 13 14  2  0
 14 15  1  0
 16 15  2  0
 16 17  1  0
 18 17  1  1
 18 19  1  0
 19 10  1  0
 20 29  1  0
 20 18  1  0
 21 20  2  0
 22 16  1  0
 23 13  1  0
 23 22  2  0
 24 25  1  0
 25 26  1  0
 26 27  1  6
 26 28  1  0
 28 29  1  6
 28 30  1  0
 30 31  1  0
 32 30  2  0
M  END
$$$$
