FYI.pdb
     RDKit          3D

 32 33  0  0  1  0  0  0  0  0999 V2000
   19.9120  -19.9084  -14.4667 N   0  0  0  0  0  0  0  0  0  0  0  0
   21.0890  -19.5378  -15.2710 C   0  0  1  0  0  0  0  0  0  0  0  0
   20.7851  -18.2419  -15.9461 C   0  0  0  0  0  0  0  0  0  0  0  0
   19.8040  -18.3233  -17.0356 C   0  0  0  0  0  0  0  0  0  0  0  0
   20.0749  -19.1220  -18.1182 C   0  0  0  0  0  0  0  0  0  0  0  0
   19.1910  -19.2390  -19.1762 C   0  0  0  0  0  0  0  0  0  0  0  0
   18.0255  -18.5241  -19.1060 C   0  0  0  0  0  0  0  0  0  0  0  0
   17.7357  -17.7194  -18.0318 C   0  0  0  0  0  0  0  0  0  0  0  0
   18.6299  -17.6210  -16.9951 C   0  0  0  0  0  0  0  0  0  0  0  0
   22.2396  -19.5344  -14.3687 C   0  0  0  0  0  0  0  0  0  0  0  0
   22.5594  -18.5110  -13.6724 O   0  0  0  0  0  0  0  0  0  0  0  0
   19.7801  -19.6238   -8.7625 O   0  0  0  0  0  0  0  0  0  0  0  0
   20.8057  -20.1096   -9.5964 C   0  0  0  0  0  0  0  0  0  0  0  0
   20.5146  -20.9826  -10.6235 C   0  0  0  0  0  0  0  0  0  0  0  0
   21.5185  -21.4531  -11.4336 C   0  0  0  0  0  0  0  0  0  0  0  0
   22.8399  -21.0922  -11.2745 C   0  0  0  0  0  0  0  0  0  0  0  0
   23.9107  -21.6039  -12.1524 C   0  0  0  0  0  0  0  0  0  0  0  0
   24.2469  -20.6562  -13.2897 C   0  0  2  0  0  0  0  0  0  0  0  0
   23.1054  -20.6690  -14.1832 N   0  0  0  0  0  0  0  0  0  0  0  0
   25.5236  -20.9152  -13.9376 C   0  0  0  0  0  0  0  0  0  0  0  0
   25.7434  -22.0264  -14.5241 O   0  0  0  0  0  0  0  0  0  0  0  0
   23.1134  -20.2218  -10.2469 C   0  0  0  0  0  0  0  0  0  0  0  0
   22.1157  -19.7289   -9.4101 C   0  0  0  0  0  0  0  0  0  0  0  0
   28.3609  -17.0200  -16.6449 C   0  0  0  0  0  0  0  0  0  0  0  0
   27.7959  -18.3481  -16.2327 C   0  0  0  0  0  0  0  0  0  0  0  0
   28.5715  -19.0789  -15.1863 C   0  0  2  0  0  0  0  0  0  0  0  0
   29.8883  -19.6004  -15.7836 C   0  0  0  0  0  0  0  0  0  0  0  0
   27.8787  -20.3080  -14.6298 C   0  0  2  0  0  0  0  0  0  0  0  0
   26.6127  -20.0032  -13.9888 N   0  0  0  0  0  0  0  0  0  0  0  0
   28.7730  -20.8759  -13.6040 C   0  0  0  0  0  0  0  0  0  0  0  0
   29.8071  -21.7122  -13.9620 O   0  0  0  0  0  0  0  0  0  0  0  0
   28.6047  -20.6070  -12.3963 O   0  0  0  0  0  0  0  0  0  0  0  0
  2  1  1  1
  3  2  1  0
  3  4  1  0
  4  9  1  0
  5  4  2  0
  5  6  1  0
  6  7  2  0
  7  8  1  0
  9  8  2  0
 10 11  2  0
 10  2  1  0
 12 13  1  0
 13 14  2  0
 14 15  1  0
 16 15  2  0
 16 17  1  0
 18 17  1  1
 18 19  1  0
 19 10  1  0
 20 29  1  0
 20 18  1  0
 21 20  2  0
 22 16  1  0
 23 13  1  0
 23 22  2  0
 24 25  1  0
 25 26  1  0
 26 27  1  6
 26 28  1  0
 28 29  1  1
 28 30  1  0
 30 31  1  0
 32 30  2  0
M  END
$$$$
