FYI.pdb
     RDKit          3D

 32 33  0  0  1  0  0  0  0  0999 V2000
   23.7874  -19.9221  -18.0539 N   0  0  0  0  0  0  0  0  0  0  0  0
   24.0639  -19.0408  -16.9064 C   0  0  1  0  0  0  0  0  0  0  0  0
   22.7526  -18.6504  -16.3101 C   0  0  0  0  0  0  0  0  0  0  0  0
   21.9967  -17.6482  -17.0720 C   0  0  0  0  0  0  0  0  0  0  0  0
   20.7368  -17.9605  -17.5174 C   0  0  0  0  0  0  0  0  0  0  0  0
   19.9760  -17.0595  -18.2410 C   0  0  0  0  0  0  0  0  0  0  0  0
   20.5279  -15.8337  -18.5003 C   0  0  0  0  0  0  0  0  0  0  0  0
   21.7866  -15.5017  -18.0635 C   0  0  0  0  0  0  0  0  0  0  0  0
   22.5206  -16.4141  -17.3475 C   0  0  0  0  0  0  0  0  0  0  0  0
   24.9784  -19.7631  -16.0232 C   0  0  0  0  0  0  0  0  0  0  0  0
   24.7988  -20.9890  -15.7080 O   0  0  0  0  0  0  0  0  0  0  0  0
   30.0766  -22.4517  -19.5855 O   0  0  0  0  0  0  0  0  0  0  0  0
   29.6726  -21.7296  -18.4458 C   0  0  0  0  0  0  0  0  0  0  0  0
   29.5843  -22.3545  -17.2196 C   0  0  0  0  0  0  0  0  0  0  0  0
   29.1899  -21.6457  -16.1117 C   0  0  0  0  0  0  0  0  0  0  0  0
   28.8675  -20.3056  -16.1560 C   0  0  0  0  0  0  0  0  0  0  0  0
   28.4455  -19.5536  -14.9578 C   0  0  0  0  0  0  0  0  0  0  0  0
   27.0267  -19.8772  -14.5254 C   0  0  2  0  0  0  0  0  0  0  0  0
   26.1501  -19.1679  -15.4365 N   0  0  0  0  0  0  0  0  0  0  0  0
   26.7530  -19.6392  -13.1164 C   0  0  0  0  0  0  0  0  0  0  0  0
   26.6532  -18.4511  -12.6633 O   0  0  0  0  0  0  0  0  0  0  0  0
   28.9605  -19.6977  -17.3848 C   0  0  0  0  0  0  0  0  0  0  0  0
   29.3576  -20.3916  -18.5248 C   0  0  0  0  0  0  0  0  0  0  0  0
   23.1078  -20.2606   -8.5451 C   0  0  0  0  0  0  0  0  0  0  0  0
   24.5565  -20.1827   -8.9300 C   0  0  0  0  0  0  0  0  0  0  0  0
   24.8516  -20.4308  -10.3729 C   0  0  2  0  0  0  0  0  0  0  0  0
   24.4008  -21.8483  -10.7601 C   0  0  0  0  0  0  0  0  0  0  0  0
   26.3233  -20.3740  -10.7353 C   0  0  2  0  0  0  0  0  0  0  0  0
   26.5726  -20.6540  -12.1374 N   0  0  0  0  0  0  0  0  0  0  0  0
   26.9995  -21.4190   -9.9445 C   0  0  0  0  0  0  0  0  0  0  0  0
   27.3910  -21.1720   -8.6472 O   0  0  0  0  0  0  0  0  0  0  0  0
   27.2273  -22.5422  -10.4401 O   0  0  0  0  0  0  0  0  0  0  0  0
  2  1  1  6
  3  2  1  0
  3  4  1  0
  4  9  1  0
  5  4  2  0
  5  6  1  0
  6  7  2  0
  7  8  1  0
  9  8  2  0
 10 11  2  0
 10  2  1  0
 12 13  1  0
 13 14  2  0
 14 15  1  0
 16 15  2  0
 16 17  1  0
 18 17  1  6
 18 19  1  0
 19 10  1  0
 20 29  1  0
 20 18  1  0
 21 20  2  0
 22 16  1  0
 23 13  1  0
 23 22  2  0
 24 25  1  0
 25 26  1  0
 26 27  1  1
 26 28  1  0
 28 29  1  6
 28 30  1  0
 30 31  1  0
 32 30  2  0
M  END
$$$$
