FYI.pdb
     RDKit          3D

 32 33  0  0  1  0  0  0  0  0999 V2000
   27.6739  -16.8023  -19.5415 N   0  0  0  0  0  0  0  0  0  0  0  0
   27.9809  -17.2762  -18.1810 C   0  0  1  0  0  0  0  0  0  0  0  0
   28.9403  -16.3090  -17.5714 C   0  0  0  0  0  0  0  0  0  0  0  0
   30.2642  -16.2631  -18.2051 C   0  0  0  0  0  0  0  0  0  0  0  0
   31.0545  -17.3847  -18.1796 C   0  0  0  0  0  0  0  0  0  0  0  0
   32.3113  -17.4033  -18.7579 C   0  0  0  0  0  0  0  0  0  0  0  0
   32.7442  -16.2538  -19.3624 C   0  0  0  0  0  0  0  0  0  0  0  0
   31.9688  -15.1211  -19.3987 C   0  0  0  0  0  0  0  0  0  0  0  0
   30.7255  -15.1292  -18.8174 C   0  0  0  0  0  0  0  0  0  0  0  0
   26.7045  -17.4352  -17.4855 C   0  0  0  0  0  0  0  0  0  0  0  0
   25.9203  -16.4506  -17.2622 O   0  0  0  0  0  0  0  0  0  0  0  0
   18.7394  -19.6668  -14.9037 O   0  0  0  0  0  0  0  0  0  0  0  0
   20.0066  -19.4756  -15.4874 C   0  0  0  0  0  0  0  0  0  0  0  0
   20.7625  -20.5589  -15.8837 C   0  0  0  0  0  0  0  0  0  0  0  0
   21.9974  -20.3667  -16.4523 C   0  0  0  0  0  0  0  0  0  0  0  0
   22.5414  -19.1160  -16.6559 C   0  0  0  0  0  0  0  0  0  0  0  0
   23.8700  -18.9216  -17.2692 C   0  0  0  0  0  0  0  0  0  0  0  0
   24.9878  -18.8375  -16.2453 C   0  0  2  0  0  0  0  0  0  0  0  0
   26.2200  -18.6991  -16.9962 N   0  0  0  0  0  0  0  0  0  0  0  0
   24.9953  -19.9135  -15.2661 C   0  0  0  0  0  0  0  0  0  0  0  0
   25.3042  -21.1032  -15.6070 O   0  0  0  0  0  0  0  0  0  0  0  0
   21.7759  -18.0472  -16.2558 C   0  0  0  0  0  0  0  0  0  0  0  0
   20.5206  -18.2123  -15.6766 C   0  0  0  0  0  0  0  0  0  0  0  0
   28.2466  -20.6669  -11.3698 C   0  0  0  0  0  0  0  0  0  0  0  0
   27.1663  -20.7726  -12.4065 C   0  0  0  0  0  0  0  0  0  0  0  0
   25.7680  -20.7236  -11.8839 C   0  0  2  0  0  0  0  0  0  0  0  0
   25.5324  -21.8946  -10.9166 C   0  0  0  0  0  0  0  0  0  0  0  0
   24.6925  -20.8671  -12.9437 C   0  0  2  0  0  0  0  0  0  0  0  0
   24.6775  -19.7654  -13.8885 N   0  0  0  0  0  0  0  0  0  0  0  0
   23.3963  -20.8695  -12.2405 C   0  0  0  0  0  0  0  0  0  0  0  0
   22.9430  -22.0081  -11.6116 O   0  0  0  0  0  0  0  0  0  0  0  0
   22.6911  -19.8397  -12.2060 O   0  0  0  0  0  0  0  0  0  0  0  0
  2  1  1  6
  3  2  1  0
  3  4  1  0
  4  9  1  0
  5  4  2  0
  5  6  1  0
  6  7  2  0
  7  8  1  0
  9  8  2  0
 10 11  2  0
 10  2  1  0
 12 13  1  0
 13 14  2  0
 14 15  1  0
 16 15  2  0
 16 17  1  0
 18 17  1  6
 18 19  1  0
 19 10  1  0
 20 29  1  0
 20 18  1  0
 21 20  2  0
 22 16  1  0
 23 13  1  0
 23 22  2  0
 24 25  1  0
 25 26  1  0
 26 27  1  1
 26 28  1  0
 28 29  1  6
 28 30  1  0
 30 31  1  0
 32 30  2  0
M  END
$$$$
