FYI.pdb
     RDKit          3D

 32 33  0  0  1  0  0  0  0  0999 V2000
   20.1500  -17.7059  -15.1208 N   0  0  0  0  0  0  0  0  0  0  0  0
   21.1774  -18.2967  -15.9956 C   0  0  1  0  0  0  0  0  0  0  0  0
   21.5054  -17.2923  -17.0497 C   0  0  0  0  0  0  0  0  0  0  0  0
   20.6386  -17.3284  -18.2344 C   0  0  0  0  0  0  0  0  0  0  0  0
   20.6796  -18.4261  -19.0569 C   0  0  0  0  0  0  0  0  0  0  0  0
   19.8883  -18.5184  -20.1882 C   0  0  0  0  0  0  0  0  0  0  0  0
   19.0548  -17.4674  -20.4620 C   0  0  0  0  0  0  0  0  0  0  0  0
   18.9989  -16.3602  -19.6517 C   0  0  0  0  0  0  0  0  0  0  0  0
   19.7946  -16.2938  -18.5353 C   0  0  0  0  0  0  0  0  0  0  0  0
   22.2867  -18.7067  -15.1356 C   0  0  0  0  0  0  0  0  0  0  0  0
   22.9081  -17.8822  -14.3816 O   0  0  0  0  0  0  0  0  0  0  0  0
   19.8209  -19.4910   -9.3253 O   0  0  0  0  0  0  0  0  0  0  0  0
   20.7039  -19.9918  -10.3014 C   0  0  0  0  0  0  0  0  0  0  0  0
   20.2209  -20.7065  -11.3775 C   0  0  0  0  0  0  0  0  0  0  0  0
   21.0863  -21.1925  -12.3263 C   0  0  0  0  0  0  0  0  0  0  0  0
   22.4506  -21.0016  -12.2633 C   0  0  0  0  0  0  0  0  0  0  0  0
   23.3712  -21.5282  -13.2900 C   0  0  0  0  0  0  0  0  0  0  0  0
   23.8922  -20.4521  -14.2256 C   0  0  2  0  0  0  0  0  0  0  0  0
   22.7733  -20.0590  -15.0594 N   0  0  0  0  0  0  0  0  0  0  0  0
   25.0936  -20.8171  -14.9604 C   0  0  0  0  0  0  0  0  0  0  0  0
   25.0187  -21.5034  -16.0330 O   0  0  0  0  0  0  0  0  0  0  0  0
   22.9158  -20.2876  -11.1852 C   0  0  0  0  0  0  0  0  0  0  0  0
   22.0616  -19.7831  -10.2082 C   0  0  0  0  0  0  0  0  0  0  0  0
   30.0084  -18.7577  -17.6244 C   0  0  0  0  0  0  0  0  0  0  0  0
   29.4835  -19.8861  -16.7854 C   0  0  0  0  0  0  0  0  0  0  0  0
   28.2355  -19.5905  -16.0201 C   0  0  2  0  0  0  0  0  0  0  0  0
   28.5528  -18.6411  -14.8536 C   0  0  0  0  0  0  0  0  0  0  0  0
   27.5880  -20.8014  -15.3760 C   0  0  2  0  0  0  0  0  0  0  0  0
   26.4186  -20.4647  -14.5848 N   0  0  0  0  0  0  0  0  0  0  0  0
   28.5886  -21.3884  -14.4656 C   0  0  0  0  0  0  0  0  0  0  0  0
   28.4421  -21.2798  -13.1004 O   0  0  0  0  0  0  0  0  0  0  0  0
   29.5830  -21.9917  -14.9198 O   0  0  0  0  0  0  0  0  0  0  0  0
  2  1  1  1
  3  2  1  0
  3  4  1  0
  4  9  1  0
  5  4  2  0
  5  6  1  0
  6  7  2  0
  7  8  1  0
  9  8  2  0
 10 11  2  0
 10  2  1  0
 12 13  1  0
 13 14  2  0
 14 15  1  0
 16 15  2  0
 16 17  1  0
 18 17  1  6
 18 19  1  0
 19 10  1  0
 20 29  1  0
 20 18  1  0
 21 20  2  0
 22 16  1  0
 23 13  1  0
 23 22  2  0
 24 25  1  0
 25 26  1  0
 26 27  1  1
 26 28  1  0
 28 29  1  1
 28 30  1  0
 30 31  1  0
 32 30  2  0
M  END
$$$$
