FYI.pdb
     RDKit          3D

 32 33  0  0  1  0  0  0  0  0999 V2000
   28.1030  -20.7350  -17.5600 N   0  0  0  0  0  0  0  0  0  0  0  0
   28.1531  -19.9481  -16.3158 C   0  0  1  0  0  0  0  0  0  0  0  0
   27.7672  -18.5461  -16.6521 C   0  0  0  0  0  0  0  0  0  0  0  0
   28.7439  -17.8102  -17.4651 C   0  0  0  0  0  0  0  0  0  0  0  0
   30.0180  -17.6402  -16.9845 C   0  0  0  0  0  0  0  0  0  0  0  0
   30.9820  -16.9554  -17.7029 C   0  0  0  0  0  0  0  0  0  0  0  0
   30.6184  -16.4481  -18.9214 C   0  0  0  0  0  0  0  0  0  0  0  0
   29.3489  -16.6073  -19.4200 C   0  0  0  0  0  0  0  0  0  0  0  0
   28.4112  -17.2910  -18.6871 C   0  0  0  0  0  0  0  0  0  0  0  0
   27.3003  -20.6304  -15.3437 C   0  0  0  0  0  0  0  0  0  0  0  0
   26.2945  -21.3377  -15.6941 O   0  0  0  0  0  0  0  0  0  0  0  0
   23.3528  -21.1437   -7.3402 O   0  0  0  0  0  0  0  0  0  0  0  0
   24.2832  -21.0549   -8.3936 C   0  0  0  0  0  0  0  0  0  0  0  0
   25.5784  -20.6499   -8.1478 C   0  0  0  0  0  0  0  0  0  0  0  0
   26.4814  -20.5652   -9.1787 C   0  0  0  0  0  0  0  0  0  0  0  0
   26.1582  -20.8706  -10.4841 C   0  0  0  0  0  0  0  0  0  0  0  0
   27.1379  -20.7765  -11.5842 C   0  0  0  0  0  0  0  0  0  0  0  0
   26.5107  -20.9687  -12.9533 C   0  0  2  0  0  0  0  0  0  0  0  0
   27.5132  -20.5701  -13.9216 N   0  0  0  0  0  0  0  0  0  0  0  0
   25.2173  -20.3245  -13.1236 C   0  0  0  0  0  0  0  0  0  0  0  0
   25.1100  -19.0544  -13.0744 O   0  0  0  0  0  0  0  0  0  0  0  0
   24.8641  -21.2723  -10.7124 C   0  0  0  0  0  0  0  0  0  0  0  0
   23.9274  -21.3674   -9.6865 C   0  0  0  0  0  0  0  0  0  0  0  0
   20.8911  -19.0862  -16.7868 C   0  0  0  0  0  0  0  0  0  0  0  0
   21.1438  -19.4239  -15.3463 C   0  0  0  0  0  0  0  0  0  0  0  0
   22.4608  -20.0668  -15.0591 C   0  0  2  0  0  0  0  0  0  0  0  0
   22.5188  -21.4530  -15.7208 C   0  0  0  0  0  0  0  0  0  0  0  0
   22.7317  -20.3220  -13.5887 C   0  0  2  0  0  0  0  0  0  0  0  0
   23.9909  -21.0050  -13.3549 N   0  0  0  0  0  0  0  0  0  0  0  0
   21.6512  -21.1986  -13.1002 C   0  0  0  0  0  0  0  0  0  0  0  0
   20.3879  -20.6961  -12.8793 O   0  0  0  0  0  0  0  0  0  0  0  0
   21.8665  -22.4085  -12.8793 O   0  0  0  0  0  0  0  0  0  0  0  0
  2  1  1  6
  3  2  1  0
  3  4  1  0
  4  9  1  0
  5  4  2  0
  5  6  1  0
  6  7  2  0
  7  8  1  0
  9  8  2  0
 10 11  2  0
 10  2  1  0
 12 13  1  0
 13 14  2  0
 14 15  1  0
 16 15  2  0
 16 17  1  0
 18 17  1  1
 18 19  1  0
 19 10  1  0
 20 29  1  0
 20 18  1  0
 21 20  2  0
 22 16  1  0
 23 13  1  0
 23 22  2  0
 24 25  1  0
 25 26  1  0
 26 27  1  6
 26 28  1  0
 28 29  1  6
 28 30  1  0
 30 31  1  0
 32 30  2  0
M  END
$$$$
