IQY.pdb
     RDKit          3D

 30 30  0  0  1  0  0  0  0  0999 V2000
    6.1430  -11.9956   26.4335 C   0  0  0  0  0  0  0  0  0  0  0  0
    5.9245  -13.3379   25.8105 C   0  0  0  0  0  0  0  0  0  0  0  0
    7.1396  -13.7958   24.9869 C   0  0  2  0  0  0  0  0  0  0  0  0
    7.4753  -12.7935   23.9379 C   0  0  0  0  0  0  0  0  0  0  0  0
    6.7797  -15.1548   24.4534 C   0  0  2  0  0  0  0  0  0  0  0  0
    5.9809  -15.8267   25.4809 N   0  0  0  0  0  0  0  0  0  0  0  0
    7.9164  -16.0326   24.1587 C   0  0  0  0  0  0  0  0  0  0  0  0
    8.2486  -17.0130   24.8937 O   0  0  0  0  0  0  0  0  0  0  0  0
   10.0896  -17.5793   18.2658 N   0  0  0  0  0  0  0  0  0  0  0  0
   11.1631  -17.4144   19.1684 C   0  0  0  0  0  0  0  0  0  0  0  0
   12.2871  -17.0604   18.7131 O   0  0  0  0  0  0  0  0  0  0  0  0
   11.0043  -17.6471   20.6418 C   0  0  0  0  0  0  0  0  0  0  0  0
    9.8985  -16.7557   21.1532 C   0  0  0  0  0  0  0  0  0  0  0  0
    9.7949  -16.7709   22.6501 C   0  0  2  0  0  0  0  0  0  0  0  0
    8.7369  -15.8492   23.0158 N   0  0  0  0  0  0  0  0  0  0  0  0
   11.0441  -16.5257   23.3472 C   0  0  0  0  0  0  0  0  0  0  0  0
   12.0079  -17.2995   23.1840 O   0  0  0  0  0  0  0  0  0  0  0  0
   12.0369  -16.5025   31.9670 O   0  0  0  0  0  0  0  0  0  0  0  0
   11.6943  -16.2228   30.6360 C   0  0  0  0  0  0  0  0  0  0  0  0
   11.3326  -17.2469   29.7941 C   0  0  0  0  0  0  0  0  0  0  0  0
   10.9902  -16.9851   28.4713 C   0  0  0  0  0  0  0  0  0  0  0  0
   11.0016  -15.7063   27.9645 C   0  0  0  0  0  0  0  0  0  0  0  0
   10.6442  -15.4317   26.5627 C   0  0  0  0  0  0  0  0  0  0  0  0
   11.7581  -15.5868   25.5771 C   0  0  2  0  0  0  0  0  0  0  0  0
   11.2099  -15.4271   24.2160 N   0  0  0  0  0  0  0  0  0  0  0  0
   12.3718  -16.9227   25.7258 C   0  0  0  0  0  0  0  0  0  0  0  0
   13.5515  -17.0619   26.1957 O   0  0  0  0  0  0  0  0  0  0  0  0
   11.3658  -14.6910   28.8196 C   0  0  0  0  0  0  0  0  0  0  0  0
   11.7101  -14.9390   30.1437 C   0  0  0  0  0  0  0  0  0  0  0  0
   11.6998  -18.0602   25.3679 O   0  0  0  0  0  0  0  0  0  0  0  0
  1  2  1  0
  2  3  1  0
  3  4  1  6
  5  3  1  0
  5  6  1  1
  7  8  2  0
  7  5  1  0
 10  9  1  0
 10 12  1  0
 11 10  2  0
 13 12  1  0
 14 13  1  6
 14 15  1  0
 15  7  1  0
 16 25  1  0
 16 14  1  0
 17 16  2  0
 19 18  1  0
 20 19  2  0
 21 20  1  0
 22 28  1  0
 22 21  2  0
 24 23  1  1
 23 22  1  0
 24 25  1  0
 24 26  1  0
 26 30  1  0
 27 26  2  0
 28 29  2  0
 29 19  1  0
M  END
$$$$
