IQY.pdb
     RDKit          3D

 30 30  0  0  1  0  0  0  0  0999 V2000
    7.4418  -11.6502   19.0450 C   0  0  0  0  0  0  0  0  0  0  0  0
    7.1530  -13.0646   19.4372 C   0  0  0  0  0  0  0  0  0  0  0  0
    8.4240  -13.8137   19.8705 C   0  0  2  0  0  0  0  0  0  0  0  0
    9.4656  -13.7458   18.8084 C   0  0  0  0  0  0  0  0  0  0  0  0
    7.9769  -15.2082   20.2122 C   0  0  2  0  0  0  0  0  0  0  0  0
    6.9163  -15.0901   21.2154 N   0  0  0  0  0  0  0  0  0  0  0  0
    9.0109  -16.0734   20.7882 C   0  0  0  0  0  0  0  0  0  0  0  0
    9.4615  -15.9313   21.9664 O   0  0  0  0  0  0  0  0  0  0  0  0
   12.7932  -22.3975   20.2343 N   0  0  0  0  0  0  0  0  0  0  0  0
   11.8441  -21.3981   19.9264 C   0  0  0  0  0  0  0  0  0  0  0  0
   10.8152  -21.7232   19.2695 O   0  0  0  0  0  0  0  0  0  0  0  0
   12.0251  -19.9723   20.3558 C   0  0  0  0  0  0  0  0  0  0  0  0
   10.7431  -19.2223   20.0861 C   0  0  0  0  0  0  0  0  0  0  0  0
   10.8435  -17.7678   20.4411 C   0  0  2  0  0  0  0  0  0  0  0  0
    9.5891  -17.1466   20.0623 N   0  0  0  0  0  0  0  0  0  0  0  0
   12.0105  -17.0915   19.9050 C   0  0  0  0  0  0  0  0  0  0  0  0
   12.0097  -16.6960   18.7226 O   0  0  0  0  0  0  0  0  0  0  0  0
   18.6165  -11.9013   17.9208 O   0  0  0  0  0  0  0  0  0  0  0  0
   17.5880  -12.6239   18.5429 C   0  0  0  0  0  0  0  0  0  0  0  0
   16.4036  -12.8355   17.8790 C   0  0  0  0  0  0  0  0  0  0  0  0
   15.3741  -13.5503   18.4831 C   0  0  0  0  0  0  0  0  0  0  0  0
   15.5035  -14.0649   19.7522 C   0  0  0  0  0  0  0  0  0  0  0  0
   14.4109  -14.8165   20.3921 C   0  0  0  0  0  0  0  0  0  0  0  0
   14.3920  -16.2842   20.1063 C   0  0  2  0  0  0  0  0  0  0  0  0
   13.1630  -16.8620   20.6848 N   0  0  0  0  0  0  0  0  0  0  0  0
   15.5843  -16.9225   20.7015 C   0  0  0  0  0  0  0  0  0  0  0  0
   16.7539  -16.7080   20.2346 O   0  0  0  0  0  0  0  0  0  0  0  0
   16.6955  -13.8451   20.4046 C   0  0  0  0  0  0  0  0  0  0  0  0
   17.7322  -13.1326   19.8123 C   0  0  0  0  0  0  0  0  0  0  0  0
   15.4813  -17.7652   21.7752 O   0  0  0  0  0  0  0  0  0  0  0  0
  1  2  1  0
  2  3  1  0
  3  4  1  6
  5  3  1  0
  5  6  1  1
  7  8  2  0
  7  5  1  0
 10  9  1  0
 10 12  1  0
 11 10  2  0
 13 12  1  0
 14 13  1  6
 14 15  1  0
 15  7  1  0
 16 25  1  0
 16 14  1  0
 17 16  2  0
 19 18  1  0
 20 19  2  0
 21 20  1  0
 22 28  1  0
 22 21  2  0
 24 23  1  1
 23 22  1  0
 24 25  1  0
 24 26  1  0
 26 30  1  0
 27 26  2  0
 28 29  2  0
 29 19  1  0
M  END
$$$$
