IQY.pdb
     RDKit          3D

 30 30  0  0  1  0  0  0  0  0999 V2000
    6.2318  -12.0548   26.8200 C   0  0  0  0  0  0  0  0  0  0  0  0
    5.9428  -13.3139   26.0660 C   0  0  0  0  0  0  0  0  0  0  0  0
    7.2149  -13.9258   25.4565 C   0  0  2  0  0  0  0  0  0  0  0  0
    7.9298  -12.9281   24.6133 C   0  0  0  0  0  0  0  0  0  0  0  0
    6.7605  -15.1524   24.7148 C   0  0  2  0  0  0  0  0  0  0  0  0
    6.1128  -16.0335   25.6892 N   0  0  0  0  0  0  0  0  0  0  0  0
    7.8283  -15.9325   24.0818 C   0  0  0  0  0  0  0  0  0  0  0  0
    8.2500  -17.0381   24.5418 O   0  0  0  0  0  0  0  0  0  0  0  0
    8.2584  -17.2678   19.1161 N   0  0  0  0  0  0  0  0  0  0  0  0
    9.6663  -17.3770   19.1000 C   0  0  0  0  0  0  0  0  0  0  0  0
   10.1965  -18.2523   18.3592 O   0  0  0  0  0  0  0  0  0  0  0  0
   10.5410  -16.4879   19.9332 C   0  0  0  0  0  0  0  0  0  0  0  0
    9.6621  -15.6641   20.8430 C   0  0  0  0  0  0  0  0  0  0  0  0
    9.4027  -16.3405   22.1572 C   0  0  2  0  0  0  0  0  0  0  0  0
    8.4749  -15.5042   22.8938 N   0  0  0  0  0  0  0  0  0  0  0  0
   10.5961  -16.6839   22.9088 C   0  0  0  0  0  0  0  0  0  0  0  0
   10.9226  -17.8797   23.0420 O   0  0  0  0  0  0  0  0  0  0  0  0
   11.1530  -15.4668   31.3693 O   0  0  0  0  0  0  0  0  0  0  0  0
   10.9970  -15.4298   29.9760 C   0  0  0  0  0  0  0  0  0  0  0  0
   10.7744  -16.5949   29.2822 C   0  0  0  0  0  0  0  0  0  0  0  0
   10.6177  -16.5740   27.9000 C   0  0  0  0  0  0  0  0  0  0  0  0
   10.6795  -15.3997   27.1863 C   0  0  0  0  0  0  0  0  0  0  0  0
   10.5189  -15.3801   25.7228 C   0  0  0  0  0  0  0  0  0  0  0  0
   11.7452  -15.7276   24.9407 C   0  0  2  0  0  0  0  0  0  0  0  0
   11.4121  -15.6989   23.5030 N   0  0  0  0  0  0  0  0  0  0  0  0
   12.2176  -17.0731   25.3276 C   0  0  0  0  0  0  0  0  0  0  0  0
   12.7459  -17.2870   26.4708 O   0  0  0  0  0  0  0  0  0  0  0  0
   10.9029  -14.2408   27.8948 C   0  0  0  0  0  0  0  0  0  0  0  0
   11.0610  -14.2478   29.2762 C   0  0  0  0  0  0  0  0  0  0  0  0
   12.1055  -18.1402   24.4777 O   0  0  0  0  0  0  0  0  0  0  0  0
  1  2  1  0
  2  3  1  0
  3  4  1  6
  5  3  1  0
  5  6  1  1
  7  8  2  0
  7  5  1  0
 10  9  1  0
 10 12  1  0
 11 10  2  0
 13 12  1  0
 14 13  1  6
 14 15  1  0
 15  7  1  0
 16 25  1  0
 16 14  1  0
 17 16  2  0
 19 18  1  0
 20 19  2  0
 21 20  1  0
 22 28  1  0
 22 21  2  0
 24 23  1  1
 23 22  1  0
 24 25  1  0
 24 26  1  0
 26 30  1  0
 27 26  2  0
 28 29  2  0
 29 19  1  0
M  END
$$$$
