IQY.pdb
     RDKit          3D

 30 30  0  0  1  0  0  0  0  0999 V2000
    3.0371  -17.5856   20.3169 C   0  0  0  0  0  0  0  0  0  0  0  0
    4.2592  -17.5673   21.1793 C   0  0  0  0  0  0  0  0  0  0  0  0
    5.0850  -18.8565   21.0364 C   0  0  2  0  0  0  0  0  0  0  0  0
    4.2452  -20.0553   21.3105 C   0  0  0  0  0  0  0  0  0  0  0  0
    6.2558  -18.6940   21.9659 C   0  0  2  0  0  0  0  0  0  0  0  0
    5.7175  -18.3711   23.2893 N   0  0  0  0  0  0  0  0  0  0  0  0
    7.1896  -17.6198   21.6144 C   0  0  0  0  0  0  0  0  0  0  0  0
    8.0726  -17.7325   20.7094 O   0  0  0  0  0  0  0  0  0  0  0  0
    9.2203  -13.3958   19.5880 N   0  0  0  0  0  0  0  0  0  0  0  0
    7.9020  -13.8204   19.3120 C   0  0  0  0  0  0  0  0  0  0  0  0
    7.5240  -13.8753   18.1078 O   0  0  0  0  0  0  0  0  0  0  0  0
    6.9470  -14.2047   20.4031 C   0  0  0  0  0  0  0  0  0  0  0  0
    7.6626  -14.0994   21.7280 C   0  0  0  0  0  0  0  0  0  0  0  0
    8.2597  -15.4055   22.1633 C   0  0  2  0  0  0  0  0  0  0  0  0
    7.1730  -16.3601   22.2670 N   0  0  0  0  0  0  0  0  0  0  0  0
    9.0803  -15.3292   23.3581 C   0  0  0  0  0  0  0  0  0  0  0  0
   10.0795  -14.5839   23.3779 O   0  0  0  0  0  0  0  0  0  0  0  0
    6.1007  -10.7842   26.6862 O   0  0  0  0  0  0  0  0  0  0  0  0
    6.7979  -11.9999   26.7415 C   0  0  0  0  0  0  0  0  0  0  0  0
    6.1265  -13.1822   26.5418 C   0  0  0  0  0  0  0  0  0  0  0  0
    6.8045  -14.3960   26.5937 C   0  0  0  0  0  0  0  0  0  0  0  0
    8.1558  -14.4554   26.8439 C   0  0  0  0  0  0  0  0  0  0  0  0
    8.8707  -15.7413   26.9039 C   0  0  0  0  0  0  0  0  0  0  0  0
    9.6764  -16.0817   25.6910 C   0  0  2  0  0  0  0  0  0  0  0  0
    8.7839  -16.0791   24.5153 N   0  0  0  0  0  0  0  0  0  0  0  0
   10.2921  -17.4142   25.8604 C   0  0  0  0  0  0  0  0  0  0  0  0
   11.1220  -17.6461   26.8035 O   0  0  0  0  0  0  0  0  0  0  0  0
    8.8148  -13.2632   27.0417 C   0  0  0  0  0  0  0  0  0  0  0  0
    8.1492  -12.0434   26.9925 C   0  0  0  0  0  0  0  0  0  0  0  0
    9.9957  -18.4496   25.0156 O   0  0  0  0  0  0  0  0  0  0  0  0
  1  2  1  0
  2  3  1  0
  3  4  1  1
  5  3  1  0
  5  6  1  1
  7  8  2  0
  7  5  1  0
 10  9  1  0
 10 12  1  0
 11 10  2  0
 13 12  1  0
 14 13  1  1
 14 15  1  0
 15  7  1  0
 16 25  1  0
 16 14  1  0
 17 16  2  0
 19 18  1  0
 20 19  2  0
 21 20  1  0
 22 28  1  0
 22 21  2  0
 24 23  1  1
 23 22  1  0
 24 25  1  0
 24 26  1  0
 26 30  1  0
 27 26  2  0
 28 29  2  0
 29 19  1  0
M  END
$$$$
