IQY.pdb
     RDKit          3D

 30 30  0  0  1  0  0  0  0  0999 V2000
    7.1337  -12.1085   19.2604 C   0  0  0  0  0  0  0  0  0  0  0  0
    7.2803  -13.5831   19.4644 C   0  0  0  0  0  0  0  0  0  0  0  0
    7.0587  -13.9871   20.9313 C   0  0  2  0  0  0  0  0  0  0  0  0
    8.0189  -13.2818   21.8247 C   0  0  0  0  0  0  0  0  0  0  0  0
    7.1707  -15.4863   20.9611 C   0  0  2  0  0  0  0  0  0  0  0  0
    6.1931  -16.0135   20.0063 N   0  0  0  0  0  0  0  0  0  0  0  0
    6.8784  -16.1102   22.2552 C   0  0  0  0  0  0  0  0  0  0  0  0
    5.7378  -16.0615   22.8104 O   0  0  0  0  0  0  0  0  0  0  0  0
    7.7713  -21.5304   24.2681 N   0  0  0  0  0  0  0  0  0  0  0  0
    7.5083  -20.9088   25.5085 C   0  0  0  0  0  0  0  0  0  0  0  0
    7.2823  -21.6385   26.5147 O   0  0  0  0  0  0  0  0  0  0  0  0
    7.4905  -19.4165   25.6607 C   0  0  0  0  0  0  0  0  0  0  0  0
    7.5829  -18.7920   24.2895 C   0  0  0  0  0  0  0  0  0  0  0  0
    7.6436  -17.2936   24.3441 C   0  0  2  0  0  0  0  0  0  0  0  0
    7.8605  -16.8239   22.9895 N   0  0  0  0  0  0  0  0  0  0  0  0
    8.5942  -16.7595   25.3022 C   0  0  0  0  0  0  0  0  0  0  0  0
    9.7988  -16.6664   24.9950 O   0  0  0  0  0  0  0  0  0  0  0  0
    7.1077  -10.1841   25.4754 O   0  0  0  0  0  0  0  0  0  0  0  0
    7.4586  -11.3278   26.2074 C   0  0  0  0  0  0  0  0  0  0  0  0
    8.7719  -11.7290   26.2599 C   0  0  0  0  0  0  0  0  0  0  0  0
    9.1353  -12.8615   26.9818 C   0  0  0  0  0  0  0  0  0  0  0  0
    8.2035  -13.6117   27.6610 C   0  0  0  0  0  0  0  0  0  0  0  0
    8.5892  -14.8131   28.4200 C   0  0  0  0  0  0  0  0  0  0  0  0
    9.1817  -15.9196   27.6072 C   0  0  2  0  0  0  0  0  0  0  0  0
    8.1985  -16.3354   26.5878 N   0  0  0  0  0  0  0  0  0  0  0  0
    9.5166  -17.0588   28.4867 C   0  0  0  0  0  0  0  0  0  0  0  0
    8.9085  -18.1775   28.3833 O   0  0  0  0  0  0  0  0  0  0  0  0
    6.8923  -13.1975   27.5993 C   0  0  0  0  0  0  0  0  0  0  0  0
    6.5157  -12.0677   26.8816 C   0  0  0  0  0  0  0  0  0  0  0  0
   10.4908  -16.9594   29.4430 O   0  0  0  0  0  0  0  0  0  0  0  0
  1  2  1  0
  2  3  1  0
  3  4  1  1
  5  3  1  0
  5  6  1  6
  7  8  2  0
  7  5  1  0
 10  9  1  0
 10 12  1  0
 11 10  2  0
 13 12  1  0
 14 13  1  6
 14 15  1  0
 15  7  1  0
 16 25  1  0
 16 14  1  0
 17 16  2  0
 19 18  1  0
 20 19  2  0
 21 20  1  0
 22 28  1  0
 22 21  2  0
 24 23  1  1
 23 22  1  0
 24 25  1  0
 24 26  1  0
 26 30  1  0
 27 26  2  0
 28 29  2  0
 29 19  1  0
M  END
$$$$
