IQY.pdb
     RDKit          3D

 30 30  0  0  1  0  0  0  0  0999 V2000
    7.6327  -12.3437   22.2616 C   0  0  0  0  0  0  0  0  0  0  0  0
    7.9005  -13.4873   21.3352 C   0  0  0  0  0  0  0  0  0  0  0  0
    8.3404  -13.0095   19.9415 C   0  0  2  0  0  0  0  0  0  0  0  0
    7.3116  -12.1166   19.3398 C   0  0  0  0  0  0  0  0  0  0  0  0
    8.6152  -14.2592   19.1517 C   0  0  2  0  0  0  0  0  0  0  0  0
    7.3366  -14.9519   18.9768 N   0  0  0  0  0  0  0  0  0  0  0  0
    9.5304  -15.2123   19.7867 C   0  0  0  0  0  0  0  0  0  0  0  0
    9.1383  -16.2551   20.3954 O   0  0  0  0  0  0  0  0  0  0  0  0
   15.0004  -15.5533   17.3244 N   0  0  0  0  0  0  0  0  0  0  0  0
   14.8861  -14.7548   18.4835 C   0  0  0  0  0  0  0  0  0  0  0  0
   15.9116  -14.1483   18.9036 O   0  0  0  0  0  0  0  0  0  0  0  0
   13.5888  -14.6095   19.2226 C   0  0  0  0  0  0  0  0  0  0  0  0
   13.1134  -15.9818   19.6344 C   0  0  0  0  0  0  0  0  0  0  0  0
   11.8530  -15.9326   20.4472 C   0  0  2  0  0  0  0  0  0  0  0  0
   10.9382  -15.0374   19.7657 N   0  0  0  0  0  0  0  0  0  0  0  0
   12.0470  -15.6069   21.8483 C   0  0  0  0  0  0  0  0  0  0  0  0
   12.0571  -14.4145   22.2124 O   0  0  0  0  0  0  0  0  0  0  0  0
    9.4335  -14.5144   29.8862 O   0  0  0  0  0  0  0  0  0  0  0  0
    9.7312  -14.8406   28.5550 C   0  0  0  0  0  0  0  0  0  0  0  0
    9.9003  -16.1561   28.1955 C   0  0  0  0  0  0  0  0  0  0  0  0
   10.1960  -16.4952   26.8790 C   0  0  0  0  0  0  0  0  0  0  0  0
   10.3284  -15.5368   25.9013 C   0  0  0  0  0  0  0  0  0  0  0  0
   10.6469  -15.8971   24.5095 C   0  0  0  0  0  0  0  0  0  0  0  0
   12.0595  -16.3234   24.2670 C   0  0  2  0  0  0  0  0  0  0  0  0
   12.2272  -16.6055   22.8279 N   0  0  0  0  0  0  0  0  0  0  0  0
   12.3577  -17.5330   25.0615 C   0  0  0  0  0  0  0  0  0  0  0  0
   13.2714  -17.5314   25.9543 O   0  0  0  0  0  0  0  0  0  0  0  0
   10.1562  -14.2236   26.2763 C   0  0  0  0  0  0  0  0  0  0  0  0
    9.8603  -13.8711   27.5884 C   0  0  0  0  0  0  0  0  0  0  0  0
   11.6659  -18.6990   24.8727 O   0  0  0  0  0  0  0  0  0  0  0  0
  1  2  1  0
  2  3  1  0
  3  4  1  6
  5  3  1  0
  5  6  1  1
  7  8  2  0
  7  5  1  0
 10  9  1  0
 10 12  1  0
 11 10  2  0
 13 12  1  0
 14 13  1  6
 14 15  1  0
 15  7  1  0
 16 25  1  0
 16 14  1  0
 17 16  2  0
 19 18  1  0
 20 19  2  0
 21 20  1  0
 22 28  1  0
 22 21  2  0
 24 23  1  6
 23 22  1  0
 24 25  1  0
 24 26  1  0
 26 30  1  0
 27 26  2  0
 28 29  2  0
 29 19  1  0
M  END
$$$$
