CYW.pdb
     RDKit          3D

 33 35  0  0  1  0  0  0  0  0999 V2000
   27.0871  -23.6029  -18.6644 N   0  0  0  0  0  0  0  0  0  0  0  0
   27.4801  -23.7332  -17.2484 C   0  0  1  0  0  0  0  0  0  0  0  0
   28.6373  -22.7509  -17.0927 C   0  0  0  0  0  0  0  0  0  0  0  0
   30.1711  -23.5401  -17.6032 S   0  0  0  0  0  0  0  0  0  0  0  0
   26.3178  -23.3875  -16.4307 C   0  0  0  0  0  0  0  0  0  0  0  0
   25.5773  -22.4063  -16.7725 O   0  0  0  0  0  0  0  0  0  0  0  0
   20.9357  -26.0263  -19.0773 O   0  0  0  0  0  0  0  0  0  0  0  0
   21.6454  -25.7200  -17.9045 C   0  0  0  0  0  0  0  0  0  0  0  0
   21.1835  -24.7511  -17.0348 C   0  0  0  0  0  0  0  0  0  0  0  0
   21.9044  -24.4765  -15.8945 C   0  0  0  0  0  0  0  0  0  0  0  0
   23.0698  -25.1331  -15.5894 C   0  0  0  0  0  0  0  0  0  0  0  0
   23.8020  -24.8139  -14.3723 C   0  0  0  0  0  0  0  0  0  0  0  0
   24.7357  -23.6320  -14.5086 C   0  0  2  0  0  0  0  0  0  0  0  0
   25.9182  -24.0583  -15.2552 N   0  0  0  0  0  0  0  0  0  0  0  0
   25.1006  -23.0051  -13.2276 C   0  0  0  0  0  0  0  0  0  0  0  0
   26.1458  -23.3530  -12.5843 O   0  0  0  0  0  0  0  0  0  0  0  0
   23.5327  -26.0949  -16.4479 C   0  0  0  0  0  0  0  0  0  0  0  0
   22.8145  -26.3648  -17.5791 C   0  0  0  0  0  0  0  0  0  0  0  0
   24.3193  -21.9807  -12.6327 N   0  0  0  0  0  0  0  0  0  0  0  0
   24.6959  -21.3401  -11.3513 C   0  0  1  0  0  0  0  0  0  0  0  0
   26.0906  -20.8211  -11.6073 C   0  0  0  0  0  0  0  0  0  0  0  0
   26.2205  -19.7498  -12.5789 C   0  0  0  0  0  0  0  0  0  0  0  0
   25.3935  -18.6635  -12.7253 C   0  0  0  0  0  0  0  0  0  0  0  0
   25.8103  -17.8942  -13.7482 N   0  0  0  0  0  0  0  0  0  0  0  0
   26.9147  -18.4854  -14.2680 C   0  0  0  0  0  0  0  0  0  0  0  0
   27.7347  -18.1138  -15.3096 C   0  0  0  0  0  0  0  0  0  0  0  0
   28.8350  -18.8629  -15.6721 C   0  0  0  0  0  0  0  0  0  0  0  0
   29.1090  -20.0199  -14.9572 C   0  0  0  0  0  0  0  0  0  0  0  0
   28.2846  -20.3790  -13.9232 C   0  0  0  0  0  0  0  0  0  0  0  0
   27.1850  -19.6314  -13.5610 C   0  0  0  0  0  0  0  0  0  0  0  0
   23.7174  -20.3839  -10.8846 C   0  0  0  0  0  0  0  0  0  0  0  0
   23.8244  -19.8070   -9.6315 O   0  0  0  0  0  0  0  0  0  0  0  0
   22.7387  -20.0494  -11.5966 O   0  0  0  0  0  0  0  0  0  0  0  0
  2  3  1  0
  2  1  1  6
  3  4  1  0
  5  2  1  0
  6  5  2  0
  8  7  1  0
  8  9  2  0
 10  9  1  0
 11 10  2  0
 12 11  1  0
 13 12  1  1
 13 14  1  0
 14  5  1  0
 15 13  1  0
 15 19  1  0
 16 15  2  0
 17 18  2  0
 17 11  1  0
 18  8  1  0
 20 21  1  6
 20 19  1  0
 20 31  1  0
 22 21  1  0
 22 23  2  0
 24 23  1  0
 25 30  2  0
 25 24  1  0
 26 25  1  0
 27 28  1  0
 27 26  2  0
 28 29  2  0
 29 30  1  0
 30 22  1  0
 31 32  1  0
 33 31  2  0
M  END
$$$$
