CYW.pdb
     RDKit          3D

 33 35  0  0  1  0  0  0  0  0999 V2000
   30.9281  -25.5718  -17.1854 N   0  0  0  0  0  0  0  0  0  0  0  0
   29.8430  -24.6642  -16.7665 C   0  0  1  0  0  0  0  0  0  0  0  0
   30.2088  -23.3284  -17.4068 C   0  0  0  0  0  0  0  0  0  0  0  0
   28.9593  -22.1009  -16.9970 S   0  0  0  0  0  0  0  0  0  0  0  0
   28.5840  -25.2161  -17.2658 C   0  0  0  0  0  0  0  0  0  0  0  0
   28.5264  -25.6773  -18.4541 O   0  0  0  0  0  0  0  0  0  0  0  0
   28.1929  -31.8687  -16.9596 O   0  0  0  0  0  0  0  0  0  0  0  0
   27.5435  -30.6340  -16.7957 C   0  0  0  0  0  0  0  0  0  0  0  0
   26.4320  -30.3173  -17.5526 C   0  0  0  0  0  0  0  0  0  0  0  0
   25.8202  -29.0982  -17.3657 C   0  0  0  0  0  0  0  0  0  0  0  0
   26.2763  -28.1827  -16.4513 C   0  0  0  0  0  0  0  0  0  0  0  0
   25.5998  -26.9047  -16.2833 C   0  0  0  0  0  0  0  0  0  0  0  0
   26.1536  -25.7971  -17.1515 C   0  0  2  0  0  0  0  0  0  0  0  0
   27.3794  -25.2927  -16.5347 N   0  0  0  0  0  0  0  0  0  0  0  0
   25.1967  -24.7116  -17.4218 C   0  0  0  0  0  0  0  0  0  0  0  0
   24.9395  -23.8126  -16.5541 O   0  0  0  0  0  0  0  0  0  0  0  0
   27.3779  -28.4913  -15.6978 C   0  0  0  0  0  0  0  0  0  0  0  0
   27.9828  -29.7024  -15.8861 C   0  0  0  0  0  0  0  0  0  0  0  0
   24.5063  -24.5967  -18.6563 N   0  0  0  0  0  0  0  0  0  0  0  0
   23.5488  -23.5000  -18.9294 C   0  0  1  0  0  0  0  0  0  0  0  0
   24.1041  -22.8409  -20.1692 C   0  0  0  0  0  0  0  0  0  0  0  0
   23.3797  -21.6893  -20.6768 C   0  0  0  0  0  0  0  0  0  0  0  0
   23.1334  -20.5119  -20.0149 C   0  0  0  0  0  0  0  0  0  0  0  0
   22.4087  -19.6836  -20.7901 N   0  0  0  0  0  0  0  0  0  0  0  0
   22.1844  -20.3282  -21.9620 C   0  0  0  0  0  0  0  0  0  0  0  0
   21.5135  -19.9338  -23.0978 C   0  0  0  0  0  0  0  0  0  0  0  0
   21.4139  -20.7513  -24.2045 C   0  0  0  0  0  0  0  0  0  0  0  0
   22.0116  -22.0023  -24.1557 C   0  0  0  0  0  0  0  0  0  0  0  0
   22.6757  -22.3830  -23.0191 C   0  0  0  0  0  0  0  0  0  0  0  0
   22.7751  -21.5671  -21.9130 C   0  0  0  0  0  0  0  0  0  0  0  0
   22.1748  -23.9457  -18.9850 C   0  0  0  0  0  0  0  0  0  0  0  0
   21.1346  -23.0956  -18.6533 O   0  0  0  0  0  0  0  0  0  0  0  0
   21.8806  -25.1164  -19.3309 O   0  0  0  0  0  0  0  0  0  0  0  0
  2  3  1  0
  2  1  1  6
  3  4  1  0
  5  2  1  0
  6  5  2  0
  8  7  1  0
  8  9  2  0
 10  9  1  0
 11 10  2  0
 12 11  1  0
 13 12  1  1
 13 14  1  0
 14  5  1  0
 15 13  1  0
 15 19  1  0
 16 15  2  0
 17 18  2  0
 17 11  1  0
 18  8  1  0
 20 21  1  6
 20 19  1  0
 20 31  1  0
 22 21  1  0
 22 23  2  0
 24 23  1  0
 25 30  2  0
 25 24  1  0
 26 25  1  0
 27 28  1  0
 27 26  2  0
 28 29  2  0
 29 30  1  0
 30 22  1  0
 31 32  1  0
 33 31  2  0
M  END
$$$$
