CYW.pdb
     RDKit          3D

 33 35  0  0  1  0  0  0  0  0999 V2000
   29.2262  -18.6790  -17.7765 N   0  0  0  0  0  0  0  0  0  0  0  0
   28.5519  -19.8339  -17.1535 C   0  0  1  0  0  0  0  0  0  0  0  0
   29.6086  -20.9343  -17.1713 C   0  0  0  0  0  0  0  0  0  0  0  0
   29.5075  -21.8426  -18.7208 S   0  0  0  0  0  0  0  0  0  0  0  0
   28.1534  -19.4404  -15.8024 C   0  0  0  0  0  0  0  0  0  0  0  0
   28.9019  -18.6570  -15.1285 O   0  0  0  0  0  0  0  0  0  0  0  0
   25.7855  -13.9091  -16.9670 O   0  0  0  0  0  0  0  0  0  0  0  0
   25.6913  -15.0705  -16.1827 C   0  0  0  0  0  0  0  0  0  0  0  0
   26.0896  -15.0609  -14.8599 C   0  0  0  0  0  0  0  0  0  0  0  0
   25.9833  -16.2173  -14.1204 C   0  0  0  0  0  0  0  0  0  0  0  0
   25.4940  -17.3837  -14.6518 C   0  0  0  0  0  0  0  0  0  0  0  0
   25.3966  -18.5850  -13.8354 C   0  0  0  0  0  0  0  0  0  0  0  0
   26.6684  -19.4022  -13.7897 C   0  0  2  0  0  0  0  0  0  0  0  0
   26.9766  -19.8573  -15.1445 N   0  0  0  0  0  0  0  0  0  0  0  0
   26.6265  -20.5241  -12.8376 C   0  0  0  0  0  0  0  0  0  0  0  0
   26.2002  -21.6772  -13.1780 O   0  0  0  0  0  0  0  0  0  0  0  0
   25.0973  -17.3993  -15.9628 C   0  0  0  0  0  0  0  0  0  0  0  0
   25.2044  -16.2494  -16.6941 C   0  0  0  0  0  0  0  0  0  0  0  0
   27.0562  -20.3951  -11.4913 N   0  0  0  0  0  0  0  0  0  0  0  0
   26.7881  -21.4349  -10.4710 C   0  0  1  0  0  0  0  0  0  0  0  0
   27.9398  -21.2933   -9.5049 C   0  0  0  0  0  0  0  0  0  0  0  0
   27.7273  -20.4287   -8.3578 C   0  0  0  0  0  0  0  0  0  0  0  0
   26.7931  -19.4295   -8.2392 C   0  0  0  0  0  0  0  0  0  0  0  0
   26.9083  -18.8225   -7.0433 N   0  0  0  0  0  0  0  0  0  0  0  0
   27.9234  -19.4325   -6.3823 C   0  0  0  0  0  0  0  0  0  0  0  0
   28.4466  -19.2143   -5.1276 C   0  0  0  0  0  0  0  0  0  0  0  0
   29.4880  -19.9714   -4.6321 C   0  0  0  0  0  0  0  0  0  0  0  0
   30.0113  -20.9763   -5.4327 C   0  0  0  0  0  0  0  0  0  0  0  0
   29.4821  -21.1827   -6.6797 C   0  0  0  0  0  0  0  0  0  0  0  0
   28.4422  -20.4264   -7.1756 C   0  0  0  0  0  0  0  0  0  0  0  0
   25.4555  -21.3568   -9.9163 C   0  0  0  0  0  0  0  0  0  0  0  0
   24.8992  -22.4290   -9.2415 O   0  0  0  0  0  0  0  0  0  0  0  0
   24.7591  -20.3183  -10.0317 O   0  0  0  0  0  0  0  0  0  0  0  0
  2  3  1  0
  2  1  1  1
  3  4  1  0
  5  2  1  0
  6  5  2  0
  8  7  1  0
  8  9  2  0
 10  9  1  0
 11 10  2  0
 12 11  1  0
 13 12  1  6
 13 14  1  0
 14  5  1  0
 15 13  1  0
 15 19  1  0
 16 15  2  0
 17 18  2  0
 17 11  1  0
 18  8  1  0
 20 21  1  1
 20 19  1  0
 20 31  1  0
 22 21  1  0
 22 23  2  0
 24 23  1  0
 25 30  2  0
 25 24  1  0
 26 25  1  0
 27 28  1  0
 27 26  2  0
 28 29  2  0
 29 30  1  0
 30 22  1  0
 31 32  1  0
 33 31  2  0
M  END
$$$$
