CYW.pdb
     RDKit          3D

 33 35  0  0  1  0  0  0  0  0999 V2000
   30.3976  -22.8652  -18.8204 N   0  0  0  0  0  0  0  0  0  0  0  0
   29.9022  -23.3685  -17.5251 C   0  0  1  0  0  0  0  0  0  0  0  0
   31.1615  -23.5076  -16.6750 C   0  0  0  0  0  0  0  0  0  0  0  0
   32.0565  -24.9905  -17.1609 S   0  0  0  0  0  0  0  0  0  0  0  0
   28.9575  -22.3845  -16.9976 C   0  0  0  0  0  0  0  0  0  0  0  0
   28.8455  -21.2497  -17.5701 O   0  0  0  0  0  0  0  0  0  0  0  0
   21.9492  -17.8021  -15.6238 O   0  0  0  0  0  0  0  0  0  0  0  0
   23.0205  -18.6699  -15.8923 C   0  0  0  0  0  0  0  0  0  0  0  0
   24.1993  -18.1884  -16.4280 C   0  0  0  0  0  0  0  0  0  0  0  0
   25.2290  -19.0673  -16.6784 C   0  0  0  0  0  0  0  0  0  0  0  0
   25.1263  -20.4096  -16.4140 C   0  0  0  0  0  0  0  0  0  0  0  0
   26.2393  -21.3058  -16.6923 C   0  0  0  0  0  0  0  0  0  0  0  0
   27.1279  -21.5719  -15.4977 C   0  0  2  0  0  0  0  0  0  0  0  0
   28.1244  -22.5733  -15.8743 N   0  0  0  0  0  0  0  0  0  0  0  0
   26.3966  -21.9657  -14.2823 C   0  0  0  0  0  0  0  0  0  0  0  0
   26.5577  -23.1109  -13.7440 O   0  0  0  0  0  0  0  0  0  0  0  0
   23.9600  -20.8929  -15.8826 C   0  0  0  0  0  0  0  0  0  0  0  0
   22.9397  -20.0175  -15.6354 C   0  0  0  0  0  0  0  0  0  0  0  0
   25.4744  -21.1019  -13.6364 N   0  0  0  0  0  0  0  0  0  0  0  0
   25.1437  -21.2287  -12.1982 C   0  0  1  0  0  0  0  0  0  0  0  0
   26.4871  -21.1467  -11.5137 C   0  0  0  0  0  0  0  0  0  0  0  0
   26.4820  -20.7908  -10.1059 C   0  0  0  0  0  0  0  0  0  0  0  0
   25.4057  -20.3689   -9.3652 C   0  0  0  0  0  0  0  0  0  0  0  0
   25.7844  -20.1043   -8.1008 N   0  0  0  0  0  0  0  0  0  0  0  0
   27.1145  -20.3567   -8.0214 C   0  0  0  0  0  0  0  0  0  0  0  0
   27.9917  -20.2640   -6.9644 C   0  0  0  0  0  0  0  0  0  0  0  0
   29.3260  -20.5890   -7.0958 C   0  0  0  0  0  0  0  0  0  0  0  0
   29.7806  -21.0194   -8.3339 C   0  0  0  0  0  0  0  0  0  0  0  0
   28.8974  -21.1066   -9.3780 C   0  0  0  0  0  0  0  0  0  0  0  0
   27.5645  -20.7816   -9.2476 C   0  0  0  0  0  0  0  0  0  0  0  0
   24.1298  -20.2945  -11.7635 C   0  0  0  0  0  0  0  0  0  0  0  0
   23.1316  -20.6813  -10.8869 O   0  0  0  0  0  0  0  0  0  0  0  0
   24.1188  -19.1061  -12.1689 O   0  0  0  0  0  0  0  0  0  0  0  0
  2  3  1  0
  2  1  1  6
  3  4  1  0
  5  2  1  0
  6  5  2  0
  8  7  1  0
  8  9  2  0
 10  9  1  0
 11 10  2  0
 12 11  1  0
 13 12  1  6
 13 14  1  0
 14  5  1  0
 15 13  1  0
 15 19  1  0
 16 15  2  0
 17 18  2  0
 17 11  1  0
 18  8  1  0
 20 21  1  1
 20 19  1  0
 20 31  1  0
 22 21  1  0
 22 23  2  0
 24 23  1  0
 25 30  2  0
 25 24  1  0
 26 25  1  0
 27 28  1  0
 27 26  2  0
 28 29  2  0
 29 30  1  0
 30 22  1  0
 31 32  1  0
 33 31  2  0
M  END
$$$$
