CYW.pdb
     RDKit          3D

 33 35  0  0  1  0  0  0  0  0999 V2000
   18.1549  -23.3142  -12.6987 N   0  0  0  0  0  0  0  0  0  0  0  0
   19.0302  -23.7293  -11.5860 C   0  0  1  0  0  0  0  0  0  0  0  0
   20.1781  -22.7249  -11.6224 C   0  0  0  0  0  0  0  0  0  0  0  0
   21.2111  -23.0416  -13.0607 S   0  0  0  0  0  0  0  0  0  0  0  0
   18.2452  -23.6618  -10.3537 C   0  0  0  0  0  0  0  0  0  0  0  0
   17.5272  -22.6331  -10.1205 O   0  0  0  0  0  0  0  0  0  0  0  0
   12.2879  -23.7325   -4.3409 O   0  0  0  0  0  0  0  0  0  0  0  0
   13.2001  -23.8552   -5.4019 C   0  0  0  0  0  0  0  0  0  0  0  0
   13.4312  -25.0821   -5.9934 C   0  0  0  0  0  0  0  0  0  0  0  0
   14.3320  -25.1658   -7.0312 C   0  0  0  0  0  0  0  0  0  0  0  0
   15.0112  -24.0703   -7.5012 C   0  0  0  0  0  0  0  0  0  0  0  0
   15.9548  -24.2011   -8.6020 C   0  0  0  0  0  0  0  0  0  0  0  0
   17.3714  -24.5007   -8.1651 C   0  0  2  0  0  0  0  0  0  0  0  0
   18.2010  -24.6610   -9.3583 N   0  0  0  0  0  0  0  0  0  0  0  0
   17.4888  -25.6588   -7.2639 C   0  0  0  0  0  0  0  0  0  0  0  0
   17.4139  -26.8562   -7.6973 O   0  0  0  0  0  0  0  0  0  0  0  0
   14.7860  -22.8511   -6.9188 C   0  0  0  0  0  0  0  0  0  0  0  0
   13.8912  -22.7717   -5.8886 C   0  0  0  0  0  0  0  0  0  0  0  0
   17.6928  -25.5173   -5.8668 N   0  0  0  0  0  0  0  0  0  0  0  0
   17.6914  -26.6764   -4.9445 C   0  0  1  0  0  0  0  0  0  0  0  0
   18.1873  -26.0969   -3.6413 C   0  0  0  0  0  0  0  0  0  0  0  0
   18.1960  -26.9856   -2.4929 C   0  0  0  0  0  0  0  0  0  0  0  0
   18.8935  -28.1612   -2.3643 C   0  0  0  0  0  0  0  0  0  0  0  0
   18.6366  -28.7281   -1.1708 N   0  0  0  0  0  0  0  0  0  0  0  0
   17.7672  -27.9146   -0.5214 C   0  0  0  0  0  0  0  0  0  0  0  0
   17.1941  -28.0143    0.7264 C   0  0  0  0  0  0  0  0  0  0  0  0
   16.3325  -27.0517    1.2102 C   0  0  0  0  0  0  0  0  0  0  0  0
   16.0459  -25.9590    0.4046 C   0  0  0  0  0  0  0  0  0  0  0  0
   16.6223  -25.8721   -0.8355 C   0  0  0  0  0  0  0  0  0  0  0  0
   17.4827  -26.8336   -1.3196 C   0  0  0  0  0  0  0  0  0  0  0  0
   16.4260  -27.3743   -4.9107 C   0  0  0  0  0  0  0  0  0  0  0  0
   16.3701  -28.7414   -4.7046 O   0  0  0  0  0  0  0  0  0  0  0  0
   15.3392  -26.7660   -5.0709 O   0  0  0  0  0  0  0  0  0  0  0  0
  2  3  1  0
  2  1  1  6
  3  4  1  0
  5  2  1  0
  6  5  2  0
  8  7  1  0
  8  9  2  0
 10  9  1  0
 11 10  2  0
 12 11  1  0
 13 12  1  6
 13 14  1  0
 14  5  1  0
 15 13  1  0
 15 19  1  0
 16 15  2  0
 17 18  2  0
 17 11  1  0
 18  8  1  0
 20 21  1  1
 20 19  1  0
 20 31  1  0
 22 21  1  0
 22 23  2  0
 24 23  1  0
 25 30  2  0
 25 24  1  0
 26 25  1  0
 27 28  1  0
 27 26  2  0
 28 29  2  0
 29 30  1  0
 30 22  1  0
 31 32  1  0
 33 31  2  0
M  END
$$$$
