CYW.pdb
     RDKit          3D

 33 35  0  0  1  0  0  0  0  0999 V2000
   28.8461  -20.4526  -17.3570 N   0  0  0  0  0  0  0  0  0  0  0  0
   28.3062  -21.3395  -16.3090 C   0  0  1  0  0  0  0  0  0  0  0  0
   29.4779  -22.2499  -15.9536 C   0  0  0  0  0  0  0  0  0  0  0  0
   29.6394  -23.5387  -17.1982 S   0  0  0  0  0  0  0  0  0  0  0  0
   27.8726  -20.4979  -15.1941 C   0  0  0  0  0  0  0  0  0  0  0  0
   28.6131  -19.5328  -14.8091 O   0  0  0  0  0  0  0  0  0  0  0  0
   26.4882  -15.0064  -17.6736 O   0  0  0  0  0  0  0  0  0  0  0  0
   26.1555  -15.9768  -16.7141 C   0  0  0  0  0  0  0  0  0  0  0  0
   25.5490  -17.1596  -17.0902 C   0  0  0  0  0  0  0  0  0  0  0  0
   25.2368  -18.0887  -16.1233 C   0  0  0  0  0  0  0  0  0  0  0  0
   25.5074  -17.8814  -14.7944 C   0  0  0  0  0  0  0  0  0  0  0  0
   25.1623  -18.8901  -13.8030 C   0  0  0  0  0  0  0  0  0  0  0  0
   26.3271  -19.7537  -13.3734 C   0  0  2  0  0  0  0  0  0  0  0  0
   26.6689  -20.6532  -14.4742 N   0  0  0  0  0  0  0  0  0  0  0  0
   26.0960  -20.4930  -12.1215 C   0  0  0  0  0  0  0  0  0  0  0  0
   25.5689  -21.6546  -12.1160 O   0  0  0  0  0  0  0  0  0  0  0  0
   26.1088  -16.7105  -14.4155 C   0  0  0  0  0  0  0  0  0  0  0  0
   26.4172  -15.7903  -15.3780 C   0  0  0  0  0  0  0  0  0  0  0  0
   26.4439  -19.9646  -10.8513 N   0  0  0  0  0  0  0  0  0  0  0  0
   26.1768  -20.6936   -9.5898 C   0  0  1  0  0  0  0  0  0  0  0  0
   27.2374  -20.1773   -8.6471 C   0  0  0  0  0  0  0  0  0  0  0  0
   27.1139  -20.5611   -7.2521 C   0  0  0  0  0  0  0  0  0  0  0  0
   26.2414  -21.4797   -6.7230 C   0  0  0  0  0  0  0  0  0  0  0  0
   26.3954  -21.5545   -5.3878 N   0  0  0  0  0  0  0  0  0  0  0  0
   27.3744  -20.6791   -5.0494 C   0  0  0  0  0  0  0  0  0  0  0  0
   27.9299  -20.3703   -3.8281 C   0  0  0  0  0  0  0  0  0  0  0  0
   28.9448  -19.4443   -3.7038 C   0  0  0  0  0  0  0  0  0  0  0  0
   29.4074  -18.8157   -4.8509 C   0  0  0  0  0  0  0  0  0  0  0  0
   28.8457  -19.1315   -6.0602 C   0  0  0  0  0  0  0  0  0  0  0  0
   27.8313  -20.0560   -6.1849 C   0  0  0  0  0  0  0  0  0  0  0  0
   24.8036  -20.5866   -9.1513 C   0  0  0  0  0  0  0  0  0  0  0  0
   24.2059  -21.6000   -8.4230 O   0  0  0  0  0  0  0  0  0  0  0  0
   24.1084  -19.5759   -9.4194 O   0  0  0  0  0  0  0  0  0  0  0  0
  2  3  1  0
  2  1  1  6
  3  4  1  0
  5  2  1  0
  6  5  2  0
  8  7  1  0
  8  9  2  0
 10  9  1  0
 11 10  2  0
 12 11  1  0
 13 12  1  6
 13 14  1  0
 14  5  1  0
 15 13  1  0
 15 19  1  0
 16 15  2  0
 17 18  2  0
 17 11  1  0
 18  8  1  0
 20 21  1  1
 20 19  1  0
 20 31  1  0
 22 21  1  0
 22 23  2  0
 24 23  1  0
 25 30  2  0
 25 24  1  0
 26 25  1  0
 27 28  1  0
 27 26  2  0
 28 29  2  0
 29 30  1  0
 30 22  1  0
 31 32  1  0
 33 31  2  0
M  END
$$$$
