NIS.pdb
     RDKit          3D

 23 22  0  0  1  0  0  0  0  0999 V2000
   27.4125  -41.2303   -8.9320 N   0  0  0  0  0  0  0  0  0  0  0  0
   26.9118  -39.9446   -8.5823 C   0  0  0  0  0  0  0  0  0  0  0  0
   25.7725  -39.6391   -9.0225 O   0  0  0  0  0  0  0  0  0  0  0  0
   27.6985  -38.9900   -7.7281 C   0  0  0  0  0  0  0  0  0  0  0  0
   27.6929  -37.6701   -8.4192 C   0  0  2  0  0  0  0  0  0  0  0  0
   28.6982  -37.6444   -9.4573 N   0  0  0  0  0  0  0  0  0  0  0  0
   27.7354  -36.5045   -7.5362 C   0  0  0  0  0  0  0  0  0  0  0  0
   28.8494  -36.2569   -6.9739 O   0  0  0  0  0  0  0  0  0  0  0  0
   25.1024  -31.6191   -8.3495 C   0  0  0  0  0  0  0  0  0  0  0  0
   26.0140  -32.7570   -8.0454 C   0  0  0  0  0  0  0  0  0  0  0  0
   25.8615  -33.3580   -6.6813 C   0  0  2  0  0  0  0  0  0  0  0  0
   26.2280  -32.2352   -5.6997 C   0  0  0  0  0  0  0  0  0  0  0  0
   26.8078  -34.5065   -6.4110 C   0  0  2  0  0  0  0  0  0  0  0  0
   26.6345  -35.6353   -7.2616 N   0  0  0  0  0  0  0  0  0  0  0  0
   26.5174  -34.9424   -4.9985 C   0  0  0  0  0  0  0  0  0  0  0  0
   25.4345  -35.5347   -4.7323 O   0  0  0  0  0  0  0  0  0  0  0  0
   28.2061  -35.2661   -0.4730 O   0  0  0  0  0  0  0  0  0  0  0  0
   28.4654  -34.7601   -1.7412 C   0  0  0  0  0  0  0  0  0  0  0  0
   27.2508  -35.0169   -2.6073 C   0  0  2  0  0  0  0  0  0  0  0  0
   27.4739  -34.6774   -3.9832 N   0  0  0  0  0  0  0  0  0  0  0  0
   26.0477  -34.3637   -2.0434 C   0  0  0  0  0  0  0  0  0  0  0  0
   25.8457  -33.1552   -2.3215 O   0  0  0  0  0  0  0  0  0  0  0  0
   25.1265  -35.0008   -1.2260 O   0  0  0  0  0  0  0  0  0  0  0  0
  2  1  1  0
  3  2  2  0
  4  2  1  0
  4  5  1  0
  5  6  1  6
  7 14  1  0
  7  5  1  0
  8  7  2  0
 10  9  1  0
 11 10  1  0
 11 12  1  1
 13 14  1  6
 13 11  1  0
 15 13  1  0
 16 15  2  0
 17 18  1  0
 19 18  1  1
 19 20  1  0
 20 15  1  0
 21 19  1  0
 21 23  1  0
 22 21  2  0
M  END
$$$$
