NIS.pdb
     RDKit          3D

 23 22  0  0  1  0  0  0  0  0999 V2000
   21.7196  -16.1042  -19.4190 N   0  0  0  0  0  0  0  0  0  0  0  0
   21.0101  -14.8795  -19.5698 C   0  0  0  0  0  0  0  0  0  0  0  0
   20.1436  -14.8329  -20.4820 O   0  0  0  0  0  0  0  0  0  0  0  0
   21.2756  -13.6926  -18.6863 C   0  0  0  0  0  0  0  0  0  0  0  0
   22.3483  -14.0843  -17.7295 C   0  0  2  0  0  0  0  0  0  0  0  0
   21.9217  -15.2128  -16.9337 N   0  0  0  0  0  0  0  0  0  0  0  0
   22.9066  -12.9886  -16.9370 C   0  0  0  0  0  0  0  0  0  0  0  0
   22.2522  -12.6442  -15.9019 O   0  0  0  0  0  0  0  0  0  0  0  0
   28.1476  -12.4336  -15.5410 C   0  0  0  0  0  0  0  0  0  0  0  0
   26.6593  -12.3916  -15.5772 C   0  0  0  0  0  0  0  0  0  0  0  0
   26.0642  -11.1661  -16.2013 C   0  0  2  0  0  0  0  0  0  0  0  0
   26.3421  -10.0288  -15.2074 C   0  0  0  0  0  0  0  0  0  0  0  0
   24.5641  -11.2391  -16.3799 C   0  0  2  0  0  0  0  0  0  0  0  0
   24.1152  -12.2860  -17.2345 N   0  0  0  0  0  0  0  0  0  0  0  0
   24.1701   -9.9277  -17.0082 C   0  0  0  0  0  0  0  0  0  0  0  0
   24.7356   -9.5428  -18.0695 O   0  0  0  0  0  0  0  0  0  0  0  0
   20.6207   -8.0666  -15.8265 O   0  0  0  0  0  0  0  0  0  0  0  0
   21.1609   -7.9112  -17.0975 C   0  0  0  0  0  0  0  0  0  0  0  0
   22.6694   -7.9258  -16.9724 C   0  0  2  0  0  0  0  0  0  0  0  0
   23.1619   -9.1412  -16.3909 N   0  0  0  0  0  0  0  0  0  0  0  0
   23.1567   -6.7162  -16.2714 C   0  0  0  0  0  0  0  0  0  0  0  0
   23.7673   -6.8686  -15.1839 O   0  0  0  0  0  0  0  0  0  0  0  0
   22.9828   -5.4222  -16.7383 O   0  0  0  0  0  0  0  0  0  0  0  0
  2  1  1  0
  3  2  2  0
  4  2  1  0
  4  5  1  0
  5  6  1  1
  7 14  1  0
  7  5  1  0
  8  7  2  0
 10  9  1  0
 11 10  1  0
 11 12  1  1
 13 14  1  6
 13 11  1  0
 15 13  1  0
 16 15  2  0
 17 18  1  0
 19 18  1  1
 19 20  1  0
 20 15  1  0
 21 19  1  0
 21 23  1  0
 22 21  2  0
M  END
$$$$
