NIS.pdb
     RDKit          3D

 23 22  0  0  1  0  0  0  0  0999 V2000
   29.2494  -19.8926  -17.1748 N   0  0  0  0  0  0  0  0  0  0  0  0
   28.3341  -18.8608  -16.8229 C   0  0  0  0  0  0  0  0  0  0  0  0
   28.2410  -17.8882  -17.6168 O   0  0  0  0  0  0  0  0  0  0  0  0
   27.5130  -18.9210  -15.5652 C   0  0  0  0  0  0  0  0  0  0  0  0
   27.8077  -20.2244  -14.9062 C   0  0  2  0  0  0  0  0  0  0  0  0
   28.3694  -21.1524  -15.8612 N   0  0  0  0  0  0  0  0  0  0  0  0
   26.7094  -20.7877  -14.1210 C   0  0  0  0  0  0  0  0  0  0  0  0
   26.0272  -21.7075  -14.6751 O   0  0  0  0  0  0  0  0  0  0  0  0
   26.5853  -20.2716   -8.6834 C   0  0  0  0  0  0  0  0  0  0  0  0
   26.2412  -21.1222   -9.8566 C   0  0  0  0  0  0  0  0  0  0  0  0
   25.0879  -20.6424  -10.6843 C   0  0  2  0  0  0  0  0  0  0  0  0
   23.8658  -21.4122  -10.1626 C   0  0  0  0  0  0  0  0  0  0  0  0
   25.2171  -20.9651  -12.1563 C   0  0  2  0  0  0  0  0  0  0  0  0
   26.3505  -20.3877  -12.7966 N   0  0  0  0  0  0  0  0  0  0  0  0
   23.9808  -20.3960  -12.8023 C   0  0  0  0  0  0  0  0  0  0  0  0
   23.8210  -19.1450  -12.8630 O   0  0  0  0  0  0  0  0  0  0  0  0
   20.2725  -21.1449  -15.7271 O   0  0  0  0  0  0  0  0  0  0  0  0
   21.4003  -21.7045  -15.1387 C   0  0  0  0  0  0  0  0  0  0  0  0
   21.8155  -20.8200  -13.9825 C   0  0  2  0  0  0  0  0  0  0  0  0
   23.0091  -21.2835  -13.3356 N   0  0  0  0  0  0  0  0  0  0  0  0
   20.6933  -20.6172  -13.0383 C   0  0  0  0  0  0  0  0  0  0  0  0
   20.5716  -21.4237  -12.0825 O   0  0  0  0  0  0  0  0  0  0  0  0
   19.7652  -19.5921  -13.1402 O   0  0  0  0  0  0  0  0  0  0  0  0
  2  1  1  0
  3  2  2  0
  4  2  1  0
  4  5  1  0
  5  6  1  6
  7 14  1  0
  7  5  1  0
  8  7  2  0
 10  9  1  0
 11 10  1  0
 11 12  1  1
 13 14  1  6
 13 11  1  0
 15 13  1  0
 16 15  2  0
 17 18  1  0
 19 18  1  6
 19 20  1  0
 20 15  1  0
 21 19  1  0
 21 23  1  0
 22 21  2  0
M  END
$$$$
