NIS.pdb
     RDKit          3D

 23 22  0  0  1  0  0  0  0  0999 V2000
   29.0569   -7.3037  -20.7842 N   0  0  0  0  0  0  0  0  0  0  0  0
   27.8667   -6.5334  -20.9114 C   0  0  0  0  0  0  0  0  0  0  0  0
   27.9787   -5.3972  -21.4421 O   0  0  0  0  0  0  0  0  0  0  0  0
   26.5345   -7.0439  -20.4379 C   0  0  0  0  0  0  0  0  0  0  0  0
   26.7692   -8.3717  -19.8041 C   0  0  2  0  0  0  0  0  0  0  0  0
   27.1143   -9.3519  -20.8087 N   0  0  0  0  0  0  0  0  0  0  0  0
   25.7199   -8.8189  -18.8880 C   0  0  0  0  0  0  0  0  0  0  0  0
   24.7344   -9.4327  -19.4079 O   0  0  0  0  0  0  0  0  0  0  0  0
   27.3259  -10.6527  -15.6918 C   0  0  0  0  0  0  0  0  0  0  0  0
   25.9079  -10.8290  -15.2716 C   0  0  0  0  0  0  0  0  0  0  0  0
   25.0714   -9.5859  -15.2887 C   0  0  2  0  0  0  0  0  0  0  0  0
   23.7837   -9.9528  -14.5367 C   0  0  0  0  0  0  0  0  0  0  0  0
   24.6616   -9.1451  -16.6763 C   0  0  2  0  0  0  0  0  0  0  0  0
   25.7192   -8.6206  -17.4726 N   0  0  0  0  0  0  0  0  0  0  0  0
   23.6514   -8.0472  -16.4670 C   0  0  0  0  0  0  0  0  0  0  0  0
   24.0263   -6.9198  -16.0393 O   0  0  0  0  0  0  0  0  0  0  0  0
   19.3736   -6.2831  -17.5809 O   0  0  0  0  0  0  0  0  0  0  0  0
   20.2810   -7.3180  -17.7735 C   0  0  0  0  0  0  0  0  0  0  0  0
   21.2704   -7.2951  -16.6280 C   0  0  2  0  0  0  0  0  0  0  0  0
   22.2848   -8.3013  -16.7565 N   0  0  0  0  0  0  0  0  0  0  0  0
   20.5739   -7.3465  -15.3225 C   0  0  0  0  0  0  0  0  0  0  0  0
   20.3683   -8.4732  -14.8058 O   0  0  0  0  0  0  0  0  0  0  0  0
   20.1324   -6.2289  -14.6307 O   0  0  0  0  0  0  0  0  0  0  0  0
  2  1  1  0
  3  2  2  0
  4  2  1  0
  4  5  1  0
  5  6  1  6
  7 14  1  0
  7  5  1  0
  8  7  2  0
 10  9  1  0
 11 10  1  0
 11 12  1  1
 13 14  1  6
 13 11  1  0
 15 13  1  0
 16 15  2  0
 17 18  1  0
 19 18  1  6
 19 20  1  0
 20 15  1  0
 21 19  1  0
 21 23  1  0
 22 21  2  0
M  END
$$$$
