NIS.pdb
     RDKit          3D

 23 22  0  0  1  0  0  0  0  0999 V2000
   24.2488  -14.9365  -21.8198 N   0  0  0  0  0  0  0  0  0  0  0  0
   23.2205  -13.9681  -21.6434 C   0  0  0  0  0  0  0  0  0  0  0  0
   22.4579  -13.7635  -22.6240 O   0  0  0  0  0  0  0  0  0  0  0  0
   23.0455  -13.2204  -20.3512 C   0  0  0  0  0  0  0  0  0  0  0  0
   24.1162  -13.6825  -19.4239 C   0  0  2  0  0  0  0  0  0  0  0  0
   23.9385  -15.0826  -19.1123 N   0  0  0  0  0  0  0  0  0  0  0  0
   24.3230  -12.8432  -18.2436 C   0  0  0  0  0  0  0  0  0  0  0  0
   23.4239  -12.8936  -17.3450 O   0  0  0  0  0  0  0  0  0  0  0  0
   27.4350  -12.9776  -15.0860 C   0  0  0  0  0  0  0  0  0  0  0  0
   27.8209  -12.0786  -16.2090 C   0  0  0  0  0  0  0  0  0  0  0  0
   26.9463  -10.8774  -16.4025 C   0  0  2  0  0  0  0  0  0  0  0  0
   26.8473  -10.2200  -15.0182 C   0  0  0  0  0  0  0  0  0  0  0  0
   25.5357  -11.2125  -16.8336 C   0  0  2  0  0  0  0  0  0  0  0  0
   25.4438  -11.9829  -18.0276 N   0  0  0  0  0  0  0  0  0  0  0  0
   24.8671   -9.8863  -17.0859 C   0  0  0  0  0  0  0  0  0  0  0  0
   25.4443   -9.0145  -17.7939 O   0  0  0  0  0  0  0  0  0  0  0  0
   21.0000   -7.3470  -17.6471 O   0  0  0  0  0  0  0  0  0  0  0  0
   21.5721   -8.5979  -17.4490 C   0  0  0  0  0  0  0  0  0  0  0  0
   22.8842   -8.4047  -16.7193 C   0  0  2  0  0  0  0  0  0  0  0  0
   23.5894   -9.6377  -16.5185 N   0  0  0  0  0  0  0  0  0  0  0  0
   22.6877   -7.6454  -15.4635 C   0  0  0  0  0  0  0  0  0  0  0  0
   22.5956   -8.2917  -14.3900 O   0  0  0  0  0  0  0  0  0  0  0  0
   22.5986   -6.2634  -15.3948 O   0  0  0  0  0  0  0  0  0  0  0  0
  2  1  1  0
  3  2  2  0
  4  2  1  0
  4  5  1  0
  5  6  1  1
  7 14  1  0
  7  5  1  0
  8  7  2  0
 10  9  1  0
 11 10  1  0
 11 12  1  1
 13 14  1  6
 13 11  1  0
 15 13  1  0
 16 15  2  0
 17 18  1  0
 19 18  1  1
 19 20  1  0
 20 15  1  0
 21 19  1  0
 21 23  1  0
 22 21  2  0
M  END
$$$$
