NIS.pdb
     RDKit          3D

 23 22  0  0  1  0  0  0  0  0999 V2000
   16.2708   -9.4942  -19.4015 N   0  0  0  0  0  0  0  0  0  0  0  0
   15.4199   -9.5681  -18.2628 C   0  0  0  0  0  0  0  0  0  0  0  0
   14.1805   -9.6055  -18.4806 O   0  0  0  0  0  0  0  0  0  0  0  0
   15.9661   -9.6006  -16.8626 C   0  0  0  0  0  0  0  0  0  0  0  0
   17.2110  -10.4185  -16.8921 C   0  0  2  0  0  0  0  0  0  0  0  0
   16.8888  -11.8243  -16.7994 N   0  0  0  0  0  0  0  0  0  0  0  0
   18.2560   -9.9962  -15.9594 C   0  0  0  0  0  0  0  0  0  0  0  0
   17.9686  -10.0488  -14.7212 O   0  0  0  0  0  0  0  0  0  0  0  0
   24.0457  -10.2927  -14.2634 C   0  0  0  0  0  0  0  0  0  0  0  0
   22.8079   -9.4702  -14.3614 C   0  0  0  0  0  0  0  0  0  0  0  0
   21.7832   -9.9617  -15.3380 C   0  0  2  0  0  0  0  0  0  0  0  0
   22.4178   -9.7699  -16.7232 C   0  0  0  0  0  0  0  0  0  0  0  0
   20.4980   -9.1643  -15.3273 C   0  0  2  0  0  0  0  0  0  0  0  0
   19.5572   -9.5353  -16.3298 N   0  0  0  0  0  0  0  0  0  0  0  0
   20.9085   -7.7375  -15.5831 C   0  0  0  0  0  0  0  0  0  0  0  0
   21.3422   -7.4012  -16.7203 O   0  0  0  0  0  0  0  0  0  0  0  0
   20.2282   -3.2000  -14.6884 O   0  0  0  0  0  0  0  0  0  0  0  0
   19.8772   -4.5183  -14.4229 C   0  0  0  0  0  0  0  0  0  0  0  0
   21.0752   -5.3935  -14.7235 C   0  0  2  0  0  0  0  0  0  0  0  0
   20.7997   -6.7884  -14.5327 N   0  0  0  0  0  0  0  0  0  0  0  0
   22.2685   -4.9371  -13.9753 C   0  0  0  0  0  0  0  0  0  0  0  0
   22.5039   -5.4640  -12.8592 O   0  0  0  0  0  0  0  0  0  0  0  0
   23.1458   -3.9633  -14.4274 O   0  0  0  0  0  0  0  0  0  0  0  0
  2  1  1  0
  3  2  2  0
  4  2  1  0
  4  5  1  0
  5  6  1  1
  7 14  1  0
  7  5  1  0
  8  7  2  0
 10  9  1  0
 11 10  1  0
 11 12  1  6
 13 14  1  6
 13 11  1  0
 15 13  1  0
 16 15  2  0
 17 18  1  0
 19 18  1  1
 19 20  1  0
 20 15  1  0
 21 19  1  0
 21 23  1  0
 22 21  2  0
M  END
$$$$
