NIS.pdb
     RDKit          3D

 23 22  0  0  1  0  0  0  0  0999 V2000
   26.9236  -20.6694  -15.7993 N   0  0  0  0  0  0  0  0  0  0  0  0
   26.5134  -22.0299  -15.7151 C   0  0  0  0  0  0  0  0  0  0  0  0
   25.4455  -22.2642  -15.0909 O   0  0  0  0  0  0  0  0  0  0  0  0
   27.3109  -23.1410  -16.3389 C   0  0  0  0  0  0  0  0  0  0  0  0
   28.5848  -22.5476  -16.8338 C   0  0  2  0  0  0  0  0  0  0  0  0
   28.3131  -21.5484  -17.8421 N   0  0  0  0  0  0  0  0  0  0  0  0
   29.6093  -23.5137  -17.2302 C   0  0  0  0  0  0  0  0  0  0  0  0
   29.6572  -23.8181  -18.4645 O   0  0  0  0  0  0  0  0  0  0  0  0
   34.4018  -25.9692  -17.7582 C   0  0  0  0  0  0  0  0  0  0  0  0
   33.6732  -26.2908  -16.4997 C   0  0  0  0  0  0  0  0  0  0  0  0
   32.7392  -25.2280  -16.0062 C   0  0  2  0  0  0  0  0  0  0  0  0
   32.2828  -25.7013  -14.6184 C   0  0  0  0  0  0  0  0  0  0  0  0
   31.4940  -25.0700  -16.8500 C   0  0  2  0  0  0  0  0  0  0  0  0
   30.5473  -24.1327  -16.3470 N   0  0  0  0  0  0  0  0  0  0  0  0
   30.8407  -26.4275  -16.8601 C   0  0  0  0  0  0  0  0  0  0  0  0
   30.1374  -26.7952  -15.8780 O   0  0  0  0  0  0  0  0  0  0  0  0
   29.9998  -28.5305  -20.3910 O   0  0  0  0  0  0  0  0  0  0  0  0
   29.3652  -28.6417  -19.1596 C   0  0  0  0  0  0  0  0  0  0  0  0
   30.4221  -28.5728  -18.0780 C   0  0  2  0  0  0  0  0  0  0  0  0
   31.0287  -27.2764  -17.9827 N   0  0  0  0  0  0  0  0  0  0  0  0
   31.4146  -29.6603  -18.2342 C   0  0  0  0  0  0  0  0  0  0  0  0
   32.5291  -29.3756  -18.7397 O   0  0  0  0  0  0  0  0  0  0  0  0
   31.1938  -30.9763  -17.8577 O   0  0  0  0  0  0  0  0  0  0  0  0
  2  1  1  0
  3  2  2  0
  4  2  1  0
  4  5  1  0
  5  6  1  6
  7 14  1  0
  7  5  1  0
  8  7  2  0
 10  9  1  0
 11 10  1  0
 11 12  1  1
 13 14  1  1
 13 11  1  0
 15 13  1  0
 16 15  2  0
 17 18  1  0
 19 18  1  6
 19 20  1  0
 20 15  1  0
 21 19  1  0
 21 23  1  0
 22 21  2  0
M  END
$$$$
