WTP.pdb
     RDKit          3D

 29 31  0  0  1  0  0  0  0  0999 V2000
    6.3922  -16.7071   25.0343 N   0  0  0  0  0  0  0  0  0  0  0  0
    6.9933  -15.6375   24.2698 C   0  0  1  0  0  0  0  0  0  0  0  0
    8.2892  -15.1539   24.8675 C   0  0  0  0  0  0  0  0  0  0  0  0
    8.1107  -14.4510   26.1582 C   0  0  0  0  0  0  0  0  0  0  0  0
    8.6302  -14.7895   27.3901 C   0  0  0  0  0  0  0  0  0  0  0  0
    8.2431  -13.9079   28.3019 N   0  0  0  0  0  0  0  0  0  0  0  0
    7.4689  -12.9648   27.7416 C   0  0  0  0  0  0  0  0  0  0  0  0
    6.8275  -11.8503   28.2443 C   0  0  0  0  0  0  0  0  0  0  0  0
    6.0869  -11.0416   27.4347 C   0  0  0  0  0  0  0  0  0  0  0  0
    5.9806  -11.3477   26.0917 C   0  0  0  0  0  0  0  0  0  0  0  0
    6.6252  -12.4628   25.6006 C   0  0  0  0  0  0  0  0  0  0  0  0
    7.3824  -13.3028   26.3896 C   0  0  0  0  0  0  0  0  0  0  0  0
    7.2148  -16.1090   22.8917 C   0  0  0  0  0  0  0  0  0  0  0  0
    7.0723  -17.3281   22.5682 O   0  0  0  0  0  0  0  0  0  0  0  0
    7.0090  -13.4021   19.9022 C   0  0  0  0  0  0  0  0  0  0  0  0
    8.0749  -14.4629   19.6321 C   0  0  1  0  0  0  0  0  0  0  0  0
    9.2866  -13.9005   19.9306 O   0  0  0  0  0  0  0  0  0  0  0  0
    7.8416  -15.6748   20.5075 C   0  0  2  0  0  0  0  0  0  0  0  0
    7.5936  -15.2256   21.8785 N   0  0  0  0  0  0  0  0  0  0  0  0
    9.0124  -16.5542   20.4763 C   0  0  0  0  0  0  0  0  0  0  0  0
    9.8009  -16.4876   21.4527 O   0  0  0  0  0  0  0  0  0  0  0  0
    9.2944  -17.4534   19.4329 N   0  0  0  0  0  0  0  0  0  0  0  0
    8.4399  -17.5191   18.2344 C   0  0  0  0  0  0  0  0  0  0  0  0
    8.5875  -18.9330   17.7506 C   0  0  0  0  0  0  0  0  0  0  0  0
    9.5624  -19.6026   18.7056 C   0  0  0  0  0  0  0  0  0  0  0  0
   10.3659  -18.3974   19.2014 C   0  0  1  0  0  0  0  0  0  0  0  0
   11.2695  -17.9671   18.0897 C   0  0  0  0  0  0  0  0  0  0  0  0
   12.2446  -18.6789   17.8046 O   0  0  0  0  0  0  0  0  0  0  0  0
   11.0370  -16.8063   17.3866 O   0  0  0  0  0  0  0  0  0  0  0  0
  2  1  1  1
  2  3  1  0
  2 13  1  0
  3  4  1  0
  4 12  1  0
  5  4  2  0
  5  6  1  0
  6  7  1  0
  7  8  1  0
  8  9  2  0
 10  9  1  0
 11 10  2  0
 12  7  2  0
 12 11  1  0
 13 19  1  0
 13 14  2  0
 16 15  1  1
 17 16  1  0
 18 16  1  0
 18 19  1  1
 20 18  1  0
 20 21  2  0
 22 20  1  0
 23 22  1  0
 24 25  1  0
 24 23  1  0
 25 26  1  0
 26 22  1  0
 26 27  1  6
 27 29  1  0
 28 27  2  0
M  END
$$$$
