WTP.pdb
     RDKit          3D

 29 31  0  0  1  0  0  0  0  0999 V2000
    6.5628  -17.4467   23.9287 N   0  0  0  0  0  0  0  0  0  0  0  0
    6.9334  -16.1229   23.4814 C   0  0  1  0  0  0  0  0  0  0  0  0
    7.8738  -15.4304   24.4336 C   0  0  0  0  0  0  0  0  0  0  0  0
    7.1828  -14.7960   25.5789 C   0  0  0  0  0  0  0  0  0  0  0  0
    6.3815  -15.3961   26.5275 C   0  0  0  0  0  0  0  0  0  0  0  0
    5.9485  -14.4895   27.3929 N   0  0  0  0  0  0  0  0  0  0  0  0
    6.4245  -13.2749   27.0753 C   0  0  0  0  0  0  0  0  0  0  0  0
    6.2748  -12.0255   27.6433 C   0  0  0  0  0  0  0  0  0  0  0  0
    6.8845  -10.9317   27.1047 C   0  0  0  0  0  0  0  0  0  0  0  0
    7.6626  -11.0829   25.9732 C   0  0  0  0  0  0  0  0  0  0  0  0
    7.8051  -12.3350   25.4145 C   0  0  0  0  0  0  0  0  0  0  0  0
    7.2036  -13.4628   25.9320 C   0  0  0  0  0  0  0  0  0  0  0  0
    7.5499  -16.2307   22.1478 C   0  0  0  0  0  0  0  0  0  0  0  0
    8.1256  -17.2928   21.7580 O   0  0  0  0  0  0  0  0  0  0  0  0
    8.6057  -12.8208   19.9652 C   0  0  0  0  0  0  0  0  0  0  0  0
    7.8966  -13.9351   19.1972 C   0  0  1  0  0  0  0  0  0  0  0  0
    8.4622  -13.9879   17.9518 O   0  0  0  0  0  0  0  0  0  0  0  0
    8.0849  -15.2601   19.9033 C   0  0  2  0  0  0  0  0  0  0  0  0
    7.5253  -15.1593   21.2522 N   0  0  0  0  0  0  0  0  0  0  0  0
    9.5087  -15.5950   19.9790 C   0  0  0  0  0  0  0  0  0  0  0  0
   10.1517  -15.1314   20.9544 O   0  0  0  0  0  0  0  0  0  0  0  0
   10.1809  -16.3943   19.0378 N   0  0  0  0  0  0  0  0  0  0  0  0
    9.4982  -16.8768   17.8246 C   0  0  0  0  0  0  0  0  0  0  0  0
   10.2048  -18.1577   17.4857 C   0  0  0  0  0  0  0  0  0  0  0  0
   11.2947  -18.3240   18.5322 C   0  0  0  0  0  0  0  0  0  0  0  0
   11.5439  -16.8677   18.9339 C   0  0  1  0  0  0  0  0  0  0  0  0
   12.2881  -16.2102   17.8150 C   0  0  0  0  0  0  0  0  0  0  0  0
   11.6409  -15.6762   16.9014 O   0  0  0  0  0  0  0  0  0  0  0  0
   13.6645  -16.1895   17.7854 O   0  0  0  0  0  0  0  0  0  0  0  0
  2  1  1  1
  2  3  1  0
  2 13  1  0
  3  4  1  0
  4 12  1  0
  5  4  2  0
  5  6  1  0
  6  7  1  0
  7  8  1  0
  8  9  2  0
 10  9  1  0
 11 10  2  0
 12  7  2  0
 12 11  1  0
 13 19  1  0
 13 14  2  0
 16 15  1  1
 17 16  1  0
 18 16  1  0
 18 19  1  1
 20 18  1  0
 20 21  2  0
 22 20  1  0
 23 22  1  0
 24 25  1  0
 24 23  1  0
 25 26  1  0
 26 22  1  0
 26 27  1  6
 27 29  1  0
 28 27  2  0
M  END
$$$$
