WTP.pdb
     RDKit          3D

 29 31  0  0  1  0  0  0  0  0999 V2000
    6.4328  -17.0668   24.9605 N   0  0  0  0  0  0  0  0  0  0  0  0
    7.0266  -15.8674   24.4140 C   0  0  1  0  0  0  0  0  0  0  0  0
    8.2454  -15.4220   25.1801 C   0  0  0  0  0  0  0  0  0  0  0  0
    7.9177  -14.7078   26.4347 C   0  0  0  0  0  0  0  0  0  0  0  0
    8.0281  -15.1689   27.7298 C   0  0  0  0  0  0  0  0  0  0  0  0
    7.6373  -14.2288   28.5795 N   0  0  0  0  0  0  0  0  0  0  0  0
    7.2576  -13.1259   27.9146 C   0  0  0  0  0  0  0  0  0  0  0  0
    6.7802  -11.8964   28.3227 C   0  0  0  0  0  0  0  0  0  0  0  0
    6.4632  -10.9298   27.4153 C   0  0  0  0  0  0  0  0  0  0  0  0
    6.6245  -11.1913   26.0684 C   0  0  0  0  0  0  0  0  0  0  0  0
    7.1020  -12.4222   25.6722 C   0  0  0  0  0  0  0  0  0  0  0  0
    7.4326  -13.4228   26.5615 C   0  0  0  0  0  0  0  0  0  0  0  0
    7.3755  -16.1137   23.0040 C   0  0  0  0  0  0  0  0  0  0  0  0
    7.5183  -17.2877   22.5428 O   0  0  0  0  0  0  0  0  0  0  0  0
    8.6045  -14.1190   18.6040 C   0  0  0  0  0  0  0  0  0  0  0  0
    8.0060  -13.9573   20.0004 C   0  0  1  0  0  0  0  0  0  0  0  0
    6.6953  -13.5982   19.8370 O   0  0  0  0  0  0  0  0  0  0  0  0
    8.0899  -15.2627   20.7609 C   0  0  2  0  0  0  0  0  0  0  0  0
    7.5647  -15.0562   22.1116 N   0  0  0  0  0  0  0  0  0  0  0  0
    9.4800  -15.7183   20.8319 C   0  0  0  0  0  0  0  0  0  0  0  0
   10.2248  -15.1465   21.6673 O   0  0  0  0  0  0  0  0  0  0  0  0
   10.0146  -16.7435   20.0319 N   0  0  0  0  0  0  0  0  0  0  0  0
    9.2388  -17.3245   18.9223 C   0  0  0  0  0  0  0  0  0  0  0  0
    9.7636  -18.7258   18.7965 C   0  0  0  0  0  0  0  0  0  0  0  0
   10.8543  -18.8602   19.8468 C   0  0  0  0  0  0  0  0  0  0  0  0
   11.3013  -17.4036   19.9972 C   0  0  1  0  0  0  0  0  0  0  0  0
   12.0898  -17.0437   18.7780 C   0  0  0  0  0  0  0  0  0  0  0  0
   11.4796  -16.7402   17.7415 O   0  0  0  0  0  0  0  0  0  0  0  0
   13.4666  -17.0442   18.7897 O   0  0  0  0  0  0  0  0  0  0  0  0
  2  1  1  1
  2  3  1  0
  2 13  1  0
  3  4  1  0
  4 12  1  0
  5  4  2  0
  5  6  1  0
  6  7  1  0
  7  8  1  0
  8  9  2  0
 10  9  1  0
 11 10  2  0
 12  7  2  0
 12 11  1  0
 13 19  1  0
 13 14  2  0
 16 15  1  6
 17 16  1  0
 18 16  1  0
 18 19  1  1
 20 18  1  0
 20 21  2  0
 22 20  1  0
 23 22  1  0
 24 25  1  0
 24 23  1  0
 25 26  1  0
 26 22  1  0
 26 27  1  6
 27 29  1  0
 28 27  2  0
M  END
$$$$
