WTP.pdb
     RDKit          3D

 29 31  0  0  1  0  0  0  0  0999 V2000
    6.3772  -16.7559   25.4400 N   0  0  0  0  0  0  0  0  0  0  0  0
    7.0556  -15.7461   24.6591 C   0  0  1  0  0  0  0  0  0  0  0  0
    8.3402  -15.2844   25.2974 C   0  0  0  0  0  0  0  0  0  0  0  0
    8.1271  -14.3992   26.4648 C   0  0  0  0  0  0  0  0  0  0  0  0
    8.7627  -14.4369   27.6881 C   0  0  0  0  0  0  0  0  0  0  0  0
    8.2942  -13.4746   28.4710 N   0  0  0  0  0  0  0  0  0  0  0  0
    7.3507  -12.7672   27.8292 C   0  0  0  0  0  0  0  0  0  0  0  0
    6.5716  -11.6870   28.1928 C   0  0  0  0  0  0  0  0  0  0  0  0
    5.6679  -11.1493   27.3253 C   0  0  0  0  0  0  0  0  0  0  0  0
    5.5348  -11.6988   26.0647 C   0  0  0  0  0  0  0  0  0  0  0  0
    6.3178  -12.7771   25.7124 C   0  0  0  0  0  0  0  0  0  0  0  0
    7.2415  -13.3464   26.5634 C   0  0  0  0  0  0  0  0  0  0  0  0
    7.3228  -16.2887   23.3158 C   0  0  0  0  0  0  0  0  0  0  0  0
    7.2236  -17.5281   23.0603 O   0  0  0  0  0  0  0  0  0  0  0  0
    6.9173  -13.9502   20.0907 C   0  0  0  0  0  0  0  0  0  0  0  0
    8.1577  -14.8337   19.9669 C   0  0  1  0  0  0  0  0  0  0  0  0
    9.2415  -14.0471   20.2499 O   0  0  0  0  0  0  0  0  0  0  0  0
    8.0844  -15.9806   20.9512 C   0  0  2  0  0  0  0  0  0  0  0  0
    7.6992  -15.4536   22.2615 N   0  0  0  0  0  0  0  0  0  0  0  0
    9.3840  -16.6492   21.0464 C   0  0  0  0  0  0  0  0  0  0  0  0
   10.1276  -16.3152   22.0031 O   0  0  0  0  0  0  0  0  0  0  0  0
    9.8343  -17.6278   20.1429 N   0  0  0  0  0  0  0  0  0  0  0  0
    9.0602  -17.9600   18.9342 C   0  0  0  0  0  0  0  0  0  0  0  0
    9.4139  -19.3911   18.6487 C   0  0  0  0  0  0  0  0  0  0  0  0
   10.4149  -19.7963   19.7186 C   0  0  0  0  0  0  0  0  0  0  0  0
   11.0291  -18.4407   20.0777 C   0  0  1  0  0  0  0  0  0  0  0  0
   11.9275  -18.0378   18.9515 C   0  0  0  0  0  0  0  0  0  0  0  0
   13.0393  -18.5790   18.8529 O   0  0  0  0  0  0  0  0  0  0  0  0
   11.5424  -17.0865   18.0336 O   0  0  0  0  0  0  0  0  0  0  0  0
  2  1  1  1
  2  3  1  0
  2 13  1  0
  3  4  1  0
  4 12  1  0
  5  4  2  0
  5  6  1  0
  6  7  1  0
  7  8  1  0
  8  9  2  0
 10  9  1  0
 11 10  2  0
 12  7  2  0
 12 11  1  0
 13 19  1  0
 13 14  2  0
 16 15  1  1
 17 16  1  0
 18 16  1  0
 18 19  1  1
 20 18  1  0
 20 21  2  0
 22 20  1  0
 23 22  1  0
 24 25  1  0
 24 23  1  0
 25 26  1  0
 26 22  1  0
 26 27  1  6
 27 29  1  0
 28 27  2  0
M  END
$$$$
