WTP.pdb
     RDKit          3D

 29 31  0  0  1  0  0  0  0  0999 V2000
    7.6423  -17.6397   20.8563 N   0  0  0  0  0  0  0  0  0  0  0  0
    7.6464  -16.3002   21.3998 C   0  0  1  0  0  0  0  0  0  0  0  0
    6.6366  -15.4008   20.7349 C   0  0  0  0  0  0  0  0  0  0  0  0
    7.1714  -14.7020   19.5444 C   0  0  0  0  0  0  0  0  0  0  0  0
    7.0021  -15.0327   18.2163 C   0  0  0  0  0  0  0  0  0  0  0  0
    7.6372  -14.1583   17.4479 N   0  0  0  0  0  0  0  0  0  0  0  0
    8.2444  -13.2278   18.2014 C   0  0  0  0  0  0  0  0  0  0  0  0
    9.0164  -12.1244   17.8968 C   0  0  0  0  0  0  0  0  0  0  0  0
    9.5213  -11.3274   18.8807 C   0  0  0  0  0  0  0  0  0  0  0  0
    9.2525  -11.6343   20.2006 C   0  0  0  0  0  0  0  0  0  0  0  0
    8.4806  -12.7381   20.4932 C   0  0  0  0  0  0  0  0  0  0  0  0
    7.9537  -13.5661   19.5246 C   0  0  0  0  0  0  0  0  0  0  0  0
    7.3820  -16.3772   22.8471 C   0  0  0  0  0  0  0  0  0  0  0  0
    6.2105  -16.5397   23.3079 O   0  0  0  0  0  0  0  0  0  0  0  0
    6.2106  -17.7597   24.7948 C   0  0  0  0  0  0  0  0  0  0  0  0
    7.4997  -17.5806   25.5952 C   0  0  1  0  0  0  0  0  0  0  0  0
    8.3168  -18.6331   25.2821 O   0  0  0  0  0  0  0  0  0  0  0  0
    8.1728  -16.2784   25.2200 C   0  0  2  0  0  0  0  0  0  0  0  0
    8.4188  -16.2734   23.7770 N   0  0  0  0  0  0  0  0  0  0  0  0
    9.4398  -16.1380   25.9412 C   0  0  0  0  0  0  0  0  0  0  0  0
   10.4824  -16.4921   25.3351 O   0  0  0  0  0  0  0  0  0  0  0  0
    9.5497  -15.6353   27.2496 N   0  0  0  0  0  0  0  0  0  0  0  0
    8.3538  -15.4088   28.0798 C   0  0  0  0  0  0  0  0  0  0  0  0
    8.7521  -14.2986   29.0091 C   0  0  0  0  0  0  0  0  0  0  0  0
   10.1955  -13.9651   28.6685 C   0  0  0  0  0  0  0  0  0  0  0  0
   10.6783  -15.2976   28.0893 C   0  0  1  0  0  0  0  0  0  0  0  0
   10.8430  -16.2535   29.2282 C   0  0  0  0  0  0  0  0  0  0  0  0
   11.7492  -16.0505   30.0506 O   0  0  0  0  0  0  0  0  0  0  0  0
   10.0129  -17.3421   29.3749 O   0  0  0  0  0  0  0  0  0  0  0  0
  2  1  1  6
  2  3  1  0
  2 13  1  0
  3  4  1  0
  4 12  1  0
  5  4  2  0
  5  6  1  0
  6  7  1  0
  7  8  1  0
  8  9  2  0
 10  9  1  0
 11 10  2  0
 12  7  2  0
 12 11  1  0
 13 19  1  0
 13 14  2  0
 16 15  1  6
 17 16  1  0
 18 16  1  0
 18 19  1  6
 20 18  1  0
 20 21  2  0
 22 20  1  0
 23 22  1  0
 24 25  1  0
 24 23  1  0
 25 26  1  0
 26 22  1  0
 26 27  1  1
 27 29  1  0
 28 27  2  0
M  END
$$$$
