ELY.pdb
     RDKit          3D

 30 30  0  0  1  0  0  0  0  0999 V2000
   26.7891  -21.9723  -19.3025 N   0  0  0  0  0  0  0  0  0  0  0  0
   25.8254  -22.2926  -18.2857 C   0  0  1  0  0  0  0  0  0  0  0  0
   25.4647  -23.7469  -18.2783 C   0  0  0  0  0  0  0  0  0  0  0  0
   24.6125  -24.1924  -19.4154 C   0  0  0  0  0  0  0  0  0  0  0  0
   25.2945  -24.2972  -20.7060 C   0  0  0  0  0  0  0  0  0  0  0  0
   26.2010  -25.0894  -21.0184 O   0  0  0  0  0  0  0  0  0  0  0  0
   26.2902  -21.9140  -16.9266 C   0  0  0  0  0  0  0  0  0  0  0  0
   27.2697  -22.5873  -16.4724 O   0  0  0  0  0  0  0  0  0  0  0  0
   24.8944  -23.4109  -21.7212 O   0  0  0  0  0  0  0  0  0  0  0  0
   28.5256  -18.7191  -15.9673 C   0  0  0  0  0  0  0  0  0  0  0  0
   27.0654  -18.3240  -15.9100 C   0  0  2  0  0  0  0  0  0  0  0  0
   27.0284  -16.8194  -15.6342 C   0  0  0  0  0  0  0  0  0  0  0  0
   26.4048  -18.9932  -14.7487 C   0  0  0  0  0  0  0  0  0  0  0  0
   26.2768  -20.4909  -14.9063 C   0  0  2  0  0  0  0  0  0  0  0  0
   25.7045  -20.8757  -16.1573 N   0  0  0  0  0  0  0  0  0  0  0  0
   25.4235  -20.9501  -13.7512 C   0  0  0  0  0  0  0  0  0  0  0  0
   24.2572  -20.4948  -13.6013 O   0  0  0  0  0  0  0  0  0  0  0  0
   27.5230  -19.4567   -5.5274 O   0  0  0  0  0  0  0  0  0  0  0  0
   27.4275  -19.8256   -6.8695 C   0  0  0  0  0  0  0  0  0  0  0  0
   26.2804  -19.5764   -7.5922 C   0  0  0  0  0  0  0  0  0  0  0  0
   26.1532  -19.9282   -8.9202 C   0  0  0  0  0  0  0  0  0  0  0  0
   27.1797  -20.5537   -9.5960 C   0  0  0  0  0  0  0  0  0  0  0  0
   27.0921  -20.9590  -11.0120 C   0  0  0  0  0  0  0  0  0  0  0  0
   25.7962  -21.6504  -11.3580 C   0  0  2  0  0  0  0  0  0  0  0  0
   25.8801  -21.8874  -12.8087 N   0  0  0  0  0  0  0  0  0  0  0  0
   24.6758  -20.7427  -11.0391 C   0  0  0  0  0  0  0  0  0  0  0  0
   24.6172  -19.5000  -11.7003 O   0  0  0  0  0  0  0  0  0  0  0  0
   28.3378  -20.8021   -8.8565 C   0  0  0  0  0  0  0  0  0  0  0  0
   28.4645  -20.4504   -7.5299 C   0  0  0  0  0  0  0  0  0  0  0  0
   23.7770  -21.0066  -10.2208 O   0  0  0  0  0  0  0  0  0  0  0  0
  2  3  1  0
  2  1  1  6
  3  4  1  0
  4  5  1  0
  5  9  1  0
  5  6  2  0
  7  8  2  0
  7  2  1  0
 11 12  1  1
 11 10  1  0
 13 11  1  0
 14 13  1  6
 14 15  1  0
 15  7  1  0
 16 25  1  0
 16 14  1  0
 17 16  2  0
 19 18  1  0
 20 19  2  0
 21 20  1  0
 22 28  1  0
 22 21  2  0
 23 22  1  0
 24 25  1  0
 24 23  1  6
 26 24  1  0
 27 26  1  0
 28 29  2  0
 29 19  1  0
 30 26  2  0
M  END
$$$$
