ELY.pdb
     RDKit          3D

 30 30  0  0  1  0  0  0  0  0999 V2000
   28.0626  -21.0919  -15.5660 N   0  0  0  0  0  0  0  0  0  0  0  0
   27.6143  -20.2623  -14.4815 C   0  0  1  0  0  0  0  0  0  0  0  0
   26.9971  -18.9829  -14.9584 C   0  0  0  0  0  0  0  0  0  0  0  0
   27.1472  -18.7134  -16.4153 C   0  0  0  0  0  0  0  0  0  0  0  0
   25.9096  -18.3789  -17.1213 C   0  0  0  0  0  0  0  0  0  0  0  0
   25.2249  -19.1280  -17.8403 O   0  0  0  0  0  0  0  0  0  0  0  0
   26.6400  -20.9582  -13.6024 C   0  0  0  0  0  0  0  0  0  0  0  0
   25.9335  -21.8547  -14.1649 O   0  0  0  0  0  0  0  0  0  0  0  0
   25.4228  -17.0673  -16.9843 O   0  0  0  0  0  0  0  0  0  0  0  0
   28.3422  -21.4315   -9.7025 C   0  0  0  0  0  0  0  0  0  0  0  0
   27.1059  -20.5611   -9.6288 C   0  0  2  0  0  0  0  0  0  0  0  0
   26.9693  -20.1152   -8.1715 C   0  0  0  0  0  0  0  0  0  0  0  0
   25.8939  -21.3748   -9.9478 C   0  0  0  0  0  0  0  0  0  0  0  0
   25.5726  -21.4284  -11.4237 C   0  0  2  0  0  0  0  0  0  0  0  0
   26.4806  -20.6684  -12.2227 N   0  0  0  0  0  0  0  0  0  0  0  0
   24.1638  -20.9070  -11.5527 C   0  0  0  0  0  0  0  0  0  0  0  0
   23.6852  -20.1424  -10.6717 O   0  0  0  0  0  0  0  0  0  0  0  0
   17.4842  -16.3246  -14.3626 O   0  0  0  0  0  0  0  0  0  0  0  0
   18.6539  -17.0371  -14.0970 C   0  0  0  0  0  0  0  0  0  0  0  0
   19.3147  -17.7124  -15.1008 C   0  0  0  0  0  0  0  0  0  0  0  0
   20.4731  -18.4263  -14.8722 C   0  0  0  0  0  0  0  0  0  0  0  0
   21.0315  -18.4994  -13.6134 C   0  0  0  0  0  0  0  0  0  0  0  0
   22.2623  -19.2559  -13.3133 C   0  0  0  0  0  0  0  0  0  0  0  0
   21.9987  -20.6575  -12.8202 C   0  0  2  0  0  0  0  0  0  0  0  0
   23.3373  -21.2429  -12.6387 N   0  0  0  0  0  0  0  0  0  0  0  0
   21.2425  -21.3893  -13.8563 C   0  0  0  0  0  0  0  0  0  0  0  0
   19.8368  -21.4107  -13.7637 O   0  0  0  0  0  0  0  0  0  0  0  0
   20.3559  -17.8125  -12.6028 C   0  0  0  0  0  0  0  0  0  0  0  0
   19.1988  -17.0994  -12.8318 C   0  0  0  0  0  0  0  0  0  0  0  0
   21.7696  -21.9903  -14.8092 O   0  0  0  0  0  0  0  0  0  0  0  0
  2  3  1  0
  2  1  1  6
  3  4  1  0
  4  5  1  0
  5  9  1  0
  5  6  2  0
  7  8  2  0
  7  2  1  0
 11 12  1  1
 11 10  1  0
 13 11  1  0
 14 13  1  1
 14 15  1  0
 15  7  1  0
 16 25  1  0
 16 14  1  0
 17 16  2  0
 19 18  1  0
 20 19  2  0
 21 20  1  0
 22 28  1  0
 22 21  2  0
 23 22  1  0
 24 25  1  0
 24 23  1  6
 26 24  1  0
 27 26  1  0
 28 29  2  0
 29 19  1  0
 30 26  2  0
M  END
$$$$
