ELY.pdb
     RDKit          3D

 30 30  0  0  1  0  0  0  0  0999 V2000
   22.6081  -14.0449  -18.7203 N   0  0  0  0  0  0  0  0  0  0  0  0
   23.2620  -12.8593  -19.2017 C   0  0  1  0  0  0  0  0  0  0  0  0
   22.4361  -12.1211  -20.2108 C   0  0  0  0  0  0  0  0  0  0  0  0
   21.0823  -11.7135  -19.7430 C   0  0  0  0  0  0  0  0  0  0  0  0
   20.2969  -10.9338  -20.7007 C   0  0  0  0  0  0  0  0  0  0  0  0
   20.6196  -10.6148  -21.8588 O   0  0  0  0  0  0  0  0  0  0  0  0
   23.6152  -11.9229  -18.1040 C   0  0  0  0  0  0  0  0  0  0  0  0
   22.7556  -11.8183  -17.1717 O   0  0  0  0  0  0  0  0  0  0  0  0
   19.0316  -10.4852  -20.2840 O   0  0  0  0  0  0  0  0  0  0  0  0
   27.1182  -11.9762  -15.2958 C   0  0  0  0  0  0  0  0  0  0  0  0
   27.3971  -11.3281  -16.6351 C   0  0  2  0  0  0  0  0  0  0  0  0
   28.8683  -10.9080  -16.6215 C   0  0  0  0  0  0  0  0  0  0  0  0
   26.5911  -10.0771  -16.7701 C   0  0  0  0  0  0  0  0  0  0  0  0
   25.1120  -10.3273  -16.9547 C   0  0  2  0  0  0  0  0  0  0  0  0
   24.8222  -11.1781  -18.0651 N   0  0  0  0  0  0  0  0  0  0  0  0
   24.4881   -8.9663  -17.1324 C   0  0  0  0  0  0  0  0  0  0  0  0
   24.4970   -8.4047  -18.2612 O   0  0  0  0  0  0  0  0  0  0  0  0
   19.3750   -1.9441  -14.9904 O   0  0  0  0  0  0  0  0  0  0  0  0
   20.1454   -3.1072  -14.9808 C   0  0  0  0  0  0  0  0  0  0  0  0
   19.7893   -4.1984  -15.7443 C   0  0  0  0  0  0  0  0  0  0  0  0
   20.5287   -5.3633  -15.7577 C   0  0  0  0  0  0  0  0  0  0  0  0
   21.6727   -5.4931  -14.9987 C   0  0  0  0  0  0  0  0  0  0  0  0
   22.4936   -6.7188  -14.9696 C   0  0  0  0  0  0  0  0  0  0  0  0
   23.2833   -6.9410  -16.2361 C   0  0  2  0  0  0  0  0  0  0  0  0
   23.8808   -8.2762  -16.0692 N   0  0  0  0  0  0  0  0  0  0  0  0
   24.3318   -5.9051  -16.3279 C   0  0  0  0  0  0  0  0  0  0  0  0
   24.1347   -4.8364  -17.2245 O   0  0  0  0  0  0  0  0  0  0  0  0
   22.0261   -4.3832  -14.2287 C   0  0  0  0  0  0  0  0  0  0  0  0
   21.2873   -3.2198  -14.2157 C   0  0  0  0  0  0  0  0  0  0  0  0
   25.3819   -5.9162  -15.6615 O   0  0  0  0  0  0  0  0  0  0  0  0
  2  3  1  0
  2  1  1  1
  3  4  1  0
  4  5  1  0
  5  9  1  0
  5  6  2  0
  7  8  2  0
  7  2  1  0
 11 12  1  1
 11 10  1  0
 13 11  1  0
 14 13  1  6
 14 15  1  0
 15  7  1  0
 16 25  1  0
 16 14  1  0
 17 16  2  0
 19 18  1  0
 20 19  2  0
 21 20  1  0
 22 28  1  0
 22 21  2  0
 23 22  1  0
 24 25  1  0
 24 23  1  1
 26 24  1  0
 27 26  1  0
 28 29  2  0
 29 19  1  0
 30 26  2  0
M  END
$$$$
