ELY.pdb
     RDKit          3D

 30 30  0  0  1  0  0  0  0  0999 V2000
   23.3952  -12.9919  -19.5624 N   0  0  0  0  0  0  0  0  0  0  0  0
   22.4780  -13.0300  -18.4567 C   0  0  1  0  0  0  0  0  0  0  0  0
   22.1154  -14.4296  -18.0632 C   0  0  0  0  0  0  0  0  0  0  0  0
   21.1124  -15.0932  -18.9414 C   0  0  0  0  0  0  0  0  0  0  0  0
   19.8023  -15.3258  -18.3318 C   0  0  0  0  0  0  0  0  0  0  0  0
   19.0883  -14.4978  -17.7388 O   0  0  0  0  0  0  0  0  0  0  0  0
   23.0048  -12.3242  -17.2605 C   0  0  0  0  0  0  0  0  0  0  0  0
   22.2484  -12.3351  -16.2373 O   0  0  0  0  0  0  0  0  0  0  0  0
   19.2733  -16.6255  -18.4151 O   0  0  0  0  0  0  0  0  0  0  0  0
   26.7351  -11.2387  -18.2147 C   0  0  0  0  0  0  0  0  0  0  0  0
   26.9949  -10.4877  -16.9262 C   0  0  2  0  0  0  0  0  0  0  0  0
   28.4662  -10.7163  -16.5739 C   0  0  0  0  0  0  0  0  0  0  0  0
   26.1872  -11.0852  -15.8201 C   0  0  0  0  0  0  0  0  0  0  0  0
   24.6951  -10.9944  -16.0433 C   0  0  2  0  0  0  0  0  0  0  0  0
   24.2634  -11.6704  -17.2254 N   0  0  0  0  0  0  0  0  0  0  0  0
   24.3829   -9.5210  -16.1121 C   0  0  0  0  0  0  0  0  0  0  0  0
   24.6178   -8.7740  -15.1238 O   0  0  0  0  0  0  0  0  0  0  0  0
   20.1043   -2.3157  -15.2975 O   0  0  0  0  0  0  0  0  0  0  0  0
   20.6895   -3.5708  -15.4673 C   0  0  0  0  0  0  0  0  0  0  0  0
   21.8551   -3.9031  -14.8105 C   0  0  0  0  0  0  0  0  0  0  0  0
   22.4595   -5.1348  -14.9563 C   0  0  0  0  0  0  0  0  0  0  0  0
   21.9201   -6.1037  -15.7760 C   0  0  0  0  0  0  0  0  0  0  0  0
   22.5307   -7.4322  -15.9742 C   0  0  0  0  0  0  0  0  0  0  0  0
   23.3152   -7.5454  -17.2582 C   0  0  2  0  0  0  0  0  0  0  0  0
   23.8272   -8.9257  -17.2576 N   0  0  0  0  0  0  0  0  0  0  0  0
   24.4269   -6.5739  -17.2207 C   0  0  0  0  0  0  0  0  0  0  0  0
   24.5578   -5.6707  -18.2940 O   0  0  0  0  0  0  0  0  0  0  0  0
   20.7396   -5.7588  -16.4372 C   0  0  0  0  0  0  0  0  0  0  0  0
   20.1361   -4.5283  -16.2911 C   0  0  0  0  0  0  0  0  0  0  0  0
   25.2582   -6.5021  -16.2984 O   0  0  0  0  0  0  0  0  0  0  0  0
  2  3  1  0
  2  1  1  6
  3  4  1  0
  4  5  1  0
  5  9  1  0
  5  6  2  0
  7  8  2  0
  7  2  1  0
 11 12  1  1
 11 10  1  0
 13 11  1  0
 14 13  1  6
 14 15  1  0
 15  7  1  0
 16 25  1  0
 16 14  1  0
 17 16  2  0
 19 18  1  0
 20 19  2  0
 21 20  1  0
 22 28  1  0
 22 21  2  0
 23 22  1  0
 24 25  1  0
 24 23  1  1
 26 24  1  0
 27 26  1  0
 28 29  2  0
 29 19  1  0
 30 26  2  0
M  END
$$$$
