ELY.pdb
     RDKit          3D

 30 30  0  0  1  0  0  0  0  0999 V2000
   21.5692  -13.8636  -17.7560 N   0  0  0  0  0  0  0  0  0  0  0  0
   22.0823  -12.6257  -18.2752 C   0  0  1  0  0  0  0  0  0  0  0  0
   21.1024  -11.9326  -19.1722 C   0  0  0  0  0  0  0  0  0  0  0  0
   19.6948  -12.4044  -19.0546 C   0  0  0  0  0  0  0  0  0  0  0  0
   18.7394  -11.7556  -19.9537 C   0  0  0  0  0  0  0  0  0  0  0  0
   18.3693  -12.1505  -21.0736 O   0  0  0  0  0  0  0  0  0  0  0  0
   22.4853  -11.6847  -17.1988 C   0  0  0  0  0  0  0  0  0  0  0  0
   21.7587  -11.6994  -16.1543 O   0  0  0  0  0  0  0  0  0  0  0  0
   18.1634  -10.5485  -19.5212 O   0  0  0  0  0  0  0  0  0  0  0  0
   26.2055  -11.1162  -14.8397 C   0  0  0  0  0  0  0  0  0  0  0  0
   26.2679  -10.4435  -16.1944 C   0  0  2  0  0  0  0  0  0  0  0  0
   27.6494   -9.7942  -16.2988 C   0  0  0  0  0  0  0  0  0  0  0  0
   25.2643   -9.3382  -16.2578 C   0  0  0  0  0  0  0  0  0  0  0  0
   23.8329   -9.8220  -16.2924 C   0  0  2  0  0  0  0  0  0  0  0  0
   23.6006  -10.8130  -17.2947 N   0  0  0  0  0  0  0  0  0  0  0  0
   22.9938   -8.5931  -16.5349 C   0  0  0  0  0  0  0  0  0  0  0  0
   22.8798   -8.1198  -17.6980 O   0  0  0  0  0  0  0  0  0  0  0  0
   16.8873  -10.3078  -18.4591 O   0  0  0  0  0  0  0  0  0  0  0  0
   17.6884   -9.5024  -17.6492 C   0  0  0  0  0  0  0  0  0  0  0  0
   18.3587  -10.0313  -16.5669 C   0  0  0  0  0  0  0  0  0  0  0  0
   19.1585   -9.2631  -15.7461 C   0  0  0  0  0  0  0  0  0  0  0  0
   19.3273   -7.9132  -15.9718 C   0  0  0  0  0  0  0  0  0  0  0  0
   20.1630   -7.0453  -15.1200 C   0  0  0  0  0  0  0  0  0  0  0  0
   21.5064   -6.7243  -15.7275 C   0  0  2  0  0  0  0  0  0  0  0  0
   22.3145   -7.9330  -15.4965 N   0  0  0  0  0  0  0  0  0  0  0  0
   22.0823   -5.5649  -15.0167 C   0  0  0  0  0  0  0  0  0  0  0  0
   23.1705   -5.7890  -14.1505 O   0  0  0  0  0  0  0  0  0  0  0  0
   18.6451   -7.3858  -17.0700 C   0  0  0  0  0  0  0  0  0  0  0  0
   17.8463   -8.1537  -17.8897 C   0  0  0  0  0  0  0  0  0  0  0  0
   21.6662   -4.3988  -15.1346 O   0  0  0  0  0  0  0  0  0  0  0  0
  2  3  1  0
  2  1  1  1
  3  4  1  0
  4  5  1  0
  5  9  1  0
  5  6  2  0
  7  8  2  0
  7  2  1  0
 11 12  1  1
 11 10  1  0
 13 11  1  0
 14 13  1  6
 14 15  1  0
 15  7  1  0
 16 25  1  0
 16 14  1  0
 17 16  2  0
 19 18  1  0
 20 19  2  0
 21 20  1  0
 22 28  1  0
 22 21  2  0
 23 22  1  0
 24 25  1  0
 24 23  1  1
 26 24  1  0
 27 26  1  0
 28 29  2  0
 29 19  1  0
 30 26  2  0
M  END
$$$$
