ELY.pdb
     RDKit          3D

 30 30  0  0  1  0  0  0  0  0999 V2000
   28.3933  -20.5739  -16.4508 N   0  0  0  0  0  0  0  0  0  0  0  0
   28.3989  -19.8267  -15.2232 C   0  0  1  0  0  0  0  0  0  0  0  0
   27.4741  -18.6486  -15.2673 C   0  0  0  0  0  0  0  0  0  0  0  0
   26.6763  -18.5180  -16.5180 C   0  0  0  0  0  0  0  0  0  0  0  0
   25.7703  -17.3696  -16.5662 C   0  0  0  0  0  0  0  0  0  0  0  0
   25.6378  -16.4765  -15.7106 O   0  0  0  0  0  0  0  0  0  0  0  0
   28.0414  -20.6644  -14.0497 C   0  0  0  0  0  0  0  0  0  0  0  0
   27.4149  -21.7405  -14.3118 O   0  0  0  0  0  0  0  0  0  0  0  0
   24.9482  -17.2432  -17.6994 O   0  0  0  0  0  0  0  0  0  0  0  0
   30.8501  -22.7268  -11.4832 C   0  0  0  0  0  0  0  0  0  0  0  0
   30.5696  -21.2964  -11.0749 C   0  0  2  0  0  0  0  0  0  0  0  0
   31.4992  -20.9850   -9.9001 C   0  0  0  0  0  0  0  0  0  0  0  0
   29.1708  -21.1811  -10.5621 C   0  0  0  0  0  0  0  0  0  0  0  0
   28.1215  -21.2420  -11.6482 C   0  0  2  0  0  0  0  0  0  0  0  0
   28.3614  -20.3186  -12.7114 N   0  0  0  0  0  0  0  0  0  0  0  0
   26.8094  -20.9565  -10.9627 C   0  0  0  0  0  0  0  0  0  0  0  0
   26.4157  -21.6861  -10.0127 O   0  0  0  0  0  0  0  0  0  0  0  0
   18.2183  -20.6558  -12.1659 O   0  0  0  0  0  0  0  0  0  0  0  0
   19.6128  -20.6240  -12.1932 C   0  0  0  0  0  0  0  0  0  0  0  0
   20.2857  -19.5561  -12.7474 C   0  0  0  0  0  0  0  0  0  0  0  0
   21.6633  -19.4933  -12.7905 C   0  0  0  0  0  0  0  0  0  0  0  0
   22.4421  -20.5081  -12.2754 C   0  0  0  0  0  0  0  0  0  0  0  0
   23.9173  -20.4948  -12.3044 C   0  0  0  0  0  0  0  0  0  0  0  0
   24.5350  -19.8742  -11.0755 C   0  0  2  0  0  0  0  0  0  0  0  0
   25.9825  -19.8857  -11.3440 N   0  0  0  0  0  0  0  0  0  0  0  0
   24.2119  -20.7170   -9.9065 C   0  0  0  0  0  0  0  0  0  0  0  0
   24.9401  -21.9092   -9.7241 O   0  0  0  0  0  0  0  0  0  0  0  0
   21.7524  -21.5856  -11.7160 C   0  0  0  0  0  0  0  0  0  0  0  0
   20.3763  -21.6478  -11.6730 C   0  0  0  0  0  0  0  0  0  0  0  0
   23.3345  -20.4401   -9.0696 O   0  0  0  0  0  0  0  0  0  0  0  0
  2  3  1  0
  2  1  1  6
  3  4  1  0
  4  5  1  0
  5  9  1  0
  5  6  2  0
  7  8  2  0
  7  2  1  0
 11 12  1  1
 11 10  1  0
 13 11  1  0
 14 13  1  1
 14 15  1  0
 15  7  1  0
 16 25  1  0
 16 14  1  0
 17 16  2  0
 19 18  1  0
 20 19  2  0
 21 20  1  0
 22 28  1  0
 22 21  2  0
 23 22  1  0
 24 25  1  0
 24 23  1  6
 26 24  1  0
 27 26  1  0
 28 29  2  0
 29 19  1  0
 30 26  2  0
M  END
$$$$
