ELY.pdb
     RDKit          3D

 30 30  0  0  1  0  0  0  0  0999 V2000
   44.2381  -10.8739   -6.9719 N   0  0  0  0  0  0  0  0  0  0  0  0
   43.0438  -10.4457   -6.2970 C   0  0  1  0  0  0  0  0  0  0  0  0
   43.3209   -9.4182   -5.2421 C   0  0  0  0  0  0  0  0  0  0  0  0
   43.9515   -8.1620   -5.7338 C   0  0  0  0  0  0  0  0  0  0  0  0
   44.0845   -7.0967   -4.7391 C   0  0  0  0  0  0  0  0  0  0  0  0
   44.9653   -6.2201   -4.6854 O   0  0  0  0  0  0  0  0  0  0  0  0
   42.0296   -9.8989   -7.2345 C   0  0  0  0  0  0  0  0  0  0  0  0
   42.4892   -9.3821   -8.3026 O   0  0  0  0  0  0  0  0  0  0  0  0
   43.1174   -7.0403   -3.7206 O   0  0  0  0  0  0  0  0  0  0  0  0
   38.2231  -11.9013   -8.5659 C   0  0  0  0  0  0  0  0  0  0  0  0
   38.0603  -11.0803   -7.3045 C   0  0  2  0  0  0  0  0  0  0  0  0
   36.6001  -11.2261   -6.8713 C   0  0  0  0  0  0  0  0  0  0  0  0
   38.2787   -9.6339   -7.6099 C   0  0  0  0  0  0  0  0  0  0  0  0
   39.7243   -9.2840   -7.8786 C   0  0  2  0  0  0  0  0  0  0  0  0
   40.6328   -9.9334   -6.9878 N   0  0  0  0  0  0  0  0  0  0  0  0
   39.8108   -7.7844   -7.7489 C   0  0  0  0  0  0  0  0  0  0  0  0
   39.0032   -7.1622   -7.0069 O   0  0  0  0  0  0  0  0  0  0  0  0
   41.8791    0.3012   -5.8821 O   0  0  0  0  0  0  0  0  0  0  0  0
   41.7340   -1.0622   -6.1402 C   0  0  0  0  0  0  0  0  0  0  0  0
   42.7708   -1.7953   -6.6768 C   0  0  0  0  0  0  0  0  0  0  0  0
   42.6605   -3.1444   -6.9441 C   0  0  0  0  0  0  0  0  0  0  0  0
   41.4937   -3.8319   -6.6844 C   0  0  0  0  0  0  0  0  0  0  0  0
   41.3202   -5.2710   -6.9599 C   0  0  0  0  0  0  0  0  0  0  0  0
   40.8267   -5.5583   -8.3566 C   0  0  2  0  0  0  0  0  0  0  0  0
   40.7759   -7.0276   -8.4354 N   0  0  0  0  0  0  0  0  0  0  0  0
   41.8013   -5.0148   -9.3240 C   0  0  0  0  0  0  0  0  0  0  0  0
   41.6905   -3.6587   -9.6895 O   0  0  0  0  0  0  0  0  0  0  0  0
   40.4489   -3.0818   -6.1408 C   0  0  0  0  0  0  0  0  0  0  0  0
   40.5596   -1.7342   -5.8738 C   0  0  0  0  0  0  0  0  0  0  0  0
   42.7172   -5.6806   -9.8385 O   0  0  0  0  0  0  0  0  0  0  0  0
  2  3  1  0
  2  1  1  6
  3  4  1  0
  4  5  1  0
  5  9  1  0
  5  6  2  0
  7  8  2  0
  7  2  1  0
 11 12  1  6
 11 10  1  0
 13 11  1  0
 14 13  1  1
 14 15  1  0
 15  7  1  0
 16 25  1  0
 16 14  1  0
 17 16  2  0
 19 18  1  0
 20 19  2  0
 21 20  1  0
 22 28  1  0
 22 21  2  0
 23 22  1  0
 24 25  1  0
 24 23  1  1
 26 24  1  0
 27 26  1  0
 28 29  2  0
 29 19  1  0
 30 26  2  0
M  END
$$$$
