ELY.pdb
     RDKit          3D

 30 30  0  0  1  0  0  0  0  0999 V2000
   19.5656  -13.4554  -18.2584 N   0  0  0  0  0  0  0  0  0  0  0  0
   18.5998  -12.4849  -17.8220 C   0  0  1  0  0  0  0  0  0  0  0  0
   17.3863  -13.1199  -17.2144 C   0  0  0  0  0  0  0  0  0  0  0  0
   16.7074  -14.1324  -18.0698 C   0  0  0  0  0  0  0  0  0  0  0  0
   16.1086  -13.6129  -19.3001 C   0  0  0  0  0  0  0  0  0  0  0  0
   15.1034  -12.8875  -19.4022 O   0  0  0  0  0  0  0  0  0  0  0  0
   19.1683  -11.5212  -16.8449 C   0  0  0  0  0  0  0  0  0  0  0  0
   18.3191  -10.8575  -16.1685 O   0  0  0  0  0  0  0  0  0  0  0  0
   16.7242  -13.9617  -20.5148 O   0  0  0  0  0  0  0  0  0  0  0  0
   21.9544   -9.6150  -13.1086 C   0  0  0  0  0  0  0  0  0  0  0  0
   22.9441   -9.6305  -14.2538 C   0  0  2  0  0  0  0  0  0  0  0  0
   22.9313   -8.2273  -14.8640 C   0  0  0  0  0  0  0  0  0  0  0  0
   22.4739  -10.5690  -15.3172 C   0  0  0  0  0  0  0  0  0  0  0  0
   21.0335  -10.3530  -15.7209 C   0  0  2  0  0  0  0  0  0  0  0  0
   20.5605  -11.3275  -16.6522 N   0  0  0  0  0  0  0  0  0  0  0  0
   20.9793   -8.9653  -16.3080 C   0  0  0  0  0  0  0  0  0  0  0  0
   21.7910   -8.6241  -17.2104 O   0  0  0  0  0  0  0  0  0  0  0  0
   17.2712   -1.1720  -18.5623 O   0  0  0  0  0  0  0  0  0  0  0  0
   17.5700   -2.4508  -18.0915 C   0  0  0  0  0  0  0  0  0  0  0  0
   18.1134   -3.4035  -18.9266 C   0  0  0  0  0  0  0  0  0  0  0  0
   18.4205   -4.6769  -18.4932 C   0  0  0  0  0  0  0  0  0  0  0  0
   18.1953   -5.0621  -17.1884 C   0  0  0  0  0  0  0  0  0  0  0  0
   18.4966   -6.4127  -16.6765 C   0  0  0  0  0  0  0  0  0  0  0  0
   19.9708   -6.6603  -16.4707 C   0  0  2  0  0  0  0  0  0  0  0  0
   20.0404   -8.0089  -15.8844 N   0  0  0  0  0  0  0  0  0  0  0  0
   20.4930   -5.6510  -15.5275 C   0  0  0  0  0  0  0  0  0  0  0  0
   20.3021   -5.8674  -14.1485 O   0  0  0  0  0  0  0  0  0  0  0  0
   17.6449   -4.0911  -16.3494 C   0  0  0  0  0  0  0  0  0  0  0  0
   17.3385   -2.8191  -16.7828 C   0  0  0  0  0  0  0  0  0  0  0  0
   21.0928   -4.6181  -15.8743 O   0  0  0  0  0  0  0  0  0  0  0  0
  2  3  1  0
  2  1  1  1
  3  4  1  0
  4  5  1  0
  5  9  1  0
  5  6  2  0
  7  8  2  0
  7  2  1  0
 11 12  1  6
 11 10  1  0
 13 11  1  0
 14 13  1  6
 14 15  1  0
 15  7  1  0
 16 25  1  0
 16 14  1  0
 17 16  2  0
 19 18  1  0
 20 19  2  0
 21 20  1  0
 22 28  1  0
 22 21  2  0
 23 22  1  0
 24 25  1  0
 24 23  1  1
 26 24  1  0
 27 26  1  0
 28 29  2  0
 29 19  1  0
 30 26  2  0
M  END
$$$$
