ELY.pdb
     RDKit          3D

 30 30  0  0  1  0  0  0  0  0999 V2000
   28.3548  -24.9469  -16.6978 N   0  0  0  0  0  0  0  0  0  0  0  0
   27.5262  -24.0327  -17.4346 C   0  0  1  0  0  0  0  0  0  0  0  0
   26.3510  -24.7116  -18.0695 C   0  0  0  0  0  0  0  0  0  0  0  0
   26.1546  -24.4141  -19.5154 C   0  0  0  0  0  0  0  0  0  0  0  0
   27.3830  -24.2461  -20.2930 C   0  0  0  0  0  0  0  0  0  0  0  0
   28.2912  -25.0797  -20.4584 O   0  0  0  0  0  0  0  0  0  0  0  0
   27.0281  -22.9158  -16.5914 C   0  0  0  0  0  0  0  0  0  0  0  0
   26.7894  -23.2075  -15.3761 O   0  0  0  0  0  0  0  0  0  0  0  0
   27.5776  -23.0100  -20.9334 O   0  0  0  0  0  0  0  0  0  0  0  0
   28.8087  -18.8723  -15.5690 C   0  0  0  0  0  0  0  0  0  0  0  0
   28.1054  -18.9139  -16.9088 C   0  0  2  0  0  0  0  0  0  0  0  0
   28.2220  -17.5114  -17.5094 C   0  0  0  0  0  0  0  0  0  0  0  0
   26.6486  -19.1790  -16.7082 C   0  0  0  0  0  0  0  0  0  0  0  0
   26.3514  -20.5713  -16.2007 C   0  0  2  0  0  0  0  0  0  0  0  0
   26.8205  -21.5984  -17.0757 N   0  0  0  0  0  0  0  0  0  0  0  0
   24.8538  -20.6342  -16.0385 C   0  0  0  0  0  0  0  0  0  0  0  0
   24.1174  -20.9004  -17.0267 O   0  0  0  0  0  0  0  0  0  0  0  0
   17.0424  -20.3520  -11.6381 O   0  0  0  0  0  0  0  0  0  0  0  0
   18.3837  -20.2972  -12.0181 C   0  0  0  0  0  0  0  0  0  0  0  0
   19.1231  -21.4503  -12.1735 C   0  0  0  0  0  0  0  0  0  0  0  0
   20.4508  -21.4312  -12.5481 C   0  0  0  0  0  0  0  0  0  0  0  0
   21.1096  -20.2436  -12.7876 C   0  0  0  0  0  0  0  0  0  0  0  0
   22.5296  -20.1672  -13.1809 C   0  0  0  0  0  0  0  0  0  0  0  0
   22.7602  -20.4373  -14.6475 C   0  0  2  0  0  0  0  0  0  0  0  0
   24.2238  -20.4035  -14.8034 N   0  0  0  0  0  0  0  0  0  0  0  0
   22.1244  -19.3602  -15.4328 C   0  0  0  0  0  0  0  0  0  0  0  0
   20.8624  -19.6112  -16.0065 O   0  0  0  0  0  0  0  0  0  0  0  0
   20.3532  -19.0808  -12.6280 C   0  0  0  0  0  0  0  0  0  0  0  0
   19.0268  -19.1003  -12.2539 C   0  0  0  0  0  0  0  0  0  0  0  0
   22.6340  -18.2413  -15.6204 O   0  0  0  0  0  0  0  0  0  0  0  0
  2  3  1  0
  2  1  1  1
  3  4  1  0
  4  5  1  0
  5  9  1  0
  5  6  2  0
  7  8  2  0
  7  2  1  0
 11 12  1  1
 11 10  1  0
 13 11  1  0
 14 13  1  6
 14 15  1  0
 15  7  1  0
 16 25  1  0
 16 14  1  0
 17 16  2  0
 19 18  1  0
 20 19  2  0
 21 20  1  0
 22 28  1  0
 22 21  2  0
 23 22  1  0
 24 25  1  0
 24 23  1  1
 26 24  1  0
 27 26  1  0
 28 29  2  0
 29 19  1  0
 30 26  2  0
M  END
$$$$
