ELY.pdb
     RDKit          3D

 30 30  0  0  1  0  0  0  0  0999 V2000
   24.0763  -26.7320  -18.7506 N   0  0  0  0  0  0  0  0  0  0  0  0
   22.7109  -26.9897  -18.3841 C   0  0  1  0  0  0  0  0  0  0  0  0
   22.5980  -27.9530  -17.2419 C   0  0  0  0  0  0  0  0  0  0  0  0
   23.3962  -29.2018  -17.3872 C   0  0  0  0  0  0  0  0  0  0  0  0
   23.0908  -30.2567  -16.4199 C   0  0  0  0  0  0  0  0  0  0  0  0
   23.8571  -30.7483  -15.5724 O   0  0  0  0  0  0  0  0  0  0  0  0
   21.9766  -25.7481  -18.0295 C   0  0  0  0  0  0  0  0  0  0  0  0
   22.7013  -24.7344  -17.7719 O   0  0  0  0  0  0  0  0  0  0  0  0
   21.7895  -30.7880  -16.4337 O   0  0  0  0  0  0  0  0  0  0  0  0
   20.8024  -23.6915  -21.2479 C   0  0  0  0  0  0  0  0  0  0  0  0
   19.7448  -24.0737  -20.2346 C   0  0  2  0  0  0  0  0  0  0  0  0
   18.4321  -23.4507  -20.7141 C   0  0  0  0  0  0  0  0  0  0  0  0
   20.0614  -23.4522  -18.9131 C   0  0  0  0  0  0  0  0  0  0  0  0
   19.9216  -24.4045  -17.7478 C   0  0  2  0  0  0  0  0  0  0  0  0
   20.5616  -25.6619  -17.9719 N   0  0  0  0  0  0  0  0  0  0  0  0
   18.4385  -24.5765  -17.5385 C   0  0  0  0  0  0  0  0  0  0  0  0
   17.8071  -25.4709  -18.1639 O   0  0  0  0  0  0  0  0  0  0  0  0
   10.5985  -23.6966  -13.3659 O   0  0  0  0  0  0  0  0  0  0  0  0
   11.9169  -23.5676  -13.8037 C   0  0  0  0  0  0  0  0  0  0  0  0
   12.3109  -22.4790  -14.5522 C   0  0  0  0  0  0  0  0  0  0  0  0
   13.6060  -22.3210  -15.0008 C   0  0  0  0  0  0  0  0  0  0  0  0
   14.5798  -23.2557  -14.7186 C   0  0  0  0  0  0  0  0  0  0  0  0
   15.9759  -23.1396  -15.1815 C   0  0  0  0  0  0  0  0  0  0  0  0
   16.2676  -23.9565  -16.4162 C   0  0  2  0  0  0  0  0  0  0  0  0
   17.7076  -23.7640  -16.6547 N   0  0  0  0  0  0  0  0  0  0  0  0
   15.4736  -23.4172  -17.5387 C   0  0  0  0  0  0  0  0  0  0  0  0
   14.1905  -23.9535  -17.7642 O   0  0  0  0  0  0  0  0  0  0  0  0
   14.1722  -24.3548  -13.9599 C   0  0  0  0  0  0  0  0  0  0  0  0
   12.8783  -24.5122  -13.5119 C   0  0  0  0  0  0  0  0  0  0  0  0
   15.8671  -22.5164  -18.3006 O   0  0  0  0  0  0  0  0  0  0  0  0
  2  3  1  0
  2  1  1  1
  3  4  1  0
  4  5  1  0
  5  9  1  0
  5  6  2  0
  7  8  2  0
  7  2  1  0
 11 12  1  6
 11 10  1  0
 13 11  1  0
 14 13  1  6
 14 15  1  0
 15  7  1  0
 16 25  1  0
 16 14  1  0
 17 16  2  0
 19 18  1  0
 20 19  2  0
 21 20  1  0
 22 28  1  0
 22 21  2  0
 23 22  1  0
 24 25  1  0
 24 23  1  1
 26 24  1  0
 27 26  1  0
 28 29  2  0
 29 19  1  0
 30 26  2  0
M  END
$$$$
