CAN.pdb
     RDKit          3D

 20 19  0  0  1  0  0  0  0  0999 V2000
    1.0810  -27.5520   27.3277 N   0  0  0  0  0  0  0  0  0  0  0  0
   -0.0745  -28.2950   27.7903 C   0  0  1  0  0  0  0  0  0  0  0  0
    0.2889  -28.9229   29.1220 C   0  0  0  0  0  0  0  0  0  0  0  0
    1.4598  -30.2858   28.7638 S   0  0  0  0  0  0  0  0  0  0  0  0
   -1.2010  -27.3210   27.9272 C   0  0  0  0  0  0  0  0  0  0  0  0
   -1.0299  -26.2601   28.6182 O   0  0  0  0  0  0  0  0  0  0  0  0
   -4.6052  -26.8604   26.5151 C   0  0  0  0  0  0  0  0  0  0  0  0
   -3.5009  -26.5736   27.5390 C   0  0  2  0  0  0  0  0  0  0  0  0
   -2.4670  -27.5327   27.3115 N   0  0  0  0  0  0  0  0  0  0  0  0
   -4.0714  -26.6498   28.9042 C   0  0  0  0  0  0  0  0  0  0  0  0
   -4.2197  -27.7295   29.5403 O   0  0  0  0  0  0  0  0  0  0  0  0
   -3.1094  -25.6297   32.8334 N   0  0  0  0  0  0  0  0  0  0  0  0
   -3.6904  -24.3628   32.5596 C   0  0  0  0  0  0  0  0  0  0  0  0
   -3.2158  -23.3522   33.1674 O   0  0  0  0  0  0  0  0  0  0  0  0
   -4.8087  -24.1914   31.6087 C   0  0  0  0  0  0  0  0  0  0  0  0
   -5.1430  -25.4919   30.8869 C   0  0  2  0  0  0  0  0  0  0  0  0
   -4.4811  -25.4688   29.5686 N   0  0  0  0  0  0  0  0  0  0  0  0
   -6.6011  -25.5460   30.7187 C   0  0  0  0  0  0  0  0  0  0  0  0
   -7.3452  -25.9147   31.8359 O   0  0  0  0  0  0  0  0  0  0  0  0
   -7.1876  -25.2815   29.6391 O   0  0  0  0  0  0  0  0  0  0  0  0
  2  5  1  0
  2  1  1  1
  3  2  1  0
  3  4  1  0
  5  6  2  0
  8  7  1  6
  9  8  1  0
  9  5  1  0
 10 11  2  0
 10  8  1  0
 13 15  1  0
 13 12  1  0
 14 13  2  0
 16 15  1  6
 16 18  1  0
 16 17  1  0
 17 10  1  0
 18 19  1  0
 20 18  2  0
M  END
$$$$
