CAN.pdb
     RDKit          3D

 20 19  0  0  1  0  0  0  0  0999 V2000
    8.1867  -13.2837   16.1134 N   0  0  0  0  0  0  0  0  0  0  0  0
    8.3850  -14.4023   17.0137 C   0  0  1  0  0  0  0  0  0  0  0  0
    9.5970  -15.1724   16.5260 C   0  0  0  0  0  0  0  0  0  0  0  0
    9.9689  -16.4372   17.7984 S   0  0  0  0  0  0  0  0  0  0  0  0
    8.6026  -13.8367   18.3809 C   0  0  0  0  0  0  0  0  0  0  0  0
    9.2511  -12.7434   18.5094 O   0  0  0  0  0  0  0  0  0  0  0  0
    7.2449  -14.1803   21.7500 C   0  0  0  0  0  0  0  0  0  0  0  0
    8.4349  -13.9059   20.8234 C   0  0  2  0  0  0  0  0  0  0  0  0
    8.1104  -14.4753   19.5541 N   0  0  0  0  0  0  0  0  0  0  0  0
    9.6607  -14.4847   21.4213 C   0  0  0  0  0  0  0  0  0  0  0  0
   10.0602  -14.2215   22.5890 O   0  0  0  0  0  0  0  0  0  0  0  0
    9.6664  -18.2128   21.1742 N   0  0  0  0  0  0  0  0  0  0  0  0
   11.0782  -18.3496   21.0999 C   0  0  0  0  0  0  0  0  0  0  0  0
   11.5916  -19.4228   21.5477 O   0  0  0  0  0  0  0  0  0  0  0  0
   11.9482  -17.2998   20.5294 C   0  0  0  0  0  0  0  0  0  0  0  0
   11.7167  -15.9483   21.1957 C   0  0  2  0  0  0  0  0  0  0  0  0
   10.4536  -15.3904   20.6762 N   0  0  0  0  0  0  0  0  0  0  0  0
   12.8407  -15.0749   20.8337 C   0  0  0  0  0  0  0  0  0  0  0  0
   14.0948  -15.4389   21.3161 O   0  0  0  0  0  0  0  0  0  0  0  0
   12.7207  -14.0421   20.1278 O   0  0  0  0  0  0  0  0  0  0  0  0
  2  5  1  0
  2  1  1  6
  3  2  1  0
  3  4  1  0
  5  6  2  0
  8  7  1  1
  9  8  1  0
  9  5  1  0
 10 11  2  0
 10  8  1  0
 13 15  1  0
 13 12  1  0
 14 13  2  0
 16 15  1  6
 16 18  1  0
 16 17  1  0
 17 10  1  0
 18 19  1  0
 20 18  2  0
M  END
$$$$
