CAN.pdb
     RDKit          3D

 20 19  0  0  1  0  0  0  0  0999 V2000
    6.7828  -14.2485   19.3194 N   0  0  0  0  0  0  0  0  0  0  0  0
    8.1839  -14.1145   18.9730 C   0  0  1  0  0  0  0  0  0  0  0  0
    8.8028  -13.1285   19.9450 C   0  0  0  0  0  0  0  0  0  0  0  0
    8.5167  -11.4547   19.2567 S   0  0  0  0  0  0  0  0  0  0  0  0
    8.8013  -15.4712   19.0935 C   0  0  0  0  0  0  0  0  0  0  0  0
    8.3696  -16.2777   19.9853 O   0  0  0  0  0  0  0  0  0  0  0  0
   10.8853  -17.6813   17.0448 C   0  0  0  0  0  0  0  0  0  0  0  0
   10.3702  -17.2253   18.4147 C   0  0  2  0  0  0  0  0  0  0  0  0
    9.8602  -15.9017   18.2449 N   0  0  0  0  0  0  0  0  0  0  0  0
   11.4752  -17.2981   19.3990 C   0  0  0  0  0  0  0  0  0  0  0  0
   12.1492  -18.3424   19.6171 O   0  0  0  0  0  0  0  0  0  0  0  0
   13.7687  -13.8082   18.7634 N   0  0  0  0  0  0  0  0  0  0  0  0
   14.3070  -14.6515   19.7717 C   0  0  0  0  0  0  0  0  0  0  0  0
   15.3950  -15.2571   19.5157 O   0  0  0  0  0  0  0  0  0  0  0  0
   13.6501  -14.8410   21.0819 C   0  0  0  0  0  0  0  0  0  0  0  0
   12.9104  -16.1719   21.1575 C   0  0  2  0  0  0  0  0  0  0  0  0
   11.8290  -16.1541   20.1541 N   0  0  0  0  0  0  0  0  0  0  0  0
   12.3442  -16.2909   22.5075 C   0  0  0  0  0  0  0  0  0  0  0  0
   13.2503  -16.3253   23.5637 O   0  0  0  0  0  0  0  0  0  0  0  0
   11.1115  -16.3616   22.7418 O   0  0  0  0  0  0  0  0  0  0  0  0
  2  5  1  0
  2  1  1  1
  3  2  1  0
  3  4  1  0
  5  6  2  0
  8  7  1  6
  9  8  1  0
  9  5  1  0
 10 11  2  0
 10  8  1  0
 13 15  1  0
 13 12  1  0
 14 13  2  0
 16 15  1  1
 16 18  1  0
 16 17  1  0
 17 10  1  0
 18 19  1  0
 20 18  2  0
M  END
$$$$
