CAN.pdb
     RDKit          3D

 20 19  0  0  1  0  0  0  0  0999 V2000
    4.8165  -13.2618   26.4125 N   0  0  0  0  0  0  0  0  0  0  0  0
    5.9752  -13.0245   25.5745 C   0  0  1  0  0  0  0  0  0  0  0  0
    6.7999  -11.9351   26.2326 C   0  0  0  0  0  0  0  0  0  0  0  0
    8.2975  -11.7080   25.2017 S   0  0  0  0  0  0  0  0  0  0  0  0
    6.7296  -14.3128   25.4874 C   0  0  0  0  0  0  0  0  0  0  0  0
    6.9632  -14.9741   26.5553 O   0  0  0  0  0  0  0  0  0  0  0  0
    8.0735  -16.4933   22.7849 C   0  0  0  0  0  0  0  0  0  0  0  0
    7.8394  -16.1126   24.2512 C   0  0  2  0  0  0  0  0  0  0  0  0
    7.2009  -14.8346   24.2496 N   0  0  0  0  0  0  0  0  0  0  0  0
    9.1368  -16.1107   24.9666 C   0  0  0  0  0  0  0  0  0  0  0  0
   10.1272  -15.4117   24.6160 O   0  0  0  0  0  0  0  0  0  0  0  0
   10.7231  -14.3357   27.3001 N   0  0  0  0  0  0  0  0  0  0  0  0
   10.5799  -15.2265   28.3972 C   0  0  0  0  0  0  0  0  0  0  0  0
   10.5241  -14.7229   29.5630 O   0  0  0  0  0  0  0  0  0  0  0  0
   10.4971  -16.6919   28.2240 C   0  0  0  0  0  0  0  0  0  0  0  0
   10.6295  -17.0977   26.7604 C   0  0  2  0  0  0  0  0  0  0  0  0
    9.3153  -16.9205   26.1139 N   0  0  0  0  0  0  0  0  0  0  0  0
   11.0230  -18.5124   26.7243 C   0  0  0  0  0  0  0  0  0  0  0  0
   12.3452  -18.8011   27.0501 O   0  0  0  0  0  0  0  0  0  0  0  0
   10.2385  -19.4457   26.4196 O   0  0  0  0  0  0  0  0  0  0  0  0
  2  5  1  0
  2  1  1  1
  3  2  1  0
  3  4  1  0
  5  6  2  0
  8  7  1  6
  9  8  1  0
  9  5  1  0
 10 11  2  0
 10  8  1  0
 13 15  1  0
 13 12  1  0
 14 13  2  0
 16 15  1  1
 16 18  1  0
 16 17  1  0
 17 10  1  0
 18 19  1  0
 20 18  2  0
M  END
$$$$
