CAN.pdb
     RDKit          3D

 20 19  0  0  1  0  0  0  0  0999 V2000
    8.6834  -15.0826   13.9689 N   0  0  0  0  0  0  0  0  0  0  0  0
    7.9213  -15.3062   15.1815 C   0  0  1  0  0  0  0  0  0  0  0  0
    7.7419  -16.8038   15.3391 C   0  0  0  0  0  0  0  0  0  0  0  0
    6.5693  -17.3374   14.0363 S   0  0  0  0  0  0  0  0  0  0  0  0
    8.7067  -14.7214   16.3119 C   0  0  0  0  0  0  0  0  0  0  0  0
    9.9802  -14.8238   16.3073 O   0  0  0  0  0  0  0  0  0  0  0  0
    7.9985  -12.7841   19.4139 C   0  0  0  0  0  0  0  0  0  0  0  0
    8.9100  -13.5685   18.4633 C   0  0  2  0  0  0  0  0  0  0  0  0
    8.0841  -14.0494   17.4015 N   0  0  0  0  0  0  0  0  0  0  0  0
    9.5773  -14.6564   19.2159 C   0  0  0  0  0  0  0  0  0  0  0  0
    9.1330  -15.8356   19.2811 O   0  0  0  0  0  0  0  0  0  0  0  0
   14.2541  -13.5761   19.1831 N   0  0  0  0  0  0  0  0  0  0  0  0
   13.6634  -14.8092   19.5680 C   0  0  0  0  0  0  0  0  0  0  0  0
   13.7646  -15.7885   18.7639 O   0  0  0  0  0  0  0  0  0  0  0  0
   12.9483  -14.9806   20.8500 C   0  0  0  0  0  0  0  0  0  0  0  0
   11.5148  -15.4553   20.6399 C   0  0  2  0  0  0  0  0  0  0  0  0
   10.7841  -14.4014   19.9106 N   0  0  0  0  0  0  0  0  0  0  0  0
   10.9150  -15.6607   21.9648 C   0  0  0  0  0  0  0  0  0  0  0  0
   11.4566  -16.6790   22.7442 O   0  0  0  0  0  0  0  0  0  0  0  0
    9.9603  -14.9757   22.4107 O   0  0  0  0  0  0  0  0  0  0  0  0
  2  5  1  0
  2  1  1  6
  3  2  1  0
  3  4  1  0
  5  6  2  0
  8  7  1  1
  9  8  1  0
  9  5  1  0
 10 11  2  0
 10  8  1  0
 13 15  1  0
 13 12  1  0
 14 13  2  0
 16 15  1  1
 16 18  1  0
 16 17  1  0
 17 10  1  0
 18 19  1  0
 20 18  2  0
M  END
$$$$
