CAN.pdb
     RDKit          3D

 20 19  0  0  1  0  0  0  0  0999 V2000
    8.1799  -12.5979   26.0970 N   0  0  0  0  0  0  0  0  0  0  0  0
    7.0807  -13.5327   26.2351 C   0  0  1  0  0  0  0  0  0  0  0  0
    5.8275  -12.7263   26.5165 C   0  0  0  0  0  0  0  0  0  0  0  0
    6.2942  -11.4221   27.7158 S   0  0  0  0  0  0  0  0  0  0  0  0
    6.9760  -14.2860   24.9474 C   0  0  0  0  0  0  0  0  0  0  0  0
    6.1615  -15.2665   24.8610 O   0  0  0  0  0  0  0  0  0  0  0  0
    7.4304  -13.8106   21.4526 C   0  0  0  0  0  0  0  0  0  0  0  0
    7.6343  -14.7624   22.6369 C   0  0  2  0  0  0  0  0  0  0  0  0
    7.7556  -13.9490   23.8050 N   0  0  0  0  0  0  0  0  0  0  0  0
    8.8308  -15.5999   22.3877 C   0  0  0  0  0  0  0  0  0  0  0  0
    8.9617  -16.3498   21.3813 O   0  0  0  0  0  0  0  0  0  0  0  0
   13.5509  -17.8261   23.0562 N   0  0  0  0  0  0  0  0  0  0  0  0
   13.5674  -16.4417   23.3735 C   0  0  0  0  0  0  0  0  0  0  0  0
   14.6991  -15.8900   23.5497 O   0  0  0  0  0  0  0  0  0  0  0  0
   12.3311  -15.6423   23.5031 C   0  0  0  0  0  0  0  0  0  0  0  0
   11.0911  -16.4554   23.1488 C   0  0  2  0  0  0  0  0  0  0  0  0
    9.9108  -15.5837   23.3028 N   0  0  0  0  0  0  0  0  0  0  0  0
   11.0131  -17.5813   24.0887 C   0  0  0  0  0  0  0  0  0  0  0  0
   10.0655  -17.4826   25.1037 O   0  0  0  0  0  0  0  0  0  0  0  0
   11.7454  -18.6000   24.0172 O   0  0  0  0  0  0  0  0  0  0  0  0
  2  5  1  0
  2  1  1  6
  3  2  1  0
  3  4  1  0
  5  6  2  0
  8  7  1  6
  9  8  1  0
  9  5  1  0
 10 11  2  0
 10  8  1  0
 13 15  1  0
 13 12  1  0
 14 13  2  0
 16 15  1  1
 16 18  1  0
 16 17  1  0
 17 10  1  0
 18 19  1  0
 20 18  2  0
M  END
$$$$
