GDS.pdb
     RDKit          3D

 19 18  0  0  1  0  0  0  0  0999 V2000
   10.3870  -14.3517   17.7649 N   0  0  0  0  0  0  0  0  0  0  0  0
   11.3234  -13.7790   18.6825 C   0  0  0  0  0  0  0  0  0  0  0  0
   12.1216  -14.8361   19.3385 C   0  0  0  0  0  0  0  0  0  0  0  0
   11.5534  -15.9206   19.6084 O   0  0  0  0  0  0  0  0  0  0  0  0
   13.4856  -14.7043   19.6801 N   0  0  0  0  0  0  0  0  0  0  0  0
   14.1848  -15.6774   20.4786 C   0  0  1  0  0  0  0  0  0  0  0  0
   15.7041  -15.5476   20.3695 C   0  0  0  0  0  0  0  0  0  0  0  0
   16.2139  -16.0177   19.0903 C   0  0  0  0  0  0  0  0  0  0  0  0
   16.1842  -17.2465   18.8078 O   0  0  0  0  0  0  0  0  0  0  0  0
   13.8617  -15.4718   21.9157 C   0  0  0  0  0  0  0  0  0  0  0  0
   14.3668  -14.4730   22.4871 O   0  0  0  0  0  0  0  0  0  0  0  0
   16.7393  -15.1071   18.1721 O   0  0  0  0  0  0  0  0  0  0  0  0
   10.4029  -17.0123   23.4957 O   0  0  0  0  0  0  0  0  0  0  0  0
   11.1251  -16.0327   24.1699 C   0  0  0  0  0  0  0  0  0  0  0  0
   12.6118  -16.1464   24.0032 C   0  0  2  0  0  0  0  0  0  0  0  0
   13.0360  -16.3198   22.6575 N   0  0  0  0  0  0  0  0  0  0  0  0
   13.0612  -17.3284   24.7893 C   0  0  0  0  0  0  0  0  0  0  0  0
   12.8966  -17.4230   26.1782 O   0  0  0  0  0  0  0  0  0  0  0  0
   13.6104  -18.2812   24.1909 O   0  0  0  0  0  0  0  0  0  0  0  0
  1  2  1  0
  3  5  1  0
  3  2  1  0
  4  3  2  0
  6  5  1  0
  6  7  1  1
  7  8  1  0
  8 12  1  0
  8  9  2  0
 10  6  1  0
 10 11  2  0
 13 14  1  0
 15 14  1  6
 15 16  1  0
 16 10  1  0
 17 18  1  0
 17 15  1  0
 19 17  2  0
M  END
$$$$
