GDS.pdb
     RDKit          3D

 19 18  0  0  1  0  0  0  0  0999 V2000
   19.0533  -20.4461   20.0299 N   0  0  0  0  0  0  0  0  0  0  0  0
   19.2337  -20.3676   21.4470 C   0  0  0  0  0  0  0  0  0  0  0  0
   18.9906  -18.9908   21.9266 C   0  0  0  0  0  0  0  0  0  0  0  0
   18.9707  -18.0672   21.0791 O   0  0  0  0  0  0  0  0  0  0  0  0
   18.7771  -18.6476   23.2798 N   0  0  0  0  0  0  0  0  0  0  0  0
   18.5284  -17.2959   23.7094 C   0  0  1  0  0  0  0  0  0  0  0  0
   17.6192  -17.2251   24.9364 C   0  0  0  0  0  0  0  0  0  0  0  0
   16.2079  -17.1929   24.5839 C   0  0  0  0  0  0  0  0  0  0  0  0
   15.3989  -16.5054   25.2648 O   0  0  0  0  0  0  0  0  0  0  0  0
   19.8081  -16.6554   24.1146 C   0  0  0  0  0  0  0  0  0  0  0  0
   20.5550  -17.2949   24.8972 O   0  0  0  0  0  0  0  0  0  0  0  0
   15.7456  -17.9259   23.4897 O   0  0  0  0  0  0  0  0  0  0  0  0
   20.7436  -12.7301   22.8214 O   0  0  0  0  0  0  0  0  0  0  0  0
   21.7873  -13.6338   22.9942 C   0  0  0  0  0  0  0  0  0  0  0  0
   21.4691  -14.7629   23.9295 C   0  0  2  0  0  0  0  0  0  0  0  0
   20.2208  -15.3947   23.6773 N   0  0  0  0  0  0  0  0  0  0  0  0
   21.4386  -14.2056   25.3099 C   0  0  0  0  0  0  0  0  0  0  0  0
   20.2937  -14.2429   26.1180 O   0  0  0  0  0  0  0  0  0  0  0  0
   22.4755  -13.6797   25.7744 O   0  0  0  0  0  0  0  0  0  0  0  0
  1  2  1  0
  3  5  1  0
  3  2  1  0
  4  3  2  0
  6  5  1  0
  6  7  1  1
  7  8  1  0
  8 12  1  0
  8  9  2  0
 10  6  1  0
 10 11  2  0
 13 14  1  0
 15 14  1  6
 15 16  1  0
 16 10  1  0
 17 18  1  0
 17 15  1  0
 19 17  2  0
M  END
$$$$
