GDS.pdb
     RDKit          3D

 19 18  0  0  1  0  0  0  0  0999 V2000
   -2.8407  -25.9173   26.8268 N   0  0  0  0  0  0  0  0  0  0  0  0
   -4.1222  -25.4113   26.4413 C   0  0  0  0  0  0  0  0  0  0  0  0
   -4.9723  -25.1887   27.6298 C   0  0  0  0  0  0  0  0  0  0  0  0
   -5.9206  -25.9834   27.8324 O   0  0  0  0  0  0  0  0  0  0  0  0
   -4.7846  -24.1381   28.5547 N   0  0  0  0  0  0  0  0  0  0  0  0
   -5.5965  -23.9859   29.7341 C   0  0  1  0  0  0  0  0  0  0  0  0
   -4.9344  -23.1084   30.7965 C   0  0  0  0  0  0  0  0  0  0  0  0
   -3.8879  -23.8087   31.5255 C   0  0  0  0  0  0  0  0  0  0  0  0
   -3.9305  -25.0632   31.6489 O   0  0  0  0  0  0  0  0  0  0  0  0
   -6.8706  -23.3046   29.3810 C   0  0  0  0  0  0  0  0  0  0  0  0
   -6.7929  -22.2036   28.7802 O   0  0  0  0  0  0  0  0  0  0  0  0
   -2.8333  -23.0912   32.0923 O   0  0  0  0  0  0  0  0  0  0  0  0
  -11.0456  -23.5960   27.4201 O   0  0  0  0  0  0  0  0  0  0  0  0
   -9.8343  -24.0598   27.9234 C   0  0  0  0  0  0  0  0  0  0  0  0
   -9.3863  -23.3642   29.1749 C   0  0  2  0  0  0  0  0  0  0  0  0
   -8.1358  -23.8166   29.6776 N   0  0  0  0  0  0  0  0  0  0  0  0
  -10.4222  -23.6061   30.2168 C   0  0  0  0  0  0  0  0  0  0  0  0
  -10.1944  -24.4131   31.3401 O   0  0  0  0  0  0  0  0  0  0  0  0
  -11.5463  -23.0694   30.0901 O   0  0  0  0  0  0  0  0  0  0  0  0
  1  2  1  0
  3  5  1  0
  3  2  1  0
  4  3  2  0
  6  5  1  0
  6  7  1  1
  7  8  1  0
  8 12  1  0
  8  9  2  0
 10  6  1  0
 10 11  2  0
 13 14  1  0
 15 14  1  6
 15 16  1  0
 16 10  1  0
 17 18  1  0
 17 15  1  0
 19 17  2  0
M  END
$$$$
