GDS.pdb
     RDKit          3D

 19 18  0  0  1  0  0  0  0  0999 V2000
    7.4345  -18.8305   18.0822 N   0  0  0  0  0  0  0  0  0  0  0  0
    8.1337  -17.6590   18.5132 C   0  0  0  0  0  0  0  0  0  0  0  0
    9.4038  -18.0252   19.1744 C   0  0  0  0  0  0  0  0  0  0  0  0
    9.5547  -19.2144   19.5416 O   0  0  0  0  0  0  0  0  0  0  0  0
   10.4612  -17.1215   19.4186 N   0  0  0  0  0  0  0  0  0  0  0  0
   11.6325  -17.4810   20.1750 C   0  0  1  0  0  0  0  0  0  0  0  0
   12.7513  -16.4459   20.0569 C   0  0  0  0  0  0  0  0  0  0  0  0
   13.3322  -16.4018   18.7236 C   0  0  0  0  0  0  0  0  0  0  0  0
   13.3783  -17.4451   18.0163 O   0  0  0  0  0  0  0  0  0  0  0  0
   11.2934  -17.5492   21.6215 C   0  0  0  0  0  0  0  0  0  0  0  0
   10.8229  -16.5142   22.1569 O   0  0  0  0  0  0  0  0  0  0  0  0
   13.8420  -15.2021   18.2245 O   0  0  0  0  0  0  0  0  0  0  0  0
    9.8032  -20.8867   23.1805 O   0  0  0  0  0  0  0  0  0  0  0  0
    9.7864  -19.6902   23.8903 C   0  0  0  0  0  0  0  0  0  0  0  0
   11.0417  -18.8803   23.7523 C   0  0  2  0  0  0  0  0  0  0  0  0
   11.4676  -18.6894   22.4094 N   0  0  0  0  0  0  0  0  0  0  0  0
   12.1206  -19.5982   24.4856 C   0  0  0  0  0  0  0  0  0  0  0  0
   12.0241  -19.9286   25.8444 O   0  0  0  0  0  0  0  0  0  0  0  0
   13.1605  -19.9229   23.8686 O   0  0  0  0  0  0  0  0  0  0  0  0
  1  2  1  0
  3  5  1  0
  3  2  1  0
  4  3  2  0
  6  5  1  0
  6  7  1  1
  7  8  1  0
  8 12  1  0
  8  9  2  0
 10  6  1  0
 10 11  2  0
 13 14  1  0
 15 14  1  6
 15 16  1  0
 16 10  1  0
 17 18  1  0
 17 15  1  0
 19 17  2  0
M  END
$$$$
