GDS.pdb
     RDKit          3D

 19 18  0  0  1  0  0  0  0  0999 V2000
    9.9647  -18.4491   19.1182 N   0  0  0  0  0  0  0  0  0  0  0  0
   11.2682  -17.9183   19.3753 C   0  0  0  0  0  0  0  0  0  0  0  0
   12.0548  -18.8521   20.2083 C   0  0  0  0  0  0  0  0  0  0  0  0
   11.4701  -19.8561   20.6793 O   0  0  0  0  0  0  0  0  0  0  0  0
   13.4252  -18.6877   20.5073 N   0  0  0  0  0  0  0  0  0  0  0  0
   14.1211  -19.5235   21.4509 C   0  0  1  0  0  0  0  0  0  0  0  0
   15.6367  -19.3287   21.4054 C   0  0  0  0  0  0  0  0  0  0  0  0
   16.2316  -19.8616   20.1892 C   0  0  0  0  0  0  0  0  0  0  0  0
   15.7685  -20.9098   19.6624 O   0  0  0  0  0  0  0  0  0  0  0  0
   13.7074  -19.1690   22.8348 C   0  0  0  0  0  0  0  0  0  0  0  0
   13.8060  -17.9646   23.1795 O   0  0  0  0  0  0  0  0  0  0  0  0
   17.3194  -19.2127   19.6028 O   0  0  0  0  0  0  0  0  0  0  0  0
   10.7748  -20.1593   26.5236 O   0  0  0  0  0  0  0  0  0  0  0  0
   11.2839  -20.3652   25.2453 C   0  0  0  0  0  0  0  0  0  0  0  0
   12.6648  -19.8151   25.0417 C   0  0  2  0  0  0  0  0  0  0  0  0
   13.2201  -20.0923   23.7627 N   0  0  0  0  0  0  0  0  0  0  0  0
   13.5466  -20.4256   26.0746 C   0  0  0  0  0  0  0  0  0  0  0  0
   13.3615  -20.2183   27.4486 O   0  0  0  0  0  0  0  0  0  0  0  0
   14.4952  -21.1554   25.7074 O   0  0  0  0  0  0  0  0  0  0  0  0
  1  2  1  0
  3  5  1  0
  3  2  1  0
  4  3  2  0
  6  5  1  0
  6  7  1  1
  7  8  1  0
  8 12  1  0
  8  9  2  0
 10  6  1  0
 10 11  2  0
 13 14  1  0
 15 14  1  6
 15 16  1  0
 16 10  1  0
 17 18  1  0
 17 15  1  0
 19 17  2  0
M  END
$$$$
