GDS.pdb
     RDKit          3D

 19 18  0  0  1  0  0  0  0  0999 V2000
    6.3900  -17.9787   14.2619 N   0  0  0  0  0  0  0  0  0  0  0  0
    5.3493  -18.8335   14.7448 C   0  0  0  0  0  0  0  0  0  0  0  0
    5.4817  -19.0419   16.2020 C   0  0  0  0  0  0  0  0  0  0  0  0
    5.4076  -18.0379   16.9493 O   0  0  0  0  0  0  0  0  0  0  0  0
    5.6851  -20.3008   16.8088 N   0  0  0  0  0  0  0  0  0  0  0  0
    5.8027  -20.4673   18.2343 C   0  0  1  0  0  0  0  0  0  0  0  0
    5.0039  -21.6616   18.7563 C   0  0  0  0  0  0  0  0  0  0  0  0
    5.0811  -21.7950   20.2032 C   0  0  0  0  0  0  0  0  0  0  0  0
    5.1574  -20.7687   20.9322 O   0  0  0  0  0  0  0  0  0  0  0  0
    7.2205  -20.7394   18.5917 C   0  0  0  0  0  0  0  0  0  0  0  0
    8.0190  -20.9847   17.6530 O   0  0  0  0  0  0  0  0  0  0  0  0
    5.0725  -23.0624   20.7880 O   0  0  0  0  0  0  0  0  0  0  0  0
    9.9418  -17.9276   20.7543 O   0  0  0  0  0  0  0  0  0  0  0  0
    8.8152  -18.5769   20.2595 C   0  0  0  0  0  0  0  0  0  0  0  0
    8.8662  -20.0710   20.3861 C   0  0  2  0  0  0  0  0  0  0  0  0
    7.7079  -20.7371   19.9007 N   0  0  0  0  0  0  0  0  0  0  0  0
    9.0171  -20.3927   21.8321 C   0  0  0  0  0  0  0  0  0  0  0  0
    8.0310  -21.0663   22.5663 O   0  0  0  0  0  0  0  0  0  0  0  0
   10.0661  -20.0497   22.4232 O   0  0  0  0  0  0  0  0  0  0  0  0
  1  2  1  0
  3  5  1  0
  3  2  1  0
  4  3  2  0
  6  5  1  0
  6  7  1  6
  7  8  1  0
  8 12  1  0
  8  9  2  0
 10  6  1  0
 10 11  2  0
 13 14  1  0
 15 14  1  1
 15 16  1  0
 16 10  1  0
 17 18  1  0
 17 15  1  0
 19 17  2  0
M  END
$$$$
