GDS.pdb
     RDKit          3D

 19 18  0  0  1  0  0  0  0  0999 V2000
    7.1314  -13.0232   18.4295 N   0  0  0  0  0  0  0  0  0  0  0  0
    8.5349  -12.8526   18.2102 C   0  0  0  0  0  0  0  0  0  0  0  0
    9.2984  -13.9390   18.8594 C   0  0  0  0  0  0  0  0  0  0  0  0
    8.6630  -14.7831   19.5344 O   0  0  0  0  0  0  0  0  0  0  0  0
   10.6996  -14.0895   18.7672 N   0  0  0  0  0  0  0  0  0  0  0  0
   11.4029  -15.1997   19.3555 C   0  0  1  0  0  0  0  0  0  0  0  0
   12.7977  -15.3957   18.7612 C   0  0  0  0  0  0  0  0  0  0  0  0
   12.7658  -16.0753   17.4751 C   0  0  0  0  0  0  0  0  0  0  0  0
   12.1582  -17.1737   17.3523 O   0  0  0  0  0  0  0  0  0  0  0  0
   11.6113  -14.9487   20.8066 C   0  0  0  0  0  0  0  0  0  0  0  0
   12.2310  -13.9050   21.1320 O   0  0  0  0  0  0  0  0  0  0  0  0
   13.4105  -15.5120   16.3726 O   0  0  0  0  0  0  0  0  0  0  0  0
    8.8316  -16.0593   23.5037 O   0  0  0  0  0  0  0  0  0  0  0  0
    9.8642  -15.1769   23.8049 C   0  0  0  0  0  0  0  0  0  0  0  0
   11.1896  -15.5645   23.2186 C   0  0  2  0  0  0  0  0  0  0  0  0
   11.1604  -15.8011   21.8171 N   0  0  0  0  0  0  0  0  0  0  0  0
   11.6284  -16.8173   23.8934 C   0  0  0  0  0  0  0  0  0  0  0  0
   11.9713  -16.8672   25.2517 O   0  0  0  0  0  0  0  0  0  0  0  0
   11.6965  -17.8739   23.2253 O   0  0  0  0  0  0  0  0  0  0  0  0
  1  2  1  0
  3  5  1  0
  3  2  1  0
  4  3  2  0
  6  5  1  0
  6  7  1  6
  7  8  1  0
  8 12  1  0
  8  9  2  0
 10  6  1  0
 10 11  2  0
 13 14  1  0
 15 14  1  1
 15 16  1  0
 16 10  1  0
 17 18  1  0
 17 15  1  0
 19 17  2  0
M  END
$$$$
