GDS.pdb
     RDKit          3D

 19 18  0  0  1  0  0  0  0  0999 V2000
    4.8617  -19.8288   20.2688 N   0  0  0  0  0  0  0  0  0  0  0  0
    4.7852  -18.6541   21.0819 C   0  0  0  0  0  0  0  0  0  0  0  0
    6.1357  -18.2206   21.4977 C   0  0  0  0  0  0  0  0  0  0  0  0
    6.8205  -19.0108   22.1894 O   0  0  0  0  0  0  0  0  0  0  0  0
    6.7066  -16.9726   21.1647 N   0  0  0  0  0  0  0  0  0  0  0  0
    7.9916  -16.5489   21.6573 C   0  0  1  0  0  0  0  0  0  0  0  0
    8.5548  -15.3556   20.8854 C   0  0  0  0  0  0  0  0  0  0  0  0
    9.3625  -15.7599   19.7447 C   0  0  0  0  0  0  0  0  0  0  0  0
    8.8138  -16.0266   18.6408 O   0  0  0  0  0  0  0  0  0  0  0  0
    7.8628  -16.0958   23.0681 C   0  0  0  0  0  0  0  0  0  0  0  0
    7.0285  -15.1884   23.3125 O   0  0  0  0  0  0  0  0  0  0  0  0
   10.7493  -15.8551   19.8711 O   0  0  0  0  0  0  0  0  0  0  0  0
    6.8318  -18.1276   25.9771 O   0  0  0  0  0  0  0  0  0  0  0  0
    7.0869  -16.7615   26.0432 C   0  0  0  0  0  0  0  0  0  0  0  0
    8.4332  -16.3650   25.5129 C   0  0  2  0  0  0  0  0  0  0  0  0
    8.6110  -16.6186   24.1254 N   0  0  0  0  0  0  0  0  0  0  0  0
    9.4569  -17.1432   26.2636 C   0  0  0  0  0  0  0  0  0  0  0  0
    9.5695  -17.0993   27.6602 O   0  0  0  0  0  0  0  0  0  0  0  0
   10.2539  -17.8690   25.6268 O   0  0  0  0  0  0  0  0  0  0  0  0
  1  2  1  0
  3  5  1  0
  3  2  1  0
  4  3  2  0
  6  5  1  0
  6  7  1  6
  7  8  1  0
  8 12  1  0
  8  9  2  0
 10  6  1  0
 10 11  2  0
 13 14  1  0
 15 14  1  1
 15 16  1  0
 16 10  1  0
 17 18  1  0
 17 15  1  0
 19 17  2  0
M  END
$$$$
