GDS.pdb
     RDKit          3D

 19 18  0  0  1  0  0  0  0  0999 V2000
    8.7479  -17.3458   17.7400 N   0  0  0  0  0  0  0  0  0  0  0  0
    8.6799  -18.1751   18.9039 C   0  0  0  0  0  0  0  0  0  0  0  0
    7.8810  -17.5217   19.9620 C   0  0  0  0  0  0  0  0  0  0  0  0
    7.5416  -16.3270   19.7902 O   0  0  0  0  0  0  0  0  0  0  0  0
    7.4728  -18.1571   21.1553 N   0  0  0  0  0  0  0  0  0  0  0  0
    6.7359  -17.4746   22.1871 C   0  0  1  0  0  0  0  0  0  0  0  0
    6.0661  -18.4368   23.1681 C   0  0  0  0  0  0  0  0  0  0  0  0
    4.8873  -19.0771   22.6046 C   0  0  0  0  0  0  0  0  0  0  0  0
    3.9602  -18.3787   22.1109 O   0  0  0  0  0  0  0  0  0  0  0  0
    7.6645  -16.6458   23.0013 C   0  0  0  0  0  0  0  0  0  0  0  0
    8.8540  -17.0377   23.1040 O   0  0  0  0  0  0  0  0  0  0  0  0
    4.7795  -20.4687   22.6109 O   0  0  0  0  0  0  0  0  0  0  0  0
    6.3145  -13.0262   24.7816 O   0  0  0  0  0  0  0  0  0  0  0  0
    7.6502  -13.1641   24.4172 C   0  0  0  0  0  0  0  0  0  0  0  0
    8.1306  -14.5850   24.3836 C   0  0  2  0  0  0  0  0  0  0  0  0
    7.2904  -15.4674   23.6513 N   0  0  0  0  0  0  0  0  0  0  0  0
    8.1994  -15.0676   25.7906 C   0  0  0  0  0  0  0  0  0  0  0  0
    9.0091  -14.4620   26.7616 O   0  0  0  0  0  0  0  0  0  0  0  0
    7.5079  -16.0556   26.1271 O   0  0  0  0  0  0  0  0  0  0  0  0
  1  2  1  0
  3  5  1  0
  3  2  1  0
  4  3  2  0
  6  5  1  0
  6  7  1  1
  7  8  1  0
  8 12  1  0
  8  9  2  0
 10  6  1  0
 10 11  2  0
 13 14  1  0
 15 14  1  1
 15 16  1  0
 16 10  1  0
 17 18  1  0
 17 15  1  0
 19 17  2  0
M  END
$$$$
