GDS.pdb
     RDKit          3D

 19 18  0  0  1  0  0  0  0  0999 V2000
    7.8262  -18.8210   19.8712 N   0  0  0  0  0  0  0  0  0  0  0  0
    8.5775  -17.6371   20.1553 C   0  0  0  0  0  0  0  0  0  0  0  0
    9.8592  -17.9785   20.8075 C   0  0  0  0  0  0  0  0  0  0  0  0
    9.8457  -18.8434   21.7150 O   0  0  0  0  0  0  0  0  0  0  0  0
   11.1006  -17.3940   20.4734 N   0  0  0  0  0  0  0  0  0  0  0  0
   12.3128  -17.6752   21.1979 C   0  0  1  0  0  0  0  0  0  0  0  0
   13.5583  -17.1338   20.4960 C   0  0  0  0  0  0  0  0  0  0  0  0
   14.0226  -18.0085   19.4300 C   0  0  0  0  0  0  0  0  0  0  0  0
   13.5127  -19.1523   19.2798 O   0  0  0  0  0  0  0  0  0  0  0  0
   12.2705  -17.0046   22.5248 C   0  0  0  0  0  0  0  0  0  0  0  0
   12.0651  -15.7650   22.5424 O   0  0  0  0  0  0  0  0  0  0  0  0
   15.0368  -17.5827   18.5707 O   0  0  0  0  0  0  0  0  0  0  0  0
   10.2187  -16.5016   26.4389 O   0  0  0  0  0  0  0  0  0  0  0  0
   10.6057  -16.8739   25.1554 C   0  0  0  0  0  0  0  0  0  0  0  0
   12.0606  -17.2184   25.0318 C   0  0  2  0  0  0  0  0  0  0  0  0
   12.4450  -17.6708   23.7400 N   0  0  0  0  0  0  0  0  0  0  0  0
   12.3484  -18.3035   26.0101 C   0  0  0  0  0  0  0  0  0  0  0  0
   12.7277  -19.5955   25.6201 O   0  0  0  0  0  0  0  0  0  0  0  0
   12.2489  -18.0585   27.2338 O   0  0  0  0  0  0  0  0  0  0  0  0
  1  2  1  0
  3  5  1  0
  3  2  1  0
  4  3  2  0
  6  5  1  0
  6  7  1  6
  7  8  1  0
  8 12  1  0
  8  9  2  0
 10  6  1  0
 10 11  2  0
 13 14  1  0
 15 14  1  6
 15 16  1  0
 16 10  1  0
 17 18  1  0
 17 15  1  0
 19 17  2  0
M  END
$$$$
