NGL.pdb
     RDKit          3D

 21 20  0  0  1  0  0  0  0  0999 V2000
   16.0903  -25.2153    0.5889 N   0  0  0  0  0  0  0  0  0  0  0  0
   14.8262  -24.6654    0.8981 C   0  0  0  0  0  0  0  0  0  0  0  0
   13.8703  -25.4204    1.1922 O   0  0  0  0  0  0  0  0  0  0  0  0
   14.6099  -23.1961    0.8802 C   0  0  0  0  0  0  0  0  0  0  0  0
   13.5582  -22.8148    1.9046 C   0  0  2  0  0  0  0  0  0  0  0  0
   12.2602  -23.2895    1.4723 N   0  0  0  0  0  0  0  0  0  0  0  0
   13.5042  -21.3554    2.1040 C   0  0  0  0  0  0  0  0  0  0  0  0
   12.4496  -20.7688    1.7437 O   0  0  0  0  0  0  0  0  0  0  0  0
   14.5552  -20.5886    2.6687 N   0  0  0  0  0  0  0  0  0  0  0  0
   14.5009  -19.1900    2.9329 C   0  0  0  0  0  0  0  0  0  0  0  0
   15.7038  -18.6093    3.5301 C   0  0  0  0  0  0  0  0  0  0  0  0
   16.6754  -19.4099    3.7720 O   0  0  0  0  0  0  0  0  0  0  0  0
   17.8158  -13.7672    2.2620 C   0  0  0  0  0  0  0  0  0  0  0  0
   17.5930  -15.2150    2.6341 C   0  0  1  0  0  0  0  0  0  0  0  0
   18.8711  -15.9594    2.2190 C   0  0  0  0  0  0  0  0  0  0  0  0
   17.4133  -15.4203    4.0969 C   0  0  0  0  0  0  0  0  0  0  0  0
   17.1715  -16.8397    4.5136 C   0  0  2  0  0  0  0  0  0  0  0  0
   15.9234  -17.2700    3.8705 N   0  0  0  0  0  0  0  0  0  0  0  0
   17.0245  -16.9048    5.9955 C   0  0  0  0  0  0  0  0  0  0  0  0
   15.9144  -16.8811    6.5734 O   0  0  0  0  0  0  0  0  0  0  0  0
   18.1650  -16.9963    6.7864 O   0  0  0  0  0  0  0  0  0  0  0  0
  2  1  1  0
  2  3  2  0
  4  2  1  0
  5  4  1  0
  5  6  1  6
  7  9  1  0
  7  5  1  0
  8  7  2  0
 10 11  1  0
 10  9  1  0
 11 18  1  0
 12 11  2  0
 14 13  1  1
 14 15  1  0
 16 14  1  0
 17 16  1  1
 18 17  1  0
 19 21  1  0
 19 17  1  0
 20 19  2  0
M  END
$$$$
