NGL.pdb
     RDKit          3D

 21 20  0  0  1  0  0  0  0  0999 V2000
   20.8245  -13.1162  -21.1516 N   0  0  0  0  0  0  0  0  0  0  0  0
   20.8024  -12.4763  -19.8922 C   0  0  0  0  0  0  0  0  0  0  0  0
   20.4754  -13.1207  -18.8684 O   0  0  0  0  0  0  0  0  0  0  0  0
   21.1632  -11.0415  -19.7606 C   0  0  0  0  0  0  0  0  0  0  0  0
   22.5148  -10.9072  -19.0853 C   0  0  2  0  0  0  0  0  0  0  0  0
   22.5280  -11.6793  -17.8603 N   0  0  0  0  0  0  0  0  0  0  0  0
   22.8272   -9.4994  -18.7801 C   0  0  0  0  0  0  0  0  0  0  0  0
   22.8674   -8.7000  -19.7524 O   0  0  0  0  0  0  0  0  0  0  0  0
   23.0808   -9.0039  -17.4757 N   0  0  0  0  0  0  0  0  0  0  0  0
   23.2901   -7.6346  -17.1437 C   0  0  0  0  0  0  0  0  0  0  0  0
   22.3228   -7.0517  -16.2133 C   0  0  0  0  0  0  0  0  0  0  0  0
   21.0823   -7.2592  -16.4612 O   0  0  0  0  0  0  0  0  0  0  0  0
   21.8909   -8.7857  -11.7475 C   0  0  0  0  0  0  0  0  0  0  0  0
   21.5128   -8.0550  -13.0152 C   0  0  1  0  0  0  0  0  0  0  0  0
   20.0263   -8.3620  -13.2523 C   0  0  0  0  0  0  0  0  0  0  0  0
   21.6495   -6.5778  -12.8999 C   0  0  0  0  0  0  0  0  0  0  0  0
   21.5148   -5.8254  -14.1894 C   0  0  2  0  0  0  0  0  0  0  0  0
   22.5931   -6.2885  -15.0722 N   0  0  0  0  0  0  0  0  0  0  0  0
   21.6657   -4.3651  -13.9311 C   0  0  0  0  0  0  0  0  0  0  0  0
   20.8245   -3.6941  -13.2915 O   0  0  0  0  0  0  0  0  0  0  0  0
   22.7884   -3.7033  -14.4173 O   0  0  0  0  0  0  0  0  0  0  0  0
  2  1  1  0
  2  3  2  0
  4  2  1  0
  5  4  1  0
  5  6  1  1
  7  9  1  0
  7  5  1  0
  8  7  2  0
 10 11  1  0
 10  9  1  0
 11 18  1  0
 12 11  2  0
 14 13  1  1
 14 15  1  0
 16 14  1  0
 17 16  1  1
 18 17  1  0
 19 21  1  0
 19 17  1  0
 20 19  2  0
M  END
$$$$
