NGL.pdb
     RDKit          3D

 21 20  0  0  1  0  0  0  0  0999 V2000
   29.7055  -20.2075  -17.9206 N   0  0  0  0  0  0  0  0  0  0  0  0
   28.5785  -19.3667  -18.0582 C   0  0  0  0  0  0  0  0  0  0  0  0
   28.4472  -18.6591  -19.0841 O   0  0  0  0  0  0  0  0  0  0  0  0
   27.5388  -19.3073  -16.9992 C   0  0  0  0  0  0  0  0  0  0  0  0
   27.8945  -20.2561  -15.8704 C   0  0  2  0  0  0  0  0  0  0  0  0
   27.6804  -21.6236  -16.2957 N   0  0  0  0  0  0  0  0  0  0  0  0
   27.0892  -19.9863  -14.6656 C   0  0  0  0  0  0  0  0  0  0  0  0
   27.3528  -18.9334  -14.0269 O   0  0  0  0  0  0  0  0  0  0  0  0
   26.0527  -20.8316  -14.1940 N   0  0  0  0  0  0  0  0  0  0  0  0
   25.1674  -20.5251  -13.1209 C   0  0  0  0  0  0  0  0  0  0  0  0
   25.5828  -20.9983  -11.8002 C   0  0  0  0  0  0  0  0  0  0  0  0
   25.7235  -22.2642  -11.6556 O   0  0  0  0  0  0  0  0  0  0  0  0
   28.7498  -20.5958   -8.6537 C   0  0  0  0  0  0  0  0  0  0  0  0
   27.6234  -20.2854   -7.6951 C   0  0  1  0  0  0  0  0  0  0  0  0
   28.1290  -19.1390   -6.8062 C   0  0  0  0  0  0  0  0  0  0  0  0
   26.3906  -19.8085   -8.3785 C   0  0  0  0  0  0  0  0  0  0  0  0
   25.7612  -20.7960   -9.3141 C   0  0  2  0  0  0  0  0  0  0  0  0
   25.8494  -20.2256  -10.6645 N   0  0  0  0  0  0  0  0  0  0  0  0
   24.3314  -20.9926   -8.9415 C   0  0  0  0  0  0  0  0  0  0  0  0
   23.9724  -21.5964   -7.9054 O   0  0  0  0  0  0  0  0  0  0  0  0
   23.3383  -20.4872   -9.7740 O   0  0  0  0  0  0  0  0  0  0  0  0
  2  1  1  0
  2  3  2  0
  4  2  1  0
  5  4  1  0
  5  6  1  6
  7  9  1  0
  7  5  1  0
  8  7  2  0
 10 11  1  0
 10  9  1  0
 11 18  1  0
 12 11  2  0
 14 13  1  6
 14 15  1  0
 16 14  1  0
 17 16  1  1
 18 17  1  0
 19 21  1  0
 19 17  1  0
 20 19  2  0
M  END
$$$$
