NGL.pdb
     RDKit          3D

 21 20  0  0  1  0  0  0  0  0999 V2000
   30.5015  -20.6551  -10.4411 N   0  0  0  0  0  0  0  0  0  0  0  0
   29.2913  -21.3624  -10.2650 C   0  0  0  0  0  0  0  0  0  0  0  0
   29.0105  -21.8538   -9.1469 O   0  0  0  0  0  0  0  0  0  0  0  0
   28.3389  -21.5344  -11.3917 C   0  0  0  0  0  0  0  0  0  0  0  0
   27.1059  -20.6811  -11.1625 C   0  0  2  0  0  0  0  0  0  0  0  0
   26.3365  -21.2201  -10.0606 N   0  0  0  0  0  0  0  0  0  0  0  0
   26.2596  -20.6223  -12.3680 C   0  0  0  0  0  0  0  0  0  0  0  0
   26.7268  -20.0092  -13.3639 O   0  0  0  0  0  0  0  0  0  0  0  0
   24.9713  -21.2070  -12.4667 N   0  0  0  0  0  0  0  0  0  0  0  0
   24.1585  -21.2102  -13.6364 C   0  0  0  0  0  0  0  0  0  0  0  0
   23.6762  -19.9014  -14.0782 C   0  0  0  0  0  0  0  0  0  0  0  0
   22.6838  -19.4027  -13.4380 O   0  0  0  0  0  0  0  0  0  0  0  0
   26.7295  -16.1791  -16.8711 C   0  0  0  0  0  0  0  0  0  0  0  0
   25.7930  -16.8172  -15.8711 C   0  0  1  0  0  0  0  0  0  0  0  0
   25.5627  -15.7642  -14.7764 C   0  0  0  0  0  0  0  0  0  0  0  0
   24.4646  -17.1559  -16.4496 C   0  0  0  0  0  0  0  0  0  0  0  0
   23.5273  -17.8613  -15.5166 C   0  0  2  0  0  0  0  0  0  0  0  0
   24.1753  -19.1198  -15.1260 N   0  0  0  0  0  0  0  0  0  0  0  0
   22.2469  -18.1507  -16.2229 C   0  0  0  0  0  0  0  0  0  0  0  0
   22.0398  -19.2115  -16.8545 O   0  0  0  0  0  0  0  0  0  0  0  0
   21.2250  -17.2076  -16.1875 O   0  0  0  0  0  0  0  0  0  0  0  0
  2  1  1  0
  2  3  2  0
  4  2  1  0
  5  4  1  0
  5  6  1  1
  7  9  1  0
  7  5  1  0
  8  7  2  0
 10 11  1  0
 10  9  1  0
 11 18  1  0
 12 11  2  0
 14 13  1  6
 14 15  1  0
 16 14  1  0
 17 16  1  6
 18 17  1  0
 19 21  1  0
 19 17  1  0
 20 19  2  0
M  END
$$$$
