NGL.pdb
     RDKit          3D

 21 20  0  0  1  0  0  0  0  0999 V2000
   17.3427  -12.0644  -17.7136 N   0  0  0  0  0  0  0  0  0  0  0  0
   17.4452  -12.5324  -16.3845 C   0  0  0  0  0  0  0  0  0  0  0  0
   16.6418  -13.3960  -15.9614 O   0  0  0  0  0  0  0  0  0  0  0  0
   18.4976  -12.0140  -15.4736 C   0  0  0  0  0  0  0  0  0  0  0  0
   19.3247  -10.9598  -16.1847 C   0  0  2  0  0  0  0  0  0  0  0  0
   20.4801  -11.5786  -16.8004 N   0  0  0  0  0  0  0  0  0  0  0  0
   19.7707   -9.9069  -15.2546 C   0  0  0  0  0  0  0  0  0  0  0  0
   18.8951   -9.1005  -14.8432 O   0  0  0  0  0  0  0  0  0  0  0  0
   21.1071   -9.7539  -14.8055 N   0  0  0  0  0  0  0  0  0  0  0  0
   21.5576   -8.7576  -13.8924 C   0  0  0  0  0  0  0  0  0  0  0  0
   21.9419   -7.4776  -14.4879 C   0  0  0  0  0  0  0  0  0  0  0  0
   22.4094   -7.5103  -15.6811 O   0  0  0  0  0  0  0  0  0  0  0  0
   18.9122   -4.0997  -16.3799 C   0  0  0  0  0  0  0  0  0  0  0  0
   19.8716   -4.3997  -15.2514 C   0  0  1  0  0  0  0  0  0  0  0  0
   19.2736   -5.5960  -14.4953 C   0  0  0  0  0  0  0  0  0  0  0  0
   21.2228   -4.8035  -15.7262 C   0  0  0  0  0  0  0  0  0  0  0  0
   22.2427   -5.0001  -14.6456 C   0  0  2  0  0  0  0  0  0  0  0  0
   21.8573   -6.2083  -13.9051 N   0  0  0  0  0  0  0  0  0  0  0  0
   22.2318   -3.8228  -13.7314 C   0  0  0  0  0  0  0  0  0  0  0  0
   21.7690   -3.8648  -12.5690 O   0  0  0  0  0  0  0  0  0  0  0  0
   22.7570   -2.6141  -14.1765 O   0  0  0  0  0  0  0  0  0  0  0  0
  2  1  1  0
  2  3  2  0
  4  2  1  0
  5  4  1  0
  5  6  1  1
  7  9  1  0
  7  5  1  0
  8  7  2  0
 10 11  1  0
 10  9  1  0
 11 18  1  0
 12 11  2  0
 14 13  1  6
 14 15  1  0
 16 14  1  0
 17 16  1  6
 18 17  1  0
 19 21  1  0
 19 17  1  0
 20 19  2  0
M  END
$$$$
