NGL.pdb
     RDKit          3D

 21 20  0  0  1  0  0  0  0  0999 V2000
   15.7729  -16.6283  -16.4946 N   0  0  0  0  0  0  0  0  0  0  0  0
   15.4056  -15.9773  -17.6935 C   0  0  0  0  0  0  0  0  0  0  0  0
   14.7755  -16.6030  -18.5777 O   0  0  0  0  0  0  0  0  0  0  0  0
   15.7563  -14.5527  -17.9248 C   0  0  0  0  0  0  0  0  0  0  0  0
   16.3738  -13.9613  -16.6718 C   0  0  2  0  0  0  0  0  0  0  0  0
   15.3277  -13.5480  -15.7598 N   0  0  0  0  0  0  0  0  0  0  0  0
   17.2324  -12.8056  -16.9880 C   0  0  0  0  0  0  0  0  0  0  0  0
   18.3357  -13.0495  -17.5442 O   0  0  0  0  0  0  0  0  0  0  0  0
   16.8914  -11.4583  -16.7054 N   0  0  0  0  0  0  0  0  0  0  0  0
   17.6956  -10.3249  -17.0179 C   0  0  0  0  0  0  0  0  0  0  0  0
   18.6990   -9.9626  -16.0165 C   0  0  0  0  0  0  0  0  0  0  0  0
   18.5371  -10.4354  -14.8360 O   0  0  0  0  0  0  0  0  0  0  0  0
   22.9585  -10.3418  -13.3099 C   0  0  0  0  0  0  0  0  0  0  0  0
   23.2111   -9.7238  -14.6657 C   0  0  1  0  0  0  0  0  0  0  0  0
   24.3433  -10.5457  -15.3003 C   0  0  0  0  0  0  0  0  0  0  0  0
   22.0355   -9.8096  -15.5740 C   0  0  0  0  0  0  0  0  0  0  0  0
   20.8411   -9.0131  -15.1431 C   0  0  2  0  0  0  0  0  0  0  0  0
   19.8272   -9.1546  -16.1959 N   0  0  0  0  0  0  0  0  0  0  0  0
   21.2244   -7.5797  -15.0006 C   0  0  0  0  0  0  0  0  0  0  0  0
   21.1824   -6.7638  -15.9491 O   0  0  0  0  0  0  0  0  0  0  0  0
   21.6507   -7.1119  -13.7619 O   0  0  0  0  0  0  0  0  0  0  0  0
  2  1  1  0
  2  3  2  0
  4  2  1  0
  5  4  1  0
  5  6  1  1
  7  9  1  0
  7  5  1  0
  8  7  2  0
 10 11  1  0
 10  9  1  0
 11 18  1  0
 12 11  2  0
 14 13  1  1
 14 15  1  0
 16 14  1  0
 17 16  1  6
 18 17  1  0
 19 21  1  0
 19 17  1  0
 20 19  2  0
M  END
$$$$
