NGL.pdb
     RDKit          3D

 21 20  0  0  1  0  0  0  0  0999 V2000
   29.8474  -35.5980   -7.0500 N   0  0  0  0  0  0  0  0  0  0  0  0
   28.8116  -35.5134   -8.0070 C   0  0  0  0  0  0  0  0  0  0  0  0
   28.7181  -36.3810   -8.9064 O   0  0  0  0  0  0  0  0  0  0  0  0
   27.8241  -34.4048   -7.9644 C   0  0  0  0  0  0  0  0  0  0  0  0
   26.4178  -34.9668   -7.8778 C   0  0  2  0  0  0  0  0  0  0  0  0
   25.9852  -35.4050   -9.1884 N   0  0  0  0  0  0  0  0  0  0  0  0
   25.4685  -33.9661   -7.3581 C   0  0  0  0  0  0  0  0  0  0  0  0
   25.5459  -33.6888   -6.1320 O   0  0  0  0  0  0  0  0  0  0  0  0
   24.4901  -33.3100   -8.1478 N   0  0  0  0  0  0  0  0  0  0  0  0
   23.5536  -32.3512   -7.6656 C   0  0  0  0  0  0  0  0  0  0  0  0
   22.5719  -32.8510   -6.7025 C   0  0  0  0  0  0  0  0  0  0  0  0
   22.7561  -34.0358   -6.2487 O   0  0  0  0  0  0  0  0  0  0  0  0
   21.0811  -30.4346   -2.3104 C   0  0  0  0  0  0  0  0  0  0  0  0
   21.4216  -31.4021   -3.4204 C   0  0  1  0  0  0  0  0  0  0  0  0
   22.0249  -32.6370   -2.7341 C   0  0  0  0  0  0  0  0  0  0  0  0
   20.2284  -31.8561   -4.1849 C   0  0  0  0  0  0  0  0  0  0  0  0
   20.5133  -32.8357   -5.2830 C   0  0  2  0  0  0  0  0  0  0  0  0
   21.4452  -32.1825   -6.2111 N   0  0  0  0  0  0  0  0  0  0  0  0
   19.2456  -33.1701   -5.9924 C   0  0  0  0  0  0  0  0  0  0  0  0
   18.3047  -33.7942   -5.4519 O   0  0  0  0  0  0  0  0  0  0  0  0
   19.0861  -32.7770   -7.3170 O   0  0  0  0  0  0  0  0  0  0  0  0
  2  1  1  0
  2  3  2  0
  4  2  1  0
  5  4  1  0
  5  6  1  6
  7  9  1  0
  7  5  1  0
  8  7  2  0
 10 11  1  0
 10  9  1  0
 11 18  1  0
 12 11  2  0
 14 13  1  1
 14 15  1  0
 16 14  1  0
 17 16  1  1
 18 17  1  0
 19 21  1  0
 19 17  1  0
 20 19  2  0
M  END
$$$$
