NGL.pdb
     RDKit          3D

 21 20  0  0  1  0  0  0  0  0999 V2000
   26.0778  -21.0828   -7.7410 N   0  0  0  0  0  0  0  0  0  0  0  0
   24.7936  -21.0947   -8.3297 C   0  0  0  0  0  0  0  0  0  0  0  0
   23.7749  -20.9610   -7.6121 O   0  0  0  0  0  0  0  0  0  0  0  0
   24.6296  -21.2641   -9.7961 C   0  0  0  0  0  0  0  0  0  0  0  0
   25.9733  -21.5535  -10.4375 C   0  0  2  0  0  0  0  0  0  0  0  0
   26.9578  -20.6059   -9.9583 N   0  0  0  0  0  0  0  0  0  0  0  0
   25.8962  -21.4780  -11.9076 C   0  0  0  0  0  0  0  0  0  0  0  0
   25.0740  -22.2441  -12.4760 O   0  0  0  0  0  0  0  0  0  0  0  0
   26.6827  -20.6064  -12.7033 N   0  0  0  0  0  0  0  0  0  0  0  0
   26.6297  -20.5196  -14.1241 C   0  0  0  0  0  0  0  0  0  0  0  0
   25.6241  -19.6062  -14.6675 C   0  0  0  0  0  0  0  0  0  0  0  0
   24.4696  -19.6170  -14.1104 O   0  0  0  0  0  0  0  0  0  0  0  0
   27.4733  -15.4554  -17.1283 C   0  0  0  0  0  0  0  0  0  0  0  0
   26.7747  -16.3972  -16.1749 C   0  0  1  0  0  0  0  0  0  0  0  0
   26.9995  -15.8189  -14.7694 C   0  0  0  0  0  0  0  0  0  0  0  0
   25.3052  -16.4685  -16.3973 C   0  0  0  0  0  0  0  0  0  0  0  0
   24.6872  -17.8078  -16.1308 C   0  0  2  0  0  0  0  0  0  0  0  0
   25.7741  -18.7115  -15.7328 N   0  0  0  0  0  0  0  0  0  0  0  0
   24.0403  -18.3134  -17.3750 C   0  0  0  0  0  0  0  0  0  0  0  0
   23.0150  -17.7944  -17.8711 O   0  0  0  0  0  0  0  0  0  0  0  0
   24.5902  -19.4126  -18.0263 O   0  0  0  0  0  0  0  0  0  0  0  0
  2  1  1  0
  2  3  2  0
  4  2  1  0
  5  4  1  0
  5  6  1  1
  7  9  1  0
  7  5  1  0
  8  7  2  0
 10 11  1  0
 10  9  1  0
 11 18  1  0
 12 11  2  0
 14 13  1  6
 14 15  1  0
 16 14  1  0
 17 16  1  6
 18 17  1  0
 19 21  1  0
 19 17  1  0
 20 19  2  0
M  END
$$$$
