NGL.pdb
     RDKit          3D

 21 20  0  0  1  0  0  0  0  0999 V2000
   15.0433  -14.9245  -18.2109 N   0  0  0  0  0  0  0  0  0  0  0  0
   15.6505  -14.6344  -16.9687 C   0  0  0  0  0  0  0  0  0  0  0  0
   15.4989  -15.4153  -16.0004 O   0  0  0  0  0  0  0  0  0  0  0  0
   16.4720  -13.4099  -16.7901 C   0  0  0  0  0  0  0  0  0  0  0  0
   17.2870  -13.1459  -18.0418 C   0  0  2  0  0  0  0  0  0  0  0  0
   18.4345  -14.0286  -18.0730 N   0  0  0  0  0  0  0  0  0  0  0  0
   17.7446  -11.7460  -18.1017 C   0  0  0  0  0  0  0  0  0  0  0  0
   16.8545  -10.8564  -18.1544 O   0  0  0  0  0  0  0  0  0  0  0  0
   19.1070  -11.3520  -18.1036 N   0  0  0  0  0  0  0  0  0  0  0  0
   19.5725  -10.0058  -18.1128 C   0  0  0  0  0  0  0  0  0  0  0  0
   20.0212   -9.4802  -16.8231 C   0  0  0  0  0  0  0  0  0  0  0  0
   19.3115   -9.7767  -15.7975 O   0  0  0  0  0  0  0  0  0  0  0  0
   24.5457  -10.6665  -15.0038 C   0  0  0  0  0  0  0  0  0  0  0  0
   23.1003  -10.2418  -15.1237 C   0  0  1  0  0  0  0  0  0  0  0  0
   22.3609  -10.9277  -13.9648 C   0  0  0  0  0  0  0  0  0  0  0  0
   22.9087   -8.7744  -14.9677 C   0  0  0  0  0  0  0  0  0  0  0  0
   21.5113   -8.2879  -15.2072 C   0  0  2  0  0  0  0  0  0  0  0  0
   21.1454   -8.6857  -16.5726 N   0  0  0  0  0  0  0  0  0  0  0  0
   21.4744   -6.8026  -15.0871 C   0  0  0  0  0  0  0  0  0  0  0  0
   21.3454   -6.0406  -16.0718 O   0  0  0  0  0  0  0  0  0  0  0  0
   21.5875   -6.2213  -13.8284 O   0  0  0  0  0  0  0  0  0  0  0  0
  2  1  1  0
  2  3  2  0
  4  2  1  0
  5  4  1  0
  5  6  1  1
  7  9  1  0
  7  5  1  0
  8  7  2  0
 10 11  1  0
 10  9  1  0
 11 18  1  0
 12 11  2  0
 14 13  1  1
 14 15  1  0
 16 14  1  0
 17 16  1  6
 18 17  1  0
 19 21  1  0
 19 17  1  0
 20 19  2  0
M  END
$$$$
