KWV.pdb
     RDKit          3D

 31 32  0  0  1  0  0  0  0  0999 V2000
   28.5411  -22.5328  -15.2761 N   0  0  0  0  0  0  0  0  0  0  0  0
   28.3222  -21.2573  -14.7108 C   0  0  1  0  0  0  0  0  0  0  0  0
   27.7319  -20.2542  -15.5884 C   0  0  0  0  0  0  0  0  0  0  0  0
   28.3015  -19.7670  -16.8156 C   0  0  0  0  0  0  0  0  0  0  0  0
   29.2456  -20.3014  -17.7527 C   0  0  0  0  0  0  0  0  0  0  0  0
   29.7191  -19.7354  -19.0069 C   0  0  0  0  0  0  0  0  0  0  0  0
   29.6987  -18.3318  -19.2284 N   0  0  0  0  0  0  0  0  0  0  0  0
   27.5650  -21.4196  -13.4194 C   0  0  0  0  0  0  0  0  0  0  0  0
   26.4687  -22.0151  -13.4507 O   0  0  0  0  0  0  0  0  0  0  0  0
   28.0362  -20.9339  -12.1893 N   0  0  0  0  0  0  0  0  0  0  0  0
   27.3002  -20.8891  -10.9583 C   0  0  1  0  0  0  0  0  0  0  0  0
   28.0447  -20.3546   -9.7921 C   0  0  0  0  0  0  0  0  0  0  0  0
   27.2711  -20.2250   -8.5425 C   0  0  0  0  0  0  0  0  0  0  0  0
   25.9443  -20.1025   -8.3027 C   0  0  0  0  0  0  0  0  0  0  0  0
   25.7557  -20.0184   -6.9660 N   0  0  0  0  0  0  0  0  0  0  0  0
   26.9454  -20.0844   -6.3243 C   0  0  0  0  0  0  0  0  0  0  0  0
   27.3170  -20.0483   -4.9962 C   0  0  0  0  0  0  0  0  0  0  0  0
   28.6468  -20.1411   -4.6249 C   0  0  0  0  0  0  0  0  0  0  0  0
   29.6184  -20.2723   -5.5989 C   0  0  0  0  0  0  0  0  0  0  0  0
   29.2344  -20.3070   -6.9156 C   0  0  0  0  0  0  0  0  0  0  0  0
   27.8975  -20.2137   -7.2976 C   0  0  0  0  0  0  0  0  0  0  0  0
   25.9720  -20.2520  -11.1614 C   0  0  0  0  0  0  0  0  0  0  0  0
   25.8644  -19.0299  -11.4406 O   0  0  0  0  0  0  0  0  0  0  0  0
   22.9339  -22.0511  -12.8733 C   0  0  0  0  0  0  0  0  0  0  0  0
   22.9775  -20.5532  -12.6296 C   0  0  2  0  0  0  0  0  0  0  0  0
   23.9145  -19.9906  -13.6782 C   0  0  0  0  0  0  0  0  0  0  0  0
   23.4526  -20.2981  -11.2379 C   0  0  2  0  0  0  0  0  0  0  0  0
   24.7326  -20.9811  -11.0530 N   0  0  0  0  0  0  0  0  0  0  0  0
   22.4875  -20.8929  -10.2941 C   0  0  0  0  0  0  0  0  0  0  0  0
   21.3557  -20.3910  -10.1572 O   0  0  0  0  0  0  0  0  0  0  0  0
   22.8328  -22.0049   -9.5599 O   0  0  0  0  0  0  0  0  0  0  0  0
  2  1  1  6
  3  2  1  0
  3  4  1  0
  5  4  1  0
  5  6  1  0
  7  6  1  0
  8  2  1  0
  8  9  2  0
 10  8  1  0
 11 10  1  0
 11 12  1  1
 13 12  1  0
 14 13  2  0
 15 14  1  0
 16 21  2  0
 16 15  1  0
 17 16  1  0
 18 17  2  0
 18 19  1  0
 19 20  2  0
 20 21  1  0
 21 13  1  0
 22 11  1  0
 23 22  2  0
 25 24  1  6
 25 27  1  0
 26 25  1  0
 27 28  1  6
 27 29  1  0
 28 22  1  0
 29 31  1  0
 30 29  2  0
M  END
$$$$
