KWV.pdb
     RDKit          3D

 31 32  0  0  1  0  0  0  0  0999 V2000
   28.5609  -22.2049  -15.3385 N   0  0  0  0  0  0  0  0  0  0  0  0
   28.2377  -20.9927  -14.6900 C   0  0  1  0  0  0  0  0  0  0  0  0
   27.6470  -19.9520  -15.5225 C   0  0  0  0  0  0  0  0  0  0  0  0
   28.2487  -19.3608  -16.6871 C   0  0  0  0  0  0  0  0  0  0  0  0
   29.5077  -19.5339  -17.3502 C   0  0  0  0  0  0  0  0  0  0  0  0
   29.9953  -18.9186  -18.5755 C   0  0  0  0  0  0  0  0  0  0  0  0
   30.4502  -17.5723  -18.5855 N   0  0  0  0  0  0  0  0  0  0  0  0
   27.4137  -21.2983  -13.4673 C   0  0  0  0  0  0  0  0  0  0  0  0
   26.3074  -21.8533  -13.6268 O   0  0  0  0  0  0  0  0  0  0  0  0
   27.8337  -20.9887  -12.1639 N   0  0  0  0  0  0  0  0  0  0  0  0
   27.0128  -20.9888  -10.9870 C   0  0  1  0  0  0  0  0  0  0  0  0
   27.6602  -20.4622   -9.7608 C   0  0  0  0  0  0  0  0  0  0  0  0
   26.8345  -20.4883   -8.5384 C   0  0  0  0  0  0  0  0  0  0  0  0
   25.5326  -20.7934   -8.3265 C   0  0  0  0  0  0  0  0  0  0  0  0
   25.2699  -20.6600   -7.0064 N   0  0  0  0  0  0  0  0  0  0  0  0
   26.3862  -20.2702   -6.3480 C   0  0  0  0  0  0  0  0  0  0  0  0
   26.6680  -19.9965   -5.0256 C   0  0  0  0  0  0  0  0  0  0  0  0
   27.9368  -19.6089   -4.6322 C   0  0  0  0  0  0  0  0  0  0  0  0
   28.9380  -19.4943   -5.5779 C   0  0  0  0  0  0  0  0  0  0  0  0
   28.6435  -19.7700   -6.8893 C   0  0  0  0  0  0  0  0  0  0  0  0
   27.3683  -20.1603   -7.2935 C   0  0  0  0  0  0  0  0  0  0  0  0
   25.6860  -20.3797  -11.2699 C   0  0  0  0  0  0  0  0  0  0  0  0
   25.5575  -19.1429  -11.4620 O   0  0  0  0  0  0  0  0  0  0  0  0
   23.6245  -20.7939  -14.1159 C   0  0  0  0  0  0  0  0  0  0  0  0
   22.7061  -21.1612  -12.9642 C   0  0  2  0  0  0  0  0  0  0  0  0
   21.3293  -20.6699  -13.3602 C   0  0  0  0  0  0  0  0  0  0  0  0
   23.2084  -20.5182  -11.7144 C   0  0  2  0  0  0  0  0  0  0  0  0
   24.4718  -21.1540  -11.3419 N   0  0  0  0  0  0  0  0  0  0  0  0
   22.2413  -20.7754  -10.6307 C   0  0  0  0  0  0  0  0  0  0  0  0
   22.2844  -21.8455   -9.9945 O   0  0  0  0  0  0  0  0  0  0  0  0
   21.2864  -19.8349  -10.3174 O   0  0  0  0  0  0  0  0  0  0  0  0
  2  1  1  6
  3  2  1  0
  3  4  1  0
  5  4  1  0
  5  6  1  0
  7  6  1  0
  8  2  1  0
  8  9  2  0
 10  8  1  0
 11 10  1  0
 11 12  1  1
 13 12  1  0
 14 13  2  0
 15 14  1  0
 16 21  2  0
 16 15  1  0
 17 16  1  0
 18 17  2  0
 18 19  1  0
 19 20  2  0
 20 21  1  0
 21 13  1  0
 22 11  1  0
 23 22  2  0
 25 24  1  6
 25 27  1  0
 26 25  1  0
 27 28  1  1
 27 29  1  0
 28 22  1  0
 29 31  1  0
 30 29  2  0
M  END
$$$$
