KWV.pdb
     RDKit          3D

 31 32  0  0  1  0  0  0  0  0999 V2000
   28.5235  -23.1661  -15.9097 N   0  0  0  0  0  0  0  0  0  0  0  0
   28.4696  -21.8727  -15.3453 C   0  0  1  0  0  0  0  0  0  0  0  0
   28.1704  -20.7795  -16.2620 C   0  0  0  0  0  0  0  0  0  0  0  0
   28.4665  -20.7537  -17.6689 C   0  0  0  0  0  0  0  0  0  0  0  0
   29.6828  -20.7574  -18.4276 C   0  0  0  0  0  0  0  0  0  0  0  0
   29.8735  -20.6062  -19.8624 C   0  0  0  0  0  0  0  0  0  0  0  0
   28.9706  -19.8333  -20.6415 N   0  0  0  0  0  0  0  0  0  0  0  0
   27.5523  -21.8994  -14.1514 C   0  0  0  0  0  0  0  0  0  0  0  0
   26.4108  -22.3824  -14.2969 O   0  0  0  0  0  0  0  0  0  0  0  0
   27.9234  -21.4083  -12.8895 N   0  0  0  0  0  0  0  0  0  0  0  0
   27.0701  -21.2912  -11.7418 C   0  0  1  0  0  0  0  0  0  0  0  0
   27.7336  -20.8176  -10.5027 C   0  0  0  0  0  0  0  0  0  0  0  0
   26.8460  -20.5949   -9.3454 C   0  0  0  0  0  0  0  0  0  0  0  0
   25.4990  -20.6281   -9.2125 C   0  0  0  0  0  0  0  0  0  0  0  0
   25.1878  -20.3502   -7.9259 N   0  0  0  0  0  0  0  0  0  0  0  0
   26.3167  -20.1345   -7.2113 C   0  0  0  0  0  0  0  0  0  0  0  0
   26.5657  -19.8234   -5.8905 C   0  0  0  0  0  0  0  0  0  0  0  0
   27.8595  -19.6586   -5.4283 C   0  0  0  0  0  0  0  0  0  0  0  0
   28.9194  -19.8081   -6.3026 C   0  0  0  0  0  0  0  0  0  0  0  0
   28.6570  -20.1177   -7.6131 C   0  0  0  0  0  0  0  0  0  0  0  0
   27.3570  -20.2848   -8.0864 C   0  0  0  0  0  0  0  0  0  0  0  0
   25.8319  -20.5404  -12.0801 C   0  0  0  0  0  0  0  0  0  0  0  0
   25.8581  -19.3080  -12.3323 O   0  0  0  0  0  0  0  0  0  0  0  0
   23.8624  -20.6916  -14.9429 C   0  0  0  0  0  0  0  0  0  0  0  0
   22.8547  -20.9695  -13.8418 C   0  0  2  0  0  0  0  0  0  0  0  0
   21.5593  -20.3291  -14.2953 C   0  0  0  0  0  0  0  0  0  0  0  0
   23.3612  -20.3969  -12.5600 C   0  0  2  0  0  0  0  0  0  0  0  0
   24.5335  -21.1646  -12.1410 N   0  0  0  0  0  0  0  0  0  0  0  0
   22.3228  -20.5654  -11.5259 C   0  0  0  0  0  0  0  0  0  0  0  0
   22.1416  -21.6784  -10.9966 O   0  0  0  0  0  0  0  0  0  0  0  0
   21.5488  -19.4942  -11.1410 O   0  0  0  0  0  0  0  0  0  0  0  0
  2  1  1  6
  3  2  1  0
  3  4  1  0
  5  4  1  0
  5  6  1  0
  7  6  1  0
  8  2  1  0
  8  9  2  0
 10  8  1  0
 11 10  1  0
 11 12  1  1
 13 12  1  0
 14 13  2  0
 15 14  1  0
 16 21  2  0
 16 15  1  0
 17 16  1  0
 18 17  2  0
 18 19  1  0
 19 20  2  0
 20 21  1  0
 21 13  1  0
 22 11  1  0
 23 22  2  0
 25 24  1  6
 25 27  1  0
 26 25  1  0
 27 28  1  1
 27 29  1  0
 28 22  1  0
 29 31  1  0
 30 29  2  0
M  END
$$$$
