KWV.pdb
     RDKit          3D

 31 32  0  0  1  0  0  0  0  0999 V2000
   28.4338  -21.4554  -15.2357 N   0  0  0  0  0  0  0  0  0  0  0  0
   27.7275  -20.3942  -14.6278 C   0  0  1  0  0  0  0  0  0  0  0  0
   27.1787  -19.3853  -15.5255 C   0  0  0  0  0  0  0  0  0  0  0  0
   27.8661  -18.7782  -16.6330 C   0  0  0  0  0  0  0  0  0  0  0  0
   28.4601  -19.2895  -17.8334 C   0  0  0  0  0  0  0  0  0  0  0  0
   29.1540  -18.5746  -18.8941 C   0  0  0  0  0  0  0  0  0  0  0  0
   30.4930  -18.1310  -18.7208 N   0  0  0  0  0  0  0  0  0  0  0  0
   26.6944  -20.9676  -13.6944 C   0  0  0  0  0  0  0  0  0  0  0  0
   26.1154  -22.0201  -14.0324 O   0  0  0  0  0  0  0  0  0  0  0  0
   26.3569  -20.3736  -12.4679 N   0  0  0  0  0  0  0  0  0  0  0  0
   25.4076  -20.8759  -11.5163 C   0  0  1  0  0  0  0  0  0  0  0  0
   25.6748  -20.5167  -10.1022 C   0  0  0  0  0  0  0  0  0  0  0  0
   27.0329  -20.8172   -9.6102 C   0  0  0  0  0  0  0  0  0  0  0  0
   28.0718  -21.4886  -10.1605 C   0  0  0  0  0  0  0  0  0  0  0  0
   29.1028  -21.4758   -9.2853 N   0  0  0  0  0  0  0  0  0  0  0  0
   28.7524  -20.8027   -8.1648 C   0  0  0  0  0  0  0  0  0  0  0  0
   29.4079  -20.4979   -6.9898 C   0  0  0  0  0  0  0  0  0  0  0  0
   28.7818  -19.7731   -5.9911 C   0  0  0  0  0  0  0  0  0  0  0  0
   27.4796  -19.3472   -6.1728 C   0  0  0  0  0  0  0  0  0  0  0  0
   26.8401  -19.6573   -7.3463 C   0  0  0  0  0  0  0  0  0  0  0  0
   27.4636  -20.3871   -8.3565 C   0  0  0  0  0  0  0  0  0  0  0  0
   24.0170  -20.5827  -11.9540 C   0  0  0  0  0  0  0  0  0  0  0  0
   23.5910  -19.4023  -12.0447 O   0  0  0  0  0  0  0  0  0  0  0  0
   22.4756  -22.1347  -15.0308 C   0  0  0  0  0  0  0  0  0  0  0  0
   21.4331  -22.2428  -13.9324 C   0  0  2  0  0  0  0  0  0  0  0  0
   20.1029  -21.9490  -14.5941 C   0  0  0  0  0  0  0  0  0  0  0  0
   21.7629  -21.2713  -12.8483 C   0  0  2  0  0  0  0  0  0  0  0  0
   23.0737  -21.6171  -12.2995 N   0  0  0  0  0  0  0  0  0  0  0  0
   20.7715  -21.4187  -11.7660 C   0  0  0  0  0  0  0  0  0  0  0  0
   20.8065  -22.4130  -11.0165 O   0  0  0  0  0  0  0  0  0  0  0  0
   19.8028  -20.4588  -11.5792 O   0  0  0  0  0  0  0  0  0  0  0  0
  2  1  1  6
  3  2  1  0
  3  4  1  0
  5  4  1  0
  5  6  1  0
  7  6  1  0
  8  2  1  0
  8  9  2  0
 10  8  1  0
 11 10  1  0
 11 12  1  1
 13 12  1  0
 14 13  2  0
 15 14  1  0
 16 21  2  0
 16 15  1  0
 17 16  1  0
 18 17  2  0
 18 19  1  0
 19 20  2  0
 20 21  1  0
 21 13  1  0
 22 11  1  0
 23 22  2  0
 25 24  1  6
 25 27  1  0
 26 25  1  0
 27 28  1  1
 27 29  1  0
 28 22  1  0
 29 31  1  0
 30 29  2  0
M  END
$$$$
