KWV.pdb
     RDKit          3D

 31 32  0  0  1  0  0  0  0  0999 V2000
   28.6292  -22.4573  -15.3558 N   0  0  0  0  0  0  0  0  0  0  0  0
   28.1649  -21.1944  -14.9268 C   0  0  1  0  0  0  0  0  0  0  0  0
   27.4656  -20.3908  -15.9217 C   0  0  0  0  0  0  0  0  0  0  0  0
   28.0730  -19.4526  -16.8266 C   0  0  0  0  0  0  0  0  0  0  0  0
   29.3611  -18.8268  -16.8906 C   0  0  0  0  0  0  0  0  0  0  0  0
   29.8664  -17.8558  -17.8494 C   0  0  0  0  0  0  0  0  0  0  0  0
   29.4807  -17.9105  -19.2162 N   0  0  0  0  0  0  0  0  0  0  0  0
   27.3722  -21.3712  -13.6588 C   0  0  0  0  0  0  0  0  0  0  0  0
   26.2502  -21.9119  -13.7367 O   0  0  0  0  0  0  0  0  0  0  0  0
   27.8380  -20.9574  -12.4006 N   0  0  0  0  0  0  0  0  0  0  0  0
   27.0972  -20.9855  -11.1720 C   0  0  1  0  0  0  0  0  0  0  0  0
   27.8569  -20.5848   -9.9628 C   0  0  0  0  0  0  0  0  0  0  0  0
   27.1119  -20.6392   -8.6905 C   0  0  0  0  0  0  0  0  0  0  0  0
   25.8417  -21.0032   -8.3951 C   0  0  0  0  0  0  0  0  0  0  0  0
   25.6565  -20.8711   -7.0618 N   0  0  0  0  0  0  0  0  0  0  0  0
   26.7923  -20.4238   -6.4774 C   0  0  0  0  0  0  0  0  0  0  0  0
   27.1434  -20.1259   -5.1769 C   0  0  0  0  0  0  0  0  0  0  0  0
   28.4146  -19.6759   -4.8666 C   0  0  0  0  0  0  0  0  0  0  0  0
   29.3478  -19.5226   -5.8744 C   0  0  0  0  0  0  0  0  0  0  0  0
   28.9849  -19.8228   -7.1630 C   0  0  0  0  0  0  0  0  0  0  0  0
   27.7067  -20.2760   -7.4836 C   0  0  0  0  0  0  0  0  0  0  0  0
   25.7987  -20.2766  -11.3232 C   0  0  0  0  0  0  0  0  0  0  0  0
   25.7462  -19.0347  -11.5185 O   0  0  0  0  0  0  0  0  0  0  0  0
   23.8610  -19.8491  -13.8816 C   0  0  0  0  0  0  0  0  0  0  0  0
   22.8742  -20.5082  -12.9347 C   0  0  2  0  0  0  0  0  0  0  0  0
   21.5201  -19.9200  -13.2730 C   0  0  0  0  0  0  0  0  0  0  0  0
   23.2865  -20.2297  -11.5275 C   0  0  2  0  0  0  0  0  0  0  0  0
   24.5277  -20.9543  -11.2566 N   0  0  0  0  0  0  0  0  0  0  0  0
   22.2516  -20.7595  -10.6196 C   0  0  0  0  0  0  0  0  0  0  0  0
   21.3311  -20.0209  -10.2213 O   0  0  0  0  0  0  0  0  0  0  0  0
   22.2981  -22.0721  -10.2079 O   0  0  0  0  0  0  0  0  0  0  0  0
  2  1  1  6
  3  2  1  0
  3  4  1  0
  5  4  1  0
  5  6  1  0
  7  6  1  0
  8  2  1  0
  8  9  2  0
 10  8  1  0
 11 10  1  0
 11 12  1  1
 13 12  1  0
 14 13  2  0
 15 14  1  0
 16 21  2  0
 16 15  1  0
 17 16  1  0
 18 17  2  0
 18 19  1  0
 19 20  2  0
 20 21  1  0
 21 13  1  0
 22 11  1  0
 23 22  2  0
 25 24  1  6
 25 27  1  0
 26 25  1  0
 27 28  1  1
 27 29  1  0
 28 22  1  0
 29 31  1  0
 30 29  2  0
M  END
$$$$
