KWV.pdb
     RDKit          3D

 31 32  0  0  1  0  0  0  0  0999 V2000
   27.8907  -21.8732  -15.3189 N   0  0  0  0  0  0  0  0  0  0  0  0
   28.0591  -20.8237  -14.3890 C   0  0  1  0  0  0  0  0  0  0  0  0
   27.8454  -19.4728  -14.8934 C   0  0  0  0  0  0  0  0  0  0  0  0
   28.4828  -18.8914  -16.0439 C   0  0  0  0  0  0  0  0  0  0  0  0
   28.7435  -19.3558  -17.3748 C   0  0  0  0  0  0  0  0  0  0  0  0
   29.5856  -18.7688  -18.4064 C   0  0  0  0  0  0  0  0  0  0  0  0
   30.8765  -19.2952  -18.6822 N   0  0  0  0  0  0  0  0  0  0  0  0
   27.2402  -21.1236  -13.1615 C   0  0  0  0  0  0  0  0  0  0  0  0
   26.1233  -21.6587  -13.3155 O   0  0  0  0  0  0  0  0  0  0  0  0
   27.6761  -20.8300  -11.8596 N   0  0  0  0  0  0  0  0  0  0  0  0
   26.8927  -20.9292  -10.6615 C   0  0  1  0  0  0  0  0  0  0  0  0
   27.5958  -20.5559   -9.4100 C   0  0  0  0  0  0  0  0  0  0  0  0
   26.7971  -20.6517   -8.1732 C   0  0  0  0  0  0  0  0  0  0  0  0
   25.5387  -21.0905   -7.9348 C   0  0  0  0  0  0  0  0  0  0  0  0
   25.2844  -20.9663   -6.6122 N   0  0  0  0  0  0  0  0  0  0  0  0
   26.3630  -20.4501   -5.9784 C   0  0  0  0  0  0  0  0  0  0  0  0
   26.6349  -20.1284   -4.6647 C   0  0  0  0  0  0  0  0  0  0  0  0
   27.8612  -19.6021   -4.2985 C   0  0  0  0  0  0  0  0  0  0  0  0
   28.8293  -19.3956   -5.2630 C   0  0  0  0  0  0  0  0  0  0  0  0
   28.5451  -19.7204   -6.5653 C   0  0  0  0  0  0  0  0  0  0  0  0
   27.3126  -20.2503   -6.9422 C   0  0  0  0  0  0  0  0  0  0  0  0
   25.5796  -20.2525  -10.8330 C   0  0  0  0  0  0  0  0  0  0  0  0
   25.4736  -18.9998  -10.7823 O   0  0  0  0  0  0  0  0  0  0  0  0
   23.6413  -20.0006  -13.7379 C   0  0  0  0  0  0  0  0  0  0  0  0
   22.6756  -20.6116  -12.7384 C   0  0  2  0  0  0  0  0  0  0  0  0
   21.3129  -20.0464  -13.0813 C   0  0  0  0  0  0  0  0  0  0  0  0
   23.1136  -20.2575  -11.3563 C   0  0  2  0  0  0  0  0  0  0  0  0
   24.3540  -20.9757  -11.0653 N   0  0  0  0  0  0  0  0  0  0  0  0
   22.0904  -20.7269  -10.4030 C   0  0  0  0  0  0  0  0  0  0  0  0
   21.1761  -19.9628  -10.0399 O   0  0  0  0  0  0  0  0  0  0  0  0
   22.1411  -22.0109   -9.9097 O   0  0  0  0  0  0  0  0  0  0  0  0
  2  1  1  6
  3  2  1  0
  3  4  1  0
  5  4  1  0
  5  6  1  0
  7  6  1  0
  8  2  1  0
  8  9  2  0
 10  8  1  0
 11 10  1  0
 11 12  1  1
 13 12  1  0
 14 13  2  0
 15 14  1  0
 16 21  2  0
 16 15  1  0
 17 16  1  0
 18 17  2  0
 18 19  1  0
 19 20  2  0
 20 21  1  0
 21 13  1  0
 22 11  1  0
 23 22  2  0
 25 24  1  6
 25 27  1  0
 26 25  1  0
 27 28  1  1
 27 29  1  0
 28 22  1  0
 29 31  1  0
 30 29  2  0
M  END
$$$$
