KWV.pdb
     RDKit          3D

 31 32  0  0  1  0  0  0  0  0999 V2000
   13.0561  -20.1135    1.9842 N   0  0  0  0  0  0  0  0  0  0  0  0
   13.5951  -18.8927    2.4462 C   0  0  1  0  0  0  0  0  0  0  0  0
   12.7389  -18.0965    3.3167 C   0  0  0  0  0  0  0  0  0  0  0  0
   11.5791  -17.3515    2.9070 C   0  0  0  0  0  0  0  0  0  0  0  0
   11.3203  -16.4211    1.8476 C   0  0  0  0  0  0  0  0  0  0  0  0
   10.1259  -15.6316    1.5869 C   0  0  0  0  0  0  0  0  0  0  0  0
    9.6725  -14.6628    2.5225 N   0  0  0  0  0  0  0  0  0  0  0  0
   14.9521  -19.1540    3.0443 C   0  0  0  0  0  0  0  0  0  0  0  0
   15.2392  -20.3260    3.3626 O   0  0  0  0  0  0  0  0  0  0  0  0
   15.9026  -18.1429    3.2573 N   0  0  0  0  0  0  0  0  0  0  0  0
   17.1849  -18.3036    3.8809 C   0  0  1  0  0  0  0  0  0  0  0  0
   18.2866  -17.5121    3.2811 C   0  0  0  0  0  0  0  0  0  0  0  0
   18.9247  -18.1026    2.0891 C   0  0  0  0  0  0  0  0  0  0  0  0
   18.5420  -19.0929    1.2490 C   0  0  0  0  0  0  0  0  0  0  0  0
   19.4978  -19.2479    0.3046 N   0  0  0  0  0  0  0  0  0  0  0  0
   20.5054  -18.3693    0.5154 C   0  0  0  0  0  0  0  0  0  0  0  0
   21.6942  -18.1065   -0.1335 C   0  0  0  0  0  0  0  0  0  0  0  0
   22.5515  -17.1198    0.3206 C   0  0  0  0  0  0  0  0  0  0  0  0
   22.2123  -16.3854    1.4411 C   0  0  0  0  0  0  0  0  0  0  0  0
   21.0270  -16.6575    2.0762 C   0  0  0  0  0  0  0  0  0  0  0  0
   20.1585  -17.6497    1.6255 C   0  0  0  0  0  0  0  0  0  0  0  0
   17.0761  -18.1526    5.3563 C   0  0  0  0  0  0  0  0  0  0  0  0
   16.7434  -17.0594    5.8828 O   0  0  0  0  0  0  0  0  0  0  0  0
   17.4141  -21.4856    7.8114 C   0  0  0  0  0  0  0  0  0  0  0  0
   16.5832  -20.3043    8.2796 C   0  0  2  0  0  0  0  0  0  0  0  0
   15.1730  -20.5734    7.7971 C   0  0  0  0  0  0  0  0  0  0  0  0
   17.1553  -19.0485    7.7113 C   0  0  2  0  0  0  0  0  0  0  0  0
   17.3414  -19.2339    6.2726 N   0  0  0  0  0  0  0  0  0  0  0  0
   18.4850  -18.8237    8.3093 C   0  0  0  0  0  0  0  0  0  0  0  0
   19.5138  -19.1526    7.6888 O   0  0  0  0  0  0  0  0  0  0  0  0
   18.5954  -18.2500    9.5556 O   0  0  0  0  0  0  0  0  0  0  0  0
  2  1  1  1
  3  2  1  0
  3  4  1  0
  5  4  1  0
  5  6  1  0
  7  6  1  0
  8  2  1  0
  8  9  2  0
 10  8  1  0
 11 10  1  0
 11 12  1  6
 13 12  1  0
 14 13  2  0
 15 14  1  0
 16 21  2  0
 16 15  1  0
 17 16  1  0
 18 17  2  0
 18 19  1  0
 19 20  2  0
 20 21  1  0
 21 13  1  0
 22 11  1  0
 23 22  2  0
 25 24  1  6
 25 27  1  0
 26 25  1  0
 27 28  1  6
 27 29  1  0
 28 22  1  0
 29 31  1  0
 30 29  2  0
M  END
$$$$
