PVQ.pdb
     RDKit          3D

 24 24  0  0  1  0  0  0  0  0999 V2000
    7.6899  -14.9065   20.5837 N   0  0  0  0  0  0  0  0  0  0  0  0
    7.4272  -16.0967   19.8178 C   0  0  0  0  0  0  0  0  0  0  0  0
    7.3458  -17.1523   20.9132 C   0  0  0  0  0  0  0  0  0  0  0  0
    6.4250  -16.4360   21.9054 C   0  0  0  0  0  0  0  0  0  0  0  0
    6.9115  -15.0125   21.7851 C   0  0  1  0  0  0  0  0  0  0  0  0
    7.7537  -14.6109   22.9366 C   0  0  0  0  0  0  0  0  0  0  0  0
    8.9955  -14.7756   22.8787 O   0  0  0  0  0  0  0  0  0  0  0  0
    5.9409  -13.2134   26.4584 C   0  0  0  0  0  0  0  0  0  0  0  0
    7.2573  -12.6239   26.0271 C   0  0  1  0  0  0  0  0  0  0  0  0
    7.9616  -11.9172   27.1362 C   0  0  0  0  0  0  0  0  0  0  0  0
    8.0939  -13.5891   25.2376 C   0  0  2  0  0  0  0  0  0  0  0  0
    7.2428  -14.0435   24.1194 N   0  0  0  0  0  0  0  0  0  0  0  0
    8.6003  -14.7386   25.9946 C   0  0  0  0  0  0  0  0  0  0  0  0
    7.8356  -15.7121   26.2318 O   0  0  0  0  0  0  0  0  0  0  0  0
   14.5956  -16.1863   25.6536 N   0  0  0  0  0  0  0  0  0  0  0  0
   13.5534  -16.2988   24.7080 C   0  0  0  0  0  0  0  0  0  0  0  0
   13.8502  -16.4548   23.5007 O   0  0  0  0  0  0  0  0  0  0  0  0
   12.0949  -16.2400   25.0812 C   0  0  0  0  0  0  0  0  0  0  0  0
   11.9454  -16.0605   26.5667 C   0  0  0  0  0  0  0  0  0  0  0  0
   10.5168  -15.9902   27.0331 C   0  0  2  0  0  0  0  0  0  0  0  0
    9.9288  -14.7724   26.4599 N   0  0  0  0  0  0  0  0  0  0  0  0
   10.4380  -15.9442   28.4961 C   0  0  0  0  0  0  0  0  0  0  0  0
    9.9912  -14.7781   29.1567 O   0  0  0  0  0  0  0  0  0  0  0  0
   10.7433  -16.8858   29.2630 O   0  0  0  0  0  0  0  0  0  0  0  0
  1  2  1  0
  3  2  1  0
  4  3  1  0
  4  5  1  0
  5  1  1  0
  6  7  2  0
  5  6  1  1
  9  8  1  1
  9 11  1  0
 10  9  1  0
 11 13  1  0
 11 12  1  6
 12  6  1  0
 13 21  1  0
 14 13  2  0
 16 15  1  0
 17 16  2  0
 18 16  1  0
 19 18  1  0
 20 19  1  1
 21 20  1  0
 22 23  1  0
 22 20  1  0
 24 22  2  0
M  END
$$$$
