PVQ.pdb
     RDKit          3D

 24 24  0  0  1  0  0  0  0  0999 V2000
    8.1688  -14.4207   20.4055 N   0  0  0  0  0  0  0  0  0  0  0  0
    7.9745  -15.5054   19.4793 C   0  0  0  0  0  0  0  0  0  0  0  0
    7.6017  -16.6453   20.4187 C   0  0  0  0  0  0  0  0  0  0  0  0
    6.5593  -15.9407   21.2918 C   0  0  0  0  0  0  0  0  0  0  0  0
    7.1638  -14.5638   21.4204 C   0  0  1  0  0  0  0  0  0  0  0  0
    7.7905  -14.3506   22.7463 C   0  0  0  0  0  0  0  0  0  0  0  0
    9.0186  -14.5607   22.8883 O   0  0  0  0  0  0  0  0  0  0  0  0
    7.1209  -12.9061   27.4947 C   0  0  0  0  0  0  0  0  0  0  0  0
    6.7117  -13.0063   26.0494 C   0  0  1  0  0  0  0  0  0  0  0  0
    6.2667  -11.6986   25.4860 C   0  0  0  0  0  0  0  0  0  0  0  0
    7.7030  -13.7680   25.2176 C   0  0  2  0  0  0  0  0  0  0  0  0
    7.0845  -13.9180   23.8850 N   0  0  0  0  0  0  0  0  0  0  0  0
    8.0890  -15.0779   25.7525 C   0  0  0  0  0  0  0  0  0  0  0  0
    7.2644  -16.0305   25.7183 O   0  0  0  0  0  0  0  0  0  0  0  0
   13.1126  -17.5392   24.0969 N   0  0  0  0  0  0  0  0  0  0  0  0
   11.7959  -17.7645   23.6405 C   0  0  0  0  0  0  0  0  0  0  0  0
   11.6260  -18.1577   22.4628 O   0  0  0  0  0  0  0  0  0  0  0  0
   10.5792  -17.5545   24.5038 C   0  0  0  0  0  0  0  0  0  0  0  0
   10.9811  -16.9974   25.8415 C   0  0  0  0  0  0  0  0  0  0  0  0
    9.8198  -16.6220   26.7211 C   0  0  2  0  0  0  0  0  0  0  0  0
    9.3677  -15.2885   26.3032 N   0  0  0  0  0  0  0  0  0  0  0  0
   10.2099  -16.5991   28.1338 C   0  0  0  0  0  0  0  0  0  0  0  0
   10.3390  -15.3739   28.8254 O   0  0  0  0  0  0  0  0  0  0  0  0
   10.4541  -17.6113   28.8293 O   0  0  0  0  0  0  0  0  0  0  0  0
  1  2  1  0
  3  2  1  0
  4  3  1  0
  4  5  1  0
  5  1  1  0
  6  7  2  0
  5  6  1  1
  9  8  1  1
  9 11  1  0
 10  9  1  0
 11 13  1  0
 11 12  1  6
 12  6  1  0
 13 21  1  0
 14 13  2  0
 16 15  1  0
 17 16  2  0
 18 16  1  0
 19 18  1  0
 20 19  1  6
 21 20  1  0
 22 23  1  0
 22 20  1  0
 24 22  2  0
M  END
$$$$
