PVQ.pdb
     RDKit          3D

 24 24  0  0  1  0  0  0  0  0999 V2000
    6.9405  -14.8887   21.3814 N   0  0  0  0  0  0  0  0  0  0  0  0
    6.3555  -14.2286   20.2437 C   0  0  0  0  0  0  0  0  0  0  0  0
    7.1409  -12.9237   20.2114 C   0  0  0  0  0  0  0  0  0  0  0  0
    8.5644  -13.4656   20.3697 C   0  0  0  0  0  0  0  0  0  0  0  0
    8.3445  -14.5918   21.3500 C   0  0  1  0  0  0  0  0  0  0  0  0
    8.7878  -14.2355   22.7185 C   0  0  0  0  0  0  0  0  0  0  0  0
   10.0119  -14.0966   22.9530 O   0  0  0  0  0  0  0  0  0  0  0  0
    5.9494  -13.5042   25.8054 C   0  0  0  0  0  0  0  0  0  0  0  0
    7.3051  -12.8505   25.7698 C   0  0  1  0  0  0  0  0  0  0  0  0
    7.6644  -12.2015   27.0641 C   0  0  0  0  0  0  0  0  0  0  0  0
    8.3603  -13.7363   25.1726 C   0  0  2  0  0  0  0  0  0  0  0  0
    7.9078  -14.0376   23.7995 N   0  0  0  0  0  0  0  0  0  0  0  0
    8.6216  -14.9775   25.9088 C   0  0  0  0  0  0  0  0  0  0  0  0
    7.7612  -15.8985   25.8993 O   0  0  0  0  0  0  0  0  0  0  0  0
   13.8134  -18.0476   25.9147 N   0  0  0  0  0  0  0  0  0  0  0  0
   12.8248  -17.6790   24.9768 C   0  0  0  0  0  0  0  0  0  0  0  0
   13.0574  -17.8519   23.7577 O   0  0  0  0  0  0  0  0  0  0  0  0
   11.4977  -17.0851   25.3716 C   0  0  0  0  0  0  0  0  0  0  0  0
   11.4268  -16.9174   26.8642 C   0  0  0  0  0  0  0  0  0  0  0  0
   10.1044  -16.3977   27.3588 C   0  0  2  0  0  0  0  0  0  0  0  0
    9.8202  -15.1571   26.6257 N   0  0  0  0  0  0  0  0  0  0  0  0
   10.1446  -16.1306   28.7995 C   0  0  0  0  0  0  0  0  0  0  0  0
   10.2615  -17.1912   29.7254 O   0  0  0  0  0  0  0  0  0  0  0  0
   10.0824  -14.9947   29.3226 O   0  0  0  0  0  0  0  0  0  0  0  0
  1  2  1  0
  3  2  1  0
  4  3  1  0
  4  5  1  0
  5  1  1  0
  6  7  2  0
  5  6  1  1
  9  8  1  1
  9 11  1  0
 10  9  1  0
 11 13  1  0
 11 12  1  6
 12  6  1  0
 13 21  1  0
 14 13  2  0
 16 15  1  0
 17 16  2  0
 18 16  1  0
 19 18  1  0
 20 19  1  6
 21 20  1  0
 22 23  1  0
 22 20  1  0
 24 22  2  0
M  END
$$$$
