PVQ.pdb
     RDKit          3D

 24 24  0  0  1  0  0  0  0  0999 V2000
    6.8857  -16.0934   22.6317 N   0  0  0  0  0  0  0  0  0  0  0  0
    5.9276  -16.1672   21.5599 C   0  0  0  0  0  0  0  0  0  0  0  0
    6.2105  -14.8725   20.8085 C   0  0  0  0  0  0  0  0  0  0  0  0
    7.7382  -14.9408   20.7262 C   0  0  0  0  0  0  0  0  0  0  0  0
    8.0807  -15.5262   22.0744 C   0  0  1  0  0  0  0  0  0  0  0  0
    8.6054  -14.5038   23.0103 C   0  0  0  0  0  0  0  0  0  0  0  0
    9.6659  -13.8969   22.7284 O   0  0  0  0  0  0  0  0  0  0  0  0
    6.1295  -12.6871   25.2231 C   0  0  0  0  0  0  0  0  0  0  0  0
    7.4209  -12.6765   25.9968 C   0  0  1  0  0  0  0  0  0  0  0  0
    7.2661  -13.2107   27.3810 C   0  0  0  0  0  0  0  0  0  0  0  0
    8.5723  -13.2342   25.2106 C   0  0  2  0  0  0  0  0  0  0  0  0
    7.9797  -14.1591   24.2234 N   0  0  0  0  0  0  0  0  0  0  0  0
    9.5948  -13.9217   26.0059 C   0  0  0  0  0  0  0  0  0  0  0  0
   10.1697  -13.3069   26.9441 O   0  0  0  0  0  0  0  0  0  0  0  0
    9.2311  -18.0169   29.8706 N   0  0  0  0  0  0  0  0  0  0  0  0
    9.9021  -16.7959   30.0981 C   0  0  0  0  0  0  0  0  0  0  0  0
    9.9511  -16.3446   31.2661 O   0  0  0  0  0  0  0  0  0  0  0  0
   10.5653  -16.0053   29.0005 C   0  0  0  0  0  0  0  0  0  0  0  0
   10.2915  -16.6395   27.6648 C   0  0  0  0  0  0  0  0  0  0  0  0
   10.9781  -15.9584   26.5125 C   0  0  2  0  0  0  0  0  0  0  0  0
    9.9439  -15.2593   25.7384 N   0  0  0  0  0  0  0  0  0  0  0  0
   11.6723  -16.9281   25.6603 C   0  0  0  0  0  0  0  0  0  0  0  0
   11.2688  -17.1287   24.3214 O   0  0  0  0  0  0  0  0  0  0  0  0
   12.6408  -17.6365   26.0180 O   0  0  0  0  0  0  0  0  0  0  0  0
  1  2  1  0
  3  2  1  0
  4  3  1  0
  4  5  1  0
  5  1  1  0
  6  7  2  0
  5  6  1  1
  9  8  1  6
  9 11  1  0
 10  9  1  0
 11 13  1  0
 11 12  1  6
 12  6  1  0
 13 21  1  0
 14 13  2  0
 16 15  1  0
 17 16  2  0
 18 16  1  0
 19 18  1  0
 20 19  1  1
 21 20  1  0
 22 23  1  0
 22 20  1  0
 24 22  2  0
M  END
$$$$
