PVQ.pdb
     RDKit          3D

 24 24  0  0  1  0  0  0  0  0999 V2000
    8.0641  -18.7542   18.2893 N   0  0  0  0  0  0  0  0  0  0  0  0
    6.7433  -19.2811   18.0660 C   0  0  0  0  0  0  0  0  0  0  0  0
    5.8722  -18.0879   18.4381 C   0  0  0  0  0  0  0  0  0  0  0  0
    6.5973  -16.9791   17.6700 C   0  0  0  0  0  0  0  0  0  0  0  0
    8.0387  -17.3869   17.8531 C   0  0  1  0  0  0  0  0  0  0  0  0
    8.7319  -16.5510   18.8617 C   0  0  0  0  0  0  0  0  0  0  0  0
    9.9817  -16.6029   18.9511 O   0  0  0  0  0  0  0  0  0  0  0  0
    7.4257  -12.9342   19.7466 C   0  0  0  0  0  0  0  0  0  0  0  0
    7.8353  -13.6702   20.9944 C   0  0  1  0  0  0  0  0  0  0  0  0
    6.6782  -13.9857   21.8815 C   0  0  0  0  0  0  0  0  0  0  0  0
    8.7688  -14.8124   20.7138 C   0  0  2  0  0  0  0  0  0  0  0  0
    8.0674  -15.6819   19.7478 N   0  0  0  0  0  0  0  0  0  0  0  0
    9.1807  -15.5840   21.8910 C   0  0  0  0  0  0  0  0  0  0  0  0
    8.3450  -16.3303   22.4684 O   0  0  0  0  0  0  0  0  0  0  0  0
   10.7349  -20.3134   24.5702 N   0  0  0  0  0  0  0  0  0  0  0  0
   10.8863  -19.9845   23.2056 C   0  0  0  0  0  0  0  0  0  0  0  0
   10.1436  -20.5440   22.3656 O   0  0  0  0  0  0  0  0  0  0  0  0
   11.9017  -18.9892   22.7075 C   0  0  0  0  0  0  0  0  0  0  0  0
   11.2099  -17.7786   22.1444 C   0  0  0  0  0  0  0  0  0  0  0  0
   11.1210  -16.6237   23.1043 C   0  0  2  0  0  0  0  0  0  0  0  0
   10.4965  -15.5050   22.3861 N   0  0  0  0  0  0  0  0  0  0  0  0
   12.4484  -16.2311   23.5865 C   0  0  0  0  0  0  0  0  0  0  0  0
   13.0849  -15.0752   23.0820 O   0  0  0  0  0  0  0  0  0  0  0  0
   13.1130  -16.8505   24.4481 O   0  0  0  0  0  0  0  0  0  0  0  0
  1  2  1  0
  3  2  1  0
  4  3  1  0
  4  5  1  0
  5  1  1  0
  6  7  2  0
  5  6  1  1
  9  8  1  6
  9 11  1  0
 10  9  1  0
 11 13  1  0
 11 12  1  6
 12  6  1  0
 13 21  1  0
 14 13  2  0
 16 15  1  0
 17 16  2  0
 18 16  1  0
 19 18  1  0
 20 19  1  6
 21 20  1  0
 22 23  1  0
 22 20  1  0
 24 22  2  0
M  END
$$$$
