PVQ.pdb
     RDKit          3D

 24 24  0  0  1  0  0  0  0  0999 V2000
    6.9370  -15.9495   21.7930 N   0  0  0  0  0  0  0  0  0  0  0  0
    6.3266  -15.6069   20.5351 C   0  0  0  0  0  0  0  0  0  0  0  0
    6.9407  -14.2401   20.2605 C   0  0  0  0  0  0  0  0  0  0  0  0
    8.4126  -14.5460   20.5524 C   0  0  0  0  0  0  0  0  0  0  0  0
    8.2919  -15.4795   21.7321 C   0  0  1  0  0  0  0  0  0  0  0  0
    8.6224  -14.8084   23.0115 C   0  0  0  0  0  0  0  0  0  0  0  0
    9.7942  -14.4101   23.2135 O   0  0  0  0  0  0  0  0  0  0  0  0
    6.9454  -12.8453   27.2779 C   0  0  0  0  0  0  0  0  0  0  0  0
    6.8022  -13.3369   25.8622 C   0  0  1  0  0  0  0  0  0  0  0  0
    6.2009  -12.3150   24.9569 C   0  0  0  0  0  0  0  0  0  0  0  0
    8.0464  -14.0048   25.3518 C   0  0  2  0  0  0  0  0  0  0  0  0
    7.6885  -14.5820   24.0404 N   0  0  0  0  0  0  0  0  0  0  0  0
    8.6039  -15.0384   26.2304 C   0  0  0  0  0  0  0  0  0  0  0  0
    7.9230  -16.0670   26.4896 O   0  0  0  0  0  0  0  0  0  0  0  0
   14.0841  -15.5190   25.6162 N   0  0  0  0  0  0  0  0  0  0  0  0
   13.0694  -16.2625   24.9754 C   0  0  0  0  0  0  0  0  0  0  0  0
   13.2126  -16.5590   23.7664 O   0  0  0  0  0  0  0  0  0  0  0  0
   11.8170  -16.7192   25.6773 C   0  0  0  0  0  0  0  0  0  0  0  0
   11.8301  -16.2661   27.1111 C   0  0  0  0  0  0  0  0  0  0  0  0
   10.4695  -15.9312   27.6588 C   0  0  2  0  0  0  0  0  0  0  0  0
    9.8892  -14.9001   26.7884 N   0  0  0  0  0  0  0  0  0  0  0  0
   10.5592  -15.4334   29.0346 C   0  0  0  0  0  0  0  0  0  0  0  0
   10.9722  -16.2855   30.0830 O   0  0  0  0  0  0  0  0  0  0  0  0
   10.2920  -14.2647   29.3956 O   0  0  0  0  0  0  0  0  0  0  0  0
  1  2  1  0
  3  2  1  0
  4  3  1  0
  4  5  1  0
  5  1  1  0
  6  7  2  0
  5  6  1  1
  9  8  1  1
  9 11  1  0
 10  9  1  0
 11 13  1  0
 11 12  1  6
 12  6  1  0
 13 21  1  0
 14 13  2  0
 16 15  1  0
 17 16  2  0
 18 16  1  0
 19 18  1  0
 20 19  1  6
 21 20  1  0
 22 23  1  0
 22 20  1  0
 24 22  2  0
M  END
$$$$
