PVQ.pdb
     RDKit          3D

 24 24  0  0  1  0  0  0  0  0999 V2000
    6.7807  -14.2887   20.9678 N   0  0  0  0  0  0  0  0  0  0  0  0
    6.3820  -13.4505   19.8674 C   0  0  0  0  0  0  0  0  0  0  0  0
    7.4355  -12.3515   19.9241 C   0  0  0  0  0  0  0  0  0  0  0  0
    8.7010  -13.2027   20.0628 C   0  0  0  0  0  0  0  0  0  0  0  0
    8.2160  -14.3077   20.9691 C   0  0  1  0  0  0  0  0  0  0  0  0
    8.6945  -14.1385   22.3615 C   0  0  0  0  0  0  0  0  0  0  0  0
    9.9172  -14.2602   22.6118 O   0  0  0  0  0  0  0  0  0  0  0  0
    5.9755  -13.4166   25.6518 C   0  0  0  0  0  0  0  0  0  0  0  0
    7.3663  -12.8488   25.5537 C   0  0  1  0  0  0  0  0  0  0  0  0
    7.8511  -12.2885   26.8485 C   0  0  0  0  0  0  0  0  0  0  0  0
    8.3195  -13.7689   24.8469 C   0  0  2  0  0  0  0  0  0  0  0  0
    7.8500  -13.8436   23.4487 N   0  0  0  0  0  0  0  0  0  0  0  0
    8.4294  -15.1135   25.4219 C   0  0  0  0  0  0  0  0  0  0  0  0
    7.4706  -15.9223   25.2987 O   0  0  0  0  0  0  0  0  0  0  0  0
   13.7314  -19.7964   25.7815 N   0  0  0  0  0  0  0  0  0  0  0  0
   12.5415  -19.2760   25.2280 C   0  0  0  0  0  0  0  0  0  0  0  0
   12.4543  -19.1673   23.9827 O   0  0  0  0  0  0  0  0  0  0  0  0
   11.3661  -18.8428   26.0650 C   0  0  0  0  0  0  0  0  0  0  0  0
   10.9863  -17.4260   25.7338 C   0  0  0  0  0  0  0  0  0  0  0  0
    9.8061  -16.9118   26.5124 C   0  0  2  0  0  0  0  0  0  0  0  0
    9.5907  -15.5160   26.1091 N   0  0  0  0  0  0  0  0  0  0  0  0
   10.0504  -16.9845   27.9558 C   0  0  0  0  0  0  0  0  0  0  0  0
   10.0186  -18.2257   28.6298 O   0  0  0  0  0  0  0  0  0  0  0  0
   10.2982  -16.0038   28.6939 O   0  0  0  0  0  0  0  0  0  0  0  0
  1  2  1  0
  3  2  1  0
  4  3  1  0
  4  5  1  0
  5  1  1  0
  6  7  2  0
  5  6  1  1
  9  8  1  1
  9 11  1  0
 10  9  1  0
 11 13  1  0
 11 12  1  6
 12  6  1  0
 13 21  1  0
 14 13  2  0
 16 15  1  0
 17 16  2  0
 18 16  1  0
 19 18  1  0
 20 19  1  6
 21 20  1  0
 22 23  1  0
 22 20  1  0
 24 22  2  0
M  END
$$$$
