QLC.pdb
     RDKit          3D

 24 23  0  0  1  0  0  0  0  0999 V2000
   19.2017  -17.2476  -15.4496 N   0  0  0  0  0  0  0  0  0  0  0  0
   18.9897  -17.1712  -16.8637 C   0  0  0  0  0  0  0  0  0  0  0  0
   18.3203  -18.0757  -17.3799 O   0  0  0  0  0  0  0  0  0  0  0  0
   19.5516  -16.0646  -17.6083 C   0  0  0  0  0  0  0  0  0  0  0  0
   20.3338  -15.0684  -16.8057 C   0  0  0  0  0  0  0  0  0  0  0  0
   21.0039  -13.9841  -17.5678 C   0  0  2  0  0  0  0  0  0  0  0  0
   21.9438  -14.3937  -18.5720 N   0  0  0  0  0  0  0  0  0  0  0  0
   21.5605  -12.9181  -16.6896 C   0  0  0  0  0  0  0  0  0  0  0  0
   20.8133  -12.4704  -15.7841 O   0  0  0  0  0  0  0  0  0  0  0  0
   25.4431  -13.5959  -15.3129 C   0  0  0  0  0  0  0  0  0  0  0  0
   25.7016  -12.1187  -15.2084 C   0  0  1  0  0  0  0  0  0  0  0  0
   27.1750  -11.8963  -15.5933 C   0  0  0  0  0  0  0  0  0  0  0  0
   24.9057  -11.2567  -16.1165 C   0  0  0  0  0  0  0  0  0  0  0  0
   23.4203  -11.3540  -16.0218 C   0  0  2  0  0  0  0  0  0  0  0  0
   22.8645  -12.4066  -16.8354 N   0  0  0  0  0  0  0  0  0  0  0  0
   22.8847  -10.0498  -16.5628 C   0  0  0  0  0  0  0  0  0  0  0  0
   22.7957   -9.8312  -17.8049 O   0  0  0  0  0  0  0  0  0  0  0  0
   22.4802   -9.0672  -15.6233 N   0  0  0  0  0  0  0  0  0  0  0  0
   21.8622   -7.8170  -16.0086 C   0  0  1  0  0  0  0  0  0  0  0  0
   20.5725   -8.1671  -16.7286 C   0  0  0  0  0  0  0  0  0  0  0  0
   19.5082   -6.7352  -16.9543 S   0  0  0  0  0  0  0  0  0  0  0  0
   21.5528   -7.0164  -14.8202 C   0  0  0  0  0  0  0  0  0  0  0  0
   21.2399   -7.5843  -13.7462 O   0  0  0  0  0  0  0  0  0  0  0  0
   21.6032   -5.6481  -14.8752 O   0  0  0  0  0  0  0  0  0  0  0  0
  2  1  1  0
  3  2  2  0
  4  2  1  0
  5  4  1  0
  6  7  1  1
  6  5  1  0
  8  6  1  0
  9  8  2  0
 11 10  1  6
 12 11  1  0
 14 13  1  6
 13 11  1  0
 14 15  1  0
 15  8  1  0
 16 18  1  0
 16 14  1  0
 17 16  2  0
 19 20  1  1
 19 18  1  0
 21 20  1  0
 22 19  1  0
 22 24  1  0
 23 22  2  0
M  END
$$$$
