QLC.pdb
     RDKit          3D

 24 23  0  0  1  0  0  0  0  0999 V2000
   18.9738  -15.1529  -14.7015 N   0  0  0  0  0  0  0  0  0  0  0  0
   18.2562  -14.9665  -15.9266 C   0  0  0  0  0  0  0  0  0  0  0  0
   17.3209  -15.7456  -16.1526 O   0  0  0  0  0  0  0  0  0  0  0  0
   18.6451  -13.8991  -16.8233 C   0  0  0  0  0  0  0  0  0  0  0  0
   19.8784  -13.1389  -16.4365 C   0  0  0  0  0  0  0  0  0  0  0  0
   19.9146  -11.7019  -16.8099 C   0  0  2  0  0  0  0  0  0  0  0  0
   20.3646  -11.3966  -18.1381 N   0  0  0  0  0  0  0  0  0  0  0  0
   20.5895  -10.8551  -15.7878 C   0  0  0  0  0  0  0  0  0  0  0  0
   20.2392  -11.0091  -14.5910 O   0  0  0  0  0  0  0  0  0  0  0  0
   25.9428  -10.3294  -15.8799 C   0  0  0  0  0  0  0  0  0  0  0  0
   24.4935  -10.3991  -15.4865 C   0  0  1  0  0  0  0  0  0  0  0  0
   24.4445  -11.0079  -14.0739 C   0  0  0  0  0  0  0  0  0  0  0  0
   23.7839   -9.0992  -15.3979 C   0  0  0  0  0  0  0  0  0  0  0  0
   22.3162   -9.1395  -15.1350 C   0  0  2  0  0  0  0  0  0  0  0  0
   21.5833   -9.9103  -16.1084 N   0  0  0  0  0  0  0  0  0  0  0  0
   21.8356   -7.7126  -15.2507 C   0  0  0  0  0  0  0  0  0  0  0  0
   22.3353   -6.7836  -14.5536 O   0  0  0  0  0  0  0  0  0  0  0  0
   20.7947   -7.4445  -16.1762 N   0  0  0  0  0  0  0  0  0  0  0  0
   20.2009   -6.1347  -16.3352 C   0  0  1  0  0  0  0  0  0  0  0  0
   19.8999   -5.9645  -17.8133 C   0  0  0  0  0  0  0  0  0  0  0  0
   21.3961   -5.8620  -18.8056 S   0  0  0  0  0  0  0  0  0  0  0  0
   18.9521   -6.0477  -15.5724 C   0  0  0  0  0  0  0  0  0  0  0  0
   18.2753   -7.0821  -15.3584 O   0  0  0  0  0  0  0  0  0  0  0  0
   18.5183   -4.8406  -15.0903 O   0  0  0  0  0  0  0  0  0  0  0  0
  2  1  1  0
  3  2  2  0
  4  2  1  0
  5  4  1  0
  6  7  1  6
  6  5  1  0
  8  6  1  0
  9  8  2  0
 11 10  1  1
 12 11  1  0
 14 13  1  6
 13 11  1  0
 14 15  1  0
 15  8  1  0
 16 18  1  0
 16 14  1  0
 17 16  2  0
 19 20  1  6
 19 18  1  0
 21 20  1  0
 22 19  1  0
 22 24  1  0
 23 22  2  0
M  END
$$$$
