QLC.pdb
     RDKit          3D

 24 23  0  0  1  0  0  0  0  0999 V2000
   19.2159  -10.9883  -21.6166 N   0  0  0  0  0  0  0  0  0  0  0  0
   19.5326  -12.3818  -21.5245 C   0  0  0  0  0  0  0  0  0  0  0  0
   19.1307  -13.1098  -22.4417 O   0  0  0  0  0  0  0  0  0  0  0  0
   20.2930  -12.8649  -20.3917 C   0  0  0  0  0  0  0  0  0  0  0  0
   20.6971  -11.8278  -19.3870 C   0  0  0  0  0  0  0  0  0  0  0  0
   21.4830  -12.3063  -18.2212 C   0  0  2  0  0  0  0  0  0  0  0  0
   20.9641  -13.4487  -17.5246 N   0  0  0  0  0  0  0  0  0  0  0  0
   21.8571  -11.2096  -17.2860 C   0  0  0  0  0  0  0  0  0  0  0  0
   21.1194  -11.0310  -16.2846 O   0  0  0  0  0  0  0  0  0  0  0  0
   27.1681  -10.1678  -16.0609 C   0  0  0  0  0  0  0  0  0  0  0  0
   25.6758  -10.3485  -16.0495 C   0  0  1  0  0  0  0  0  0  0  0  0
   25.2691  -10.6002  -14.5867 C   0  0  0  0  0  0  0  0  0  0  0  0
   24.8792   -9.1814  -16.5017 C   0  0  0  0  0  0  0  0  0  0  0  0
   23.3986   -9.3500  -16.5674 C   0  0  2  0  0  0  0  0  0  0  0  0
   22.9823  -10.3855  -17.4803 N   0  0  0  0  0  0  0  0  0  0  0  0
   22.8570   -8.0463  -17.1037 C   0  0  0  0  0  0  0  0  0  0  0  0
   23.2153   -7.5886  -18.2265 O   0  0  0  0  0  0  0  0  0  0  0  0
   21.9234   -7.3440  -16.2993 N   0  0  0  0  0  0  0  0  0  0  0  0
   21.3342   -6.0834  -16.6958 C   0  0  1  0  0  0  0  0  0  0  0  0
   19.8740   -6.3585  -17.0062 C   0  0  0  0  0  0  0  0  0  0  0  0
   19.0572   -7.2688  -15.6878 S   0  0  0  0  0  0  0  0  0  0  0  0
   21.4233   -5.1145  -15.5994 C   0  0  0  0  0  0  0  0  0  0  0  0
   21.8845   -5.4673  -14.4873 O   0  0  0  0  0  0  0  0  0  0  0  0
   21.0049   -3.8224  -15.7819 O   0  0  0  0  0  0  0  0  0  0  0  0
  2  1  1  0
  3  2  2  0
  4  2  1  0
  5  4  1  0
  6  7  1  1
  6  5  1  0
  8  6  1  0
  9  8  2  0
 11 10  1  1
 12 11  1  0
 14 13  1  6
 13 11  1  0
 14 15  1  0
 15  8  1  0
 16 18  1  0
 16 14  1  0
 17 16  2  0
 19 20  1  1
 19 18  1  0
 21 20  1  0
 22 19  1  0
 22 24  1  0
 23 22  2  0
M  END
$$$$
