QLC.pdb
     RDKit          3D

 24 23  0  0  1  0  0  0  0  0999 V2000
   26.1995  -15.2013  -19.1057 N   0  0  0  0  0  0  0  0  0  0  0  0
   25.1933  -15.7478  -18.2458 C   0  0  0  0  0  0  0  0  0  0  0  0
   24.5518  -14.9463  -17.5537 O   0  0  0  0  0  0  0  0  0  0  0  0
   24.9741  -17.1783  -18.2269 C   0  0  0  0  0  0  0  0  0  0  0  0
   25.0687  -17.8350  -16.8823 C   0  0  0  0  0  0  0  0  0  0  0  0
   26.4207  -18.2766  -16.4549 C   0  0  2  0  0  0  0  0  0  0  0  0
   27.3321  -18.6499  -17.4987 N   0  0  0  0  0  0  0  0  0  0  0  0
   26.3808  -19.2907  -15.3652 C   0  0  0  0  0  0  0  0  0  0  0  0
   25.5845  -20.2527  -15.5036 O   0  0  0  0  0  0  0  0  0  0  0  0
   30.9592  -20.2385  -12.2677 C   0  0  0  0  0  0  0  0  0  0  0  0
   29.6999  -20.4294  -13.0663 C   0  0  1  0  0  0  0  0  0  0  0  0
   29.6665  -21.9061  -13.4985 C   0  0  0  0  0  0  0  0  0  0  0  0
   28.4297  -20.1858  -12.3396 C   0  0  0  0  0  0  0  0  0  0  0  0
   27.1737  -20.1790  -13.1441 C   0  0  2  0  0  0  0  0  0  0  0  0
   27.1856  -19.2108  -14.2124 N   0  0  0  0  0  0  0  0  0  0  0  0
   26.0746  -19.7711  -12.1923 C   0  0  0  0  0  0  0  0  0  0  0  0
   26.0153  -18.6061  -11.7045 O   0  0  0  0  0  0  0  0  0  0  0  0
   25.1003  -20.7466  -11.8592 N   0  0  0  0  0  0  0  0  0  0  0  0
   24.0567  -20.5158  -10.8840 C   0  0  1  0  0  0  0  0  0  0  0  0
   22.8384  -21.2916  -11.3512 C   0  0  0  0  0  0  0  0  0  0  0  0
   22.6318  -21.2248  -13.1363 S   0  0  0  0  0  0  0  0  0  0  0  0
   24.4728  -21.0115   -9.5686 C   0  0  0  0  0  0  0  0  0  0  0  0
   23.7613  -20.7855   -8.5602 O   0  0  0  0  0  0  0  0  0  0  0  0
   25.6366  -21.7218   -9.4330 O   0  0  0  0  0  0  0  0  0  0  0  0
  2  1  1  0
  3  2  2  0
  4  2  1  0
  5  4  1  0
  6  7  1  6
  6  5  1  0
  8  6  1  0
  9  8  2  0
 11 10  1  1
 12 11  1  0
 14 13  1  1
 13 11  1  0
 14 15  1  0
 15  8  1  0
 16 18  1  0
 16 14  1  0
 17 16  2  0
 19 20  1  6
 19 18  1  0
 21 20  1  0
 22 19  1  0
 22 24  1  0
 23 22  2  0
M  END
$$$$
