QLC.pdb
     RDKit          3D

 24 23  0  0  1  0  0  0  0  0999 V2000
   27.9347  -16.7082  -15.5417 N   0  0  0  0  0  0  0  0  0  0  0  0
   27.8321  -17.6808  -16.5877 C   0  0  0  0  0  0  0  0  0  0  0  0
   28.2479  -17.3480  -17.7053 O   0  0  0  0  0  0  0  0  0  0  0  0
   27.2632  -18.9796  -16.2978 C   0  0  0  0  0  0  0  0  0  0  0  0
   26.8202  -19.1965  -14.8818 C   0  0  0  0  0  0  0  0  0  0  0  0
   27.5229  -20.2633  -14.1243 C   0  0  2  0  0  0  0  0  0  0  0  0
   28.1918  -21.2666  -14.9025 N   0  0  0  0  0  0  0  0  0  0  0  0
   26.6805  -20.8633  -13.0529 C   0  0  0  0  0  0  0  0  0  0  0  0
   26.2116  -22.0097  -13.2641 O   0  0  0  0  0  0  0  0  0  0  0  0
   27.6695  -21.1057   -8.8253 C   0  0  0  0  0  0  0  0  0  0  0  0
   26.2681  -20.6799   -8.4867 C   0  0  1  0  0  0  0  0  0  0  0  0
   26.3752  -19.6869   -7.3157 C   0  0  0  0  0  0  0  0  0  0  0  0
   25.5303  -19.9700   -9.5603 C   0  0  0  0  0  0  0  0  0  0  0  0
   25.4201  -20.6553  -10.8806 C   0  0  2  0  0  0  0  0  0  0  0  0
   26.3980  -20.2058  -11.8400 N   0  0  0  0  0  0  0  0  0  0  0  0
   24.0627  -20.2833  -11.4280 C   0  0  0  0  0  0  0  0  0  0  0  0
   23.7362  -19.0797  -11.6359 O   0  0  0  0  0  0  0  0  0  0  0  0
   23.1559  -21.3383  -11.7048 N   0  0  0  0  0  0  0  0  0  0  0  0
   21.8509  -21.1212  -12.2904 C   0  0  1  0  0  0  0  0  0  0  0  0
   21.6540  -22.2008  -13.3393 C   0  0  0  0  0  0  0  0  0  0  0  0
   22.8965  -22.1241  -14.6371 S   0  0  0  0  0  0  0  0  0  0  0  0
   20.8086  -21.2431  -11.2668 C   0  0  0  0  0  0  0  0  0  0  0  0
   21.1197  -21.5398  -10.0882 O   0  0  0  0  0  0  0  0  0  0  0  0
   19.4934  -21.0344  -11.5900 O   0  0  0  0  0  0  0  0  0  0  0  0
  2  1  1  0
  3  2  2  0
  4  2  1  0
  5  4  1  0
  6  7  1  6
  6  5  1  0
  8  6  1  0
  9  8  2  0
 11 10  1  6
 12 11  1  0
 14 13  1  1
 13 11  1  0
 14 15  1  0
 15  8  1  0
 16 18  1  0
 16 14  1  0
 17 16  2  0
 19 20  1  6
 19 18  1  0
 21 20  1  0
 22 19  1  0
 22 24  1  0
 23 22  2  0
M  END
$$$$
