QLC.pdb
     RDKit          3D

 24 23  0  0  1  0  0  0  0  0999 V2000
   16.2464  -14.0969  -15.8377 N   0  0  0  0  0  0  0  0  0  0  0  0
   16.1067  -13.6911  -17.2038 C   0  0  0  0  0  0  0  0  0  0  0  0
   15.4257  -14.4191  -17.9380 O   0  0  0  0  0  0  0  0  0  0  0  0
   16.7499  -12.4752  -17.6540 C   0  0  0  0  0  0  0  0  0  0  0  0
   17.5498  -11.7394  -16.6210 C   0  0  0  0  0  0  0  0  0  0  0  0
   18.1916  -10.4737  -17.0588 C   0  0  2  0  0  0  0  0  0  0  0  0
   18.9383  -10.5245  -18.2833 N   0  0  0  0  0  0  0  0  0  0  0  0
   18.9576   -9.8064  -15.9700 C   0  0  0  0  0  0  0  0  0  0  0  0
   18.4619   -9.8372  -14.8158 O   0  0  0  0  0  0  0  0  0  0  0  0
   24.2783  -10.6372  -15.2938 C   0  0  0  0  0  0  0  0  0  0  0  0
   22.8235  -10.3224  -15.0827 C   0  0  1  0  0  0  0  0  0  0  0  0
   22.4969  -10.6847  -13.6231 C   0  0  0  0  0  0  0  0  0  0  0  0
   22.4390   -8.8991  -15.2480 C   0  0  0  0  0  0  0  0  0  0  0  0
   20.9888   -8.5671  -15.1398 C   0  0  2  0  0  0  0  0  0  0  0  0
   20.1889   -9.1574  -16.1841 N   0  0  0  0  0  0  0  0  0  0  0  0
   20.8936   -7.0691  -15.3057 C   0  0  0  0  0  0  0  0  0  0  0  0
   21.4937   -6.2740  -14.5270 O   0  0  0  0  0  0  0  0  0  0  0  0
   20.1012   -6.5770  -16.3742 N   0  0  0  0  0  0  0  0  0  0  0  0
   19.9546   -5.1664  -16.6606 C   0  0  1  0  0  0  0  0  0  0  0  0
   20.1120   -5.0034  -18.1616 C   0  0  0  0  0  0  0  0  0  0  0  0
   21.7431   -5.5000  -18.7333 S   0  0  0  0  0  0  0  0  0  0  0  0
   18.6232   -4.7026  -16.2590 C   0  0  0  0  0  0  0  0  0  0  0  0
   17.7876   -5.5184  -15.8002 O   0  0  0  0  0  0  0  0  0  0  0  0
   18.2846   -3.3806  -16.3818 O   0  0  0  0  0  0  0  0  0  0  0  0
  2  1  1  0
  3  2  2  0
  4  2  1  0
  5  4  1  0
  6  7  1  6
  6  5  1  0
  8  6  1  0
  9  8  2  0
 11 10  1  1
 12 11  1  0
 14 13  1  6
 13 11  1  0
 14 15  1  0
 15  8  1  0
 16 18  1  0
 16 14  1  0
 17 16  2  0
 19 20  1  6
 19 18  1  0
 21 20  1  0
 22 19  1  0
 22 24  1  0
 23 22  2  0
M  END
$$$$
