QLC.pdb
     RDKit          3D

 24 23  0  0  1  0  0  0  0  0999 V2000
   20.6429  -21.9400  -12.3316 N   0  0  0  0  0  0  0  0  0  0  0  0
   19.8180  -21.6848  -13.4738 C   0  0  0  0  0  0  0  0  0  0  0  0
   18.8038  -22.3836  -13.6003 O   0  0  0  0  0  0  0  0  0  0  0  0
   20.1958  -20.6439  -14.4058 C   0  0  0  0  0  0  0  0  0  0  0  0
   21.4834  -19.9363  -14.1065 C   0  0  0  0  0  0  0  0  0  0  0  0
   22.6960  -20.4493  -14.7938 C   0  0  2  0  0  0  0  0  0  0  0  0
   22.7399  -21.8614  -15.0459 N   0  0  0  0  0  0  0  0  0  0  0  0
   23.9606  -19.9561  -14.1814 C   0  0  0  0  0  0  0  0  0  0  0  0
   24.0918  -18.7129  -14.0549 O   0  0  0  0  0  0  0  0  0  0  0  0
   25.8271  -21.7305   -9.5938 C   0  0  0  0  0  0  0  0  0  0  0  0
   25.5142  -20.9790  -10.8577 C   0  0  1  0  0  0  0  0  0  0  0  0
   25.3070  -19.5067  -10.4604 C   0  0  0  0  0  0  0  0  0  0  0  0
   26.5789  -20.9792  -11.8909 C   0  0  0  0  0  0  0  0  0  0  0  0
   26.2496  -20.3657  -13.2100 C   0  0  2  0  0  0  0  0  0  0  0  0
   24.9901  -20.8144  -13.7495 N   0  0  0  0  0  0  0  0  0  0  0  0
   27.3265  -20.8286  -14.1622 C   0  0  0  0  0  0  0  0  0  0  0  0
   28.0283  -21.8533  -13.9255 O   0  0  0  0  0  0  0  0  0  0  0  0
   27.5279  -20.0693  -15.3432 N   0  0  0  0  0  0  0  0  0  0  0  0
   28.2774  -20.5629  -16.4780 C   0  0  1  0  0  0  0  0  0  0  0  0
   27.5519  -21.7977  -16.9812 C   0  0  0  0  0  0  0  0  0  0  0  0
   28.4041  -22.5732  -18.3619 S   0  0  0  0  0  0  0  0  0  0  0  0
   28.3125  -19.5538  -17.5408 C   0  0  0  0  0  0  0  0  0  0  0  0
   27.3825  -18.7178  -17.6419 O   0  0  0  0  0  0  0  0  0  0  0  0
   29.3573  -19.5177  -18.4266 O   0  0  0  0  0  0  0  0  0  0  0  0
  2  1  1  0
  3  2  2  0
  4  2  1  0
  5  4  1  0
  6  7  1  1
  6  5  1  0
  8  6  1  0
  9  8  2  0
 11 10  1  1
 12 11  1  0
 14 13  1  1
 13 11  1  0
 14 15  1  0
 15  8  1  0
 16 18  1  0
 16 14  1  0
 17 16  2  0
 19 20  1  6
 19 18  1  0
 21 20  1  0
 22 19  1  0
 22 24  1  0
 23 22  2  0
M  END
$$$$
