GVA.pdb
     RDKit          3D

 17 16  0  0  1  0  0  0  0  0999 V2000
    8.3650  -17.3982   16.3530 N   0  0  0  0  0  0  0  0  0  0  0  0
    7.6446  -16.7507   17.4035 C   0  0  0  0  0  0  0  0  0  0  0  0
    8.5513  -16.1128   18.4235 C   0  0  0  0  0  0  0  0  0  0  0  0
    9.7694  -16.4169   18.3184 O   0  0  0  0  0  0  0  0  0  0  0  0
    7.0962  -13.5536   21.4360 C   0  0  0  0  0  0  0  0  0  0  0  0
    8.3514  -13.2526   20.6000 C   0  0  2  0  0  0  0  0  0  0  0  0
    7.8800  -12.4346   19.4382 C   0  0  0  0  0  0  0  0  0  0  0  0
    8.9622  -14.5642   20.2887 C   0  0  2  0  0  0  0  0  0  0  0  0
    8.0144  -15.2412   19.4070 N   0  0  0  0  0  0  0  0  0  0  0  0
    9.2882  -15.4409   21.4134 C   0  0  0  0  0  0  0  0  0  0  0  0
    8.4018  -16.1804   21.9134 O   0  0  0  0  0  0  0  0  0  0  0  0
   10.7769  -17.9045   22.3652 C   0  0  0  0  0  0  0  0  0  0  0  0
   10.8812  -16.5501   23.0033 C   0  0  2  0  0  0  0  0  0  0  0  0
   10.5752  -15.5305   22.0120 N   0  0  0  0  0  0  0  0  0  0  0  0
   12.3027  -16.3773   23.4383 C   0  0  0  0  0  0  0  0  0  0  0  0
   12.8359  -17.1017   24.4929 O   0  0  0  0  0  0  0  0  0  0  0  0
   13.0535  -15.5689   22.8579 O   0  0  0  0  0  0  0  0  0  0  0  0
  2  1  1  0
  3  2  1  0
  3  4  2  0
  6  5  1  1
  6  8  1  0
  7  6  1  0
  8  9  1  6
  9  3  1  0
 10  8  1  0
 10 14  1  0
 11 10  2  0
 13 12  1  6
 13 14  1  0
 13 15  1  0
 15 17  2  0
 15 16  1  0
M  END
$$$$
