GVA.pdb
     RDKit          3D

 17 16  0  0  1  0  0  0  0  0999 V2000
    6.6267  -15.3394   20.2927 N   0  0  0  0  0  0  0  0  0  0  0  0
    6.0570  -14.8587   21.5118 C   0  0  0  0  0  0  0  0  0  0  0  0
    7.0599  -14.7855   22.6336 C   0  0  0  0  0  0  0  0  0  0  0  0
    8.1920  -15.2709   22.3692 O   0  0  0  0  0  0  0  0  0  0  0  0
    6.1764  -12.9057   26.2862 C   0  0  0  0  0  0  0  0  0  0  0  0
    7.5429  -12.8379   25.5839 C   0  0  2  0  0  0  0  0  0  0  0  0
    7.4886  -11.6278   24.7040 C   0  0  0  0  0  0  0  0  0  0  0  0
    7.7250  -14.1438   24.9122 C   0  0  2  0  0  0  0  0  0  0  0  0
    6.6975  -14.2007   23.8753 N   0  0  0  0  0  0  0  0  0  0  0  0
    7.6433  -15.3464   25.7411 C   0  0  0  0  0  0  0  0  0  0  0  0
    6.5263  -15.8761   25.9744 O   0  0  0  0  0  0  0  0  0  0  0  0
    8.4603  -18.3003   25.7107 C   0  0  0  0  0  0  0  0  0  0  0  0
    8.6748  -17.3470   26.8499 C   0  0  2  0  0  0  0  0  0  0  0  0
    8.7662  -15.9923   26.3279 N   0  0  0  0  0  0  0  0  0  0  0  0
    9.9852  -17.7022   27.4796 C   0  0  0  0  0  0  0  0  0  0  0  0
   10.1128  -18.7835   28.3373 O   0  0  0  0  0  0  0  0  0  0  0  0
   11.0078  -17.0281   27.2475 O   0  0  0  0  0  0  0  0  0  0  0  0
  2  1  1  0
  3  2  1  0
  3  4  2  0
  6  5  1  6
  6  8  1  0
  7  6  1  0
  8  9  1  6
  9  3  1  0
 10  8  1  0
 10 14  1  0
 11 10  2  0
 13 12  1  6
 13 14  1  0
 13 15  1  0
 15 17  2  0
 15 16  1  0
M  END
$$$$
