GVA.pdb
     RDKit          3D

 17 16  0  0  1  0  0  0  0  0999 V2000
    5.0170  -17.8824   23.0252 N   0  0  0  0  0  0  0  0  0  0  0  0
    5.1537  -17.3350   24.3379 C   0  0  0  0  0  0  0  0  0  0  0  0
    6.2290  -16.2832   24.4206 C   0  0  0  0  0  0  0  0  0  0  0  0
    7.0035  -16.2333   23.4282 O   0  0  0  0  0  0  0  0  0  0  0  0
    5.9790  -12.7400   25.9010 C   0  0  0  0  0  0  0  0  0  0  0  0
    7.1212  -13.4996   26.5963 C   0  0  2  0  0  0  0  0  0  0  0  0
    8.1708  -12.4739   26.8927 C   0  0  0  0  0  0  0  0  0  0  0  0
    7.5015  -14.5982   25.6806 C   0  0  2  0  0  0  0  0  0  0  0  0
    6.3133  -15.4393   25.5590 N   0  0  0  0  0  0  0  0  0  0  0  0
    8.6451  -15.4278   26.0600 C   0  0  0  0  0  0  0  0  0  0  0  0
    8.5450  -16.2396   27.0158 O   0  0  0  0  0  0  0  0  0  0  0  0
   11.9787  -16.3321   24.6120 C   0  0  0  0  0  0  0  0  0  0  0  0
   10.9315  -16.3911   25.6856 C   0  0  2  0  0  0  0  0  0  0  0  0
    9.9106  -15.3916   25.4121 N   0  0  0  0  0  0  0  0  0  0  0  0
   11.6043  -16.0413   26.9758 C   0  0  0  0  0  0  0  0  0  0  0  0
   12.5095  -16.8982   27.5820 O   0  0  0  0  0  0  0  0  0  0  0  0
   11.3664  -14.9585   27.5460 O   0  0  0  0  0  0  0  0  0  0  0  0
  2  1  1  0
  3  2  1  0
  3  4  2  0
  6  5  1  6
  6  8  1  0
  7  6  1  0
  8  9  1  1
  9  3  1  0
 10  8  1  0
 10 14  1  0
 11 10  2  0
 13 12  1  6
 13 14  1  0
 13 15  1  0
 15 17  2  0
 15 16  1  0
M  END
$$$$
