GVA.pdb
     RDKit          3D

 17 16  0  0  1  0  0  0  0  0999 V2000
    5.6231  -19.0725   21.1709 N   0  0  0  0  0  0  0  0  0  0  0  0
    5.5766  -17.7518   21.7144 C   0  0  0  0  0  0  0  0  0  0  0  0
    6.6884  -16.8729   21.2036 C   0  0  0  0  0  0  0  0  0  0  0  0
    7.5656  -17.4656   20.5205 O   0  0  0  0  0  0  0  0  0  0  0  0
    6.5226  -13.6167   19.3699 C   0  0  0  0  0  0  0  0  0  0  0  0
    7.3184  -13.3875   20.6658 C   0  0  2  0  0  0  0  0  0  0  0  0
    8.3225  -12.3247   20.3441 C   0  0  0  0  0  0  0  0  0  0  0  0
    7.8505  -14.7107   21.0608 C   0  0  2  0  0  0  0  0  0  0  0  0
    6.6932  -15.4852   21.5025 N   0  0  0  0  0  0  0  0  0  0  0  0
    8.8790  -14.7416   22.1006 C   0  0  0  0  0  0  0  0  0  0  0  0
   10.0391  -14.3234   21.8517 O   0  0  0  0  0  0  0  0  0  0  0  0
    9.1665  -15.1105   25.7755 C   0  0  0  0  0  0  0  0  0  0  0  0
    9.7454  -15.2563   24.3984 C   0  0  2  0  0  0  0  0  0  0  0  0
    8.6680  -15.2237   23.4218 N   0  0  0  0  0  0  0  0  0  0  0  0
   10.4009  -16.6003   24.3371 C   0  0  0  0  0  0  0  0  0  0  0  0
    9.9421  -17.5976   23.4909 O   0  0  0  0  0  0  0  0  0  0  0  0
   11.3875  -16.8618   25.0529 O   0  0  0  0  0  0  0  0  0  0  0  0
  2  1  1  0
  3  2  1  0
  3  4  2  0
  6  5  1  6
  6  8  1  0
  7  6  1  0
  8  9  1  1
  9  3  1  0
 10  8  1  0
 10 14  1  0
 11 10  2  0
 13 12  1  1
 13 14  1  0
 13 15  1  0
 15 17  2  0
 15 16  1  0
M  END
$$$$
