GVA.pdb
     RDKit          3D

 17 16  0  0  1  0  0  0  0  0999 V2000
    7.8923  -17.9821   17.3984 N   0  0  0  0  0  0  0  0  0  0  0  0
    7.0213  -17.2964   18.3001 C   0  0  0  0  0  0  0  0  0  0  0  0
    7.7682  -16.5175   19.3512 C   0  0  0  0  0  0  0  0  0  0  0  0
    8.9492  -16.9025   19.5615 O   0  0  0  0  0  0  0  0  0  0  0  0
    7.4616  -12.7256   19.7989 C   0  0  0  0  0  0  0  0  0  0  0  0
    7.2930  -13.4017   21.1698 C   0  0  2  0  0  0  0  0  0  0  0  0
    7.9072  -12.4655   22.1636 C   0  0  0  0  0  0  0  0  0  0  0  0
    7.9091  -14.7415   21.0460 C   0  0  2  0  0  0  0  0  0  0  0  0
    7.1348  -15.4385   20.0218 N   0  0  0  0  0  0  0  0  0  0  0  0
    7.9736  -15.5688   22.2507 C   0  0  0  0  0  0  0  0  0  0  0  0
    6.9369  -16.1370   22.6810 O   0  0  0  0  0  0  0  0  0  0  0  0
    8.9527  -18.1039   23.6541 C   0  0  0  0  0  0  0  0  0  0  0  0
    9.1723  -16.7015   24.1416 C   0  0  2  0  0  0  0  0  0  0  0  0
    9.1578  -15.7934   23.0055 N   0  0  0  0  0  0  0  0  0  0  0  0
   10.5325  -16.6605   24.7645 C   0  0  0  0  0  0  0  0  0  0  0  0
   11.5363  -15.8421   24.2709 O   0  0  0  0  0  0  0  0  0  0  0  0
   10.8022  -17.3688   25.7543 O   0  0  0  0  0  0  0  0  0  0  0  0
  2  1  1  0
  3  2  1  0
  3  4  2  0
  6  5  1  6
  6  8  1  0
  7  6  1  0
  8  9  1  6
  9  3  1  0
 10  8  1  0
 10 14  1  0
 11 10  2  0
 13 12  1  6
 13 14  1  0
 13 15  1  0
 15 17  2  0
 15 16  1  0
M  END
$$$$
