GVA.pdb
     RDKit          3D

 17 16  0  0  1  0  0  0  0  0999 V2000
    6.9480  -18.1146   17.4001 N   0  0  0  0  0  0  0  0  0  0  0  0
    6.5711  -17.3875   18.5710 C   0  0  0  0  0  0  0  0  0  0  0  0
    7.6992  -16.5608   19.1309 C   0  0  0  0  0  0  0  0  0  0  0  0
    8.8411  -16.8411   18.6784 O   0  0  0  0  0  0  0  0  0  0  0  0
    7.0652  -13.4308   21.8894 C   0  0  0  0  0  0  0  0  0  0  0  0
    8.1448  -13.4332   20.7941 C   0  0  2  0  0  0  0  0  0  0  0  0
    7.5108  -12.7968   19.5965 C   0  0  0  0  0  0  0  0  0  0  0  0
    8.5808  -14.8400   20.6500 C   0  0  2  0  0  0  0  0  0  0  0  0
    7.4332  -15.5537   20.0953 N   0  0  0  0  0  0  0  0  0  0  0  0
    9.0442  -15.5298   21.8539 C   0  0  0  0  0  0  0  0  0  0  0  0
    8.2178  -16.1065   22.6070 O   0  0  0  0  0  0  0  0  0  0  0  0
   10.5502  -17.8704   23.0676 C   0  0  0  0  0  0  0  0  0  0  0  0
   10.8157  -16.4281   23.3870 C   0  0  2  0  0  0  0  0  0  0  0  0
   10.4052  -15.6060   22.2594 N   0  0  0  0  0  0  0  0  0  0  0  0
   12.2943  -16.2826   23.5669 C   0  0  0  0  0  0  0  0  0  0  0  0
   12.9521  -16.8201   24.6621 O   0  0  0  0  0  0  0  0  0  0  0  0
   12.9813  -15.6676   22.7279 O   0  0  0  0  0  0  0  0  0  0  0  0
  2  1  1  0
  3  2  1  0
  3  4  2  0
  6  5  1  1
  6  8  1  0
  7  6  1  0
  8  9  1  1
  9  3  1  0
 10  8  1  0
 10 14  1  0
 11 10  2  0
 13 12  1  6
 13 14  1  0
 13 15  1  0
 15 17  2  0
 15 16  1  0
M  END
$$$$
