DME.pdb
     RDKit          3D

 26 25  0  0  1  0  0  0  0  0999 V2000
   25.0361  -23.3167  -13.3467 N   0  0  0  0  0  0  0  0  0  0  0  0
   24.7542  -22.6979  -14.5918 C   0  0  1  0  0  0  0  0  0  0  0  0
   23.7726  -23.5312  -15.3652 C   0  0  0  0  0  0  0  0  0  0  0  0
   24.1644  -24.9536  -15.5119 C   0  0  0  0  0  0  0  0  0  0  0  0
   25.3498  -25.2644  -15.8833 O   0  0  0  0  0  0  0  0  0  0  0  0
   24.4096  -21.2615  -14.5200 C   0  0  0  0  0  0  0  0  0  0  0  0
   23.5316  -20.8655  -13.7077 O   0  0  0  0  0  0  0  0  0  0  0  0
   23.3314  -26.0320  -15.2742 O   0  0  0  0  0  0  0  0  0  0  0  0
   26.8723  -13.8206  -15.3217 C   0  0  0  0  0  0  0  0  0  0  0  0
   27.0768  -15.5610  -15.7187 S   0  0  0  0  0  0  0  0  0  0  0  0
   25.5694  -16.5098  -15.3534 C   0  0  0  0  0  0  0  0  0  0  0  0
   25.9150  -17.9811  -15.4524 C   0  0  0  0  0  0  0  0  0  0  0  0
   24.7251  -18.8782  -15.2916 C   0  0  2  0  0  0  0  0  0  0  0  0
   25.0078  -20.2677  -15.3125 N   0  0  0  0  0  0  0  0  0  0  0  0
   23.6874  -18.4615  -16.2553 C   0  0  0  0  0  0  0  0  0  0  0  0
   23.7899  -18.8100  -17.4483 O   0  0  0  0  0  0  0  0  0  0  0  0
   22.5867  -17.6796  -15.8571 N   0  0  0  0  0  0  0  0  0  0  0  0
   21.4730  -17.3787  -16.8028 C   0  0  1  0  0  0  0  0  0  0  0  0
   20.2891  -16.9135  -16.0207 C   0  0  0  0  0  0  0  0  0  0  0  0
   19.1085  -16.6273  -16.8522 C   0  0  0  0  0  0  0  0  0  0  0  0
   17.9366  -16.1029  -16.1377 C   0  0  0  0  0  0  0  0  0  0  0  0
   17.1913  -16.8564  -15.4770 O   0  0  0  0  0  0  0  0  0  0  0  0
   22.0266  -16.3763  -17.7228 C   0  0  0  0  0  0  0  0  0  0  0  0
   21.6683  -16.4085  -19.0558 O   0  0  0  0  0  0  0  0  0  0  0  0
   17.5975  -14.7436  -16.1610 O   0  0  0  0  0  0  0  0  0  0  0  0
   22.8105  -15.5015  -17.3262 O   0  0  0  0  0  0  0  0  0  0  0  0
  2  1  1  1
  2  3  1  0
  3  4  1  0
  4  8  1  0
  5  4  2  0
  6  2  1  0
  7  6  2  0
 10  9  1  0
 10 11  1  0
 11 12  1  0
 13 12  1  6
 13 14  1  0
 14  6  1  0
 15 13  1  0
 15 16  2  0
 17 15  1  0
 18 17  1  0
 18 19  1  1
 20 19  1  0
 20 21  1  0
 21 25  1  0
 22 21  2  0
 23 18  1  0
 24 23  1  0
 26 23  2  0
M  END
$$$$
