DME.pdb
     RDKit          3D

 26 25  0  0  1  0  0  0  0  0999 V2000
   21.3887  -12.7151  -17.4057 N   0  0  0  0  0  0  0  0  0  0  0  0
   20.7114  -11.8216  -16.5364 C   0  0  1  0  0  0  0  0  0  0  0  0
   19.8661  -12.5961  -15.5661 C   0  0  0  0  0  0  0  0  0  0  0  0
   18.9007  -13.5228  -16.2046 C   0  0  0  0  0  0  0  0  0  0  0  0
   18.1859  -14.3081  -15.4891 O   0  0  0  0  0  0  0  0  0  0  0  0
   21.5591  -10.7835  -15.9114 C   0  0  0  0  0  0  0  0  0  0  0  0
   21.1297  -10.1336  -14.9210 O   0  0  0  0  0  0  0  0  0  0  0  0
   18.6864  -13.6262  -17.5673 O   0  0  0  0  0  0  0  0  0  0  0  0
   27.9234  -13.0113  -15.3934 C   0  0  0  0  0  0  0  0  0  0  0  0
   27.3261  -11.4103  -15.9487 S   0  0  0  0  0  0  0  0  0  0  0  0
   25.6013  -11.1310  -15.4458 C   0  0  0  0  0  0  0  0  0  0  0  0
   25.1866   -9.7671  -15.9575 C   0  0  0  0  0  0  0  0  0  0  0  0
   23.7242   -9.4909  -15.7806 C   0  0  2  0  0  0  0  0  0  0  0  0
   22.8532  -10.4554  -16.3486 N   0  0  0  0  0  0  0  0  0  0  0  0
   23.4507   -8.1060  -16.2127 C   0  0  0  0  0  0  0  0  0  0  0  0
   23.2988   -7.8663  -17.4270 O   0  0  0  0  0  0  0  0  0  0  0  0
   23.3588   -7.0517  -15.2845 N   0  0  0  0  0  0  0  0  0  0  0  0
   23.0507   -5.6608  -15.7267 C   0  0  1  0  0  0  0  0  0  0  0  0
   22.4141   -4.9249  -14.5938 C   0  0  0  0  0  0  0  0  0  0  0  0
   22.1421   -3.5087  -14.8894 C   0  0  0  0  0  0  0  0  0  0  0  0
   21.4954   -2.7450  -13.8135 C   0  0  0  0  0  0  0  0  0  0  0  0
   20.7625   -1.7656  -14.0658 O   0  0  0  0  0  0  0  0  0  0  0  0
   24.3432   -5.1126  -16.1586 C   0  0  0  0  0  0  0  0  0  0  0  0
   24.4062   -4.3504  -17.3081 O   0  0  0  0  0  0  0  0  0  0  0  0
   21.6663   -3.0724  -12.4619 O   0  0  0  0  0  0  0  0  0  0  0  0
   25.3798   -5.3212  -15.5114 O   0  0  0  0  0  0  0  0  0  0  0  0
  2  1  1  1
  2  3  1  0
  3  4  1  0
  4  8  1  0
  5  4  2  0
  6  2  1  0
  7  6  2  0
 10  9  1  0
 10 11  1  0
 11 12  1  0
 13 12  1  6
 13 14  1  0
 14  6  1  0
 15 13  1  0
 15 16  2  0
 17 15  1  0
 18 17  1  0
 18 19  1  1
 20 19  1  0
 20 21  1  0
 21 25  1  0
 22 21  2  0
 23 18  1  0
 24 23  1  0
 26 23  2  0
M  END
$$$$
