DME.pdb
     RDKit          3D

 26 25  0  0  1  0  0  0  0  0999 V2000
   26.1564  -14.8181  -17.4564 N   0  0  0  0  0  0  0  0  0  0  0  0
   26.1186  -14.2988  -16.1366 C   0  0  1  0  0  0  0  0  0  0  0  0
   26.8547  -15.2187  -15.2050 C   0  0  0  0  0  0  0  0  0  0  0  0
   26.5371  -16.6550  -15.3910 C   0  0  0  0  0  0  0  0  0  0  0  0
   27.0508  -17.5376  -14.6185 O   0  0  0  0  0  0  0  0  0  0  0  0
   26.4931  -12.8741  -16.0070 C   0  0  0  0  0  0  0  0  0  0  0  0
   26.4086  -12.3011  -14.8880 O   0  0  0  0  0  0  0  0  0  0  0  0
   25.6971  -17.1594  -16.3674 O   0  0  0  0  0  0  0  0  0  0  0  0
   30.3738   -6.5540  -18.7764 C   0  0  0  0  0  0  0  0  0  0  0  0
   30.1185   -8.3284  -18.6547 S   0  0  0  0  0  0  0  0  0  0  0  0
   28.6103   -8.7224  -17.7186 C   0  0  0  0  0  0  0  0  0  0  0  0
   28.3930  -10.2190  -17.8025 C   0  0  0  0  0  0  0  0  0  0  0  0
   27.1798  -10.6813  -17.0537 C   0  0  2  0  0  0  0  0  0  0  0  0
   26.9554  -12.0815  -17.0709 N   0  0  0  0  0  0  0  0  0  0  0  0
   26.0204   -9.8815  -17.4955 C   0  0  0  0  0  0  0  0  0  0  0  0
   25.5219  -10.1008  -18.6174 O   0  0  0  0  0  0  0  0  0  0  0  0
   25.4668   -8.8773  -16.6790 N   0  0  0  0  0  0  0  0  0  0  0  0
   24.2018   -8.1848  -17.0602 C   0  0  1  0  0  0  0  0  0  0  0  0
   23.1361   -8.5550  -16.0818 C   0  0  0  0  0  0  0  0  0  0  0  0
   21.9105   -7.7500  -16.2121 C   0  0  0  0  0  0  0  0  0  0  0  0
   20.8745   -7.9963  -15.1997 C   0  0  0  0  0  0  0  0  0  0  0  0
   19.8186   -7.3295  -15.1792 O   0  0  0  0  0  0  0  0  0  0  0  0
   24.5478   -6.7573  -17.0718 C   0  0  0  0  0  0  0  0  0  0  0  0
   25.6293   -6.3160  -16.3356 O   0  0  0  0  0  0  0  0  0  0  0  0
   21.0164   -8.9821  -14.2142 O   0  0  0  0  0  0  0  0  0  0  0  0
   23.8874   -5.9398  -17.7295 O   0  0  0  0  0  0  0  0  0  0  0  0
  2  1  1  6
  2  3  1  0
  3  4  1  0
  4  8  1  0
  5  4  2  0
  6  2  1  0
  7  6  2  0
 10  9  1  0
 10 11  1  0
 11 12  1  0
 13 12  1  6
 13 14  1  0
 14  6  1  0
 15 13  1  0
 15 16  2  0
 17 15  1  0
 18 17  1  0
 18 19  1  1
 20 19  1  0
 20 21  1  0
 21 25  1  0
 22 21  2  0
 23 18  1  0
 24 23  1  0
 26 23  2  0
M  END
$$$$
