DME.pdb
     RDKit          3D

 26 25  0  0  1  0  0  0  0  0999 V2000
   20.1947  -12.2343  -18.1079 N   0  0  0  0  0  0  0  0  0  0  0  0
   19.6903  -11.4469  -17.0409 C   0  0  1  0  0  0  0  0  0  0  0  0
   18.8273  -12.2912  -16.1474 C   0  0  0  0  0  0  0  0  0  0  0  0
   17.8966  -13.1895  -16.8719 C   0  0  0  0  0  0  0  0  0  0  0  0
   17.1539  -12.7332  -17.8099 O   0  0  0  0  0  0  0  0  0  0  0  0
   20.6968  -10.6344  -16.3242 C   0  0  0  0  0  0  0  0  0  0  0  0
   20.3719  -10.0090  -15.2797 O   0  0  0  0  0  0  0  0  0  0  0  0
   17.7453  -14.5412  -16.6201 O   0  0  0  0  0  0  0  0  0  0  0  0
   27.3095  -11.5878  -15.6839 C   0  0  0  0  0  0  0  0  0  0  0  0
   27.1130   -9.8596  -16.1346 S   0  0  0  0  0  0  0  0  0  0  0  0
   25.4627   -9.2384  -15.6912 C   0  0  0  0  0  0  0  0  0  0  0  0
   24.4423  -10.0432  -16.4690 C   0  0  0  0  0  0  0  0  0  0  0  0
   23.0269   -9.6803  -16.1355 C   0  0  2  0  0  0  0  0  0  0  0  0
   22.0356  -10.5027  -16.7290 N   0  0  0  0  0  0  0  0  0  0  0  0
   22.8391   -8.2375  -16.3853 C   0  0  0  0  0  0  0  0  0  0  0  0
   22.8368   -7.8186  -17.5598 O   0  0  0  0  0  0  0  0  0  0  0  0
   22.6638   -7.3258  -15.3272 N   0  0  0  0  0  0  0  0  0  0  0  0
   22.2721   -5.9100  -15.5872 C   0  0  1  0  0  0  0  0  0  0  0  0
   20.9286   -5.8937  -16.2388 C   0  0  0  0  0  0  0  0  0  0  0  0
   20.4062   -4.5386  -16.4790 C   0  0  0  0  0  0  0  0  0  0  0  0
   19.0622   -4.4679  -17.0685 C   0  0  0  0  0  0  0  0  0  0  0  0
   18.5063   -3.3699  -17.2817 O   0  0  0  0  0  0  0  0  0  0  0  0
   22.3170   -5.2634  -14.2691 C   0  0  0  0  0  0  0  0  0  0  0  0
   22.3550   -6.0451  -13.1316 O   0  0  0  0  0  0  0  0  0  0  0  0
   18.3414   -5.6174  -17.4181 O   0  0  0  0  0  0  0  0  0  0  0  0
   22.3209   -4.0288  -14.1572 O   0  0  0  0  0  0  0  0  0  0  0  0
  2  1  1  6
  2  3  1  0
  3  4  1  0
  4  8  1  0
  5  4  2  0
  6  2  1  0
  7  6  2  0
 10  9  1  0
 10 11  1  0
 11 12  1  0
 13 12  1  6
 13 14  1  0
 14  6  1  0
 15 13  1  0
 15 16  2  0
 17 15  1  0
 18 17  1  0
 18 19  1  1
 20 19  1  0
 20 21  1  0
 21 25  1  0
 22 21  2  0
 23 18  1  0
 24 23  1  0
 26 23  2  0
M  END
$$$$
