DME.pdb
     RDKit          3D

 26 25  0  0  1  0  0  0  0  0999 V2000
   16.0520  -12.0176  -13.1107 N   0  0  0  0  0  0  0  0  0  0  0  0
   16.6561  -10.7666  -12.8227 C   0  0  1  0  0  0  0  0  0  0  0  0
   17.2758  -10.2004  -14.0683 C   0  0  0  0  0  0  0  0  0  0  0  0
   18.1971  -11.1291  -14.7661 C   0  0  0  0  0  0  0  0  0  0  0  0
   19.1454  -11.7041  -14.1260 O   0  0  0  0  0  0  0  0  0  0  0  0
   15.8081   -9.8120  -12.0767 C   0  0  0  0  0  0  0  0  0  0  0  0
   14.6029   -9.6507  -12.4070 O   0  0  0  0  0  0  0  0  0  0  0  0
   18.1278  -11.4511  -16.1096 O   0  0  0  0  0  0  0  0  0  0  0  0
   11.3677  -10.9239   -7.8361 C   0  0  0  0  0  0  0  0  0  0  0  0
   12.9779  -10.1468   -7.6582 S   0  0  0  0  0  0  0  0  0  0  0  0
   13.5174   -9.3677   -9.2100 C   0  0  0  0  0  0  0  0  0  0  0  0
   14.8779   -8.7482   -8.9666 C   0  0  0  0  0  0  0  0  0  0  0  0
   15.4838   -8.1528  -10.2014 C   0  0  2  0  0  0  0  0  0  0  0  0
   16.2556   -9.0458  -10.9877 N   0  0  0  0  0  0  0  0  0  0  0  0
   16.1943   -6.9140   -9.8271 C   0  0  0  0  0  0  0  0  0  0  0  0
   17.3906   -6.9796   -9.4814 O   0  0  0  0  0  0  0  0  0  0  0  0
   15.5506   -5.6624   -9.8513 N   0  0  0  0  0  0  0  0  0  0  0  0
   16.3325   -4.3930   -9.8003 C   0  0  1  0  0  0  0  0  0  0  0  0
   16.7514   -4.0290  -11.1867 C   0  0  0  0  0  0  0  0  0  0  0  0
   17.4027   -2.7121  -11.2793 C   0  0  0  0  0  0  0  0  0  0  0  0
   17.8710   -2.3243  -12.6169 C   0  0  0  0  0  0  0  0  0  0  0  0
   17.7807   -3.1071  -13.5860 O   0  0  0  0  0  0  0  0  0  0  0  0
   15.4295   -3.4251   -9.1637 C   0  0  0  0  0  0  0  0  0  0  0  0
   14.0765   -3.6948   -9.1086 O   0  0  0  0  0  0  0  0  0  0  0  0
   18.4382   -1.0687  -12.8719 O   0  0  0  0  0  0  0  0  0  0  0  0
   15.8580   -2.3694   -8.6748 O   0  0  0  0  0  0  0  0  0  0  0  0
  2  1  1  6
  2  3  1  0
  3  4  1  0
  4  8  1  0
  5  4  2  0
  6  2  1  0
  7  6  2  0
 10  9  1  0
 10 11  1  0
 11 12  1  0
 13 12  1  1
 13 14  1  0
 14  6  1  0
 15 13  1  0
 15 16  2  0
 17 15  1  0
 18 17  1  0
 18 19  1  6
 20 19  1  0
 20 21  1  0
 21 25  1  0
 22 21  2  0
 23 18  1  0
 24 23  1  0
 26 23  2  0
M  END
$$$$
