DME.pdb
     RDKit          3D

 26 25  0  0  1  0  0  0  0  0999 V2000
   20.3880  -14.4956  -16.2338 N   0  0  0  0  0  0  0  0  0  0  0  0
   20.4179  -13.2899  -16.9808 C   0  0  1  0  0  0  0  0  0  0  0  0
   19.0966  -13.0796  -17.6635 C   0  0  0  0  0  0  0  0  0  0  0  0
   18.6946  -14.1857  -18.5652 C   0  0  0  0  0  0  0  0  0  0  0  0
   19.5720  -14.9941  -19.0304 O   0  0  0  0  0  0  0  0  0  0  0  0
   20.9209  -12.1063  -16.2507 C   0  0  0  0  0  0  0  0  0  0  0  0
   20.4752  -11.8396  -15.1027 O   0  0  0  0  0  0  0  0  0  0  0  0
   17.3980  -14.4421  -18.9731 O   0  0  0  0  0  0  0  0  0  0  0  0
   27.2766  -12.4005  -14.7936 C   0  0  0  0  0  0  0  0  0  0  0  0
   26.4010  -11.0122  -15.5245 S   0  0  0  0  0  0  0  0  0  0  0  0
   24.5990  -11.2183  -15.3966 C   0  0  0  0  0  0  0  0  0  0  0  0
   23.9493  -10.0395  -16.0909 C   0  0  0  0  0  0  0  0  0  0  0  0
   22.4520  -10.1052  -16.0871 C   0  0  2  0  0  0  0  0  0  0  0  0
   21.8939  -11.2262  -16.7529 N   0  0  0  0  0  0  0  0  0  0  0  0
   21.9223   -8.8070  -16.5490 C   0  0  0  0  0  0  0  0  0  0  0  0
   21.9826   -8.5219  -17.7615 O   0  0  0  0  0  0  0  0  0  0  0  0
   21.3522   -7.8850  -15.6509 N   0  0  0  0  0  0  0  0  0  0  0  0
   20.8600   -6.5569  -16.1193 C   0  0  1  0  0  0  0  0  0  0  0  0
   19.5825   -6.2404  -15.4140 C   0  0  0  0  0  0  0  0  0  0  0  0
   18.4238   -6.9888  -15.9283 C   0  0  0  0  0  0  0  0  0  0  0  0
   17.1583   -6.7771  -15.2124 C   0  0  0  0  0  0  0  0  0  0  0  0
   16.5136   -5.7149  -15.3387 O   0  0  0  0  0  0  0  0  0  0  0  0
   21.9611   -5.6288  -15.8298 C   0  0  0  0  0  0  0  0  0  0  0  0
   21.9330   -4.3560  -16.3642 O   0  0  0  0  0  0  0  0  0  0  0  0
   16.6150   -7.7463  -14.3589 O   0  0  0  0  0  0  0  0  0  0  0  0
   22.9164   -5.9657  -15.1151 O   0  0  0  0  0  0  0  0  0  0  0  0
  2  1  1  1
  2  3  1  0
  3  4  1  0
  4  8  1  0
  5  4  2  0
  6  2  1  0
  7  6  2  0
 10  9  1  0
 10 11  1  0
 11 12  1  0
 13 12  1  6
 13 14  1  0
 14  6  1  0
 15 13  1  0
 15 16  2  0
 17 15  1  0
 18 17  1  0
 18 19  1  1
 20 19  1  0
 20 21  1  0
 21 25  1  0
 22 21  2  0
 23 18  1  0
 24 23  1  0
 26 23  2  0
M  END
$$$$
