NKM.pdb
     RDKit          3D

 26 25  0  0  1  0  0  0  0  0999 V2000
   14.6322  -13.8065   18.8903 N   0  0  0  0  0  0  0  0  0  0  0  0
   14.0620  -15.0821   19.2423 C   0  0  0  0  0  0  0  0  0  0  0  0
   14.5960  -16.1249   18.8153 O   0  0  0  0  0  0  0  0  0  0  0  0
   12.8681  -15.0591   20.0969 C   0  0  0  0  0  0  0  0  0  0  0  0
   11.6689  -15.7302   19.4720 C   0  0  2  0  0  0  0  0  0  0  0  0
   11.2015  -14.8383   18.4276 N   0  0  0  0  0  0  0  0  0  0  0  0
   10.6545  -15.9848   20.4946 C   0  0  0  0  0  0  0  0  0  0  0  0
    9.9449  -15.0775   20.9860 O   0  0  0  0  0  0  0  0  0  0  0  0
   10.3998  -17.3181   21.0130 N   0  0  0  0  0  0  0  0  0  0  0  0
    9.3584  -17.5650   21.9335 C   0  0  1  0  0  0  0  0  0  0  0  0
    8.6903  -18.8765   21.9684 C   0  0  0  0  0  0  0  0  0  0  0  0
    7.7215  -19.2298   23.0068 C   0  0  0  0  0  0  0  0  0  0  0  0
    7.0741  -20.5762   22.9537 C   0  0  0  0  0  0  0  0  0  0  0  0
    6.0691  -20.7321   24.1055 C   0  0  0  0  0  0  0  0  0  0  0  0
    5.4683  -22.0305   24.1272 N   0  0  0  0  0  0  0  0  0  0  0  0
    9.7011  -17.0949   23.3283 C   0  0  0  0  0  0  0  0  0  0  0  0
   10.8775  -17.3388   23.6994 O   0  0  0  0  0  0  0  0  0  0  0  0
    8.0234  -12.8210   29.7877 C   0  0  0  0  0  0  0  0  0  0  0  0
    7.9258  -13.0486   27.9709 S   0  0  0  0  0  0  0  0  0  0  0  0
    8.1277  -14.7083   27.4638 C   0  0  0  0  0  0  0  0  0  0  0  0
    8.1644  -15.1448   26.0740 C   0  0  0  0  0  0  0  0  0  0  0  0
    9.2248  -15.9905   25.4875 C   0  0  2  0  0  0  0  0  0  0  0  0
    8.7570  -16.4385   24.1299 N   0  0  0  0  0  0  0  0  0  0  0  0
    9.4103  -17.3067   26.2082 C   0  0  0  0  0  0  0  0  0  0  0  0
   10.3181  -17.4323   27.0976 O   0  0  0  0  0  0  0  0  0  0  0  0
    8.6459  -18.3780   25.9473 O   0  0  0  0  0  0  0  0  0  0  0  0
  1  2  1  0
  2  4  1  0
  2  3  2  0
  5  4  1  0
  5  6  1  6
  7  5  1  0
  7  9  1  0
  8  7  2  0
 10 11  1  1
 10  9  1  0
 10 16  1  0
 11 12  1  0
 12 13  1  0
 13 14  1  0
 14 15  1  0
 16 23  1  0
 17 16  2  0
 19 20  1  0
 19 18  1  0
 21 20  1  0
 22 21  1  1
 23 22  1  0
 24 22  1  0
 24 26  1  0
 25 24  2  0
M  END
$$$$
