NKM.pdb
     RDKit          3D

 26 25  0  0  1  0  0  0  0  0999 V2000
    8.6306  -12.9151   19.1979 N   0  0  0  0  0  0  0  0  0  0  0  0
    7.5745  -13.6365   18.5342 C   0  0  0  0  0  0  0  0  0  0  0  0
    6.6103  -13.0031   18.0611 O   0  0  0  0  0  0  0  0  0  0  0  0
    7.7151  -15.0964   18.4626 C   0  0  0  0  0  0  0  0  0  0  0  0
    8.8571  -15.6315   19.2923 C   0  0  2  0  0  0  0  0  0  0  0  0
    9.2709  -16.8718   18.6637 N   0  0  0  0  0  0  0  0  0  0  0  0
    8.4204  -15.8165   20.6760 C   0  0  0  0  0  0  0  0  0  0  0  0
    8.0767  -14.8630   21.4114 O   0  0  0  0  0  0  0  0  0  0  0  0
    8.3554  -17.1294   21.2951 N   0  0  0  0  0  0  0  0  0  0  0  0
    7.9109  -17.2968   22.6245 C   0  0  1  0  0  0  0  0  0  0  0  0
    7.5936  -18.6386   23.1406 C   0  0  0  0  0  0  0  0  0  0  0  0
    7.4439  -18.9075   24.5714 C   0  0  0  0  0  0  0  0  0  0  0  0
    7.1244  -20.3010   25.0084 C   0  0  0  0  0  0  0  0  0  0  0  0
    6.8353  -20.3352   26.5170 C   0  0  0  0  0  0  0  0  0  0  0  0
    6.4658  -21.6421   26.9675 N   0  0  0  0  0  0  0  0  0  0  0  0
    8.7508  -16.5213   23.6130 C   0  0  0  0  0  0  0  0  0  0  0  0
    9.9939  -16.6314   23.4585 O   0  0  0  0  0  0  0  0  0  0  0  0
    5.4482  -11.1675   27.2899 C   0  0  0  0  0  0  0  0  0  0  0  0
    7.0723  -11.4247   26.4785 S   0  0  0  0  0  0  0  0  0  0  0  0
    7.4239  -13.1016   26.1368 C   0  0  0  0  0  0  0  0  0  0  0  0
    8.6665  -13.5767   25.5421 C   0  0  0  0  0  0  0  0  0  0  0  0
    9.1006  -14.9891   25.5205 C   0  0  2  0  0  0  0  0  0  0  0  0
    8.1618  -15.7446   24.6202 N   0  0  0  0  0  0  0  0  0  0  0  0
    8.9082  -15.6964   26.8429 C   0  0  0  0  0  0  0  0  0  0  0  0
    7.9419  -16.5163   27.0008 O   0  0  0  0  0  0  0  0  0  0  0  0
    9.7266  -15.4947   27.8867 O   0  0  0  0  0  0  0  0  0  0  0  0
  1  2  1  0
  2  4  1  0
  2  3  2  0
  5  4  1  0
  5  6  1  6
  7  5  1  0
  7  9  1  0
  8  7  2  0
 10 11  1  1
 10  9  1  0
 10 16  1  0
 11 12  1  0
 12 13  1  0
 13 14  1  0
 14 15  1  0
 16 23  1  0
 17 16  2  0
 19 20  1  0
 19 18  1  0
 21 20  1  0
 22 21  1  1
 23 22  1  0
 24 22  1  0
 24 26  1  0
 25 24  2  0
M  END
$$$$
