NKM.pdb
     RDKit          3D

 26 25  0  0  1  0  0  0  0  0999 V2000
    8.9952  -13.0268   16.7166 N   0  0  0  0  0  0  0  0  0  0  0  0
    7.6433  -13.4721   16.9409 C   0  0  0  0  0  0  0  0  0  0  0  0
    6.7843  -13.2743   16.0590 O   0  0  0  0  0  0  0  0  0  0  0  0
    7.3714  -14.1407   18.2197 C   0  0  0  0  0  0  0  0  0  0  0  0
    8.5264  -14.0752   19.1896 C   0  0  2  0  0  0  0  0  0  0  0  0
    9.6870  -14.5715   18.4747 N   0  0  0  0  0  0  0  0  0  0  0  0
    8.2171  -14.8629   20.3827 C   0  0  0  0  0  0  0  0  0  0  0  0
    7.2623  -14.5905   21.1458 O   0  0  0  0  0  0  0  0  0  0  0  0
    9.0030  -16.0235   20.7656 N   0  0  0  0  0  0  0  0  0  0  0  0
    8.7492  -16.7229   21.9653 C   0  0  1  0  0  0  0  0  0  0  0  0
    9.1568  -18.1304   22.1075 C   0  0  0  0  0  0  0  0  0  0  0  0
    8.7310  -19.1640   21.1629 C   0  0  0  0  0  0  0  0  0  0  0  0
    9.3620  -20.5165   21.2492 C   0  0  0  0  0  0  0  0  0  0  0  0
    8.7508  -21.4595   20.2013 C   0  0  0  0  0  0  0  0  0  0  0  0
    9.2747  -22.7875   20.2976 N   0  0  0  0  0  0  0  0  0  0  0  0
    9.1312  -15.9225   23.1888 C   0  0  0  0  0  0  0  0  0  0  0  0
   10.1869  -15.2485   23.0770 O   0  0  0  0  0  0  0  0  0  0  0  0
    6.6624  -10.6072   26.0535 C   0  0  0  0  0  0  0  0  0  0  0  0
    6.6510  -11.9737   27.2760 S   0  0  0  0  0  0  0  0  0  0  0  0
    7.8459  -13.2073   26.9550 C   0  0  0  0  0  0  0  0  0  0  0  0
    7.8122  -14.1064   25.8089 C   0  0  0  0  0  0  0  0  0  0  0  0
    8.8408  -15.1244   25.5100 C   0  0  2  0  0  0  0  0  0  0  0  0
    8.3488  -15.9484   24.3516 N   0  0  0  0  0  0  0  0  0  0  0  0
    8.9896  -16.1645   26.5972 C   0  0  0  0  0  0  0  0  0  0  0  0
    8.4510  -17.3150   26.4667 O   0  0  0  0  0  0  0  0  0  0  0  0
    9.6780  -15.9267   27.7240 O   0  0  0  0  0  0  0  0  0  0  0  0
  1  2  1  0
  2  4  1  0
  2  3  2  0
  5  4  1  0
  5  6  1  6
  7  5  1  0
  7  9  1  0
  8  7  2  0
 10 11  1  6
 10  9  1  0
 10 16  1  0
 11 12  1  0
 12 13  1  0
 13 14  1  0
 14 15  1  0
 16 23  1  0
 17 16  2  0
 19 20  1  0
 19 18  1  0
 21 20  1  0
 22 21  1  1
 23 22  1  0
 24 22  1  0
 24 26  1  0
 25 24  2  0
M  END
$$$$
