NKM.pdb
     RDKit          3D

 26 25  0  0  1  0  0  0  0  0999 V2000
    8.0440  -21.0993   18.9163 N   0  0  0  0  0  0  0  0  0  0  0  0
    7.7151  -20.0485   17.9869 C   0  0  0  0  0  0  0  0  0  0  0  0
    7.0820  -20.3303   16.9503 O   0  0  0  0  0  0  0  0  0  0  0  0
    8.1596  -18.6934   18.3371 C   0  0  0  0  0  0  0  0  0  0  0  0
    8.8879  -18.6225   19.6575 C   0  0  2  0  0  0  0  0  0  0  0  0
    7.9461  -19.0690   20.6665 N   0  0  0  0  0  0  0  0  0  0  0  0
    9.3614  -17.2581   19.8898 C   0  0  0  0  0  0  0  0  0  0  0  0
   10.2333  -16.7126   19.1754 O   0  0  0  0  0  0  0  0  0  0  0  0
    8.8479  -16.4376   20.9734 N   0  0  0  0  0  0  0  0  0  0  0  0
    9.3025  -15.1168   21.1777 C   0  0  1  0  0  0  0  0  0  0  0  0
    8.4210  -13.9729   20.8917 C   0  0  0  0  0  0  0  0  0  0  0  0
    7.6820  -13.8543   19.6340 C   0  0  0  0  0  0  0  0  0  0  0  0
    8.3874  -13.2988   18.4388 C   0  0  0  0  0  0  0  0  0  0  0  0
    7.4234  -13.2015   17.2463 C   0  0  0  0  0  0  0  0  0  0  0  0
    8.0312  -12.5826   16.1084 N   0  0  0  0  0  0  0  0  0  0  0  0
    9.9942  -14.9470   22.5106 C   0  0  0  0  0  0  0  0  0  0  0  0
   10.3505  -13.7717   22.7807 O   0  0  0  0  0  0  0  0  0  0  0  0
    8.8508  -13.4526   29.0139 C   0  0  0  0  0  0  0  0  0  0  0  0
    8.4617  -13.3748   27.2237 S   0  0  0  0  0  0  0  0  0  0  0  0
    8.2928  -14.9455   26.4774 C   0  0  0  0  0  0  0  0  0  0  0  0
    8.7759  -15.2785   25.1437 C   0  0  0  0  0  0  0  0  0  0  0  0
   10.1403  -15.7585   24.8406 C   0  0  2  0  0  0  0  0  0  0  0  0
   10.2119  -16.0373   23.3642 N   0  0  0  0  0  0  0  0  0  0  0  0
   10.4447  -17.1155   25.4339 C   0  0  0  0  0  0  0  0  0  0  0  0
   10.0557  -18.1790   24.8436 O   0  0  0  0  0  0  0  0  0  0  0  0
   11.1208  -17.2570   26.5840 O   0  0  0  0  0  0  0  0  0  0  0  0
  1  2  1  0
  2  4  1  0
  2  3  2  0
  5  4  1  0
  5  6  1  1
  7  5  1  0
  7  9  1  0
  8  7  2  0
 10 11  1  1
 10  9  1  0
 10 16  1  0
 11 12  1  0
 12 13  1  0
 13 14  1  0
 14 15  1  0
 16 23  1  0
 17 16  2  0
 19 20  1  0
 19 18  1  0
 21 20  1  0
 22 21  1  6
 23 22  1  0
 24 22  1  0
 24 26  1  0
 25 24  2  0
M  END
$$$$
