NKM.pdb
     RDKit          3D

 26 25  0  0  1  0  0  0  0  0999 V2000
    8.6003  -12.0073   18.2514 N   0  0  0  0  0  0  0  0  0  0  0  0
    8.0706  -13.2881   17.8576 C   0  0  0  0  0  0  0  0  0  0  0  0
    7.8971  -13.5274   16.6462 O   0  0  0  0  0  0  0  0  0  0  0  0
    7.7677  -14.2378   18.9358 C   0  0  0  0  0  0  0  0  0  0  0  0
    8.8000  -15.3294   19.0827 C   0  0  2  0  0  0  0  0  0  0  0  0
    8.6552  -16.1858   17.9207 N   0  0  0  0  0  0  0  0  0  0  0  0
    8.5904  -16.0438   20.3418 C   0  0  0  0  0  0  0  0  0  0  0  0
    7.5060  -16.5975   20.6343 O   0  0  0  0  0  0  0  0  0  0  0  0
    9.6346  -16.1599   21.3455 N   0  0  0  0  0  0  0  0  0  0  0  0
    9.4401  -16.9038   22.5295 C   0  0  1  0  0  0  0  0  0  0  0  0
    9.9950  -18.2616   22.6559 C   0  0  0  0  0  0  0  0  0  0  0  0
   10.6806  -18.9291   21.5485 C   0  0  0  0  0  0  0  0  0  0  0  0
   11.3080  -20.2634   21.7952 C   0  0  0  0  0  0  0  0  0  0  0  0
   11.9712  -20.7877   20.5122 C   0  0  0  0  0  0  0  0  0  0  0  0
   12.6951  -22.0018   20.7346 N   0  0  0  0  0  0  0  0  0  0  0  0
    9.7154  -16.0887   23.7719 C   0  0  0  0  0  0  0  0  0  0  0  0
   10.8325  -15.5118   23.7945 O   0  0  0  0  0  0  0  0  0  0  0  0
    6.9558  -10.6714   26.8071 C   0  0  0  0  0  0  0  0  0  0  0  0
    6.3401  -12.0873   25.8180 S   0  0  0  0  0  0  0  0  0  0  0  0
    7.5814  -13.2485   25.4138 C   0  0  0  0  0  0  0  0  0  0  0  0
    8.0888  -14.2621   26.3294 C   0  0  0  0  0  0  0  0  0  0  0  0
    9.1859  -15.2017   26.0172 C   0  0  2  0  0  0  0  0  0  0  0  0
    8.7773  -16.0002   24.8096 N   0  0  0  0  0  0  0  0  0  0  0  0
    9.3686  -16.2794   27.0618 C   0  0  0  0  0  0  0  0  0  0  0  0
    9.8080  -15.9830   28.2237 O   0  0  0  0  0  0  0  0  0  0  0  0
    9.0851  -17.5676   26.8165 O   0  0  0  0  0  0  0  0  0  0  0  0
  1  2  1  0
  2  4  1  0
  2  3  2  0
  5  4  1  0
  5  6  1  6
  7  5  1  0
  7  9  1  0
  8  7  2  0
 10 11  1  6
 10  9  1  0
 10 16  1  0
 11 12  1  0
 12 13  1  0
 13 14  1  0
 14 15  1  0
 16 23  1  0
 17 16  2  0
 19 20  1  0
 19 18  1  0
 21 20  1  0
 22 21  1  1
 23 22  1  0
 24 22  1  0
 24 26  1  0
 25 24  2  0
M  END
$$$$
