NKM.pdb
     RDKit          3D

 26 25  0  0  1  0  0  0  0  0999 V2000
    8.8252  -11.1690   18.5036 N   0  0  0  0  0  0  0  0  0  0  0  0
    9.5552  -12.3494   18.8910 C   0  0  0  0  0  0  0  0  0  0  0  0
   10.7610  -12.4448   18.5883 O   0  0  0  0  0  0  0  0  0  0  0  0
    8.8085  -13.3753   19.6302 C   0  0  0  0  0  0  0  0  0  0  0  0
    9.1116  -14.7829   19.1765 C   0  0  2  0  0  0  0  0  0  0  0  0
    8.4618  -14.9447   17.8896 N   0  0  0  0  0  0  0  0  0  0  0  0
    8.6348  -15.7392   20.1754 C   0  0  0  0  0  0  0  0  0  0  0  0
    7.6696  -16.5099   19.9692 O   0  0  0  0  0  0  0  0  0  0  0  0
    9.2539  -15.8601   21.4844 N   0  0  0  0  0  0  0  0  0  0  0  0
    8.8295  -16.8343   22.4138 C   0  0  1  0  0  0  0  0  0  0  0  0
    8.6714  -18.2386   22.0012 C   0  0  0  0  0  0  0  0  0  0  0  0
    8.7218  -18.6484   20.5972 C   0  0  0  0  0  0  0  0  0  0  0  0
    9.2873  -19.9914   20.2632 C   0  0  0  0  0  0  0  0  0  0  0  0
    9.2196  -20.2383   18.7482 C   0  0  0  0  0  0  0  0  0  0  0  0
    9.6833  -21.5441   18.3917 N   0  0  0  0  0  0  0  0  0  0  0  0
    9.5702  -16.7361   23.7274 C   0  0  0  0  0  0  0  0  0  0  0  0
   10.7013  -16.1905   23.6624 O   0  0  0  0  0  0  0  0  0  0  0  0
    6.9611  -12.5550   28.3416 C   0  0  0  0  0  0  0  0  0  0  0  0
    7.4699  -12.9210   26.6184 S   0  0  0  0  0  0  0  0  0  0  0  0
    6.7242  -14.3576   25.9607 C   0  0  0  0  0  0  0  0  0  0  0  0
    7.4523  -15.4338   25.3014 C   0  0  0  0  0  0  0  0  0  0  0  0
    8.5554  -16.2009   25.9165 C   0  0  2  0  0  0  0  0  0  0  0  0
    9.0148  -17.2270   24.9171 N   0  0  0  0  0  0  0  0  0  0  0  0
    8.1122  -17.0649   27.0756 C   0  0  0  0  0  0  0  0  0  0  0  0
    7.2628  -18.0010   26.8940 O   0  0  0  0  0  0  0  0  0  0  0  0
    8.5813  -16.8865   28.3199 O   0  0  0  0  0  0  0  0  0  0  0  0
  1  2  1  0
  2  4  1  0
  2  3  2  0
  5  4  1  0
  5  6  1  6
  7  5  1  0
  7  9  1  0
  8  7  2  0
 10 11  1  6
 10  9  1  0
 10 16  1  0
 11 12  1  0
 12 13  1  0
 13 14  1  0
 14 15  1  0
 16 23  1  0
 17 16  2  0
 19 20  1  0
 19 18  1  0
 21 20  1  0
 22 21  1  6
 23 22  1  0
 24 22  1  0
 24 26  1  0
 25 24  2  0
M  END
$$$$
