NKM.pdb
     RDKit          3D

 26 25  0  0  1  0  0  0  0  0999 V2000
    8.0210  -12.4770   16.2823 N   0  0  0  0  0  0  0  0  0  0  0  0
    7.8474  -13.9074   16.2740 C   0  0  0  0  0  0  0  0  0  0  0  0
    7.9628  -14.5272   15.1983 O   0  0  0  0  0  0  0  0  0  0  0  0
    7.5410  -14.5433   17.5616 C   0  0  0  0  0  0  0  0  0  0  0  0
    8.7064  -14.5493   18.5213 C   0  0  2  0  0  0  0  0  0  0  0  0
    9.7801  -15.2604   17.8535 N   0  0  0  0  0  0  0  0  0  0  0  0
    8.3084  -15.1782   19.7805 C   0  0  0  0  0  0  0  0  0  0  0  0
    7.3963  -14.7220   20.5073 O   0  0  0  0  0  0  0  0  0  0  0  0
    8.9495  -16.3840   20.2767 N   0  0  0  0  0  0  0  0  0  0  0  0
    8.5760  -16.9648   21.5080 C   0  0  1  0  0  0  0  0  0  0  0  0
    8.8405  -18.3890   21.7706 C   0  0  0  0  0  0  0  0  0  0  0  0
    9.6592  -19.2074   20.8751 C   0  0  0  0  0  0  0  0  0  0  0  0
    9.9035  -20.6375   21.2354 C   0  0  0  0  0  0  0  0  0  0  0  0
   10.7338  -21.3296   20.1434 C   0  0  0  0  0  0  0  0  0  0  0  0
   11.1388  -22.6477   20.5255 N   0  0  0  0  0  0  0  0  0  0  0  0
    8.9767  -16.1128   22.6901 C   0  0  0  0  0  0  0  0  0  0  0  0
   10.1213  -15.5978   22.6127 O   0  0  0  0  0  0  0  0  0  0  0  0
    6.7594  -10.6687   27.8344 C   0  0  0  0  0  0  0  0  0  0  0  0
    6.4419  -11.7287   26.3723 S   0  0  0  0  0  0  0  0  0  0  0  0
    7.4372  -13.1637   26.3214 C   0  0  0  0  0  0  0  0  0  0  0  0
    7.4276  -14.1329   25.2334 C   0  0  0  0  0  0  0  0  0  0  0  0
    8.5807  -14.9724   24.8467 C   0  0  2  0  0  0  0  0  0  0  0  0
    8.1168  -15.9277   23.7814 N   0  0  0  0  0  0  0  0  0  0  0  0
    9.0316  -15.9136   25.9408 C   0  0  0  0  0  0  0  0  0  0  0  0
    8.6542  -17.1336   25.9376 O   0  0  0  0  0  0  0  0  0  0  0  0
    9.8292  -15.5143   26.9429 O   0  0  0  0  0  0  0  0  0  0  0  0
  1  2  1  0
  2  4  1  0
  2  3  2  0
  5  4  1  0
  5  6  1  6
  7  5  1  0
  7  9  1  0
  8  7  2  0
 10 11  1  1
 10  9  1  0
 10 16  1  0
 11 12  1  0
 12 13  1  0
 13 14  1  0
 14 15  1  0
 16 23  1  0
 17 16  2  0
 19 20  1  0
 19 18  1  0
 21 20  1  0
 22 21  1  1
 23 22  1  0
 24 22  1  0
 24 26  1  0
 25 24  2  0
M  END
$$$$
