QFP.pdb
     RDKit          3D

 28 29  0  0  1  0  0  0  0  0999 V2000
   26.0300  -21.9302  -14.6585 N   0  0  0  0  0  0  0  0  0  0  0  0
   24.9262  -22.6140  -14.0972 C   0  0  0  0  0  0  0  0  0  0  0  0
   24.0949  -23.1645  -14.8536 O   0  0  0  0  0  0  0  0  0  0  0  0
   24.7352  -22.6911  -12.6327 C   0  0  0  0  0  0  0  0  0  0  0  0
   25.8870  -22.0016  -11.9040 C   0  0  0  0  0  0  0  0  0  0  0  0
   25.4081  -20.7431  -11.2398 C   0  0  2  0  0  0  0  0  0  0  0  0
   25.3168  -19.7051  -12.2417 N   0  0  0  0  0  0  0  0  0  0  0  0
   26.4076  -20.3270  -10.2271 C   0  0  0  0  0  0  0  0  0  0  0  0
   27.5654  -19.9176  -10.5561 O   0  0  0  0  0  0  0  0  0  0  0  0
   26.1231  -20.3647   -8.8461 N   0  0  0  0  0  0  0  0  0  0  0  0
   27.0883  -19.9747   -7.8356 C   0  0  1  0  0  0  0  0  0  0  0  0
   26.3814  -19.4617   -6.5987 C   0  0  0  0  0  0  0  0  0  0  0  0
   27.4057  -19.1125   -5.5557 C   0  0  0  0  0  0  0  0  0  0  0  0
   27.6102  -19.9071   -4.4521 C   0  0  0  0  0  0  0  0  0  0  0  0
   28.5688  -19.5171   -3.5400 C   0  0  0  0  0  0  0  0  0  0  0  0
   29.3133  -18.3616   -3.7145 C   0  0  0  0  0  0  0  0  0  0  0  0
   29.1067  -17.5669   -4.8211 C   0  0  0  0  0  0  0  0  0  0  0  0
   28.1434  -17.9729   -5.7230 C   0  0  0  0  0  0  0  0  0  0  0  0
   28.0243  -21.0827   -7.5576 C   0  0  0  0  0  0  0  0  0  0  0  0
   27.5044  -22.1999   -7.2041 O   0  0  0  0  0  0  0  0  0  0  0  0
   29.4221  -21.0201   -7.6469 N   0  0  0  0  0  0  0  0  0  0  0  0
   30.1888  -19.9565   -8.2593 C   0  0  0  0  0  0  0  0  0  0  0  0
   31.5223  -20.6455   -8.6292 C   0  0  0  0  0  0  0  0  0  0  0  0
   31.7181  -21.4554   -7.3648 C   0  0  0  0  0  0  0  0  0  0  0  0
   30.3339  -22.0198   -7.1475 C   0  0  1  0  0  0  0  0  0  0  0  0
   30.0942  -22.3574   -5.7217 C   0  0  0  0  0  0  0  0  0  0  0  0
   30.6352  -23.2868   -5.1067 O   0  0  0  0  0  0  0  0  0  0  0  0
   29.1903  -21.5616   -5.0335 O   0  0  0  0  0  0  0  0  0  0  0  0
  1  2  1  0
  2  3  2  0
  4  2  1  0
  4  5  1  0
  5  6  1  0
  6  8  1  0
  6  7  1  6
  8  9  2  0
 10 11  1  0
 10  8  1  0
 11 12  1  1
 13 14  2  0
 13 12  1  0
 15 14  1  0
 16 15  2  0
 17 16  1  0
 17 18  2  0
 18 13  1  0
 19 11  1  0
 20 19  2  0
 21 19  1  0
 21 25  1  0
 22 23  1  0
 22 21  1  0
 23 24  1  0
 24 25  1  0
 25 26  1  1
 26 28  1  0
 27 26  2  0
M  END
$$$$
