QFP.pdb
     RDKit          3D

 28 29  0  0  1  0  0  0  0  0999 V2000
   26.9711  -15.9416  -14.0617 N   0  0  0  0  0  0  0  0  0  0  0  0
   27.5321  -16.6902  -15.1229 C   0  0  0  0  0  0  0  0  0  0  0  0
   28.5024  -16.2217  -15.7597 O   0  0  0  0  0  0  0  0  0  0  0  0
   26.9940  -18.0166  -15.4947 C   0  0  0  0  0  0  0  0  0  0  0  0
   26.7604  -18.8695  -14.2493 C   0  0  0  0  0  0  0  0  0  0  0  0
   28.0669  -19.1965  -13.5857 C   0  0  2  0  0  0  0  0  0  0  0  0
   28.7591  -20.1720  -14.3974 N   0  0  0  0  0  0  0  0  0  0  0  0
   27.7916  -19.8030  -12.2612 C   0  0  0  0  0  0  0  0  0  0  0  0
   27.5796  -21.0491  -12.1252 O   0  0  0  0  0  0  0  0  0  0  0  0
   27.7513  -19.0263  -11.0845 N   0  0  0  0  0  0  0  0  0  0  0  0
   27.5120  -19.6003   -9.7737 C   0  0  1  0  0  0  0  0  0  0  0  0
   28.0897  -18.7108   -8.6931 C   0  0  0  0  0  0  0  0  0  0  0  0
   27.8962  -19.3710   -7.3567 C   0  0  0  0  0  0  0  0  0  0  0  0
   26.8774  -19.0003   -6.5107 C   0  0  0  0  0  0  0  0  0  0  0  0
   26.7676  -19.6544   -5.3011 C   0  0  0  0  0  0  0  0  0  0  0  0
   27.6492  -20.6579   -4.9327 C   0  0  0  0  0  0  0  0  0  0  0  0
   28.6694  -21.0276   -5.7821 C   0  0  0  0  0  0  0  0  0  0  0  0
   28.7637  -20.3622   -6.9881 C   0  0  0  0  0  0  0  0  0  0  0  0
   26.0755  -19.8888   -9.5885 C   0  0  0  0  0  0  0  0  0  0  0  0
   25.3038  -18.8797   -9.4164 O   0  0  0  0  0  0  0  0  0  0  0  0
   25.4862  -21.1610   -9.5854 N   0  0  0  0  0  0  0  0  0  0  0  0
   26.1781  -22.4196   -9.7619 C   0  0  0  0  0  0  0  0  0  0  0  0
   25.0710  -23.3653  -10.2814 C   0  0  0  0  0  0  0  0  0  0  0  0
   23.9500  -22.9302   -9.3612 C   0  0  0  0  0  0  0  0  0  0  0  0
   24.0788  -21.4262   -9.4145 C   0  0  1  0  0  0  0  0  0  0  0  0
   23.5141  -20.7816   -8.2021 C   0  0  0  0  0  0  0  0  0  0  0  0
   22.3144  -20.5344   -8.0172 O   0  0  0  0  0  0  0  0  0  0  0  0
   24.4111  -20.4327   -7.2034 O   0  0  0  0  0  0  0  0  0  0  0  0
  1  2  1  0
  2  3  2  0
  4  2  1  0
  4  5  1  0
  5  6  1  0
  6  8  1  0
  6  7  1  6
  8  9  2  0
 10 11  1  0
 10  8  1  0
 11 12  1  1
 13 14  2  0
 13 12  1  0
 15 14  1  0
 16 15  2  0
 17 16  1  0
 17 18  2  0
 18 13  1  0
 19 11  1  0
 20 19  2  0
 21 19  1  0
 21 25  1  0
 22 23  1  0
 22 21  1  0
 23 24  1  0
 24 25  1  0
 25 26  1  1
 26 28  1  0
 27 26  2  0
M  END
$$$$
