QFP.pdb
     RDKit          3D

 28 29  0  0  1  0  0  0  0  0999 V2000
   29.0936  -17.5067  -15.0535 N   0  0  0  0  0  0  0  0  0  0  0  0
   28.1093  -17.1971  -16.0211 C   0  0  0  0  0  0  0  0  0  0  0  0
   27.9654  -16.0109  -16.3936 O   0  0  0  0  0  0  0  0  0  0  0  0
   27.2463  -18.2484  -16.6016 C   0  0  0  0  0  0  0  0  0  0  0  0
   27.6693  -19.6278  -16.1001 C   0  0  0  0  0  0  0  0  0  0  0  0
   27.9943  -19.5755  -14.6352 C   0  0  2  0  0  0  0  0  0  0  0  0
   29.3261  -20.1043  -14.4444 N   0  0  0  0  0  0  0  0  0  0  0  0
   27.0395  -20.4413  -13.9026 C   0  0  0  0  0  0  0  0  0  0  0  0
   26.8675  -21.6622  -14.2124 O   0  0  0  0  0  0  0  0  0  0  0  0
   26.2735  -19.9526  -12.8238 N   0  0  0  0  0  0  0  0  0  0  0  0
   25.3151  -20.7729  -12.1072 C   0  0  1  0  0  0  0  0  0  0  0  0
   25.1806  -20.3004  -10.6750 C   0  0  0  0  0  0  0  0  0  0  0  0
   26.4579  -20.5920   -9.9385 C   0  0  0  0  0  0  0  0  0  0  0  0
   27.4486  -21.3678  -10.4934 C   0  0  0  0  0  0  0  0  0  0  0  0
   28.5910  -21.5895   -9.7526 C   0  0  0  0  0  0  0  0  0  0  0  0
   28.7529  -21.0540   -8.4850 C   0  0  0  0  0  0  0  0  0  0  0  0
   27.7589  -20.2768   -7.9310 C   0  0  0  0  0  0  0  0  0  0  0  0
   26.6229  -20.0659   -8.6868 C   0  0  0  0  0  0  0  0  0  0  0  0
   24.0289  -20.8198  -12.8314 C   0  0  0  0  0  0  0  0  0  0  0  0
   23.4561  -19.6958  -13.0597 O   0  0  0  0  0  0  0  0  0  0  0  0
   23.3846  -21.9780  -13.2888 N   0  0  0  0  0  0  0  0  0  0  0  0
   23.9121  -23.3243  -13.2307 C   0  0  0  0  0  0  0  0  0  0  0  0
   23.1496  -24.0550  -14.3596 C   0  0  0  0  0  0  0  0  0  0  0  0
   21.7706  -23.4810  -14.1111 C   0  0  0  0  0  0  0  0  0  0  0  0
   22.0823  -22.0171  -13.9075 C   0  0  1  0  0  0  0  0  0  0  0  0
   21.0390  -21.3392  -13.0974 C   0  0  0  0  0  0  0  0  0  0  0  0
   21.1734  -20.9721  -11.9219 O   0  0  0  0  0  0  0  0  0  0  0  0
   19.8206  -21.1032  -13.7169 O   0  0  0  0  0  0  0  0  0  0  0  0
  1  2  1  0
  2  3  2  0
  4  2  1  0
  4  5  1  0
  5  6  1  0
  6  8  1  0
  6  7  1  6
  8  9  2  0
 10 11  1  0
 10  8  1  0
 11 12  1  1
 13 14  2  0
 13 12  1  0
 15 14  1  0
 16 15  2  0
 17 16  1  0
 17 18  2  0
 18 13  1  0
 19 11  1  0
 20 19  2  0
 21 19  1  0
 21 25  1  0
 22 23  1  0
 22 21  1  0
 23 24  1  0
 24 25  1  0
 25 26  1  1
 26 28  1  0
 27 26  2  0
M  END
$$$$
