QFP.pdb
     RDKit          3D

 28 29  0  0  1  0  0  0  0  0999 V2000
   17.9250  -21.0922  -15.1716 N   0  0  0  0  0  0  0  0  0  0  0  0
   18.6566  -20.1865  -15.9751 C   0  0  0  0  0  0  0  0  0  0  0  0
   18.0614  -19.2309  -16.5220 O   0  0  0  0  0  0  0  0  0  0  0  0
   20.1122  -20.3468  -16.1816 C   0  0  0  0  0  0  0  0  0  0  0  0
   20.8922  -19.6548  -15.0655 C   0  0  0  0  0  0  0  0  0  0  0  0
   22.1403  -20.4247  -14.7434 C   0  0  2  0  0  0  0  0  0  0  0  0
   21.8987  -21.2072  -13.5523 N   0  0  0  0  0  0  0  0  0  0  0  0
   23.2334  -19.4651  -14.4571 C   0  0  0  0  0  0  0  0  0  0  0  0
   23.2480  -18.7615  -13.3984 O   0  0  0  0  0  0  0  0  0  0  0  0
   24.3132  -19.2850  -15.3466 N   0  0  0  0  0  0  0  0  0  0  0  0
   25.4952  -18.5184  -15.0001 C   0  0  1  0  0  0  0  0  0  0  0  0
   26.6360  -19.4430  -14.6307 C   0  0  0  0  0  0  0  0  0  0  0  0
   26.3851  -20.0118  -13.2623 C   0  0  0  0  0  0  0  0  0  0  0  0
   26.4748  -19.2346  -12.1314 C   0  0  0  0  0  0  0  0  0  0  0  0
   26.2304  -19.8319  -10.9122 C   0  0  0  0  0  0  0  0  0  0  0  0
   25.9029  -21.1744  -10.8110 C   0  0  0  0  0  0  0  0  0  0  0  0
   25.8136  -21.9513  -11.9457 C   0  0  0  0  0  0  0  0  0  0  0  0
   26.0614  -21.3365  -13.1568 C   0  0  0  0  0  0  0  0  0  0  0  0
   25.8353  -17.5725  -16.0821 C   0  0  0  0  0  0  0  0  0  0  0  0
   25.9345  -18.0612  -17.2631 O   0  0  0  0  0  0  0  0  0  0  0  0
   26.0566  -16.1963  -15.9315 N   0  0  0  0  0  0  0  0  0  0  0  0
   26.0357  -15.4625  -14.6844 C   0  0  0  0  0  0  0  0  0  0  0  0
   25.7176  -14.0159  -15.1270 C   0  0  0  0  0  0  0  0  0  0  0  0
   26.6167  -13.9475  -16.3436 C   0  0  0  0  0  0  0  0  0  0  0  0
   26.3339  -15.2751  -17.0062 C   0  0  1  0  0  0  0  0  0  0  0  0
   27.4630  -15.7141  -17.8644 C   0  0  0  0  0  0  0  0  0  0  0  0
   27.7033  -15.2879  -19.0025 O   0  0  0  0  0  0  0  0  0  0  0  0
   28.3099  -16.6790  -17.3394 O   0  0  0  0  0  0  0  0  0  0  0  0
  1  2  1  0
  2  3  2  0
  4  2  1  0
  4  5  1  0
  5  6  1  0
  6  8  1  0
  6  7  1  1
  8  9  2  0
 10 11  1  0
 10  8  1  0
 11 12  1  6
 13 14  2  0
 13 12  1  0
 15 14  1  0
 16 15  2  0
 17 16  1  0
 17 18  2  0
 18 13  1  0
 19 11  1  0
 20 19  2  0
 21 19  1  0
 21 25  1  0
 22 23  1  0
 22 21  1  0
 23 24  1  0
 24 25  1  0
 25 26  1  1
 26 28  1  0
 27 26  2  0
M  END
$$$$
