QFP.pdb
     RDKit          3D

 28 29  0  0  1  0  0  0  0  0999 V2000
   11.9826  -19.7284    4.0125 N   0  0  0  0  0  0  0  0  0  0  0  0
   11.6848  -21.1104    3.9644 C   0  0  0  0  0  0  0  0  0  0  0  0
   10.4896  -21.4820    3.9665 O   0  0  0  0  0  0  0  0  0  0  0  0
   12.7589  -22.1256    3.9115 C   0  0  0  0  0  0  0  0  0  0  0  0
   14.1288  -21.4658    4.0568 C   0  0  0  0  0  0  0  0  0  0  0  0
   14.5483  -20.8384    2.7589 C   0  0  2  0  0  0  0  0  0  0  0  0
   15.0168  -21.8839    1.8774 N   0  0  0  0  0  0  0  0  0  0  0  0
   15.6737  -19.9089    3.0190 C   0  0  0  0  0  0  0  0  0  0  0  0
   16.8853  -20.2892    2.9587 O   0  0  0  0  0  0  0  0  0  0  0  0
   15.4554  -18.5546    3.3469 N   0  0  0  0  0  0  0  0  0  0  0  0
   16.5383  -17.6029    3.5104 C   0  0  1  0  0  0  0  0  0  0  0  0
   16.2277  -16.3165    2.7744 C   0  0  0  0  0  0  0  0  0  0  0  0
   17.3558  -15.3455    2.9832 C   0  0  0  0  0  0  0  0  0  0  0  0
   18.5489  -15.4717    2.3110 C   0  0  0  0  0  0  0  0  0  0  0  0
   19.5353  -14.5397    2.5588 C   0  0  0  0  0  0  0  0  0  0  0  0
   19.3470  -13.5002    3.4553 C   0  0  0  0  0  0  0  0  0  0  0  0
   18.1506  -13.3757    4.1277 C   0  0  0  0  0  0  0  0  0  0  0  0
   17.1752  -14.3175    3.8671 C   0  0  0  0  0  0  0  0  0  0  0  0
   16.8387  -17.4002    4.9420 C   0  0  0  0  0  0  0  0  0  0  0  0
   15.8420  -17.1527    5.7094 O   0  0  0  0  0  0  0  0  0  0  0  0
   18.1097  -17.4555    5.5312 N   0  0  0  0  0  0  0  0  0  0  0  0
   19.3522  -17.7449    4.8483 C   0  0  0  0  0  0  0  0  0  0  0  0
   20.2643  -18.2769    5.9774 C   0  0  0  0  0  0  0  0  0  0  0  0
   19.8937  -17.2817    7.0569 C   0  0  0  0  0  0  0  0  0  0  0  0
   18.3891  -17.2410    6.9299 C   0  0  1  0  0  0  0  0  0  0  0  0
   17.8274  -15.9651    7.4406 C   0  0  0  0  0  0  0  0  0  0  0  0
   17.5608  -14.9735    6.7475 O   0  0  0  0  0  0  0  0  0  0  0  0
   17.5860  -15.8889    8.8043 O   0  0  0  0  0  0  0  0  0  0  0  0
  1  2  1  0
  2  3  2  0
  4  2  1  0
  4  5  1  0
  5  6  1  0
  6  8  1  0
  6  7  1  6
  8  9  2  0
 10 11  1  0
 10  8  1  0
 11 12  1  1
 13 14  2  0
 13 12  1  0
 15 14  1  0
 16 15  2  0
 17 16  1  0
 17 18  2  0
 18 13  1  0
 19 11  1  0
 20 19  2  0
 21 19  1  0
 21 25  1  0
 22 23  1  0
 22 21  1  0
 23 24  1  0
 24 25  1  0
 25 26  1  6
 26 28  1  0
 27 26  2  0
M  END
$$$$
