QFP.pdb
     RDKit          3D

 28 29  0  0  1  0  0  0  0  0999 V2000
   22.7238  -21.1404  -18.2369 N   0  0  0  0  0  0  0  0  0  0  0  0
   22.5895  -19.8025  -18.6765 C   0  0  0  0  0  0  0  0  0  0  0  0
   23.4013  -19.3458  -19.5124 O   0  0  0  0  0  0  0  0  0  0  0  0
   21.5076  -18.9323  -18.1671 C   0  0  0  0  0  0  0  0  0  0  0  0
   20.5979  -19.7076  -17.2161 C   0  0  0  0  0  0  0  0  0  0  0  0
   20.4254  -18.9566  -15.9275 C   0  0  2  0  0  0  0  0  0  0  0  0
   20.1460  -17.5732  -16.2399 N   0  0  0  0  0  0  0  0  0  0  0  0
   21.6963  -19.0152  -15.1663 C   0  0  0  0  0  0  0  0  0  0  0  0
   22.4712  -18.0115  -15.0766 O   0  0  0  0  0  0  0  0  0  0  0  0
   22.1091  -20.1895  -14.5029 N   0  0  0  0  0  0  0  0  0  0  0  0
   23.2970  -20.2443  -13.6718 C   0  0  1  0  0  0  0  0  0  0  0  0
   23.1234  -21.2656  -12.5674 C   0  0  0  0  0  0  0  0  0  0  0  0
   24.2295  -21.0978  -11.5637 C   0  0  0  0  0  0  0  0  0  0  0  0
   24.0831  -20.2937  -10.4577 C   0  0  0  0  0  0  0  0  0  0  0  0
   25.1456  -20.1920   -9.5839 C   0  0  0  0  0  0  0  0  0  0  0  0
   26.3332  -20.8728   -9.7983 C   0  0  0  0  0  0  0  0  0  0  0  0
   26.4777  -21.6780  -10.9072 C   0  0  0  0  0  0  0  0  0  0  0  0
   25.4040  -21.7677  -11.7705 C   0  0  0  0  0  0  0  0  0  0  0  0
   24.4984  -20.4753  -14.4990 C   0  0  0  0  0  0  0  0  0  0  0  0
   24.4363  -21.4335  -15.3485 O   0  0  0  0  0  0  0  0  0  0  0  0
   25.6922  -19.7426  -14.4377 N   0  0  0  0  0  0  0  0  0  0  0  0
   25.9682  -18.6391  -13.5431 C   0  0  0  0  0  0  0  0  0  0  0  0
   27.0753  -17.8511  -14.2799 C   0  0  0  0  0  0  0  0  0  0  0  0
   27.9104  -19.0217  -14.7543 C   0  0  0  0  0  0  0  0  0  0  0  0
   26.8485  -19.9636  -15.2709 C   0  0  1  0  0  0  0  0  0  0  0  0
   27.3089  -21.3750  -15.2548 C   0  0  0  0  0  0  0  0  0  0  0  0
   26.8784  -22.2585  -14.5008 O   0  0  0  0  0  0  0  0  0  0  0  0
   28.3007  -21.7202  -16.1610 O   0  0  0  0  0  0  0  0  0  0  0  0
  1  2  1  0
  2  3  2  0
  4  2  1  0
  4  5  1  0
  5  6  1  0
  6  8  1  0
  6  7  1  6
  8  9  2  0
 10 11  1  0
 10  8  1  0
 11 12  1  1
 13 14  2  0
 13 12  1  0
 15 14  1  0
 16 15  2  0
 17 16  1  0
 17 18  2  0
 18 13  1  0
 19 11  1  0
 20 19  2  0
 21 19  1  0
 21 25  1  0
 22 23  1  0
 22 21  1  0
 23 24  1  0
 24 25  1  0
 25 26  1  1
 26 28  1  0
 27 26  2  0
M  END
$$$$
