QFP.pdb
     RDKit          3D

 28 29  0  0  1  0  0  0  0  0999 V2000
   22.6420  -21.2778  -10.7085 N   0  0  0  0  0  0  0  0  0  0  0  0
   22.4633  -21.5083  -12.0927 C   0  0  0  0  0  0  0  0  0  0  0  0
   21.3046  -21.6179  -12.5530 O   0  0  0  0  0  0  0  0  0  0  0  0
   23.6198  -21.6223  -13.0073 C   0  0  0  0  0  0  0  0  0  0  0  0
   24.9301  -21.4662  -12.2380 C   0  0  0  0  0  0  0  0  0  0  0  0
   25.1004  -20.0479  -11.7757 C   0  0  2  0  0  0  0  0  0  0  0  0
   25.4690  -19.2381  -12.9150 N   0  0  0  0  0  0  0  0  0  0  0  0
   26.2061  -19.9961  -10.7896 C   0  0  0  0  0  0  0  0  0  0  0  0
   27.4255  -19.9870  -11.1490 O   0  0  0  0  0  0  0  0  0  0  0  0
   25.9596  -19.9542   -9.4014 N   0  0  0  0  0  0  0  0  0  0  0  0
   27.0241  -19.8977   -8.4172 C   0  0  1  0  0  0  0  0  0  0  0  0
   26.4570  -19.6274   -7.0395 C   0  0  0  0  0  0  0  0  0  0  0  0
   27.5869  -19.5258   -6.0535 C   0  0  0  0  0  0  0  0  0  0  0  0
   27.9388  -20.5843   -5.2493 C   0  0  0  0  0  0  0  0  0  0  0  0
   28.9872  -20.4108   -4.3696 C   0  0  0  0  0  0  0  0  0  0  0  0
   29.6768  -19.2119   -4.2853 C   0  0  0  0  0  0  0  0  0  0  0  0
   29.3224  -18.1526   -5.0922 C   0  0  0  0  0  0  0  0  0  0  0  0
   28.2710  -18.3446   -5.9662 C   0  0  0  0  0  0  0  0  0  0  0  0
   27.8533  -21.1181   -8.4797 C   0  0  0  0  0  0  0  0  0  0  0  0
   27.2365  -22.2380   -8.3850 O   0  0  0  0  0  0  0  0  0  0  0  0
   29.2463  -21.1586   -8.6337 N   0  0  0  0  0  0  0  0  0  0  0  0
   30.1078  -20.0236   -8.8856 C   0  0  0  0  0  0  0  0  0  0  0  0
   31.3457  -20.6582   -9.5598 C   0  0  0  0  0  0  0  0  0  0  0  0
   31.4872  -21.8778   -8.6734 C   0  0  0  0  0  0  0  0  0  0  0  0
   30.0560  -22.3508   -8.5758 C   0  0  1  0  0  0  0  0  0  0  0  0
   29.8217  -23.1473   -7.3450 C   0  0  0  0  0  0  0  0  0  0  0  0
   30.2185  -24.3057   -7.1571 O   0  0  0  0  0  0  0  0  0  0  0  0
   29.0996  -22.5350   -6.3313 O   0  0  0  0  0  0  0  0  0  0  0  0
  1  2  1  0
  2  3  2  0
  4  2  1  0
  4  5  1  0
  5  6  1  0
  6  8  1  0
  6  7  1  6
  8  9  2  0
 10 11  1  0
 10  8  1  0
 11 12  1  1
 13 14  2  0
 13 12  1  0
 15 14  1  0
 16 15  2  0
 17 16  1  0
 17 18  2  0
 18 13  1  0
 19 11  1  0
 20 19  2  0
 21 19  1  0
 21 25  1  0
 22 23  1  0
 22 21  1  0
 23 24  1  0
 24 25  1  0
 25 26  1  1
 26 28  1  0
 27 26  2  0
M  END
$$$$
