QFP.pdb
     RDKit          3D

 28 29  0  0  1  0  0  0  0  0999 V2000
   29.6321  -20.2849  -19.4551 N   0  0  0  0  0  0  0  0  0  0  0  0
   29.8188  -19.1173  -18.6786 C   0  0  0  0  0  0  0  0  0  0  0  0
   30.4592  -18.1554  -19.1592 O   0  0  0  0  0  0  0  0  0  0  0  0
   29.2714  -19.0111  -17.3088 C   0  0  0  0  0  0  0  0  0  0  0  0
   27.9925  -18.1761  -17.3050 C   0  0  0  0  0  0  0  0  0  0  0  0
   26.8286  -18.9983  -17.7779 C   0  0  2  0  0  0  0  0  0  0  0  0
   26.2586  -18.3555  -18.9404 N   0  0  0  0  0  0  0  0  0  0  0  0
   25.8000  -19.0290  -16.7108 C   0  0  0  0  0  0  0  0  0  0  0  0
   25.3948  -17.9682  -16.1391 O   0  0  0  0  0  0  0  0  0  0  0  0
   25.2190  -20.2385  -16.2762 N   0  0  0  0  0  0  0  0  0  0  0  0
   24.1577  -20.2883  -15.2882 C   0  0  1  0  0  0  0  0  0  0  0  0
   22.8394  -20.6394  -15.9450 C   0  0  0  0  0  0  0  0  0  0  0  0
   22.2859  -19.4168  -16.6219 C   0  0  0  0  0  0  0  0  0  0  0  0
   22.4721  -19.1906  -17.9655 C   0  0  0  0  0  0  0  0  0  0  0  0
   21.9329  -18.0442  -18.5116 C   0  0  0  0  0  0  0  0  0  0  0  0
   21.2216  -17.1362  -17.7439 C   0  0  0  0  0  0  0  0  0  0  0  0
   21.0363  -17.3650  -16.3977 C   0  0  0  0  0  0  0  0  0  0  0  0
   21.5830  -18.5172  -15.8687 C   0  0  0  0  0  0  0  0  0  0  0  0
   24.5210  -21.1973  -14.1823 C   0  0  0  0  0  0  0  0  0  0  0  0
   24.6722  -22.4348  -14.4811 O   0  0  0  0  0  0  0  0  0  0  0  0
   24.7148  -20.8273  -12.8439 N   0  0  0  0  0  0  0  0  0  0  0  0
   24.7697  -19.4739  -12.3347 C   0  0  0  0  0  0  0  0  0  0  0  0
   25.5823  -19.6175  -11.0274 C   0  0  0  0  0  0  0  0  0  0  0  0
   24.9456  -20.8871  -10.5022 C   0  0  0  0  0  0  0  0  0  0  0  0
   24.9031  -21.7433  -11.7458 C   0  0  1  0  0  0  0  0  0  0  0  0
   23.8390  -22.7757  -11.6678 C   0  0  0  0  0  0  0  0  0  0  0  0
   22.7634  -22.7411  -12.2814 O   0  0  0  0  0  0  0  0  0  0  0  0
   24.0796  -23.8611  -10.8383 O   0  0  0  0  0  0  0  0  0  0  0  0
  1  2  1  0
  2  3  2  0
  4  2  1  0
  4  5  1  0
  5  6  1  0
  6  8  1  0
  6  7  1  6
  8  9  2  0
 10 11  1  0
 10  8  1  0
 11 12  1  6
 13 14  2  0
 13 12  1  0
 15 14  1  0
 16 15  2  0
 17 16  1  0
 17 18  2  0
 18 13  1  0
 19 11  1  0
 20 19  2  0
 21 19  1  0
 21 25  1  0
 22 23  1  0
 22 21  1  0
 23 24  1  0
 24 25  1  0
 25 26  1  1
 26 28  1  0
 27 26  2  0
M  END
$$$$
