QFP.pdb
     RDKit          3D

 28 29  0  0  1  0  0  0  0  0999 V2000
   24.2469  -17.1014  -17.3335 N   0  0  0  0  0  0  0  0  0  0  0  0
   24.8914  -16.7581  -18.5450 C   0  0  0  0  0  0  0  0  0  0  0  0
   24.7831  -15.5934  -18.9902 O   0  0  0  0  0  0  0  0  0  0  0  0
   25.6913  -17.7493  -19.2965 C   0  0  0  0  0  0  0  0  0  0  0  0
   25.8215  -19.0474  -18.5021 C   0  0  0  0  0  0  0  0  0  0  0  0
   27.1168  -19.0695  -17.7432 C   0  0  2  0  0  0  0  0  0  0  0  0
   28.0845  -19.8166  -18.5147 N   0  0  0  0  0  0  0  0  0  0  0  0
   26.9044  -19.7725  -16.4554 C   0  0  0  0  0  0  0  0  0  0  0  0
   26.8717  -21.0412  -16.3811 O   0  0  0  0  0  0  0  0  0  0  0  0
   26.7278  -19.0673  -15.2466 N   0  0  0  0  0  0  0  0  0  0  0  0
   26.4330  -19.7280  -13.9891 C   0  0  1  0  0  0  0  0  0  0  0  0
   26.9514  -18.9081  -12.8264 C   0  0  0  0  0  0  0  0  0  0  0  0
   26.6740  -19.6420  -11.5443 C   0  0  0  0  0  0  0  0  0  0  0  0
   27.4163  -20.7357  -11.1650 C   0  0  0  0  0  0  0  0  0  0  0  0
   27.0983  -21.3545   -9.9738 C   0  0  0  0  0  0  0  0  0  0  0  0
   26.0645  -20.9012   -9.1704 C   0  0  0  0  0  0  0  0  0  0  0  0
   25.3219  -19.8051   -9.5526 C   0  0  0  0  0  0  0  0  0  0  0  0
   25.6545  -19.1986  -10.7475 C   0  0  0  0  0  0  0  0  0  0  0  0
   24.9922  -20.0370  -13.8910 C   0  0  0  0  0  0  0  0  0  0  0  0
   24.1845  -19.0443  -13.9675 O   0  0  0  0  0  0  0  0  0  0  0  0
   24.4343  -21.3124  -13.7239 N   0  0  0  0  0  0  0  0  0  0  0  0
   25.1634  -22.5619  -13.6883 C   0  0  0  0  0  0  0  0  0  0  0  0
   24.1021  -23.6059  -14.1049 C   0  0  0  0  0  0  0  0  0  0  0  0
   22.9337  -23.0758  -13.3007 C   0  0  0  0  0  0  0  0  0  0  0  0
   23.0279  -21.5922  -13.5687 C   0  0  1  0  0  0  0  0  0  0  0  0
   22.3981  -20.7956  -12.4856 C   0  0  0  0  0  0  0  0  0  0  0  0
   23.0114  -20.1531  -11.6220 O   0  0  0  0  0  0  0  0  0  0  0  0
   21.0117  -20.7768  -12.4477 O   0  0  0  0  0  0  0  0  0  0  0  0
  1  2  1  0
  2  3  2  0
  4  2  1  0
  4  5  1  0
  5  6  1  0
  6  8  1  0
  6  7  1  6
  8  9  2  0
 10 11  1  0
 10  8  1  0
 11 12  1  1
 13 14  2  0
 13 12  1  0
 15 14  1  0
 16 15  2  0
 17 16  1  0
 17 18  2  0
 18 13  1  0
 19 11  1  0
 20 19  2  0
 21 19  1  0
 21 25  1  0
 22 23  1  0
 22 21  1  0
 23 24  1  0
 24 25  1  0
 25 26  1  1
 26 28  1  0
 27 26  2  0
M  END
$$$$
