WEN.pdb
     RDKit          3D

 32 33  0  0  1  0  0  0  0  0999 V2000
   15.5674  -16.0564    5.7483 N   0  0  0  0  0  0  0  0  0  0  0  0
   16.5045  -16.8375    4.9836 C   0  0  1  0  0  0  0  0  0  0  0  0
   17.9260  -16.3886    5.1261 C   0  0  0  0  0  0  0  0  0  0  0  0
   18.1045  -14.9546    4.7914 C   0  0  0  0  0  0  0  0  0  0  0  0
   17.3524  -14.2001    3.9042 C   0  0  0  0  0  0  0  0  0  0  0  0
   17.8082  -12.9501    3.8276 N   0  0  0  0  0  0  0  0  0  0  0  0
   18.8735  -12.8419    4.6610 C   0  0  0  0  0  0  0  0  0  0  0  0
   19.6864  -11.7531    4.9396 C   0  0  0  0  0  0  0  0  0  0  0  0
   20.7141  -11.9073    5.8435 C   0  0  0  0  0  0  0  0  0  0  0  0
   20.9109  -13.1284    6.4458 C   0  0  0  0  0  0  0  0  0  0  0  0
   20.1026  -14.1977    6.1635 C   0  0  0  0  0  0  0  0  0  0  0  0
   19.0624  -14.0864    5.2639 C   0  0  0  0  0  0  0  0  0  0  0  0
   16.4038  -18.2894    5.2979 C   0  0  0  0  0  0  0  0  0  0  0  0
   16.2217  -18.6047    6.5052 O   0  0  0  0  0  0  0  0  0  0  0  0
   16.5052  -19.2905    4.2808 N   0  0  0  0  0  0  0  0  0  0  0  0
   16.6909  -20.6468    4.6822 C   0  0  1  0  0  0  0  0  0  0  0  0
   16.7511  -21.4922    3.3841 C   0  0  0  0  0  0  0  0  0  0  0  0
   16.7654  -22.9526    3.8205 C   0  0  0  0  0  0  0  0  0  0  0  0
   15.4056  -23.4822    3.9556 C   0  0  0  0  0  0  0  0  0  0  0  0
   14.6055  -23.4720    2.9996 O   0  0  0  0  0  0  0  0  0  0  0  0
   17.8545  -20.9195    5.5218 C   0  0  0  0  0  0  0  0  0  0  0  0
   18.9929  -20.4228    5.2068 O   0  0  0  0  0  0  0  0  0  0  0  0
   14.9878  -24.0081    5.1646 O   0  0  0  0  0  0  0  0  0  0  0  0
   18.9263  -19.3382    9.6637 N   0  0  0  0  0  0  0  0  0  0  0  0
   19.6793  -20.3022    8.9389 C   0  0  0  0  0  0  0  0  0  0  0  0
   20.7679  -19.9088    8.4456 O   0  0  0  0  0  0  0  0  0  0  0  0
   19.1357  -21.6705    8.8215 C   0  0  0  0  0  0  0  0  0  0  0  0
   19.0932  -22.0819    7.4085 C   0  0  2  0  0  0  0  0  0  0  0  0
   17.8899  -21.7029    6.7044 N   0  0  0  0  0  0  0  0  0  0  0  0
   19.4358  -23.5059    7.2317 C   0  0  0  0  0  0  0  0  0  0  0  0
   20.6015  -23.8138    6.8956 O   0  0  0  0  0  0  0  0  0  0  0  0
   18.5018  -24.5204    7.4266 O   0  0  0  0  0  0  0  0  0  0  0  0
  2  3  1  0
  2  1  1  1
  3  4  1  0
  4  5  2  0
  5  6  1  0
  7  6  1  0
  8  7  2  0
  9  8  1  0
 10 11  1  0
 10  9  2  0
 11 12  2  0
 12  4  1  0
 12  7  1  0
 13  2  1  0
 13 14  2  0
 15 13  1  0
 16 15  1  0
 16 17  1  6
 18 17  1  0
 19 20  2  0
 19 18  1  0
 21 16  1  0
 21 22  2  0
 23 19  1  0
 25 26  2  0
 25 24  1  0
 27 25  1  0
 28 29  1  0
 28 27  1  1
 29 21  1  0
 30 28  1  0
 31 30  2  0
 32 30  1  0
M  END
$$$$
