WEN.pdb
     RDKit          3D

 32 33  0  0  1  0  0  0  0  0999 V2000
   17.0284  -17.4927    3.8945 N   0  0  0  0  0  0  0  0  0  0  0  0
   17.5004  -18.8204    4.1901 C   0  0  1  0  0  0  0  0  0  0  0  0
   18.9274  -19.0566    3.8024 C   0  0  0  0  0  0  0  0  0  0  0  0
   19.1557  -18.8853    2.3468 C   0  0  0  0  0  0  0  0  0  0  0  0
   18.2871  -19.2124    1.3169 C   0  0  0  0  0  0  0  0  0  0  0  0
   18.8279  -18.9483    0.1278 N   0  0  0  0  0  0  0  0  0  0  0  0
   20.0683  -18.4394    0.3367 C   0  0  0  0  0  0  0  0  0  0  0  0
   21.0244  -18.0080   -0.5709 C   0  0  0  0  0  0  0  0  0  0  0  0
   22.2205  -17.5209   -0.0922 C   0  0  0  0  0  0  0  0  0  0  0  0
   22.4396  -17.4731    1.2651 C   0  0  0  0  0  0  0  0  0  0  0  0
   21.4889  -17.9020    2.1532 C   0  0  0  0  0  0  0  0  0  0  0  0
   20.2777  -18.3975    1.7159 C   0  0  0  0  0  0  0  0  0  0  0  0
   17.3060  -19.1725    5.6237 C   0  0  0  0  0  0  0  0  0  0  0  0
   17.7887  -18.3825    6.4799 O   0  0  0  0  0  0  0  0  0  0  0  0
   16.6014  -20.3521    6.0223 N   0  0  0  0  0  0  0  0  0  0  0  0
   16.6197  -20.7182    7.4010 C   0  0  1  0  0  0  0  0  0  0  0  0
   15.1830  -21.1765    7.7602 C   0  0  0  0  0  0  0  0  0  0  0  0
   14.3540  -19.9081    7.9259 C   0  0  0  0  0  0  0  0  0  0  0  0
   12.9520  -20.2214    8.2157 C   0  0  0  0  0  0  0  0  0  0  0  0
   12.5250  -20.2712    9.3859 O   0  0  0  0  0  0  0  0  0  0  0  0
   17.5910  -21.7386    7.7866 C   0  0  0  0  0  0  0  0  0  0  0  0
   18.2710  -22.3393    6.8819 O   0  0  0  0  0  0  0  0  0  0  0  0
   12.0725  -20.4692    7.1776 O   0  0  0  0  0  0  0  0  0  0  0  0
   20.2084  -25.0949   12.0316 N   0  0  0  0  0  0  0  0  0  0  0  0
   20.4381  -24.1890   10.9601 C   0  0  0  0  0  0  0  0  0  0  0  0
   21.4652  -24.3932   10.2627 O   0  0  0  0  0  0  0  0  0  0  0  0
   19.4692  -23.0940   10.7499 C   0  0  0  0  0  0  0  0  0  0  0  0
   18.8331  -23.2239    9.4286 C   0  0  2  0  0  0  0  0  0  0  0  0
   17.8970  -22.1729    9.1023 N   0  0  0  0  0  0  0  0  0  0  0  0
   18.2796  -24.5731    9.2062 C   0  0  0  0  0  0  0  0  0  0  0  0
   19.0644  -25.5424    9.0987 O   0  0  0  0  0  0  0  0  0  0  0  0
   16.9094  -24.8035    9.1115 O   0  0  0  0  0  0  0  0  0  0  0  0
  2  3  1  0
  2  1  1  1
  3  4  1  0
  4  5  2  0
  5  6  1  0
  7  6  1  0
  8  7  2  0
  9  8  1  0
 10 11  1  0
 10  9  2  0
 11 12  2  0
 12  4  1  0
 12  7  1  0
 13  2  1  0
 13 14  2  0
 15 13  1  0
 16 15  1  0
 16 17  1  6
 18 17  1  0
 19 20  2  0
 19 18  1  0
 21 16  1  0
 21 22  2  0
 23 19  1  0
 25 26  2  0
 25 24  1  0
 27 25  1  0
 28 29  1  0
 28 27  1  1
 29 21  1  0
 30 28  1  0
 31 30  2  0
 32 30  1  0
M  END
$$$$
