WEN.pdb
     RDKit          3D

 32 33  0  0  1  0  0  0  0  0999 V2000
   18.0979  -17.3826    3.8917 N   0  0  0  0  0  0  0  0  0  0  0  0
   18.5342  -17.0368    5.2194 C   0  0  1  0  0  0  0  0  0  0  0  0
   17.5230  -16.2627    6.0073 C   0  0  0  0  0  0  0  0  0  0  0  0
   17.5330  -14.8165    5.6778 C   0  0  0  0  0  0  0  0  0  0  0  0
   16.5615  -14.1057    4.9900 C   0  0  0  0  0  0  0  0  0  0  0  0
   16.9089  -12.8269    4.8489 N   0  0  0  0  0  0  0  0  0  0  0  0
   18.1187  -12.6550    5.4388 C   0  0  0  0  0  0  0  0  0  0  0  0
   18.9006  -11.5163    5.5649 C   0  0  0  0  0  0  0  0  0  0  0  0
   20.1058  -11.6095    6.2251 C   0  0  0  0  0  0  0  0  0  0  0  0
   20.5051  -12.8206    6.7415 C   0  0  0  0  0  0  0  0  0  0  0  0
   19.7256  -13.9395    6.6114 C   0  0  0  0  0  0  0  0  0  0  0  0
   18.5120  -13.8899    5.9568 C   0  0  0  0  0  0  0  0  0  0  0  0
   18.9615  -18.2351    5.9931 C   0  0  0  0  0  0  0  0  0  0  0  0
   19.1217  -19.3076    5.3494 O   0  0  0  0  0  0  0  0  0  0  0  0
   19.1856  -18.1812    7.4051 N   0  0  0  0  0  0  0  0  0  0  0  0
   19.6785  -19.3504    8.0573 C   0  0  1  0  0  0  0  0  0  0  0  0
   20.1606  -18.9078    9.4627 C   0  0  0  0  0  0  0  0  0  0  0  0
   21.5976  -18.4279    9.2946 C   0  0  0  0  0  0  0  0  0  0  0  0
   22.1426  -17.9237   10.5582 C   0  0  0  0  0  0  0  0  0  0  0  0
   23.0208  -18.5495   11.1837 O   0  0  0  0  0  0  0  0  0  0  0  0
   18.7477  -20.4706    8.1678 C   0  0  0  0  0  0  0  0  0  0  0  0
   17.4885  -20.2432    8.2340 O   0  0  0  0  0  0  0  0  0  0  0  0
   21.6816  -16.7284   11.0793 O   0  0  0  0  0  0  0  0  0  0  0  0
   19.2578  -25.0747    5.6028 N   0  0  0  0  0  0  0  0  0  0  0  0
   18.4430  -24.1789    6.3481 C   0  0  0  0  0  0  0  0  0  0  0  0
   17.6982  -23.4127    5.6838 O   0  0  0  0  0  0  0  0  0  0  0  0
   18.5309  -24.2149    7.8221 C   0  0  0  0  0  0  0  0  0  0  0  0
   18.1181  -22.9201    8.3883 C   0  0  2  0  0  0  0  0  0  0  0  0
   19.0737  -21.8509    8.2120 N   0  0  0  0  0  0  0  0  0  0  0  0
   17.6489  -23.0448    9.7814 C   0  0  0  0  0  0  0  0  0  0  0  0
   18.3115  -22.5065   10.6968 O   0  0  0  0  0  0  0  0  0  0  0  0
   16.4904  -23.7437   10.1113 O   0  0  0  0  0  0  0  0  0  0  0  0
  2  3  1  0
  2  1  1  6
  3  4  1  0
  4  5  2  0
  5  6  1  0
  7  6  1  0
  8  7  2  0
  9  8  1  0
 10 11  1  0
 10  9  2  0
 11 12  2  0
 12  4  1  0
 12  7  1  0
 13  2  1  0
 13 14  2  0
 15 13  1  0
 16 15  1  0
 16 17  1  1
 18 17  1  0
 19 20  2  0
 19 18  1  0
 21 16  1  0
 21 22  2  0
 23 19  1  0
 25 26  2  0
 25 24  1  0
 27 25  1  0
 28 29  1  0
 28 27  1  1
 29 21  1  0
 30 28  1  0
 31 30  2  0
 32 30  1  0
M  END
$$$$
