WEN.pdb
     RDKit          3D

 32 33  0  0  1  0  0  0  0  0999 V2000
   25.8938  -22.4214  -12.0778 N   0  0  0  0  0  0  0  0  0  0  0  0
   25.3404  -21.4466  -11.1742 C   0  0  1  0  0  0  0  0  0  0  0  0
   26.2113  -20.2454  -10.9712 C   0  0  0  0  0  0  0  0  0  0  0  0
   27.4853  -20.5772  -10.2877 C   0  0  0  0  0  0  0  0  0  0  0  0
   28.5680  -21.2625  -10.8172 C   0  0  0  0  0  0  0  0  0  0  0  0
   29.5362  -21.4068   -9.9128 N   0  0  0  0  0  0  0  0  0  0  0  0
   29.1224  -20.8217   -8.7606 C   0  0  0  0  0  0  0  0  0  0  0  0
   29.7636  -20.7003   -7.5366 C   0  0  0  0  0  0  0  0  0  0  0  0
   29.1176  -20.0445   -6.5122 C   0  0  0  0  0  0  0  0  0  0  0  0
   27.8602  -19.5278   -6.7231 C   0  0  0  0  0  0  0  0  0  0  0  0
   27.2354  -19.6532   -7.9357 C   0  0  0  0  0  0  0  0  0  0  0  0
   27.8467  -20.3033   -8.9881 C   0  0  0  0  0  0  0  0  0  0  0  0
   23.9785  -21.0130  -11.5914 C   0  0  0  0  0  0  0  0  0  0  0  0
   23.4988  -19.9963  -11.0199 O   0  0  0  0  0  0  0  0  0  0  0  0
   23.2394  -21.7114  -12.5978 N   0  0  0  0  0  0  0  0  0  0  0  0
   21.9073  -21.2844  -12.8782 C   0  0  1  0  0  0  0  0  0  0  0  0
   21.9098  -20.7378  -14.3289 C   0  0  0  0  0  0  0  0  0  0  0  0
   20.4795  -20.3052  -14.6295 C   0  0  0  0  0  0  0  0  0  0  0  0
   20.3313  -18.8503  -14.5340 C   0  0  0  0  0  0  0  0  0  0  0  0
   21.3201  -18.0919  -14.5693 O   0  0  0  0  0  0  0  0  0  0  0  0
   20.8584  -22.2875  -12.7138 C   0  0  0  0  0  0  0  0  0  0  0  0
   21.0039  -23.4475  -13.2381 O   0  0  0  0  0  0  0  0  0  0  0  0
   19.0724  -18.2930  -14.4019 O   0  0  0  0  0  0  0  0  0  0  0  0
   19.4190  -23.8938   -8.5658 N   0  0  0  0  0  0  0  0  0  0  0  0
   18.9602  -24.2953   -9.8503 C   0  0  0  0  0  0  0  0  0  0  0  0
   19.3586  -25.4147  -10.2642 O   0  0  0  0  0  0  0  0  0  0  0  0
   18.0648  -23.3827  -10.5901 C   0  0  0  0  0  0  0  0  0  0  0  0
   18.5935  -23.1358  -11.9418 C   0  0  2  0  0  0  0  0  0  0  0  0
   19.6353  -22.1370  -12.0104 N   0  0  0  0  0  0  0  0  0  0  0  0
   17.5198  -22.9121  -12.9284 C   0  0  0  0  0  0  0  0  0  0  0  0
   17.1482  -21.7410  -13.1678 O   0  0  0  0  0  0  0  0  0  0  0  0
   16.9050  -23.9640  -13.6029 O   0  0  0  0  0  0  0  0  0  0  0  0
  2  3  1  0
  2  1  1  6
  3  4  1  0
  4  5  2  0
  5  6  1  0
  7  6  1  0
  8  7  2  0
  9  8  1  0
 10 11  1  0
 10  9  2  0
 11 12  2  0
 12  4  1  0
 12  7  1  0
 13  2  1  0
 13 14  2  0
 15 13  1  0
 16 15  1  0
 16 17  1  6
 18 17  1  0
 19 20  2  0
 19 18  1  0
 21 16  1  0
 21 22  2  0
 23 19  1  0
 25 26  2  0
 25 24  1  0
 27 25  1  0
 28 29  1  0
 28 27  1  1
 29 21  1  0
 30 28  1  0
 31 30  2  0
 32 30  1  0
M  END
$$$$
