WEN.pdb
     RDKit          3D

 32 33  0  0  1  0  0  0  0  0999 V2000
   28.0880  -21.1230   -9.4307 N   0  0  0  0  0  0  0  0  0  0  0  0
   26.6685  -21.3213   -9.2934 C   0  0  1  0  0  0  0  0  0  0  0  0
   26.1289  -20.9297   -7.9524 C   0  0  0  0  0  0  0  0  0  0  0  0
   26.9995  -19.9530   -7.2537 C   0  0  0  0  0  0  0  0  0  0  0  0
   27.3920  -18.7033   -7.7081 C   0  0  0  0  0  0  0  0  0  0  0  0
   28.1991  -18.1038   -6.8333 N   0  0  0  0  0  0  0  0  0  0  0  0
   28.3634  -18.9386   -5.7762 C   0  0  0  0  0  0  0  0  0  0  0  0
   29.1015  -18.7770   -4.6130 C   0  0  0  0  0  0  0  0  0  0  0  0
   29.0971  -19.7895   -3.6793 C   0  0  0  0  0  0  0  0  0  0  0  0
   28.3666  -20.9305   -3.9185 C   0  0  0  0  0  0  0  0  0  0  0  0
   27.6412  -21.0804   -5.0707 C   0  0  0  0  0  0  0  0  0  0  0  0
   27.6188  -20.0910   -6.0321 C   0  0  0  0  0  0  0  0  0  0  0  0
   25.9043  -20.6237  -10.3640 C   0  0  0  0  0  0  0  0  0  0  0  0
   25.8167  -19.3683  -10.2827 O   0  0  0  0  0  0  0  0  0  0  0  0
   25.2946  -21.3377  -11.4435 N   0  0  0  0  0  0  0  0  0  0  0  0
   24.5882  -20.5930  -12.4343 C   0  0  1  0  0  0  0  0  0  0  0  0
   25.5870  -20.3279  -13.5898 C   0  0  0  0  0  0  0  0  0  0  0  0
   26.1470  -21.6860  -13.9964 C   0  0  0  0  0  0  0  0  0  0  0  0
   27.1965  -21.5483  -15.0099 C   0  0  0  0  0  0  0  0  0  0  0  0
   26.9535  -21.7013  -16.2231 O   0  0  0  0  0  0  0  0  0  0  0  0
   23.3635  -21.2001  -12.9490 C   0  0  0  0  0  0  0  0  0  0  0  0
   23.3250  -22.4626  -13.1645 O   0  0  0  0  0  0  0  0  0  0  0  0
   28.4894  -21.2420  -14.6260 O   0  0  0  0  0  0  0  0  0  0  0  0
   18.9203  -23.1285  -11.5070 N   0  0  0  0  0  0  0  0  0  0  0  0
   19.0588  -21.7134  -11.5056 C   0  0  0  0  0  0  0  0  0  0  0  0
   17.9971  -21.0456  -11.4059 O   0  0  0  0  0  0  0  0  0  0  0  0
   20.4166  -21.1433  -11.6195 C   0  0  0  0  0  0  0  0  0  0  0  0
   20.8286  -21.0880  -13.0318 C   0  0  2  0  0  0  0  0  0  0  0  0
   22.1461  -20.5391  -13.2562 N   0  0  0  0  0  0  0  0  0  0  0  0
   19.7982  -20.4727  -13.8897 C   0  0  0  0  0  0  0  0  0  0  0  0
   18.6427  -20.9538  -13.8928 O   0  0  0  0  0  0  0  0  0  0  0  0
   20.0705  -19.3718  -14.6980 O   0  0  0  0  0  0  0  0  0  0  0  0
  2  3  1  0
  2  1  1  1
  3  4  1  0
  4  5  2  0
  5  6  1  0
  7  6  1  0
  8  7  2  0
  9  8  1  0
 10 11  1  0
 10  9  2  0
 11 12  2  0
 12  4  1  0
 12  7  1  0
 13  2  1  0
 13 14  2  0
 15 13  1  0
 16 15  1  0
 16 17  1  6
 18 17  1  0
 19 20  2  0
 19 18  1  0
 21 16  1  0
 21 22  2  0
 23 19  1  0
 25 26  2  0
 25 24  1  0
 27 25  1  0
 28 29  1  0
 28 27  1  1
 29 21  1  0
 30 28  1  0
 31 30  2  0
 32 30  1  0
M  END
$$$$
