YLL.pdb
     RDKit          3D

 29 29  0  0  1  0  0  0  0  0999 V2000
   15.2127  -20.9614   22.0319 O   0  0  0  0  0  0  0  0  0  0  0  0
   14.2014  -20.4003   22.8083 C   0  0  0  0  0  0  0  0  0  0  0  0
   13.2957  -19.5045   22.2729 C   0  0  0  0  0  0  0  0  0  0  0  0
   12.2960  -18.9513   23.0448 C   0  0  0  0  0  0  0  0  0  0  0  0
   12.1462  -19.2531   24.3643 C   0  0  0  0  0  0  0  0  0  0  0  0
   11.0950  -18.6921   25.2382 C   0  0  0  0  0  0  0  0  0  0  0  0
   11.0823  -17.1925   25.0667 C   0  0  2  0  0  0  0  0  0  0  0  0
   12.3471  -16.6536   25.5259 N   0  0  0  0  0  0  0  0  0  0  0  0
   10.0208  -16.5460   25.8725 C   0  0  0  0  0  0  0  0  0  0  0  0
    9.3687  -17.1945   26.7247 O   0  0  0  0  0  0  0  0  0  0  0  0
   13.0429  -20.1500   24.9262 C   0  0  0  0  0  0  0  0  0  0  0  0
   14.0476  -20.7080   24.1566 C   0  0  0  0  0  0  0  0  0  0  0  0
    5.8882  -13.1549   26.9684 C   0  0  0  0  0  0  0  0  0  0  0  0
    6.7715  -12.7155   25.8497 C   0  0  1  0  0  0  0  0  0  0  0  0
    6.8942  -11.1880   25.9747 C   0  0  0  0  0  0  0  0  0  0  0  0
    8.1484  -13.2484   25.8386 C   0  0  0  0  0  0  0  0  0  0  0  0
    8.3417  -14.6855   25.5282 C   0  0  2  0  0  0  0  0  0  0  0  0
    9.6856  -15.1566   25.7219 N   0  0  0  0  0  0  0  0  0  0  0  0
    7.7456  -15.1378   24.2454 C   0  0  0  0  0  0  0  0  0  0  0  0
    6.4933  -15.3710   24.1457 O   0  0  0  0  0  0  0  0  0  0  0  0
    6.3648  -13.0474   20.9372 C   0  0  0  0  0  0  0  0  0  0  0  0
    7.8848  -13.1896   21.1741 C   0  0  2  0  0  0  0  0  0  0  0  0
    8.5006  -12.1515   20.2598 C   0  0  0  0  0  0  0  0  0  0  0  0
    8.2139  -14.5999   20.8192 C   0  0  0  0  0  0  0  0  0  0  0  0
    7.8477  -15.6394   21.8209 C   0  0  2  0  0  0  0  0  0  0  0  0
    8.5110  -15.3347   23.0729 N   0  0  0  0  0  0  0  0  0  0  0  0
    8.1940  -17.0271   21.4485 C   0  0  0  0  0  0  0  0  0  0  0  0
    7.7115  -17.6521   20.2885 O   0  0  0  0  0  0  0  0  0  0  0  0
    8.9591  -17.7704   22.1519 O   0  0  0  0  0  0  0  0  0  0  0  0
  2  3  2  0
  2  1  1  0
  4  3  1  0
  5  4  2  0
  6  5  1  0
  7  6  1  0
  7  8  1  1
  9  7  1  0
  9 10  2  0
 11  5  1  0
 11 12  2  0
 12  2  1  0
 14 13  1  1
 14 15  1  0
 16 14  1  0
 17 16  1  6
 17 18  1  0
 18  9  1  0
 19 17  1  0
 19 26  1  0
 20 19  2  0
 22 21  1  6
 23 22  1  0
 24 22  1  0
 25 24  1  6
 25 26  1  0
 25 27  1  0
 27 28  1  0
 29 27  2  0
M  END
$$$$
