YLL.pdb
     RDKit          3D

 29 29  0  0  1  0  0  0  0  0999 V2000
   21.5915  -84.8027  -44.5691 O   0  0  0  0  0  0  0  0  0  0  0  0
   21.1095  -83.7992  -43.7317 C   0  0  0  0  0  0  0  0  0  0  0  0
   21.4586  -82.4756  -43.9192 C   0  0  0  0  0  0  0  0  0  0  0  0
   20.9794  -81.4852  -43.0881 C   0  0  0  0  0  0  0  0  0  0  0  0
   20.1436  -81.7527  -42.0466 C   0  0  0  0  0  0  0  0  0  0  0  0
   19.5994  -80.7333  -41.1256 C   0  0  0  0  0  0  0  0  0  0  0  0
   20.5528  -79.5635  -41.0920 C   0  0  2  0  0  0  0  0  0  0  0  0
   21.7839  -79.9756  -40.4475 N   0  0  0  0  0  0  0  0  0  0  0  0
   20.0162  -78.4267  -40.3085 C   0  0  0  0  0  0  0  0  0  0  0  0
   19.2151  -77.6086  -40.8194 O   0  0  0  0  0  0  0  0  0  0  0  0
   19.7777  -83.0741  -41.8367 C   0  0  0  0  0  0  0  0  0  0  0  0
   20.2555  -84.0716  -42.6673 C   0  0  0  0  0  0  0  0  0  0  0  0
   23.9767  -79.9370  -37.8267 C   0  0  0  0  0  0  0  0  0  0  0  0
   22.5475  -80.3105  -38.0333 C   0  0  1  0  0  0  0  0  0  0  0  0
   22.4228  -81.7820  -37.6058 C   0  0  0  0  0  0  0  0  0  0  0  0
   21.5429  -79.5597  -37.2543 C   0  0  0  0  0  0  0  0  0  0  0  0
   20.2628  -79.2077  -37.9151 C   0  0  2  0  0  0  0  0  0  0  0  0
   20.3812  -78.2036  -38.9365 N   0  0  0  0  0  0  0  0  0  0  0  0
   19.1238  -78.9683  -36.9927 C   0  0  0  0  0  0  0  0  0  0  0  0
   18.3416  -77.9711  -37.1551 O   0  0  0  0  0  0  0  0  0  0  0  0
   17.3843  -81.1671  -36.0520 C   0  0  0  0  0  0  0  0  0  0  0  0
   18.2123  -82.4200  -35.6897 C   0  0  2  0  0  0  0  0  0  0  0  0
   17.2481  -83.2877  -34.9085 C   0  0  0  0  0  0  0  0  0  0  0  0
   19.3721  -81.9171  -34.8989 C   0  0  0  0  0  0  0  0  0  0  0  0
   19.8998  -80.5758  -35.2740 C   0  0  2  0  0  0  0  0  0  0  0  0
   18.8359  -79.8135  -35.8963 N   0  0  0  0  0  0  0  0  0  0  0  0
   21.0533  -80.5852  -36.1980 C   0  0  0  0  0  0  0  0  0  0  0  0
   21.2482  -81.5783  -37.1698 O   0  0  0  0  0  0  0  0  0  0  0  0
   21.9665  -79.6916  -36.1866 O   0  0  0  0  0  0  0  0  0  0  0  0
  2  3  2  0
  2  1  1  0
  4  3  1  0
  5  4  2  0
  6  5  1  0
  7  6  1  0
  7  8  1  1
  9  7  1  0
  9 10  2  0
 11  5  1  0
 11 12  2  0
 12  2  1  0
 14 13  1  1
 14 15  1  0
 16 14  1  0
 17 16  1  1
 17 18  1  0
 18  9  1  0
 19 17  1  0
 19 26  1  0
 20 19  2  0
 22 21  1  1
 23 22  1  0
 24 22  1  0
 25 24  1  6
 25 26  1  0
 25 27  1  0
 27 28  1  0
 29 27  2  0
M  END
$$$$
