YLL.pdb
     RDKit          3D

 29 29  0  0  1  0  0  0  0  0999 V2000
    6.6360  -22.5037   19.5371 O   0  0  0  0  0  0  0  0  0  0  0  0
    7.1681  -21.4499   20.2767 C   0  0  0  0  0  0  0  0  0  0  0  0
    6.4476  -20.8444   21.2882 C   0  0  0  0  0  0  0  0  0  0  0  0
    6.9778  -19.8016   22.0181 C   0  0  0  0  0  0  0  0  0  0  0  0
    8.2283  -19.3147   21.7858 C   0  0  0  0  0  0  0  0  0  0  0  0
    8.8470  -18.2018   22.5356 C   0  0  0  0  0  0  0  0  0  0  0  0
    8.1840  -16.9139   22.1110 C   0  0  2  0  0  0  0  0  0  0  0  0
    8.5314  -16.6360   20.7314 N   0  0  0  0  0  0  0  0  0  0  0  0
    8.6445  -15.7566   22.9126 C   0  0  0  0  0  0  0  0  0  0  0  0
    9.6691  -15.1106   22.5885 O   0  0  0  0  0  0  0  0  0  0  0  0
    8.9726  -19.9054   20.7753 C   0  0  0  0  0  0  0  0  0  0  0  0
    8.4457  -20.9518   20.0400 C   0  0  0  0  0  0  0  0  0  0  0  0
    5.3032  -12.2472   26.0678 C   0  0  0  0  0  0  0  0  0  0  0  0
    6.4168  -12.7268   25.1991 C   0  0  1  0  0  0  0  0  0  0  0  0
    7.2129  -11.4759   24.7927 C   0  0  0  0  0  0  0  0  0  0  0  0
    7.3838  -13.6607   25.8097 C   0  0  0  0  0  0  0  0  0  0  0  0
    8.4249  -14.2600   24.9402 C   0  0  2  0  0  0  0  0  0  0  0  0
    7.9492  -15.3177   24.0913 N   0  0  0  0  0  0  0  0  0  0  0  0
    9.7010  -14.5915   25.6238 C   0  0  0  0  0  0  0  0  0  0  0  0
   10.5862  -13.6957   25.8391 O   0  0  0  0  0  0  0  0  0  0  0  0
   11.2429  -13.7134   28.4876 C   0  0  0  0  0  0  0  0  0  0  0  0
   10.3216  -14.9273   28.7411 C   0  0  2  0  0  0  0  0  0  0  0  0
   10.1234  -14.9344   30.2422 C   0  0  0  0  0  0  0  0  0  0  0  0
   11.0612  -16.1077   28.2091 C   0  0  0  0  0  0  0  0  0  0  0  0
   11.2762  -16.1478   26.7360 C   0  0  2  0  0  0  0  0  0  0  0  0
   10.0124  -15.8955   26.0732 N   0  0  0  0  0  0  0  0  0  0  0  0
   11.8204  -17.4173   26.2100 C   0  0  0  0  0  0  0  0  0  0  0  0
   11.1373  -18.2172   25.2814 O   0  0  0  0  0  0  0  0  0  0  0  0
   12.9552  -17.8900   26.5583 O   0  0  0  0  0  0  0  0  0  0  0  0
  2  3  2  0
  2  1  1  0
  4  3  1  0
  5  4  2  0
  6  5  1  0
  7  6  1  0
  7  8  1  6
  9  7  1  0
  9 10  2  0
 11  5  1  0
 11 12  2  0
 12  2  1  0
 14 13  1  1
 14 15  1  0
 16 14  1  0
 17 16  1  1
 17 18  1  0
 18  9  1  0
 19 17  1  0
 19 26  1  0
 20 19  2  0
 22 21  1  1
 23 22  1  0
 24 22  1  0
 25 24  1  1
 25 26  1  0
 25 27  1  0
 27 28  1  0
 29 27  2  0
M  END
$$$$
