YLL.pdb
     RDKit          3D

 29 29  0  0  1  0  0  0  0  0999 V2000
    7.4292  -23.1712   29.5986 O   0  0  0  0  0  0  0  0  0  0  0  0
    7.4990  -22.0021   28.8443 C   0  0  0  0  0  0  0  0  0  0  0  0
    6.3704  -21.4441   28.2751 C   0  0  0  0  0  0  0  0  0  0  0  0
    6.4437  -20.2867   27.5292 C   0  0  0  0  0  0  0  0  0  0  0  0
    7.6199  -19.6350   27.3136 C   0  0  0  0  0  0  0  0  0  0  0  0
    7.7576  -18.3932   26.5247 C   0  0  0  0  0  0  0  0  0  0  0  0
    6.7861  -18.4509   25.3709 C   0  0  2  0  0  0  0  0  0  0  0  0
    7.0315  -19.6577   24.6065 N   0  0  0  0  0  0  0  0  0  0  0  0
    6.9535  -17.3104   24.4408 C   0  0  0  0  0  0  0  0  0  0  0  0
    7.2401  -17.4950   23.2342 O   0  0  0  0  0  0  0  0  0  0  0  0
    8.7682  -20.1748   27.8744 C   0  0  0  0  0  0  0  0  0  0  0  0
    8.7004  -21.3355   28.6235 C   0  0  0  0  0  0  0  0  0  0  0  0
    6.6595  -11.4662   25.8661 C   0  0  0  0  0  0  0  0  0  0  0  0
    6.7238  -12.9537   25.7768 C   0  0  1  0  0  0  0  0  0  0  0  0
    5.3858  -13.4745   26.3267 C   0  0  0  0  0  0  0  0  0  0  0  0
    6.8788  -13.5345   24.4283 C   0  0  0  0  0  0  0  0  0  0  0  0
    7.5438  -14.8543   24.3053 C   0  0  2  0  0  0  0  0  0  0  0  0
    6.7979  -15.9468   24.8672 N   0  0  0  0  0  0  0  0  0  0  0  0
    8.9794  -14.8733   24.6850 C   0  0  0  0  0  0  0  0  0  0  0  0
    9.8316  -14.1382   24.0802 O   0  0  0  0  0  0  0  0  0  0  0  0
   10.7018  -12.9789   27.6048 C   0  0  0  0  0  0  0  0  0  0  0  0
   10.0954  -14.2805   28.1749 C   0  0  2  0  0  0  0  0  0  0  0  0
   10.2103  -14.1159   29.6757 C   0  0  0  0  0  0  0  0  0  0  0  0
   10.9197  -15.3864   27.6088 C   0  0  0  0  0  0  0  0  0  0  0  0
   10.8707  -15.5615   26.1306 C   0  0  2  0  0  0  0  0  0  0  0  0
    9.4862  -15.6901   25.7220 N   0  0  0  0  0  0  0  0  0  0  0  0
   11.6101  -16.7290   25.6066 C   0  0  0  0  0  0  0  0  0  0  0  0
   10.9902  -17.7811   24.9154 O   0  0  0  0  0  0  0  0  0  0  0  0
   12.8722  -16.8760   25.7410 O   0  0  0  0  0  0  0  0  0  0  0  0
  2  3  2  0
  2  1  1  0
  4  3  1  0
  5  4  2  0
  6  5  1  0
  7  6  1  0
  7  8  1  6
  9  7  1  0
  9 10  2  0
 11  5  1  0
 11 12  2  0
 12  2  1  0
 14 13  1  6
 14 15  1  0
 16 14  1  0
 17 16  1  1
 17 18  1  0
 18  9  1  0
 19 17  1  0
 19 26  1  0
 20 19  2  0
 22 21  1  6
 23 22  1  0
 24 22  1  0
 25 24  1  1
 25 26  1  0
 25 27  1  0
 27 28  1  0
 29 27  2  0
M  END
$$$$
