YLL.pdb
     RDKit          3D

 29 29  0  0  1  0  0  0  0  0999 V2000
    8.6177  -13.2876   15.3321 O   0  0  0  0  0  0  0  0  0  0  0  0
    8.2791  -13.6328   16.6385 C   0  0  0  0  0  0  0  0  0  0  0  0
    9.1611  -14.3150   17.4544 C   0  0  0  0  0  0  0  0  0  0  0  0
    8.8222  -14.6549   18.7471 C   0  0  0  0  0  0  0  0  0  0  0  0
    7.6121  -14.3407   19.2870 C   0  0  0  0  0  0  0  0  0  0  0  0
    7.1957  -14.6783   20.6640 C   0  0  0  0  0  0  0  0  0  0  0  0
    8.3416  -15.3820   21.3498 C   0  0  2  0  0  0  0  0  0  0  0  0
    8.6095  -16.6295   20.6621 N   0  0  0  0  0  0  0  0  0  0  0  0
    8.0269  -15.7243   22.7561 C   0  0  0  0  0  0  0  0  0  0  0  0
    7.4908  -14.8888   23.5220 O   0  0  0  0  0  0  0  0  0  0  0  0
    6.7082  -13.6556   18.4884 C   0  0  0  0  0  0  0  0  0  0  0  0
    7.0428  -13.3122   17.1910 C   0  0  0  0  0  0  0  0  0  0  0  0
    7.5200  -21.1364   24.4745 C   0  0  0  0  0  0  0  0  0  0  0  0
    7.3379  -19.6715   24.2607 C   0  0  1  0  0  0  0  0  0  0  0  0
    5.9006  -19.3492   24.7011 C   0  0  0  0  0  0  0  0  0  0  0  0
    8.2238  -18.7710   25.0250 C   0  0  0  0  0  0  0  0  0  0  0  0
    8.1915  -17.3222   24.7104 C   0  0  2  0  0  0  0  0  0  0  0  0
    8.3160  -17.0180   23.3112 N   0  0  0  0  0  0  0  0  0  0  0  0
    9.0544  -16.4724   25.5698 C   0  0  0  0  0  0  0  0  0  0  0  0
   10.3135  -16.3933   25.3676 O   0  0  0  0  0  0  0  0  0  0  0  0
    8.6211  -12.3848   25.8125 C   0  0  0  0  0  0  0  0  0  0  0  0
    7.7399  -13.0651   26.8837 C   0  0  2  0  0  0  0  0  0  0  0  0
    6.8910  -11.9388   27.4345 C   0  0  0  0  0  0  0  0  0  0  0  0
    8.6920  -13.6594   27.8653 C   0  0  0  0  0  0  0  0  0  0  0  0
    9.4402  -14.8667   27.4174 C   0  0  2  0  0  0  0  0  0  0  0  0
    8.5475  -15.7091   26.6469 N   0  0  0  0  0  0  0  0  0  0  0  0
   10.0210  -15.6890   28.4994 C   0  0  0  0  0  0  0  0  0  0  0  0
   11.0852  -15.2550   29.3043 O   0  0  0  0  0  0  0  0  0  0  0  0
    9.6029  -16.8612   28.7890 O   0  0  0  0  0  0  0  0  0  0  0  0
  2  3  2  0
  2  1  1  0
  4  3  1  0
  5  4  2  0
  6  5  1  0
  7  6  1  0
  7  8  1  6
  9  7  1  0
  9 10  2  0
 11  5  1  0
 11 12  2  0
 12  2  1  0
 14 13  1  1
 14 15  1  0
 16 14  1  0
 17 16  1  6
 17 18  1  0
 18  9  1  0
 19 17  1  0
 19 26  1  0
 20 19  2  0
 22 21  1  6
 23 22  1  0
 24 22  1  0
 25 24  1  1
 25 26  1  0
 25 27  1  0
 27 28  1  0
 29 27  2  0
M  END
$$$$
