YLL.pdb
     RDKit          3D

 29 29  0  0  1  0  0  0  0  0999 V2000
    7.0819  -13.6433   15.3272 O   0  0  0  0  0  0  0  0  0  0  0  0
    7.3644  -14.0927   16.6150 C   0  0  0  0  0  0  0  0  0  0  0  0
    7.3466  -15.4384   16.9281 C   0  0  0  0  0  0  0  0  0  0  0  0
    7.6270  -15.8792   18.2042 C   0  0  0  0  0  0  0  0  0  0  0  0
    7.9340  -15.0225   19.2174 C   0  0  0  0  0  0  0  0  0  0  0  0
    8.2431  -15.4379   20.6013 C   0  0  0  0  0  0  0  0  0  0  0  0
    9.3380  -14.5456   21.1338 C   0  0  2  0  0  0  0  0  0  0  0  0
   10.5881  -14.8951   20.4887 N   0  0  0  0  0  0  0  0  0  0  0  0
    9.5420  -14.7186   22.5906 C   0  0  0  0  0  0  0  0  0  0  0  0
   10.5994  -15.2187   23.0419 O   0  0  0  0  0  0  0  0  0  0  0  0
    7.9586  -13.6658   18.9292 C   0  0  0  0  0  0  0  0  0  0  0  0
    7.6782  -13.2181   17.6509 C   0  0  0  0  0  0  0  0  0  0  0  0
    5.5146  -12.6226   26.0046 C   0  0  0  0  0  0  0  0  0  0  0  0
    6.8201  -12.9475   25.3605 C   0  0  1  0  0  0  0  0  0  0  0  0
    7.7927  -11.8316   25.7761 C   0  0  0  0  0  0  0  0  0  0  0  0
    7.4546  -14.2236   25.7464 C   0  0  0  0  0  0  0  0  0  0  0  0
    8.5978  -14.7112   24.9375 C   0  0  2  0  0  0  0  0  0  0  0  0
    8.5497  -14.3267   23.5536 N   0  0  0  0  0  0  0  0  0  0  0  0
    8.9409  -16.1430   25.1322 C   0  0  0  0  0  0  0  0  0  0  0  0
    9.4504  -16.8340   24.1860 O   0  0  0  0  0  0  0  0  0  0  0  0
   10.1770  -14.0011   29.9023 C   0  0  0  0  0  0  0  0  0  0  0  0
   10.6785  -15.2712   29.1798 C   0  0  2  0  0  0  0  0  0  0  0  0
   12.1150  -14.9515   28.8233 C   0  0  0  0  0  0  0  0  0  0  0  0
    9.7744  -15.4468   28.0072 C   0  0  0  0  0  0  0  0  0  0  0  0
    9.7561  -16.7970   27.3791 C   0  0  2  0  0  0  0  0  0  0  0  0
    8.7308  -16.8210   26.3552 N   0  0  0  0  0  0  0  0  0  0  0  0
    9.5025  -17.9219   28.3035 C   0  0  0  0  0  0  0  0  0  0  0  0
    8.2600  -18.1449   28.9160 O   0  0  0  0  0  0  0  0  0  0  0  0
   10.3931  -18.7813   28.6210 O   0  0  0  0  0  0  0  0  0  0  0  0
  2  3  2  0
  2  1  1  0
  4  3  1  0
  5  4  2  0
  6  5  1  0
  7  6  1  0
  7  8  1  6
  9  7  1  0
  9 10  2  0
 11  5  1  0
 11 12  2  0
 12  2  1  0
 14 13  1  1
 14 15  1  0
 16 14  1  0
 17 16  1  6
 17 18  1  0
 18  9  1  0
 19 17  1  0
 19 26  1  0
 20 19  2  0
 22 21  1  1
 23 22  1  0
 24 22  1  0
 25 24  1  1
 25 26  1  0
 25 27  1  0
 27 28  1  0
 29 27  2  0
M  END
$$$$
