YLL.pdb
     RDKit          3D

 29 29  0  0  1  0  0  0  0  0999 V2000
    5.1905  -23.3315   27.0005 O   0  0  0  0  0  0  0  0  0  0  0  0
    5.5727  -22.1277   26.4131 C   0  0  0  0  0  0  0  0  0  0  0  0
    6.5673  -21.3421   26.9632 C   0  0  0  0  0  0  0  0  0  0  0  0
    6.9429  -20.1510   26.3786 C   0  0  0  0  0  0  0  0  0  0  0  0
    6.3610  -19.6865   25.2383 C   0  0  0  0  0  0  0  0  0  0  0  0
    6.7230  -18.4200   24.5687 C   0  0  0  0  0  0  0  0  0  0  0  0
    7.1761  -18.7357   23.1639 C   0  0  2  0  0  0  0  0  0  0  0  0
    7.9254  -19.9765   23.1767 N   0  0  0  0  0  0  0  0  0  0  0  0
    8.0772  -17.6940   22.6191 C   0  0  0  0  0  0  0  0  0  0  0  0
    9.2928  -17.9282   22.4204 O   0  0  0  0  0  0  0  0  0  0  0  0
    5.3594  -20.4567   24.6658 C   0  0  0  0  0  0  0  0  0  0  0  0
    4.9787  -21.6522   25.2479 C   0  0  0  0  0  0  0  0  0  0  0  0
    6.4777  -13.2085   19.4806 C   0  0  0  0  0  0  0  0  0  0  0  0
    7.1818  -14.3626   20.1108 C   0  0  1  0  0  0  0  0  0  0  0  0
    8.2682  -14.7983   19.1139 C   0  0  0  0  0  0  0  0  0  0  0  0
    7.8665  -14.1062   21.3934 C   0  0  0  0  0  0  0  0  0  0  0  0
    8.4889  -15.2531   22.0978 C   0  0  2  0  0  0  0  0  0  0  0  0
    7.6111  -16.3743   22.2928 N   0  0  0  0  0  0  0  0  0  0  0  0
    9.2607  -14.8993   23.3163 C   0  0  0  0  0  0  0  0  0  0  0  0
   10.0909  -13.9280   23.3127 O   0  0  0  0  0  0  0  0  0  0  0  0
    5.7051  -12.8994   26.4997 C   0  0  0  0  0  0  0  0  0  0  0  0
    7.1122  -13.4270   26.8581 C   0  0  2  0  0  0  0  0  0  0  0  0
    7.8970  -12.1802   27.2079 C   0  0  0  0  0  0  0  0  0  0  0  0
    7.5935  -14.1396   25.6400 C   0  0  0  0  0  0  0  0  0  0  0  0
    8.8844  -14.8716   25.7654 C   0  0  2  0  0  0  0  0  0  0  0  0
    9.1283  -15.6007   24.5369 N   0  0  0  0  0  0  0  0  0  0  0  0
    8.9617  -15.8310   26.8870 C   0  0  0  0  0  0  0  0  0  0  0  0
   10.0410  -15.8773   27.7824 O   0  0  0  0  0  0  0  0  0  0  0  0
    8.0539  -16.6962   27.1317 O   0  0  0  0  0  0  0  0  0  0  0  0
  2  3  2  0
  2  1  1  0
  4  3  1  0
  5  4  2  0
  6  5  1  0
  7  6  1  0
  7  8  1  1
  9  7  1  0
  9 10  2  0
 11  5  1  0
 11 12  2  0
 12  2  1  0
 14 13  1  6
 14 15  1  0
 16 14  1  0
 17 16  1  1
 17 18  1  0
 18  9  1  0
 19 17  1  0
 19 26  1  0
 20 19  2  0
 22 21  1  6
 23 22  1  0
 24 22  1  0
 25 24  1  6
 25 26  1  0
 25 27  1  0
 27 28  1  0
 29 27  2  0
M  END
$$$$
