IIE.pdb
     RDKit          3D

 26 25  0  0  1  0  0  0  0  0999 V2000
    7.1902  -16.5162   17.8641 C   0  0  0  0  0  0  0  0  0  0  0  0
    7.0423  -15.1960   18.5609 C   0  0  0  0  0  0  0  0  0  0  0  0
    7.6362  -15.1241   19.9295 C   0  0  2  0  0  0  0  0  0  0  0  0
    7.0804  -16.2533   20.8057 C   0  0  0  0  0  0  0  0  0  0  0  0
    7.4593  -13.8418   20.6519 C   0  0  2  0  0  0  0  0  0  0  0  0
    7.8859  -12.7059   19.8610 N   0  0  0  0  0  0  0  0  0  0  0  0
    8.0530  -13.7871   22.0180 C   0  0  0  0  0  0  0  0  0  0  0  0
    9.3018  -13.5999   22.0607 O   0  0  0  0  0  0  0  0  0  0  0  0
    5.6511  -11.2970   26.1938 C   0  0  0  0  0  0  0  0  0  0  0  0
    6.7340  -11.8351   25.2469 C   0  0  0  0  0  0  0  0  0  0  0  0
    6.9865  -13.2972   25.5100 C   0  0  2  0  0  0  0  0  0  0  0  0
    7.3454  -13.4334   26.9599 C   0  0  0  0  0  0  0  0  0  0  0  0
    7.7949  -14.0148   24.5249 C   0  0  2  0  0  0  0  0  0  0  0  0
    7.2579  -13.9357   23.1719 N   0  0  0  0  0  0  0  0  0  0  0  0
    8.2481  -15.3827   24.7695 C   0  0  0  0  0  0  0  0  0  0  0  0
    7.4032  -16.3142   24.6564 O   0  0  0  0  0  0  0  0  0  0  0  0
    9.5535  -15.8010   25.1236 N   0  0  0  0  0  0  0  0  0  0  0  0
    9.8019  -17.2501   25.2409 C   0  0  1  0  0  0  0  0  0  0  0  0
   10.8988  -17.6222   24.2414 C   0  0  0  0  0  0  0  0  0  0  0  0
   11.9425  -18.5303   24.8440 C   0  0  0  0  0  0  0  0  0  0  0  0
   13.2421  -18.1011   24.2786 C   0  0  0  0  0  0  0  0  0  0  0  0
   14.2556  -18.0812   24.9985 O   0  0  0  0  0  0  0  0  0  0  0  0
   10.1680  -17.5385   26.6382 C   0  0  0  0  0  0  0  0  0  0  0  0
   10.2381  -18.7954   27.2062 O   0  0  0  0  0  0  0  0  0  0  0  0
   13.3187  -17.7225   22.9552 O   0  0  0  0  0  0  0  0  0  0  0  0
   10.4493  -16.5741   27.4203 O   0  0  0  0  0  0  0  0  0  0  0  0
  2  1  1  0
  3  2  1  0
  3  4  1  1
  5  3  1  0
  5  6  1  6
  7  5  1  0
  8  7  2  0
  9 10  1  0
 10 11  1  0
 11 13  1  0
 11 12  1  1
 13 14  1  6
 14  7  1  0
 15 17  1  0
 15 13  1  0
 16 15  2  0
 18 23  1  0
 18 17  1  0
 18 19  1  6
 19 20  1  0
 20 21  1  0
 21 22  2  0
 23 24  1  0
 25 21  1  0
 26 23  2  0
M  END
$$$$
