IIE.pdb
     RDKit          3D

 26 25  0  0  1  0  0  0  0  0999 V2000
    6.5744  -17.0188   18.3308 C   0  0  0  0  0  0  0  0  0  0  0  0
    6.5820  -15.6772   19.0021 C   0  0  0  0  0  0  0  0  0  0  0  0
    7.3188  -15.6145   20.2998 C   0  0  2  0  0  0  0  0  0  0  0  0
    6.8255  -16.7206   21.2405 C   0  0  0  0  0  0  0  0  0  0  0  0
    7.2572  -14.3228   21.0245 C   0  0  2  0  0  0  0  0  0  0  0  0
    7.6190  -13.2042   20.1785 N   0  0  0  0  0  0  0  0  0  0  0  0
    8.0037  -14.2734   22.3136 C   0  0  0  0  0  0  0  0  0  0  0  0
    9.2465  -14.0684   22.2143 O   0  0  0  0  0  0  0  0  0  0  0  0
    5.8555  -11.7351   26.6063 C   0  0  0  0  0  0  0  0  0  0  0  0
    6.8609  -12.2508   25.5662 C   0  0  0  0  0  0  0  0  0  0  0  0
    7.2416  -13.6785   25.8622 C   0  0  2  0  0  0  0  0  0  0  0  0
    7.7231  -13.7258   27.2819 C   0  0  0  0  0  0  0  0  0  0  0  0
    8.0208  -14.3786   24.8417 C   0  0  2  0  0  0  0  0  0  0  0  0
    7.3492  -14.4452   23.5496 N   0  0  0  0  0  0  0  0  0  0  0  0
    8.6364  -15.6755   25.1168 C   0  0  0  0  0  0  0  0  0  0  0  0
    7.8816  -16.6856   25.1833 O   0  0  0  0  0  0  0  0  0  0  0  0
   10.0116  -15.9438   25.3197 N   0  0  0  0  0  0  0  0  0  0  0  0
   10.4085  -17.3420   25.5708 C   0  0  1  0  0  0  0  0  0  0  0  0
   11.7506  -17.5825   24.8767 C   0  0  0  0  0  0  0  0  0  0  0  0
   12.3148  -18.9503   25.1731 C   0  0  0  0  0  0  0  0  0  0  0  0
   13.5954  -19.0395   24.4350 C   0  0  0  0  0  0  0  0  0  0  0  0
   13.8694  -20.0665   23.7899 O   0  0  0  0  0  0  0  0  0  0  0  0
   10.4645  -17.5455   27.0286 C   0  0  0  0  0  0  0  0  0  0  0  0
   10.5156  -16.5432   27.9772 O   0  0  0  0  0  0  0  0  0  0  0  0
   14.4788  -17.9817   24.4710 O   0  0  0  0  0  0  0  0  0  0  0  0
   10.4691  -18.7312   27.4923 O   0  0  0  0  0  0  0  0  0  0  0  0
  2  1  1  0
  3  2  1  0
  3  4  1  1
  5  3  1  0
  5  6  1  6
  7  5  1  0
  8  7  2  0
  9 10  1  0
 10 11  1  0
 11 13  1  0
 11 12  1  1
 13 14  1  6
 14  7  1  0
 15 17  1  0
 15 13  1  0
 16 15  2  0
 18 23  1  0
 18 17  1  0
 18 19  1  1
 19 20  1  0
 20 21  1  0
 21 22  2  0
 23 24  1  0
 25 21  1  0
 26 23  2  0
M  END
$$$$
