IIE.pdb
     RDKit          3D

 26 25  0  0  1  0  0  0  0  0999 V2000
    7.0681  -10.7969   27.6438 C   0  0  0  0  0  0  0  0  0  0  0  0
    6.2651  -11.7458   26.8041 C   0  0  0  0  0  0  0  0  0  0  0  0
    7.0501  -12.8150   26.1173 C   0  0  2  0  0  0  0  0  0  0  0  0
    8.1583  -12.1887   25.2620 C   0  0  0  0  0  0  0  0  0  0  0  0
    6.2757  -13.7502   25.2671 C   0  0  2  0  0  0  0  0  0  0  0  0
    5.2521  -14.4494   26.0163 N   0  0  0  0  0  0  0  0  0  0  0  0
    7.0864  -14.7066   24.4610 C   0  0  0  0  0  0  0  0  0  0  0  0
    7.1329  -15.8885   24.9052 O   0  0  0  0  0  0  0  0  0  0  0  0
    7.8893  -12.8681   19.5986 C   0  0  0  0  0  0  0  0  0  0  0  0
    7.5375  -14.1487   20.3699 C   0  0  0  0  0  0  0  0  0  0  0  0
    8.7484  -14.6791   21.0932 C   0  0  2  0  0  0  0  0  0  0  0  0
    9.5122  -15.5273   20.1202 C   0  0  0  0  0  0  0  0  0  0  0  0
    8.5360  -15.1945   22.4452 C   0  0  2  0  0  0  0  0  0  0  0  0
    7.7482  -14.3006   23.2850 N   0  0  0  0  0  0  0  0  0  0  0  0
    9.6452  -15.7237   23.2364 C   0  0  0  0  0  0  0  0  0  0  0  0
   10.4841  -14.9024   23.7012 O   0  0  0  0  0  0  0  0  0  0  0  0
    9.8978  -17.0797   23.5558 N   0  0  0  0  0  0  0  0  0  0  0  0
   11.0687  -17.3793   24.4013 C   0  0  1  0  0  0  0  0  0  0  0  0
   10.7567  -18.6416   25.2075 C   0  0  0  0  0  0  0  0  0  0  0  0
   11.9571  -19.1506   25.9671 C   0  0  0  0  0  0  0  0  0  0  0  0
   11.4493  -19.6278   27.2737 C   0  0  0  0  0  0  0  0  0  0  0  0
   11.5953  -18.9262   28.2897 O   0  0  0  0  0  0  0  0  0  0  0  0
   12.2407  -17.5276   23.5214 C   0  0  0  0  0  0  0  0  0  0  0  0
   13.5466  -17.2444   23.8701 O   0  0  0  0  0  0  0  0  0  0  0  0
   10.8196  -20.8515   27.3552 O   0  0  0  0  0  0  0  0  0  0  0  0
   12.0767  -17.9486   22.3312 O   0  0  0  0  0  0  0  0  0  0  0  0
  2  1  1  0
  3  2  1  0
  3  4  1  6
  5  3  1  0
  5  6  1  1
  7  5  1  0
  8  7  2  0
  9 10  1  0
 10 11  1  0
 11 13  1  0
 11 12  1  6
 13 14  1  1
 14  7  1  0
 15 17  1  0
 15 13  1  0
 16 15  2  0
 18 23  1  0
 18 17  1  0
 18 19  1  6
 19 20  1  0
 20 21  1  0
 21 22  2  0
 23 24  1  0
 25 21  1  0
 26 23  2  0
M  END
$$$$
