IIE.pdb
     RDKit          3D

 26 25  0  0  1  0  0  0  0  0999 V2000
    5.7179  -18.0870   19.3108 C   0  0  0  0  0  0  0  0  0  0  0  0
    5.8967  -16.6344   19.6401 C   0  0  0  0  0  0  0  0  0  0  0  0
    6.7636  -16.3477   20.8222 C   0  0  2  0  0  0  0  0  0  0  0  0
    6.2627  -17.1260   22.0449 C   0  0  0  0  0  0  0  0  0  0  0  0
    6.9015  -14.9211   21.2006 C   0  0  2  0  0  0  0  0  0  0  0  0
    7.3661  -14.1058   20.0972 N   0  0  0  0  0  0  0  0  0  0  0  0
    7.7054  -14.6570   22.4277 C   0  0  0  0  0  0  0  0  0  0  0  0
    8.9583  -14.6449   22.2644 O   0  0  0  0  0  0  0  0  0  0  0  0
    5.9068  -11.1855   26.2173 C   0  0  0  0  0  0  0  0  0  0  0  0
    6.8058  -11.9606   25.2427 C   0  0  0  0  0  0  0  0  0  0  0  0
    7.1932  -13.2940   25.8282 C   0  0  2  0  0  0  0  0  0  0  0  0
    7.8487  -13.0262   27.1504 C   0  0  0  0  0  0  0  0  0  0  0  0
    7.8240  -14.2538   24.9229 C   0  0  2  0  0  0  0  0  0  0  0  0
    7.0907  -14.4373   23.6764 N   0  0  0  0  0  0  0  0  0  0  0  0
    8.2730  -15.5608   25.3988 C   0  0  0  0  0  0  0  0  0  0  0  0
    7.4003  -16.4551   25.5806 O   0  0  0  0  0  0  0  0  0  0  0  0
    9.6018  -15.9570   25.6847 N   0  0  0  0  0  0  0  0  0  0  0  0
    9.8275  -17.3545   26.0986 C   0  0  1  0  0  0  0  0  0  0  0  0
   10.7699  -18.0006   25.0811 C   0  0  0  0  0  0  0  0  0  0  0  0
   12.1625  -17.4225   25.1386 C   0  0  0  0  0  0  0  0  0  0  0  0
   12.7995  -17.7451   23.8412 C   0  0  0  0  0  0  0  0  0  0  0  0
   12.6253  -16.9989   22.8621 O   0  0  0  0  0  0  0  0  0  0  0  0
   10.3715  -17.3427   27.4674 C   0  0  0  0  0  0  0  0  0  0  0  0
   10.6213  -18.4590   28.2411 O   0  0  0  0  0  0  0  0  0  0  0  0
   13.5804  -18.8754   23.7270 O   0  0  0  0  0  0  0  0  0  0  0  0
   10.6464  -16.2286   28.0188 O   0  0  0  0  0  0  0  0  0  0  0  0
  2  1  1  0
  3  2  1  0
  3  4  1  1
  5  3  1  0
  5  6  1  6
  7  5  1  0
  8  7  2  0
  9 10  1  0
 10 11  1  0
 11 13  1  0
 11 12  1  1
 13 14  1  6
 14  7  1  0
 15 17  1  0
 15 13  1  0
 16 15  2  0
 18 23  1  0
 18 17  1  0
 18 19  1  6
 19 20  1  0
 20 21  1  0
 21 22  2  0
 23 24  1  0
 25 21  1  0
 26 23  2  0
M  END
$$$$
