IIE.pdb
     RDKit          3D

 26 25  0  0  1  0  0  0  0  0999 V2000
    6.4103  -18.1613   19.0782 C   0  0  0  0  0  0  0  0  0  0  0  0
    6.4876  -16.6903   19.3619 C   0  0  0  0  0  0  0  0  0  0  0  0
    7.2836  -16.3115   20.5677 C   0  0  2  0  0  0  0  0  0  0  0  0
    6.8156  -17.1199   21.7840 C   0  0  0  0  0  0  0  0  0  0  0  0
    7.2759  -14.8743   20.9307 C   0  0  2  0  0  0  0  0  0  0  0  0
    7.7325  -14.0338   19.8431 N   0  0  0  0  0  0  0  0  0  0  0  0
    7.9806  -14.5281   22.1977 C   0  0  0  0  0  0  0  0  0  0  0  0
    9.2420  -14.5026   22.1283 O   0  0  0  0  0  0  0  0  0  0  0  0
    6.9450  -11.6282   27.5460 C   0  0  0  0  0  0  0  0  0  0  0  0
    7.7156  -12.7765   26.8780 C   0  0  0  0  0  0  0  0  0  0  0  0
    7.1514  -13.0663   25.5111 C   0  0  2  0  0  0  0  0  0  0  0  0
    5.6773  -13.2888   25.6757 C   0  0  0  0  0  0  0  0  0  0  0  0
    7.9038  -13.9968   24.6705 C   0  0  2  0  0  0  0  0  0  0  0  0
    7.2700  -14.2504   23.3823 N   0  0  0  0  0  0  0  0  0  0  0  0
    8.4046  -15.2625   25.2030 C   0  0  0  0  0  0  0  0  0  0  0  0
    7.5928  -16.2245   25.3018 O   0  0  0  0  0  0  0  0  0  0  0  0
    9.7240  -15.5489   25.6293 N   0  0  0  0  0  0  0  0  0  0  0  0
   10.0227  -16.9281   26.0583 C   0  0  1  0  0  0  0  0  0  0  0  0
   11.0738  -17.5005   25.1053 C   0  0  0  0  0  0  0  0  0  0  0  0
   12.4360  -16.8860   25.3149 C   0  0  0  0  0  0  0  0  0  0  0  0
   13.2041  -17.1476   24.0762 C   0  0  0  0  0  0  0  0  0  0  0  0
   13.3677  -18.3157   23.6828 O   0  0  0  0  0  0  0  0  0  0  0  0
   10.4737  -16.8823   27.4598 C   0  0  0  0  0  0  0  0  0  0  0  0
   10.5960  -15.7402   28.2264 O   0  0  0  0  0  0  0  0  0  0  0  0
   13.7365  -16.0917   23.3677 O   0  0  0  0  0  0  0  0  0  0  0  0
   10.7876  -17.9665   28.0489 O   0  0  0  0  0  0  0  0  0  0  0  0
  2  1  1  0
  3  2  1  0
  3  4  1  1
  5  3  1  0
  5  6  1  6
  7  5  1  0
  8  7  2  0
  9 10  1  0
 10 11  1  0
 11 13  1  0
 11 12  1  1
 13 14  1  6
 14  7  1  0
 15 17  1  0
 15 13  1  0
 16 15  2  0
 18 23  1  0
 18 17  1  0
 18 19  1  6
 19 20  1  0
 20 21  1  0
 21 22  2  0
 23 24  1  0
 25 21  1  0
 26 23  2  0
M  END
$$$$
