DYN.pdb
     RDKit          3D

 29 29  0  0  1  0  0  0  0  0999 V2000
    8.7432  -17.8631   20.3637 N   0  0  0  0  0  0  0  0  0  0  0  0
    9.9661  -17.1132   20.4006 C   0  0  1  0  0  0  0  0  0  0  0  0
   10.2624  -16.3855   19.1113 C   0  0  0  0  0  0  0  0  0  0  0  0
   10.3263  -17.3873   18.0344 C   0  0  0  0  0  0  0  0  0  0  0  0
   10.5971  -18.5709   18.3052 O   0  0  0  0  0  0  0  0  0  0  0  0
    9.9381  -16.2002   21.5745 C   0  0  0  0  0  0  0  0  0  0  0  0
   10.9368  -15.4491   21.8340 O   0  0  0  0  0  0  0  0  0  0  0  0
   10.0875  -17.0164   16.7336 O   0  0  0  0  0  0  0  0  0  0  0  0
    5.9812  -11.2457   27.9212 O   0  0  0  0  0  0  0  0  0  0  0  0
    6.3645  -12.0759   26.8586 C   0  0  0  0  0  0  0  0  0  0  0  0
    7.2238  -11.6366   25.8790 C   0  0  0  0  0  0  0  0  0  0  0  0
    7.5741  -12.4994   24.8443 C   0  0  0  0  0  0  0  0  0  0  0  0
    7.0849  -13.7845   24.7708 C   0  0  0  0  0  0  0  0  0  0  0  0
    7.4377  -14.6671   23.6764 C   0  0  0  0  0  0  0  0  0  0  0  0
    8.8305  -15.1832   23.6137 C   0  0  2  0  0  0  0  0  0  0  0  0
    8.8432  -16.1049   22.4519 N   0  0  0  0  0  0  0  0  0  0  0  0
    9.3008  -15.9454   24.7772 C   0  0  0  0  0  0  0  0  0  0  0  0
    9.4744  -15.3371   25.8895 O   0  0  0  0  0  0  0  0  0  0  0  0
    6.2272  -14.2011   25.7620 C   0  0  0  0  0  0  0  0  0  0  0  0
    5.8756  -13.3522   26.7901 C   0  0  0  0  0  0  0  0  0  0  0  0
    6.9922  -19.5200   24.7961 N   0  0  0  0  0  0  0  0  0  0  0  0
    7.6990  -19.1101   25.9530 C   0  0  0  0  0  0  0  0  0  0  0  0
    7.0584  -18.5392   26.8758 O   0  0  0  0  0  0  0  0  0  0  0  0
    9.1432  -19.3191   26.1275 C   0  0  0  0  0  0  0  0  0  0  0  0
    9.9078  -18.0117   26.0150 C   0  0  2  0  0  0  0  0  0  0  0  0
    9.5861  -17.3328   24.7891 N   0  0  0  0  0  0  0  0  0  0  0  0
   11.3411  -18.3156   26.1924 C   0  0  0  0  0  0  0  0  0  0  0  0
   12.1213  -17.9899   25.2633 O   0  0  0  0  0  0  0  0  0  0  0  0
   11.8936  -18.9299   27.2997 O   0  0  0  0  0  0  0  0  0  0  0  0
  2  1  1  6
  3  4  1  0
  3  2  1  0
  4  8  1  0
  5  4  2  0
  6  2  1  0
  7  6  2  0
  9 10  1  0
 10 20  2  0
 10 11  1  0
 11 12  2  0
 12 13  1  0
 13 14  1  0
 15 14  1  1
 15 16  1  0
 15 17  1  0
 16  6  1  0
 17 26  1  0
 18 17  2  0
 19 13  2  0
 20 19  1  0
 22 21  1  0
 22 24  1  0
 23 22  2  0
 25 24  1  6
 25 27  1  0
 26 25  1  0
 27 29  1  0
 28 27  2  0
M  END
$$$$
