DYN.pdb
     RDKit          3D

 29 29  0  0  1  0  0  0  0  0999 V2000
    9.6587  -18.1580   21.0722 N   0  0  0  0  0  0  0  0  0  0  0  0
   10.7942  -17.3933   21.5022 C   0  0  1  0  0  0  0  0  0  0  0  0
   11.4481  -16.6123   20.3877 C   0  0  0  0  0  0  0  0  0  0  0  0
   12.0750  -17.5779   19.4703 C   0  0  0  0  0  0  0  0  0  0  0  0
   11.6861  -17.6540   18.2911 O   0  0  0  0  0  0  0  0  0  0  0  0
   10.3900  -16.5268   22.6417 C   0  0  0  0  0  0  0  0  0  0  0  0
   11.2563  -15.8173   23.2540 O   0  0  0  0  0  0  0  0  0  0  0  0
   13.0872  -18.3932   19.9148 O   0  0  0  0  0  0  0  0  0  0  0  0
    7.7096  -12.7876   18.3499 O   0  0  0  0  0  0  0  0  0  0  0  0
    7.6545  -13.2620   19.6680 C   0  0  0  0  0  0  0  0  0  0  0  0
    8.2473  -12.5767   20.7023 C   0  0  0  0  0  0  0  0  0  0  0  0
    8.1646  -13.0893   21.9939 C   0  0  0  0  0  0  0  0  0  0  0  0
    7.5049  -14.2664   22.2692 C   0  0  0  0  0  0  0  0  0  0  0  0
    7.4446  -14.8034   23.6142 C   0  0  0  0  0  0  0  0  0  0  0  0
    8.6579  -15.4684   24.1580 C   0  0  2  0  0  0  0  0  0  0  0  0
    9.0666  -16.4328   23.1081 N   0  0  0  0  0  0  0  0  0  0  0  0
    8.4875  -16.2286   25.4025 C   0  0  0  0  0  0  0  0  0  0  0  0
    8.0568  -15.6249   26.4452 O   0  0  0  0  0  0  0  0  0  0  0  0
    6.9200  -14.9337   21.2183 C   0  0  0  0  0  0  0  0  0  0  0  0
    6.9977  -14.4321   19.9363 C   0  0  0  0  0  0  0  0  0  0  0  0
    6.8280  -20.1539   24.6619 N   0  0  0  0  0  0  0  0  0  0  0  0
    6.8807  -19.6053   25.9667 C   0  0  0  0  0  0  0  0  0  0  0  0
    5.8340  -19.0904   26.4430 O   0  0  0  0  0  0  0  0  0  0  0  0
    8.0980  -19.6083   26.7901 C   0  0  0  0  0  0  0  0  0  0  0  0
    8.7180  -18.2239   26.8641 C   0  0  2  0  0  0  0  0  0  0  0  0
    8.7583  -17.6094   25.5648 N   0  0  0  0  0  0  0  0  0  0  0  0
   10.0319  -18.3572   27.5228 C   0  0  0  0  0  0  0  0  0  0  0  0
   10.0525  -18.8456   28.6799 O   0  0  0  0  0  0  0  0  0  0  0  0
   11.2420  -17.9879   26.9676 O   0  0  0  0  0  0  0  0  0  0  0  0
  2  1  1  6
  3  4  1  0
  3  2  1  0
  4  8  1  0
  5  4  2  0
  6  2  1  0
  7  6  2  0
  9 10  1  0
 10 20  2  0
 10 11  1  0
 11 12  2  0
 12 13  1  0
 13 14  1  0
 15 14  1  6
 15 16  1  0
 15 17  1  0
 16  6  1  0
 17 26  1  0
 18 17  2  0
 19 13  2  0
 20 19  1  0
 22 21  1  0
 22 24  1  0
 23 22  2  0
 25 24  1  6
 25 27  1  0
 26 25  1  0
 27 29  1  0
 28 27  2  0
M  END
$$$$
