DYN.pdb
     RDKit          3D

 29 29  0  0  1  0  0  0  0  0999 V2000
    8.8803  -18.3349   20.7094 N   0  0  0  0  0  0  0  0  0  0  0  0
   10.1181  -17.6293   20.8800 C   0  0  1  0  0  0  0  0  0  0  0  0
   10.5524  -16.8735   19.6472 C   0  0  0  0  0  0  0  0  0  0  0  0
   10.8013  -17.8579   18.5812 C   0  0  0  0  0  0  0  0  0  0  0  0
   11.0505  -19.0404   18.8763 O   0  0  0  0  0  0  0  0  0  0  0  0
   10.0134  -16.7520   22.0766 C   0  0  0  0  0  0  0  0  0  0  0  0
   11.0352  -16.1194   22.5064 O   0  0  0  0  0  0  0  0  0  0  0  0
   10.7584  -17.4720   17.2637 O   0  0  0  0  0  0  0  0  0  0  0  0
    7.2195  -12.6261   18.3664 O   0  0  0  0  0  0  0  0  0  0  0  0
    7.3071  -13.1325   19.6707 C   0  0  0  0  0  0  0  0  0  0  0  0
    8.0697  -12.5114   20.6316 C   0  0  0  0  0  0  0  0  0  0  0  0
    8.1242  -13.0536   21.9125 C   0  0  0  0  0  0  0  0  0  0  0  0
    7.4353  -14.1977   22.2487 C   0  0  0  0  0  0  0  0  0  0  0  0
    7.5174  -14.7671   23.5792 C   0  0  0  0  0  0  0  0  0  0  0  0
    8.7035  -15.5987   23.9133 C   0  0  2  0  0  0  0  0  0  0  0  0
    8.8186  -16.5650   22.7942 N   0  0  0  0  0  0  0  0  0  0  0  0
    8.6290  -16.3794   25.1546 C   0  0  0  0  0  0  0  0  0  0  0  0
    8.3492  -15.7797   26.2498 O   0  0  0  0  0  0  0  0  0  0  0  0
    6.6794  -14.8010   21.2708 C   0  0  0  0  0  0  0  0  0  0  0  0
    6.6205  -14.2697   19.9997 C   0  0  0  0  0  0  0  0  0  0  0  0
    7.0463  -19.5310   28.9267 N   0  0  0  0  0  0  0  0  0  0  0  0
    7.3292  -20.1702   27.6948 C   0  0  0  0  0  0  0  0  0  0  0  0
    7.4405  -21.4253   27.6825 O   0  0  0  0  0  0  0  0  0  0  0  0
    7.4991  -19.4388   26.4314 C   0  0  0  0  0  0  0  0  0  0  0  0
    8.6573  -18.4597   26.5117 C   0  0  2  0  0  0  0  0  0  0  0  0
    8.8393  -17.7762   25.2599 N   0  0  0  0  0  0  0  0  0  0  0  0
    9.8405  -19.2050   26.9836 C   0  0  0  0  0  0  0  0  0  0  0  0
   10.5169  -18.6917   27.9093 O   0  0  0  0  0  0  0  0  0  0  0  0
   10.2636  -20.4234   26.4883 O   0  0  0  0  0  0  0  0  0  0  0  0
  2  1  1  6
  3  4  1  0
  3  2  1  0
  4  8  1  0
  5  4  2  0
  6  2  1  0
  7  6  2  0
  9 10  1  0
 10 20  2  0
 10 11  1  0
 11 12  2  0
 12 13  1  0
 13 14  1  0
 15 14  1  6
 15 16  1  0
 15 17  1  0
 16  6  1  0
 17 26  1  0
 18 17  2  0
 19 13  2  0
 20 19  1  0
 22 21  1  0
 22 24  1  0
 23 22  2  0
 25 24  1  6
 25 27  1  0
 26 25  1  0
 27 29  1  0
 28 27  2  0
M  END
$$$$
