DYN.pdb
     RDKit          3D

 29 29  0  0  1  0  0  0  0  0999 V2000
    8.5253  -17.8553   19.5883 N   0  0  0  0  0  0  0  0  0  0  0  0
    9.8963  -17.5457   19.8776 C   0  0  1  0  0  0  0  0  0  0  0  0
   10.6665  -17.0534   18.6758 C   0  0  0  0  0  0  0  0  0  0  0  0
   10.6360  -18.1155   17.6568 C   0  0  0  0  0  0  0  0  0  0  0  0
   10.5134  -19.3036   18.0044 O   0  0  0  0  0  0  0  0  0  0  0  0
    9.9461  -16.5885   21.0151 C   0  0  0  0  0  0  0  0  0  0  0  0
   11.0445  -16.0250   21.3388 O   0  0  0  0  0  0  0  0  0  0  0  0
   10.7426  -17.7957   16.3252 O   0  0  0  0  0  0  0  0  0  0  0  0
    6.7498  -11.6053   27.7488 O   0  0  0  0  0  0  0  0  0  0  0  0
    6.9474  -12.3938   26.6066 C   0  0  0  0  0  0  0  0  0  0  0  0
    6.2825  -13.5849   26.4334 C   0  0  0  0  0  0  0  0  0  0  0  0
    6.5131  -14.3316   25.2815 C   0  0  0  0  0  0  0  0  0  0  0  0
    7.3903  -13.9129   24.3059 C   0  0  0  0  0  0  0  0  0  0  0  0
    7.6407  -14.7095   23.1210 C   0  0  0  0  0  0  0  0  0  0  0  0
    8.9222  -15.4587   23.0385 C   0  0  2  0  0  0  0  0  0  0  0  0
    8.8212  -16.2493   21.7879 N   0  0  0  0  0  0  0  0  0  0  0  0
    9.2013  -16.4033   24.1274 C   0  0  0  0  0  0  0  0  0  0  0  0
    8.2451  -17.1150   24.5927 O   0  0  0  0  0  0  0  0  0  0  0  0
    8.0434  -12.7184   24.5016 C   0  0  0  0  0  0  0  0  0  0  0  0
    7.8200  -11.9732   25.6400 C   0  0  0  0  0  0  0  0  0  0  0  0
   11.8175  -18.6729   23.6741 N   0  0  0  0  0  0  0  0  0  0  0  0
   12.5867  -18.4914   24.8495 C   0  0  0  0  0  0  0  0  0  0  0  0
   13.7888  -18.8691   24.8433 O   0  0  0  0  0  0  0  0  0  0  0  0
   12.0488  -17.8841   26.0749 C   0  0  0  0  0  0  0  0  0  0  0  0
   10.6053  -17.4506   25.8887 C   0  0  2  0  0  0  0  0  0  0  0  0
   10.4665  -16.6125   24.7287 N   0  0  0  0  0  0  0  0  0  0  0  0
   10.1578  -16.8323   27.1518 C   0  0  0  0  0  0  0  0  0  0  0  0
    8.9475  -16.9606   27.4624 O   0  0  0  0  0  0  0  0  0  0  0  0
   10.9648  -16.1234   28.0208 O   0  0  0  0  0  0  0  0  0  0  0  0
  2  1  1  6
  3  4  1  0
  3  2  1  0
  4  8  1  0
  5  4  2  0
  6  2  1  0
  7  6  2  0
  9 10  1  0
 10 20  2  0
 10 11  1  0
 11 12  2  0
 12 13  1  0
 13 14  1  0
 15 14  1  1
 15 16  1  0
 15 17  1  0
 16  6  1  0
 17 26  1  0
 18 17  2  0
 19 13  2  0
 20 19  1  0
 22 21  1  0
 22 24  1  0
 23 22  2  0
 25 24  1  1
 25 27  1  0
 26 25  1  0
 27 29  1  0
 28 27  2  0
M  END
$$$$
