DYN.pdb
     RDKit          3D

 29 29  0  0  1  0  0  0  0  0999 V2000
    7.8961  -17.2783   19.0219 N   0  0  0  0  0  0  0  0  0  0  0  0
    9.2957  -17.1092   19.2900 C   0  0  1  0  0  0  0  0  0  0  0  0
   10.0741  -16.5862   18.1067 C   0  0  0  0  0  0  0  0  0  0  0  0
    9.8650  -17.5163   16.9849 C   0  0  0  0  0  0  0  0  0  0  0  0
   10.5016  -18.5842   16.9391 O   0  0  0  0  0  0  0  0  0  0  0  0
    9.4568  -16.2560   20.4978 C   0  0  0  0  0  0  0  0  0  0  0  0
   10.6065  -15.8094   20.8256 O   0  0  0  0  0  0  0  0  0  0  0  0
    8.9692  -17.2063   15.9909 O   0  0  0  0  0  0  0  0  0  0  0  0
    6.5295  -12.0118   27.8669 O   0  0  0  0  0  0  0  0  0  0  0  0
    6.7027  -12.6346   26.6229 C   0  0  0  0  0  0  0  0  0  0  0  0
    6.2344  -13.9055   26.3856 C   0  0  0  0  0  0  0  0  0  0  0  0
    6.4314  -14.4804   25.1333 C   0  0  0  0  0  0  0  0  0  0  0  0
    7.0836  -13.8132   24.1203 C   0  0  0  0  0  0  0  0  0  0  0  0
    7.3041  -14.4300   22.8273 C   0  0  0  0  0  0  0  0  0  0  0  0
    8.5832  -15.1543   22.6055 C   0  0  2  0  0  0  0  0  0  0  0  0
    8.3867  -15.8942   21.3353 N   0  0  0  0  0  0  0  0  0  0  0  0
    8.9655  -16.1384   23.6259 C   0  0  0  0  0  0  0  0  0  0  0  0
    8.3145  -17.2372   23.7040 O   0  0  0  0  0  0  0  0  0  0  0  0
    7.5429  -12.5434   24.3816 C   0  0  0  0  0  0  0  0  0  0  0  0
    7.3514  -11.9673   25.6196 C   0  0  0  0  0  0  0  0  0  0  0  0
   12.8520  -17.5945   22.9777 N   0  0  0  0  0  0  0  0  0  0  0  0
   11.9636  -18.1136   23.9511 C   0  0  0  0  0  0  0  0  0  0  0  0
   11.2975  -19.1443   23.6655 O   0  0  0  0  0  0  0  0  0  0  0  0
   11.7824  -17.5068   25.2773 C   0  0  0  0  0  0  0  0  0  0  0  0
   10.3516  -17.0395   25.4798 C   0  0  2  0  0  0  0  0  0  0  0  0
   10.0204  -15.9862   24.5588 N   0  0  0  0  0  0  0  0  0  0  0  0
   10.1950  -16.6839   26.9036 C   0  0  0  0  0  0  0  0  0  0  0  0
   10.0323  -15.4700   27.1827 O   0  0  0  0  0  0  0  0  0  0  0  0
   10.2125  -17.5804   27.9547 O   0  0  0  0  0  0  0  0  0  0  0  0
  2  1  1  6
  3  4  1  0
  3  2  1  0
  4  8  1  0
  5  4  2  0
  6  2  1  0
  7  6  2  0
  9 10  1  0
 10 20  2  0
 10 11  1  0
 11 12  2  0
 12 13  1  0
 13 14  1  0
 15 14  1  1
 15 16  1  0
 15 17  1  0
 16  6  1  0
 17 26  1  0
 18 17  2  0
 19 13  2  0
 20 19  1  0
 22 21  1  0
 22 24  1  0
 23 22  2  0
 25 24  1  1
 25 27  1  0
 26 25  1  0
 27 29  1  0
 28 27  2  0
M  END
$$$$
