DYN.pdb
     RDKit          3D

 29 29  0  0  1  0  0  0  0  0999 V2000
    9.7921  -18.3410   20.6944 N   0  0  0  0  0  0  0  0  0  0  0  0
   10.7879  -17.3144   20.8113 C   0  0  1  0  0  0  0  0  0  0  0  0
   11.2106  -16.7349   19.4827 C   0  0  0  0  0  0  0  0  0  0  0  0
   12.1254  -17.6955   18.8442 C   0  0  0  0  0  0  0  0  0  0  0  0
   12.4518  -18.7339   19.4465 O   0  0  0  0  0  0  0  0  0  0  0  0
   10.3007  -16.2736   21.7557 C   0  0  0  0  0  0  0  0  0  0  0  0
   11.0820  -15.3479   22.1575 O   0  0  0  0  0  0  0  0  0  0  0  0
   12.6176  -17.4462   17.5863 O   0  0  0  0  0  0  0  0  0  0  0  0
    7.8967  -12.6837   17.2179 O   0  0  0  0  0  0  0  0  0  0  0  0
    7.7480  -13.1838   18.5191 C   0  0  0  0  0  0  0  0  0  0  0  0
    7.1734  -14.4107   18.7547 C   0  0  0  0  0  0  0  0  0  0  0  0
    7.0483  -14.8630   20.0652 C   0  0  0  0  0  0  0  0  0  0  0  0
    7.4838  -14.1169   21.1377 C   0  0  0  0  0  0  0  0  0  0  0  0
    7.3276  -14.5871   22.4999 C   0  0  0  0  0  0  0  0  0  0  0  0
    8.5115  -15.1790   23.1769 C   0  0  2  0  0  0  0  0  0  0  0  0
    8.9866  -16.2393   22.2552 N   0  0  0  0  0  0  0  0  0  0  0  0
    8.2738  -15.8118   24.4802 C   0  0  0  0  0  0  0  0  0  0  0  0
    7.7418  -15.1223   25.4178 O   0  0  0  0  0  0  0  0  0  0  0  0
    8.0551  -12.8933   20.8769 C   0  0  0  0  0  0  0  0  0  0  0  0
    8.1824  -12.4385   19.5815 C   0  0  0  0  0  0  0  0  0  0  0  0
    6.6952  -19.5966   23.8090 N   0  0  0  0  0  0  0  0  0  0  0  0
    6.5376  -18.8766   25.0186 C   0  0  0  0  0  0  0  0  0  0  0  0
    5.5063  -18.1673   25.1637 O   0  0  0  0  0  0  0  0  0  0  0  0
    7.5197  -18.9179   26.1111 C   0  0  0  0  0  0  0  0  0  0  0  0
    8.3679  -17.6585   26.1389 C   0  0  2  0  0  0  0  0  0  0  0  0
    8.5822  -17.1545   24.8095 N   0  0  0  0  0  0  0  0  0  0  0  0
    9.6024  -17.9676   26.8863 C   0  0  0  0  0  0  0  0  0  0  0  0
    9.4765  -18.3953   28.0606 O   0  0  0  0  0  0  0  0  0  0  0  0
   10.8864  -17.8244   26.3968 O   0  0  0  0  0  0  0  0  0  0  0  0
  2  1  1  6
  3  4  1  0
  3  2  1  0
  4  8  1  0
  5  4  2  0
  6  2  1  0
  7  6  2  0
  9 10  1  0
 10 20  2  0
 10 11  1  0
 11 12  2  0
 12 13  1  0
 13 14  1  0
 15 14  1  6
 15 16  1  0
 15 17  1  0
 16  6  1  0
 17 26  1  0
 18 17  2  0
 19 13  2  0
 20 19  1  0
 22 21  1  0
 22 24  1  0
 23 22  2  0
 25 24  1  6
 25 27  1  0
 26 25  1  0
 27 29  1  0
 28 27  2  0
M  END
$$$$
