DYN.pdb
     RDKit          3D

 29 29  0  0  1  0  0  0  0  0999 V2000
    9.1509  -18.9638   19.4002 N   0  0  0  0  0  0  0  0  0  0  0  0
   10.2659  -18.1133   19.0960 C   0  0  1  0  0  0  0  0  0  0  0  0
   10.1601  -17.4455   17.7460 C   0  0  0  0  0  0  0  0  0  0  0  0
   10.7256  -18.3645   16.7447 C   0  0  0  0  0  0  0  0  0  0  0  0
   11.0675  -19.5124   17.0810 O   0  0  0  0  0  0  0  0  0  0  0  0
   10.4427  -17.1341   20.2017 C   0  0  0  0  0  0  0  0  0  0  0  0
   11.4315  -16.3272   20.1994 O   0  0  0  0  0  0  0  0  0  0  0  0
   10.8755  -17.9560   15.4418 O   0  0  0  0  0  0  0  0  0  0  0  0
    6.5995  -12.4441   17.9801 O   0  0  0  0  0  0  0  0  0  0  0  0
    7.0672  -13.1423   19.1023 C   0  0  0  0  0  0  0  0  0  0  0  0
    8.1485  -12.6964   19.8252 C   0  0  0  0  0  0  0  0  0  0  0  0
    8.5744  -13.4254   20.9319 C   0  0  0  0  0  0  0  0  0  0  0  0
    7.9440  -14.5843   21.3269 C   0  0  0  0  0  0  0  0  0  0  0  0
    8.4101  -15.3485   22.4670 C   0  0  0  0  0  0  0  0  0  0  0  0
    9.7303  -16.0243   22.3651 C   0  0  2  0  0  0  0  0  0  0  0  0
    9.5599  -17.0333   21.2917 N   0  0  0  0  0  0  0  0  0  0  0  0
   10.1964  -16.7376   23.5608 C   0  0  0  0  0  0  0  0  0  0  0  0
    9.3443  -17.3613   24.2836 O   0  0  0  0  0  0  0  0  0  0  0  0
    6.8649  -15.0103   20.5881 C   0  0  0  0  0  0  0  0  0  0  0  0
    6.4372  -14.2934   19.4907 C   0  0  0  0  0  0  0  0  0  0  0  0
   10.2026  -20.2863   24.8210 N   0  0  0  0  0  0  0  0  0  0  0  0
   11.3116  -20.3323   23.9411 C   0  0  0  0  0  0  0  0  0  0  0  0
   11.7760  -21.4590   23.6206 O   0  0  0  0  0  0  0  0  0  0  0  0
   11.9456  -19.1287   23.3851 C   0  0  0  0  0  0  0  0  0  0  0  0
   12.1102  -18.0522   24.4437 C   0  0  2  0  0  0  0  0  0  0  0  0
   11.5400  -16.8079   24.0034 N   0  0  0  0  0  0  0  0  0  0  0  0
   13.5426  -17.9836   24.7923 C   0  0  0  0  0  0  0  0  0  0  0  0
   14.3697  -17.9938   23.8470 O   0  0  0  0  0  0  0  0  0  0  0  0
   14.0467  -17.9086   26.0765 O   0  0  0  0  0  0  0  0  0  0  0  0
  2  1  1  1
  3  4  1  0
  3  2  1  0
  4  8  1  0
  5  4  2  0
  6  2  1  0
  7  6  2  0
  9 10  1  0
 10 20  2  0
 10 11  1  0
 11 12  2  0
 12 13  1  0
 13 14  1  0
 15 14  1  1
 15 16  1  0
 15 17  1  0
 16  6  1  0
 17 26  1  0
 18 17  2  0
 19 13  2  0
 20 19  1  0
 22 21  1  0
 22 24  1  0
 23 22  2  0
 25 24  1  6
 25 27  1  0
 26 25  1  0
 27 29  1  0
 28 27  2  0
M  END
$$$$
