DYN.pdb
     RDKit          3D

 29 29  0  0  1  0  0  0  0  0999 V2000
    7.9140  -17.7106   19.0445 N   0  0  0  0  0  0  0  0  0  0  0  0
    9.1115  -16.9302   18.9175 C   0  0  1  0  0  0  0  0  0  0  0  0
    9.1506  -16.0918   17.6624 C   0  0  0  0  0  0  0  0  0  0  0  0
    8.9691  -16.9943   16.5135 C   0  0  0  0  0  0  0  0  0  0  0  0
    8.3546  -16.5989   15.5067 O   0  0  0  0  0  0  0  0  0  0  0  0
    9.2913  -16.1166   20.1497 C   0  0  0  0  0  0  0  0  0  0  0  0
   10.3132  -15.3642   20.2848 O   0  0  0  0  0  0  0  0  0  0  0  0
    9.4770  -18.2699   16.5526 O   0  0  0  0  0  0  0  0  0  0  0  0
    6.9564  -12.0611   27.7916 O   0  0  0  0  0  0  0  0  0  0  0  0
    7.0730  -12.7223   26.5609 C   0  0  0  0  0  0  0  0  0  0  0  0
    7.7163  -12.1420   25.4930 C   0  0  0  0  0  0  0  0  0  0  0  0
    7.8057  -12.8395   24.2917 C   0  0  0  0  0  0  0  0  0  0  0  0
    7.2675  -14.0978   24.1386 C   0  0  0  0  0  0  0  0  0  0  0  0
    7.3457  -14.8059   22.8762 C   0  0  0  0  0  0  0  0  0  0  0  0
    8.6436  -15.4253   22.4996 C   0  0  2  0  0  0  0  0  0  0  0  0
    8.3760  -16.1207   21.2174 N   0  0  0  0  0  0  0  0  0  0  0  0
    9.1887  -16.4231   23.4286 C   0  0  0  0  0  0  0  0  0  0  0  0
    8.6915  -17.6022   23.4356 O   0  0  0  0  0  0  0  0  0  0  0  0
    6.6289  -14.6574   25.2207 C   0  0  0  0  0  0  0  0  0  0  0  0
    6.5365  -13.9726   26.4139 C   0  0  0  0  0  0  0  0  0  0  0  0
   13.1485  -19.5570   25.5163 N   0  0  0  0  0  0  0  0  0  0  0  0
   12.8501  -18.2741   26.0373 C   0  0  0  0  0  0  0  0  0  0  0  0
   13.0712  -18.0570   27.2587 O   0  0  0  0  0  0  0  0  0  0  0  0
   12.2951  -17.1854   25.2209 C   0  0  0  0  0  0  0  0  0  0  0  0
   10.7818  -17.2784   25.1317 C   0  0  2  0  0  0  0  0  0  0  0  0
   10.2469  -16.2014   24.3436 N   0  0  0  0  0  0  0  0  0  0  0  0
   10.2568  -17.3531   26.5089 C   0  0  0  0  0  0  0  0  0  0  0  0
   10.1883  -18.4886   27.0417 O   0  0  0  0  0  0  0  0  0  0  0  0
    9.8346  -16.2728   27.2596 O   0  0  0  0  0  0  0  0  0  0  0  0
  2  1  1  1
  3  4  1  0
  3  2  1  0
  4  8  1  0
  5  4  2  0
  6  2  1  0
  7  6  2  0
  9 10  1  0
 10 20  2  0
 10 11  1  0
 11 12  2  0
 12 13  1  0
 13 14  1  0
 15 14  1  1
 15 16  1  0
 15 17  1  0
 16  6  1  0
 17 26  1  0
 18 17  2  0
 19 13  2  0
 20 19  1  0
 22 21  1  0
 22 24  1  0
 23 22  2  0
 25 24  1  1
 25 27  1  0
 26 25  1  0
 27 29  1  0
 28 27  2  0
M  END
$$$$
