DYN.pdb
     RDKit          3D

 29 29  0  0  1  0  0  0  0  0999 V2000
    9.2525  -18.6248   21.3250 N   0  0  0  0  0  0  0  0  0  0  0  0
   10.2594  -17.6050   21.2523 C   0  0  1  0  0  0  0  0  0  0  0  0
   10.5645  -17.1630   19.8412 C   0  0  0  0  0  0  0  0  0  0  0  0
   11.5435  -18.1065   19.2767 C   0  0  0  0  0  0  0  0  0  0  0  0
   12.5586  -18.4095   19.9288 O   0  0  0  0  0  0  0  0  0  0  0  0
    9.8630  -16.4709   22.1295 C   0  0  0  0  0  0  0  0  0  0  0  0
   10.7035  -15.5570   22.4247 O   0  0  0  0  0  0  0  0  0  0  0  0
   11.3368  -18.6514   18.0328 O   0  0  0  0  0  0  0  0  0  0  0  0
    7.6565  -12.3892   17.8144 O   0  0  0  0  0  0  0  0  0  0  0  0
    7.4997  -12.9546   19.0876 C   0  0  0  0  0  0  0  0  0  0  0  0
    6.8873  -14.1736   19.2607 C   0  0  0  0  0  0  0  0  0  0  0  0
    6.7558  -14.6926   20.5456 C   0  0  0  0  0  0  0  0  0  0  0  0
    7.2216  -14.0204   21.6535 C   0  0  0  0  0  0  0  0  0  0  0  0
    7.0587  -14.5590   22.9894 C   0  0  0  0  0  0  0  0  0  0  0  0
    8.2214  -15.2409   23.6165 C   0  0  2  0  0  0  0  0  0  0  0  0
    8.5751  -16.3323   22.6767 N   0  0  0  0  0  0  0  0  0  0  0  0
    7.9912  -15.8566   24.9293 C   0  0  0  0  0  0  0  0  0  0  0  0
    6.8037  -15.8784   25.4056 O   0  0  0  0  0  0  0  0  0  0  0  0
    7.8304  -12.8031   21.4552 C   0  0  0  0  0  0  0  0  0  0  0  0
    7.9644  -12.2826   20.1854 C   0  0  0  0  0  0  0  0  0  0  0  0
    6.5344  -19.8833   27.4902 N   0  0  0  0  0  0  0  0  0  0  0  0
    7.7271  -19.8251   26.7283 C   0  0  0  0  0  0  0  0  0  0  0  0
    8.5413  -20.7828   26.8156 O   0  0  0  0  0  0  0  0  0  0  0  0
    8.0592  -18.7011   25.8417 C   0  0  0  0  0  0  0  0  0  0  0  0
    8.6698  -17.5473   26.6179 C   0  0  2  0  0  0  0  0  0  0  0  0
    8.9864  -16.4508   25.7434 N   0  0  0  0  0  0  0  0  0  0  0  0
    9.8171  -18.0785   27.3791 C   0  0  0  0  0  0  0  0  0  0  0  0
    9.5689  -18.6997   28.4423 O   0  0  0  0  0  0  0  0  0  0  0  0
   11.1435  -17.9473   27.0151 O   0  0  0  0  0  0  0  0  0  0  0  0
  2  1  1  6
  3  4  1  0
  3  2  1  0
  4  8  1  0
  5  4  2  0
  6  2  1  0
  7  6  2  0
  9 10  1  0
 10 20  2  0
 10 11  1  0
 11 12  2  0
 12 13  1  0
 13 14  1  0
 15 14  1  6
 15 16  1  0
 15 17  1  0
 16  6  1  0
 17 26  1  0
 18 17  2  0
 19 13  2  0
 20 19  1  0
 22 21  1  0
 22 24  1  0
 23 22  2  0
 25 24  1  6
 25 27  1  0
 26 25  1  0
 27 29  1  0
 28 27  2  0
M  END
$$$$
