DYN.pdb
     RDKit          3D

 29 29  0  0  1  0  0  0  0  0999 V2000
    7.8700  -17.6490   19.8442 N   0  0  0  0  0  0  0  0  0  0  0  0
    8.9621  -16.7528   19.5925 C   0  0  1  0  0  0  0  0  0  0  0  0
    8.8155  -15.9751   18.3067 C   0  0  0  0  0  0  0  0  0  0  0  0
    8.9353  -16.9267   17.1899 C   0  0  0  0  0  0  0  0  0  0  0  0
    8.0716  -17.8080   17.0321 O   0  0  0  0  0  0  0  0  0  0  0  0
    9.1433  -15.8676   20.7741 C   0  0  0  0  0  0  0  0  0  0  0  0
   10.0500  -14.9695   20.7767 O   0  0  0  0  0  0  0  0  0  0  0  0
    9.9980  -16.8420   16.3237 O   0  0  0  0  0  0  0  0  0  0  0  0
    6.3780  -11.2213   27.8494 O   0  0  0  0  0  0  0  0  0  0  0  0
    6.5457  -12.0496   26.7308 C   0  0  0  0  0  0  0  0  0  0  0  0
    6.0037  -13.3125   26.6858 C   0  0  0  0  0  0  0  0  0  0  0  0
    6.1985  -14.0965   25.5521 C   0  0  0  0  0  0  0  0  0  0  0  0
    6.9203  -13.6448   24.4698 C   0  0  0  0  0  0  0  0  0  0  0  0
    7.1369  -14.4781   23.3037 C   0  0  0  0  0  0  0  0  0  0  0  0
    8.5017  -15.0211   23.0744 C   0  0  2  0  0  0  0  0  0  0  0  0
    8.3525  -15.9569   21.9336 N   0  0  0  0  0  0  0  0  0  0  0  0
    9.1012  -15.7779   24.1805 C   0  0  0  0  0  0  0  0  0  0  0  0
    9.3422  -15.1780   25.2848 O   0  0  0  0  0  0  0  0  0  0  0  0
    7.4526  -12.3785   24.5383 C   0  0  0  0  0  0  0  0  0  0  0  0
    7.2639  -11.5960   25.6578 C   0  0  0  0  0  0  0  0  0  0  0  0
   13.3693  -17.2986   22.1567 N   0  0  0  0  0  0  0  0  0  0  0  0
   12.7036  -17.7451   23.3244 C   0  0  0  0  0  0  0  0  0  0  0  0
   12.8370  -18.9506   23.6664 O   0  0  0  0  0  0  0  0  0  0  0  0
   11.8651  -16.8693   24.1550 C   0  0  0  0  0  0  0  0  0  0  0  0
   10.6746  -17.6217   24.7235 C   0  0  2  0  0  0  0  0  0  0  0  0
    9.4457  -17.1513   24.1441 N   0  0  0  0  0  0  0  0  0  0  0  0
   10.7411  -17.5176   26.1942 C   0  0  0  0  0  0  0  0  0  0  0  0
   11.3959  -18.3966   26.8078 O   0  0  0  0  0  0  0  0  0  0  0  0
   10.1405  -16.5295   26.9503 O   0  0  0  0  0  0  0  0  0  0  0  0
  2  1  1  1
  3  4  1  0
  3  2  1  0
  4  8  1  0
  5  4  2  0
  6  2  1  0
  7  6  2  0
  9 10  1  0
 10 20  2  0
 10 11  1  0
 11 12  2  0
 12 13  1  0
 13 14  1  0
 15 14  1  1
 15 16  1  0
 15 17  1  0
 16  6  1  0
 17 26  1  0
 18 17  2  0
 19 13  2  0
 20 19  1  0
 22 21  1  0
 22 24  1  0
 23 22  2  0
 25 24  1  6
 25 27  1  0
 26 25  1  0
 27 29  1  0
 28 27  2  0
M  END
$$$$
