RDW.pdb
     RDKit          3D

 34 35  0  0  1  0  0  0  0  0999 V2000
   28.7177  -15.5170  -19.4937 N   0  0  0  0  0  0  0  0  0  0  0  0
   29.9002  -15.6505  -18.7095 C   0  0  0  0  0  0  0  0  0  0  0  0
   30.8647  -14.8266  -18.8828 N   0  0  0  0  0  0  0  0  0  0  0  0
   30.0303  -16.6850  -17.7377 N   0  0  0  0  0  0  0  0  0  0  0  0
   28.9975  -17.6681  -17.5241 C   0  0  0  0  0  0  0  0  0  0  0  0
   27.9257  -17.0769  -16.6327 C   0  0  0  0  0  0  0  0  0  0  0  0
   27.9645  -17.6408  -15.2399 C   0  0  0  0  0  0  0  0  0  0  0  0
   27.6645  -19.1283  -15.2064 C   0  0  2  0  0  0  0  0  0  0  0  0
   26.9658  -19.4042  -16.4535 N   0  0  0  0  0  0  0  0  0  0  0  0
   26.7480  -19.4732  -14.0962 C   0  0  0  0  0  0  0  0  0  0  0  0
   25.9545  -18.6549  -13.5502 O   0  0  0  0  0  0  0  0  0  0  0  0
   31.7707  -14.9268  -18.3985 N   0  0  0  0  0  0  0  0  0  0  0  0
   26.6966  -20.8098  -13.5472 C   0  0  1  0  0  0  0  0  0  0  0  0
   25.7950  -21.1673  -12.4799 C   0  0  0  0  0  0  0  0  0  0  0  0
   25.4162  -22.6383  -12.7205 C   0  0  0  0  0  0  0  0  0  0  0  0
   24.7502  -22.7522  -14.0184 O   0  0  0  0  0  0  0  0  0  0  0  0
   23.8625  -22.0036  -14.4868 C   0  0  0  0  0  0  0  0  0  0  0  0
   26.3945  -21.1142  -11.1446 O   0  0  0  0  0  0  0  0  0  0  0  0
   27.6228  -21.1317  -10.9295 O   0  0  0  0  0  0  0  0  0  0  0  0
   25.1227  -23.8132  -14.8680 N   0  0  0  0  0  0  0  0  0  0  0  0
   25.5191  -21.0392  -10.0329 C   0  0  1  0  0  0  0  0  0  0  0  0
   25.9688  -20.9984   -8.6564 C   0  0  0  0  0  0  0  0  0  0  0  0
   26.7581  -19.7059   -8.4266 C   0  0  0  0  0  0  0  0  0  0  0  0
   27.1118  -19.6183   -6.9886 C   0  0  0  0  0  0  0  0  0  0  0  0
   26.3204  -19.3504   -5.8969 N   0  0  0  0  0  0  0  0  0  0  0  0
   27.0166  -19.3517   -4.7647 C   0  0  0  0  0  0  0  0  0  0  0  0
   28.2991  -19.6279   -5.1204 C   0  0  0  0  0  0  0  0  0  0  0  0
   29.4355  -19.7511   -4.3506 C   0  0  0  0  0  0  0  0  0  0  0  0
   30.6257  -20.0381   -4.9475 C   0  0  0  0  0  0  0  0  0  0  0  0
   30.7437  -20.2125   -6.3044 C   0  0  0  0  0  0  0  0  0  0  0  0
   29.6050  -20.0877   -7.0689 C   0  0  0  0  0  0  0  0  0  0  0  0
   28.3901  -19.7978   -6.4835 C   0  0  0  0  0  0  0  0  0  0  0  0
   24.8059  -20.9859   -7.7491 O   0  0  0  0  0  0  0  0  0  0  0  0
   24.9613  -21.5366   -6.4730 O   0  0  0  0  0  0  0  0  0  0  0  0
  2  4  1  0
  2  1  1  0
  3  2  2  0
  5  4  1  0
  6  5  1  0
  7  8  1  0
  7  6  1  0
  8 10  1  0
  8  9  1  6
 10 11  2  0
 12 13  1  0
 12 10  1  0
 14 15  1  0
 13 14  1  1
 15 19  1  0
 16 15  2  0
 17 18  2  0
 17 13  1  0
 20 17  1  0
 21 20  1  0
 21 22  1  1
 22 23  1  0
 23 24  2  0
 23 31  1  0
 24 25  1  0
 25 26  1  0
 26 27  2  0
 27 28  1  0
 29 28  2  0
 30 29  1  0
 31 30  2  0
 31 26  1  0
 32 21  1  0
 33 32  1  0
 34 32  2  0
M  END
$$$$
