RDW.pdb
     RDKit          3D

 34 35  0  0  1  0  0  0  0  0999 V2000
   27.6103  -29.7111  -18.8004 N   0  0  0  0  0  0  0  0  0  0  0  0
   28.4134  -29.5249  -17.6379 C   0  0  0  0  0  0  0  0  0  0  0  0
   29.2804  -30.4134  -17.3250 N   0  0  0  0  0  0  0  0  0  0  0  0
   28.2683  -28.3695  -16.8160 N   0  0  0  0  0  0  0  0  0  0  0  0
   27.6499  -27.1599  -17.2990 C   0  0  0  0  0  0  0  0  0  0  0  0
   28.7212  -26.2357  -17.8385 C   0  0  0  0  0  0  0  0  0  0  0  0
   28.6149  -24.8461  -17.2751 C   0  0  0  0  0  0  0  0  0  0  0  0
   27.1801  -24.4443  -16.9857 C   0  0  2  0  0  0  0  0  0  0  0  0
   26.6560  -23.9623  -18.2554 N   0  0  0  0  0  0  0  0  0  0  0  0
   27.1135  -23.3231  -16.0213 C   0  0  0  0  0  0  0  0  0  0  0  0
   27.7964  -23.2581  -14.9597 O   0  0  0  0  0  0  0  0  0  0  0  0
   29.8576  -30.3460  -16.4719 N   0  0  0  0  0  0  0  0  0  0  0  0
   26.2381  -22.1928  -16.2369 C   0  0  2  0  0  0  0  0  0  0  0  0
   26.1192  -21.1202  -15.2803 C   0  0  0  0  0  0  0  0  0  0  0  0
   25.1572  -20.0977  -15.9081 C   0  0  0  0  0  0  0  0  0  0  0  0
   25.0883  -18.9174  -15.0460 O   0  0  0  0  0  0  0  0  0  0  0  0
   24.1440  -18.1011  -14.9470 C   0  0  0  0  0  0  0  0  0  0  0  0
   25.5169  -21.5169  -14.0055 O   0  0  0  0  0  0  0  0  0  0  0  0
   24.3896  -22.0396  -13.8985 O   0  0  0  0  0  0  0  0  0  0  0  0
   26.1916  -18.6321  -14.2168 N   0  0  0  0  0  0  0  0  0  0  0  0
   26.2662  -21.2893  -12.8246 C   0  0  2  0  0  0  0  0  0  0  0  0
   25.8252  -21.6865  -11.5031 C   0  0  0  0  0  0  0  0  0  0  0  0
   27.0236  -21.6664  -10.5493 C   0  0  0  0  0  0  0  0  0  0  0  0
   26.6889  -20.8048   -9.3890 C   0  0  0  0  0  0  0  0  0  0  0  0
   25.4908  -20.2384   -9.0234 N   0  0  0  0  0  0  0  0  0  0  0  0
   25.5993  -19.5178   -7.9118 C   0  0  0  0  0  0  0  0  0  0  0  0
   26.9022  -19.6127   -7.5362 C   0  0  0  0  0  0  0  0  0  0  0  0
   27.5664  -19.0646   -6.4602 C   0  0  0  0  0  0  0  0  0  0  0  0
   28.8961  -19.3088   -6.2940 C   0  0  0  0  0  0  0  0  0  0  0  0
   29.6142  -20.0893   -7.1660 C   0  0  0  0  0  0  0  0  0  0  0  0
   28.9456  -20.6339   -8.2397 C   0  0  0  0  0  0  0  0  0  0  0  0
   27.5991  -20.3990   -8.4256 C   0  0  0  0  0  0  0  0  0  0  0  0
   24.8280  -20.7245  -10.9972 O   0  0  0  0  0  0  0  0  0  0  0  0
   24.0091  -21.1231   -9.9358 O   0  0  0  0  0  0  0  0  0  0  0  0
  2  4  1  0
  2  1  1  0
  3  2  2  0
  5  4  1  0
  6  5  1  0
  7  8  1  0
  7  6  1  0
  8 10  1  0
  8  9  1  6
 10 11  2  0
 12 13  1  0
 12 10  1  0
 14 15  1  0
 13 14  1  6
 15 19  1  0
 16 15  2  0
 17 18  2  0
 17 13  1  0
 20 17  1  0
 21 20  1  0
 21 22  1  6
 22 23  1  0
 23 24  2  0
 23 31  1  0
 24 25  1  0
 25 26  1  0
 26 27  2  0
 27 28  1  0
 29 28  2  0
 30 29  1  0
 31 30  2  0
 31 26  1  0
 32 21  1  0
 33 32  1  0
 34 32  2  0
M  END
$$$$
