RDW.pdb
     RDKit          3D

 34 35  0  0  1  0  0  0  0  0999 V2000
   27.9195  -24.9623  -16.4050 N   0  0  0  0  0  0  0  0  0  0  0  0
   27.5266  -24.5053  -17.6964 C   0  0  0  0  0  0  0  0  0  0  0  0
   26.6354  -25.1540  -18.3476 N   0  0  0  0  0  0  0  0  0  0  0  0
   28.1083  -23.3411  -18.2777 N   0  0  0  0  0  0  0  0  0  0  0  0
   28.6678  -22.2829  -17.4739 C   0  0  0  0  0  0  0  0  0  0  0  0
   27.5698  -21.3094  -17.1002 C   0  0  0  0  0  0  0  0  0  0  0  0
   27.9695  -20.4022  -15.9703 C   0  0  0  0  0  0  0  0  0  0  0  0
   28.0084  -21.1206  -14.6339 C   0  0  2  0  0  0  0  0  0  0  0  0
   27.5384  -22.4699  -14.9128 N   0  0  0  0  0  0  0  0  0  0  0  0
   27.0703  -20.5135  -13.6628 C   0  0  0  0  0  0  0  0  0  0  0  0
   27.0776  -19.2924  -13.3368 O   0  0  0  0  0  0  0  0  0  0  0  0
   26.3676  -24.9072  -19.3134 N   0  0  0  0  0  0  0  0  0  0  0  0
   26.0515  -21.3001  -13.0043 C   0  0  2  0  0  0  0  0  0  0  0  0
   25.1712  -20.7385  -12.0096 C   0  0  0  0  0  0  0  0  0  0  0  0
   23.7486  -21.1541  -12.4202 C   0  0  0  0  0  0  0  0  0  0  0  0
   23.1550  -20.0870  -13.2266 O   0  0  0  0  0  0  0  0  0  0  0  0
   23.6966  -19.0196  -13.5942 C   0  0  0  0  0  0  0  0  0  0  0  0
   25.3762  -21.2673  -10.6593 O   0  0  0  0  0  0  0  0  0  0  0  0
   25.6511  -22.4579  -10.4099 O   0  0  0  0  0  0  0  0  0  0  0  0
   21.8223  -20.2406  -13.6586 N   0  0  0  0  0  0  0  0  0  0  0  0
   25.2525  -20.3652   -9.5736 C   0  0  2  0  0  0  0  0  0  0  0  0
   25.3616  -20.7594   -8.1838 C   0  0  0  0  0  0  0  0  0  0  0  0
   25.8553  -19.5643   -7.3626 C   0  0  0  0  0  0  0  0  0  0  0  0
   27.3159  -19.7101   -7.1483 C   0  0  0  0  0  0  0  0  0  0  0  0
   28.3432  -19.7664   -8.0601 N   0  0  0  0  0  0  0  0  0  0  0  0
   29.5253  -19.9114   -7.4700 C   0  0  0  0  0  0  0  0  0  0  0  0
   29.2694  -19.9512   -6.1356 C   0  0  0  0  0  0  0  0  0  0  0  0
   30.1241  -20.0875   -5.0632 C   0  0  0  0  0  0  0  0  0  0  0  0
   29.6206  -20.0989   -3.7977 C   0  0  0  0  0  0  0  0  0  0  0  0
   28.2771  -19.9788   -3.5406 C   0  0  0  0  0  0  0  0  0  0  0  0
   27.4275  -19.8435   -4.6160 C   0  0  0  0  0  0  0  0  0  0  0  0
   27.9176  -19.8293   -5.9053 C   0  0  0  0  0  0  0  0  0  0  0  0
   24.0355  -21.1469   -7.6670 O   0  0  0  0  0  0  0  0  0  0  0  0
   23.9779  -21.8186   -6.4417 O   0  0  0  0  0  0  0  0  0  0  0  0
  2  4  1  0
  2  1  1  0
  3  2  2  0
  5  4  1  0
  6  5  1  0
  7  8  1  0
  7  6  1  0
  8 10  1  0
  8  9  1  6
 10 11  2  0
 12 13  1  0
 12 10  1  0
 14 15  1  0
 13 14  1  6
 15 19  1  0
 16 15  2  0
 17 18  2  0
 17 13  1  0
 20 17  1  0
 21 20  1  0
 21 22  1  6
 22 23  1  0
 23 24  2  0
 23 31  1  0
 24 25  1  0
 25 26  1  0
 26 27  2  0
 27 28  1  0
 29 28  2  0
 30 29  1  0
 31 30  2  0
 31 26  1  0
 32 21  1  0
 33 32  1  0
 34 32  2  0
M  END
$$$$
