RDW.pdb
     RDKit          3D

 34 35  0  0  1  0  0  0  0  0999 V2000
   29.6566  -24.0341  -16.1877 N   0  0  0  0  0  0  0  0  0  0  0  0
   30.0351  -23.2509  -17.3165 C   0  0  0  0  0  0  0  0  0  0  0  0
   31.2201  -23.3614  -17.7884 N   0  0  0  0  0  0  0  0  0  0  0  0
   29.1203  -22.3454  -17.9288 N   0  0  0  0  0  0  0  0  0  0  0  0
   28.2423  -21.5044  -17.1539 C   0  0  0  0  0  0  0  0  0  0  0  0
   29.0743  -20.5845  -16.2854 C   0  0  0  0  0  0  0  0  0  0  0  0
   28.2332  -19.5891  -15.5361 C   0  0  0  0  0  0  0  0  0  0  0  0
   26.7527  -19.9189  -15.5938 C   0  0  2  0  0  0  0  0  0  0  0  0
   26.2222  -19.1017  -16.6756 N   0  0  0  0  0  0  0  0  0  0  0  0
   26.0576  -19.5178  -14.3498 C   0  0  0  0  0  0  0  0  0  0  0  0
   26.1875  -18.3890  -13.7962 O   0  0  0  0  0  0  0  0  0  0  0  0
   31.5358  -22.8351  -18.6183 N   0  0  0  0  0  0  0  0  0  0  0  0
   25.1550  -20.4167  -13.6659 C   0  0  1  0  0  0  0  0  0  0  0  0
   24.8002  -20.2404  -12.2793 C   0  0  0  0  0  0  0  0  0  0  0  0
   23.3052  -20.5865  -12.1775 C   0  0  0  0  0  0  0  0  0  0  0  0
   22.6936  -20.4486  -13.4996 O   0  0  0  0  0  0  0  0  0  0  0  0
   22.3100  -19.3938  -14.0546 C   0  0  0  0  0  0  0  0  0  0  0  0
   25.4921  -21.1491  -11.3624 O   0  0  0  0  0  0  0  0  0  0  0  0
   26.3804  -21.9513  -11.7124 O   0  0  0  0  0  0  0  0  0  0  0  0
   22.4964  -21.6136  -14.2677 N   0  0  0  0  0  0  0  0  0  0  0  0
   25.1240  -21.1097   -9.9945 C   0  0  1  0  0  0  0  0  0  0  0  0
   26.0527  -21.3314   -8.9050 C   0  0  0  0  0  0  0  0  0  0  0  0
   27.1774  -20.2947   -8.9883 C   0  0  0  0  0  0  0  0  0  0  0  0
   28.2253  -20.6551   -8.0021 C   0  0  0  0  0  0  0  0  0  0  0  0
   29.2017  -21.6211   -8.0610 N   0  0  0  0  0  0  0  0  0  0  0  0
   29.9510  -21.6393   -6.9633 C   0  0  0  0  0  0  0  0  0  0  0  0
   29.4550  -20.6600   -6.1617 C   0  0  0  0  0  0  0  0  0  0  0  0
   29.8494  -20.2424   -4.9089 C   0  0  0  0  0  0  0  0  0  0  0  0
   29.1845  -19.2222   -4.2986 C   0  0  0  0  0  0  0  0  0  0  0  0
   28.1216  -18.5824   -4.8869 C   0  0  0  0  0  0  0  0  0  0  0  0
   27.7313  -19.0042   -6.1385 C   0  0  0  0  0  0  0  0  0  0  0  0
   28.3919  -20.0352   -6.7736 C   0  0  0  0  0  0  0  0  0  0  0  0
   25.3635  -21.1486   -7.6137 O   0  0  0  0  0  0  0  0  0  0  0  0
   25.6539  -22.0454   -6.5807 O   0  0  0  0  0  0  0  0  0  0  0  0
  2  4  1  0
  2  1  1  0
  3  2  2  0
  5  4  1  0
  6  5  1  0
  7  8  1  0
  7  6  1  0
  8 10  1  0
  8  9  1  6
 10 11  2  0
 12 13  1  0
 12 10  1  0
 14 15  1  0
 13 14  1  6
 15 19  1  0
 16 15  2  0
 17 18  2  0
 17 13  1  0
 20 17  1  0
 21 20  1  0
 21 22  1  6
 22 23  1  0
 23 24  2  0
 23 31  1  0
 24 25  1  0
 25 26  1  0
 26 27  2  0
 27 28  1  0
 29 28  2  0
 30 29  1  0
 31 30  2  0
 31 26  1  0
 32 21  1  0
 33 32  1  0
 34 32  2  0
M  END
$$$$
