RDW.pdb
     RDKit          3D

 34 35  0  0  1  0  0  0  0  0999 V2000
   26.9538  -20.4173   -8.8081 N   0  0  0  0  0  0  0  0  0  0  0  0
   25.5802  -20.7260   -9.0289 C   0  0  0  0  0  0  0  0  0  0  0  0
   24.7229  -20.4631   -8.1152 N   0  0  0  0  0  0  0  0  0  0  0  0
   25.1429  -21.3238  -10.2467 N   0  0  0  0  0  0  0  0  0  0  0  0
   26.0127  -21.4569  -11.3890 C   0  0  0  0  0  0  0  0  0  0  0  0
   26.2076  -20.0971  -12.0260 C   0  0  0  0  0  0  0  0  0  0  0  0
   26.9798  -20.1736  -13.3134 C   0  0  0  0  0  0  0  0  0  0  0  0
   26.3369  -21.1078  -14.3223 C   0  0  2  0  0  0  0  0  0  0  0  0
   27.4422  -21.6437  -15.1036 N   0  0  0  0  0  0  0  0  0  0  0  0
   25.4477  -20.3752  -15.2519 C   0  0  0  0  0  0  0  0  0  0  0  0
   25.8566  -19.6693  -16.2174 O   0  0  0  0  0  0  0  0  0  0  0  0
   23.7213  -20.6922   -8.2146 N   0  0  0  0  0  0  0  0  0  0  0  0
   24.0092  -20.4212  -15.1145 C   0  0  2  0  0  0  0  0  0  0  0  0
   23.1326  -19.6394  -15.9511 C   0  0  0  0  0  0  0  0  0  0  0  0
   21.7091  -20.1440  -15.6610 C   0  0  0  0  0  0  0  0  0  0  0  0
   20.7837  -19.5332  -16.6158 O   0  0  0  0  0  0  0  0  0  0  0  0
   20.7302  -18.3309  -16.9615 C   0  0  0  0  0  0  0  0  0  0  0  0
   23.1279  -18.2076  -15.6428 O   0  0  0  0  0  0  0  0  0  0  0  0
   22.8206  -17.7337  -14.5309 O   0  0  0  0  0  0  0  0  0  0  0  0
   19.8273  -20.3596  -17.2392 N   0  0  0  0  0  0  0  0  0  0  0  0
   23.4954  -17.3107  -16.6765 C   0  0  1  0  0  0  0  0  0  0  0  0
   24.1997  -16.0655  -16.4483 C   0  0  0  0  0  0  0  0  0  0  0  0
   25.4920  -16.3560  -15.6789 C   0  0  0  0  0  0  0  0  0  0  0  0
   26.2305  -15.0821  -15.4989 C   0  0  0  0  0  0  0  0  0  0  0  0
   25.9212  -13.9792  -14.7388 N   0  0  0  0  0  0  0  0  0  0  0  0
   26.8402  -13.0252  -14.8484 C   0  0  0  0  0  0  0  0  0  0  0  0
   27.7784  -13.5129  -15.7025 C   0  0  0  0  0  0  0  0  0  0  0  0
   28.9451  -12.9473  -16.1696 C   0  0  0  0  0  0  0  0  0  0  0  0
   29.7338  -13.6457  -17.0329 C   0  0  0  0  0  0  0  0  0  0  0  0
   29.4112  -14.9086  -17.4649 C   0  0  0  0  0  0  0  0  0  0  0  0
   28.2439  -15.4687  -16.9955 C   0  0  0  0  0  0  0  0  0  0  0  0
   27.4317  -14.7780  -16.1203 C   0  0  0  0  0  0  0  0  0  0  0  0
   24.5691  -15.4545  -17.7390 O   0  0  0  0  0  0  0  0  0  0  0  0
   24.4482  -14.0673  -17.8686 O   0  0  0  0  0  0  0  0  0  0  0  0
  2  4  1  0
  2  1  1  0
  3  2  2  0
  5  4  1  0
  6  5  1  0
  7  8  1  0
  7  6  1  0
  8 10  1  0
  8  9  1  6
 10 11  2  0
 12 13  1  0
 12 10  1  0
 14 15  1  0
 13 14  1  6
 15 19  1  0
 16 15  2  0
 17 18  2  0
 17 13  1  0
 20 17  1  0
 21 20  1  0
 21 22  1  1
 22 23  1  0
 23 24  2  0
 23 31  1  0
 24 25  1  0
 25 26  1  0
 26 27  2  0
 27 28  1  0
 29 28  2  0
 30 29  1  0
 31 30  2  0
 31 26  1  0
 32 21  1  0
 33 32  1  0
 34 32  2  0
M  END
$$$$
