RDW.pdb
     RDKit          3D

 34 35  0  0  1  0  0  0  0  0999 V2000
   32.0148  -24.2686  -17.6715 N   0  0  0  0  0  0  0  0  0  0  0  0
   31.7554  -24.7131  -16.3425 C   0  0  0  0  0  0  0  0  0  0  0  0
   32.5661  -25.5323  -15.7851 N   0  0  0  0  0  0  0  0  0  0  0  0
   30.6097  -24.2646  -15.6230 N   0  0  0  0  0  0  0  0  0  0  0  0
   29.6357  -23.3787  -16.2108 C   0  0  0  0  0  0  0  0  0  0  0  0
   30.0643  -21.9451  -15.9786 C   0  0  0  0  0  0  0  0  0  0  0  0
   29.1862  -21.2394  -14.9833 C   0  0  0  0  0  0  0  0  0  0  0  0
   27.7126  -21.5343  -15.1964 C   0  0  2  0  0  0  0  0  0  0  0  0
   27.4281  -21.0930  -16.5542 N   0  0  0  0  0  0  0  0  0  0  0  0
   26.8614  -20.7400  -14.2819 C   0  0  0  0  0  0  0  0  0  0  0  0
   26.4387  -19.5764  -14.5366 O   0  0  0  0  0  0  0  0  0  0  0  0
   32.4199  -25.8892  -14.8277 N   0  0  0  0  0  0  0  0  0  0  0  0
   26.4428  -21.2587  -12.9988 C   0  0  2  0  0  0  0  0  0  0  0  0
   25.3919  -20.6422  -12.2273 C   0  0  0  0  0  0  0  0  0  0  0  0
   24.0904  -20.8954  -13.0064 C   0  0  0  0  0  0  0  0  0  0  0  0
   22.9900  -20.2062  -12.3317 O   0  0  0  0  0  0  0  0  0  0  0  0
   23.0688  -19.3916  -11.3841 C   0  0  0  0  0  0  0  0  0  0  0  0
   25.1947  -21.2330  -10.9018 O   0  0  0  0  0  0  0  0  0  0  0  0
   24.9350  -22.4370  -10.7055 O   0  0  0  0  0  0  0  0  0  0  0  0
   21.6749  -20.4620  -12.7694 N   0  0  0  0  0  0  0  0  0  0  0  0
   25.3065  -20.3783   -9.7771 C   0  0  2  0  0  0  0  0  0  0  0  0
   25.1467  -20.8251   -8.4083 C   0  0  0  0  0  0  0  0  0  0  0  0
   25.5930  -19.7062   -7.4621 C   0  0  0  0  0  0  0  0  0  0  0  0
   27.0735  -19.6195   -7.4989 C   0  0  0  0  0  0  0  0  0  0  0  0
   27.9219  -19.4105   -8.5602 N   0  0  0  0  0  0  0  0  0  0  0  0
   29.1971  -19.4072   -8.1852 C   0  0  0  0  0  0  0  0  0  0  0  0
   29.1874  -19.6192   -6.8426 C   0  0  0  0  0  0  0  0  0  0  0  0
   30.2271  -19.7101   -5.9426 C   0  0  0  0  0  0  0  0  0  0  0  0
   29.9604  -19.9299   -4.6251 C   0  0  0  0  0  0  0  0  0  0  0  0
   28.6802  -20.0672   -4.1479 C   0  0  0  0  0  0  0  0  0  0  0  0
   27.6451  -19.9762   -5.0517 C   0  0  0  0  0  0  0  0  0  0  0  0
   27.8943  -19.7535   -6.3900 C   0  0  0  0  0  0  0  0  0  0  0  0
   23.7248  -21.1078   -8.1360 O   0  0  0  0  0  0  0  0  0  0  0  0
   23.3991  -21.7413   -6.9325 O   0  0  0  0  0  0  0  0  0  0  0  0
  2  4  1  0
  2  1  1  0
  3  2  2  0
  5  4  1  0
  6  5  1  0
  7  8  1  0
  7  6  1  0
  8 10  1  0
  8  9  1  6
 10 11  2  0
 12 13  1  0
 12 10  1  0
 14 15  1  0
 13 14  1  6
 15 19  1  0
 16 15  2  0
 17 18  2  0
 17 13  1  0
 20 17  1  0
 21 20  1  0
 21 22  1  6
 22 23  1  0
 23 24  2  0
 23 31  1  0
 24 25  1  0
 25 26  1  0
 26 27  2  0
 27 28  1  0
 29 28  2  0
 30 29  1  0
 31 30  2  0
 31 26  1  0
 32 21  1  0
 33 32  1  0
 34 32  2  0
M  END
$$$$
