IPP.pdb
     RDKit          3D

 23 24  0  0  1  0  0  0  0  0999 V2000
   23.7633  -19.5842  -13.0424 C   0  0  0  0  0  0  0  0  0  0  0  0
   24.9861  -20.4392  -13.2568 C   0  0  0  0  0  0  0  0  0  0  0  0
   25.9949  -20.3441  -12.1490 C   0  0  2  0  0  0  0  0  0  0  0  0
   27.0056  -19.2811  -12.5909 C   0  0  0  0  0  0  0  0  0  0  0  0
   26.7414  -21.6426  -11.8611 C   0  0  2  0  0  0  0  0  0  0  0  0
   25.6776  -22.6729  -12.1573 N   0  0  0  0  0  0  0  0  0  0  0  0
   27.1608  -21.8038  -10.4709 C   0  0  0  0  0  0  0  0  0  0  0  0
   26.3022  -22.3202   -9.6634 O   0  0  0  0  0  0  0  0  0  0  0  0
   28.3986  -21.4709   -9.8751 N   0  0  0  0  0  0  0  0  0  0  0  0
   29.4974  -20.8015  -10.5011 C   0  0  0  0  0  0  0  0  0  0  0  0
   30.7339  -21.4373   -9.9368 C   0  0  0  0  0  0  0  0  0  0  0  0
   30.2665  -22.1359   -8.6944 C   0  0  0  0  0  0  0  0  0  0  0  0
   28.8359  -21.7135   -8.4884 C   0  0  1  0  0  0  0  0  0  0  0  0
   28.6497  -20.5178   -7.6826 C   0  0  0  0  0  0  0  0  0  0  0  0
   28.3678  -19.4340   -8.2907 O   0  0  0  0  0  0  0  0  0  0  0  0
   28.7462  -20.4083   -6.2730 N   0  0  0  0  0  0  0  0  0  0  0  0
   29.1570  -21.4641   -5.3893 C   0  0  0  0  0  0  0  0  0  0  0  0
   28.2882  -21.2827   -4.1745 C   0  0  0  0  0  0  0  0  0  0  0  0
   27.8388  -19.8373   -4.1986 C   0  0  0  0  0  0  0  0  0  0  0  0
   28.4773  -19.2559   -5.4359 C   0  0  1  0  0  0  0  0  0  0  0  0
   29.7435  -18.5738   -5.0262 C   0  0  0  0  0  0  0  0  0  0  0  0
   29.7237  -17.3736   -4.3395 O   0  0  0  0  0  0  0  0  0  0  0  0
   30.8161  -19.1153   -5.3176 O   0  0  0  0  0  0  0  0  0  0  0  0
  1  2  1  0
  3  4  1  6
  3  2  1  0
  5  3  1  0
  5  6  1  1
  7  8  2  0
  7  5  1  0
  9  7  1  0
 10  9  1  0
 11 10  1  0
 12 11  1  0
 12 13  1  0
 13 14  1  1
 13  9  1  0
 14 15  2  0
 16 17  1  0
 16 14  1  0
 18 17  1  0
 19 20  1  0
 19 18  1  0
 20 16  1  0
 20 21  1  1
 21 22  1  0
 23 21  2  0
M  END
$$$$
