IPP.pdb
     RDKit          3D

 23 24  0  0  1  0  0  0  0  0999 V2000
   23.0540  -19.4166  -13.7094 C   0  0  0  0  0  0  0  0  0  0  0  0
   24.2200  -20.3702  -13.6542 C   0  0  0  0  0  0  0  0  0  0  0  0
   24.8429  -20.4892  -12.2934 C   0  0  2  0  0  0  0  0  0  0  0  0
   25.5072  -19.1371  -12.0156 C   0  0  0  0  0  0  0  0  0  0  0  0
   25.8945  -21.5874  -12.1736 C   0  0  2  0  0  0  0  0  0  0  0  0
   25.0832  -22.8176  -12.5044 N   0  0  0  0  0  0  0  0  0  0  0  0
   26.4481  -21.7510  -10.8316 C   0  0  0  0  0  0  0  0  0  0  0  0
   25.7140  -22.3684   -9.9737 O   0  0  0  0  0  0  0  0  0  0  0  0
   27.6992  -21.3234  -10.3316 N   0  0  0  0  0  0  0  0  0  0  0  0
   28.6653  -20.5199  -11.0161 C   0  0  0  0  0  0  0  0  0  0  0  0
   30.0044  -21.0539  -10.5999 C   0  0  0  0  0  0  0  0  0  0  0  0
   29.7250  -21.8512   -9.3604 C   0  0  0  0  0  0  0  0  0  0  0  0
   28.2864  -21.5835   -9.0048 C   0  0  1  0  0  0  0  0  0  0  0  0
   28.0639  -20.4502   -8.1219 C   0  0  0  0  0  0  0  0  0  0  0  0
   27.6000  -19.3815   -8.6384 O   0  0  0  0  0  0  0  0  0  0  0  0
   28.3060  -20.3874   -6.7270 N   0  0  0  0  0  0  0  0  0  0  0  0
   28.9312  -21.4220   -5.9504 C   0  0  0  0  0  0  0  0  0  0  0  0
   28.1902  -21.3948   -4.6413 C   0  0  0  0  0  0  0  0  0  0  0  0
   27.5796  -20.0133   -4.5394 C   0  0  0  0  0  0  0  0  0  0  0  0
   28.0040  -19.3102   -5.8052 C   0  0  1  0  0  0  0  0  0  0  0  0
   29.2225  -18.4996   -5.4979 C   0  0  0  0  0  0  0  0  0  0  0  0
   30.4770  -18.8989   -5.9212 O   0  0  0  0  0  0  0  0  0  0  0  0
   29.0782  -17.4548   -4.8527 O   0  0  0  0  0  0  0  0  0  0  0  0
  1  2  1  0
  3  4  1  6
  3  2  1  0
  5  3  1  0
  5  6  1  1
  7  8  2  0
  7  5  1  0
  9  7  1  0
 10  9  1  0
 11 10  1  0
 12 11  1  0
 12 13  1  0
 13 14  1  1
 13  9  1  0
 14 15  2  0
 16 17  1  0
 16 14  1  0
 18 17  1  0
 19 20  1  0
 19 18  1  0
 20 16  1  0
 20 21  1  1
 21 22  1  0
 23 21  2  0
M  END
$$$$
