IPP.pdb
     RDKit          3D

 23 24  0  0  1  0  0  0  0  0999 V2000
   24.7881  -19.1394  -14.0078 C   0  0  0  0  0  0  0  0  0  0  0  0
   25.9126  -20.1101  -13.7521 C   0  0  0  0  0  0  0  0  0  0  0  0
   26.3182  -20.2028  -12.3096 C   0  0  2  0  0  0  0  0  0  0  0  0
   27.4247  -19.1611  -12.1164 C   0  0  0  0  0  0  0  0  0  0  0  0
   26.8505  -21.5689  -11.8894 C   0  0  2  0  0  0  0  0  0  0  0  0
   25.6559  -22.4528  -12.1591 N   0  0  0  0  0  0  0  0  0  0  0  0
   27.1892  -21.6764  -10.4723 C   0  0  0  0  0  0  0  0  0  0  0  0
   26.2339  -21.9959   -9.6713 O   0  0  0  0  0  0  0  0  0  0  0  0
   28.4396  -21.4795   -9.8432 N   0  0  0  0  0  0  0  0  0  0  0  0
   29.6372  -20.9892  -10.4538 C   0  0  0  0  0  0  0  0  0  0  0  0
   30.7597  -21.7529   -9.8149 C   0  0  0  0  0  0  0  0  0  0  0  0
   30.1634  -22.3250   -8.5630 C   0  0  0  0  0  0  0  0  0  0  0  0
   28.7948  -21.7108   -8.4314 C   0  0  1  0  0  0  0  0  0  0  0  0
   28.7411  -20.4642   -7.6853 C   0  0  0  0  0  0  0  0  0  0  0  0
   28.7716  -19.3769   -8.3492 O   0  0  0  0  0  0  0  0  0  0  0  0
   28.6579  -20.3075   -6.2793 N   0  0  0  0  0  0  0  0  0  0  0  0
   28.6910  -21.3817   -5.3257 C   0  0  0  0  0  0  0  0  0  0  0  0
   27.7210  -20.9530   -4.2584 C   0  0  0  0  0  0  0  0  0  0  0  0
   27.6156  -19.4473   -4.3749 C   0  0  0  0  0  0  0  0  0  0  0  0
   28.5380  -19.0833   -5.5122 C   0  0  1  0  0  0  0  0  0  0  0  0
   29.8533  -18.6758   -4.9290 C   0  0  0  0  0  0  0  0  0  0  0  0
   30.9259  -19.5480   -4.8954 O   0  0  0  0  0  0  0  0  0  0  0  0
   29.9584  -17.5301   -4.4760 O   0  0  0  0  0  0  0  0  0  0  0  0
  1  2  1  0
  3  4  1  6
  3  2  1  0
  5  3  1  0
  5  6  1  1
  7  8  2  0
  7  5  1  0
  9  7  1  0
 10  9  1  0
 11 10  1  0
 12 11  1  0
 12 13  1  0
 13 14  1  1
 13  9  1  0
 14 15  2  0
 16 17  1  0
 16 14  1  0
 18 17  1  0
 19 20  1  0
 19 18  1  0
 20 16  1  0
 20 21  1  1
 21 22  1  0
 23 21  2  0
M  END
$$$$
