IPP.pdb
     RDKit          3D

 23 24  0  0  1  0  0  0  0  0999 V2000
   22.4046  -17.2398  -16.1185 C   0  0  0  0  0  0  0  0  0  0  0  0
   23.6225  -18.1271  -16.0801 C   0  0  0  0  0  0  0  0  0  0  0  0
   23.9965  -18.5851  -14.7002 C   0  0  2  0  0  0  0  0  0  0  0  0
   25.2094  -17.7429  -14.2921 C   0  0  0  0  0  0  0  0  0  0  0  0
   24.3680  -20.0612  -14.6033 C   0  0  2  0  0  0  0  0  0  0  0  0
   23.0960  -20.7229  -15.0776 N   0  0  0  0  0  0  0  0  0  0  0  0
   24.6485  -20.5266  -13.2472 C   0  0  0  0  0  0  0  0  0  0  0  0
   23.6317  -20.7880  -12.5029 O   0  0  0  0  0  0  0  0  0  0  0  0
   25.8997  -20.7383  -12.6247 N   0  0  0  0  0  0  0  0  0  0  0  0
   27.1851  -20.3835  -13.1437 C   0  0  0  0  0  0  0  0  0  0  0  0
   28.1111  -21.4860  -12.7212 C   0  0  0  0  0  0  0  0  0  0  0  0
   27.3840  -22.1862  -11.6117 C   0  0  0  0  0  0  0  0  0  0  0  0
   26.1709  -21.3467  -11.3096 C   0  0  1  0  0  0  0  0  0  0  0  0
   26.3630  -20.3143  -10.3043 C   0  0  0  0  0  0  0  0  0  0  0  0
   26.5703  -19.1247  -10.7117 O   0  0  0  0  0  0  0  0  0  0  0  0
   26.3481  -20.4731   -8.8961 N   0  0  0  0  0  0  0  0  0  0  0  0
   26.2079  -21.7267   -8.2083 C   0  0  0  0  0  0  0  0  0  0  0  0
   25.3629  -21.3932   -7.0090 C   0  0  0  0  0  0  0  0  0  0  0  0
   25.5344  -19.9063   -6.7820 C   0  0  0  0  0  0  0  0  0  0  0  0
   26.4771  -19.4565   -7.8709 C   0  0  1  0  0  0  0  0  0  0  0  0
   27.8603  -19.4288   -7.3032 C   0  0  0  0  0  0  0  0  0  0  0  0
   28.2906  -18.3816   -6.5092 O   0  0  0  0  0  0  0  0  0  0  0  0
   28.6140  -20.3741   -7.5624 O   0  0  0  0  0  0  0  0  0  0  0  0
  1  2  1  0
  3  4  1  6
  3  2  1  0
  5  3  1  0
  5  6  1  1
  7  8  2  0
  7  5  1  0
  9  7  1  0
 10  9  1  0
 11 10  1  0
 12 11  1  0
 12 13  1  0
 13 14  1  1
 13  9  1  0
 14 15  2  0
 16 17  1  0
 16 14  1  0
 18 17  1  0
 19 20  1  0
 19 18  1  0
 20 16  1  0
 20 21  1  1
 21 22  1  0
 23 21  2  0
M  END
$$$$
