IPP.pdb
     RDKit          3D

 23 24  0  0  1  0  0  0  0  0999 V2000
   22.2577  -20.2323  -13.0429 C   0  0  0  0  0  0  0  0  0  0  0  0
   23.6571  -20.7580  -13.2359 C   0  0  0  0  0  0  0  0  0  0  0  0
   24.4089  -20.9679  -11.9533 C   0  0  2  0  0  0  0  0  0  0  0  0
   24.6838  -19.5688  -11.3935 C   0  0  0  0  0  0  0  0  0  0  0  0
   25.7356  -21.7034  -12.1117 C   0  0  2  0  0  0  0  0  0  0  0  0
   25.2769  -23.0382  -12.6493 N   0  0  0  0  0  0  0  0  0  0  0  0
   26.4517  -21.9355  -10.8596 C   0  0  0  0  0  0  0  0  0  0  0  0
   25.9776  -22.8440  -10.0813 O   0  0  0  0  0  0  0  0  0  0  0  0
   27.6143  -21.2958  -10.3728 N   0  0  0  0  0  0  0  0  0  0  0  0
   28.3671  -20.2719  -11.0304 C   0  0  0  0  0  0  0  0  0  0  0  0
   29.8040  -20.5488  -10.6984 C   0  0  0  0  0  0  0  0  0  0  0  0
   29.7482  -21.4625   -9.5101 C   0  0  0  0  0  0  0  0  0  0  0  0
   28.3036  -21.5146   -9.0882 C   0  0  1  0  0  0  0  0  0  0  0  0
   27.9012  -20.5075   -8.1200 C   0  0  0  0  0  0  0  0  0  0  0  0
   27.1229  -19.5812   -8.5204 O   0  0  0  0  0  0  0  0  0  0  0  0
   28.2775  -20.4284   -6.7560 N   0  0  0  0  0  0  0  0  0  0  0  0
   29.2484  -21.2733   -6.1173 C   0  0  0  0  0  0  0  0  0  0  0  0
   28.6860  -21.5003   -4.7405 C   0  0  0  0  0  0  0  0  0  0  0  0
   27.7363  -20.3492   -4.4859 C   0  0  0  0  0  0  0  0  0  0  0  0
   27.8013  -19.5116   -5.7392 C   0  0  1  0  0  0  0  0  0  0  0  0
   28.7782  -18.4038   -5.5052 C   0  0  0  0  0  0  0  0  0  0  0  0
   29.9861  -18.3568   -6.1767 O   0  0  0  0  0  0  0  0  0  0  0  0
   28.4750  -17.5236   -4.6914 O   0  0  0  0  0  0  0  0  0  0  0  0
  1  2  1  0
  3  4  1  6
  3  2  1  0
  5  3  1  0
  5  6  1  1
  7  8  2  0
  7  5  1  0
  9  7  1  0
 10  9  1  0
 11 10  1  0
 12 11  1  0
 12 13  1  0
 13 14  1  1
 13  9  1  0
 14 15  2  0
 16 17  1  0
 16 14  1  0
 18 17  1  0
 19 20  1  0
 19 18  1  0
 20 16  1  0
 20 21  1  1
 21 22  1  0
 23 21  2  0
M  END
$$$$
