IPP.pdb
     RDKit          3D

 23 24  0  0  1  0  0  0  0  0999 V2000
   22.3782  -20.3452  -13.0014 C   0  0  0  0  0  0  0  0  0  0  0  0
   23.8826  -20.3347  -13.0963 C   0  0  0  0  0  0  0  0  0  0  0  0
   24.5752  -20.5582  -11.7832 C   0  0  2  0  0  0  0  0  0  0  0  0
   25.0480  -19.1777  -11.3171 C   0  0  0  0  0  0  0  0  0  0  0  0
   25.7790  -21.4919  -11.8547 C   0  0  2  0  0  0  0  0  0  0  0  0
   25.1333  -22.7808  -12.3047 N   0  0  0  0  0  0  0  0  0  0  0  0
   26.4354  -21.7319  -10.5717 C   0  0  0  0  0  0  0  0  0  0  0  0
   25.8174  -22.4938   -9.7388 O   0  0  0  0  0  0  0  0  0  0  0  0
   27.6766  -21.2410  -10.1065 N   0  0  0  0  0  0  0  0  0  0  0  0
   28.5521  -20.3403  -10.7918 C   0  0  0  0  0  0  0  0  0  0  0  0
   29.9427  -20.7974  -10.4619 C   0  0  0  0  0  0  0  0  0  0  0  0
   29.7773  -21.6694   -9.2527 C   0  0  0  0  0  0  0  0  0  0  0  0
   28.3422  -21.5207   -8.8213 C   0  0  1  0  0  0  0  0  0  0  0  0
   28.0848  -20.4483   -7.8740 C   0  0  0  0  0  0  0  0  0  0  0  0
   27.4726  -19.4162   -8.3028 O   0  0  0  0  0  0  0  0  0  0  0  0
   28.4401  -20.4098   -6.5027 N   0  0  0  0  0  0  0  0  0  0  0  0
   29.2433  -21.3932   -5.8302 C   0  0  0  0  0  0  0  0  0  0  0  0
   28.6219  -21.5006   -4.4642 C   0  0  0  0  0  0  0  0  0  0  0  0
   27.8716  -20.2038   -4.2472 C   0  0  0  0  0  0  0  0  0  0  0  0
   28.1015  -19.4097   -5.5095 C   0  0  1  0  0  0  0  0  0  0  0  0
   29.2437  -18.4755   -5.2669 C   0  0  0  0  0  0  0  0  0  0  0  0
   29.1351  -17.4237   -4.3757 O   0  0  0  0  0  0  0  0  0  0  0  0
   30.2957  -18.6702   -5.8866 O   0  0  0  0  0  0  0  0  0  0  0  0
  1  2  1  0
  3  4  1  6
  3  2  1  0
  5  3  1  0
  5  6  1  1
  7  8  2  0
  7  5  1  0
  9  7  1  0
 10  9  1  0
 11 10  1  0
 12 11  1  0
 12 13  1  0
 13 14  1  1
 13  9  1  0
 14 15  2  0
 16 17  1  0
 16 14  1  0
 18 17  1  0
 19 20  1  0
 19 18  1  0
 20 16  1  0
 20 21  1  1
 21 22  1  0
 23 21  2  0
M  END
$$$$
