IPP.pdb
     RDKit          3D

 23 24  0  0  1  0  0  0  0  0999 V2000
   23.7844  -19.3625  -13.6365 C   0  0  0  0  0  0  0  0  0  0  0  0
   24.8691  -20.4033  -13.5260 C   0  0  0  0  0  0  0  0  0  0  0  0
   25.4607  -20.5197  -12.1511 C   0  0  2  0  0  0  0  0  0  0  0  0
   26.2559  -19.2300  -11.9252 C   0  0  0  0  0  0  0  0  0  0  0  0
   26.3936  -21.7117  -11.9635 C   0  0  2  0  0  0  0  0  0  0  0  0
   25.4709  -22.8669  -12.2719 N   0  0  0  0  0  0  0  0  0  0  0  0
   26.8963  -21.8779  -10.6018 C   0  0  0  0  0  0  0  0  0  0  0  0
   26.1213  -22.4776   -9.7677 O   0  0  0  0  0  0  0  0  0  0  0  0
   28.1364  -21.4700  -10.0597 N   0  0  0  0  0  0  0  0  0  0  0  0
   29.1509  -20.7083  -10.7216 C   0  0  0  0  0  0  0  0  0  0  0  0
   30.4570  -21.2656  -10.2368 C   0  0  0  0  0  0  0  0  0  0  0  0
   30.1054  -22.0249   -8.9918 C   0  0  0  0  0  0  0  0  0  0  0  0
   28.6609  -21.7122   -8.7036 C   0  0  1  0  0  0  0  0  0  0  0  0
   28.4318  -20.5521   -7.8577 C   0  0  0  0  0  0  0  0  0  0  0  0
   27.9890  -19.4943   -8.4135 O   0  0  0  0  0  0  0  0  0  0  0  0
   28.6462  -20.4521   -6.4604 N   0  0  0  0  0  0  0  0  0  0  0  0
   29.2896  -21.4493   -5.6506 C   0  0  0  0  0  0  0  0  0  0  0  0
   28.5243  -21.4181   -4.3557 C   0  0  0  0  0  0  0  0  0  0  0  0
   27.8685  -20.0550   -4.2947 C   0  0  0  0  0  0  0  0  0  0  0  0
   28.2935  -19.3657   -5.5679 C   0  0  1  0  0  0  0  0  0  0  0  0
   29.4798  -18.5101   -5.2569 C   0  0  0  0  0  0  0  0  0  0  0  0
   29.3532  -17.3452   -4.5226 O   0  0  0  0  0  0  0  0  0  0  0  0
   30.5850  -18.8746   -5.6747 O   0  0  0  0  0  0  0  0  0  0  0  0
  1  2  1  0
  3  4  1  6
  3  2  1  0
  5  3  1  0
  5  6  1  1
  7  8  2  0
  7  5  1  0
  9  7  1  0
 10  9  1  0
 11 10  1  0
 12 11  1  0
 12 13  1  0
 13 14  1  1
 13  9  1  0
 14 15  2  0
 16 17  1  0
 16 14  1  0
 18 17  1  0
 19 20  1  0
 19 18  1  0
 20 16  1  0
 20 21  1  1
 21 22  1  0
 23 21  2  0
M  END
$$$$
