EIM.pdb
     RDKit          3D

 26 25  0  0  1  0  0  0  0  0999 V2000
   23.2429  -13.2461  -19.4561 N   0  0  0  0  0  0  0  0  0  0  0  0
   22.0052  -13.0409  -18.7050 C   0  0  1  0  0  0  0  0  0  0  0  0
   21.5450  -14.3795  -18.2463 C   0  0  0  0  0  0  0  0  0  0  0  0
   21.1788  -15.3562  -19.3090 C   0  0  0  0  0  0  0  0  0  0  0  0
   20.1941  -14.8391  -20.2808 C   0  0  0  0  0  0  0  0  0  0  0  0
   20.5507  -14.4549  -21.4125 O   0  0  0  0  0  0  0  0  0  0  0  0
   22.2129  -12.0513  -17.6168 C   0  0  0  0  0  0  0  0  0  0  0  0
   21.4413  -11.9386  -16.6351 O   0  0  0  0  0  0  0  0  0  0  0  0
   18.8479  -14.7628  -19.9718 O   0  0  0  0  0  0  0  0  0  0  0  0
   26.8436  -11.3890  -15.1530 C   0  0  0  0  0  0  0  0  0  0  0  0
   25.3872  -11.4571  -15.5503 C   0  0  0  0  0  0  0  0  0  0  0  0
   24.9639  -10.1386  -16.1129 C   0  0  2  0  0  0  0  0  0  0  0  0
   25.0588   -9.0771  -15.0396 C   0  0  0  0  0  0  0  0  0  0  0  0
   23.5298  -10.1594  -16.5877 C   0  0  2  0  0  0  0  0  0  0  0  0
   23.3319  -11.1487  -17.6276 N   0  0  0  0  0  0  0  0  0  0  0  0
   23.0888   -8.8309  -17.1247 C   0  0  0  0  0  0  0  0  0  0  0  0
   23.7235   -8.2767  -18.0604 O   0  0  0  0  0  0  0  0  0  0  0  0
   16.7138   -5.7815  -16.2830 C   0  0  0  0  0  0  0  0  0  0  0  0
   17.5208   -5.7976  -17.8959 S   0  0  0  0  0  0  0  0  0  0  0  0
   19.3483   -5.5917  -17.7125 C   0  0  0  0  0  0  0  0  0  0  0  0
   19.9233   -6.9188  -17.2889 C   0  0  0  0  0  0  0  0  0  0  0  0
   21.4112   -6.9042  -17.0536 C   0  0  2  0  0  0  0  0  0  0  0  0
   21.9742   -8.1463  -16.6311 N   0  0  0  0  0  0  0  0  0  0  0  0
   21.6874   -5.9397  -15.9898 C   0  0  0  0  0  0  0  0  0  0  0  0
   21.7043   -6.3238  -14.7978 O   0  0  0  0  0  0  0  0  0  0  0  0
   21.9302   -4.6168  -16.2631 O   0  0  0  0  0  0  0  0  0  0  0  0
  2  1  1  1
  3  2  1  0
  4  3  1  0
  5  6  2  0
  5  4  1  0
  7  2  1  0
  7  8  2  0
  9  5  1  0
 10 11  1  0
 11 12  1  0
 12 14  1  0
 12 13  1  1
 14 15  1  6
 15  7  1  0
 16 14  1  0
 17 16  2  0
 19 18  1  0
 19 20  1  0
 20 21  1  0
 22 21  1  1
 22 24  1  0
 22 23  1  0
 23 16  1  0
 24 26  1  0
 25 24  2  0
M  END
$$$$
