EIM.pdb
     RDKit          3D

 26 25  0  0  1  0  0  0  0  0999 V2000
   22.7636  -23.1369  -14.6377 N   0  0  0  0  0  0  0  0  0  0  0  0
   22.8617  -21.9616  -13.7735 C   0  0  1  0  0  0  0  0  0  0  0  0
   21.6801  -21.9837  -12.8693 C   0  0  0  0  0  0  0  0  0  0  0  0
   20.3702  -21.6235  -13.4790 C   0  0  0  0  0  0  0  0  0  0  0  0
   20.3739  -20.3203  -14.1740 C   0  0  0  0  0  0  0  0  0  0  0  0
   20.1784  -19.2592  -13.5485 O   0  0  0  0  0  0  0  0  0  0  0  0
   24.1736  -21.9336  -13.0772 C   0  0  0  0  0  0  0  0  0  0  0  0
   24.7153  -22.9550  -12.5925 O   0  0  0  0  0  0  0  0  0  0  0  0
   20.5934  -20.2309  -15.5369 O   0  0  0  0  0  0  0  0  0  0  0  0
   28.3012  -18.7330  -14.7015 C   0  0  0  0  0  0  0  0  0  0  0  0
   27.4468  -19.8652  -14.1804 C   0  0  0  0  0  0  0  0  0  0  0  0
   27.0818  -19.5966  -12.7561 C   0  0  2  0  0  0  0  0  0  0  0  0
   28.3323  -19.5959  -11.9052 C   0  0  0  0  0  0  0  0  0  0  0  0
   26.1670  -20.6602  -12.1954 C   0  0  2  0  0  0  0  0  0  0  0  0
   24.9109  -20.7100  -12.9159 N   0  0  0  0  0  0  0  0  0  0  0  0
   25.8586  -20.4389  -10.7450 C   0  0  0  0  0  0  0  0  0  0  0  0
   24.8347  -19.7921  -10.4003 O   0  0  0  0  0  0  0  0  0  0  0  0
   30.5188  -21.4628   -6.4434 C   0  0  0  0  0  0  0  0  0  0  0  0
   29.3421  -20.7647   -5.2682 S   0  0  0  0  0  0  0  0  0  0  0  0
   27.6812  -20.5599   -6.0524 C   0  0  0  0  0  0  0  0  0  0  0  0
   27.8225  -20.8640   -7.5216 C   0  0  0  0  0  0  0  0  0  0  0  0
   26.5383  -20.7636   -8.3028 C   0  0  2  0  0  0  0  0  0  0  0  0
   26.6691  -20.9260   -9.7152 N   0  0  0  0  0  0  0  0  0  0  0  0
   25.9861  -19.4269   -8.0878 C   0  0  0  0  0  0  0  0  0  0  0  0
   26.4226  -18.4636   -8.7588 O   0  0  0  0  0  0  0  0  0  0  0  0
   24.9963  -19.1970   -7.1651 O   0  0  0  0  0  0  0  0  0  0  0  0
  2  1  1  1
  3  2  1  0
  4  3  1  0
  5  6  2  0
  5  4  1  0
  7  2  1  0
  7  8  2  0
  9  5  1  0
 10 11  1  0
 11 12  1  0
 12 14  1  0
 12 13  1  1
 14 15  1  6
 15  7  1  0
 16 14  1  0
 17 16  2  0
 19 18  1  0
 19 20  1  0
 20 21  1  0
 22 21  1  1
 22 24  1  0
 22 23  1  0
 23 16  1  0
 24 26  1  0
 25 24  2  0
M  END
$$$$
