EIM.pdb
     RDKit          3D

 26 25  0  0  1  0  0  0  0  0999 V2000
   17.4721  -11.6473  -14.7421 N   0  0  0  0  0  0  0  0  0  0  0  0
   17.0991  -10.2357  -14.6636 C   0  0  1  0  0  0  0  0  0  0  0  0
   15.6310  -10.1579  -14.8926 C   0  0  0  0  0  0  0  0  0  0  0  0
   15.1559  -10.4690  -16.2691 C   0  0  0  0  0  0  0  0  0  0  0  0
   13.6934  -10.3495  -16.4367 C   0  0  0  0  0  0  0  0  0  0  0  0
   12.9537  -10.1076  -15.4622 O   0  0  0  0  0  0  0  0  0  0  0  0
   17.5576   -9.6452  -13.3799 C   0  0  0  0  0  0  0  0  0  0  0  0
   17.5984  -10.2882  -12.3044 O   0  0  0  0  0  0  0  0  0  0  0  0
   13.0950  -10.5011  -17.6748 O   0  0  0  0  0  0  0  0  0  0  0  0
   22.0849   -6.9058  -12.9999 C   0  0  0  0  0  0  0  0  0  0  0  0
   20.8401   -7.7473  -12.8397 C   0  0  0  0  0  0  0  0  0  0  0  0
   19.7395   -6.9043  -12.2810 C   0  0  2  0  0  0  0  0  0  0  0  0
   20.1576   -6.3536  -10.9358 C   0  0  0  0  0  0  0  0  0  0  0  0
   18.4741   -7.6992  -12.0587 C   0  0  2  0  0  0  0  0  0  0  0  0
   17.9884   -8.2762  -13.2958 N   0  0  0  0  0  0  0  0  0  0  0  0
   17.3733   -6.8653  -11.4750 C   0  0  0  0  0  0  0  0  0  0  0  0
   16.8479   -5.9389  -12.1467 O   0  0  0  0  0  0  0  0  0  0  0  0
   11.8177   -7.0990   -5.7115 C   0  0  0  0  0  0  0  0  0  0  0  0
   13.2317   -7.8226   -6.5658 S   0  0  0  0  0  0  0  0  0  0  0  0
   13.9574   -6.6160   -7.7629 C   0  0  0  0  0  0  0  0  0  0  0  0
   15.0719   -7.3107   -8.5020 C   0  0  0  0  0  0  0  0  0  0  0  0
   15.7552   -6.4581   -9.5390 C   0  0  2  0  0  0  0  0  0  0  0  0
   16.8771   -7.0625  -10.1829 N   0  0  0  0  0  0  0  0  0  0  0  0
   16.2562   -5.2569   -8.8727 C   0  0  0  0  0  0  0  0  0  0  0  0
   17.4431   -5.2219   -8.4741 O   0  0  0  0  0  0  0  0  0  0  0  0
   15.4569   -4.1597   -8.6705 O   0  0  0  0  0  0  0  0  0  0  0  0
  2  1  1  1
  3  2  1  0
  4  3  1  0
  5  6  2  0
  5  4  1  0
  7  2  1  0
  7  8  2  0
  9  5  1  0
 10 11  1  0
 11 12  1  0
 12 14  1  0
 12 13  1  1
 14 15  1  6
 15  7  1  0
 16 14  1  0
 17 16  2  0
 19 18  1  0
 19 20  1  0
 20 21  1  0
 22 21  1  1
 22 24  1  0
 22 23  1  0
 23 16  1  0
 24 26  1  0
 25 24  2  0
M  END
$$$$
