EIM.pdb
     RDKit          3D

 26 25  0  0  1  0  0  0  0  0999 V2000
   26.0883  -17.0670  -16.8635 N   0  0  0  0  0  0  0  0  0  0  0  0
   26.7708  -17.9628  -15.9309 C   0  0  1  0  0  0  0  0  0  0  0  0
   28.1121  -17.3766  -15.6637 C   0  0  0  0  0  0  0  0  0  0  0  0
   29.0331  -17.2667  -16.8285 C   0  0  0  0  0  0  0  0  0  0  0  0
   29.3312  -18.5595  -17.4774 C   0  0  0  0  0  0  0  0  0  0  0  0
   29.4065  -18.6519  -18.7188 O   0  0  0  0  0  0  0  0  0  0  0  0
   25.9405  -18.1865  -14.7196 C   0  0  0  0  0  0  0  0  0  0  0  0
   25.3094  -17.2705  -14.1413 O   0  0  0  0  0  0  0  0  0  0  0  0
   29.5364  -19.7084  -16.7347 O   0  0  0  0  0  0  0  0  0  0  0  0
   21.6076  -21.6325  -12.8141 C   0  0  0  0  0  0  0  0  0  0  0  0
   22.7835  -20.8249  -12.3156 C   0  0  0  0  0  0  0  0  0  0  0  0
   23.7322  -20.5807  -13.4445 C   0  0  2  0  0  0  0  0  0  0  0  0
   24.2779  -21.9011  -13.9409 C   0  0  0  0  0  0  0  0  0  0  0  0
   24.9169  -19.7456  -13.0184 C   0  0  2  0  0  0  0  0  0  0  0  0
   25.8110  -19.4912  -14.1298 N   0  0  0  0  0  0  0  0  0  0  0  0
   25.7110  -20.3991  -11.9275 C   0  0  0  0  0  0  0  0  0  0  0  0
   26.4472  -21.3895  -12.1778 O   0  0  0  0  0  0  0  0  0  0  0  0
   29.2100  -17.9927   -6.9821 C   0  0  0  0  0  0  0  0  0  0  0  0
   28.0357  -19.0143   -6.0709 S   0  0  0  0  0  0  0  0  0  0  0  0
   27.3165  -20.3166   -7.1676 C   0  0  0  0  0  0  0  0  0  0  0  0
   26.8232  -19.6439   -8.4226 C   0  0  0  0  0  0  0  0  0  0  0  0
   26.2020  -20.5804   -9.4259 C   0  0  2  0  0  0  0  0  0  0  0  0
   25.6823  -19.9581  -10.6011 N   0  0  0  0  0  0  0  0  0  0  0  0
   25.0750  -21.2491   -8.7772 C   0  0  0  0  0  0  0  0  0  0  0  0
   23.9139  -20.8145   -8.9553 O   0  0  0  0  0  0  0  0  0  0  0  0
   25.2554  -22.3468   -7.9732 O   0  0  0  0  0  0  0  0  0  0  0  0
  2  1  1  6
  3  2  1  0
  4  3  1  0
  5  6  2  0
  5  4  1  0
  7  2  1  0
  7  8  2  0
  9  5  1  0
 10 11  1  0
 11 12  1  0
 12 14  1  0
 12 13  1  1
 14 15  1  6
 15  7  1  0
 16 14  1  0
 17 16  2  0
 19 18  1  0
 19 20  1  0
 20 21  1  0
 22 21  1  1
 22 24  1  0
 22 23  1  0
 23 16  1  0
 24 26  1  0
 25 24  2  0
M  END
$$$$
