EIM.pdb
     RDKit          3D

 26 25  0  0  1  0  0  0  0  0999 V2000
   12.6422  -10.2176  -11.3587 N   0  0  0  0  0  0  0  0  0  0  0  0
   14.0643  -10.0267  -11.0776 C   0  0  1  0  0  0  0  0  0  0  0  0
   14.8202  -10.7537  -12.1332 C   0  0  0  0  0  0  0  0  0  0  0  0
   14.7613  -12.2408  -12.0877 C   0  0  0  0  0  0  0  0  0  0  0  0
   15.4320  -12.8286  -10.9104 C   0  0  0  0  0  0  0  0  0  0  0  0
   16.6053  -12.5209  -10.6204 O   0  0  0  0  0  0  0  0  0  0  0  0
   14.3859   -8.5804  -10.9708 C   0  0  0  0  0  0  0  0  0  0  0  0
   13.9566   -7.7206  -11.7759 O   0  0  0  0  0  0  0  0  0  0  0  0
   14.7856  -13.7372  -10.0915 O   0  0  0  0  0  0  0  0  0  0  0  0
   13.3442   -5.7115   -6.8055 C   0  0  0  0  0  0  0  0  0  0  0  0
   13.6576   -6.1514   -8.2167 C   0  0  0  0  0  0  0  0  0  0  0  0
   15.1380   -6.1421   -8.4225 C   0  0  2  0  0  0  0  0  0  0  0  0
   15.6523   -4.7227   -8.3294 C   0  0  0  0  0  0  0  0  0  0  0  0
   15.5237   -6.6628   -9.7872 C   0  0  2  0  0  0  0  0  0  0  0  0
   15.2240   -8.0743   -9.9181 N   0  0  0  0  0  0  0  0  0  0  0  0
   16.9820   -6.4717  -10.0780 C   0  0  0  0  0  0  0  0  0  0  0  0
   17.8542   -6.8661   -9.2600 O   0  0  0  0  0  0  0  0  0  0  0  0
   22.7474   -8.3350  -14.6213 C   0  0  0  0  0  0  0  0  0  0  0  0
   21.0493   -8.3736  -14.0148 S   0  0  0  0  0  0  0  0  0  0  0  0
   20.6580   -6.8315  -13.0742 C   0  0  0  0  0  0  0  0  0  0  0  0
   19.2544   -6.9585  -12.5407 C   0  0  0  0  0  0  0  0  0  0  0  0
   18.7795   -5.7660  -11.7522 C   0  0  2  0  0  0  0  0  0  0  0  0
   17.4480   -5.8603  -11.2458 N   0  0  0  0  0  0  0  0  0  0  0  0
   18.8054   -4.6033  -12.6384 C   0  0  0  0  0  0  0  0  0  0  0  0
   17.7633   -4.2678  -13.2468 O   0  0  0  0  0  0  0  0  0  0  0  0
   19.9474   -3.8647  -12.8234 O   0  0  0  0  0  0  0  0  0  0  0  0
  2  1  1  6
  3  2  1  0
  4  3  1  0
  5  6  2  0
  5  4  1  0
  7  2  1  0
  7  8  2  0
  9  5  1  0
 10 11  1  0
 11 12  1  0
 12 14  1  0
 12 13  1  6
 14 15  1  1
 15  7  1  0
 16 14  1  0
 17 16  2  0
 19 18  1  0
 19 20  1  0
 20 21  1  0
 22 21  1  6
 22 24  1  0
 22 23  1  0
 23 16  1  0
 24 26  1  0
 25 24  2  0
M  END
$$$$
