EIM.pdb
     RDKit          3D

 26 25  0  0  1  0  0  0  0  0999 V2000
   22.7174  -19.1994  -16.9424 N   0  0  0  0  0  0  0  0  0  0  0  0
   23.1315  -19.0972  -15.5439 C   0  0  1  0  0  0  0  0  0  0  0  0
   21.9397  -19.4122  -14.7106 C   0  0  0  0  0  0  0  0  0  0  0  0
   20.8728  -20.2250  -15.3575 C   0  0  0  0  0  0  0  0  0  0  0  0
   19.7207  -20.5060  -14.4773 C   0  0  0  0  0  0  0  0  0  0  0  0
   18.6104  -19.9774  -14.6854 O   0  0  0  0  0  0  0  0  0  0  0  0
   24.3132  -19.9593  -15.2849 C   0  0  0  0  0  0  0  0  0  0  0  0
   24.5693  -20.9907  -15.9501 O   0  0  0  0  0  0  0  0  0  0  0  0
   19.8315  -21.3615  -13.3958 O   0  0  0  0  0  0  0  0  0  0  0  0
   28.9890  -17.7262  -15.1469 C   0  0  0  0  0  0  0  0  0  0  0  0
   27.8141  -18.6674  -15.2787 C   0  0  0  0  0  0  0  0  0  0  0  0
   27.6771  -19.4689  -14.0246 C   0  0  2  0  0  0  0  0  0  0  0  0
   28.9023  -20.3372  -13.8431 C   0  0  0  0  0  0  0  0  0  0  0  0
   26.4834  -20.3939  -14.0709 C   0  0  2  0  0  0  0  0  0  0  0  0
   25.2484  -19.6546  -14.2364 N   0  0  0  0  0  0  0  0  0  0  0  0
   26.3602  -21.2266  -12.8303 C   0  0  0  0  0  0  0  0  0  0  0  0
   27.2954  -21.9931  -12.4791 O   0  0  0  0  0  0  0  0  0  0  0  0
   28.8444  -19.8365   -8.0054 C   0  0  0  0  0  0  0  0  0  0  0  0
   27.2107  -19.1434   -7.6834 S   0  0  0  0  0  0  0  0  0  0  0  0
   25.8909  -20.2375   -8.3738 C   0  0  0  0  0  0  0  0  0  0  0  0
   25.9996  -20.2022   -9.8764 C   0  0  0  0  0  0  0  0  0  0  0  0
   25.1389  -21.2151  -10.5853 C   0  0  2  0  0  0  0  0  0  0  0  0
   25.2283  -21.2013  -12.0102 N   0  0  0  0  0  0  0  0  0  0  0  0
   23.7439  -20.9284  -10.2539 C   0  0  0  0  0  0  0  0  0  0  0  0
   23.0186  -20.3432  -11.0906 O   0  0  0  0  0  0  0  0  0  0  0  0
   23.2038  -21.2851   -9.0436 O   0  0  0  0  0  0  0  0  0  0  0  0
  2  1  1  6
  3  2  1  0
  4  3  1  0
  5  6  2  0
  5  4  1  0
  7  2  1  0
  7  8  2  0
  9  5  1  0
 10 11  1  0
 11 12  1  0
 12 14  1  0
 12 13  1  6
 14 15  1  1
 15  7  1  0
 16 14  1  0
 17 16  2  0
 19 18  1  0
 19 20  1  0
 20 21  1  0
 22 21  1  1
 22 24  1  0
 22 23  1  0
 23 16  1  0
 24 26  1  0
 25 24  2  0
M  END
$$$$
