EIM.pdb
     RDKit          3D

 26 25  0  0  1  0  0  0  0  0999 V2000
   26.3283  -23.8364  -16.4945 N   0  0  0  0  0  0  0  0  0  0  0  0
   25.7564  -22.5268  -16.1847 C   0  0  1  0  0  0  0  0  0  0  0  0
   24.8786  -22.1518  -17.3261 C   0  0  0  0  0  0  0  0  0  0  0  0
   25.5624  -21.7078  -18.5721 C   0  0  0  0  0  0  0  0  0  0  0  0
   26.2931  -20.4323  -18.4294 C   0  0  0  0  0  0  0  0  0  0  0  0
   25.7013  -19.3885  -18.0891 O   0  0  0  0  0  0  0  0  0  0  0  0
   25.0771  -22.5531  -14.8639 C   0  0  0  0  0  0  0  0  0  0  0  0
   24.4605  -23.5543  -14.4290 O   0  0  0  0  0  0  0  0  0  0  0  0
   27.6535  -20.3504  -18.6671 O   0  0  0  0  0  0  0  0  0  0  0  0
   27.3548  -20.5911  -10.3946 C   0  0  0  0  0  0  0  0  0  0  0  0
   26.5407  -21.4082  -11.3707 C   0  0  0  0  0  0  0  0  0  0  0  0
   25.2550  -20.7022  -11.6579 C   0  0  2  0  0  0  0  0  0  0  0  0
   24.4189  -20.6424  -10.3989 C   0  0  0  0  0  0  0  0  0  0  0  0
   24.4329  -21.4239  -12.7000 C   0  0  2  0  0  0  0  0  0  0  0  0
   25.0878  -21.4098  -13.9924 N   0  0  0  0  0  0  0  0  0  0  0  0
   23.0700  -20.8218  -12.8668 C   0  0  0  0  0  0  0  0  0  0  0  0
   22.9404  -19.6070  -13.1717 O   0  0  0  0  0  0  0  0  0  0  0  0
   15.4478  -22.2478  -13.6839 C   0  0  0  0  0  0  0  0  0  0  0  0
   17.0658  -22.9253  -13.2642 S   0  0  0  0  0  0  0  0  0  0  0  0
   18.0876  -21.6687  -12.3739 C   0  0  0  0  0  0  0  0  0  0  0  0
   19.5122  -22.1599  -12.3551 C   0  0  0  0  0  0  0  0  0  0  0  0
   20.5363  -21.1072  -12.6904 C   0  0  2  0  0  0  0  0  0  0  0  0
   21.8918  -21.5555  -12.6984 N   0  0  0  0  0  0  0  0  0  0  0  0
   20.4515  -20.0593  -11.6743 C   0  0  0  0  0  0  0  0  0  0  0  0
   21.0768  -20.1920  -10.5972 O   0  0  0  0  0  0  0  0  0  0  0  0
   19.7007  -18.9270  -11.8692 O   0  0  0  0  0  0  0  0  0  0  0  0
  2  1  1  6
  3  2  1  0
  4  3  1  0
  5  6  2  0
  5  4  1  0
  7  2  1  0
  7  8  2  0
  9  5  1  0
 10 11  1  0
 11 12  1  0
 12 14  1  0
 12 13  1  1
 14 15  1  6
 15  7  1  0
 16 14  1  0
 17 16  2  0
 19 18  1  0
 19 20  1  0
 20 21  1  0
 22 21  1  1
 22 24  1  0
 22 23  1  0
 23 16  1  0
 24 26  1  0
 25 24  2  0
M  END
$$$$
