EIM.pdb
     RDKit          3D

 26 25  0  0  1  0  0  0  0  0999 V2000
   20.2155  -20.6271  -12.3530 N   0  0  0  0  0  0  0  0  0  0  0  0
   21.1819  -21.2970  -13.2220 C   0  0  1  0  0  0  0  0  0  0  0  0
   20.5878  -21.3396  -14.5856 C   0  0  0  0  0  0  0  0  0  0  0  0
   19.4474  -22.2762  -14.7844 C   0  0  0  0  0  0  0  0  0  0  0  0
   18.2690  -21.9670  -13.9496 C   0  0  0  0  0  0  0  0  0  0  0  0
   17.6649  -20.8825  -14.0691 O   0  0  0  0  0  0  0  0  0  0  0  0
   22.5057  -20.6276  -13.1442 C   0  0  0  0  0  0  0  0  0  0  0  0
   22.6972  -19.4415  -13.5023 O   0  0  0  0  0  0  0  0  0  0  0  0
   17.7958  -22.8651  -13.0098 O   0  0  0  0  0  0  0  0  0  0  0  0
   25.8068  -20.9094   -8.9011 C   0  0  0  0  0  0  0  0  0  0  0  0
   25.0900  -20.4265  -10.1407 C   0  0  0  0  0  0  0  0  0  0  0  0
   25.7206  -21.0393  -11.3493 C   0  0  2  0  0  0  0  0  0  0  0  0
   27.1287  -20.5104  -11.5080 C   0  0  0  0  0  0  0  0  0  0  0  0
   24.9733  -20.6925  -12.6157 C   0  0  2  0  0  0  0  0  0  0  0  0
   23.6653  -21.3150  -12.6446 N   0  0  0  0  0  0  0  0  0  0  0  0
   25.7140  -21.1174  -13.8480 C   0  0  0  0  0  0  0  0  0  0  0  0
   25.7952  -22.3352  -14.1573 O   0  0  0  0  0  0  0  0  0  0  0  0
   27.7745  -16.5117  -17.9430 C   0  0  0  0  0  0  0  0  0  0  0  0
   28.7336  -17.8566  -18.6673 S   0  0  0  0  0  0  0  0  0  0  0  0
   28.2247  -19.4811  -17.9479 C   0  0  0  0  0  0  0  0  0  0  0  0
   27.4808  -19.2070  -16.6663 C   0  0  0  0  0  0  0  0  0  0  0  0
   27.0031  -20.4427  -15.9492 C   0  0  2  0  0  0  0  0  0  0  0  0
   26.3419  -20.2090  -14.7056 N   0  0  0  0  0  0  0  0  0  0  0  0
   28.1727  -21.2673  -15.6491 C   0  0  0  0  0  0  0  0  0  0  0  0
   28.8477  -21.0300  -14.6210 O   0  0  0  0  0  0  0  0  0  0  0  0
   28.5540  -22.3005  -16.4680 O   0  0  0  0  0  0  0  0  0  0  0  0
  2  1  1  1
  3  2  1  0
  4  3  1  0
  5  6  2  0
  5  4  1  0
  7  2  1  0
  7  8  2  0
  9  5  1  0
 10 11  1  0
 11 12  1  0
 12 14  1  0
 12 13  1  6
 14 15  1  1
 15  7  1  0
 16 14  1  0
 17 16  2  0
 19 18  1  0
 19 20  1  0
 20 21  1  0
 22 21  1  1
 22 24  1  0
 22 23  1  0
 23 16  1  0
 24 26  1  0
 25 24  2  0
M  END
$$$$
