EIM.pdb
     RDKit          3D

 26 25  0  0  1  0  0  0  0  0999 V2000
   24.2992  -18.2117  -18.3854 N   0  0  0  0  0  0  0  0  0  0  0  0
   25.3434  -18.5789  -17.4300 C   0  0  1  0  0  0  0  0  0  0  0  0
   26.4815  -17.6449  -17.6457 C   0  0  0  0  0  0  0  0  0  0  0  0
   27.3427  -17.9097  -18.8311 C   0  0  0  0  0  0  0  0  0  0  0  0
   28.0408  -19.2103  -18.7827 C   0  0  0  0  0  0  0  0  0  0  0  0
   27.5232  -20.2348  -19.2706 O   0  0  0  0  0  0  0  0  0  0  0  0
   24.8044  -18.5887  -16.0458 C   0  0  0  0  0  0  0  0  0  0  0  0
   24.6902  -17.5545  -15.3463 O   0  0  0  0  0  0  0  0  0  0  0  0
   29.2878  -19.3378  -18.1972 O   0  0  0  0  0  0  0  0  0  0  0  0
   20.0257  -19.8285  -14.8525 C   0  0  0  0  0  0  0  0  0  0  0  0
   21.4477  -19.3176  -14.8657 C   0  0  0  0  0  0  0  0  0  0  0  0
   22.3332  -20.2957  -14.1635 C   0  0  2  0  0  0  0  0  0  0  0  0
   21.8636  -20.4686  -12.7361 C   0  0  0  0  0  0  0  0  0  0  0  0
   23.7660  -19.8205  -14.1023 C   0  0  2  0  0  0  0  0  0  0  0  0
   24.3751  -19.8082  -15.4169 N   0  0  0  0  0  0  0  0  0  0  0  0
   24.6123  -20.6776  -13.2096 C   0  0  0  0  0  0  0  0  0  0  0  0
   24.9128  -21.8525  -13.5486 O   0  0  0  0  0  0  0  0  0  0  0  0
   26.9587  -18.0334   -7.8080 C   0  0  0  0  0  0  0  0  0  0  0  0
   27.6821  -19.6584   -7.5098 S   0  0  0  0  0  0  0  0  0  0  0  0
   27.1803  -20.8479   -8.8323 C   0  0  0  0  0  0  0  0  0  0  0  0
   26.4096  -20.0814   -9.8760 C   0  0  0  0  0  0  0  0  0  0  0  0
   25.9126  -20.9221  -11.0230 C   0  0  2  0  0  0  0  0  0  0  0  0
   25.1061  -20.2339  -11.9792 N   0  0  0  0  0  0  0  0  0  0  0  0
   25.0806  -21.9893  -10.4691 C   0  0  0  0  0  0  0  0  0  0  0  0
   23.8706  -21.7686  -10.2325 O   0  0  0  0  0  0  0  0  0  0  0  0
   25.5920  -23.2340  -10.1995 O   0  0  0  0  0  0  0  0  0  0  0  0
  2  1  1  6
  3  2  1  0
  4  3  1  0
  5  6  2  0
  5  4  1  0
  7  2  1  0
  7  8  2  0
  9  5  1  0
 10 11  1  0
 11 12  1  0
 12 14  1  0
 12 13  1  1
 14 15  1  6
 15  7  1  0
 16 14  1  0
 17 16  2  0
 19 18  1  0
 19 20  1  0
 20 21  1  0
 22 21  1  1
 22 24  1  0
 22 23  1  0
 23 16  1  0
 24 26  1  0
 25 24  2  0
M  END
$$$$
