YVE.pdb
     RDKit          3D

 29 29  0  0  1  0  0  0  0  0999 V2000
   10.4597  -14.7201   30.3869 O   0  0  0  0  0  0  0  0  0  0  0  0
   10.2253  -14.8820   29.0209 C   0  0  0  0  0  0  0  0  0  0  0  0
   10.5856  -16.0707   28.3860 C   0  0  0  0  0  0  0  0  0  0  0  0
   10.3561  -16.2391   27.0292 C   0  0  0  0  0  0  0  0  0  0  0  0
    9.7737  -15.2597   26.2627 C   0  0  0  0  0  0  0  0  0  0  0  0
    9.5280  -15.4425   24.8061 C   0  0  0  0  0  0  0  0  0  0  0  0
    8.0771  -15.1162   24.4427 C   0  0  2  0  0  0  0  0  0  0  0  0
    7.2781  -16.1344   25.0929 N   0  0  0  0  0  0  0  0  0  0  0  0
    7.9993  -15.2604   22.9627 C   0  0  0  0  0  0  0  0  0  0  0  0
    7.5127  -16.3401   22.5167 O   0  0  0  0  0  0  0  0  0  0  0  0
    9.4138  -14.0759   26.8904 C   0  0  0  0  0  0  0  0  0  0  0  0
    9.6450  -13.9122   28.2457 C   0  0  0  0  0  0  0  0  0  0  0  0
    7.9921  -13.3203   18.4540 C   0  0  0  0  0  0  0  0  0  0  0  0
    8.2421  -13.2104   19.9123 C   0  0  1  0  0  0  0  0  0  0  0  0
    7.1610  -12.3102   20.5088 C   0  0  0  0  0  0  0  0  0  0  0  0
    8.3176  -14.5223   20.6303 C   0  0  2  0  0  0  0  0  0  0  0  0
    8.4438  -14.2484   22.0800 N   0  0  0  0  0  0  0  0  0  0  0  0
    9.4687  -15.3151   20.1959 C   0  0  0  0  0  0  0  0  0  0  0  0
    9.5377  -15.8044   19.0132 O   0  0  0  0  0  0  0  0  0  0  0  0
   10.5607  -15.5780   21.0390 N   0  0  0  0  0  0  0  0  0  0  0  0
   11.6384  -16.4939   20.5892 C   0  0  1  0  0  0  0  0  0  0  0  0
   12.9098  -15.7062   20.4422 C   0  0  0  0  0  0  0  0  0  0  0  0
   13.0501  -15.1873   19.0438 C   0  0  0  0  0  0  0  0  0  0  0  0
   14.4370  -14.6739   18.8801 C   0  0  0  0  0  0  0  0  0  0  0  0
   15.4652  -15.2752   19.2507 O   0  0  0  0  0  0  0  0  0  0  0  0
   11.7597  -17.5380   21.6034 C   0  0  0  0  0  0  0  0  0  0  0  0
   11.0745  -17.5183   22.6445 O   0  0  0  0  0  0  0  0  0  0  0  0
   14.6368  -13.4244   18.2675 O   0  0  0  0  0  0  0  0  0  0  0  0
   12.6364  -18.5964   21.4576 O   0  0  0  0  0  0  0  0  0  0  0  0
  2  1  1  0
  2 12  2  0
  3  2  1  0
  4  3  2  0
  4  5  1  0
  5 11  2  0
  6  5  1  0
  6  7  1  0
  7  8  1  1
  9  7  1  0
  9 17  1  0
 10  9  2  0
 11 12  1  0
 14 13  1  6
 14 15  1  0
 16 17  1  1
 16 14  1  0
 18 16  1  0
 19 18  2  0
 20 18  1  0
 21 20  1  0
 21 22  1  1
 23 22  1  0
 23 24  1  0
 24 25  2  0
 26 21  1  0
 27 26  2  0
 28 24  1  0
 29 26  1  0
M  END
$$$$
