YVE.pdb
     RDKit          3D

 29 29  0  0  1  0  0  0  0  0999 V2000
    7.3010  -14.1493   15.3634 O   0  0  0  0  0  0  0  0  0  0  0  0
    7.6786  -14.0614   16.7038 C   0  0  0  0  0  0  0  0  0  0  0  0
    8.5598  -14.9980   17.2445 C   0  0  0  0  0  0  0  0  0  0  0  0
    8.9397  -14.9175   18.5753 C   0  0  0  0  0  0  0  0  0  0  0  0
    8.4734  -13.9288   19.4066 C   0  0  0  0  0  0  0  0  0  0  0  0
    8.8825  -13.8439   20.8352 C   0  0  0  0  0  0  0  0  0  0  0  0
    8.2559  -14.9713   21.6599 C   0  0  2  0  0  0  0  0  0  0  0  0
    6.8296  -14.8718   21.4284 N   0  0  0  0  0  0  0  0  0  0  0  0
    8.5765  -14.6478   23.0775 C   0  0  0  0  0  0  0  0  0  0  0  0
    9.8016  -14.5703   23.3851 O   0  0  0  0  0  0  0  0  0  0  0  0
    7.5968  -12.9952   18.8727 C   0  0  0  0  0  0  0  0  0  0  0  0
    7.2201  -13.0797   17.5430 C   0  0  0  0  0  0  0  0  0  0  0  0
    7.2736  -13.0453   27.5444 C   0  0  0  0  0  0  0  0  0  0  0  0
    6.9448  -13.4207   26.1472 C   0  0  1  0  0  0  0  0  0  0  0  0
    6.5643  -12.1465   25.3944 C   0  0  0  0  0  0  0  0  0  0  0  0
    8.0260  -14.1733   25.4352 C   0  0  2  0  0  0  0  0  0  0  0  0
    7.5718  -14.4336   24.0500 N   0  0  0  0  0  0  0  0  0  0  0  0
    8.3188  -15.4513   26.0858 C   0  0  0  0  0  0  0  0  0  0  0  0
    7.4146  -16.3459   26.2435 O   0  0  0  0  0  0  0  0  0  0  0  0
    9.5990  -15.7742   26.5646 N   0  0  0  0  0  0  0  0  0  0  0  0
    9.8905  -17.1557   27.0219 C   0  0  1  0  0  0  0  0  0  0  0  0
   11.0702  -17.6791   26.2519 C   0  0  0  0  0  0  0  0  0  0  0  0
   11.5077  -19.0054   26.7943 C   0  0  0  0  0  0  0  0  0  0  0  0
   12.6967  -19.4506   26.0185 C   0  0  0  0  0  0  0  0  0  0  0  0
   12.7059  -19.6551   24.7880 O   0  0  0  0  0  0  0  0  0  0  0  0
   10.1664  -17.0800   28.4544 C   0  0  0  0  0  0  0  0  0  0  0  0
   10.0239  -18.0695   29.1988 O   0  0  0  0  0  0  0  0  0  0  0  0
   13.9123  -19.6651   26.6913 O   0  0  0  0  0  0  0  0  0  0  0  0
   10.5991  -15.9113   29.0518 O   0  0  0  0  0  0  0  0  0  0  0  0
  2  1  1  0
  2 12  2  0
  3  2  1  0
  4  3  2  0
  4  5  1  0
  5 11  2  0
  6  5  1  0
  6  7  1  0
  7  8  1  1
  9  7  1  0
  9 17  1  0
 10  9  2  0
 11 12  1  0
 14 13  1  1
 14 15  1  0
 16 17  1  6
 16 14  1  0
 18 16  1  0
 19 18  2  0
 20 18  1  0
 21 20  1  0
 21 22  1  6
 23 22  1  0
 23 24  1  0
 24 25  2  0
 26 21  1  0
 27 26  2  0
 28 24  1  0
 29 26  1  0
M  END
$$$$
