YVE.pdb
     RDKit          3D

 29 29  0  0  1  0  0  0  0  0999 V2000
    5.6915  -10.0883   27.4182 O   0  0  0  0  0  0  0  0  0  0  0  0
    6.1399  -11.3690   27.0929 C   0  0  0  0  0  0  0  0  0  0  0  0
    6.7976  -11.5931   25.8833 C   0  0  0  0  0  0  0  0  0  0  0  0
    7.2461  -12.8626   25.5530 C   0  0  0  0  0  0  0  0  0  0  0  0
    7.0657  -13.9381   26.3878 C   0  0  0  0  0  0  0  0  0  0  0  0
    7.5480  -15.3004   26.0313 C   0  0  0  0  0  0  0  0  0  0  0  0
    6.6405  -15.9547   24.9863 C   0  0  2  0  0  0  0  0  0  0  0  0
    6.2822  -17.2444   25.5397 N   0  0  0  0  0  0  0  0  0  0  0  0
    7.4919  -16.1260   23.7768 C   0  0  0  0  0  0  0  0  0  0  0  0
    8.1571  -17.1992   23.6912 O   0  0  0  0  0  0  0  0  0  0  0  0
    6.4119  -13.7195   27.5918 C   0  0  0  0  0  0  0  0  0  0  0  0
    5.9658  -12.4498   27.9175 C   0  0  0  0  0  0  0  0  0  0  0  0
    8.9043  -14.6056   19.2744 C   0  0  0  0  0  0  0  0  0  0  0  0
    8.1691  -14.4001   20.5465 C   0  0  1  0  0  0  0  0  0  0  0  0
    6.6914  -14.2043   20.2101 C   0  0  0  0  0  0  0  0  0  0  0  0
    8.3595  -15.4886   21.5570 C   0  0  2  0  0  0  0  0  0  0  0  0
    7.5667  -15.1458   22.7597 N   0  0  0  0  0  0  0  0  0  0  0  0
    9.7642  -15.6350   21.9414 C   0  0  0  0  0  0  0  0  0  0  0  0
   10.3081  -14.8570   22.8026 O   0  0  0  0  0  0  0  0  0  0  0  0
   10.5907  -16.6334   21.4004 N   0  0  0  0  0  0  0  0  0  0  0  0
   11.9455  -16.8570   21.9636 C   0  0  1  0  0  0  0  0  0  0  0  0
   11.8770  -17.9914   22.9470 C   0  0  0  0  0  0  0  0  0  0  0  0
   13.2294  -18.2660   23.5303 C   0  0  0  0  0  0  0  0  0  0  0  0
   13.1050  -19.4240   24.4562 C   0  0  0  0  0  0  0  0  0  0  0  0
   12.0415  -20.0303   24.6962 O   0  0  0  0  0  0  0  0  0  0  0  0
   12.8275  -17.1635   20.8403 C   0  0  0  0  0  0  0  0  0  0  0  0
   12.3977  -17.7045   19.8028 O   0  0  0  0  0  0  0  0  0  0  0  0
   14.2498  -19.8929   25.1241 O   0  0  0  0  0  0  0  0  0  0  0  0
   14.1772  -16.8679   20.8725 O   0  0  0  0  0  0  0  0  0  0  0  0
  2  1  1  0
  2 12  2  0
  3  2  1  0
  4  3  2  0
  4  5  1  0
  5 11  2  0
  6  5  1  0
  6  7  1  0
  7  8  1  1
  9  7  1  0
  9 17  1  0
 10  9  2  0
 11 12  1  0
 14 13  1  6
 14 15  1  0
 16 17  1  1
 16 14  1  0
 18 16  1  0
 19 18  2  0
 20 18  1  0
 21 20  1  0
 21 22  1  1
 23 22  1  0
 23 24  1  0
 24 25  2  0
 26 21  1  0
 27 26  2  0
 28 24  1  0
 29 26  1  0
M  END
$$$$
