YVE.pdb
     RDKit          3D

 29 29  0  0  1  0  0  0  0  0999 V2000
   10.2442  -14.1616   31.1208 O   0  0  0  0  0  0  0  0  0  0  0  0
   10.0664  -14.4994   29.7787 C   0  0  0  0  0  0  0  0  0  0  0  0
   10.4017  -15.7766   29.3290 C   0  0  0  0  0  0  0  0  0  0  0  0
   10.2280  -16.1198   27.9971 C   0  0  0  0  0  0  0  0  0  0  0  0
    9.7266  -15.2325   27.0766 C   0  0  0  0  0  0  0  0  0  0  0  0
    9.5407  -15.6029   25.6469 C   0  0  0  0  0  0  0  0  0  0  0  0
    8.0684  -15.5124   25.2370 C   0  0  2  0  0  0  0  0  0  0  0  0
    7.4104  -16.6090   25.9170 N   0  0  0  0  0  0  0  0  0  0  0  0
    8.0551  -15.7307   23.7642 C   0  0  0  0  0  0  0  0  0  0  0  0
    7.7587  -16.8925   23.3594 O   0  0  0  0  0  0  0  0  0  0  0  0
    9.3919  -13.9611   27.5197 C   0  0  0  0  0  0  0  0  0  0  0  0
    9.5671  -13.6229   28.8509 C   0  0  0  0  0  0  0  0  0  0  0  0
    7.9980  -13.8859   19.1790 C   0  0  0  0  0  0  0  0  0  0  0  0
    8.0963  -13.7301   20.6511 C   0  0  1  0  0  0  0  0  0  0  0  0
    6.8971  -12.9064   21.1186 C   0  0  0  0  0  0  0  0  0  0  0  0
    8.2014  -15.0187   21.4066 C   0  0  2  0  0  0  0  0  0  0  0  0
    8.3571  -14.6996   22.8442 N   0  0  0  0  0  0  0  0  0  0  0  0
    9.3506  -15.8132   20.9705 C   0  0  0  0  0  0  0  0  0  0  0  0
   10.5416  -15.5368   21.3553 O   0  0  0  0  0  0  0  0  0  0  0  0
    9.2174  -16.9216   20.1182 N   0  0  0  0  0  0  0  0  0  0  0  0
   10.3609  -17.8478   19.9256 C   0  0  1  0  0  0  0  0  0  0  0  0
    9.8381  -19.1566   19.4039 C   0  0  0  0  0  0  0  0  0  0  0  0
   10.9691  -20.0780   19.0627 C   0  0  0  0  0  0  0  0  0  0  0  0
   10.3901  -21.3361   18.5188 C   0  0  0  0  0  0  0  0  0  0  0  0
    9.5720  -21.3930   17.5787 O   0  0  0  0  0  0  0  0  0  0  0  0
   11.2705  -17.2089   18.9778 C   0  0  0  0  0  0  0  0  0  0  0  0
   12.5069  -17.2558   19.1281 O   0  0  0  0  0  0  0  0  0  0  0  0
   10.7722  -22.5657   19.0829 O   0  0  0  0  0  0  0  0  0  0  0  0
   10.8055  -16.5247   17.8707 O   0  0  0  0  0  0  0  0  0  0  0  0
  2  1  1  0
  2 12  2  0
  3  2  1  0
  4  3  2  0
  4  5  1  0
  5 11  2  0
  6  5  1  0
  6  7  1  0
  7  8  1  1
  9  7  1  0
  9 17  1  0
 10  9  2  0
 11 12  1  0
 14 13  1  6
 14 15  1  0
 16 17  1  1
 16 14  1  0
 18 16  1  0
 19 18  2  0
 20 18  1  0
 21 20  1  0
 21 22  1  6
 23 22  1  0
 23 24  1  0
 24 25  2  0
 26 21  1  0
 27 26  2  0
 28 24  1  0
 29 26  1  0
M  END
$$$$
