YVE.pdb
     RDKit          3D

 29 29  0  0  1  0  0  0  0  0999 V2000
    6.7307  -13.4088   16.1128 O   0  0  0  0  0  0  0  0  0  0  0  0
    7.3806  -13.8112   17.2801 C   0  0  0  0  0  0  0  0  0  0  0  0
    6.6409  -14.2819   18.3652 C   0  0  0  0  0  0  0  0  0  0  0  0
    7.2794  -14.6835   19.5284 C   0  0  0  0  0  0  0  0  0  0  0  0
    8.6453  -14.6366   19.6620 C   0  0  0  0  0  0  0  0  0  0  0  0
    9.3290  -15.0684   20.9118 C   0  0  0  0  0  0  0  0  0  0  0  0
    8.3313  -15.6465   21.9188 C   0  0  2  0  0  0  0  0  0  0  0  0
    7.0303  -15.1819   21.4833 N   0  0  0  0  0  0  0  0  0  0  0  0
    8.6914  -15.0331   23.2270 C   0  0  0  0  0  0  0  0  0  0  0  0
    9.9119  -14.7552   23.4134 O   0  0  0  0  0  0  0  0  0  0  0  0
    9.3847  -14.1691   18.5851 C   0  0  0  0  0  0  0  0  0  0  0  0
    8.7427  -13.7691   17.4254 C   0  0  0  0  0  0  0  0  0  0  0  0
    7.5833  -12.7893   27.4352 C   0  0  0  0  0  0  0  0  0  0  0  0
    7.1786  -13.4329   26.1611 C   0  0  1  0  0  0  0  0  0  0  0  0
    6.7127  -12.3348   25.2060 C   0  0  0  0  0  0  0  0  0  0  0  0
    8.2351  -14.2894   25.5346 C   0  0  2  0  0  0  0  0  0  0  0  0
    7.7279  -14.7659   24.2276 N   0  0  0  0  0  0  0  0  0  0  0  0
    8.5610  -15.4481   26.3673 C   0  0  0  0  0  0  0  0  0  0  0  0
    7.6712  -16.3114   26.6926 O   0  0  0  0  0  0  0  0  0  0  0  0
    9.8589  -15.6858   26.8486 N   0  0  0  0  0  0  0  0  0  0  0  0
   10.1320  -16.8870   27.6764 C   0  0  1  0  0  0  0  0  0  0  0  0
   11.4562  -17.4655   27.2636 C   0  0  0  0  0  0  0  0  0  0  0  0
   11.4336  -17.8554   25.8172 C   0  0  0  0  0  0  0  0  0  0  0  0
   12.7675  -18.4162   25.4706 C   0  0  0  0  0  0  0  0  0  0  0  0
   13.7254  -18.5124   26.2639 O   0  0  0  0  0  0  0  0  0  0  0  0
   10.1402  -16.4498   29.0701 C   0  0  0  0  0  0  0  0  0  0  0  0
   10.1343  -15.2410   29.3742 O   0  0  0  0  0  0  0  0  0  0  0  0
   12.9968  -18.8795   24.1633 O   0  0  0  0  0  0  0  0  0  0  0  0
   10.1532  -17.3527   30.1164 O   0  0  0  0  0  0  0  0  0  0  0  0
  2  1  1  0
  2 12  2  0
  3  2  1  0
  4  3  2  0
  4  5  1  0
  5 11  2  0
  6  5  1  0
  6  7  1  0
  7  8  1  6
  9  7  1  0
  9 17  1  0
 10  9  2  0
 11 12  1  0
 14 13  1  1
 14 15  1  0
 16 17  1  6
 16 14  1  0
 18 16  1  0
 19 18  2  0
 20 18  1  0
 21 20  1  0
 21 22  1  6
 23 22  1  0
 23 24  1  0
 24 25  2  0
 26 21  1  0
 27 26  2  0
 28 24  1  0
 29 26  1  0
M  END
$$$$
