YVE.pdb
     RDKit          3D

 29 29  0  0  1  0  0  0  0  0999 V2000
    6.5007  -10.7497   26.6558 O   0  0  0  0  0  0  0  0  0  0  0  0
    6.6088  -12.1409   26.6481 C   0  0  0  0  0  0  0  0  0  0  0  0
    5.4610  -12.9307   26.5800 C   0  0  0  0  0  0  0  0  0  0  0  0
    5.5601  -14.3135   26.5720 C   0  0  0  0  0  0  0  0  0  0  0  0
    6.7722  -14.9564   26.6298 C   0  0  0  0  0  0  0  0  0  0  0  0
    6.8766  -16.4412   26.6209 C   0  0  0  0  0  0  0  0  0  0  0  0
    6.2599  -17.0334   25.3510 C   0  0  2  0  0  0  0  0  0  0  0  0
    6.0951  -18.4462   25.6247 N   0  0  0  0  0  0  0  0  0  0  0  0
    7.2780  -16.8257   24.2845 C   0  0  0  0  0  0  0  0  0  0  0  0
    8.2052  -17.6830   24.2020 O   0  0  0  0  0  0  0  0  0  0  0  0
    7.9163  -14.1745   26.6976 C   0  0  0  0  0  0  0  0  0  0  0  0
    7.8124  -12.7938   26.7053 C   0  0  0  0  0  0  0  0  0  0  0  0
    8.8537  -14.3599   20.2792 C   0  0  0  0  0  0  0  0  0  0  0  0
    7.9040  -14.5459   21.4037 C   0  0  1  0  0  0  0  0  0  0  0  0
    6.4933  -14.6214   20.8212 C   0  0  0  0  0  0  0  0  0  0  0  0
    8.1982  -15.7266   22.2765 C   0  0  2  0  0  0  0  0  0  0  0  0
    7.2279  -15.7268   23.3951 N   0  0  0  0  0  0  0  0  0  0  0  0
    9.5540  -15.6735   22.8254 C   0  0  0  0  0  0  0  0  0  0  0  0
    9.9087  -14.7569   23.6482 O   0  0  0  0  0  0  0  0  0  0  0  0
   10.5365  -16.6203   22.4926 N   0  0  0  0  0  0  0  0  0  0  0  0
   11.8656  -16.5692   23.1512 C   0  0  1  0  0  0  0  0  0  0  0  0
   12.2110  -17.9455   23.6463 C   0  0  0  0  0  0  0  0  0  0  0  0
   13.6306  -17.9938   24.1226 C   0  0  0  0  0  0  0  0  0  0  0  0
   13.7647  -19.1459   25.0545 C   0  0  0  0  0  0  0  0  0  0  0  0
   12.8252  -19.8863   25.4081 O   0  0  0  0  0  0  0  0  0  0  0  0
   12.8183  -16.0965   22.1498 C   0  0  0  0  0  0  0  0  0  0  0  0
   12.6158  -16.2572   20.9305 O   0  0  0  0  0  0  0  0  0  0  0  0
   15.0279  -19.4480   25.5925 O   0  0  0  0  0  0  0  0  0  0  0  0
   13.9862  -15.4484   22.5048 O   0  0  0  0  0  0  0  0  0  0  0  0
  2  1  1  0
  2 12  2  0
  3  2  1  0
  4  3  2  0
  4  5  1  0
  5 11  2  0
  6  5  1  0
  6  7  1  0
  7  8  1  1
  9  7  1  0
  9 17  1  0
 10  9  2  0
 11 12  1  0
 14 13  1  6
 14 15  1  0
 16 17  1  1
 16 14  1  0
 18 16  1  0
 19 18  2  0
 20 18  1  0
 21 20  1  0
 21 22  1  6
 23 22  1  0
 23 24  1  0
 24 25  2  0
 26 21  1  0
 27 26  2  0
 28 24  1  0
 29 26  1  0
M  END
$$$$
