YVE.pdb
     RDKit          3D

 29 29  0  0  1  0  0  0  0  0999 V2000
    6.9528  -10.7925   26.2973 O   0  0  0  0  0  0  0  0  0  0  0  0
    7.0041  -12.1817   26.4177 C   0  0  0  0  0  0  0  0  0  0  0  0
    5.8234  -12.9211   26.4908 C   0  0  0  0  0  0  0  0  0  0  0  0
    5.8661  -14.3016   26.6105 C   0  0  0  0  0  0  0  0  0  0  0  0
    7.0526  -14.9911   26.6617 C   0  0  0  0  0  0  0  0  0  0  0  0
    7.0964  -16.4734   26.7902 C   0  0  0  0  0  0  0  0  0  0  0  0
    6.4920  -17.1552   25.5600 C   0  0  2  0  0  0  0  0  0  0  0  0
    6.4300  -18.5640   25.8910 N   0  0  0  0  0  0  0  0  0  0  0  0
    7.4684  -16.9218   24.4602 C   0  0  0  0  0  0  0  0  0  0  0  0
    8.4271  -17.7418   24.3611 O   0  0  0  0  0  0  0  0  0  0  0  0
    8.2293  -14.2594   26.5893 C   0  0  0  0  0  0  0  0  0  0  0  0
    8.1817  -12.8808   26.4698 C   0  0  0  0  0  0  0  0  0  0  0  0
    8.9890  -14.2962   20.5370 C   0  0  0  0  0  0  0  0  0  0  0  0
    7.9902  -14.6010   21.5908 C   0  0  1  0  0  0  0  0  0  0  0  0
    6.6392  -14.8183   20.9106 C   0  0  0  0  0  0  0  0  0  0  0  0
    8.3499  -15.7569   22.4722 C   0  0  2  0  0  0  0  0  0  0  0  0
    7.3466  -15.8391   23.5581 N   0  0  0  0  0  0  0  0  0  0  0  0
    9.6782  -15.5964   23.0655 C   0  0  0  0  0  0  0  0  0  0  0  0
    9.9723  -14.5772   23.7850 O   0  0  0  0  0  0  0  0  0  0  0  0
   10.6987  -16.5453   22.8903 N   0  0  0  0  0  0  0  0  0  0  0  0
   12.0195  -16.3381   23.5345 C   0  0  1  0  0  0  0  0  0  0  0  0
   12.4198  -17.6078   24.2318 C   0  0  0  0  0  0  0  0  0  0  0  0
   11.5403  -17.8576   25.4186 C   0  0  0  0  0  0  0  0  0  0  0  0
   12.0014  -19.1091   26.0782 C   0  0  0  0  0  0  0  0  0  0  0  0
   12.8625  -19.8818   25.6119 O   0  0  0  0  0  0  0  0  0  0  0  0
   12.9584  -15.9807   22.4741 C   0  0  0  0  0  0  0  0  0  0  0  0
   12.7237  -16.2462   21.2790 O   0  0  0  0  0  0  0  0  0  0  0  0
   11.4462  -19.4750   27.3168 O   0  0  0  0  0  0  0  0  0  0  0  0
   14.1482  -15.3313   22.7434 O   0  0  0  0  0  0  0  0  0  0  0  0
  2  1  1  0
  2 12  2  0
  3  2  1  0
  4  3  2  0
  4  5  1  0
  5 11  2  0
  6  5  1  0
  6  7  1  0
  7  8  1  1
  9  7  1  0
  9 17  1  0
 10  9  2  0
 11 12  1  0
 14 13  1  6
 14 15  1  0
 16 17  1  1
 16 14  1  0
 18 16  1  0
 19 18  2  0
 20 18  1  0
 21 20  1  0
 21 22  1  6
 23 22  1  0
 23 24  1  0
 24 25  2  0
 26 21  1  0
 27 26  2  0
 28 24  1  0
 29 26  1  0
M  END
$$$$
