YVE.pdb
     RDKit          3D

 29 29  0  0  1  0  0  0  0  0999 V2000
    6.2159  -10.6112   27.2358 O   0  0  0  0  0  0  0  0  0  0  0  0
    6.4304  -11.9652   26.9759 C   0  0  0  0  0  0  0  0  0  0  0  0
    5.3521  -12.8495   26.9403 C   0  0  0  0  0  0  0  0  0  0  0  0
    5.5570  -14.1962   26.6828 C   0  0  0  0  0  0  0  0  0  0  0  0
    6.8097  -14.7110   26.4554 C   0  0  0  0  0  0  0  0  0  0  0  0
    7.0277  -16.1573   26.1790 C   0  0  0  0  0  0  0  0  0  0  0  0
    6.2920  -16.5971   24.9106 C   0  0  2  0  0  0  0  0  0  0  0  0
    5.9328  -17.9825   25.1335 N   0  0  0  0  0  0  0  0  0  0  0  0
    7.2953  -16.4897   23.8156 C   0  0  0  0  0  0  0  0  0  0  0  0
    8.0654  -17.4792   23.6444 O   0  0  0  0  0  0  0  0  0  0  0  0
    7.8850  -13.8349   26.4899 C   0  0  0  0  0  0  0  0  0  0  0  0
    7.6753  -12.4907   26.7475 C   0  0  0  0  0  0  0  0  0  0  0  0
    9.2173  -14.0210   19.9665 C   0  0  0  0  0  0  0  0  0  0  0  0
    8.2416  -14.1466   21.0770 C   0  0  1  0  0  0  0  0  0  0  0  0
    6.8378  -14.0164   20.4875 C   0  0  0  0  0  0  0  0  0  0  0  0
    8.3797  -15.3986   21.8868 C   0  0  2  0  0  0  0  0  0  0  0  0
    7.3981  -15.3428   22.9941 N   0  0  0  0  0  0  0  0  0  0  0  0
    9.7231  -15.5365   22.4511 C   0  0  0  0  0  0  0  0  0  0  0  0
   10.1585  -14.7329   23.3497 O   0  0  0  0  0  0  0  0  0  0  0  0
   10.6049  -16.5539   22.0511 N   0  0  0  0  0  0  0  0  0  0  0  0
   11.8574  -16.7881   22.8119 C   0  0  1  0  0  0  0  0  0  0  0  0
   12.0695  -18.2698   22.9463 C   0  0  0  0  0  0  0  0  0  0  0  0
   13.4218  -18.5589   23.5227 C   0  0  0  0  0  0  0  0  0  0  0  0
   13.5531  -20.0335   23.6719 C   0  0  0  0  0  0  0  0  0  0  0  0
   14.5756  -20.6172   24.0840 O   0  0  0  0  0  0  0  0  0  0  0  0
   12.9362  -16.1502   22.0615 C   0  0  0  0  0  0  0  0  0  0  0  0
   13.9867  -15.7776   22.6195 O   0  0  0  0  0  0  0  0  0  0  0  0
   12.4645  -20.8557   23.3326 O   0  0  0  0  0  0  0  0  0  0  0  0
   12.8454  -15.9310   20.7000 O   0  0  0  0  0  0  0  0  0  0  0  0
  2  1  1  0
  2 12  2  0
  3  2  1  0
  4  3  2  0
  4  5  1  0
  5 11  2  0
  6  5  1  0
  6  7  1  0
  7  8  1  1
  9  7  1  0
  9 17  1  0
 10  9  2  0
 11 12  1  0
 14 13  1  6
 14 15  1  0
 16 17  1  1
 16 14  1  0
 18 16  1  0
 19 18  2  0
 20 18  1  0
 21 20  1  0
 21 22  1  6
 23 22  1  0
 23 24  1  0
 24 25  2  0
 26 21  1  0
 27 26  2  0
 28 24  1  0
 29 26  1  0
M  END
$$$$
