YVE.pdb
     RDKit          3D

 29 29  0  0  1  0  0  0  0  0999 V2000
    7.1944  -10.3441   27.8054 O   0  0  0  0  0  0  0  0  0  0  0  0
    6.9923  -11.5608   27.1529 C   0  0  0  0  0  0  0  0  0  0  0  0
    7.1004  -11.6356   25.7641 C   0  0  0  0  0  0  0  0  0  0  0  0
    6.9010  -12.8407   25.1085 C   0  0  0  0  0  0  0  0  0  0  0  0
    6.5932  -13.9951   25.7857 C   0  0  0  0  0  0  0  0  0  0  0  0
    6.3796  -15.2882   25.0800 C   0  0  0  0  0  0  0  0  0  0  0  0
    7.7119  -15.9529   24.7239 C   0  0  2  0  0  0  0  0  0  0  0  0
    8.7346  -15.0816   25.2651 N   0  0  0  0  0  0  0  0  0  0  0  0
    7.7656  -15.9562   23.2359 C   0  0  0  0  0  0  0  0  0  0  0  0
    7.0478  -16.8100   22.6381 O   0  0  0  0  0  0  0  0  0  0  0  0
    6.4847  -13.9251   27.1671 C   0  0  0  0  0  0  0  0  0  0  0  0
    6.6848  -12.7192   27.8175 C   0  0  0  0  0  0  0  0  0  0  0  0
    8.3007  -13.9457   18.9118 C   0  0  0  0  0  0  0  0  0  0  0  0
    8.3286  -13.9156   20.3948 C   0  0  1  0  0  0  0  0  0  0  0  0
    6.9966  -13.3445   20.8794 C   0  0  0  0  0  0  0  0  0  0  0  0
    8.6229  -15.2356   21.0377 C   0  0  2  0  0  0  0  0  0  0  0  0
    8.5753  -15.0545   22.5065 N   0  0  0  0  0  0  0  0  0  0  0  0
    9.9454  -15.7398   20.6650 C   0  0  0  0  0  0  0  0  0  0  0  0
   11.0185  -15.2134   21.1280 O   0  0  0  0  0  0  0  0  0  0  0  0
   10.1162  -16.8265   19.7918 N   0  0  0  0  0  0  0  0  0  0  0  0
   11.3727  -17.6154   19.8303 C   0  0  1  0  0  0  0  0  0  0  0  0
   11.3918  -18.4294   21.0936 C   0  0  0  0  0  0  0  0  0  0  0  0
   12.6277  -19.2737   21.1582 C   0  0  0  0  0  0  0  0  0  0  0  0
   12.5969  -20.0382   22.4343 C   0  0  0  0  0  0  0  0  0  0  0  0
   12.8509  -21.2550   22.5395 O   0  0  0  0  0  0  0  0  0  0  0  0
   11.3807  -18.4604   18.6388 C   0  0  0  0  0  0  0  0  0  0  0  0
   10.3299  -18.9471   18.1777 O   0  0  0  0  0  0  0  0  0  0  0  0
   12.2611  -19.3703   23.6248 O   0  0  0  0  0  0  0  0  0  0  0  0
   12.5503  -18.7590   17.9658 O   0  0  0  0  0  0  0  0  0  0  0  0
  2  1  1  0
  2 12  2  0
  3  2  1  0
  4  3  2  0
  4  5  1  0
  5 11  2  0
  6  5  1  0
  6  7  1  0
  7  8  1  1
  9  7  1  0
  9 17  1  0
 10  9  2  0
 11 12  1  0
 14 13  1  6
 14 15  1  0
 16 17  1  1
 16 14  1  0
 18 16  1  0
 19 18  2  0
 20 18  1  0
 21 20  1  0
 21 22  1  1
 23 22  1  0
 23 24  1  0
 24 25  2  0
 26 21  1  0
 27 26  2  0
 28 24  1  0
 29 26  1  0
M  END
$$$$
