YVE.pdb
     RDKit          3D

 29 29  0  0  1  0  0  0  0  0999 V2000
    9.9972  -14.0624   31.0950 O   0  0  0  0  0  0  0  0  0  0  0  0
    9.8637  -14.3912   29.7455 C   0  0  0  0  0  0  0  0  0  0  0  0
   10.2081  -15.6674   29.2997 C   0  0  0  0  0  0  0  0  0  0  0  0
   10.0783  -16.0016   27.9605 C   0  0  0  0  0  0  0  0  0  0  0  0
    9.6128  -15.1064   27.0289 C   0  0  0  0  0  0  0  0  0  0  0  0
    9.4741  -15.4672   25.5915 C   0  0  0  0  0  0  0  0  0  0  0  0
    8.0020  -15.5472   25.1789 C   0  0  2  0  0  0  0  0  0  0  0  0
    7.4612  -16.6831   25.8968 N   0  0  0  0  0  0  0  0  0  0  0  0
    8.0171  -15.8167   23.7146 C   0  0  0  0  0  0  0  0  0  0  0  0
    8.0287  -17.0299   23.3549 O   0  0  0  0  0  0  0  0  0  0  0  0
    9.2692  -13.8360   27.4683 C   0  0  0  0  0  0  0  0  0  0  0  0
    9.4005  -13.5067   28.8067 C   0  0  0  0  0  0  0  0  0  0  0  0
    7.9641  -14.2395   19.0222 C   0  0  0  0  0  0  0  0  0  0  0  0
    7.9098  -13.9782   20.4817 C   0  0  1  0  0  0  0  0  0  0  0  0
    6.5471  -13.3644   20.7999 C   0  0  0  0  0  0  0  0  0  0  0  0
    8.1824  -15.1761   21.3378 C   0  0  2  0  0  0  0  0  0  0  0  0
    8.0186  -14.7778   22.7546 N   0  0  0  0  0  0  0  0  0  0  0  0
    9.5401  -15.6868   21.1432 C   0  0  0  0  0  0  0  0  0  0  0  0
   10.5509  -15.1355   21.7065 O   0  0  0  0  0  0  0  0  0  0  0  0
    9.8134  -16.8069   20.3411 N   0  0  0  0  0  0  0  0  0  0  0  0
   11.1908  -17.3565   20.2834 C   0  0  1  0  0  0  0  0  0  0  0  0
   11.2731  -18.5467   21.1974 C   0  0  0  0  0  0  0  0  0  0  0  0
   12.6117  -19.2094   21.0811 C   0  0  0  0  0  0  0  0  0  0  0  0
   12.6161  -20.3984   21.9755 C   0  0  0  0  0  0  0  0  0  0  0  0
   11.9240  -20.5137   23.0070 O   0  0  0  0  0  0  0  0  0  0  0  0
   11.4451  -17.7209   18.8919 C   0  0  0  0  0  0  0  0  0  0  0  0
   10.5174  -18.0302   18.1190 O   0  0  0  0  0  0  0  0  0  0  0  0
   13.4490  -21.4871   21.6634 O   0  0  0  0  0  0  0  0  0  0  0  0
   12.7230  -17.7387   18.3657 O   0  0  0  0  0  0  0  0  0  0  0  0
  2  1  1  0
  2 12  2  0
  3  2  1  0
  4  3  2  0
  4  5  1  0
  5 11  2  0
  6  5  1  0
  6  7  1  0
  7  8  1  1
  9  7  1  0
  9 17  1  0
 10  9  2  0
 11 12  1  0
 14 13  1  6
 14 15  1  0
 16 17  1  1
 16 14  1  0
 18 16  1  0
 19 18  2  0
 20 18  1  0
 21 20  1  0
 21 22  1  1
 23 22  1  0
 23 24  1  0
 24 25  2  0
 26 21  1  0
 27 26  2  0
 28 24  1  0
 29 26  1  0
M  END
$$$$
