SEW.pdb
     RDKit          3D

 30 31  0  0  1  0  0  0  0  0999 V2000
   10.2477  -12.8548   19.5701 O   0  0  0  0  0  0  0  0  0  0  0  0
    9.6442  -13.5584   18.5224 C   0  0  0  0  0  0  0  0  0  0  0  0
    8.2919  -14.0486   18.9175 C   0  0  2  0  0  0  0  0  0  0  0  0
    7.4710  -12.8680   19.1829 N   0  0  0  0  0  0  0  0  0  0  0  0
    8.3780  -14.9088   20.1113 C   0  0  0  0  0  0  0  0  0  0  0  0
    7.8863  -14.4254   21.1950 O   0  0  0  0  0  0  0  0  0  0  0  0
    8.9675  -16.1992   20.0438 N   0  0  0  0  0  0  0  0  0  0  0  0
    8.9700  -17.0639   21.1669 C   0  0  1  0  0  0  0  0  0  0  0  0
    9.1264  -18.5083   20.9745 C   0  0  0  0  0  0  0  0  0  0  0  0
    9.2635  -19.3599   22.1843 C   0  0  0  0  0  0  0  0  0  0  0  0
    9.5668  -20.7652   21.9930 C   0  0  0  0  0  0  0  0  0  0  0  0
   10.7676  -21.1678   22.0976 O   0  0  0  0  0  0  0  0  0  0  0  0
    9.7702  -16.4587   22.2694 C   0  0  0  0  0  0  0  0  0  0  0  0
   10.8729  -15.9043   22.0521 O   0  0  0  0  0  0  0  0  0  0  0  0
    8.6058  -21.7096   21.6948 O   0  0  0  0  0  0  0  0  0  0  0  0
    9.3689  -16.4543   23.6284 N   0  0  0  0  0  0  0  0  0  0  0  0
   10.1917  -15.9805   24.7216 C   0  0  1  0  0  0  0  0  0  0  0  0
    9.7976  -14.6263   25.2036 C   0  0  0  0  0  0  0  0  0  0  0  0
    8.3819  -14.6601   25.6432 C   0  0  0  0  0  0  0  0  0  0  0  0
    7.4719  -15.7170   25.6320 C   0  0  0  0  0  0  0  0  0  0  0  0
    6.2909  -15.3348   26.1067 N   0  0  0  0  0  0  0  0  0  0  0  0
    6.3617  -14.0422   26.4451 C   0  0  0  0  0  0  0  0  0  0  0  0
    5.4413  -13.1593   26.9769 C   0  0  0  0  0  0  0  0  0  0  0  0
    5.8006  -11.8669   27.2239 C   0  0  0  0  0  0  0  0  0  0  0  0
    7.0706  -11.4410   26.9465 C   0  0  0  0  0  0  0  0  0  0  0  0
    8.0143  -12.2952   26.4155 C   0  0  0  0  0  0  0  0  0  0  0  0
    7.6375  -13.5975   26.1714 C   0  0  0  0  0  0  0  0  0  0  0  0
   10.0894  -16.9416   25.8264 C   0  0  0  0  0  0  0  0  0  0  0  0
    9.2555  -17.8668   25.7804 O   0  0  0  0  0  0  0  0  0  0  0  0
   10.9150  -16.8259   26.9215 O   0  0  0  0  0  0  0  0  0  0  0  0
  1  2  1  0
  3  2  1  0
  3  5  1  0
  3  4  1  1
  5  6  2  0
  7  5  1  0
  7  8  1  0
  8  9  1  6
  9 10  1  0
 10 11  1  0
 11 12  2  0
 11 15  1  0
 13  8  1  0
 13 14  2  0
 16 13  1  0
 17 16  1  0
 17 18  1  1
 19 18  1  0
 19 27  1  0
 20 21  1  0
 20 19  2  0
 21 22  1  0
 22 23  1  0
 22 27  2  0
 23 24  2  0
 24 25  1  0
 26 25  2  0
 27 26  1  0
 28 17  1  0
 29 28  2  0
 30 28  1  0
M  END
$$$$
