SEW.pdb
     RDKit          3D

 30 31  0  0  1  0  0  0  0  0999 V2000
    8.6083  -12.2546   20.3913 O   0  0  0  0  0  0  0  0  0  0  0  0
    9.0456  -13.5341   20.0326 C   0  0  0  0  0  0  0  0  0  0  0  0
    7.9518  -14.5361   20.1907 C   0  0  2  0  0  0  0  0  0  0  0  0
    6.6909  -13.7958   20.1837 N   0  0  0  0  0  0  0  0  0  0  0  0
    8.1130  -15.2889   21.4477 C   0  0  0  0  0  0  0  0  0  0  0  0
    7.3152  -14.9736   22.4036 O   0  0  0  0  0  0  0  0  0  0  0  0
    9.0952  -16.3073   21.5711 N   0  0  0  0  0  0  0  0  0  0  0  0
    9.1621  -17.1255   22.7266 C   0  0  1  0  0  0  0  0  0  0  0  0
    9.4748  -18.5511   22.5935 C   0  0  0  0  0  0  0  0  0  0  0  0
    8.3404  -19.5073   22.5166 C   0  0  0  0  0  0  0  0  0  0  0  0
    7.4430  -19.5869   23.6533 C   0  0  0  0  0  0  0  0  0  0  0  0
    7.7562  -20.3099   24.6504 O   0  0  0  0  0  0  0  0  0  0  0  0
    9.8672  -16.3988   23.8207 C   0  0  0  0  0  0  0  0  0  0  0  0
   10.8451  -15.6505   23.5876 O   0  0  0  0  0  0  0  0  0  0  0  0
    6.2419  -18.9103   23.7138 O   0  0  0  0  0  0  0  0  0  0  0  0
    9.5067  -16.4845   25.1884 N   0  0  0  0  0  0  0  0  0  0  0  0
   10.3712  -16.1054   26.2864 C   0  0  1  0  0  0  0  0  0  0  0  0
    9.7020  -15.2112   27.2734 C   0  0  0  0  0  0  0  0  0  0  0  0
    8.3293  -14.9081   26.8017 C   0  0  0  0  0  0  0  0  0  0  0  0
    7.2090  -15.7361   26.7337 C   0  0  0  0  0  0  0  0  0  0  0  0
    6.1619  -15.0824   26.2410 N   0  0  0  0  0  0  0  0  0  0  0  0
    6.5299  -13.8256   25.9671 C   0  0  0  0  0  0  0  0  0  0  0  0
    5.8503  -12.7405   25.4473 C   0  0  0  0  0  0  0  0  0  0  0  0
    6.4964  -11.5522   25.2713 C   0  0  0  0  0  0  0  0  0  0  0  0
    7.8166  -11.4306   25.6079 C   0  0  0  0  0  0  0  0  0  0  0  0
    8.5254  -12.4928   26.1291 C   0  0  0  0  0  0  0  0  0  0  0  0
    7.8601  -13.6866   26.3015 C   0  0  0  0  0  0  0  0  0  0  0  0
   10.8224  -17.3280   26.9619 C   0  0  0  0  0  0  0  0  0  0  0  0
   11.6403  -17.2633   27.9002 O   0  0  0  0  0  0  0  0  0  0  0  0
   10.3442  -18.5551   26.5619 O   0  0  0  0  0  0  0  0  0  0  0  0
  1  2  1  0
  3  2  1  0
  3  5  1  0
  3  4  1  1
  5  6  2  0
  7  5  1  0
  7  8  1  0
  8  9  1  6
  9 10  1  0
 10 11  1  0
 11 12  2  0
 11 15  1  0
 13  8  1  0
 13 14  2  0
 16 13  1  0
 17 16  1  0
 17 18  1  1
 19 18  1  0
 19 27  1  0
 20 21  1  0
 20 19  2  0
 21 22  1  0
 22 23  1  0
 22 27  2  0
 23 24  2  0
 24 25  1  0
 26 25  2  0
 27 26  1  0
 28 17  1  0
 29 28  2  0
 30 28  1  0
M  END
$$$$
