SEW.pdb
     RDKit          3D

 30 31  0  0  1  0  0  0  0  0999 V2000
   10.6939  -13.4950   18.5566 O   0  0  0  0  0  0  0  0  0  0  0  0
    9.6593  -13.9786   17.7488 C   0  0  0  0  0  0  0  0  0  0  0  0
    8.3322  -13.7644   18.3954 C   0  0  2  0  0  0  0  0  0  0  0  0
    8.2213  -12.3341   18.6778 N   0  0  0  0  0  0  0  0  0  0  0  0
    8.2228  -14.5554   19.6344 C   0  0  0  0  0  0  0  0  0  0  0  0
    8.2602  -13.8936   20.7346 O   0  0  0  0  0  0  0  0  0  0  0  0
    8.0762  -15.9674   19.5918 N   0  0  0  0  0  0  0  0  0  0  0  0
    7.8531  -16.7176   20.7735 C   0  0  1  0  0  0  0  0  0  0  0  0
    7.3903  -18.1050   20.6800 C   0  0  0  0  0  0  0  0  0  0  0  0
    7.2306  -18.8711   21.9429 C   0  0  0  0  0  0  0  0  0  0  0  0
    6.8696  -20.2723   21.8444 C   0  0  0  0  0  0  0  0  0  0  0  0
    7.2903  -20.9611   20.8627 O   0  0  0  0  0  0  0  0  0  0  0  0
    8.9459  -16.4554   21.7529 C   0  0  0  0  0  0  0  0  0  0  0  0
   10.1444  -16.3803   21.3944 O   0  0  0  0  0  0  0  0  0  0  0  0
    6.0765  -20.9132   22.7740 O   0  0  0  0  0  0  0  0  0  0  0  0
    8.7363  -16.2716   23.1422 N   0  0  0  0  0  0  0  0  0  0  0  0
    9.7824  -15.9512   24.0908 C   0  0  1  0  0  0  0  0  0  0  0  0
    9.5623  -14.6503   24.7841 C   0  0  0  0  0  0  0  0  0  0  0  0
    8.2127  -14.6494   25.3984 C   0  0  0  0  0  0  0  0  0  0  0  0
    7.3133  -15.7013   25.5713 C   0  0  0  0  0  0  0  0  0  0  0  0
    6.1991  -15.2838   26.1633 N   0  0  0  0  0  0  0  0  0  0  0  0
    6.3055  -13.9719   26.4032 C   0  0  0  0  0  0  0  0  0  0  0  0
    5.4546  -13.0520   26.9858 C   0  0  0  0  0  0  0  0  0  0  0  0
    5.8359  -11.7474   27.0993 C   0  0  0  0  0  0  0  0  0  0  0  0
    7.0594  -11.3456   26.6378 C   0  0  0  0  0  0  0  0  0  0  0  0
    7.9334  -12.2369   26.0512 C   0  0  0  0  0  0  0  0  0  0  0  0
    7.5351  -13.5511   25.9434 C   0  0  0  0  0  0  0  0  0  0  0  0
    9.8503  -17.0294   25.0846 C   0  0  0  0  0  0  0  0  0  0  0  0
    8.9470  -17.8859   25.1465 O   0  0  0  0  0  0  0  0  0  0  0  0
   10.9138  -17.1004   25.9553 O   0  0  0  0  0  0  0  0  0  0  0  0
  1  2  1  0
  3  2  1  0
  3  5  1  0
  3  4  1  1
  5  6  2  0
  7  5  1  0
  7  8  1  0
  8  9  1  6
  9 10  1  0
 10 11  1  0
 11 12  2  0
 11 15  1  0
 13  8  1  0
 13 14  2  0
 16 13  1  0
 17 16  1  0
 17 18  1  1
 19 18  1  0
 19 27  1  0
 20 21  1  0
 20 19  2  0
 21 22  1  0
 22 23  1  0
 22 27  2  0
 23 24  2  0
 24 25  1  0
 26 25  2  0
 27 26  1  0
 28 17  1  0
 29 28  2  0
 30 28  1  0
M  END
$$$$
