SEW.pdb
     RDKit          3D

 30 31  0  0  1  0  0  0  0  0999 V2000
    8.5693  -14.3169   17.7927 O   0  0  0  0  0  0  0  0  0  0  0  0
    8.5130  -14.7892   19.1083 C   0  0  0  0  0  0  0  0  0  0  0  0
    8.2977  -16.2650   19.1372 C   0  0  2  0  0  0  0  0  0  0  0  0
    6.9433  -16.5082   18.6427 N   0  0  0  0  0  0  0  0  0  0  0  0
    8.4601  -16.7883   20.5055 C   0  0  0  0  0  0  0  0  0  0  0  0
    7.4158  -16.7557   21.2526 O   0  0  0  0  0  0  0  0  0  0  0  0
    9.7070  -17.3029   20.9501 N   0  0  0  0  0  0  0  0  0  0  0  0
    9.8422  -17.8915   22.2324 C   0  0  1  0  0  0  0  0  0  0  0  0
   10.4069  -19.2378   22.3609 C   0  0  0  0  0  0  0  0  0  0  0  0
    9.7708  -20.3351   21.5872 C   0  0  0  0  0  0  0  0  0  0  0  0
   10.5781  -21.4979   21.2714 C   0  0  0  0  0  0  0  0  0  0  0  0
   10.0642  -22.4602   20.6196 O   0  0  0  0  0  0  0  0  0  0  0  0
   10.3386  -16.8766   23.2049 C   0  0  0  0  0  0  0  0  0  0  0  0
   11.3598  -16.1886   22.9715 O   0  0  0  0  0  0  0  0  0  0  0  0
   11.8995  -21.6227   21.6488 O   0  0  0  0  0  0  0  0  0  0  0  0
    9.7187  -16.6032   24.4494 N   0  0  0  0  0  0  0  0  0  0  0  0
   10.4240  -16.1589   25.6333 C   0  0  1  0  0  0  0  0  0  0  0  0
   10.0263  -14.7903   26.0696 C   0  0  0  0  0  0  0  0  0  0  0  0
    8.5616  -14.6330   25.9008 C   0  0  0  0  0  0  0  0  0  0  0  0
    7.5888  -15.5953   25.6309 C   0  0  0  0  0  0  0  0  0  0  0  0
    6.3826  -15.0437   25.5464 N   0  0  0  0  0  0  0  0  0  0  0  0
    6.4972  -13.7264   25.7507 C   0  0  0  0  0  0  0  0  0  0  0  0
    5.5765  -12.6962   25.7723 C   0  0  0  0  0  0  0  0  0  0  0  0
    5.9893  -11.4182   26.0100 C   0  0  0  0  0  0  0  0  0  0  0  0
    7.3134  -11.1521   26.2274 C   0  0  0  0  0  0  0  0  0  0  0  0
    8.2591  -12.1560   26.2131 C   0  0  0  0  0  0  0  0  0  0  0  0
    7.8278  -13.4418   25.9719 C   0  0  0  0  0  0  0  0  0  0  0  0
   10.1566  -17.1139   26.7155 C   0  0  0  0  0  0  0  0  0  0  0  0
    9.2920  -18.0003   26.5732 O   0  0  0  0  0  0  0  0  0  0  0  0
   10.8604  -17.0355   27.8956 O   0  0  0  0  0  0  0  0  0  0  0  0
  1  2  1  0
  3  2  1  0
  3  5  1  0
  3  4  1  1
  5  6  2  0
  7  5  1  0
  7  8  1  0
  8  9  1  6
  9 10  1  0
 10 11  1  0
 11 12  2  0
 11 15  1  0
 13  8  1  0
 13 14  2  0
 16 13  1  0
 17 16  1  0
 17 18  1  1
 19 18  1  0
 19 27  1  0
 20 21  1  0
 20 19  2  0
 21 22  1  0
 22 23  1  0
 22 27  2  0
 23 24  2  0
 24 25  1  0
 26 25  2  0
 27 26  1  0
 28 17  1  0
 29 28  2  0
 30 28  1  0
M  END
$$$$
