SEW.pdb
     RDKit          3D

 30 31  0  0  1  0  0  0  0  0999 V2000
    7.3991  -13.2821   19.5198 O   0  0  0  0  0  0  0  0  0  0  0  0
    7.7530  -13.9861   20.6756 C   0  0  0  0  0  0  0  0  0  0  0  0
    7.9376  -15.4369   20.3818 C   0  0  2  0  0  0  0  0  0  0  0  0
    6.6099  -15.9918   20.1225 N   0  0  0  0  0  0  0  0  0  0  0  0
    8.5809  -16.1207   21.5182 C   0  0  0  0  0  0  0  0  0  0  0  0
    7.8131  -16.8389   22.2560 O   0  0  0  0  0  0  0  0  0  0  0  0
    9.9739  -15.9868   21.7607 N   0  0  0  0  0  0  0  0  0  0  0  0
   10.6251  -16.7692   22.7470 C   0  0  1  0  0  0  0  0  0  0  0  0
   11.9467  -17.3389   22.4703 C   0  0  0  0  0  0  0  0  0  0  0  0
   13.1247  -16.4380   22.5607 C   0  0  0  0  0  0  0  0  0  0  0  0
   14.4241  -16.9855   22.2212 C   0  0  0  0  0  0  0  0  0  0  0  0
   15.3522  -16.9830   23.0892 O   0  0  0  0  0  0  0  0  0  0  0  0
   10.4490  -16.1420   24.0878 C   0  0  0  0  0  0  0  0  0  0  0  0
   10.7046  -14.9310   24.2844 O   0  0  0  0  0  0  0  0  0  0  0  0
   14.7171  -17.5180   20.9823 O   0  0  0  0  0  0  0  0  0  0  0  0
    9.9886  -16.8380   25.2330 N   0  0  0  0  0  0  0  0  0  0  0  0
    9.9517  -16.2795   26.5684 C   0  0  1  0  0  0  0  0  0  0  0  0
    8.6197  -16.4196   27.2224 C   0  0  0  0  0  0  0  0  0  0  0  0
    7.6095  -15.6766   26.4311 C   0  0  0  0  0  0  0  0  0  0  0  0
    6.6358  -16.1573   25.5559 C   0  0  0  0  0  0  0  0  0  0  0  0
    5.9277  -15.1601   25.0357 N   0  0  0  0  0  0  0  0  0  0  0  0
    6.3870  -14.0042   25.5285 C   0  0  0  0  0  0  0  0  0  0  0  0
    6.0215  -12.6867   25.3277 C   0  0  0  0  0  0  0  0  0  0  0  0
    6.6844  -11.6886   25.9794 C   0  0  0  0  0  0  0  0  0  0  0  0
    7.7112  -11.9875   26.8324 C   0  0  0  0  0  0  0  0  0  0  0  0
    8.1022  -13.2910   27.0564 C   0  0  0  0  0  0  0  0  0  0  0  0
    7.4238  -14.2887   26.3915 C   0  0  0  0  0  0  0  0  0  0  0  0
   10.9689  -16.9580   27.3807 C   0  0  0  0  0  0  0  0  0  0  0  0
   11.6019  -17.9262   26.9165 O   0  0  0  0  0  0  0  0  0  0  0  0
   11.2295  -16.5282   28.6619 O   0  0  0  0  0  0  0  0  0  0  0  0
  1  2  1  0
  3  2  1  0
  3  5  1  0
  3  4  1  1
  5  6  2  0
  7  5  1  0
  7  8  1  0
  8  9  1  6
  9 10  1  0
 10 11  1  0
 11 12  2  0
 11 15  1  0
 13  8  1  0
 13 14  2  0
 16 13  1  0
 17 16  1  0
 17 18  1  1
 19 18  1  0
 19 27  1  0
 20 21  1  0
 20 19  2  0
 21 22  1  0
 22 23  1  0
 22 27  2  0
 23 24  2  0
 24 25  1  0
 26 25  2  0
 27 26  1  0
 28 17  1  0
 29 28  2  0
 30 28  1  0
M  END
$$$$
