SEW.pdb
     RDKit          3D

 30 31  0  0  1  0  0  0  0  0999 V2000
    7.3802  -13.4529   21.8733 O   0  0  0  0  0  0  0  0  0  0  0  0
    8.1387  -13.9101   20.7905 C   0  0  0  0  0  0  0  0  0  0  0  0
    7.9288  -15.3704   20.5700 C   0  0  2  0  0  0  0  0  0  0  0  0
    6.4859  -15.5828   20.4652 N   0  0  0  0  0  0  0  0  0  0  0  0
    8.4961  -16.1521   21.6835 C   0  0  0  0  0  0  0  0  0  0  0  0
    7.6558  -16.8002   22.4071 O   0  0  0  0  0  0  0  0  0  0  0  0
    9.8962  -16.1805   21.9202 N   0  0  0  0  0  0  0  0  0  0  0  0
   10.4579  -17.0433   22.8944 C   0  0  1  0  0  0  0  0  0  0  0  0
   11.6930  -17.7737   22.5962 C   0  0  0  0  0  0  0  0  0  0  0  0
   12.1707  -18.7672   23.5922 C   0  0  0  0  0  0  0  0  0  0  0  0
   13.4212  -19.4504   23.3218 C   0  0  0  0  0  0  0  0  0  0  0  0
   14.5059  -18.7886   23.3010 O   0  0  0  0  0  0  0  0  0  0  0  0
   10.3819  -16.4050   24.2393 C   0  0  0  0  0  0  0  0  0  0  0  0
   10.8648  -15.2688   24.4547 O   0  0  0  0  0  0  0  0  0  0  0  0
   13.5017  -20.8062   23.0781 O   0  0  0  0  0  0  0  0  0  0  0  0
    9.7731  -17.0075   25.3681 N   0  0  0  0  0  0  0  0  0  0  0  0
    9.8777  -16.5009   26.7205 C   0  0  1  0  0  0  0  0  0  0  0  0
    8.5558  -16.3608   27.3946 C   0  0  0  0  0  0  0  0  0  0  0  0
    7.6586  -15.5463   26.5400 C   0  0  0  0  0  0  0  0  0  0  0  0
    6.7132  -15.9550   25.5996 C   0  0  0  0  0  0  0  0  0  0  0  0
    6.1171  -14.9090   25.0368 N   0  0  0  0  0  0  0  0  0  0  0  0
    6.6260  -13.7894   25.5637 C   0  0  0  0  0  0  0  0  0  0  0  0
    6.3729  -12.4489   25.3437 C   0  0  0  0  0  0  0  0  0  0  0  0
    7.0620  -11.5016   26.0423 C   0  0  0  0  0  0  0  0  0  0  0  0
    8.0043  -11.8742   26.9612 C   0  0  0  0  0  0  0  0  0  0  0  0
    8.2823  -13.2028   27.2060 C   0  0  0  0  0  0  0  0  0  0  0  0
    7.5786  -14.1485   26.4933 C   0  0  0  0  0  0  0  0  0  0  0  0
   10.7254  -17.4175   27.4924 C   0  0  0  0  0  0  0  0  0  0  0  0
   10.7930  -18.6231   27.1833 O   0  0  0  0  0  0  0  0  0  0  0  0
   11.4515  -16.9500   28.5641 O   0  0  0  0  0  0  0  0  0  0  0  0
  1  2  1  0
  3  2  1  0
  3  5  1  0
  3  4  1  1
  5  6  2  0
  7  5  1  0
  7  8  1  0
  8  9  1  6
  9 10  1  0
 10 11  1  0
 11 12  2  0
 11 15  1  0
 13  8  1  0
 13 14  2  0
 16 13  1  0
 17 16  1  0
 17 18  1  1
 19 18  1  0
 19 27  1  0
 20 21  1  0
 20 19  2  0
 21 22  1  0
 22 23  1  0
 22 27  2  0
 23 24  2  0
 24 25  1  0
 26 25  2  0
 27 26  1  0
 28 17  1  0
 29 28  2  0
 30 28  1  0
M  END
$$$$
