SEW.pdb
     RDKit          3D

 30 31  0  0  1  0  0  0  0  0999 V2000
    6.5437  -14.0040   22.2320 O   0  0  0  0  0  0  0  0  0  0  0  0
    7.2778  -14.0781   21.0435 C   0  0  0  0  0  0  0  0  0  0  0  0
    7.4333  -15.4936   20.5993 C   0  0  2  0  0  0  0  0  0  0  0  0
    6.0877  -16.0218   20.3792 N   0  0  0  0  0  0  0  0  0  0  0  0
    8.1485  -16.2836   21.6176 C   0  0  0  0  0  0  0  0  0  0  0  0
    7.4201  -17.0120   22.3847 O   0  0  0  0  0  0  0  0  0  0  0  0
    9.5641  -16.2344   21.7222 N   0  0  0  0  0  0  0  0  0  0  0  0
   10.2635  -17.0851   22.6145 C   0  0  1  0  0  0  0  0  0  0  0  0
   11.5003  -17.7398   22.1791 C   0  0  0  0  0  0  0  0  0  0  0  0
   12.4816  -16.9311   21.4107 C   0  0  0  0  0  0  0  0  0  0  0  0
   13.6714  -17.5982   20.9179 C   0  0  0  0  0  0  0  0  0  0  0  0
   14.6504  -17.7964   21.7035 O   0  0  0  0  0  0  0  0  0  0  0  0
   10.2863  -16.4803   23.9767 C   0  0  0  0  0  0  0  0  0  0  0  0
   10.6987  -15.3127   24.1696 O   0  0  0  0  0  0  0  0  0  0  0  0
   13.8048  -18.0368   19.6164 O   0  0  0  0  0  0  0  0  0  0  0  0
    9.8552  -17.1513   25.1480 N   0  0  0  0  0  0  0  0  0  0  0  0
   10.0408  -16.6480   26.4929 C   0  0  1  0  0  0  0  0  0  0  0  0
    8.7703  -16.5756   27.2689 C   0  0  0  0  0  0  0  0  0  0  0  0
    7.8213  -15.6800   26.5645 C   0  0  0  0  0  0  0  0  0  0  0  0
    6.7591  -15.9982   25.7186 C   0  0  0  0  0  0  0  0  0  0  0  0
    6.1521  -14.8998   25.2811 N   0  0  0  0  0  0  0  0  0  0  0  0
    6.7674  -13.8322   25.8025 C   0  0  0  0  0  0  0  0  0  0  0  0
    6.5526  -12.4725   25.6809 C   0  0  0  0  0  0  0  0  0  0  0  0
    7.3581  -11.5935   26.3434 C   0  0  0  0  0  0  0  0  0  0  0  0
    8.3792  -12.0536   27.1288 C   0  0  0  0  0  0  0  0  0  0  0  0
    8.6219  -13.4036   27.2727 C   0  0  0  0  0  0  0  0  0  0  0  0
    7.8005  -14.2798   26.5980 C   0  0  0  0  0  0  0  0  0  0  0  0
   10.9887  -17.5272   27.1881 C   0  0  0  0  0  0  0  0  0  0  0  0
   11.4615  -18.5251   26.6100 O   0  0  0  0  0  0  0  0  0  0  0  0
   11.3611  -17.2542   28.4846 O   0  0  0  0  0  0  0  0  0  0  0  0
  1  2  1  0
  3  2  1  0
  3  5  1  0
  3  4  1  1
  5  6  2  0
  7  5  1  0
  7  8  1  0
  8  9  1  6
  9 10  1  0
 10 11  1  0
 11 12  2  0
 11 15  1  0
 13  8  1  0
 13 14  2  0
 16 13  1  0
 17 16  1  0
 17 18  1  1
 19 18  1  0
 19 27  1  0
 20 21  1  0
 20 19  2  0
 21 22  1  0
 22 23  1  0
 22 27  2  0
 23 24  2  0
 24 25  1  0
 26 25  2  0
 27 26  1  0
 28 17  1  0
 29 28  2  0
 30 28  1  0
M  END
$$$$
