SEW.pdb
     RDKit          3D

 30 31  0  0  1  0  0  0  0  0999 V2000
    7.4926  -12.9225   22.1385 O   0  0  0  0  0  0  0  0  0  0  0  0
    7.6450  -13.4062   20.8348 C   0  0  0  0  0  0  0  0  0  0  0  0
    7.2409  -14.8395   20.7463 C   0  0  2  0  0  0  0  0  0  0  0  0
    5.8028  -14.8939   21.0053 N   0  0  0  0  0  0  0  0  0  0  0  0
    7.9833  -15.6514   21.7272 C   0  0  0  0  0  0  0  0  0  0  0  0
    7.2911  -16.1591   22.6827 O   0  0  0  0  0  0  0  0  0  0  0  0
    9.3830  -15.8556   21.6000 N   0  0  0  0  0  0  0  0  0  0  0  0
   10.0663  -16.7856   22.4230 C   0  0  1  0  0  0  0  0  0  0  0  0
   11.1649  -17.5809   21.8679 C   0  0  0  0  0  0  0  0  0  0  0  0
   11.8270  -18.5688   22.7585 C   0  0  0  0  0  0  0  0  0  0  0  0
   12.9452  -19.3214   22.2229 C   0  0  0  0  0  0  0  0  0  0  0  0
   13.4487  -18.9868   21.1051 O   0  0  0  0  0  0  0  0  0  0  0  0
   10.3020  -16.1915   23.7697 C   0  0  0  0  0  0  0  0  0  0  0  0
   10.9657  -15.1384   23.9153 O   0  0  0  0  0  0  0  0  0  0  0  0
   13.5036  -20.4045   22.8704 O   0  0  0  0  0  0  0  0  0  0  0  0
    9.8109  -16.7472   24.9770 N   0  0  0  0  0  0  0  0  0  0  0  0
   10.4318  -16.5648   26.2723 C   0  0  1  0  0  0  0  0  0  0  0  0
    9.7871  -15.4924   27.0821 C   0  0  0  0  0  0  0  0  0  0  0  0
    8.4218  -15.2436   26.5598 C   0  0  0  0  0  0  0  0  0  0  0  0
    7.4322  -16.1533   26.1880 C   0  0  0  0  0  0  0  0  0  0  0  0
    6.3424  -15.5244   25.7601 N   0  0  0  0  0  0  0  0  0  0  0  0
    6.5538  -14.2049   25.8266 C   0  0  0  0  0  0  0  0  0  0  0  0
    5.7702  -13.1115   25.5103 C   0  0  0  0  0  0  0  0  0  0  0  0
    6.2589  -11.8499   25.6832 C   0  0  0  0  0  0  0  0  0  0  0  0
    7.5239  -11.6628   26.1693 C   0  0  0  0  0  0  0  0  0  0  0  0
    8.3330  -12.7312   26.4952 C   0  0  0  0  0  0  0  0  0  0  0  0
    7.8262  -13.9994   26.3156 C   0  0  0  0  0  0  0  0  0  0  0  0
   10.3613  -17.8370   27.0012 C   0  0  0  0  0  0  0  0  0  0  0  0
   10.8851  -17.9472   28.1268 O   0  0  0  0  0  0  0  0  0  0  0  0
    9.7152  -18.9173   26.4446 O   0  0  0  0  0  0  0  0  0  0  0  0
  1  2  1  0
  3  2  1  0
  3  5  1  0
  3  4  1  1
  5  6  2  0
  7  5  1  0
  7  8  1  0
  8  9  1  6
  9 10  1  0
 10 11  1  0
 11 12  2  0
 11 15  1  0
 13  8  1  0
 13 14  2  0
 16 13  1  0
 17 16  1  0
 17 18  1  1
 19 18  1  0
 19 27  1  0
 20 21  1  0
 20 19  2  0
 21 22  1  0
 22 23  1  0
 22 27  2  0
 23 24  2  0
 24 25  1  0
 26 25  2  0
 27 26  1  0
 28 17  1  0
 29 28  2  0
 30 28  1  0
M  END
$$$$
