SEW.pdb
     RDKit          3D

 30 31  0  0  1  0  0  0  0  0999 V2000
    6.2624  -14.4291   22.1644 O   0  0  0  0  0  0  0  0  0  0  0  0
    7.0245  -14.4133   20.9915 C   0  0  0  0  0  0  0  0  0  0  0  0
    7.4511  -15.7918   20.6132 C   0  0  2  0  0  0  0  0  0  0  0  0
    6.2333  -16.5800   20.4298 N   0  0  0  0  0  0  0  0  0  0  0  0
    8.3049  -16.3788   21.6616 C   0  0  0  0  0  0  0  0  0  0  0  0
    7.8021  -17.3621   22.3175 O   0  0  0  0  0  0  0  0  0  0  0  0
    9.6098  -15.8765   21.9106 N   0  0  0  0  0  0  0  0  0  0  0  0
   10.5077  -16.5604   22.7679 C   0  0  1  0  0  0  0  0  0  0  0  0
   11.8843  -16.8107   22.3318 C   0  0  0  0  0  0  0  0  0  0  0  0
   12.7473  -17.6503   23.2022 C   0  0  0  0  0  0  0  0  0  0  0  0
   14.0903  -17.9464   22.7416 C   0  0  0  0  0  0  0  0  0  0  0  0
   14.9782  -17.0376   22.7707 O   0  0  0  0  0  0  0  0  0  0  0  0
   10.3413  -16.0734   24.1669 C   0  0  0  0  0  0  0  0  0  0  0  0
   10.5907  -14.8865   24.4827 O   0  0  0  0  0  0  0  0  0  0  0  0
   14.4663  -19.1841   22.2610 O   0  0  0  0  0  0  0  0  0  0  0  0
    9.8977  -16.8853   25.2402 N   0  0  0  0  0  0  0  0  0  0  0  0
   10.0058  -16.5226   26.6378 C   0  0  1  0  0  0  0  0  0  0  0  0
    8.6924  -16.5188   27.3425 C   0  0  0  0  0  0  0  0  0  0  0  0
    7.7406  -15.6654   26.5912 C   0  0  0  0  0  0  0  0  0  0  0  0
    6.7609  -16.0265   25.6665 C   0  0  0  0  0  0  0  0  0  0  0  0
    6.1187  -14.9564   25.2095 N   0  0  0  0  0  0  0  0  0  0  0  0
    6.6292  -13.8666   25.7941 C   0  0  0  0  0  0  0  0  0  0  0  0
    6.3396  -12.5198   25.6849 C   0  0  0  0  0  0  0  0  0  0  0  0
    7.0415  -11.6101   26.4197 C   0  0  0  0  0  0  0  0  0  0  0  0
    8.0327  -12.0266   27.2655 C   0  0  0  0  0  0  0  0  0  0  0  0
    8.3479  -13.3626   27.3992 C   0  0  0  0  0  0  0  0  0  0  0  0
    7.6308  -14.2701   26.6511 C   0  0  0  0  0  0  0  0  0  0  0  0
   10.9095  -17.4757   27.2934 C   0  0  0  0  0  0  0  0  0  0  0  0
   11.3380  -18.4668   26.6708 O   0  0  0  0  0  0  0  0  0  0  0  0
   11.2891  -17.2799   28.6017 O   0  0  0  0  0  0  0  0  0  0  0  0
  1  2  1  0
  3  2  1  0
  3  5  1  0
  3  4  1  1
  5  6  2  0
  7  5  1  0
  7  8  1  0
  8  9  1  6
  9 10  1  0
 10 11  1  0
 11 12  2  0
 11 15  1  0
 13  8  1  0
 13 14  2  0
 16 13  1  0
 17 16  1  0
 17 18  1  1
 19 18  1  0
 19 27  1  0
 20 21  1  0
 20 19  2  0
 21 22  1  0
 22 23  1  0
 22 27  2  0
 23 24  2  0
 24 25  1  0
 26 25  2  0
 27 26  1  0
 28 17  1  0
 29 28  2  0
 30 28  1  0
M  END
$$$$
