KKP.pdb
     RDKit          3D

 26 26  0  0  1  0  0  0  0  0999 V2000
   12.6928  -19.5671   16.5412 N   0  0  0  0  0  0  0  0  0  0  0  0
   12.3771  -20.3038   17.7480 C   0  0  1  0  0  0  0  0  0  0  0  0
   13.6418  -20.9458   18.3157 C   0  0  0  0  0  0  0  0  0  0  0  0
   14.7129  -20.7617   17.2831 C   0  0  0  0  0  0  0  0  0  0  0  0
   16.0071  -21.4135   17.6474 C   0  0  0  0  0  0  0  0  0  0  0  0
   17.1390  -21.2216   16.6985 C   0  0  0  0  0  0  0  0  0  0  0  0
   18.3313  -21.8632   17.1407 N   0  0  0  0  0  0  0  0  0  0  0  0
   11.7394  -19.3911   18.7543 C   0  0  0  0  0  0  0  0  0  0  0  0
   12.0870  -18.1870   18.8564 O   0  0  0  0  0  0  0  0  0  0  0  0
   10.7267  -19.8312   19.6300 N   0  0  0  0  0  0  0  0  0  0  0  0
    9.9864  -18.8738   20.5239 C   0  0  1  0  0  0  0  0  0  0  0  0
    8.7461  -19.6146   20.9850 C   0  0  0  0  0  0  0  0  0  0  0  0
    7.6892  -19.6672   19.9541 C   0  0  0  0  0  0  0  0  0  0  0  0
    7.2742  -21.0857   19.6034 C   0  0  0  0  0  0  0  0  0  0  0  0
    6.1891  -21.0571   18.5225 C   0  0  0  0  0  0  0  0  0  0  0  0
    5.7412  -22.3852   18.2113 N   0  0  0  0  0  0  0  0  0  0  0  0
   10.9085  -18.7626   21.6733 C   0  0  0  0  0  0  0  0  0  0  0  0
   11.8508  -19.6512   21.7080 O   0  0  0  0  0  0  0  0  0  0  0  0
   10.9374  -17.8468   22.7359 N   0  0  0  0  0  0  0  0  0  0  0  0
    9.7769  -16.9433   22.9683 C   0  0  0  0  0  0  0  0  0  0  0  0
   10.3257  -15.7381   23.6759 C   0  0  0  0  0  0  0  0  0  0  0  0
   11.8085  -15.9795   23.7740 C   0  0  0  0  0  0  0  0  0  0  0  0
   11.8274  -17.5119   23.7945 C   0  0  1  0  0  0  0  0  0  0  0  0
   11.2526  -17.8956   25.1386 C   0  0  0  0  0  0  0  0  0  0  0  0
   10.0374  -18.1790   25.2400 O   0  0  0  0  0  0  0  0  0  0  0  0
   12.0129  -17.9519   26.2925 O   0  0  0  0  0  0  0  0  0  0  0  0
  2  8  1  0
  2  1  1  6
  3  4  1  0
  3  2  1  0
  5  6  1  0
  5  4  1  0
  7  6  1  0
  8  9  2  0
 10 11  1  0
 10  8  1  0
 11 12  1  1
 13 12  1  0
 14 13  1  0
 15 14  1  0
 16 15  1  0
 17 11  1  0
 18 17  2  0
 19 17  1  0
 20 19  1  0
 21 20  1  0
 21 22  1  0
 22 23  1  0
 23 19  1  0
 23 24  1  1
 25 24  2  0
 26 24  1  0
M  END
$$$$
