KKP.pdb
     RDKit          3D

 26 26  0  0  1  0  0  0  0  0999 V2000
    5.7624  -17.2907   20.4135 N   0  0  0  0  0  0  0  0  0  0  0  0
    6.6716  -16.3675   21.0616 C   0  0  1  0  0  0  0  0  0  0  0  0
    6.3873  -14.9399   20.5977 C   0  0  0  0  0  0  0  0  0  0  0  0
    7.3181  -14.6709   19.4537 C   0  0  0  0  0  0  0  0  0  0  0  0
    7.9826  -13.3348   19.5306 C   0  0  0  0  0  0  0  0  0  0  0  0
    8.7826  -12.9204   18.3446 C   0  0  0  0  0  0  0  0  0  0  0  0
    9.2737  -11.5884   18.4611 N   0  0  0  0  0  0  0  0  0  0  0  0
    6.5443  -16.4836   22.5524 C   0  0  0  0  0  0  0  0  0  0  0  0
    5.4349  -16.3382   23.1264 O   0  0  0  0  0  0  0  0  0  0  0  0
    7.6509  -16.7590   23.3803 N   0  0  0  0  0  0  0  0  0  0  0  0
    7.5344  -16.7530   24.8803 C   0  0  1  0  0  0  0  0  0  0  0  0
    8.3578  -17.9313   25.3631 C   0  0  0  0  0  0  0  0  0  0  0  0
    8.4742  -17.9892   26.8348 C   0  0  0  0  0  0  0  0  0  0  0  0
    9.3931  -19.1002   27.3129 C   0  0  0  0  0  0  0  0  0  0  0  0
    9.4531  -19.1019   28.8435 C   0  0  0  0  0  0  0  0  0  0  0  0
   10.3732  -20.0963   29.3188 N   0  0  0  0  0  0  0  0  0  0  0  0
    8.2571  -15.5130   25.2324 C   0  0  0  0  0  0  0  0  0  0  0  0
    9.3017  -15.2629   24.5079 O   0  0  0  0  0  0  0  0  0  0  0  0
    7.9960  -14.5532   26.2220 N   0  0  0  0  0  0  0  0  0  0  0  0
    6.8290  -14.7234   27.1309 C   0  0  0  0  0  0  0  0  0  0  0  0
    6.4514  -13.3422   27.5830 C   0  0  0  0  0  0  0  0  0  0  0  0
    7.3973  -12.4190   26.8623 C   0  0  0  0  0  0  0  0  0  0  0  0
    8.6003  -13.3529   26.6898 C   0  0  1  0  0  0  0  0  0  0  0  0
    9.1665  -13.5278   28.0802 C   0  0  0  0  0  0  0  0  0  0  0  0
    9.7692  -12.5797   28.6327 O   0  0  0  0  0  0  0  0  0  0  0  0
    9.0537  -14.7066   28.7946 O   0  0  0  0  0  0  0  0  0  0  0  0
  2  8  1  0
  2  1  1  6
  3  4  1  0
  3  2  1  0
  5  6  1  0
  5  4  1  0
  7  6  1  0
  8  9  2  0
 10 11  1  0
 10  8  1  0
 11 12  1  1
 13 12  1  0
 14 13  1  0
 15 14  1  0
 16 15  1  0
 17 11  1  0
 18 17  2  0
 19 17  1  0
 20 19  1  0
 21 20  1  0
 21 22  1  0
 22 23  1  0
 23 19  1  0
 23 24  1  1
 25 24  2  0
 26 24  1  0
M  END
$$$$
