KKP.pdb
     RDKit          3D

 26 26  0  0  1  0  0  0  0  0999 V2000
    6.6665  -15.6061   20.0940 N   0  0  0  0  0  0  0  0  0  0  0  0
    7.5064  -14.7016   20.8524 C   0  0  1  0  0  0  0  0  0  0  0  0
    7.2359  -13.2582   20.4310 C   0  0  0  0  0  0  0  0  0  0  0  0
    7.2930  -13.2343   18.9332 C   0  0  0  0  0  0  0  0  0  0  0  0
    8.6588  -13.4969   18.3869 C   0  0  0  0  0  0  0  0  0  0  0  0
    8.8088  -13.4237   16.9069 C   0  0  0  0  0  0  0  0  0  0  0  0
   10.1252  -13.7589   16.4786 N   0  0  0  0  0  0  0  0  0  0  0  0
    7.2643  -14.8869   22.3218 C   0  0  0  0  0  0  0  0  0  0  0  0
    6.6222  -14.0370   22.9901 O   0  0  0  0  0  0  0  0  0  0  0  0
    7.7392  -16.0127   23.0239 N   0  0  0  0  0  0  0  0  0  0  0  0
    7.4202  -16.2272   24.4785 C   0  0  1  0  0  0  0  0  0  0  0  0
    7.4800  -17.7266   24.6976 C   0  0  0  0  0  0  0  0  0  0  0  0
    7.3634  -18.1066   26.1205 C   0  0  0  0  0  0  0  0  0  0  0  0
    7.4854  -19.6038   26.3454 C   0  0  0  0  0  0  0  0  0  0  0  0
    7.1722  -19.9366   27.8075 C   0  0  0  0  0  0  0  0  0  0  0  0
    7.2320  -21.3530   28.0345 N   0  0  0  0  0  0  0  0  0  0  0  0
    8.5959  -15.6200   25.1362 C   0  0  0  0  0  0  0  0  0  0  0  0
    9.7346  -15.8872   24.5788 O   0  0  0  0  0  0  0  0  0  0  0  0
    8.6847  -14.7932   26.2663 N   0  0  0  0  0  0  0  0  0  0  0  0
    7.4459  -14.3745   26.9784 C   0  0  0  0  0  0  0  0  0  0  0  0
    7.7782  -13.0787   27.6604 C   0  0  0  0  0  0  0  0  0  0  0  0
    9.1980  -12.7760   27.2617 C   0  0  0  0  0  0  0  0  0  0  0  0
    9.7210  -14.1995   27.0400 C   0  0  1  0  0  0  0  0  0  0  0  0
    9.7966  -14.8114   28.4200 C   0  0  0  0  0  0  0  0  0  0  0  0
   10.6738  -14.4269   29.2262 O   0  0  0  0  0  0  0  0  0  0  0  0
    8.9294  -15.7979   28.8529 O   0  0  0  0  0  0  0  0  0  0  0  0
  2  8  1  0
  2  1  1  6
  3  4  1  0
  3  2  1  0
  5  6  1  0
  5  4  1  0
  7  6  1  0
  8  9  2  0
 10 11  1  0
 10  8  1  0
 11 12  1  6
 13 12  1  0
 14 13  1  0
 15 14  1  0
 16 15  1  0
 17 11  1  0
 18 17  2  0
 19 17  1  0
 20 19  1  0
 21 20  1  0
 21 22  1  0
 22 23  1  0
 23 19  1  0
 23 24  1  1
 25 24  2  0
 26 24  1  0
M  END
$$$$
