KKP.pdb
     RDKit          3D

 26 26  0  0  1  0  0  0  0  0999 V2000
    7.8635  -15.6768   19.7997 N   0  0  0  0  0  0  0  0  0  0  0  0
    7.8426  -14.4616   20.5884 C   0  0  1  0  0  0  0  0  0  0  0  0
    7.0171  -13.3903   19.8779 C   0  0  0  0  0  0  0  0  0  0  0  0
    7.1496  -13.6559   18.4084 C   0  0  0  0  0  0  0  0  0  0  0  0
    8.5339  -13.4407   17.8887 C   0  0  0  0  0  0  0  0  0  0  0  0
    8.7309  -13.6258   16.4240 C   0  0  0  0  0  0  0  0  0  0  0  0
   10.0838  -13.4192   16.0291 N   0  0  0  0  0  0  0  0  0  0  0  0
    7.2916  -14.7463   21.9550 C   0  0  0  0  0  0  0  0  0  0  0  0
    6.5212  -13.9359   22.5303 O   0  0  0  0  0  0  0  0  0  0  0  0
    7.6056  -15.9258   22.6593 N   0  0  0  0  0  0  0  0  0  0  0  0
    7.1665  -16.1346   24.0831 C   0  0  1  0  0  0  0  0  0  0  0  0
    7.4290  -17.5971   24.3860 C   0  0  0  0  0  0  0  0  0  0  0  0
    7.7550  -17.8426   25.8058 C   0  0  0  0  0  0  0  0  0  0  0  0
    6.8747  -18.9054   26.4403 C   0  0  0  0  0  0  0  0  0  0  0  0
    7.7062  -19.7648   27.3977 C   0  0  0  0  0  0  0  0  0  0  0  0
    6.8667  -20.6609   28.1418 N   0  0  0  0  0  0  0  0  0  0  0  0
    8.1578  -15.3273   24.8243 C   0  0  0  0  0  0  0  0  0  0  0  0
    9.3484  -15.3169   24.3132 O   0  0  0  0  0  0  0  0  0  0  0  0
    8.0227  -14.5613   25.9920 N   0  0  0  0  0  0  0  0  0  0  0  0
    6.7638  -14.6321   26.7841 C   0  0  0  0  0  0  0  0  0  0  0  0
    6.6629  -13.3265   27.5188 C   0  0  0  0  0  0  0  0  0  0  0  0
    7.8577  -12.5281   27.0700 C   0  0  0  0  0  0  0  0  0  0  0  0
    8.8318  -13.6664   26.7466 C   0  0  1  0  0  0  0  0  0  0  0  0
    9.2051  -14.2586   28.0861 C   0  0  0  0  0  0  0  0  0  0  0  0
    9.8870  -13.5904   28.8959 O   0  0  0  0  0  0  0  0  0  0  0  0
    8.8266  -15.5300   28.4772 O   0  0  0  0  0  0  0  0  0  0  0  0
  2  8  1  0
  2  1  1  6
  3  4  1  0
  3  2  1  0
  5  6  1  0
  5  4  1  0
  7  6  1  0
  8  9  2  0
 10 11  1  0
 10  8  1  0
 11 12  1  1
 13 12  1  0
 14 13  1  0
 15 14  1  0
 16 15  1  0
 17 11  1  0
 18 17  2  0
 19 17  1  0
 20 19  1  0
 21 20  1  0
 21 22  1  0
 22 23  1  0
 23 19  1  0
 23 24  1  1
 25 24  2  0
 26 24  1  0
M  END
$$$$
