KKP.pdb
     RDKit          3D

 26 26  0  0  1  0  0  0  0  0999 V2000
    6.7072  -17.1469   20.0179 N   0  0  0  0  0  0  0  0  0  0  0  0
    7.5329  -16.2009   20.7406 C   0  0  1  0  0  0  0  0  0  0  0  0
    7.4219  -14.8162   20.1048 C   0  0  0  0  0  0  0  0  0  0  0  0
    8.0623  -14.9161   18.7530 C   0  0  0  0  0  0  0  0  0  0  0  0
    8.0405  -13.6318   17.9894 C   0  0  0  0  0  0  0  0  0  0  0  0
    8.7109  -13.6372   16.6594 C   0  0  0  0  0  0  0  0  0  0  0  0
    8.6146  -12.3787   15.9993 N   0  0  0  0  0  0  0  0  0  0  0  0
    7.1262  -16.1634   22.1847 C   0  0  0  0  0  0  0  0  0  0  0  0
    5.9341  -15.9484   22.5221 O   0  0  0  0  0  0  0  0  0  0  0  0
    8.0502  -16.3652   23.2294 N   0  0  0  0  0  0  0  0  0  0  0  0
    7.6150  -16.4128   24.6688 C   0  0  1  0  0  0  0  0  0  0  0  0
    8.1301  -17.7315   25.2125 C   0  0  0  0  0  0  0  0  0  0  0  0
    7.0490  -18.6908   25.5186 C   0  0  0  0  0  0  0  0  0  0  0  0
    6.8070  -19.6874   24.3981 C   0  0  0  0  0  0  0  0  0  0  0  0
    5.5604  -20.5226   24.7062 C   0  0  0  0  0  0  0  0  0  0  0  0
    5.2059  -21.3464   23.5850 N   0  0  0  0  0  0  0  0  0  0  0  0
    8.4209  -15.3256   25.2621 C   0  0  0  0  0  0  0  0  0  0  0  0
    9.5712  -15.1266   24.6999 O   0  0  0  0  0  0  0  0  0  0  0  0
    8.1443  -14.4643   26.3346 N   0  0  0  0  0  0  0  0  0  0  0  0
    6.8083  -14.5020   26.9908 C   0  0  0  0  0  0  0  0  0  0  0  0
    6.6024  -13.1404   27.5893 C   0  0  0  0  0  0  0  0  0  0  0  0
    7.8230  -12.3499   27.2002 C   0  0  0  0  0  0  0  0  0  0  0  0
    8.8487  -13.4831   27.0871 C   0  0  1  0  0  0  0  0  0  0  0  0
    9.0854  -13.9441   28.5068 C   0  0  0  0  0  0  0  0  0  0  0  0
    8.5651  -15.0079   28.9127 O   0  0  0  0  0  0  0  0  0  0  0  0
    9.8639  -13.2383   29.4060 O   0  0  0  0  0  0  0  0  0  0  0  0
  2  8  1  0
  2  1  1  6
  3  4  1  0
  3  2  1  0
  5  6  1  0
  5  4  1  0
  7  6  1  0
  8  9  2  0
 10 11  1  0
 10  8  1  0
 11 12  1  1
 13 12  1  0
 14 13  1  0
 15 14  1  0
 16 15  1  0
 17 11  1  0
 18 17  2  0
 19 17  1  0
 20 19  1  0
 21 20  1  0
 21 22  1  0
 22 23  1  0
 23 19  1  0
 23 24  1  1
 25 24  2  0
 26 24  1  0
M  END
$$$$
