KKP.pdb
     RDKit          3D

 26 26  0  0  1  0  0  0  0  0999 V2000
    8.7098  -16.5824   18.2309 N   0  0  0  0  0  0  0  0  0  0  0  0
    7.8643  -16.9578   19.3459 C   0  0  1  0  0  0  0  0  0  0  0  0
    7.7489  -18.4790   19.4268 C   0  0  0  0  0  0  0  0  0  0  0  0
    9.1473  -19.0157   19.3666 C   0  0  0  0  0  0  0  0  0  0  0  0
    9.2083  -20.4859   19.1065 C   0  0  0  0  0  0  0  0  0  0  0  0
    9.0038  -20.9212   17.6969 C   0  0  0  0  0  0  0  0  0  0  0  0
    8.9750  -22.3393   17.5668 N   0  0  0  0  0  0  0  0  0  0  0  0
    8.4163  -16.3921   20.6216 C   0  0  0  0  0  0  0  0  0  0  0  0
    9.6496  -16.1962   20.7694 O   0  0  0  0  0  0  0  0  0  0  0  0
    7.5894  -16.0536   21.7114 N   0  0  0  0  0  0  0  0  0  0  0  0
    8.1303  -15.3378   22.9192 C   0  0  1  0  0  0  0  0  0  0  0  0
    6.9179  -14.9141   23.7255 C   0  0  0  0  0  0  0  0  0  0  0  0
    7.2663  -14.4133   25.0710 C   0  0  0  0  0  0  0  0  0  0  0  0
    6.5119  -13.1494   25.4460 C   0  0  0  0  0  0  0  0  0  0  0  0
    6.8684  -12.7374   26.8778 C   0  0  0  0  0  0  0  0  0  0  0  0
    6.2816  -11.4689   27.2067 N   0  0  0  0  0  0  0  0  0  0  0  0
    8.8019  -16.4369   23.6435 C   0  0  0  0  0  0  0  0  0  0  0  0
    8.2474  -17.6004   23.5104 O   0  0  0  0  0  0  0  0  0  0  0  0
    9.9494  -16.4319   24.4509 N   0  0  0  0  0  0  0  0  0  0  0  0
   10.6259  -15.1446   24.7704 C   0  0  0  0  0  0  0  0  0  0  0  0
   12.0598  -15.4893   25.0528 C   0  0  0  0  0  0  0  0  0  0  0  0
   12.1599  -16.9745   24.8281 C   0  0  0  0  0  0  0  0  0  0  0  0
   10.7233  -17.3913   25.1619 C   0  0  1  0  0  0  0  0  0  0  0  0
   10.5951  -17.2032   26.6561 C   0  0  0  0  0  0  0  0  0  0  0  0
   11.5825  -16.8213   27.3242 O   0  0  0  0  0  0  0  0  0  0  0  0
    9.4183  -17.4359   27.3443 O   0  0  0  0  0  0  0  0  0  0  0  0
  2  8  1  0
  2  1  1  6
  3  4  1  0
  3  2  1  0
  5  6  1  0
  5  4  1  0
  7  6  1  0
  8  9  2  0
 10 11  1  0
 10  8  1  0
 11 12  1  1
 13 12  1  0
 14 13  1  0
 15 14  1  0
 16 15  1  0
 17 11  1  0
 18 17  2  0
 19 17  1  0
 20 19  1  0
 21 20  1  0
 21 22  1  0
 22 23  1  0
 23 19  1  0
 23 24  1  1
 25 24  2  0
 26 24  1  0
M  END
$$$$
