KKP.pdb
     RDKit          3D

 26 26  0  0  1  0  0  0  0  0999 V2000
   10.8018  -16.4076   20.1178 N   0  0  0  0  0  0  0  0  0  0  0  0
   10.0470  -16.9510   21.2287 C   0  0  1  0  0  0  0  0  0  0  0  0
   10.5490  -18.3538   21.5667 C   0  0  0  0  0  0  0  0  0  0  0  0
    9.7993  -19.2997   20.6776 C   0  0  0  0  0  0  0  0  0  0  0  0
   10.6577  -19.9436   19.6377 C   0  0  0  0  0  0  0  0  0  0  0  0
    9.9986  -20.9520   18.7620 C   0  0  0  0  0  0  0  0  0  0  0  0
   10.8968  -21.5107   17.8081 N   0  0  0  0  0  0  0  0  0  0  0  0
   10.1554  -16.0406   22.4168 C   0  0  0  0  0  0  0  0  0  0  0  0
   11.2475  -15.5011   22.7287 O   0  0  0  0  0  0  0  0  0  0  0  0
    9.0491  -15.7448   23.2382 N   0  0  0  0  0  0  0  0  0  0  0  0
    9.1554  -14.7780   24.3861 C   0  0  1  0  0  0  0  0  0  0  0  0
    7.7741  -14.1729   24.5455 C   0  0  0  0  0  0  0  0  0  0  0  0
    7.6416  -13.3518   25.7665 C   0  0  0  0  0  0  0  0  0  0  0  0
    6.2768  -12.6975   25.8948 C   0  0  0  0  0  0  0  0  0  0  0  0
    6.2782  -11.7204   27.0746 C   0  0  0  0  0  0  0  0  0  0  0  0
    5.0246  -11.0265   27.1663 N   0  0  0  0  0  0  0  0  0  0  0  0
    9.3915  -15.6894   25.5251 C   0  0  0  0  0  0  0  0  0  0  0  0
    9.0736  -16.9272   25.3116 O   0  0  0  0  0  0  0  0  0  0  0  0
    9.9108  -15.4376   26.8039 N   0  0  0  0  0  0  0  0  0  0  0  0
    9.4024  -14.2848   27.5973 C   0  0  0  0  0  0  0  0  0  0  0  0
   10.5118  -13.9067   28.5359 C   0  0  0  0  0  0  0  0  0  0  0  0
   11.6465  -14.8373   28.2004 C   0  0  0  0  0  0  0  0  0  0  0  0
   10.8565  -16.0425   27.6785 C   0  0  1  0  0  0  0  0  0  0  0  0
   10.1819  -16.6295   28.8970 C   0  0  0  0  0  0  0  0  0  0  0  0
   10.8721  -17.1474   29.8040 O   0  0  0  0  0  0  0  0  0  0  0  0
    8.8098  -16.6272   29.0704 O   0  0  0  0  0  0  0  0  0  0  0  0
  2  8  1  0
  2  1  1  6
  3  4  1  0
  3  2  1  0
  5  6  1  0
  5  4  1  0
  7  6  1  0
  8  9  2  0
 10 11  1  0
 10  8  1  0
 11 12  1  1
 13 12  1  0
 14 13  1  0
 15 14  1  0
 16 15  1  0
 17 11  1  0
 18 17  2  0
 19 17  1  0
 20 19  1  0
 21 20  1  0
 21 22  1  0
 22 23  1  0
 23 19  1  0
 23 24  1  1
 25 24  2  0
 26 24  1  0
M  END
$$$$
