NWI.pdb
     RDKit          3D

 31 32  0  0  1  0  0  0  0  0999 V2000
   28.8653  -18.7438  -16.1902 N   0  0  0  0  0  0  0  0  0  0  0  0
   27.5571  -19.2630  -16.2992 C   0  0  0  0  0  0  0  0  0  0  0  0
   26.9762  -19.1901  -17.3999 O   0  0  0  0  0  0  0  0  0  0  0  0
   26.9056  -19.8689  -15.1507 C   0  0  0  0  0  0  0  0  0  0  0  0
   27.8423  -20.7679  -14.3415 C   0  0  2  0  0  0  0  0  0  0  0  0
   27.9612  -21.9955  -15.0922 N   0  0  0  0  0  0  0  0  0  0  0  0
   27.1463  -21.0397  -13.0556 C   0  0  0  0  0  0  0  0  0  0  0  0
   26.0062  -21.6162  -13.0683 O   0  0  0  0  0  0  0  0  0  0  0  0
   27.6750  -20.6944  -11.7978 N   0  0  0  0  0  0  0  0  0  0  0  0
   26.9203  -20.8611  -10.5295 C   0  0  1  0  0  0  0  0  0  0  0  0
   27.7499  -20.6251   -9.3518 C   0  0  0  0  0  0  0  0  0  0  0  0
   27.1097  -20.5417   -8.0356 C   0  0  0  0  0  0  0  0  0  0  0  0
   25.7846  -20.9177   -7.7581 C   0  0  0  0  0  0  0  0  0  0  0  0
   25.5585  -20.7522   -6.4579 N   0  0  0  0  0  0  0  0  0  0  0  0
   26.6585  -20.2827   -5.8355 C   0  0  0  0  0  0  0  0  0  0  0  0
   26.9477  -19.9315   -4.5361 C   0  0  0  0  0  0  0  0  0  0  0  0
   28.1828  -19.4521   -4.2128 C   0  0  0  0  0  0  0  0  0  0  0  0
   29.1582  -19.3104   -5.1700 C   0  0  0  0  0  0  0  0  0  0  0  0
   28.8508  -19.6648   -6.4488 C   0  0  0  0  0  0  0  0  0  0  0  0
   27.6229  -20.1560   -6.8395 C   0  0  0  0  0  0  0  0  0  0  0  0
   25.5977  -20.2989  -10.7068 C   0  0  0  0  0  0  0  0  0  0  0  0
   25.4902  -19.0402  -11.0444 O   0  0  0  0  0  0  0  0  0  0  0  0
   21.9750  -18.8519  -14.4127 C   0  0  0  0  0  0  0  0  0  0  0  0
   21.9072  -19.2083  -12.9481 C   0  0  0  0  0  0  0  0  0  0  0  0
   23.0725  -19.9727  -12.4290 C   0  0  2  0  0  0  0  0  0  0  0  0
   23.1012  -21.3108  -13.1759 C   0  0  0  0  0  0  0  0  0  0  0  0
   23.0791  -20.2911  -10.9786 C   0  0  2  0  0  0  0  0  0  0  0  0
   24.3335  -20.9229  -10.5765 N   0  0  0  0  0  0  0  0  0  0  0  0
   21.8783  -20.9213  -10.4344 C   0  0  0  0  0  0  0  0  0  0  0  0
   21.9452  -22.1982   -9.8286 O   0  0  0  0  0  0  0  0  0  0  0  0
   20.7702  -20.3532  -10.4913 O   0  0  0  0  0  0  0  0  0  0  0  0
  2  3  2  0
  2  1  1  0
  4  2  1  0
  5  6  1  6
  5  4  1  0
  7  5  1  0
  8  7  2  0
  9  7  1  0
 10  9  1  0
 10 11  1  1
 11 12  1  0
 12 13  2  0
 13 14  1  0
 15 16  2  0
 15 14  1  0
 17 16  1  0
 18 19  1  0
 18 17  2  0
 19 20  2  0
 20 12  1  0
 20 15  1  0
 21 22  2  0
 21 10  1  0
 23 24  1  0
 24 25  1  0
 25 27  1  0
 25 26  1  6
 27 29  1  0
 27 28  1  6
 28 21  1  0
 29 30  1  0
 31 29  2  0
M  END
$$$$
