NWI.pdb
     RDKit          3D

 31 32  0  0  1  0  0  0  0  0999 V2000
   24.4508  -16.0381  -19.6143 N   0  0  0  0  0  0  0  0  0  0  0  0
   25.5174  -16.4689  -18.7960 C   0  0  0  0  0  0  0  0  0  0  0  0
   26.5145  -15.7299  -18.6775 O   0  0  0  0  0  0  0  0  0  0  0  0
   25.4502  -17.7469  -18.1084 C   0  0  0  0  0  0  0  0  0  0  0  0
   26.8195  -18.2423  -17.6391 C   0  0  2  0  0  0  0  0  0  0  0  0
   27.3159  -19.0950  -18.6931 N   0  0  0  0  0  0  0  0  0  0  0  0
   26.5692  -19.0568  -16.4201 C   0  0  0  0  0  0  0  0  0  0  0  0
   25.8571  -20.1140  -16.5066 O   0  0  0  0  0  0  0  0  0  0  0  0
   27.0778  -18.7297  -15.1492 N   0  0  0  0  0  0  0  0  0  0  0  0
   26.8695  -19.5817  -13.9506 C   0  0  1  0  0  0  0  0  0  0  0  0
   27.8901  -19.3667  -12.9294 C   0  0  0  0  0  0  0  0  0  0  0  0
   27.8765  -20.2000  -11.7233 C   0  0  0  0  0  0  0  0  0  0  0  0
   28.5358  -21.4334  -11.5877 C   0  0  0  0  0  0  0  0  0  0  0  0
   28.3460  -21.8838  -10.3507 N   0  0  0  0  0  0  0  0  0  0  0  0
   27.5919  -21.0236   -9.6372 C   0  0  0  0  0  0  0  0  0  0  0  0
   27.1007  -21.0194   -8.3511 C   0  0  0  0  0  0  0  0  0  0  0  0
   26.3242  -19.9863   -7.9158 C   0  0  0  0  0  0  0  0  0  0  0  0
   26.0176  -18.9348   -8.7453 C   0  0  0  0  0  0  0  0  0  0  0  0
   26.5150  -18.9589  -10.0131 C   0  0  0  0  0  0  0  0  0  0  0  0
   27.3056  -19.9723  -10.5129 C   0  0  0  0  0  0  0  0  0  0  0  0
   25.4501  -19.6366  -13.6694 C   0  0  0  0  0  0  0  0  0  0  0  0
   24.7526  -18.5328  -13.7394 O   0  0  0  0  0  0  0  0  0  0  0  0
   19.9869  -21.2393  -14.9372 C   0  0  0  0  0  0  0  0  0  0  0  0
   20.8736  -20.9309  -13.7559 C   0  0  0  0  0  0  0  0  0  0  0  0
   22.3335  -21.0486  -14.0138 C   0  0  2  0  0  0  0  0  0  0  0  0
   22.6217  -22.5265  -14.2999 C   0  0  0  0  0  0  0  0  0  0  0  0
   23.2478  -20.6380  -12.9180 C   0  0  2  0  0  0  0  0  0  0  0  0
   24.6476  -20.7498  -13.3208 N   0  0  0  0  0  0  0  0  0  0  0  0
   22.9551  -21.1559  -11.5834 C   0  0  0  0  0  0  0  0  0  0  0  0
   23.9105  -21.9317  -10.8852 O   0  0  0  0  0  0  0  0  0  0  0  0
   21.8612  -20.9298  -11.0300 O   0  0  0  0  0  0  0  0  0  0  0  0
  2  3  2  0
  2  1  1  0
  4  2  1  0
  5  6  1  6
  5  4  1  0
  7  5  1  0
  8  7  2  0
  9  7  1  0
 10  9  1  0
 10 11  1  1
 11 12  1  0
 12 13  2  0
 13 14  1  0
 15 16  2  0
 15 14  1  0
 17 16  1  0
 18 19  1  0
 18 17  2  0
 19 20  2  0
 20 12  1  0
 20 15  1  0
 21 22  2  0
 21 10  1  0
 23 24  1  0
 24 25  1  0
 25 27  1  0
 25 26  1  1
 27 29  1  0
 27 28  1  6
 28 21  1  0
 29 30  1  0
 31 29  2  0
M  END
$$$$
