NWI.pdb
     RDKit          3D

 31 32  0  0  1  0  0  0  0  0999 V2000
   28.8365  -17.1122  -15.5848 N   0  0  0  0  0  0  0  0  0  0  0  0
   28.2470  -18.2928  -16.0862 C   0  0  0  0  0  0  0  0  0  0  0  0
   28.4500  -18.6018  -17.2768 O   0  0  0  0  0  0  0  0  0  0  0  0
   27.4222  -19.1271  -15.2293 C   0  0  0  0  0  0  0  0  0  0  0  0
   28.2160  -20.2375  -14.5383 C   0  0  2  0  0  0  0  0  0  0  0  0
   28.2239  -21.3509  -15.4574 N   0  0  0  0  0  0  0  0  0  0  0  0
   27.4416  -20.6047  -13.3228 C   0  0  0  0  0  0  0  0  0  0  0  0
   26.3706  -21.2907  -13.4441 O   0  0  0  0  0  0  0  0  0  0  0  0
   27.8216  -20.2362  -12.0188 N   0  0  0  0  0  0  0  0  0  0  0  0
   27.0807  -20.6705  -10.8070 C   0  0  1  0  0  0  0  0  0  0  0  0
   27.8071  -20.3790   -9.5749 C   0  0  0  0  0  0  0  0  0  0  0  0
   27.1159  -20.5237   -8.2901 C   0  0  0  0  0  0  0  0  0  0  0  0
   25.8489  -21.1061   -8.1172 C   0  0  0  0  0  0  0  0  0  0  0  0
   25.5563  -21.1112   -6.8197 N   0  0  0  0  0  0  0  0  0  0  0  0
   26.5557  -20.5625   -6.1002 C   0  0  0  0  0  0  0  0  0  0  0  0
   26.7464  -20.3136   -4.7596 C   0  0  0  0  0  0  0  0  0  0  0  0
   27.8886  -19.7050   -4.3297 C   0  0  0  0  0  0  0  0  0  0  0  0
   28.8668  -19.3300   -5.2187 C   0  0  0  0  0  0  0  0  0  0  0  0
   28.6579  -19.5869   -6.5400 C   0  0  0  0  0  0  0  0  0  0  0  0
   27.5268  -20.1990   -7.0378 C   0  0  0  0  0  0  0  0  0  0  0  0
   25.6758  -20.3776  -11.0003 C   0  0  0  0  0  0  0  0  0  0  0  0
   25.3221  -19.1490  -11.2748 O   0  0  0  0  0  0  0  0  0  0  0  0
   23.1452  -22.0349  -15.0364 C   0  0  0  0  0  0  0  0  0  0  0  0
   23.5772  -21.2687  -13.8104 C   0  0  0  0  0  0  0  0  0  0  0  0
   22.7835  -21.5412  -12.5826 C   0  0  2  0  0  0  0  0  0  0  0  0
   21.3470  -21.0884  -12.8662 C   0  0  0  0  0  0  0  0  0  0  0  0
   23.2109  -20.8558  -11.3365 C   0  0  2  0  0  0  0  0  0  0  0  0
   24.5625  -21.2506  -10.9469 N   0  0  0  0  0  0  0  0  0  0  0  0
   22.2474  -20.8179  -10.2386 C   0  0  0  0  0  0  0  0  0  0  0  0
   21.1189  -19.9665  -10.2984 O   0  0  0  0  0  0  0  0  0  0  0  0
   22.3956  -21.5300   -9.2263 O   0  0  0  0  0  0  0  0  0  0  0  0
  2  3  2  0
  2  1  1  0
  4  2  1  0
  5  6  1  6
  5  4  1  0
  7  5  1  0
  8  7  2  0
  9  7  1  0
 10  9  1  0
 10 11  1  1
 11 12  1  0
 12 13  2  0
 13 14  1  0
 15 16  2  0
 15 14  1  0
 17 16  1  0
 18 19  1  0
 18 17  2  0
 19 20  2  0
 20 12  1  0
 20 15  1  0
 21 22  2  0
 21 10  1  0
 23 24  1  0
 24 25  1  0
 25 27  1  0
 25 26  1  6
 27 29  1  0
 27 28  1  1
 28 21  1  0
 29 30  1  0
 31 29  2  0
M  END
$$$$
