NWI.pdb
     RDKit          3D

 31 32  0  0  1  0  0  0  0  0999 V2000
   27.3025  -19.0939  -17.4309 N   0  0  0  0  0  0  0  0  0  0  0  0
   27.7678  -19.0020  -16.1013 C   0  0  0  0  0  0  0  0  0  0  0  0
   28.8111  -18.3571  -15.8777 O   0  0  0  0  0  0  0  0  0  0  0  0
   27.0430  -19.6465  -15.0197 C   0  0  0  0  0  0  0  0  0  0  0  0
   27.8622  -20.7322  -14.3191 C   0  0  2  0  0  0  0  0  0  0  0  0
   27.8008  -21.8918  -15.1771 N   0  0  0  0  0  0  0  0  0  0  0  0
   27.1571  -21.0234  -13.0424 C   0  0  0  0  0  0  0  0  0  0  0  0
   26.0554  -21.6700  -13.0668 O   0  0  0  0  0  0  0  0  0  0  0  0
   27.6364  -20.6228  -11.7812 N   0  0  0  0  0  0  0  0  0  0  0  0
   26.8822  -20.8448  -10.5212 C   0  0  1  0  0  0  0  0  0  0  0  0
   27.7109  -20.6558   -9.3345 C   0  0  0  0  0  0  0  0  0  0  0  0
   27.0663  -20.5913   -8.0193 C   0  0  0  0  0  0  0  0  0  0  0  0
   25.7800  -21.0754   -7.7271 C   0  0  0  0  0  0  0  0  0  0  0  0
   25.5406  -20.8929   -6.4316 N   0  0  0  0  0  0  0  0  0  0  0  0
   26.5947  -20.3094   -5.8263 C   0  0  0  0  0  0  0  0  0  0  0  0
   26.8520  -19.8962   -4.5385 C   0  0  0  0  0  0  0  0  0  0  0  0
   28.0397  -19.2997   -4.2330 C   0  0  0  0  0  0  0  0  0  0  0  0
   28.9982  -19.0997   -5.1968 C   0  0  0  0  0  0  0  0  0  0  0  0
   28.7231  -19.5172   -6.4638 C   0  0  0  0  0  0  0  0  0  0  0  0
   27.5436  -20.1268   -6.8365 C   0  0  0  0  0  0  0  0  0  0  0  0
   25.5578  -20.2798  -10.6751 C   0  0  0  0  0  0  0  0  0  0  0  0
   25.4442  -19.0621  -11.1378 O   0  0  0  0  0  0  0  0  0  0  0  0
   22.1661  -19.2310  -14.5466 C   0  0  0  0  0  0  0  0  0  0  0  0
   22.1243  -19.2766  -13.0390 C   0  0  0  0  0  0  0  0  0  0  0  0
   23.0757  -20.2303  -12.4089 C   0  0  2  0  0  0  0  0  0  0  0  0
   22.7534  -21.6211  -12.9664 C   0  0  0  0  0  0  0  0  0  0  0  0
   23.0381  -20.3425  -10.9286 C   0  0  2  0  0  0  0  0  0  0  0  0
   24.2970  -20.8626  -10.4006 N   0  0  0  0  0  0  0  0  0  0  0  0
   21.8396  -20.9368  -10.3407 C   0  0  0  0  0  0  0  0  0  0  0  0
   20.6037  -20.2486  -10.3717 O   0  0  0  0  0  0  0  0  0  0  0  0
   21.8762  -22.0585   -9.7983 O   0  0  0  0  0  0  0  0  0  0  0  0
  2  3  2  0
  2  1  1  0
  4  2  1  0
  5  6  1  6
  5  4  1  0
  7  5  1  0
  8  7  2  0
  9  7  1  0
 10  9  1  0
 10 11  1  1
 11 12  1  0
 12 13  2  0
 13 14  1  0
 15 16  2  0
 15 14  1  0
 17 16  1  0
 18 19  1  0
 18 17  2  0
 19 20  2  0
 20 12  1  0
 20 15  1  0
 21 22  2  0
 21 10  1  0
 23 24  1  0
 24 25  1  0
 25 27  1  0
 25 26  1  6
 27 29  1  0
 27 28  1  6
 28 21  1  0
 29 30  1  0
 31 29  2  0
M  END
$$$$
