NWI.pdb
     RDKit          3D

 31 32  0  0  1  0  0  0  0  0999 V2000
   24.2413  -22.5684   -7.7318 N   0  0  0  0  0  0  0  0  0  0  0  0
   23.1943  -22.1319   -8.5720 C   0  0  0  0  0  0  0  0  0  0  0  0
   22.0378  -22.5378   -8.3439 O   0  0  0  0  0  0  0  0  0  0  0  0
   23.4633  -21.2288   -9.6777 C   0  0  0  0  0  0  0  0  0  0  0  0
   24.9547  -20.9417   -9.8615 C   0  0  2  0  0  0  0  0  0  0  0  0
   25.3811  -20.2694   -8.6571 N   0  0  0  0  0  0  0  0  0  0  0  0
   25.0571  -20.0061  -11.0131 C   0  0  0  0  0  0  0  0  0  0  0  0
   24.4420  -18.8871  -10.9696 O   0  0  0  0  0  0  0  0  0  0  0  0
   25.8044  -20.2812  -12.1736 N   0  0  0  0  0  0  0  0  0  0  0  0
   26.0421  -19.2753  -13.2402 C   0  0  1  0  0  0  0  0  0  0  0  0
   27.4177  -19.2942  -13.7280 C   0  0  0  0  0  0  0  0  0  0  0  0
   27.7733  -18.4692  -14.8866 C   0  0  0  0  0  0  0  0  0  0  0  0
   27.7211  -17.0655  -14.9234 C   0  0  0  0  0  0  0  0  0  0  0  0
   28.1561  -16.6544  -16.1113 N   0  0  0  0  0  0  0  0  0  0  0  0
   28.5005  -17.7031  -16.8854 C   0  0  0  0  0  0  0  0  0  0  0  0
   28.9780  -17.8294  -18.1705 C   0  0  0  0  0  0  0  0  0  0  0  0
   29.2152  -19.0649  -18.6968 C   0  0  0  0  0  0  0  0  0  0  0  0
   28.9845  -20.2022  -17.9612 C   0  0  0  0  0  0  0  0  0  0  0  0
   28.5132  -20.0540  -16.6919 C   0  0  0  0  0  0  0  0  0  0  0  0
   28.2543  -18.8346  -16.1022 C   0  0  0  0  0  0  0  0  0  0  0  0
   24.8823  -19.2446  -14.1066 C   0  0  0  0  0  0  0  0  0  0  0  0
   24.2013  -20.3467  -14.2842 O   0  0  0  0  0  0  0  0  0  0  0  0
   20.0181  -16.0956  -16.1409 C   0  0  0  0  0  0  0  0  0  0  0  0
   21.0137  -17.1942  -16.4212 C   0  0  0  0  0  0  0  0  0  0  0  0
   22.2501  -17.1525  -15.5957 C   0  0  2  0  0  0  0  0  0  0  0  0
   23.0169  -15.8880  -15.9983 C   0  0  0  0  0  0  0  0  0  0  0  0
   23.1946  -18.2897  -15.7367 C   0  0  2  0  0  0  0  0  0  0  0  0
   24.3288  -18.1576  -14.8254 N   0  0  0  0  0  0  0  0  0  0  0  0
   23.5496  -18.6898  -17.0965 C   0  0  0  0  0  0  0  0  0  0  0  0
   22.6103  -19.3516  -17.9222 O   0  0  0  0  0  0  0  0  0  0  0  0
   24.6838  -18.4607  -17.5603 O   0  0  0  0  0  0  0  0  0  0  0  0
  2  3  2  0
  2  1  1  0
  4  2  1  0
  5  6  1  1
  5  4  1  0
  7  5  1  0
  8  7  2  0
  9  7  1  0
 10  9  1  0
 10 11  1  6
 11 12  1  0
 12 13  2  0
 13 14  1  0
 15 16  2  0
 15 14  1  0
 17 16  1  0
 18 19  1  0
 18 17  2  0
 19 20  2  0
 20 12  1  0
 20 15  1  0
 21 22  2  0
 21 10  1  0
 23 24  1  0
 24 25  1  0
 25 27  1  0
 25 26  1  6
 27 29  1  0
 27 28  1  1
 28 21  1  0
 29 30  1  0
 31 29  2  0
M  END
$$$$
