NWI.pdb
     RDKit          3D

 31 32  0  0  1  0  0  0  0  0999 V2000
   29.2938  -18.8361  -16.2228 N   0  0  0  0  0  0  0  0  0  0  0  0
   27.9201  -18.9895  -16.5094 C   0  0  0  0  0  0  0  0  0  0  0  0
   27.4448  -18.3865  -17.4917 O   0  0  0  0  0  0  0  0  0  0  0  0
   27.0820  -19.8332  -15.6750 C   0  0  0  0  0  0  0  0  0  0  0  0
   27.8475  -20.4675  -14.5122 C   0  0  2  0  0  0  0  0  0  0  0  0
   28.5234  -21.6185  -15.0625 N   0  0  0  0  0  0  0  0  0  0  0  0
   26.8193  -20.9172  -13.5363 C   0  0  0  0  0  0  0  0  0  0  0  0
   26.1693  -21.9940  -13.7604 O   0  0  0  0  0  0  0  0  0  0  0  0
   26.5095  -20.2164  -12.3557 N   0  0  0  0  0  0  0  0  0  0  0  0
   25.4845  -20.6792  -11.3855 C   0  0  1  0  0  0  0  0  0  0  0  0
   25.8021  -20.2956  -10.0134 C   0  0  0  0  0  0  0  0  0  0  0  0
   27.0604  -20.7566   -9.4188 C   0  0  0  0  0  0  0  0  0  0  0  0
   27.9930  -21.5942  -10.0535 C   0  0  0  0  0  0  0  0  0  0  0  0
   29.0319  -21.7672   -9.2412 N   0  0  0  0  0  0  0  0  0  0  0  0
   28.8560  -21.0930   -8.0869 C   0  0  0  0  0  0  0  0  0  0  0  0
   29.5982  -20.9543   -6.9357 C   0  0  0  0  0  0  0  0  0  0  0  0
   29.1271  -20.2004   -5.9015 C   0  0  0  0  0  0  0  0  0  0  0  0
   27.9106  -19.5675   -5.9855 C   0  0  0  0  0  0  0  0  0  0  0  0
   27.1936  -19.7174   -7.1339 C   0  0  0  0  0  0  0  0  0  0  0  0
   27.6140  -20.4642   -8.2143 C   0  0  0  0  0  0  0  0  0  0  0  0
   24.1775  -20.5101  -11.9853 C   0  0  0  0  0  0  0  0  0  0  0  0
   23.8974  -19.3754  -12.5718 O   0  0  0  0  0  0  0  0  0  0  0  0
   20.3637  -22.3238  -16.0898 C   0  0  0  0  0  0  0  0  0  0  0  0
   20.4282  -21.6226  -14.7553 C   0  0  0  0  0  0  0  0  0  0  0  0
   21.6647  -21.8743  -13.9683 C   0  0  2  0  0  0  0  0  0  0  0  0
   21.6667  -23.3615  -13.5976 C   0  0  0  0  0  0  0  0  0  0  0  0
   21.8243  -21.1165  -12.7012 C   0  0  2  0  0  0  0  0  0  0  0  0
   23.0972  -21.4228  -12.0529 N   0  0  0  0  0  0  0  0  0  0  0  0
   20.6744  -21.0847  -11.8002 C   0  0  0  0  0  0  0  0  0  0  0  0
   19.4459  -20.5207  -12.2183 O   0  0  0  0  0  0  0  0  0  0  0  0
   20.7470  -21.5498  -10.6460 O   0  0  0  0  0  0  0  0  0  0  0  0
  2  3  2  0
  2  1  1  0
  4  2  1  0
  5  6  1  6
  5  4  1  0
  7  5  1  0
  8  7  2  0
  9  7  1  0
 10  9  1  0
 10 11  1  1
 11 12  1  0
 12 13  2  0
 13 14  1  0
 15 16  2  0
 15 14  1  0
 17 16  1  0
 18 19  1  0
 18 17  2  0
 19 20  2  0
 20 12  1  0
 20 15  1  0
 21 22  2  0
 21 10  1  0
 23 24  1  0
 24 25  1  0
 25 27  1  0
 25 26  1  1
 27 29  1  0
 27 28  1  1
 28 21  1  0
 29 30  1  0
 31 29  2  0
M  END
$$$$
