NWI.pdb
     RDKit          3D

 31 32  0  0  1  0  0  0  0  0999 V2000
   29.3225  -19.5343  -16.3174 N   0  0  0  0  0  0  0  0  0  0  0  0
   28.0470  -19.0055  -16.0236 C   0  0  0  0  0  0  0  0  0  0  0  0
   27.6461  -18.0195  -16.6727 O   0  0  0  0  0  0  0  0  0  0  0  0
   27.2225  -19.6010  -14.9863 C   0  0  0  0  0  0  0  0  0  0  0  0
   27.8716  -20.8272  -14.3416 C   0  0  2  0  0  0  0  0  0  0  0  0
   27.6218  -21.9282  -15.2416 N   0  0  0  0  0  0  0  0  0  0  0  0
   27.1443  -21.0571  -13.0648 C   0  0  0  0  0  0  0  0  0  0  0  0
   25.9758  -21.5729  -13.0918 O   0  0  0  0  0  0  0  0  0  0  0  0
   27.6728  -20.7350  -11.8007 N   0  0  0  0  0  0  0  0  0  0  0  0
   26.9213  -20.9333  -10.5351 C   0  0  1  0  0  0  0  0  0  0  0  0
   27.7700  -20.7974   -9.3554 C   0  0  0  0  0  0  0  0  0  0  0  0
   27.1411  -20.6614   -8.0381 C   0  0  0  0  0  0  0  0  0  0  0  0
   25.8483  -21.1052   -7.7121 C   0  0  0  0  0  0  0  0  0  0  0  0
   25.6266  -20.8606   -6.4236 N   0  0  0  0  0  0  0  0  0  0  0  0
   26.6988  -20.2732   -5.8552 C   0  0  0  0  0  0  0  0  0  0  0  0
   26.9783  -19.8089   -4.5897 C   0  0  0  0  0  0  0  0  0  0  0  0
   28.1812  -19.2244   -4.3226 C   0  0  0  0  0  0  0  0  0  0  0  0
   29.1332  -19.0873   -5.3036 C   0  0  0  0  0  0  0  0  0  0  0  0
   28.8361  -19.5545   -6.5481 C   0  0  0  0  0  0  0  0  0  0  0  0
   27.6404  -20.1552   -6.8817 C   0  0  0  0  0  0  0  0  0  0  0  0
   25.6246  -20.3029  -10.6694 C   0  0  0  0  0  0  0  0  0  0  0  0
   25.5701  -19.0531  -11.0500 O   0  0  0  0  0  0  0  0  0  0  0  0
   21.9468  -18.7798  -14.2760 C   0  0  0  0  0  0  0  0  0  0  0  0
   21.9152  -19.0877  -12.7992 C   0  0  0  0  0  0  0  0  0  0  0  0
   23.0844  -19.8512  -12.2876 C   0  0  2  0  0  0  0  0  0  0  0  0
   23.1092  -21.1893  -13.0346 C   0  0  0  0  0  0  0  0  0  0  0  0
   23.1004  -20.1696  -10.8372 C   0  0  2  0  0  0  0  0  0  0  0  0
   24.3360  -20.8481  -10.4534 N   0  0  0  0  0  0  0  0  0  0  0  0
   21.8849  -20.7540  -10.2749 C   0  0  0  0  0  0  0  0  0  0  0  0
   20.6807  -20.0123  -10.2326 O   0  0  0  0  0  0  0  0  0  0  0  0
   21.8790  -21.9142   -9.8191 O   0  0  0  0  0  0  0  0  0  0  0  0
  2  3  2  0
  2  1  1  0
  4  2  1  0
  5  6  1  6
  5  4  1  0
  7  5  1  0
  8  7  2  0
  9  7  1  0
 10  9  1  0
 10 11  1  1
 11 12  1  0
 12 13  2  0
 13 14  1  0
 15 16  2  0
 15 14  1  0
 17 16  1  0
 18 19  1  0
 18 17  2  0
 19 20  2  0
 20 12  1  0
 20 15  1  0
 21 22  2  0
 21 10  1  0
 23 24  1  0
 24 25  1  0
 25 27  1  0
 25 26  1  6
 27 29  1  0
 27 28  1  6
 28 21  1  0
 29 30  1  0
 31 29  2  0
M  END
$$$$
