LPE.pdb
     RDKit          3D

 25 25  0  0  1  0  0  0  0  0999 V2000
    8.4882  -12.9677   26.9296 C   0  0  0  0  0  0  0  0  0  0  0  0
    7.3567  -13.4741   26.0919 C   0  0  2  0  0  0  0  0  0  0  0  0
    6.3368  -12.4012   25.7835 C   0  0  0  0  0  0  0  0  0  0  0  0
    6.7331  -14.7251   26.6707 C   0  0  0  0  0  0  0  0  0  0  0  0
    6.1624  -15.5081   25.5024 C   0  0  2  0  0  0  0  0  0  0  0  0
    5.3679  -16.5832   26.0832 N   0  0  0  0  0  0  0  0  0  0  0  0
    7.2109  -16.0923   24.6518 C   0  0  0  0  0  0  0  0  0  0  0  0
    7.6746  -17.2430   24.9385 O   0  0  0  0  0  0  0  0  0  0  0  0
    7.7096  -15.3901   23.5196 N   0  0  0  0  0  0  0  0  0  0  0  0
    7.4774  -13.9962   23.2342 C   0  0  0  0  0  0  0  0  0  0  0  0
    7.3896  -13.9628   21.7031 C   0  0  0  0  0  0  0  0  0  0  0  0
    7.9732  -15.2572   21.2333 C   0  0  0  0  0  0  0  0  0  0  0  0
    8.5384  -15.8982   22.4482 C   0  0  1  0  0  0  0  0  0  0  0  0
    9.9460  -15.5405   22.7457 C   0  0  0  0  0  0  0  0  0  0  0  0
   10.2107  -14.3982   23.1593 O   0  0  0  0  0  0  0  0  0  0  0  0
   10.9504  -16.4931   22.5570 N   0  0  0  0  0  0  0  0  0  0  0  0
   12.1801  -16.4169   23.3606 C   0  0  1  0  0  0  0  0  0  0  0  0
   12.1355  -17.6524   24.2190 C   0  0  0  0  0  0  0  0  0  0  0  0
   13.2953  -17.9199   25.1042 C   0  0  0  0  0  0  0  0  0  0  0  0
   13.1441  -19.1551   25.8719 C   0  0  0  0  0  0  0  0  0  0  0  0
   12.0789  -19.8372   25.7262 O   0  0  0  0  0  0  0  0  0  0  0  0
   13.3870  -16.2669   22.5892 C   0  0  0  0  0  0  0  0  0  0  0  0
   13.3990  -16.6316   21.3634 O   0  0  0  0  0  0  0  0  0  0  0  0
   14.1047  -19.6007   26.7380 O   0  0  0  0  0  0  0  0  0  0  0  0
   14.5866  -15.7372   23.0531 O   0  0  0  0  0  0  0  0  0  0  0  0
  2  1  1  1
  3  2  1  0
  4  2  1  0
  4  5  1  0
  5  6  1  1
  7  5  1  0
  7  8  2  0
  9  7  1  0
 10  9  1  0
 11 12  1  0
 11 10  1  0
 12 13  1  0
 13  9  1  0
 13 14  1  1
 14 16  1  0
 15 14  2  0
 17 16  1  0
 17 22  1  0
 17 18  1  6
 19 18  1  0
 20 19  1  0
 21 20  2  0
 22 23  2  0
 22 25  1  0
 24 20  1  0
M  END
$$$$
