LPE.pdb
     RDKit          3D

 25 25  0  0  1  0  0  0  0  0999 V2000
    5.2658  -14.7637   20.4203 C   0  0  0  0  0  0  0  0  0  0  0  0
    6.5913  -15.4555   20.4745 C   0  0  2  0  0  0  0  0  0  0  0  0
    6.5546  -16.8312   19.8481 C   0  0  0  0  0  0  0  0  0  0  0  0
    7.1744  -15.4637   21.8705 C   0  0  0  0  0  0  0  0  0  0  0  0
    7.8381  -14.1139   22.0734 C   0  0  2  0  0  0  0  0  0  0  0  0
    8.7058  -13.9103   20.9200 N   0  0  0  0  0  0  0  0  0  0  0  0
    8.6504  -14.0656   23.2989 C   0  0  0  0  0  0  0  0  0  0  0  0
    9.9172  -14.1562   23.2091 O   0  0  0  0  0  0  0  0  0  0  0  0
    8.0397  -13.9199   24.5755 N   0  0  0  0  0  0  0  0  0  0  0  0
    6.6255  -13.7701   24.8111 C   0  0  0  0  0  0  0  0  0  0  0  0
    6.5704  -12.8262   26.0191 C   0  0  0  0  0  0  0  0  0  0  0  0
    7.9441  -12.8409   26.6104 C   0  0  0  0  0  0  0  0  0  0  0  0
    8.6787  -13.9009   25.8734 C   0  0  1  0  0  0  0  0  0  0  0  0
    8.5710  -15.2583   26.4595 C   0  0  0  0  0  0  0  0  0  0  0  0
    7.5197  -15.9054   26.3108 O   0  0  0  0  0  0  0  0  0  0  0  0
    9.6527  -15.7872   27.1681 N   0  0  0  0  0  0  0  0  0  0  0  0
    9.9361  -17.2283   27.0864 C   0  0  1  0  0  0  0  0  0  0  0  0
   10.8470  -17.3570   25.8951 C   0  0  0  0  0  0  0  0  0  0  0  0
   12.3098  -17.3479   26.1408 C   0  0  0  0  0  0  0  0  0  0  0  0
   13.0859  -17.1966   24.9109 C   0  0  0  0  0  0  0  0  0  0  0  0
   12.9869  -18.0939   24.0130 O   0  0  0  0  0  0  0  0  0  0  0  0
   10.4541  -17.8030   28.3011 C   0  0  0  0  0  0  0  0  0  0  0  0
   10.8376  -17.0327   29.2474 O   0  0  0  0  0  0  0  0  0  0  0  0
   13.9116  -16.1278   24.6934 O   0  0  0  0  0  0  0  0  0  0  0  0
   10.5774  -19.1626   28.5680 O   0  0  0  0  0  0  0  0  0  0  0  0
  2  1  1  1
  3  2  1  0
  4  2  1  0
  4  5  1  0
  5  6  1  6
  7  5  1  0
  7  8  2  0
  9  7  1  0
 10  9  1  0
 11 12  1  0
 11 10  1  0
 12 13  1  0
 13  9  1  0
 13 14  1  1
 14 16  1  0
 15 14  2  0
 17 16  1  0
 17 22  1  0
 17 18  1  6
 19 18  1  0
 20 19  1  0
 21 20  2  0
 22 23  2  0
 22 25  1  0
 24 20  1  0
M  END
$$$$
