LPE.pdb
     RDKit          3D

 25 25  0  0  1  0  0  0  0  0999 V2000
    5.8792  -14.2727   20.1337 C   0  0  0  0  0  0  0  0  0  0  0  0
    7.0749  -13.7775   20.8844 C   0  0  2  0  0  0  0  0  0  0  0  0
    7.7832  -12.6490   20.1695 C   0  0  0  0  0  0  0  0  0  0  0  0
    8.0098  -14.9012   21.2744 C   0  0  0  0  0  0  0  0  0  0  0  0
    9.1193  -14.2778   22.1014 C   0  0  2  0  0  0  0  0  0  0  0  0
   10.3709  -14.6866   21.4762 N   0  0  0  0  0  0  0  0  0  0  0  0
    9.1072  -14.7405   23.4977 C   0  0  0  0  0  0  0  0  0  0  0  0
   10.0456  -15.4955   23.9107 O   0  0  0  0  0  0  0  0  0  0  0  0
    8.0647  -14.3564   24.3862 N   0  0  0  0  0  0  0  0  0  0  0  0
    6.9732  -13.4734   24.0589 C   0  0  0  0  0  0  0  0  0  0  0  0
    6.7267  -12.7204   25.3724 C   0  0  0  0  0  0  0  0  0  0  0  0
    7.4211  -13.5137   26.4332 C   0  0  0  0  0  0  0  0  0  0  0  0
    7.8706  -14.7602   25.7619 C   0  0  1  0  0  0  0  0  0  0  0  0
    6.8875  -15.8697   25.7817 C   0  0  0  0  0  0  0  0  0  0  0  0
    6.0732  -15.9800   24.8485 O   0  0  0  0  0  0  0  0  0  0  0  0
    6.8934  -16.7724   26.8480 N   0  0  0  0  0  0  0  0  0  0  0  0
    7.3289  -18.1588   26.6199 C   0  0  1  0  0  0  0  0  0  0  0  0
    8.2469  -18.0649   25.4308 C   0  0  0  0  0  0  0  0  0  0  0  0
    8.9573  -19.2966   25.0084 C   0  0  0  0  0  0  0  0  0  0  0  0
    9.8217  -19.0783   23.8495 C   0  0  0  0  0  0  0  0  0  0  0  0
    9.3155  -18.5676   22.7987 O   0  0  0  0  0  0  0  0  0  0  0  0
    7.9069  -18.7987   27.7734 C   0  0  0  0  0  0  0  0  0  0  0  0
    7.6650  -20.0352   27.9935 O   0  0  0  0  0  0  0  0  0  0  0  0
   11.1505  -19.4029   23.8561 O   0  0  0  0  0  0  0  0  0  0  0  0
    8.7417  -18.1916   28.7058 O   0  0  0  0  0  0  0  0  0  0  0  0
  2  1  1  6
  3  2  1  0
  4  2  1  0
  4  5  1  0
  5  6  1  6
  7  5  1  0
  7  8  2  0
  9  7  1  0
 10  9  1  0
 11 12  1  0
 11 10  1  0
 12 13  1  0
 13  9  1  0
 13 14  1  6
 14 16  1  0
 15 14  2  0
 17 16  1  0
 17 22  1  0
 17 18  1  6
 19 18  1  0
 20 19  1  0
 21 20  2  0
 22 23  2  0
 22 25  1  0
 24 20  1  0
M  END
$$$$
