LPE.pdb
     RDKit          3D

 25 25  0  0  1  0  0  0  0  0999 V2000
    8.6652  -13.3970   27.1638 C   0  0  0  0  0  0  0  0  0  0  0  0
    7.5878  -13.8621   26.2358 C   0  0  2  0  0  0  0  0  0  0  0  0
    6.5944  -12.7709   25.9058 C   0  0  0  0  0  0  0  0  0  0  0  0
    6.9229  -15.1308   26.7230 C   0  0  0  0  0  0  0  0  0  0  0  0
    6.2481  -15.7597   25.5177 C   0  0  2  0  0  0  0  0  0  0  0  0
    5.4864  -16.8943   26.0246 N   0  0  0  0  0  0  0  0  0  0  0  0
    7.2156  -16.2394   24.5188 C   0  0  0  0  0  0  0  0  0  0  0  0
    7.7381  -17.3916   24.6626 O   0  0  0  0  0  0  0  0  0  0  0  0
    7.5720  -15.4350   23.4009 N   0  0  0  0  0  0  0  0  0  0  0  0
    7.2807  -14.0305   23.2576 C   0  0  0  0  0  0  0  0  0  0  0  0
    7.0244  -13.8783   21.7529 C   0  0  0  0  0  0  0  0  0  0  0  0
    7.5799  -15.1135   21.1182 C   0  0  0  0  0  0  0  0  0  0  0  0
    8.2885  -15.8316   22.2083 C   0  0  1  0  0  0  0  0  0  0  0  0
    9.7125  -15.4569   22.3807 C   0  0  0  0  0  0  0  0  0  0  0  0
    9.9969  -14.3631   22.8993 O   0  0  0  0  0  0  0  0  0  0  0  0
   10.7099  -16.3391   21.9582 N   0  0  0  0  0  0  0  0  0  0  0  0
   12.0216  -16.3206   22.6237 C   0  0  1  0  0  0  0  0  0  0  0  0
   11.6972  -16.5111   24.0811 C   0  0  0  0  0  0  0  0  0  0  0  0
   11.1387  -17.8204   24.4983 C   0  0  0  0  0  0  0  0  0  0  0  0
   11.0549  -17.9590   25.9515 C   0  0  0  0  0  0  0  0  0  0  0  0
   11.5824  -17.0589   26.6814 O   0  0  0  0  0  0  0  0  0  0  0  0
   12.9716  -17.2643   22.0935 C   0  0  0  0  0  0  0  0  0  0  0  0
   14.2234  -17.0330   22.2173 O   0  0  0  0  0  0  0  0  0  0  0  0
   10.4314  -19.0189   26.5508 O   0  0  0  0  0  0  0  0  0  0  0  0
   12.6585  -18.4533   21.4429 O   0  0  0  0  0  0  0  0  0  0  0  0
  2  1  1  1
  3  2  1  0
  4  2  1  0
  4  5  1  0
  5  6  1  1
  7  5  1  0
  7  8  2  0
  9  7  1  0
 10  9  1  0
 11 12  1  0
 11 10  1  0
 12 13  1  0
 13  9  1  0
 13 14  1  1
 14 16  1  0
 15 14  2  0
 17 16  1  0
 17 22  1  0
 17 18  1  1
 19 18  1  0
 20 19  1  0
 21 20  2  0
 22 23  2  0
 22 25  1  0
 24 20  1  0
M  END
$$$$
