LPE.pdb
     RDKit          3D

 25 25  0  0  1  0  0  0  0  0999 V2000
    8.1329  -12.8593   27.2953 C   0  0  0  0  0  0  0  0  0  0  0  0
    7.3069  -13.3233   26.1374 C   0  0  2  0  0  0  0  0  0  0  0  0
    6.5459  -12.1954   25.4777 C   0  0  0  0  0  0  0  0  0  0  0  0
    6.4195  -14.4934   26.5015 C   0  0  0  0  0  0  0  0  0  0  0  0
    5.9114  -15.0777   25.1962 C   0  0  2  0  0  0  0  0  0  0  0  0
    4.9634  -16.1232   25.5607 N   0  0  0  0  0  0  0  0  0  0  0  0
    6.9891  -15.6683   24.3877 C   0  0  0  0  0  0  0  0  0  0  0  0
    7.4469  -16.8137   24.7036 O   0  0  0  0  0  0  0  0  0  0  0  0
    7.5224  -14.9781   23.2639 N   0  0  0  0  0  0  0  0  0  0  0  0
    7.4035  -13.5619   23.0218 C   0  0  0  0  0  0  0  0  0  0  0  0
    7.2877  -13.4769   21.4946 C   0  0  0  0  0  0  0  0  0  0  0  0
    7.7498  -14.8018   20.9767 C   0  0  0  0  0  0  0  0  0  0  0  0
    8.2832  -15.5229   22.1606 C   0  0  1  0  0  0  0  0  0  0  0  0
    9.7219  -15.2938   22.4357 C   0  0  0  0  0  0  0  0  0  0  0  0
   10.1123  -14.1501   22.7287 O   0  0  0  0  0  0  0  0  0  0  0  0
   10.6138  -16.3665   22.3617 N   0  0  0  0  0  0  0  0  0  0  0  0
   11.7618  -16.4176   23.2799 C   0  0  1  0  0  0  0  0  0  0  0  0
   11.3374  -17.3924   24.3453 C   0  0  0  0  0  0  0  0  0  0  0  0
   12.3161  -17.7196   25.4108 C   0  0  0  0  0  0  0  0  0  0  0  0
   11.7702  -18.6305   26.4159 C   0  0  0  0  0  0  0  0  0  0  0  0
   10.5591  -19.0073   26.3038 O   0  0  0  0  0  0  0  0  0  0  0  0
   13.0169  -16.7313   22.6470 C   0  0  0  0  0  0  0  0  0  0  0  0
   13.0236  -17.4318   21.5770 O   0  0  0  0  0  0  0  0  0  0  0  0
   12.5136  -19.0894   27.4684 O   0  0  0  0  0  0  0  0  0  0  0  0
   14.2726  -16.3284   23.0897 O   0  0  0  0  0  0  0  0  0  0  0  0
  2  1  1  1
  3  2  1  0
  4  2  1  0
  4  5  1  0
  5  6  1  1
  7  5  1  0
  7  8  2  0
  9  7  1  0
 10  9  1  0
 11 12  1  0
 11 10  1  0
 12 13  1  0
 13  9  1  0
 13 14  1  1
 14 16  1  0
 15 14  2  0
 17 16  1  0
 17 22  1  0
 17 18  1  1
 19 18  1  0
 20 19  1  0
 21 20  2  0
 22 23  2  0
 22 25  1  0
 24 20  1  0
M  END
$$$$
