LPE.pdb
     RDKit          3D

 25 25  0  0  1  0  0  0  0  0999 V2000
    7.6495  -11.7882   26.6610 C   0  0  0  0  0  0  0  0  0  0  0  0
    6.8167  -12.8028   25.9430 C   0  0  2  0  0  0  0  0  0  0  0  0
    5.3343  -12.5909   26.1528 C   0  0  0  0  0  0  0  0  0  0  0  0
    7.2541  -14.2188   26.2470 C   0  0  0  0  0  0  0  0  0  0  0  0
    6.4292  -15.1302   25.3568 C   0  0  2  0  0  0  0  0  0  0  0  0
    5.7436  -16.0573   26.2485 N   0  0  0  0  0  0  0  0  0  0  0  0
    7.2590  -15.8965   24.4143 C   0  0  0  0  0  0  0  0  0  0  0  0
    7.5285  -17.1141   24.6711 O   0  0  0  0  0  0  0  0  0  0  0  0
    7.7609  -15.2957   23.2265 N   0  0  0  0  0  0  0  0  0  0  0  0
    7.5254  -13.9336   22.8173 C   0  0  0  0  0  0  0  0  0  0  0  0
    7.4450  -14.0367   21.2889 C   0  0  0  0  0  0  0  0  0  0  0  0
    8.0354  -15.3655   20.9386 C   0  0  0  0  0  0  0  0  0  0  0  0
    8.5968  -15.8938   22.2083 C   0  0  1  0  0  0  0  0  0  0  0  0
   10.0017  -15.5056   22.4795 C   0  0  0  0  0  0  0  0  0  0  0  0
   10.2369  -14.4279   23.0533 O   0  0  0  0  0  0  0  0  0  0  0  0
   11.0368  -16.3576   22.0863 N   0  0  0  0  0  0  0  0  0  0  0  0
   12.0973  -16.6987   23.0468 C   0  0  1  0  0  0  0  0  0  0  0  0
   11.3646  -17.3558   24.1856 C   0  0  0  0  0  0  0  0  0  0  0  0
   12.1737  -17.9109   25.2980 C   0  0  0  0  0  0  0  0  0  0  0  0
   11.3497  -18.4736   26.3668 C   0  0  0  0  0  0  0  0  0  0  0  0
   10.0863  -18.5025   26.2118 O   0  0  0  0  0  0  0  0  0  0  0  0
   13.1714  -17.4829   22.4940 C   0  0  0  0  0  0  0  0  0  0  0  0
   12.8989  -18.4761   21.7356 O   0  0  0  0  0  0  0  0  0  0  0  0
   11.8883  -18.9679   27.5230 O   0  0  0  0  0  0  0  0  0  0  0  0
   14.5290  -17.2591   22.6988 O   0  0  0  0  0  0  0  0  0  0  0  0
  2  1  1  1
  3  2  1  0
  4  2  1  0
  4  5  1  0
  5  6  1  1
  7  5  1  0
  7  8  2  0
  9  7  1  0
 10  9  1  0
 11 12  1  0
 11 10  1  0
 12 13  1  0
 13  9  1  0
 13 14  1  1
 14 16  1  0
 15 14  2  0
 17 16  1  0
 17 22  1  0
 17 18  1  1
 19 18  1  0
 20 19  1  0
 21 20  2  0
 22 23  2  0
 22 25  1  0
 24 20  1  0
M  END
$$$$
