LPE.pdb
     RDKit          3D

 25 25  0  0  1  0  0  0  0  0999 V2000
    6.7862  -12.6263   20.1000 C   0  0  0  0  0  0  0  0  0  0  0  0
    7.0007  -14.0892   20.3293 C   0  0  2  0  0  0  0  0  0  0  0  0
    5.9044  -14.9385   19.7265 C   0  0  0  0  0  0  0  0  0  0  0  0
    7.2531  -14.4076   21.7866 C   0  0  0  0  0  0  0  0  0  0  0  0
    8.4350  -13.5595   22.2196 C   0  0  2  0  0  0  0  0  0  0  0  0
    9.4651  -13.7507   21.2062 N   0  0  0  0  0  0  0  0  0  0  0  0
    8.9688  -13.9661   23.5287 C   0  0  0  0  0  0  0  0  0  0  0  0
   10.1583  -14.4143   23.6030 O   0  0  0  0  0  0  0  0  0  0  0  0
    8.1755  -13.8649   24.7052 N   0  0  0  0  0  0  0  0  0  0  0  0
    6.7629  -13.5794   24.7364 C   0  0  0  0  0  0  0  0  0  0  0  0
    6.6031  -12.7441   26.0130 C   0  0  0  0  0  0  0  0  0  0  0  0
    7.8544  -12.9632   26.8024 C   0  0  0  0  0  0  0  0  0  0  0  0
    8.5936  -14.0302   26.0803 C   0  0  1  0  0  0  0  0  0  0  0  0
    8.2619  -15.4131   26.4994 C   0  0  0  0  0  0  0  0  0  0  0  0
    7.1715  -15.9073   26.1633 O   0  0  0  0  0  0  0  0  0  0  0  0
    9.1802  -16.1371   27.2637 N   0  0  0  0  0  0  0  0  0  0  0  0
    9.1578  -17.6072   27.2206 C   0  0  1  0  0  0  0  0  0  0  0  0
    9.9930  -17.9525   26.0169 C   0  0  0  0  0  0  0  0  0  0  0  0
   11.4450  -17.6554   26.0763 C   0  0  0  0  0  0  0  0  0  0  0  0
   12.1540  -18.0698   24.8665 C   0  0  0  0  0  0  0  0  0  0  0  0
   12.5038  -17.1772   24.0287 O   0  0  0  0  0  0  0  0  0  0  0  0
    9.5756  -18.2452   28.4423 C   0  0  0  0  0  0  0  0  0  0  0  0
   10.0958  -17.5398   29.3738 O   0  0  0  0  0  0  0  0  0  0  0  0
   12.4529  -19.3790   24.6057 O   0  0  0  0  0  0  0  0  0  0  0  0
    9.4597  -19.6009   28.7312 O   0  0  0  0  0  0  0  0  0  0  0  0
  2  1  1  1
  3  2  1  0
  4  2  1  0
  4  5  1  0
  5  6  1  6
  7  5  1  0
  7  8  2  0
  9  7  1  0
 10  9  1  0
 11 12  1  0
 11 10  1  0
 12 13  1  0
 13  9  1  0
 13 14  1  1
 14 16  1  0
 15 14  2  0
 17 16  1  0
 17 22  1  0
 17 18  1  6
 19 18  1  0
 20 19  1  0
 21 20  2  0
 22 23  2  0
 22 25  1  0
 24 20  1  0
M  END
$$$$
