LPE.pdb
     RDKit          3D

 25 25  0  0  1  0  0  0  0  0999 V2000
    6.5393  -20.4072   19.1143 C   0  0  0  0  0  0  0  0  0  0  0  0
    6.7052  -19.0083   18.6102 C   0  0  2  0  0  0  0  0  0  0  0  0
    6.0338  -18.7893   17.2732 C   0  0  0  0  0  0  0  0  0  0  0  0
    8.1523  -18.5667   18.6176 C   0  0  0  0  0  0  0  0  0  0  0  0
    8.1747  -17.1391   18.1027 C   0  0  2  0  0  0  0  0  0  0  0  0
    8.7070  -17.2044   16.7474 N   0  0  0  0  0  0  0  0  0  0  0  0
    9.0340  -16.2627   18.9137 C   0  0  0  0  0  0  0  0  0  0  0  0
   10.2285  -16.0388   18.5338 O   0  0  0  0  0  0  0  0  0  0  0  0
    8.5483  -15.6666   20.1105 N   0  0  0  0  0  0  0  0  0  0  0  0
    7.2098  -15.8054   20.6275 C   0  0  0  0  0  0  0  0  0  0  0  0
    6.9388  -14.4382   21.2680 C   0  0  0  0  0  0  0  0  0  0  0  0
    8.2760  -13.7842   21.4131 C   0  0  0  0  0  0  0  0  0  0  0  0
    9.2667  -14.8279   21.0451 C   0  0  1  0  0  0  0  0  0  0  0  0
    9.7244  -15.6788   22.1696 C   0  0  0  0  0  0  0  0  0  0  0  0
    9.0401  -16.6596   22.5102 O   0  0  0  0  0  0  0  0  0  0  0  0
   10.9166  -15.3645   22.8265 N   0  0  0  0  0  0  0  0  0  0  0  0
   11.5382  -16.3598   23.7135 C   0  0  1  0  0  0  0  0  0  0  0  0
   13.0028  -16.0140   23.6850 C   0  0  0  0  0  0  0  0  0  0  0  0
   13.7831  -16.4137   22.4885 C   0  0  0  0  0  0  0  0  0  0  0  0
   15.1698  -15.9531   22.5415 C   0  0  0  0  0  0  0  0  0  0  0  0
   15.5530  -15.2875   23.5570 O   0  0  0  0  0  0  0  0  0  0  0  0
   10.9635  -16.4232   25.0325 C   0  0  0  0  0  0  0  0  0  0  0  0
   10.1978  -15.4793   25.4307 O   0  0  0  0  0  0  0  0  0  0  0  0
   16.0657  -16.2120   21.5407 O   0  0  0  0  0  0  0  0  0  0  0  0
   11.1536  -17.4490   25.9526 O   0  0  0  0  0  0  0  0  0  0  0  0
  2  1  1  6
  3  2  1  0
  4  2  1  0
  4  5  1  0
  5  6  1  6
  7  5  1  0
  7  8  2  0
  9  7  1  0
 10  9  1  0
 11 12  1  0
 11 10  1  0
 12 13  1  0
 13  9  1  0
 13 14  1  1
 14 16  1  0
 15 14  2  0
 17 16  1  0
 17 22  1  0
 17 18  1  1
 19 18  1  0
 20 19  1  0
 21 20  2  0
 22 23  2  0
 22 25  1  0
 24 20  1  0
M  END
$$$$
