TDF.pdb
     RDKit          3D

 27 27  0  0  1  0  0  0  0  0999 V2000
    9.5293  -12.6851   20.6095 C   0  0  0  0  0  0  0  0  0  0  0  0
    8.2847  -12.8460   19.7974 C   0  0  1  0  0  0  0  0  0  0  0  0
    8.3102  -12.0015   18.6947 O   0  0  0  0  0  0  0  0  0  0  0  0
    8.0475  -14.2908   19.3849 C   0  0  2  0  0  0  0  0  0  0  0  0
    6.8495  -14.4028   18.5772 N   0  0  0  0  0  0  0  0  0  0  0  0
    8.0084  -15.1824   20.5597 C   0  0  0  0  0  0  0  0  0  0  0  0
    6.9411  -15.2866   21.2142 O   0  0  0  0  0  0  0  0  0  0  0  0
    9.1105  -15.9477   21.0154 N   0  0  0  0  0  0  0  0  0  0  0  0
    9.0716  -16.8559   22.1501 C   0  0  1  0  0  0  0  0  0  0  0  0
    9.9776  -18.0451   21.9074 C   0  0  0  0  0  0  0  0  0  0  0  0
    9.4949  -18.8765   20.7832 C   0  0  0  0  0  0  0  0  0  0  0  0
   10.0570  -18.8272   19.6372 O   0  0  0  0  0  0  0  0  0  0  0  0
    9.4623  -16.2158   23.4061 C   0  0  0  0  0  0  0  0  0  0  0  0
   10.5203  -15.5597   23.4722 O   0  0  0  0  0  0  0  0  0  0  0  0
    8.4230  -19.7134   20.9825 O   0  0  0  0  0  0  0  0  0  0  0  0
    8.6122  -16.3614   24.5340 N   0  0  0  0  0  0  0  0  0  0  0  0
    9.0136  -15.9235   25.8579 C   0  0  1  0  0  0  0  0  0  0  0  0
    7.7896  -15.5159   26.6257 C   0  0  0  0  0  0  0  0  0  0  0  0
    7.3922  -14.1167   26.3764 C   0  0  0  0  0  0  0  0  0  0  0  0
    6.0741  -13.7207   26.3454 C   0  0  0  0  0  0  0  0  0  0  0  0
    5.6888  -12.4195   26.1134 C   0  0  0  0  0  0  0  0  0  0  0  0
    6.6964  -11.4850   25.9049 C   0  0  0  0  0  0  0  0  0  0  0  0
    8.0021  -11.8703   25.9339 C   0  0  0  0  0  0  0  0  0  0  0  0
    8.3607  -13.1699   26.1664 C   0  0  0  0  0  0  0  0  0  0  0  0
    9.7466  -16.9667   26.5927 C   0  0  0  0  0  0  0  0  0  0  0  0
    9.8130  -18.1425   26.1584 O   0  0  0  0  0  0  0  0  0  0  0  0
   10.3881  -16.6849   27.7877 O   0  0  0  0  0  0  0  0  0  0  0  0
  2  1  1  6
  2  3  1  0
  4  2  1  0
  4  5  1  1
  6  7  2  0
  6  4  1  0
  8  6  1  0
  9 10  1  6
  9  8  1  0
 11 15  1  0
 11 10  1  0
 12 11  2  0
 13  9  1  0
 14 13  2  0
 16 13  1  0
 17 16  1  0
 18 19  1  0
 17 18  1  1
 19 20  2  0
 20 21  1  0
 22 21  2  0
 23 22  1  0
 24 19  1  0
 24 23  2  0
 25 27  1  0
 25 17  1  0
 26 25  2  0
M  END
$$$$
