TDF.pdb
     RDKit          3D

 27 27  0  0  1  0  0  0  0  0999 V2000
    8.9160  -12.6014   20.6997 C   0  0  0  0  0  0  0  0  0  0  0  0
    7.7183  -13.2606   20.0952 C   0  0  1  0  0  0  0  0  0  0  0  0
    7.2171  -12.4953   19.0498 O   0  0  0  0  0  0  0  0  0  0  0  0
    8.0070  -14.6864   19.6507 C   0  0  2  0  0  0  0  0  0  0  0  0
    6.8558  -15.2571   18.9806 N   0  0  0  0  0  0  0  0  0  0  0  0
    8.4570  -15.5183   20.7830 C   0  0  0  0  0  0  0  0  0  0  0  0
    7.5994  -16.0752   21.5127 O   0  0  0  0  0  0  0  0  0  0  0  0
    9.8162  -15.7410   21.1166 N   0  0  0  0  0  0  0  0  0  0  0  0
   10.2693  -16.5650   22.2255 C   0  0  1  0  0  0  0  0  0  0  0  0
   11.7414  -16.8889   22.0770 C   0  0  0  0  0  0  0  0  0  0  0  0
   12.2000  -17.8286   23.1233 C   0  0  0  0  0  0  0  0  0  0  0  0
   12.8902  -17.4223   24.1184 O   0  0  0  0  0  0  0  0  0  0  0  0
   10.0557  -15.9348   23.5282 C   0  0  0  0  0  0  0  0  0  0  0  0
   10.5848  -14.8360   23.7869 O   0  0  0  0  0  0  0  0  0  0  0  0
   11.8745  -19.1596   23.0160 O   0  0  0  0  0  0  0  0  0  0  0  0
    9.2382  -16.6024   24.4780 N   0  0  0  0  0  0  0  0  0  0  0  0
    9.0324  -16.0780   25.8153 C   0  0  1  0  0  0  0  0  0  0  0  0
    7.5695  -15.8011   26.0078 C   0  0  0  0  0  0  0  0  0  0  0  0
    7.2525  -14.3598   26.0197 C   0  0  0  0  0  0  0  0  0  0  0  0
    8.1337  -13.4168   26.4985 C   0  0  0  0  0  0  0  0  0  0  0  0
    7.8513  -12.0694   26.5164 C   0  0  0  0  0  0  0  0  0  0  0  0
    6.6143  -11.6719   26.0226 C   0  0  0  0  0  0  0  0  0  0  0  0
    5.7380  -12.5998   25.5479 C   0  0  0  0  0  0  0  0  0  0  0  0
    6.0412  -13.9339   25.5404 C   0  0  0  0  0  0  0  0  0  0  0  0
    9.5132  -17.0000   26.8566 C   0  0  0  0  0  0  0  0  0  0  0  0
    9.5030  -16.6736   28.0686 O   0  0  0  0  0  0  0  0  0  0  0  0
    9.9921  -18.2590   26.5332 O   0  0  0  0  0  0  0  0  0  0  0  0
  2  1  1  6
  2  3  1  0
  4  2  1  0
  4  5  1  1
  6  7  2  0
  6  4  1  0
  8  6  1  0
  9 10  1  6
  9  8  1  0
 11 15  1  0
 11 10  1  0
 12 11  2  0
 13  9  1  0
 14 13  2  0
 16 13  1  0
 17 16  1  0
 18 19  1  0
 17 18  1  1
 19 20  2  0
 20 21  1  0
 22 21  2  0
 23 22  1  0
 24 19  1  0
 24 23  2  0
 25 27  1  0
 25 17  1  0
 26 25  2  0
M  END
$$$$
