TDF.pdb
     RDKit          3D

 27 27  0  0  1  0  0  0  0  0999 V2000
    8.9572  -12.5483   21.2728 C   0  0  0  0  0  0  0  0  0  0  0  0
    7.8135  -13.1542   20.5248 C   0  0  1  0  0  0  0  0  0  0  0  0
    7.4310  -12.3331   19.4716 O   0  0  0  0  0  0  0  0  0  0  0  0
    8.1197  -14.5651   20.0460 C   0  0  2  0  0  0  0  0  0  0  0  0
    7.0284  -15.0824   19.2451 N   0  0  0  0  0  0  0  0  0  0  0  0
    8.4460  -15.4542   21.1772 C   0  0  0  0  0  0  0  0  0  0  0  0
    7.5119  -15.9600   21.8479 O   0  0  0  0  0  0  0  0  0  0  0  0
    9.7652  -15.7880   21.5728 N   0  0  0  0  0  0  0  0  0  0  0  0
   10.0967  -16.6561   22.6910 C   0  0  1  0  0  0  0  0  0  0  0  0
   11.5341  -17.1228   22.5906 C   0  0  0  0  0  0  0  0  0  0  0  0
   11.7758  -17.8754   21.3403 C   0  0  0  0  0  0  0  0  0  0  0  0
   11.0288  -18.8560   21.0056 O   0  0  0  0  0  0  0  0  0  0  0  0
    9.9011  -16.0123   23.9898 C   0  0  0  0  0  0  0  0  0  0  0  0
   10.5031  -14.9550   24.2619 O   0  0  0  0  0  0  0  0  0  0  0  0
   12.8236  -17.5077   20.5303 O   0  0  0  0  0  0  0  0  0  0  0  0
    9.0166  -16.6186   24.9204 N   0  0  0  0  0  0  0  0  0  0  0  0
    8.9727  -16.2126   26.3128 C   0  0  1  0  0  0  0  0  0  0  0  0
    7.5523  -15.8958   26.6812 C   0  0  0  0  0  0  0  0  0  0  0  0
    7.1069  -14.5806   26.1813 C   0  0  0  0  0  0  0  0  0  0  0  0
    6.1654  -14.4527   25.1852 C   0  0  0  0  0  0  0  0  0  0  0  0
    5.7410  -13.2327   24.7086 C   0  0  0  0  0  0  0  0  0  0  0  0
    6.3047  -12.0964   25.2771 C   0  0  0  0  0  0  0  0  0  0  0  0
    7.2367  -12.2162   26.2626 C   0  0  0  0  0  0  0  0  0  0  0  0
    7.6429  -13.4400   26.7198 C   0  0  0  0  0  0  0  0  0  0  0  0
    9.5094  -17.2459   27.2128 C   0  0  0  0  0  0  0  0  0  0  0  0
    9.6524  -17.0276   28.4406 O   0  0  0  0  0  0  0  0  0  0  0  0
    9.8737  -18.4938   26.7344 O   0  0  0  0  0  0  0  0  0  0  0  0
  2  1  1  6
  2  3  1  0
  4  2  1  0
  4  5  1  1
  6  7  2  0
  6  4  1  0
  8  6  1  0
  9 10  1  6
  9  8  1  0
 11 15  1  0
 11 10  1  0
 12 11  2  0
 13  9  1  0
 14 13  2  0
 16 13  1  0
 17 16  1  0
 18 19  1  0
 17 18  1  1
 19 20  2  0
 20 21  1  0
 22 21  2  0
 23 22  1  0
 24 19  1  0
 24 23  2  0
 25 27  1  0
 25 17  1  0
 26 25  2  0
M  END
$$$$
