TDF.pdb
     RDKit          3D

 27 27  0  0  1  0  0  0  0  0999 V2000
    5.9345  -14.6927   20.8485 C   0  0  0  0  0  0  0  0  0  0  0  0
    7.0294  -15.2777   21.6813 C   0  0  1  0  0  0  0  0  0  0  0  0
    6.5037  -16.1080   22.6632 O   0  0  0  0  0  0  0  0  0  0  0  0
    8.0700  -16.0017   20.8407 C   0  0  2  0  0  0  0  0  0  0  0  0
    7.4542  -17.0546   20.0583 N   0  0  0  0  0  0  0  0  0  0  0  0
    9.1748  -16.5076   21.6772 C   0  0  0  0  0  0  0  0  0  0  0  0
    9.2880  -17.7455   21.8593 O   0  0  0  0  0  0  0  0  0  0  0  0
   10.1404  -15.6823   22.3053 N   0  0  0  0  0  0  0  0  0  0  0  0
   11.2597  -16.1738   23.0924 C   0  0  1  0  0  0  0  0  0  0  0  0
   12.4381  -15.2286   22.9845 C   0  0  0  0  0  0  0  0  0  0  0  0
   13.6780  -15.8427   23.5074 C   0  0  0  0  0  0  0  0  0  0  0  0
   13.8982  -17.0947   23.3814 O   0  0  0  0  0  0  0  0  0  0  0  0
   10.9278  -16.3520   24.5058 C   0  0  0  0  0  0  0  0  0  0  0  0
   11.8179  -16.6528   25.3253 O   0  0  0  0  0  0  0  0  0  0  0  0
   14.6040  -15.0468   24.1384 O   0  0  0  0  0  0  0  0  0  0  0  0
    9.5792  -16.1744   24.9129 N   0  0  0  0  0  0  0  0  0  0  0  0
    9.1484  -16.4361   26.2736 C   0  0  1  0  0  0  0  0  0  0  0  0
    7.7074  -16.0382   26.4112 C   0  0  0  0  0  0  0  0  0  0  0  0
    7.5014  -14.5795   26.3235 C   0  0  0  0  0  0  0  0  0  0  0  0
    6.4285  -14.0266   25.6616 C   0  0  0  0  0  0  0  0  0  0  0  0
    6.2240  -12.6681   25.5711 C   0  0  0  0  0  0  0  0  0  0  0  0
    7.1579  -11.8417   26.1851 C   0  0  0  0  0  0  0  0  0  0  0  0
    8.2216  -12.3823   26.8413 C   0  0  0  0  0  0  0  0  0  0  0  0
    8.4037  -13.7361   26.9177 C   0  0  0  0  0  0  0  0  0  0  0  0
    9.3209  -17.8477   26.6522 C   0  0  0  0  0  0  0  0  0  0  0  0
    9.1714  -18.2248   27.8400 O   0  0  0  0  0  0  0  0  0  0  0  0
    9.6532  -18.8068   25.7094 O   0  0  0  0  0  0  0  0  0  0  0  0
  2  1  1  6
  2  3  1  0
  4  2  1  0
  4  5  1  1
  6  7  2  0
  6  4  1  0
  8  6  1  0
  9 10  1  1
  9  8  1  0
 11 15  1  0
 11 10  1  0
 12 11  2  0
 13  9  1  0
 14 13  2  0
 16 13  1  0
 17 16  1  0
 18 19  1  0
 17 18  1  6
 19 20  2  0
 20 21  1  0
 22 21  2  0
 23 22  1  0
 24 19  1  0
 24 23  2  0
 25 27  1  0
 25 17  1  0
 26 25  2  0
M  END
$$$$
