TDF.pdb
     RDKit          3D

 27 27  0  0  1  0  0  0  0  0999 V2000
    8.0331  -12.3228   19.3754 C   0  0  0  0  0  0  0  0  0  0  0  0
    8.2830  -13.2342   20.5336 C   0  0  1  0  0  0  0  0  0  0  0  0
    7.8161  -12.6641   21.7112 O   0  0  0  0  0  0  0  0  0  0  0  0
    7.6938  -14.6195   20.3156 C   0  0  2  0  0  0  0  0  0  0  0  0
    6.2628  -14.5396   20.1012 N   0  0  0  0  0  0  0  0  0  0  0  0
    8.0372  -15.5271   21.4268 C   0  0  0  0  0  0  0  0  0  0  0  0
    7.1555  -15.8215   22.2720 O   0  0  0  0  0  0  0  0  0  0  0  0
    9.3171  -16.1051   21.6164 N   0  0  0  0  0  0  0  0  0  0  0  0
    9.6510  -17.0409   22.6778 C   0  0  1  0  0  0  0  0  0  0  0  0
   10.9286  -17.7835   22.3460 C   0  0  0  0  0  0  0  0  0  0  0  0
   10.8185  -18.5091   21.0617 C   0  0  0  0  0  0  0  0  0  0  0  0
    9.8196  -19.2662   20.8152 O   0  0  0  0  0  0  0  0  0  0  0  0
    9.8082  -16.3933   23.9799 C   0  0  0  0  0  0  0  0  0  0  0  0
   10.6201  -15.4576   24.1203 O   0  0  0  0  0  0  0  0  0  0  0  0
   11.8113  -18.3614   20.1229 O   0  0  0  0  0  0  0  0  0  0  0  0
    9.0192  -16.8552   25.0662 N   0  0  0  0  0  0  0  0  0  0  0  0
    9.2473  -16.4031   26.4261 C   0  0  1  0  0  0  0  0  0  0  0  0
    7.9433  -15.9399   27.0083 C   0  0  0  0  0  0  0  0  0  0  0  0
    7.5872  -14.5660   26.6037 C   0  0  0  0  0  0  0  0  0  0  0  0
    8.3748  -13.4804   26.9139 C   0  0  0  0  0  0  0  0  0  0  0  0
    8.0549  -12.1935   26.5438 C   0  0  0  0  0  0  0  0  0  0  0  0
    6.8789  -12.0117   25.8254 C   0  0  0  0  0  0  0  0  0  0  0  0
    6.0953  -13.0814   25.5156 C   0  0  0  0  0  0  0  0  0  0  0  0
    6.4342  -14.3515   25.8946 C   0  0  0  0  0  0  0  0  0  0  0  0
    9.8335  -17.4542   27.2730 C   0  0  0  0  0  0  0  0  0  0  0  0
   10.1477  -17.2268   28.4668 O   0  0  0  0  0  0  0  0  0  0  0  0
   10.0570  -18.7294   26.7804 O   0  0  0  0  0  0  0  0  0  0  0  0
  2  1  1  6
  2  3  1  0
  4  2  1  0
  4  5  1  1
  6  7  2  0
  6  4  1  0
  8  6  1  0
  9 10  1  6
  9  8  1  0
 11 15  1  0
 11 10  1  0
 12 11  2  0
 13  9  1  0
 14 13  2  0
 16 13  1  0
 17 16  1  0
 18 19  1  0
 17 18  1  1
 19 20  2  0
 20 21  1  0
 22 21  2  0
 23 22  1  0
 24 19  1  0
 24 23  2  0
 25 27  1  0
 25 17  1  0
 26 25  2  0
M  END
$$$$
