TDF.pdb
     RDKit          3D

 27 27  0  0  1  0  0  0  0  0999 V2000
    7.8438  -12.0935   19.2160 C   0  0  0  0  0  0  0  0  0  0  0  0
    8.1833  -13.0823   20.2844 C   0  0  1  0  0  0  0  0  0  0  0  0
    7.5403  -12.7562   21.4718 O   0  0  0  0  0  0  0  0  0  0  0  0
    7.8812  -14.5126   19.8641 C   0  0  2  0  0  0  0  0  0  0  0  0
    6.5104  -14.6346   19.4103 N   0  0  0  0  0  0  0  0  0  0  0  0
    8.1925  -15.4648   20.9471 C   0  0  0  0  0  0  0  0  0  0  0  0
    7.2505  -16.0470   21.5403 O   0  0  0  0  0  0  0  0  0  0  0  0
    9.5054  -15.7790   21.3781 N   0  0  0  0  0  0  0  0  0  0  0  0
    9.8297  -16.8067   22.3541 C   0  0  1  0  0  0  0  0  0  0  0  0
   11.1616  -17.4482   22.0244 C   0  0  0  0  0  0  0  0  0  0  0  0
   11.4791  -18.5525   22.9558 C   0  0  0  0  0  0  0  0  0  0  0  0
   10.5737  -19.3611   23.3535 O   0  0  0  0  0  0  0  0  0  0  0  0
    9.8802  -16.2961   23.7240 C   0  0  0  0  0  0  0  0  0  0  0  0
   10.6932  -15.4018   24.0297 O   0  0  0  0  0  0  0  0  0  0  0  0
   12.7720  -18.7048   23.3966 O   0  0  0  0  0  0  0  0  0  0  0  0
    8.9873  -16.8415   24.6838 N   0  0  0  0  0  0  0  0  0  0  0  0
    9.0790  -16.5074   26.0929 C   0  0  1  0  0  0  0  0  0  0  0  0
    7.7285  -16.0626   26.5748 C   0  0  0  0  0  0  0  0  0  0  0  0
    7.5257  -14.6056   26.4570 C   0  0  0  0  0  0  0  0  0  0  0  0
    8.2363  -13.7006   27.2128 C   0  0  0  0  0  0  0  0  0  0  0  0
    8.0573  -12.3391   27.1142 C   0  0  0  0  0  0  0  0  0  0  0  0
    7.1107  -11.8861   26.2025 C   0  0  0  0  0  0  0  0  0  0  0  0
    6.4043  -12.7762   25.4522 C   0  0  0  0  0  0  0  0  0  0  0  0
    6.5998  -14.1253   25.5680 C   0  0  0  0  0  0  0  0  0  0  0  0
    9.5578  -17.6376   26.9047 C   0  0  0  0  0  0  0  0  0  0  0  0
    9.7123  -17.5270   28.1454 O   0  0  0  0  0  0  0  0  0  0  0  0
    9.8530  -18.8611   26.3259 O   0  0  0  0  0  0  0  0  0  0  0  0
  2  1  1  6
  2  3  1  0
  4  2  1  0
  4  5  1  1
  6  7  2  0
  6  4  1  0
  8  6  1  0
  9 10  1  6
  9  8  1  0
 11 15  1  0
 11 10  1  0
 12 11  2  0
 13  9  1  0
 14 13  2  0
 16 13  1  0
 17 16  1  0
 18 19  1  0
 17 18  1  1
 19 20  2  0
 20 21  1  0
 22 21  2  0
 23 22  1  0
 24 19  1  0
 24 23  2  0
 25 27  1  0
 25 17  1  0
 26 25  2  0
M  END
$$$$
