TDF.pdb
     RDKit          3D

 27 27  0  0  1  0  0  0  0  0999 V2000
    9.0263  -12.8894   20.3048 C   0  0  0  0  0  0  0  0  0  0  0  0
    8.2875  -13.4079   19.1132 C   0  0  1  0  0  0  0  0  0  0  0  0
    8.4162  -12.5329   18.0420 O   0  0  0  0  0  0  0  0  0  0  0  0
    8.7192  -14.8164   18.7344 C   0  0  2  0  0  0  0  0  0  0  0  0
    8.1232  -15.2135   17.4747 N   0  0  0  0  0  0  0  0  0  0  0  0
    8.4203  -15.7756   19.8149 C   0  0  0  0  0  0  0  0  0  0  0  0
    7.5919  -16.6963   19.6046 O   0  0  0  0  0  0  0  0  0  0  0  0
    9.0117  -15.7348   21.1020 N   0  0  0  0  0  0  0  0  0  0  0  0
    9.5612  -16.8889   21.7946 C   0  0  1  0  0  0  0  0  0  0  0  0
   10.5522  -17.6152   20.9089 C   0  0  0  0  0  0  0  0  0  0  0  0
   11.1887  -18.7465   21.6181 C   0  0  0  0  0  0  0  0  0  0  0  0
   12.4103  -18.6905   21.9871 O   0  0  0  0  0  0  0  0  0  0  0  0
   10.2230  -16.5378   23.0510 C   0  0  0  0  0  0  0  0  0  0  0  0
   10.7443  -17.4257   23.7540 O   0  0  0  0  0  0  0  0  0  0  0  0
   10.4471  -19.8735   21.8807 O   0  0  0  0  0  0  0  0  0  0  0  0
   10.2543  -15.1732   23.4421 N   0  0  0  0  0  0  0  0  0  0  0  0
    9.5764  -14.7022   24.6355 C   0  0  1  0  0  0  0  0  0  0  0  0
    8.2676  -14.0836   24.2377 C   0  0  0  0  0  0  0  0  0  0  0  0
    7.6132  -13.3582   25.3438 C   0  0  0  0  0  0  0  0  0  0  0  0
    8.2560  -13.0936   26.5320 C   0  0  0  0  0  0  0  0  0  0  0  0
    7.6580  -12.4188   27.5724 C   0  0  0  0  0  0  0  0  0  0  0  0
    6.3466  -11.9970   27.3871 C   0  0  0  0  0  0  0  0  0  0  0  0
    5.7051  -12.2558   26.2142 C   0  0  0  0  0  0  0  0  0  0  0  0
    6.3204  -12.9286   25.1942 C   0  0  0  0  0  0  0  0  0  0  0  0
    9.3495  -15.7804   25.6111 C   0  0  0  0  0  0  0  0  0  0  0  0
    8.7096  -16.8144   25.2996 O   0  0  0  0  0  0  0  0  0  0  0  0
    9.8356  -15.6897   26.9051 O   0  0  0  0  0  0  0  0  0  0  0  0
  2  1  1  1
  2  3  1  0
  4  2  1  0
  4  5  1  6
  6  7  2  0
  6  4  1  0
  8  6  1  0
  9 10  1  6
  9  8  1  0
 11 15  1  0
 11 10  1  0
 12 11  2  0
 13  9  1  0
 14 13  2  0
 16 13  1  0
 17 16  1  0
 18 19  1  0
 17 18  1  6
 19 20  2  0
 20 21  1  0
 22 21  2  0
 23 22  1  0
 24 19  1  0
 24 23  2  0
 25 27  1  0
 25 17  1  0
 26 25  2  0
M  END
$$$$
