KCD.pdb
     RDKit          3D

 24 23  0  0  1  0  0  0  0  0999 V2000
   14.0161  -11.9496  -11.6931 N   0  0  0  0  0  0  0  0  0  0  0  0
   15.1790  -11.1689  -11.4193 C   0  0  1  0  0  0  0  0  0  0  0  0
   16.1359  -11.2273  -12.5544 C   0  0  0  0  0  0  0  0  0  0  0  0
   16.2127  -12.5726  -13.1738 C   0  0  0  0  0  0  0  0  0  0  0  0
   17.0564  -12.7122  -14.3956 C   0  0  0  0  0  0  0  0  0  0  0  0
   17.0363  -14.0908  -15.0129 C   0  0  0  0  0  0  0  0  0  0  0  0
   17.8977  -14.0567  -16.1830 N   0  0  0  0  0  0  0  0  0  0  0  0
   14.8613   -9.7814  -10.9966 C   0  0  0  0  0  0  0  0  0  0  0  0
   13.8349   -9.2161  -11.4505 O   0  0  0  0  0  0  0  0  0  0  0  0
   15.6883   -9.0709  -10.0891 N   0  0  0  0  0  0  0  0  0  0  0  0
   15.3626   -7.7025   -9.6995 C   0  0  1  0  0  0  0  0  0  0  0  0
   15.3961   -7.5135   -8.2122 C   0  0  0  0  0  0  0  0  0  0  0  0
   15.1330   -5.7434   -7.8905 S   0  0  0  0  0  0  0  0  0  0  0  0
   16.2349   -6.7297  -10.4117 C   0  0  0  0  0  0  0  0  0  0  0  0
   17.4800   -6.7649  -10.2506 O   0  0  0  0  0  0  0  0  0  0  0  0
   15.7164   -5.7397  -11.2862 N   0  0  0  0  0  0  0  0  0  0  0  0
   16.5735   -4.7935  -12.0178 C   0  0  1  0  0  0  0  0  0  0  0  0
   16.0388   -4.8130  -13.4312 C   0  0  0  0  0  0  0  0  0  0  0  0
   16.7602   -3.9284  -14.3580 C   0  0  0  0  0  0  0  0  0  0  0  0
   16.1292   -3.0457  -14.9967 O   0  0  0  0  0  0  0  0  0  0  0  0
   16.4637   -3.4521  -11.4195 C   0  0  0  0  0  0  0  0  0  0  0  0
   17.4006   -2.4593  -11.5850 O   0  0  0  0  0  0  0  0  0  0  0  0
   18.1134   -4.0306  -14.5590 O   0  0  0  0  0  0  0  0  0  0  0  0
   15.4541   -3.1591  -10.6998 O   0  0  0  0  0  0  0  0  0  0  0  0
  2  8  1  0
  2  1  1  6
  3  2  1  0
  4  3  1  0
  5  6  1  0
  5  4  1  0
  7  6  1  0
  8  9  2  0
 10  8  1  0
 10 11  1  0
 11 12  1  1
 12 13  1  0
 14 15  2  0
 14 11  1  0
 16 14  1  0
 17 16  1  0
 17 18  1  6
 19 18  1  0
 19 20  2  0
 21 22  1  0
 21 17  1  0
 23 19  1  0
 24 21  2  0
M  END
$$$$
