KCD.pdb
     RDKit          3D

 24 23  0  0  1  0  0  0  0  0999 V2000
   15.7707  -13.2132  -14.8762 N   0  0  0  0  0  0  0  0  0  0  0  0
   16.6850  -12.2958  -14.2769 C   0  0  1  0  0  0  0  0  0  0  0  0
   17.7766  -11.9426  -15.2209 C   0  0  0  0  0  0  0  0  0  0  0  0
   18.5117  -13.1296  -15.7209 C   0  0  0  0  0  0  0  0  0  0  0  0
   19.6743  -12.8808  -16.6212 C   0  0  0  0  0  0  0  0  0  0  0  0
   20.4572  -14.1203  -16.9855 C   0  0  0  0  0  0  0  0  0  0  0  0
   19.4973  -15.1598  -17.3179 N   0  0  0  0  0  0  0  0  0  0  0  0
   16.0154  -11.1074  -13.6904 C   0  0  0  0  0  0  0  0  0  0  0  0
   15.0827  -10.5489  -14.3207 O   0  0  0  0  0  0  0  0  0  0  0  0
   16.4005  -10.5808  -12.4308 N   0  0  0  0  0  0  0  0  0  0  0  0
   15.7328   -9.4061  -11.8790 C   0  0  1  0  0  0  0  0  0  0  0  0
   15.3125   -9.6100  -10.4540 C   0  0  0  0  0  0  0  0  0  0  0  0
   14.0287  -10.8975  -10.4525 S   0  0  0  0  0  0  0  0  0  0  0  0
   16.5755   -8.1915  -12.0503 C   0  0  0  0  0  0  0  0  0  0  0  0
   17.7322   -8.1536  -11.5625 O   0  0  0  0  0  0  0  0  0  0  0  0
   16.1255   -7.0454  -12.7558 N   0  0  0  0  0  0  0  0  0  0  0  0
   16.9789   -5.8713  -12.9975 C   0  0  1  0  0  0  0  0  0  0  0  0
   18.1463   -6.4087  -13.7926 C   0  0  0  0  0  0  0  0  0  0  0  0
   19.0587   -5.3709  -14.2949 C   0  0  0  0  0  0  0  0  0  0  0  0
   18.8407   -4.1618  -14.0196 O   0  0  0  0  0  0  0  0  0  0  0  0
   16.2309   -4.8564  -13.7590 C   0  0  0  0  0  0  0  0  0  0  0  0
   16.4895   -3.5072  -13.6987 O   0  0  0  0  0  0  0  0  0  0  0  0
   20.1528   -5.6727  -15.0656 O   0  0  0  0  0  0  0  0  0  0  0  0
   15.2811   -5.2136  -14.5294 O   0  0  0  0  0  0  0  0  0  0  0  0
  2  8  1  0
  2  1  1  6
  3  2  1  0
  4  3  1  0
  5  6  1  0
  5  4  1  0
  7  6  1  0
  8  9  2  0
 10  8  1  0
 10 11  1  0
 11 12  1  1
 12 13  1  0
 14 15  2  0
 14 11  1  0
 16 14  1  0
 17 16  1  0
 17 18  1  6
 19 18  1  0
 19 20  2  0
 21 22  1  0
 21 17  1  0
 23 19  1  0
 24 21  2  0
M  END
$$$$
