KCD.pdb
     RDKit          3D

 24 23  0  0  1  0  0  0  0  0999 V2000
   28.0471  -19.1311  -14.1919 N   0  0  0  0  0  0  0  0  0  0  0  0
   27.2335  -20.0298  -14.9449 C   0  0  1  0  0  0  0  0  0  0  0  0
   28.0718  -20.9748  -15.7272 C   0  0  0  0  0  0  0  0  0  0  0  0
   28.8595  -20.3024  -16.7887 C   0  0  0  0  0  0  0  0  0  0  0  0
   28.2016  -19.1790  -17.5161 C   0  0  0  0  0  0  0  0  0  0  0  0
   29.0348  -18.5820  -18.6257 C   0  0  0  0  0  0  0  0  0  0  0  0
   28.2431  -17.5350  -19.2499 N   0  0  0  0  0  0  0  0  0  0  0  0
   26.2034  -20.7108  -14.1206 C   0  0  0  0  0  0  0  0  0  0  0  0
   25.4734  -21.5894  -14.6442 O   0  0  0  0  0  0  0  0  0  0  0  0
   26.0181  -20.3963  -12.7497 N   0  0  0  0  0  0  0  0  0  0  0  0
   24.9472  -21.0218  -11.9803 C   0  0  1  0  0  0  0  0  0  0  0  0
   25.1090  -20.8066  -10.5050 C   0  0  0  0  0  0  0  0  0  0  0  0
   26.7767  -21.3778  -10.0594 S   0  0  0  0  0  0  0  0  0  0  0  0
   23.6151  -20.5768  -12.4725 C   0  0  0  0  0  0  0  0  0  0  0  0
   23.3502  -19.3518  -12.5525 O   0  0  0  0  0  0  0  0  0  0  0  0
   22.6041  -21.4915  -12.8664 N   0  0  0  0  0  0  0  0  0  0  0  0
   21.2809  -21.0607  -13.3448 C   0  0  1  0  0  0  0  0  0  0  0  0
   20.9959  -21.9567  -14.5280 C   0  0  0  0  0  0  0  0  0  0  0  0
   19.6559  -21.7785  -15.1065 C   0  0  0  0  0  0  0  0  0  0  0  0
   18.7493  -22.6136  -14.8499 O   0  0  0  0  0  0  0  0  0  0  0  0
   20.2798  -21.2413  -12.2796 C   0  0  0  0  0  0  0  0  0  0  0  0
   20.3447  -22.2291  -11.3253 O   0  0  0  0  0  0  0  0  0  0  0  0
   19.3513  -20.7240  -15.9294 O   0  0  0  0  0  0  0  0  0  0  0  0
   19.2808  -20.4538  -12.2077 O   0  0  0  0  0  0  0  0  0  0  0  0
  2  8  1  0
  2  1  1  1
  3  2  1  0
  4  3  1  0
  5  6  1  0
  5  4  1  0
  7  6  1  0
  8  9  2  0
 10  8  1  0
 10 11  1  0
 11 12  1  1
 12 13  1  0
 14 15  2  0
 14 11  1  0
 16 14  1  0
 17 16  1  0
 17 18  1  6
 19 18  1  0
 19 20  2  0
 21 22  1  0
 21 17  1  0
 23 19  1  0
 24 21  2  0
M  END
$$$$
