KCD.pdb
     RDKit          3D

 24 23  0  0  1  0  0  0  0  0999 V2000
   20.6180  -12.9812  -16.8208 N   0  0  0  0  0  0  0  0  0  0  0  0
   19.8392  -11.8161  -16.5507 C   0  0  1  0  0  0  0  0  0  0  0  0
   18.5227  -12.1821  -15.9671 C   0  0  0  0  0  0  0  0  0  0  0  0
   17.7211  -13.0559  -16.8578 C   0  0  0  0  0  0  0  0  0  0  0  0
   17.1977  -14.3249  -16.2751 C   0  0  0  0  0  0  0  0  0  0  0  0
   16.2967  -15.1101  -17.1990 C   0  0  0  0  0  0  0  0  0  0  0  0
   15.9916  -16.3704  -16.5425 N   0  0  0  0  0  0  0  0  0  0  0  0
   20.5695  -10.8017  -15.7493 C   0  0  0  0  0  0  0  0  0  0  0  0
   20.1384  -10.4840  -14.6125 O   0  0  0  0  0  0  0  0  0  0  0  0
   21.7476  -10.1768  -16.2329 N   0  0  0  0  0  0  0  0  0  0  0  0
   22.4730   -9.2157  -15.4081 C   0  0  1  0  0  0  0  0  0  0  0  0
   23.9595   -9.3660  -15.5375 C   0  0  0  0  0  0  0  0  0  0  0  0
   24.4323  -10.8495  -14.5987 S   0  0  0  0  0  0  0  0  0  0  0  0
   22.0194   -7.8274  -15.6938 C   0  0  0  0  0  0  0  0  0  0  0  0
   22.0036   -7.4005  -16.8748 O   0  0  0  0  0  0  0  0  0  0  0  0
   21.5925   -6.9401  -14.6720 N   0  0  0  0  0  0  0  0  0  0  0  0
   21.2499   -5.5324  -14.9294 C   0  0  1  0  0  0  0  0  0  0  0  0
   19.9608   -5.3117  -14.1721 C   0  0  0  0  0  0  0  0  0  0  0  0
   19.3588   -3.9873  -14.3855 C   0  0  0  0  0  0  0  0  0  0  0  0
   18.1099   -3.8814  -14.5050 O   0  0  0  0  0  0  0  0  0  0  0  0
   22.3237   -4.6561  -14.4309 C   0  0  0  0  0  0  0  0  0  0  0  0
   22.7579   -3.5270  -15.0846 O   0  0  0  0  0  0  0  0  0  0  0  0
   20.1162   -2.8461  -14.4635 O   0  0  0  0  0  0  0  0  0  0  0  0
   22.9073   -4.9299  -13.3320 O   0  0  0  0  0  0  0  0  0  0  0  0
  2  8  1  0
  2  1  1  1
  3  2  1  0
  4  3  1  0
  5  6  1  0
  5  4  1  0
  7  6  1  0
  8  9  2  0
 10  8  1  0
 10 11  1  0
 11 12  1  6
 12 13  1  0
 14 15  2  0
 14 11  1  0
 16 14  1  0
 17 16  1  0
 17 18  1  1
 19 18  1  0
 19 20  2  0
 21 22  1  0
 21 17  1  0
 23 19  1  0
 24 21  2  0
M  END
$$$$
