TQQ.pdb
     RDKit          3D

 26 25  0  0  1  0  0  0  0  0999 V2000
   13.5810   -5.2937   -8.7075 C   0  0  0  0  0  0  0  0  0  0  0  0
   14.6916   -5.9218   -9.4877 C   0  0  1  0  0  0  0  0  0  0  0  0
   15.8603   -5.1895   -9.3311 O   0  0  0  0  0  0  0  0  0  0  0  0
   14.8956   -7.3680   -9.0386 C   0  0  2  0  0  0  0  0  0  0  0  0
   15.2961   -7.4334   -7.6660 N   0  0  0  0  0  0  0  0  0  0  0  0
   15.9209   -8.0252   -9.9345 C   0  0  0  0  0  0  0  0  0  0  0  0
   17.1110   -7.9823   -9.5456 O   0  0  0  0  0  0  0  0  0  0  0  0
   14.1725  -11.8009  -14.6454 N   0  0  0  0  0  0  0  0  0  0  0  0
   14.2655  -12.2883  -13.3093 C   0  0  0  0  0  0  0  0  0  0  0  0
   13.7230  -13.3985  -13.0746 O   0  0  0  0  0  0  0  0  0  0  0  0
   14.9832  -11.4949  -12.2475 C   0  0  0  0  0  0  0  0  0  0  0  0
   15.5540  -10.3030  -12.9170 C   0  0  0  0  0  0  0  0  0  0  0  0
   16.3017   -9.3406  -12.0380 C   0  0  2  0  0  0  0  0  0  0  0  0
   15.4587   -8.6269  -11.1231 N   0  0  0  0  0  0  0  0  0  0  0  0
   17.0444   -8.3978  -12.8997 C   0  0  0  0  0  0  0  0  0  0  0  0
   16.5161   -7.2862  -13.2641 O   0  0  0  0  0  0  0  0  0  0  0  0
   22.5745   -6.3338  -11.8977 N   0  0  0  0  0  0  0  0  0  0  0  0
   22.2364   -5.6512  -13.0984 C   0  0  0  0  0  0  0  0  0  0  0  0
   23.0129   -4.7260  -13.5215 O   0  0  0  0  0  0  0  0  0  0  0  0
   21.0212   -5.9894  -13.8657 C   0  0  0  0  0  0  0  0  0  0  0  0
   20.1700   -7.0617  -13.2916 C   0  0  0  0  0  0  0  0  0  0  0  0
   19.0942   -7.6217  -14.1401 C   0  0  2  0  0  0  0  0  0  0  0  0
   18.3529   -8.6467  -13.3706 N   0  0  0  0  0  0  0  0  0  0  0  0
   19.5308   -8.1464  -15.4255 C   0  0  0  0  0  0  0  0  0  0  0  0
   19.6370   -7.3847  -16.6080 O   0  0  0  0  0  0  0  0  0  0  0  0
   19.8522   -9.3681  -15.6010 O   0  0  0  0  0  0  0  0  0  0  0  0
  2  1  1  1
  2  3  1  0
  4  5  1  1
  4  2  1  0
  6  4  1  0
  7  6  2  0
  9  8  1  0
  9 11  1  0
 10  9  2  0
 12 11  1  0
 13 12  1  6
 13 14  1  0
 14  6  1  0
 15 13  1  0
 15 16  2  0
 17 18  1  0
 18 19  2  0
 20 21  1  0
 20 18  1  0
 22 21  1  1
 22 23  1  0
 23 15  1  0
 24 22  1  0
 25 24  1  0
 26 24  2  0
M  END
$$$$
