TQQ.pdb
     RDKit          3D

 26 25  0  0  1  0  0  0  0  0999 V2000
   19.4177   -9.9156  -13.4570 C   0  0  0  0  0  0  0  0  0  0  0  0
   18.7090  -10.7096  -14.5077 C   0  0  1  0  0  0  0  0  0  0  0  0
   19.5988  -11.5648  -15.1429 O   0  0  0  0  0  0  0  0  0  0  0  0
   17.5565  -11.4949  -13.8834 C   0  0  2  0  0  0  0  0  0  0  0  0
   16.9349  -12.3554  -14.8435 N   0  0  0  0  0  0  0  0  0  0  0  0
   16.5562  -10.5248  -13.2968 C   0  0  0  0  0  0  0  0  0  0  0  0
   15.8336   -9.9071  -14.1127 O   0  0  0  0  0  0  0  0  0  0  0  0
   13.3386  -11.5902   -8.4506 N   0  0  0  0  0  0  0  0  0  0  0  0
   12.7481  -11.4505   -9.7402 C   0  0  0  0  0  0  0  0  0  0  0  0
   11.6208  -11.9831   -9.9053 O   0  0  0  0  0  0  0  0  0  0  0  0
   13.4584  -10.6974  -10.8359 C   0  0  0  0  0  0  0  0  0  0  0  0
   14.7091  -10.1647  -10.2471 C   0  0  0  0  0  0  0  0  0  0  0  0
   15.6552   -9.4862  -11.1970 C   0  0  2  0  0  0  0  0  0  0  0  0
   16.5183  -10.3957  -11.8932 N   0  0  0  0  0  0  0  0  0  0  0  0
   16.4492   -8.4957  -10.4411 C   0  0  0  0  0  0  0  0  0  0  0  0
   17.6180   -8.7905   -9.9999 O   0  0  0  0  0  0  0  0  0  0  0  0
   19.9069   -6.1169  -13.1475 N   0  0  0  0  0  0  0  0  0  0  0  0
   19.9588   -5.0919  -12.1633 C   0  0  0  0  0  0  0  0  0  0  0  0
   20.8919   -4.2185  -12.2309 O   0  0  0  0  0  0  0  0  0  0  0  0
   18.9622   -5.0099  -11.0771 C   0  0  0  0  0  0  0  0  0  0  0  0
   17.9170   -6.0642  -11.0759 C   0  0  0  0  0  0  0  0  0  0  0  0
   16.9426   -6.0731   -9.9617 C   0  0  2  0  0  0  0  0  0  0  0  0
   15.9905   -7.1897  -10.1584 N   0  0  0  0  0  0  0  0  0  0  0  0
   16.2392   -4.8173   -9.7459 C   0  0  0  0  0  0  0  0  0  0  0  0
   16.6084   -3.8453   -8.7926 O   0  0  0  0  0  0  0  0  0  0  0  0
   15.2002   -4.4839  -10.4062 O   0  0  0  0  0  0  0  0  0  0  0  0
  2  1  1  1
  2  3  1  0
  4  5  1  6
  4  2  1  0
  6  4  1  0
  7  6  2  0
  9  8  1  0
  9 11  1  0
 10  9  2  0
 12 11  1  0
 13 12  1  1
 13 14  1  0
 14  6  1  0
 15 13  1  0
 15 16  2  0
 17 18  1  0
 18 19  2  0
 20 21  1  0
 20 18  1  0
 22 21  1  6
 22 23  1  0
 23 15  1  0
 24 22  1  0
 25 24  1  0
 26 24  2  0
M  END
$$$$
