TQQ.pdb
     RDKit          3D

 26 25  0  0  1  0  0  0  0  0999 V2000
   26.6580  -18.4980  -15.4176 C   0  0  0  0  0  0  0  0  0  0  0  0
   27.1056  -19.6430  -16.2693 C   0  0  1  0  0  0  0  0  0  0  0  0
   28.0757  -19.2206  -17.1678 O   0  0  0  0  0  0  0  0  0  0  0  0
   27.6385  -20.7735  -15.3903 C   0  0  2  0  0  0  0  0  0  0  0  0
   28.1537  -21.8482  -16.1829 N   0  0  0  0  0  0  0  0  0  0  0  0
   26.5333  -21.2544  -14.4774 C   0  0  0  0  0  0  0  0  0  0  0  0
   25.6676  -21.9985  -14.9934 O   0  0  0  0  0  0  0  0  0  0  0  0
   26.7463  -19.9886   -8.3484 N   0  0  0  0  0  0  0  0  0  0  0  0
   25.5097  -20.6954   -8.4016 C   0  0  0  0  0  0  0  0  0  0  0  0
   24.9610  -20.9560   -7.3003 O   0  0  0  0  0  0  0  0  0  0  0  0
   24.9091  -21.0997   -9.7237 C   0  0  0  0  0  0  0  0  0  0  0  0
   25.9157  -20.7860  -10.7643 C   0  0  0  0  0  0  0  0  0  0  0  0
   25.5319  -21.1108  -12.1804 C   0  0  2  0  0  0  0  0  0  0  0  0
   26.5668  -20.8305  -13.1330 N   0  0  0  0  0  0  0  0  0  0  0  0
   24.3029  -20.3629  -12.5169 C   0  0  0  0  0  0  0  0  0  0  0  0
   24.3120  -19.0810  -12.5825 O   0  0  0  0  0  0  0  0  0  0  0  0
   22.9609  -19.6570  -17.1322 N   0  0  0  0  0  0  0  0  0  0  0  0
   22.4393  -20.9201  -16.7393 C   0  0  0  0  0  0  0  0  0  0  0  0
   22.5646  -21.9140  -17.5359 O   0  0  0  0  0  0  0  0  0  0  0  0
   21.7675  -21.1100  -15.4384 C   0  0  0  0  0  0  0  0  0  0  0  0
   21.7740  -19.9369  -14.5285 C   0  0  0  0  0  0  0  0  0  0  0  0
   21.8526  -20.1896  -13.0722 C   0  0  2  0  0  0  0  0  0  0  0  0
   23.0647  -20.9891  -12.7829 N   0  0  0  0  0  0  0  0  0  0  0  0
   20.6694  -20.8022  -12.4866 C   0  0  0  0  0  0  0  0  0  0  0  0
   20.6641  -22.0261  -11.7853 O   0  0  0  0  0  0  0  0  0  0  0  0
   19.5084  -20.2804  -12.5670 O   0  0  0  0  0  0  0  0  0  0  0  0
  2  1  1  1
  2  3  1  0
  4  5  1  6
  4  2  1  0
  6  4  1  0
  7  6  2  0
  9  8  1  0
  9 11  1  0
 10  9  2  0
 12 11  1  0
 13 12  1  1
 13 14  1  0
 14  6  1  0
 15 13  1  0
 15 16  2  0
 17 18  1  0
 18 19  2  0
 20 21  1  0
 20 18  1  0
 22 21  1  6
 22 23  1  0
 23 15  1  0
 24 22  1  0
 25 24  1  0
 26 24  2  0
M  END
$$$$
