TQQ.pdb
     RDKit          3D

 26 25  0  0  1  0  0  0  0  0999 V2000
   26.8241  -23.5092  -17.9364 C   0  0  0  0  0  0  0  0  0  0  0  0
   28.0036  -24.3033  -17.4725 C   0  0  1  0  0  0  0  0  0  0  0  0
   28.4276  -25.1619  -18.4773 O   0  0  0  0  0  0  0  0  0  0  0  0
   29.1337  -23.3657  -17.0501 C   0  0  2  0  0  0  0  0  0  0  0  0
   30.2378  -24.0961  -16.5059 N   0  0  0  0  0  0  0  0  0  0  0  0
   28.5999  -22.3651  -16.0501 C   0  0  0  0  0  0  0  0  0  0  0  0
   28.4954  -22.7610  -14.8662 O   0  0  0  0  0  0  0  0  0  0  0  0
   27.5695  -16.4698  -17.8751 N   0  0  0  0  0  0  0  0  0  0  0  0
   27.1941  -16.3530  -16.5051 C   0  0  0  0  0  0  0  0  0  0  0  0
   26.9047  -15.1995  -16.0957 O   0  0  0  0  0  0  0  0  0  0  0  0
   27.1531  -17.5657  -15.6109 C   0  0  0  0  0  0  0  0  0  0  0  0
   27.7504  -18.6832  -16.3784 C   0  0  0  0  0  0  0  0  0  0  0  0
   27.7788  -20.0203  -15.6934 C   0  0  2  0  0  0  0  0  0  0  0  0
   28.2666  -21.0806  -16.5269 N   0  0  0  0  0  0  0  0  0  0  0  0
   26.4175  -20.3282  -15.2086 C   0  0  0  0  0  0  0  0  0  0  0  0
   25.5588  -20.8925  -15.9780 O   0  0  0  0  0  0  0  0  0  0  0  0
   24.7732  -20.8615   -9.0702 N   0  0  0  0  0  0  0  0  0  0  0  0
   23.5350  -21.0213   -9.7507 C   0  0  0  0  0  0  0  0  0  0  0  0
   22.4795  -21.2521   -9.0646 O   0  0  0  0  0  0  0  0  0  0  0  0
   23.4403  -20.9203  -11.2206 C   0  0  0  0  0  0  0  0  0  0  0  0
   24.7044  -20.6018  -11.9309 C   0  0  0  0  0  0  0  0  0  0  0  0
   24.6666  -20.5147  -13.4080 C   0  0  2  0  0  0  0  0  0  0  0  0
   25.9769  -20.0313  -13.8995 N   0  0  0  0  0  0  0  0  0  0  0  0
   23.5771  -19.7179  -13.9523 C   0  0  0  0  0  0  0  0  0  0  0  0
   22.2811  -20.2074  -14.2182 O   0  0  0  0  0  0  0  0  0  0  0  0
   23.7045  -18.4848  -14.2524 O   0  0  0  0  0  0  0  0  0  0  0  0
  2  1  1  6
  2  3  1  0
  4  5  1  1
  4  2  1  0
  6  4  1  0
  7  6  2  0
  9  8  1  0
  9 11  1  0
 10  9  2  0
 12 11  1  0
 13 12  1  6
 13 14  1  0
 14  6  1  0
 15 13  1  0
 15 16  2  0
 17 18  1  0
 18 19  2  0
 20 21  1  0
 20 18  1  0
 22 21  1  1
 22 23  1  0
 23 15  1  0
 24 22  1  0
 25 24  1  0
 26 24  2  0
M  END
$$$$
