TQQ.pdb
     RDKit          3D

 26 25  0  0  1  0  0  0  0  0999 V2000
   26.9586  -18.6640  -16.2709 C   0  0  0  0  0  0  0  0  0  0  0  0
   27.5456  -19.8397  -16.9849 C   0  0  1  0  0  0  0  0  0  0  0  0
   28.6439  -19.4442  -17.7358 O   0  0  0  0  0  0  0  0  0  0  0  0
   27.9391  -20.9210  -15.9795 C   0  0  2  0  0  0  0  0  0  0  0  0
   28.5802  -22.0241  -16.6283 N   0  0  0  0  0  0  0  0  0  0  0  0
   26.7060  -21.3742  -15.2311 C   0  0  0  0  0  0  0  0  0  0  0  0
   25.9316  -22.1435  -15.8458 O   0  0  0  0  0  0  0  0  0  0  0  0
   26.2130  -20.5304   -9.0829 N   0  0  0  0  0  0  0  0  0  0  0  0
   24.9037  -21.0265   -9.3493 C   0  0  0  0  0  0  0  0  0  0  0  0
   24.1837  -21.2839   -8.3506 O   0  0  0  0  0  0  0  0  0  0  0  0
   24.4278  -21.2248  -10.7657 C   0  0  0  0  0  0  0  0  0  0  0  0
   25.5835  -20.9425  -11.6484 C   0  0  0  0  0  0  0  0  0  0  0  0
   25.3667  -21.1626  -13.1190 C   0  0  2  0  0  0  0  0  0  0  0  0
   26.5299  -20.8988  -13.9153 N   0  0  0  0  0  0  0  0  0  0  0  0
   24.2368  -20.3180  -13.5584 C   0  0  0  0  0  0  0  0  0  0  0  0
   24.3046  -19.0386  -13.4802 O   0  0  0  0  0  0  0  0  0  0  0  0
   21.1547  -21.6412  -19.1305 N   0  0  0  0  0  0  0  0  0  0  0  0
   20.7227  -21.1316  -17.8753 C   0  0  0  0  0  0  0  0  0  0  0  0
   19.5666  -20.5886  -17.7949 O   0  0  0  0  0  0  0  0  0  0  0  0
   21.5704  -21.2213  -16.6698 C   0  0  0  0  0  0  0  0  0  0  0  0
   21.8480  -19.9384  -15.9761 C   0  0  0  0  0  0  0  0  0  0  0  0
   21.9290  -19.9528  -14.4982 C   0  0  2  0  0  0  0  0  0  0  0  0
   23.0347  -20.8448  -14.0814 N   0  0  0  0  0  0  0  0  0  0  0  0
   20.6914  -20.2987  -13.8149 C   0  0  0  0  0  0  0  0  0  0  0  0
   20.5264  -21.4186  -12.9731 O   0  0  0  0  0  0  0  0  0  0  0  0
   19.6231  -19.6111  -13.9280 O   0  0  0  0  0  0  0  0  0  0  0  0
  2  1  1  1
  2  3  1  0
  4  5  1  6
  4  2  1  0
  6  4  1  0
  7  6  2  0
  9  8  1  0
  9 11  1  0
 10  9  2  0
 12 11  1  0
 13 12  1  1
 13 14  1  0
 14  6  1  0
 15 13  1  0
 15 16  2  0
 17 18  1  0
 18 19  2  0
 20 21  1  0
 20 18  1  0
 22 21  1  6
 22 23  1  0
 23 15  1  0
 24 22  1  0
 25 24  1  0
 26 24  2  0
M  END
$$$$
