TQQ.pdb
     RDKit          3D

 26 25  0  0  1  0  0  0  0  0999 V2000
   15.5232  -11.6869  -15.9288 C   0  0  0  0  0  0  0  0  0  0  0  0
   15.8524  -12.9695  -15.2336 C   0  0  1  0  0  0  0  0  0  0  0  0
   14.6868  -13.6327  -14.8756 O   0  0  0  0  0  0  0  0  0  0  0  0
   16.7189  -13.8475  -16.1352 C   0  0  2  0  0  0  0  0  0  0  0  0
   16.9461  -15.1317  -15.5456 N   0  0  0  0  0  0  0  0  0  0  0  0
   18.0255  -13.1382  -16.4101 C   0  0  0  0  0  0  0  0  0  0  0  0
   18.8492  -13.1008  -15.4670 O   0  0  0  0  0  0  0  0  0  0  0  0
   19.8434  -11.9323  -22.2060 N   0  0  0  0  0  0  0  0  0  0  0  0
   20.7996  -11.1279  -21.5203 C   0  0  0  0  0  0  0  0  0  0  0  0
   21.6866  -10.5817  -22.2252 O   0  0  0  0  0  0  0  0  0  0  0  0
   20.7310  -10.9555  -20.0245 C   0  0  0  0  0  0  0  0  0  0  0  0
   19.5374  -11.7013  -19.5625 C   0  0  0  0  0  0  0  0  0  0  0  0
   19.3586  -11.8148  -18.0748 C   0  0  2  0  0  0  0  0  0  0  0  0
   18.2087  -12.5821  -17.6929 N   0  0  0  0  0  0  0  0  0  0  0  0
   19.2841  -10.4533  -17.5058 C   0  0  0  0  0  0  0  0  0  0  0  0
   18.1733   -9.8104  -17.4856 O   0  0  0  0  0  0  0  0  0  0  0  0
   21.9236   -8.4105  -12.3544 N   0  0  0  0  0  0  0  0  0  0  0  0
   21.4592   -7.1914  -12.9201 C   0  0  0  0  0  0  0  0  0  0  0  0
   21.5675   -6.1141  -12.2378 O   0  0  0  0  0  0  0  0  0  0  0  0
   20.8655   -7.1410  -14.2710 C   0  0  0  0  0  0  0  0  0  0  0  0
   20.7979   -8.4339  -14.9976 C   0  0  0  0  0  0  0  0  0  0  0  0
   20.2645   -8.4260  -16.3783 C   0  0  2  0  0  0  0  0  0  0  0  0
   20.4000   -9.7813  -16.9588 N   0  0  0  0  0  0  0  0  0  0  0  0
   20.8411   -7.4199  -17.2578 C   0  0  0  0  0  0  0  0  0  0  0  0
   20.2072   -6.2125  -17.6187 O   0  0  0  0  0  0  0  0  0  0  0  0
   21.9890   -7.5495  -17.7984 O   0  0  0  0  0  0  0  0  0  0  0  0
  2  1  1  6
  2  3  1  0
  4  5  1  1
  4  2  1  0
  6  4  1  0
  7  6  2  0
  9  8  1  0
  9 11  1  0
 10  9  2  0
 12 11  1  0
 13 12  1  6
 13 14  1  0
 14  6  1  0
 15 13  1  0
 15 16  2  0
 17 18  1  0
 18 19  2  0
 20 21  1  0
 20 18  1  0
 22 21  1  1
 22 23  1  0
 23 15  1  0
 24 22  1  0
 25 24  1  0
 26 24  2  0
M  END
$$$$
