MWW.pdb
     RDKit          3D

 37 40  0  0  1  0  0  0  0  0999 V2000
   29.1697  -19.3911  -19.7608 C   0  0  0  0  0  0  0  0  0  0  0  0
   27.9408  -20.7196  -19.8678 S   0  0  0  0  0  0  0  0  0  0  0  0
   28.3258  -22.0194  -18.6541 C   0  0  0  0  0  0  0  0  0  0  0  0
   27.3213  -21.9407  -17.5136 C   0  0  0  0  0  0  0  0  0  0  0  0
   28.0912  -21.6195  -16.2611 C   0  0  2  0  0  0  0  0  0  0  0  0
   29.2493  -22.4404  -16.0999 N   0  0  0  0  0  0  0  0  0  0  0  0
   27.2112  -21.6363  -15.0520 C   0  0  0  0  0  0  0  0  0  0  0  0
   25.9785  -21.8197  -15.1458 O   0  0  0  0  0  0  0  0  0  0  0  0
   27.7261  -21.4464  -13.7417 N   0  0  0  0  0  0  0  0  0  0  0  0
   26.8817  -21.3505  -12.5522 C   0  0  1  0  0  0  0  0  0  0  0  0
   27.8504  -21.1291  -11.4097 C   0  0  0  0  0  0  0  0  0  0  0  0
   27.1151  -20.8029  -10.1613 C   0  0  0  0  0  0  0  0  0  0  0  0
   25.7565  -20.6142  -10.0339 C   0  0  0  0  0  0  0  0  0  0  0  0
   25.4584  -20.3316   -8.7516 N   0  0  0  0  0  0  0  0  0  0  0  0
   26.6056  -20.3306   -8.0246 C   0  0  0  0  0  0  0  0  0  0  0  0
   26.8492  -20.1033   -6.6875 C   0  0  0  0  0  0  0  0  0  0  0  0
   28.1293  -20.1672   -6.2127 C   0  0  0  0  0  0  0  0  0  0  0  0
   29.1682  -20.4585   -7.0747 C   0  0  0  0  0  0  0  0  0  0  0  0
   28.9441  -20.6886   -8.4140 C   0  0  0  0  0  0  0  0  0  0  0  0
   27.6408  -20.6212   -8.8847 C   0  0  0  0  0  0  0  0  0  0  0  0
   25.8164  -20.3815  -12.6516 C   0  0  0  0  0  0  0  0  0  0  0  0
   26.0573  -19.1472  -12.6970 O   0  0  0  0  0  0  0  0  0  0  0  0
   24.4685  -20.7979  -12.7008 N   0  0  0  0  0  0  0  0  0  0  0  0
   23.3946  -19.7842  -12.6571 C   0  0  1  0  0  0  0  0  0  0  0  0
   23.6263  -18.9002  -13.8513 C   0  0  0  0  0  0  0  0  0  0  0  0
   23.0952  -19.3934  -15.1326 C   0  0  0  0  0  0  0  0  0  0  0  0
   21.8551  -19.9929  -15.3670 C   0  0  0  0  0  0  0  0  0  0  0  0
   21.7801  -20.3218  -16.6616 N   0  0  0  0  0  0  0  0  0  0  0  0
   22.9046  -19.9725  -17.3029 C   0  0  0  0  0  0  0  0  0  0  0  0
   23.3227  -20.0727  -18.6181 C   0  0  0  0  0  0  0  0  0  0  0  0
   24.5608  -19.5854  -18.9483 C   0  0  0  0  0  0  0  0  0  0  0  0
   25.3990  -19.0036  -18.0270 C   0  0  0  0  0  0  0  0  0  0  0  0
   24.9819  -18.9065  -16.7240 C   0  0  0  0  0  0  0  0  0  0  0  0
   23.7449  -19.3854  -16.3538 C   0  0  0  0  0  0  0  0  0  0  0  0
   22.0847  -20.3931  -12.5364 C   0  0  0  0  0  0  0  0  0  0  0  0
   21.9412  -21.6580  -12.6496 O   0  0  0  0  0  0  0  0  0  0  0  0
   20.9258  -19.6833  -12.2925 O   0  0  0  0  0  0  0  0  0  0  0  0
  1  2  1  0
  3  2  1  0
  4  3  1  0
  5  4  1  0
  5  6  1  1
  7  5  1  0
  8  7  2  0
  9  7  1  0
 10 21  1  0
 10  9  1  0
 10 11  1  1
 12 13  2  0
 12 11  1  0
 14 13  1  0
 15 20  2  0
 15 14  1  0
 16 15  1  0
 17 18  1  0
 17 16  2  0
 18 19  2  0
 19 20  1  0
 20 12  1  0
 21 22  2  0
 23 24  1  0
 23 21  1  0
 24 25  1  6
 25 26  1  0
 26 27  2  0
 27 28  1  0
 29 30  2  0
 29 28  1  0
 31 30  1  0
 32 31  2  0
 33 32  1  0
 33 34  2  0
 34 26  1  0
 34 29  1  0
 35 37  1  0
 35 24  1  0
 36 35  2  0
M  END
$$$$
