MWW.pdb
     RDKit          3D

 37 40  0  0  1  0  0  0  0  0999 V2000
   28.1396  -17.0641  -14.4098 C   0  0  0  0  0  0  0  0  0  0  0  0
   29.3665  -18.1492  -15.1872 S   0  0  0  0  0  0  0  0  0  0  0  0
   28.6584  -18.9188  -16.6761 C   0  0  0  0  0  0  0  0  0  0  0  0
   27.3853  -19.6577  -16.2900 C   0  0  0  0  0  0  0  0  0  0  0  0
   27.7925  -20.8510  -15.4684 C   0  0  2  0  0  0  0  0  0  0  0  0
   28.6834  -21.7228  -16.1665 N   0  0  0  0  0  0  0  0  0  0  0  0
   26.6048  -21.5749  -14.9190 C   0  0  0  0  0  0  0  0  0  0  0  0
   25.7627  -22.1103  -15.6714 O   0  0  0  0  0  0  0  0  0  0  0  0
   26.3724  -21.6918  -13.5224 N   0  0  0  0  0  0  0  0  0  0  0  0
   25.1343  -22.2234  -12.9552 C   0  0  1  0  0  0  0  0  0  0  0  0
   25.5228  -22.7147  -11.5766 C   0  0  0  0  0  0  0  0  0  0  0  0
   25.9454  -21.5774  -10.7202 C   0  0  0  0  0  0  0  0  0  0  0  0
   25.1208  -20.6579  -10.1101 C   0  0  0  0  0  0  0  0  0  0  0  0
   25.8644  -19.7738   -9.4185 N   0  0  0  0  0  0  0  0  0  0  0  0
   27.1759  -20.0961   -9.5626 C   0  0  0  0  0  0  0  0  0  0  0  0
   28.3261  -19.5213   -9.0671 C   0  0  0  0  0  0  0  0  0  0  0  0
   29.5415  -20.0643   -9.3773 C   0  0  0  0  0  0  0  0  0  0  0  0
   29.6086  -21.1833  -10.1838 C   0  0  0  0  0  0  0  0  0  0  0  0
   28.4699  -21.7715  -10.6882 C   0  0  0  0  0  0  0  0  0  0  0  0
   27.2419  -21.2119  -10.3667 C   0  0  0  0  0  0  0  0  0  0  0  0
   24.0190  -21.3077  -12.9900 C   0  0  0  0  0  0  0  0  0  0  0  0
   23.9953  -20.2784  -12.2665 O   0  0  0  0  0  0  0  0  0  0  0  0
   22.9197  -21.5463  -13.8428 N   0  0  0  0  0  0  0  0  0  0  0  0
   21.8237  -20.5577  -13.9064 C   0  0  1  0  0  0  0  0  0  0  0  0
   22.1049  -19.7222  -15.1246 C   0  0  0  0  0  0  0  0  0  0  0  0
   21.0041  -18.8596  -15.5842 C   0  0  0  0  0  0  0  0  0  0  0  0
   20.5716  -17.6566  -15.0206 C   0  0  0  0  0  0  0  0  0  0  0  0
   19.5247  -17.2101  -15.7238 N   0  0  0  0  0  0  0  0  0  0  0  0
   19.2369  -18.0516  -16.7271 C   0  0  0  0  0  0  0  0  0  0  0  0
   18.2839  -18.0489  -17.7303 C   0  0  0  0  0  0  0  0  0  0  0  0
   18.2797  -19.0841  -18.6292 C   0  0  0  0  0  0  0  0  0  0  0  0
   19.1818  -20.1197  -18.5724 C   0  0  0  0  0  0  0  0  0  0  0  0
   20.1248  -20.1198  -17.5763 C   0  0  0  0  0  0  0  0  0  0  0  0
   20.1601  -19.0975  -16.6542 C   0  0  0  0  0  0  0  0  0  0  0  0
   20.5223  -21.1918  -13.8324 C   0  0  0  0  0  0  0  0  0  0  0  0
   20.3734  -22.4151  -14.1710 O   0  0  0  0  0  0  0  0  0  0  0  0
   19.3778  -20.5516  -13.4006 O   0  0  0  0  0  0  0  0  0  0  0  0
  1  2  1  0
  3  2  1  0
  4  3  1  0
  5  4  1  0
  5  6  1  6
  7  5  1  0
  8  7  2  0
  9  7  1  0
 10 21  1  0
 10  9  1  0
 10 11  1  1
 12 13  2  0
 12 11  1  0
 14 13  1  0
 15 20  2  0
 15 14  1  0
 16 15  1  0
 17 18  1  0
 17 16  2  0
 18 19  2  0
 19 20  1  0
 20 12  1  0
 21 22  2  0
 23 24  1  0
 23 21  1  0
 24 25  1  6
 25 26  1  0
 26 27  2  0
 27 28  1  0
 29 30  2  0
 29 28  1  0
 31 30  1  0
 32 31  2  0
 33 32  1  0
 33 34  2  0
 34 26  1  0
 34 29  1  0
 35 37  1  0
 35 24  1  0
 36 35  2  0
M  END
$$$$
