MWW.pdb
     RDKit          3D

 37 40  0  0  1  0  0  0  0  0999 V2000
   32.3222  -26.6211  -16.4874 C   0  0  0  0  0  0  0  0  0  0  0  0
   31.0015  -25.3943  -16.2942 S   0  0  0  0  0  0  0  0  0  0  0  0
   30.7305  -24.5221  -17.8679 C   0  0  0  0  0  0  0  0  0  0  0  0
   29.7892  -23.3512  -17.6257 C   0  0  0  0  0  0  0  0  0  0  0  0
   29.5628  -22.6776  -18.9523 C   0  0  2  0  0  0  0  0  0  0  0  0
   30.7074  -21.9522  -19.4048 N   0  0  0  0  0  0  0  0  0  0  0  0
   28.3262  -21.8366  -18.9411 C   0  0  0  0  0  0  0  0  0  0  0  0
   28.3350  -20.6710  -18.4904 O   0  0  0  0  0  0  0  0  0  0  0  0
   27.0845  -22.3147  -19.4389 N   0  0  0  0  0  0  0  0  0  0  0  0
   25.8204  -21.6014  -19.2648 C   0  0  1  0  0  0  0  0  0  0  0  0
   24.9490  -22.0785  -20.4075 C   0  0  0  0  0  0  0  0  0  0  0  0
   23.6291  -21.3987  -20.3728 C   0  0  0  0  0  0  0  0  0  0  0  0
   23.3788  -20.0756  -20.6637 C   0  0  0  0  0  0  0  0  0  0  0  0
   22.0641  -19.8229  -20.5205 N   0  0  0  0  0  0  0  0  0  0  0  0
   21.4371  -20.9651  -20.1370 C   0  0  0  0  0  0  0  0  0  0  0  0
   20.1161  -21.2432  -19.8606 C   0  0  0  0  0  0  0  0  0  0  0  0
   19.7544  -22.5077  -19.4886 C   0  0  0  0  0  0  0  0  0  0  0  0
   20.7137  -23.4965  -19.3924 C   0  0  0  0  0  0  0  0  0  0  0  0
   22.0388  -23.2374  -19.6647 C   0  0  0  0  0  0  0  0  0  0  0  0
   22.3942  -21.9504  -20.0414 C   0  0  0  0  0  0  0  0  0  0  0  0
   25.2367  -21.7308  -17.9509 C   0  0  0  0  0  0  0  0  0  0  0  0
   25.1987  -22.8405  -17.3587 O   0  0  0  0  0  0  0  0  0  0  0  0
   24.6905  -20.6074  -17.2934 N   0  0  0  0  0  0  0  0  0  0  0  0
   24.1089  -20.7686  -15.9449 C   0  0  1  0  0  0  0  0  0  0  0  0
   25.1374  -20.2208  -14.9945 C   0  0  0  0  0  0  0  0  0  0  0  0
   25.4805  -18.7993  -15.1635 C   0  0  0  0  0  0  0  0  0  0  0  0
   24.6948  -17.6890  -14.8443 C   0  0  0  0  0  0  0  0  0  0  0  0
   25.3652  -16.5822  -15.1840 N   0  0  0  0  0  0  0  0  0  0  0  0
   26.5568  -16.8960  -15.7122 C   0  0  0  0  0  0  0  0  0  0  0  0
   27.6121  -16.1445  -16.1984 C   0  0  0  0  0  0  0  0  0  0  0  0
   28.7224  -16.8019  -16.6619 C   0  0  0  0  0  0  0  0  0  0  0  0
   28.8270  -18.1725  -16.6620 C   0  0  0  0  0  0  0  0  0  0  0  0
   27.7790  -18.9145  -16.1801 C   0  0  0  0  0  0  0  0  0  0  0  0
   26.6464  -18.2901  -15.7068 C   0  0  0  0  0  0  0  0  0  0  0  0
   22.7754  -20.2062  -15.8634 C   0  0  0  0  0  0  0  0  0  0  0  0
   22.0014  -20.5029  -14.8906 O   0  0  0  0  0  0  0  0  0  0  0  0
   22.2515  -19.3306  -16.7935 O   0  0  0  0  0  0  0  0  0  0  0  0
  1  2  1  0
  3  2  1  0
  4  3  1  0
  5  4  1  0
  5  6  1  1
  7  5  1  0
  8  7  2  0
  9  7  1  0
 10 21  1  0
 10  9  1  0
 10 11  1  6
 12 13  2  0
 12 11  1  0
 14 13  1  0
 15 20  2  0
 15 14  1  0
 16 15  1  0
 17 18  1  0
 17 16  2  0
 18 19  2  0
 19 20  1  0
 20 12  1  0
 21 22  2  0
 23 24  1  0
 23 21  1  0
 24 25  1  1
 25 26  1  0
 26 27  2  0
 27 28  1  0
 29 30  2  0
 29 28  1  0
 31 30  1  0
 32 31  2  0
 33 32  1  0
 33 34  2  0
 34 26  1  0
 34 29  1  0
 35 37  1  0
 35 24  1  0
 36 35  2  0
M  END
$$$$
