MWW.pdb
     RDKit          3D

 37 40  0  0  1  0  0  0  0  0999 V2000
   11.6725  -14.5283  -12.5327 C   0  0  0  0  0  0  0  0  0  0  0  0
   11.8266  -12.7260  -12.4112 S   0  0  0  0  0  0  0  0  0  0  0  0
   13.3554  -12.2929  -11.5247 C   0  0  0  0  0  0  0  0  0  0  0  0
   13.4293  -10.7797  -11.3815 C   0  0  0  0  0  0  0  0  0  0  0  0
   14.7297  -10.4584  -10.6955 C   0  0  2  0  0  0  0  0  0  0  0  0
   14.8554  -11.0985   -9.4245 N   0  0  0  0  0  0  0  0  0  0  0  0
   14.9611   -8.9831  -10.6131 C   0  0  0  0  0  0  0  0  0  0  0  0
   14.8270   -8.2457  -11.6131 O   0  0  0  0  0  0  0  0  0  0  0  0
   15.3428   -8.3461   -9.4021 N   0  0  0  0  0  0  0  0  0  0  0  0
   15.5177   -6.9003   -9.2747 C   0  0  1  0  0  0  0  0  0  0  0  0
   15.1105   -6.5877   -7.8503 C   0  0  0  0  0  0  0  0  0  0  0  0
   13.6783   -6.9167   -7.6357 C   0  0  0  0  0  0  0  0  0  0  0  0
   12.9460   -7.8726   -8.3048 C   0  0  0  0  0  0  0  0  0  0  0  0
   11.6823   -7.8803   -7.8401 N   0  0  0  0  0  0  0  0  0  0  0  0
   11.5667   -6.9387   -6.8681 C   0  0  0  0  0  0  0  0  0  0  0  0
   10.5022   -6.5484   -6.0849 C   0  0  0  0  0  0  0  0  0  0  0  0
   10.6692   -5.5521   -5.1642 C   0  0  0  0  0  0  0  0  0  0  0  0
   11.9015   -4.9443   -5.0253 C   0  0  0  0  0  0  0  0  0  0  0  0
   12.9768   -5.3209   -5.7991 C   0  0  0  0  0  0  0  0  0  0  0  0
   12.7957   -6.3332   -6.7302 C   0  0  0  0  0  0  0  0  0  0  0  0
   16.8229   -6.4195   -9.6608 C   0  0  0  0  0  0  0  0  0  0  0  0
   17.7695   -6.3617   -8.8336 O   0  0  0  0  0  0  0  0  0  0  0  0
   17.0711   -5.9994  -10.9854 N   0  0  0  0  0  0  0  0  0  0  0  0
   18.4109   -5.4917  -11.3458 C   0  0  1  0  0  0  0  0  0  0  0  0
   19.0928   -6.6258  -12.0600 C   0  0  0  0  0  0  0  0  0  0  0  0
   20.4580   -6.3581  -12.5413 C   0  0  0  0  0  0  0  0  0  0  0  0
   21.6614   -6.6268  -11.8843 C   0  0  0  0  0  0  0  0  0  0  0  0
   22.6697   -6.2002  -12.6532 N   0  0  0  0  0  0  0  0  0  0  0  0
   22.2020   -5.6619  -13.7886 C   0  0  0  0  0  0  0  0  0  0  0  0
   22.8086   -5.1017  -14.8989 C   0  0  0  0  0  0  0  0  0  0  0  0
   22.0123   -4.6520  -15.9203 C   0  0  0  0  0  0  0  0  0  0  0  0
   20.6407   -4.7360  -15.8838 C   0  0  0  0  0  0  0  0  0  0  0  0
   20.0425   -5.2911  -14.7815 C   0  0  0  0  0  0  0  0  0  0  0  0
   20.8090   -5.7534  -13.7350 C   0  0  0  0  0  0  0  0  0  0  0  0
   18.3356   -4.2257  -12.0477 C   0  0  0  0  0  0  0  0  0  0  0  0
   17.2956   -3.9159  -12.7229 O   0  0  0  0  0  0  0  0  0  0  0  0
   19.3425   -3.2810  -12.0409 O   0  0  0  0  0  0  0  0  0  0  0  0
  1  2  1  0
  3  2  1  0
  4  3  1  0
  5  4  1  0
  5  6  1  1
  7  5  1  0
  8  7  2  0
  9  7  1  0
 10 21  1  0
 10  9  1  0
 10 11  1  1
 12 13  2  0
 12 11  1  0
 14 13  1  0
 15 20  2  0
 15 14  1  0
 16 15  1  0
 17 18  1  0
 17 16  2  0
 18 19  2  0
 19 20  1  0
 20 12  1  0
 21 22  2  0
 23 24  1  0
 23 21  1  0
 24 25  1  6
 25 26  1  0
 26 27  2  0
 27 28  1  0
 29 30  2  0
 29 28  1  0
 31 30  1  0
 32 31  2  0
 33 32  1  0
 33 34  2  0
 34 26  1  0
 34 29  1  0
 35 37  1  0
 35 24  1  0
 36 35  2  0
M  END
$$$$
