MWW.pdb
     RDKit          3D

 37 40  0  0  1  0  0  0  0  0999 V2000
   28.8915  -19.7237  -19.4861 C   0  0  0  0  0  0  0  0  0  0  0  0
   27.8017  -19.9089  -18.0492 S   0  0  0  0  0  0  0  0  0  0  0  0
   27.4877  -21.6729  -17.7326 C   0  0  0  0  0  0  0  0  0  0  0  0
   26.6273  -21.8032  -16.4842 C   0  0  0  0  0  0  0  0  0  0  0  0
   27.5484  -22.1216  -15.3375 C   0  0  2  0  0  0  0  0  0  0  0  0
   28.3026  -23.3159  -15.5515 N   0  0  0  0  0  0  0  0  0  0  0  0
   26.8198  -22.1371  -14.0315 C   0  0  0  0  0  0  0  0  0  0  0  0
   26.0851  -23.0944  -13.7065 O   0  0  0  0  0  0  0  0  0  0  0  0
   26.9237  -21.0720  -13.0972 N   0  0  0  0  0  0  0  0  0  0  0  0
   25.9373  -20.8246  -12.0471 C   0  0  1  0  0  0  0  0  0  0  0  0
   26.6085  -19.8398  -11.1131 C   0  0  0  0  0  0  0  0  0  0  0  0
   27.7024  -20.5029  -10.3585 C   0  0  0  0  0  0  0  0  0  0  0  0
   28.6951  -21.3012  -10.8827 C   0  0  0  0  0  0  0  0  0  0  0  0
   29.5037  -21.7245   -9.8927 N   0  0  0  0  0  0  0  0  0  0  0  0
   29.0583  -21.2155   -8.7148 C   0  0  0  0  0  0  0  0  0  0  0  0
   29.5209  -21.3412   -7.4228 C   0  0  0  0  0  0  0  0  0  0  0  0
   28.8657  -20.7064   -6.4050 C   0  0  0  0  0  0  0  0  0  0  0  0
   27.7465  -19.9447   -6.6777 C   0  0  0  0  0  0  0  0  0  0  0  0
   27.2695  -19.8075   -7.9625 C   0  0  0  0  0  0  0  0  0  0  0  0
   27.9426  -20.4562   -8.9876 C   0  0  0  0  0  0  0  0  0  0  0  0
   24.6368  -20.4256  -12.5301 C   0  0  0  0  0  0  0  0  0  0  0  0
   24.5014  -19.4506  -13.3140 O   0  0  0  0  0  0  0  0  0  0  0  0
   23.4768  -21.1246  -12.1321 N   0  0  0  0  0  0  0  0  0  0  0  0
   22.1632  -20.7143  -12.6692 C   0  0  1  0  0  0  0  0  0  0  0  0
   21.9487  -21.5566  -13.8962 C   0  0  0  0  0  0  0  0  0  0  0  0
   20.7080  -21.3011  -14.6462 C   0  0  0  0  0  0  0  0  0  0  0  0
   20.2017  -20.0667  -15.0610 C   0  0  0  0  0  0  0  0  0  0  0  0
   19.0363  -20.2734  -15.6846 N   0  0  0  0  0  0  0  0  0  0  0  0
   18.7392  -21.5806  -15.7081 C   0  0  0  0  0  0  0  0  0  0  0  0
   17.6853  -22.3097  -16.2299 C   0  0  0  0  0  0  0  0  0  0  0  0
   17.7029  -23.6735  -16.0903 C   0  0  0  0  0  0  0  0  0  0  0  0
   18.7226  -24.3411  -15.4547 C   0  0  0  0  0  0  0  0  0  0  0  0
   19.7655  -23.6154  -14.9380 C   0  0  0  0  0  0  0  0  0  0  0  0
   19.7828  -22.2436  -15.0578 C   0  0  0  0  0  0  0  0  0  0  0  0
   21.1292  -20.7591  -11.6543 C   0  0  0  0  0  0  0  0  0  0  0  0
   21.3018  -21.4251  -10.5773 O   0  0  0  0  0  0  0  0  0  0  0  0
   19.9179  -20.1051  -11.7605 O   0  0  0  0  0  0  0  0  0  0  0  0
  1  2  1  0
  3  2  1  0
  4  3  1  0
  5  4  1  0
  5  6  1  6
  7  5  1  0
  8  7  2  0
  9  7  1  0
 10 21  1  0
 10  9  1  0
 10 11  1  1
 12 13  2  0
 12 11  1  0
 14 13  1  0
 15 20  2  0
 15 14  1  0
 16 15  1  0
 17 18  1  0
 17 16  2  0
 18 19  2  0
 19 20  1  0
 20 12  1  0
 21 22  2  0
 23 24  1  0
 23 21  1  0
 24 25  1  6
 25 26  1  0
 26 27  2  0
 27 28  1  0
 29 30  2  0
 29 28  1  0
 31 30  1  0
 32 31  2  0
 33 32  1  0
 33 34  2  0
 34 26  1  0
 34 29  1  0
 35 37  1  0
 35 24  1  0
 36 35  2  0
M  END
$$$$
