MWW.pdb
     RDKit          3D

 37 40  0  0  1  0  0  0  0  0999 V2000
   22.1688  -22.3514  -17.9875 C   0  0  0  0  0  0  0  0  0  0  0  0
   20.9286  -23.5403  -17.4085 S   0  0  0  0  0  0  0  0  0  0  0  0
   21.6510  -24.6178  -16.1327 C   0  0  0  0  0  0  0  0  0  0  0  0
   20.5311  -25.3851  -15.4450 C   0  0  0  0  0  0  0  0  0  0  0  0
   21.1628  -26.2364  -14.3767 C   0  0  2  0  0  0  0  0  0  0  0  0
   21.9614  -27.2923  -14.9137 N   0  0  0  0  0  0  0  0  0  0  0  0
   20.1495  -26.7340  -13.3958 C   0  0  0  0  0  0  0  0  0  0  0  0
   19.3593  -27.6573  -13.6870 O   0  0  0  0  0  0  0  0  0  0  0  0
   20.0324  -26.1875  -12.0897 N   0  0  0  0  0  0  0  0  0  0  0  0
   18.9844  -26.5751  -11.1471 C   0  0  1  0  0  0  0  0  0  0  0  0
   19.7239  -26.9293   -9.8741 C   0  0  0  0  0  0  0  0  0  0  0  0
   20.3758  -28.2572  -10.0049 C   0  0  0  0  0  0  0  0  0  0  0  0
   21.4764  -28.5594  -10.7763 C   0  0  0  0  0  0  0  0  0  0  0  0
   21.7763  -29.8653  -10.6428 N   0  0  0  0  0  0  0  0  0  0  0  0
   20.8858  -30.4348   -9.7899 C   0  0  0  0  0  0  0  0  0  0  0  0
   20.7520  -31.7244   -9.3230 C   0  0  0  0  0  0  0  0  0  0  0  0
   19.7429  -32.0273   -8.4523 C   0  0  0  0  0  0  0  0  0  0  0  0
   18.8657  -31.0407   -8.0470 C   0  0  0  0  0  0  0  0  0  0  0  0
   18.9837  -29.7464   -8.5029 C   0  0  0  0  0  0  0  0  0  0  0  0
   20.0117  -29.4505   -9.3862 C   0  0  0  0  0  0  0  0  0  0  0  0
   17.9280  -25.6032  -10.9945 C   0  0  0  0  0  0  0  0  0  0  0  0
   18.1803  -24.4004  -10.7238 O   0  0  0  0  0  0  0  0  0  0  0  0
   16.5765  -25.9810  -11.1463 N   0  0  0  0  0  0  0  0  0  0  0  0
   15.5258  -24.9428  -11.1156 C   0  0  1  0  0  0  0  0  0  0  0  0
   14.4919  -25.3864  -12.1133 C   0  0  0  0  0  0  0  0  0  0  0  0
   13.4961  -26.3541  -11.6244 C   0  0  0  0  0  0  0  0  0  0  0  0
   12.5841  -26.1844  -10.5797 C   0  0  0  0  0  0  0  0  0  0  0  0
   11.8833  -27.3153  -10.4395 N   0  0  0  0  0  0  0  0  0  0  0  0
   12.2793  -28.2299  -11.3363 C   0  0  0  0  0  0  0  0  0  0  0  0
   11.8790  -29.5239  -11.6191 C   0  0  0  0  0  0  0  0  0  0  0  0
   12.4999  -30.1897  -12.6442 C   0  0  0  0  0  0  0  0  0  0  0  0
   13.5003  -29.6238  -13.3982 C   0  0  0  0  0  0  0  0  0  0  0  0
   13.8953  -28.3413  -13.1148 C   0  0  0  0  0  0  0  0  0  0  0  0
   13.2958  -27.6406  -12.0920 C   0  0  0  0  0  0  0  0  0  0  0  0
   15.0653  -24.6832   -9.7658 C   0  0  0  0  0  0  0  0  0  0  0  0
   14.4578  -23.5950   -9.4827 O   0  0  0  0  0  0  0  0  0  0  0  0
   15.2340  -25.5605   -8.7132 O   0  0  0  0  0  0  0  0  0  0  0  0
  1  2  1  0
  3  2  1  0
  4  3  1  0
  5  4  1  0
  5  6  1  6
  7  5  1  0
  8  7  2  0
  9  7  1  0
 10 21  1  0
 10  9  1  0
 10 11  1  1
 12 13  2  0
 12 11  1  0
 14 13  1  0
 15 20  2  0
 15 14  1  0
 16 15  1  0
 17 18  1  0
 17 16  2  0
 18 19  2  0
 19 20  1  0
 20 12  1  0
 21 22  2  0
 23 24  1  0
 23 21  1  0
 24 25  1  6
 25 26  1  0
 26 27  2  0
 27 28  1  0
 29 30  2  0
 29 28  1  0
 31 30  1  0
 32 31  2  0
 33 32  1  0
 33 34  2  0
 34 26  1  0
 34 29  1  0
 35 37  1  0
 35 24  1  0
 36 35  2  0
M  END
$$$$
