MWW.pdb
     RDKit          3D

 37 40  0  0  1  0  0  0  0  0999 V2000
   31.6998  -22.4359  -21.2658 C   0  0  0  0  0  0  0  0  0  0  0  0
   30.4758  -21.3441  -20.4934 S   0  0  0  0  0  0  0  0  0  0  0  0
   30.1601  -21.8787  -18.7830 C   0  0  0  0  0  0  0  0  0  0  0  0
   29.1442  -20.9371  -18.1528 C   0  0  0  0  0  0  0  0  0  0  0  0
   27.8831  -21.7265  -17.9265 C   0  0  2  0  0  0  0  0  0  0  0  0
   27.2346  -22.0911  -19.1461 N   0  0  0  0  0  0  0  0  0  0  0  0
   26.9589  -21.0314  -16.9782 C   0  0  0  0  0  0  0  0  0  0  0  0
   27.3323  -20.0425  -16.3115 O   0  0  0  0  0  0  0  0  0  0  0  0
   25.6166  -21.4551  -16.7865 N   0  0  0  0  0  0  0  0  0  0  0  0
   24.6733  -20.7649  -15.9083 C   0  0  1  0  0  0  0  0  0  0  0  0
   23.5739  -20.2804  -16.8298 C   0  0  0  0  0  0  0  0  0  0  0  0
   23.9159  -18.9483  -17.3904 C   0  0  0  0  0  0  0  0  0  0  0  0
   24.6446  -18.7005  -18.5328 C   0  0  0  0  0  0  0  0  0  0  0  0
   24.7513  -17.3715  -18.7208 N   0  0  0  0  0  0  0  0  0  0  0  0
   24.1004  -16.7326  -17.7143 C   0  0  0  0  0  0  0  0  0  0  0  0
   23.9117  -15.3951  -17.4415 C   0  0  0  0  0  0  0  0  0  0  0  0
   23.1995  -15.0241  -16.3355 C   0  0  0  0  0  0  0  0  0  0  0  0
   22.6747  -15.9906  -15.5001 C   0  0  0  0  0  0  0  0  0  0  0  0
   22.8530  -17.3321  -15.7565 C   0  0  0  0  0  0  0  0  0  0  0  0
   23.5775  -17.6968  -16.8820 C   0  0  0  0  0  0  0  0  0  0  0  0
   24.2289  -21.5444  -14.7775 C   0  0  0  0  0  0  0  0  0  0  0  0
   23.8957  -22.7511  -14.9056 O   0  0  0  0  0  0  0  0  0  0  0  0
   24.1569  -20.9678  -13.4911 N   0  0  0  0  0  0  0  0  0  0  0  0
   23.6135  -21.7621  -12.3701 C   0  0  1  0  0  0  0  0  0  0  0  0
   24.8079  -22.1879  -11.5620 C   0  0  0  0  0  0  0  0  0  0  0  0
   25.5683  -21.1064  -10.9144 C   0  0  0  0  0  0  0  0  0  0  0  0
   25.1585  -20.2921   -9.8556 C   0  0  0  0  0  0  0  0  0  0  0  0
   26.1345  -19.4164   -9.5907 N   0  0  0  0  0  0  0  0  0  0  0  0
   27.1739  -19.6043  -10.4166 C   0  0  0  0  0  0  0  0  0  0  0  0
   28.4081  -18.9933  -10.5505 C   0  0  0  0  0  0  0  0  0  0  0  0
   29.2651  -19.4579  -11.5145 C   0  0  0  0  0  0  0  0  0  0  0  0
   28.9468  -20.5027  -12.3492 C   0  0  0  0  0  0  0  0  0  0  0  0
   27.7223  -21.1057  -12.2144 C   0  0  0  0  0  0  0  0  0  0  0  0
   26.8340  -20.6665  -11.2580 C   0  0  0  0  0  0  0  0  0  0  0  0
   22.5649  -21.0512  -11.6657 C   0  0  0  0  0  0  0  0  0  0  0  0
   22.3734  -19.8040  -11.8685 O   0  0  0  0  0  0  0  0  0  0  0  0
   21.7131  -21.6422  -10.7539 O   0  0  0  0  0  0  0  0  0  0  0  0
  1  2  1  0
  3  2  1  0
  4  3  1  0
  5  4  1  0
  5  6  1  6
  7  5  1  0
  8  7  2  0
  9  7  1  0
 10 21  1  0
 10  9  1  0
 10 11  1  6
 12 13  2  0
 12 11  1  0
 14 13  1  0
 15 20  2  0
 15 14  1  0
 16 15  1  0
 17 18  1  0
 17 16  2  0
 18 19  2  0
 19 20  1  0
 20 12  1  0
 21 22  2  0
 23 24  1  0
 23 21  1  0
 24 25  1  1
 25 26  1  0
 26 27  2  0
 27 28  1  0
 29 30  2  0
 29 28  1  0
 31 30  1  0
 32 31  2  0
 33 32  1  0
 33 34  2  0
 34 26  1  0
 34 29  1  0
 35 37  1  0
 35 24  1  0
 36 35  2  0
M  END
$$$$
