MWW.pdb
     RDKit          3D

 37 40  0  0  1  0  0  0  0  0999 V2000
   26.0483  -16.9062  -16.2413 C   0  0  0  0  0  0  0  0  0  0  0  0
   27.8199  -16.7789  -15.8782 S   0  0  0  0  0  0  0  0  0  0  0  0
   28.4283  -18.3539  -15.2000 C   0  0  0  0  0  0  0  0  0  0  0  0
   27.2694  -19.0847  -14.5376 C   0  0  0  0  0  0  0  0  0  0  0  0
   27.8534  -20.2211  -13.7424 C   0  0  2  0  0  0  0  0  0  0  0  0
   28.6011  -21.1320  -14.5500 N   0  0  0  0  0  0  0  0  0  0  0  0
   26.8123  -20.9134  -12.9217 C   0  0  0  0  0  0  0  0  0  0  0  0
   26.1640  -21.8816  -13.3735 O   0  0  0  0  0  0  0  0  0  0  0  0
   26.5074  -20.5103  -11.5941 N   0  0  0  0  0  0  0  0  0  0  0  0
   25.3072  -20.9405  -10.8788 C   0  0  1  0  0  0  0  0  0  0  0  0
   25.5750  -20.5875   -9.4310 C   0  0  0  0  0  0  0  0  0  0  0  0
   26.9768  -20.9166   -9.0671 C   0  0  0  0  0  0  0  0  0  0  0  0
   27.8597  -21.6759   -9.8030 C   0  0  0  0  0  0  0  0  0  0  0  0
   29.0357  -21.7578   -9.1525 N   0  0  0  0  0  0  0  0  0  0  0  0
   28.9438  -21.0602   -7.9907 C   0  0  0  0  0  0  0  0  0  0  0  0
   29.8505  -20.8320   -6.9785 C   0  0  0  0  0  0  0  0  0  0  0  0
   29.4845  -20.0761   -5.9001 C   0  0  0  0  0  0  0  0  0  0  0  0
   28.2106  -19.5471   -5.8324 C   0  0  0  0  0  0  0  0  0  0  0  0
   27.2909  -19.7644   -6.8343 C   0  0  0  0  0  0  0  0  0  0  0  0
   27.6735  -20.5331   -7.9240 C   0  0  0  0  0  0  0  0  0  0  0  0
   24.0720  -20.4249  -11.4192 C   0  0  0  0  0  0  0  0  0  0  0  0
   23.8829  -19.1880  -11.5534 O   0  0  0  0  0  0  0  0  0  0  0  0
   23.0385  -21.3019  -11.8133 N   0  0  0  0  0  0  0  0  0  0  0  0
   21.9185  -20.7838  -12.6255 C   0  0  1  0  0  0  0  0  0  0  0  0
   22.5367  -20.3219  -13.9161 C   0  0  0  0  0  0  0  0  0  0  0  0
   21.6098  -19.7566  -14.9102 C   0  0  0  0  0  0  0  0  0  0  0  0
   20.8243  -18.6078  -14.7866 C   0  0  0  0  0  0  0  0  0  0  0  0
   20.1024  -18.4645  -15.9038 N   0  0  0  0  0  0  0  0  0  0  0  0
   20.3657  -19.4567  -16.7662 C   0  0  0  0  0  0  0  0  0  0  0  0
   19.9116  -19.7611  -18.0373 C   0  0  0  0  0  0  0  0  0  0  0  0
   20.4156  -20.8728  -18.6615 C   0  0  0  0  0  0  0  0  0  0  0  0
   21.3504  -21.6929  -18.0757 C   0  0  0  0  0  0  0  0  0  0  0  0
   21.7979  -21.3889  -16.8154 C   0  0  0  0  0  0  0  0  0  0  0  0
   21.3145  -20.2808  -16.1559 C   0  0  0  0  0  0  0  0  0  0  0  0
   20.8361  -21.7430  -12.7235 C   0  0  0  0  0  0  0  0  0  0  0  0
   21.0734  -22.9985  -12.6931 O   0  0  0  0  0  0  0  0  0  0  0  0
   19.5064  -21.3927  -12.8477 O   0  0  0  0  0  0  0  0  0  0  0  0
  1  2  1  0
  3  2  1  0
  4  3  1  0
  5  4  1  0
  5  6  1  6
  7  5  1  0
  8  7  2  0
  9  7  1  0
 10 21  1  0
 10  9  1  0
 10 11  1  1
 12 13  2  0
 12 11  1  0
 14 13  1  0
 15 20  2  0
 15 14  1  0
 16 15  1  0
 17 18  1  0
 17 16  2  0
 18 19  2  0
 19 20  1  0
 20 12  1  0
 21 22  2  0
 23 24  1  0
 23 21  1  0
 24 25  1  6
 25 26  1  0
 26 27  2  0
 27 28  1  0
 29 30  2  0
 29 28  1  0
 31 30  1  0
 32 31  2  0
 33 32  1  0
 33 34  2  0
 34 26  1  0
 34 29  1  0
 35 37  1  0
 35 24  1  0
 36 35  2  0
M  END
$$$$
