MWW.pdb
     RDKit          3D

 37 40  0  0  1  0  0  0  0  0999 V2000
   30.3087  -16.6276  -16.7603 C   0  0  0  0  0  0  0  0  0  0  0  0
   29.0742  -17.5345  -15.7904 S   0  0  0  0  0  0  0  0  0  0  0  0
   28.2162  -18.7392  -16.8502 C   0  0  0  0  0  0  0  0  0  0  0  0
   27.1745  -19.4726  -16.0178 C   0  0  0  0  0  0  0  0  0  0  0  0
   27.9032  -20.4978  -15.1916 C   0  0  2  0  0  0  0  0  0  0  0  0
   28.6628  -21.4088  -15.9879 N   0  0  0  0  0  0  0  0  0  0  0  0
   26.9823  -21.2019  -14.2467 C   0  0  0  0  0  0  0  0  0  0  0  0
   26.0691  -21.9477  -14.6611 O   0  0  0  0  0  0  0  0  0  0  0  0
   27.0961  -21.0616  -12.8376 N   0  0  0  0  0  0  0  0  0  0  0  0
   26.1615  -21.6684  -11.8913 C   0  0  1  0  0  0  0  0  0  0  0  0
   27.0179  -22.0701  -10.7090 C   0  0  0  0  0  0  0  0  0  0  0  0
   26.9472  -21.0389   -9.6425 C   0  0  0  0  0  0  0  0  0  0  0  0
   25.9483  -20.1067   -9.4665 C   0  0  0  0  0  0  0  0  0  0  0  0
   26.2302  -19.3399   -8.3962 N   0  0  0  0  0  0  0  0  0  0  0  0
   27.4070  -19.7529   -7.8585 C   0  0  0  0  0  0  0  0  0  0  0  0
   28.1292  -19.3105   -6.7714 C   0  0  0  0  0  0  0  0  0  0  0  0
   29.3078  -19.9224   -6.4479 C   0  0  0  0  0  0  0  0  0  0  0  0
   29.7663  -20.9780   -7.2114 C   0  0  0  0  0  0  0  0  0  0  0  0
   29.0582  -21.4338   -8.3013 C   0  0  0  0  0  0  0  0  0  0  0  0
   27.8633  -20.8052   -8.6201 C   0  0  0  0  0  0  0  0  0  0  0  0
   25.0174  -20.8483  -11.5715 C   0  0  0  0  0  0  0  0  0  0  0  0
   25.1547  -19.6768  -11.1330 O   0  0  0  0  0  0  0  0  0  0  0  0
   23.7071  -21.3441  -11.7442 N   0  0  0  0  0  0  0  0  0  0  0  0
   22.6912  -20.4947  -12.3992 C   0  0  1  0  0  0  0  0  0  0  0  0
   23.3265  -20.0191  -13.6764 C   0  0  0  0  0  0  0  0  0  0  0  0
   22.4653  -19.2278  -14.5704 C   0  0  0  0  0  0  0  0  0  0  0  0
   21.3457  -18.4678  -14.2227 C   0  0  0  0  0  0  0  0  0  0  0  0
   20.8322  -17.9336  -15.3366 N   0  0  0  0  0  0  0  0  0  0  0  0
   21.5508  -18.2967  -16.4086 C   0  0  0  0  0  0  0  0  0  0  0  0
   21.4573  -18.0138  -17.7598 C   0  0  0  0  0  0  0  0  0  0  0  0
   22.3944  -18.5492  -18.6051 C   0  0  0  0  0  0  0  0  0  0  0  0
   23.4187  -19.3528  -18.1638 C   0  0  0  0  0  0  0  0  0  0  0  0
   23.5083  -19.6320  -16.8240 C   0  0  0  0  0  0  0  0  0  0  0  0
   22.5849  -19.1130  -15.9438 C   0  0  0  0  0  0  0  0  0  0  0  0
   21.4156  -21.1737  -12.5146 C   0  0  0  0  0  0  0  0  0  0  0  0
   21.3632  -22.4162  -12.8094 O   0  0  0  0  0  0  0  0  0  0  0  0
   20.1957  -20.5580  -12.3176 O   0  0  0  0  0  0  0  0  0  0  0  0
  1  2  1  0
  3  2  1  0
  4  3  1  0
  5  4  1  0
  5  6  1  6
  7  5  1  0
  8  7  2  0
  9  7  1  0
 10 21  1  0
 10  9  1  0
 10 11  1  1
 12 13  2  0
 12 11  1  0
 14 13  1  0
 15 20  2  0
 15 14  1  0
 16 15  1  0
 17 18  1  0
 17 16  2  0
 18 19  2  0
 19 20  1  0
 20 12  1  0
 21 22  2  0
 23 24  1  0
 23 21  1  0
 24 25  1  6
 25 26  1  0
 26 27  2  0
 27 28  1  0
 29 30  2  0
 29 28  1  0
 31 30  1  0
 32 31  2  0
 33 32  1  0
 33 34  2  0
 34 26  1  0
 34 29  1  0
 35 37  1  0
 35 24  1  0
 36 35  2  0
M  END
$$$$
