MWW.pdb
     RDKit          3D

 37 40  0  0  1  0  0  0  0  0999 V2000
   29.5944  -18.2942  -18.6286 C   0  0  0  0  0  0  0  0  0  0  0  0
   28.5210  -19.4328  -17.7130 S   0  0  0  0  0  0  0  0  0  0  0  0
   29.3805  -20.0349  -16.2266 C   0  0  0  0  0  0  0  0  0  0  0  0
   28.4129  -20.8740  -15.4047 C   0  0  0  0  0  0  0  0  0  0  0  0
   28.0422  -20.0674  -14.1895 C   0  0  2  0  0  0  0  0  0  0  0  0
   29.1745  -19.7264  -13.3878 N   0  0  0  0  0  0  0  0  0  0  0  0
   26.9630  -20.7304  -13.3944 C   0  0  0  0  0  0  0  0  0  0  0  0
   26.3594  -21.7358  -13.8264 O   0  0  0  0  0  0  0  0  0  0  0  0
   26.5696  -20.2561  -12.1143 N   0  0  0  0  0  0  0  0  0  0  0  0
   25.4529  -20.8186  -11.3569 C   0  0  1  0  0  0  0  0  0  0  0  0
   25.6865  -20.3630   -9.9319 C   0  0  0  0  0  0  0  0  0  0  0  0
   27.0529  -20.7358   -9.4851 C   0  0  0  0  0  0  0  0  0  0  0  0
   27.9525  -21.5262  -10.1660 C   0  0  0  0  0  0  0  0  0  0  0  0
   29.0847  -21.6436   -9.4467 N   0  0  0  0  0  0  0  0  0  0  0  0
   28.9470  -20.9389   -8.2939 C   0  0  0  0  0  0  0  0  0  0  0  0
   29.7993  -20.7361   -7.2302 C   0  0  0  0  0  0  0  0  0  0  0  0
   29.3950  -19.9646   -6.1769 C   0  0  0  0  0  0  0  0  0  0  0  0
   28.1373  -19.3944   -6.1857 C   0  0  0  0  0  0  0  0  0  0  0  0
   27.2718  -19.5858   -7.2399 C   0  0  0  0  0  0  0  0  0  0  0  0
   27.6929  -20.3707   -8.3035 C   0  0  0  0  0  0  0  0  0  0  0  0
   24.1496  -20.5102  -11.8953 C   0  0  0  0  0  0  0  0  0  0  0  0
   23.6887  -19.3396  -11.8623 O   0  0  0  0  0  0  0  0  0  0  0  0
   23.3543  -21.5215  -12.4763 N   0  0  0  0  0  0  0  0  0  0  0  0
   22.0334  -21.1718  -13.0380 C   0  0  1  0  0  0  0  0  0  0  0  0
   21.8106  -22.1337  -14.1721 C   0  0  0  0  0  0  0  0  0  0  0  0
   20.5502  -21.9743  -14.9158 C   0  0  0  0  0  0  0  0  0  0  0  0
   20.1453  -20.8784  -15.6820 C   0  0  0  0  0  0  0  0  0  0  0  0
   18.9210  -21.1244  -16.1618 N   0  0  0  0  0  0  0  0  0  0  0  0
   18.4884  -22.3270  -15.7566 C   0  0  0  0  0  0  0  0  0  0  0  0
   17.3279  -23.0473  -15.9779 C   0  0  0  0  0  0  0  0  0  0  0  0
   17.2139  -24.2910  -15.4124 C   0  0  0  0  0  0  0  0  0  0  0  0
   18.2036  -24.8471  -14.6373 C   0  0  0  0  0  0  0  0  0  0  0  0
   19.3524  -24.1303  -14.4192 C   0  0  0  0  0  0  0  0  0  0  0  0
   19.5034  -22.8771  -14.9699 C   0  0  0  0  0  0  0  0  0  0  0  0
   21.0099  -21.1185  -12.0129 C   0  0  0  0  0  0  0  0  0  0  0  0
   21.0233  -21.9418  -11.0354 O   0  0  0  0  0  0  0  0  0  0  0  0
   19.9760  -20.2035  -12.0046 O   0  0  0  0  0  0  0  0  0  0  0  0
  1  2  1  0
  3  2  1  0
  4  3  1  0
  5  4  1  0
  5  6  1  1
  7  5  1  0
  8  7  2  0
  9  7  1  0
 10 21  1  0
 10  9  1  0
 10 11  1  1
 12 13  2  0
 12 11  1  0
 14 13  1  0
 15 20  2  0
 15 14  1  0
 16 15  1  0
 17 18  1  0
 17 16  2  0
 18 19  2  0
 19 20  1  0
 20 12  1  0
 21 22  2  0
 23 24  1  0
 23 21  1  0
 24 25  1  6
 25 26  1  0
 26 27  2  0
 27 28  1  0
 29 30  2  0
 29 28  1  0
 31 30  1  0
 32 31  2  0
 33 32  1  0
 33 34  2  0
 34 26  1  0
 34 29  1  0
 35 37  1  0
 35 24  1  0
 36 35  2  0
M  END
$$$$
