QWK.pdb
     RDKit          3D

 33 34  0  0  1  0  0  0  0  0999 V2000
   25.7562  -21.7206  -19.2170 N   0  0  0  0  0  0  0  0  0  0  0  0
   26.3386  -23.0190  -19.0182 C   0  0  0  0  0  0  0  0  0  0  0  0
   26.7656  -23.6506  -19.9942 O   0  0  0  0  0  0  0  0  0  0  0  0
   26.3978  -23.5450  -17.6560 C   0  0  0  0  0  0  0  0  0  0  0  0
   25.7997  -22.6186  -16.6619 C   0  0  0  0  0  0  0  0  0  0  0  0
   26.7021  -22.2123  -15.5476 C   0  0  2  0  0  0  0  0  0  0  0  0
   27.8063  -23.0981  -15.2954 N   0  0  0  0  0  0  0  0  0  0  0  0
   25.9224  -22.1096  -14.2654 C   0  0  0  0  0  0  0  0  0  0  0  0
   25.1513  -23.0335  -13.9149 O   0  0  0  0  0  0  0  0  0  0  0  0
   26.0499  -20.9653  -13.4356 N   0  0  0  0  0  0  0  0  0  0  0  0
   25.2584  -20.7348  -12.2557 C   0  0  1  0  0  0  0  0  0  0  0  0
   25.8985  -19.8580  -11.2336 C   0  0  0  0  0  0  0  0  0  0  0  0
   27.1303  -20.3859  -10.6189 C   0  0  0  0  0  0  0  0  0  0  0  0
   28.1472  -21.0837  -11.2575 C   0  0  0  0  0  0  0  0  0  0  0  0
   29.0855  -21.4115  -10.3621 N   0  0  0  0  0  0  0  0  0  0  0  0
   28.7209  -20.9500   -9.1444 C   0  0  0  0  0  0  0  0  0  0  0  0
   29.3067  -20.9988   -7.8965 C   0  0  0  0  0  0  0  0  0  0  0  0
   28.6969  -20.4192   -6.8055 C   0  0  0  0  0  0  0  0  0  0  0  0
   27.4955  -19.7796   -6.9273 C   0  0  0  0  0  0  0  0  0  0  0  0
   26.9174  -19.7371   -8.1827 C   0  0  0  0  0  0  0  0  0  0  0  0
   27.5082  -20.3120   -9.2967 C   0  0  0  0  0  0  0  0  0  0  0  0
   23.8869  -20.3153  -12.6455 C   0  0  0  0  0  0  0  0  0  0  0  0
   23.7266  -19.3886  -13.4946 O   0  0  0  0  0  0  0  0  0  0  0  0
   22.7029  -20.8936  -12.1231 N   0  0  0  0  0  0  0  0  0  0  0  0
   21.4100  -20.5163  -12.6302 C   0  0  1  0  0  0  0  0  0  0  0  0
   21.2740  -21.1120  -14.0343 C   0  0  0  0  0  0  0  0  0  0  0  0
   21.0409  -20.0104  -15.0124 C   0  0  0  0  0  0  0  0  0  0  0  0
   20.8312  -20.4228  -16.4198 C   0  0  0  0  0  0  0  0  0  0  0  0
   20.6420  -19.3055  -17.3831 C   0  0  0  0  0  0  0  0  0  0  0  0
   20.5383  -19.7365  -18.7535 N   0  0  0  0  0  0  0  0  0  0  0  0
   20.3711  -21.0644  -11.7265 C   0  0  0  0  0  0  0  0  0  0  0  0
   19.1476  -20.8073  -11.9125 O   0  0  0  0  0  0  0  0  0  0  0  0
   20.6882  -21.8754  -10.6479 O   0  0  0  0  0  0  0  0  0  0  0  0
  2  3  2  0
  2  1  1  0
  4  2  1  0
  5  4  1  0
  5  6  1  0
  6  7  1  1
  8  9  2  0
  8  6  1  0
 10  8  1  0
 11 12  1  1
 11 10  1  0
 13 12  1  0
 13 14  2  0
 15 14  1  0
 16 15  1  0
 17 16  2  0
 18 17  1  0
 19 18  2  0
 19 20  1  0
 20 21  2  0
 21 16  1  0
 21 13  1  0
 22 11  1  0
 23 22  2  0
 24 22  1  0
 25 24  1  0
 25 26  1  6
 27 26  1  0
 28 29  1  0
 28 27  1  0
 30 29  1  0
 31 25  1  0
 31 33  1  0
 32 31  2  0
M  END
$$$$
