QWK.pdb
     RDKit          3D

 33 34  0  0  1  0  0  0  0  0999 V2000
   19.0920  -29.2083  -13.2634 N   0  0  0  0  0  0  0  0  0  0  0  0
   20.1665  -29.5490  -14.1543 C   0  0  0  0  0  0  0  0  0  0  0  0
   20.0170  -30.4761  -14.9619 O   0  0  0  0  0  0  0  0  0  0  0  0
   21.4055  -28.7794  -14.0637 C   0  0  0  0  0  0  0  0  0  0  0  0
   21.3185  -27.6755  -13.0747 C   0  0  0  0  0  0  0  0  0  0  0  0
   20.7023  -26.4161  -13.5796 C   0  0  2  0  0  0  0  0  0  0  0  0
   21.4846  -25.6915  -14.5443 N   0  0  0  0  0  0  0  0  0  0  0  0
   20.4403  -25.4762  -12.4348 C   0  0  0  0  0  0  0  0  0  0  0  0
   21.3914  -24.9068  -11.8497 O   0  0  0  0  0  0  0  0  0  0  0  0
   19.1127  -25.2219  -12.0023 N   0  0  0  0  0  0  0  0  0  0  0  0
   18.7731  -24.3116  -10.9403 C   0  0  1  0  0  0  0  0  0  0  0  0
   18.1399  -23.0374  -11.3862 C   0  0  0  0  0  0  0  0  0  0  0  0
   19.0706  -21.9508  -11.7423 C   0  0  0  0  0  0  0  0  0  0  0  0
   19.5472  -21.6440  -13.0101 C   0  0  0  0  0  0  0  0  0  0  0  0
   20.3855  -20.6049  -12.9255 N   0  0  0  0  0  0  0  0  0  0  0  0
   20.4793  -20.2111  -11.6353 C   0  0  0  0  0  0  0  0  0  0  0  0
   21.1796  -19.2082  -10.9976 C   0  0  0  0  0  0  0  0  0  0  0  0
   21.0747  -19.0279   -9.6357 C   0  0  0  0  0  0  0  0  0  0  0  0
   20.2749  -19.8359   -8.8776 C   0  0  0  0  0  0  0  0  0  0  0  0
   19.5780  -20.8381   -9.5274 C   0  0  0  0  0  0  0  0  0  0  0  0
   19.6654  -21.0423  -10.8952 C   0  0  0  0  0  0  0  0  0  0  0  0
   18.0142  -25.0323   -9.8850 C   0  0  0  0  0  0  0  0  0  0  0  0
   17.0508  -25.7904  -10.2052 O   0  0  0  0  0  0  0  0  0  0  0  0
   18.2965  -24.9345   -8.4993 N   0  0  0  0  0  0  0  0  0  0  0  0
   17.5226  -25.6691   -7.5337 C   0  0  1  0  0  0  0  0  0  0  0  0
   18.3452  -25.7437   -6.2444 C   0  0  0  0  0  0  0  0  0  0  0  0
   17.5646  -26.4793   -5.2080 C   0  0  0  0  0  0  0  0  0  0  0  0
   18.2107  -26.6172   -3.8820 C   0  0  0  0  0  0  0  0  0  0  0  0
   17.3744  -27.2658   -2.8370 C   0  0  0  0  0  0  0  0  0  0  0  0
   18.0234  -27.3597   -1.5547 N   0  0  0  0  0  0  0  0  0  0  0  0
   16.2500  -24.9460   -7.3014 C   0  0  0  0  0  0  0  0  0  0  0  0
   16.1519  -23.7097   -7.5457 O   0  0  0  0  0  0  0  0  0  0  0  0
   15.1207  -25.5837   -6.8116 O   0  0  0  0  0  0  0  0  0  0  0  0
  2  3  2  0
  2  1  1  0
  4  2  1  0
  5  4  1  0
  5  6  1  0
  6  7  1  6
  8  9  2  0
  8  6  1  0
 10  8  1  0
 11 12  1  6
 11 10  1  0
 13 12  1  0
 13 14  2  0
 15 14  1  0
 16 15  1  0
 17 16  2  0
 18 17  1  0
 19 18  2  0
 19 20  1  0
 20 21  2  0
 21 16  1  0
 21 13  1  0
 22 11  1  0
 23 22  2  0
 24 22  1  0
 25 24  1  0
 25 26  1  1
 27 26  1  0
 28 29  1  0
 28 27  1  0
 30 29  1  0
 31 25  1  0
 31 33  1  0
 32 31  2  0
M  END
$$$$
