QWK.pdb
     RDKit          3D

 33 34  0  0  1  0  0  0  0  0999 V2000
   27.0258  -21.4612  -17.6917 N   0  0  0  0  0  0  0  0  0  0  0  0
   28.4166  -21.1249  -17.8221 C   0  0  0  0  0  0  0  0  0  0  0  0
   28.8490  -20.7356  -18.9154 O   0  0  0  0  0  0  0  0  0  0  0  0
   29.2709  -21.2631  -16.6445 C   0  0  0  0  0  0  0  0  0  0  0  0
   28.5043  -21.6196  -15.4241 C   0  0  0  0  0  0  0  0  0  0  0  0
   27.8886  -20.4709  -14.7015 C   0  0  2  0  0  0  0  0  0  0  0  0
   28.7951  -19.4162  -14.3361 N   0  0  0  0  0  0  0  0  0  0  0  0
   27.2404  -20.9497  -13.4313 C   0  0  0  0  0  0  0  0  0  0  0  0
   26.3715  -21.8526  -13.4626 O   0  0  0  0  0  0  0  0  0  0  0  0
   27.6043  -20.3854  -12.1810 N   0  0  0  0  0  0  0  0  0  0  0  0
   26.9800  -20.7298  -10.9306 C   0  0  1  0  0  0  0  0  0  0  0  0
   27.7627  -20.3591   -9.7169 C   0  0  0  0  0  0  0  0  0  0  0  0
   27.0822  -20.5737   -8.4266 C   0  0  0  0  0  0  0  0  0  0  0  0
   25.7977  -21.0653   -8.2337 C   0  0  0  0  0  0  0  0  0  0  0  0
   25.5310  -21.0968   -6.9232 N   0  0  0  0  0  0  0  0  0  0  0  0
   26.6036  -20.6399   -6.2382 C   0  0  0  0  0  0  0  0  0  0  0  0
   26.8701  -20.4695   -4.8956 C   0  0  0  0  0  0  0  0  0  0  0  0
   28.0864  -19.9799   -4.4723 C   0  0  0  0  0  0  0  0  0  0  0  0
   29.0633  -19.6492   -5.3688 C   0  0  0  0  0  0  0  0  0  0  0  0
   28.7850  -19.8239   -6.7120 C   0  0  0  0  0  0  0  0  0  0  0  0
   27.5705  -20.3136   -7.1654 C   0  0  0  0  0  0  0  0  0  0  0  0
   25.5749  -20.2456  -10.9209 C   0  0  0  0  0  0  0  0  0  0  0  0
   25.3351  -19.0017  -10.8961 O   0  0  0  0  0  0  0  0  0  0  0  0
   24.4428  -21.0984  -10.9397 N   0  0  0  0  0  0  0  0  0  0  0  0
   23.1445  -20.5954  -11.3038 C   0  0  1  0  0  0  0  0  0  0  0  0
   22.5446  -21.5653  -12.3257 C   0  0  0  0  0  0  0  0  0  0  0  0
   21.1750  -21.1032  -12.6930 C   0  0  0  0  0  0  0  0  0  0  0  0
   20.4294  -21.9644  -13.6403 C   0  0  0  0  0  0  0  0  0  0  0  0
   19.0666  -21.4832  -13.9918 C   0  0  0  0  0  0  0  0  0  0  0  0
   18.4016  -22.3006  -14.9737 N   0  0  0  0  0  0  0  0  0  0  0  0
   22.3041  -20.5340  -10.0846 C   0  0  0  0  0  0  0  0  0  0  0  0
   21.4274  -19.6342   -9.9452 O   0  0  0  0  0  0  0  0  0  0  0  0
   22.4378  -21.4496   -9.0524 O   0  0  0  0  0  0  0  0  0  0  0  0
  2  3  2  0
  2  1  1  0
  4  2  1  0
  5  4  1  0
  5  6  1  0
  6  7  1  1
  8  9  2  0
  8  6  1  0
 10  8  1  0
 11 12  1  1
 11 10  1  0
 13 12  1  0
 13 14  2  0
 15 14  1  0
 16 15  1  0
 17 16  2  0
 18 17  1  0
 19 18  2  0
 19 20  1  0
 20 21  2  0
 21 16  1  0
 21 13  1  0
 22 11  1  0
 23 22  2  0
 24 22  1  0
 25 24  1  0
 25 26  1  6
 27 26  1  0
 28 29  1  0
 28 27  1  0
 30 29  1  0
 31 25  1  0
 31 33  1  0
 32 31  2  0
M  END
$$$$
