QWK.pdb
     RDKit          3D

 33 34  0  0  1  0  0  0  0  0999 V2000
   26.7609  -16.7276  -14.3677 N   0  0  0  0  0  0  0  0  0  0  0  0
   27.9056  -17.1702  -15.1148 C   0  0  0  0  0  0  0  0  0  0  0  0
   28.4933  -16.3725  -15.8579 O   0  0  0  0  0  0  0  0  0  0  0  0
   28.3282  -18.5612  -14.9659 C   0  0  0  0  0  0  0  0  0  0  0  0
   27.5081  -19.3020  -13.9744 C   0  0  0  0  0  0  0  0  0  0  0  0
   28.2781  -20.1297  -13.0034 C   0  0  2  0  0  0  0  0  0  0  0  0
   29.1182  -21.1406  -13.5864 N   0  0  0  0  0  0  0  0  0  0  0  0
   27.3355  -20.8325  -12.0651 C   0  0  0  0  0  0  0  0  0  0  0  0
   27.0086  -22.0254  -12.2684 O   0  0  0  0  0  0  0  0  0  0  0  0
   26.8042  -20.1541  -10.9375 N   0  0  0  0  0  0  0  0  0  0  0  0
   25.6278  -20.5776  -10.2245 C   0  0  1  0  0  0  0  0  0  0  0  0
   25.4424  -19.9419   -8.8885 C   0  0  0  0  0  0  0  0  0  0  0  0
   26.6796  -19.6529   -8.1403 C   0  0  0  0  0  0  0  0  0  0  0  0
   27.7072  -18.8020   -8.5262 C   0  0  0  0  0  0  0  0  0  0  0  0
   28.6658  -18.8186   -7.5933 N   0  0  0  0  0  0  0  0  0  0  0  0
   28.3039  -19.6573   -6.5963 C   0  0  0  0  0  0  0  0  0  0  0  0
   28.9000  -20.0362   -5.4114 C   0  0  0  0  0  0  0  0  0  0  0  0
   28.2804  -20.9250   -4.5603 C   0  0  0  0  0  0  0  0  0  0  0  0
   27.0587  -21.4565   -4.8643 C   0  0  0  0  0  0  0  0  0  0  0  0
   26.4708  -21.0698   -6.0546 C   0  0  0  0  0  0  0  0  0  0  0  0
   27.0716  -20.1784   -6.9292 C   0  0  0  0  0  0  0  0  0  0  0  0
   24.4408  -20.4836  -11.1139 C   0  0  0  0  0  0  0  0  0  0  0  0
   24.2557  -19.4434  -11.8132 O   0  0  0  0  0  0  0  0  0  0  0  0
   23.4666  -21.5048  -11.2457 N   0  0  0  0  0  0  0  0  0  0  0  0
   22.4269  -21.4111  -12.2364 C   0  0  1  0  0  0  0  0  0  0  0  0
   22.3421  -22.7659  -12.9449 C   0  0  0  0  0  0  0  0  0  0  0  0
   21.2236  -22.7329  -13.9309 C   0  0  0  0  0  0  0  0  0  0  0  0
   20.8953  -24.0203  -14.5865 C   0  0  0  0  0  0  0  0  0  0  0  0
   21.7214  -24.3499  -15.7787 C   0  0  0  0  0  0  0  0  0  0  0  0
   21.4198  -25.6363  -16.3518 N   0  0  0  0  0  0  0  0  0  0  0  0
   21.1505  -21.0978  -11.5516 C   0  0  0  0  0  0  0  0  0  0  0  0
   21.0499  -21.1842  -10.2946 O   0  0  0  0  0  0  0  0  0  0  0  0
   20.0204  -20.6996  -12.2488 O   0  0  0  0  0  0  0  0  0  0  0  0
  2  3  2  0
  2  1  1  0
  4  2  1  0
  5  4  1  0
  5  6  1  0
  6  7  1  6
  8  9  2  0
  8  6  1  0
 10  8  1  0
 11 12  1  1
 11 10  1  0
 13 12  1  0
 13 14  2  0
 15 14  1  0
 16 15  1  0
 17 16  2  0
 18 17  1  0
 19 18  2  0
 19 20  1  0
 20 21  2  0
 21 16  1  0
 21 13  1  0
 22 11  1  0
 23 22  2  0
 24 22  1  0
 25 24  1  0
 25 26  1  1
 27 26  1  0
 28 29  1  0
 28 27  1  0
 30 29  1  0
 31 25  1  0
 31 33  1  0
 32 31  2  0
M  END
$$$$
