QWK.pdb
     RDKit          3D

 33 34  0  0  1  0  0  0  0  0999 V2000
   28.1327  -26.0050  -16.6519 N   0  0  0  0  0  0  0  0  0  0  0  0
   27.9694  -24.6990  -17.2281 C   0  0  0  0  0  0  0  0  0  0  0  0
   27.2649  -24.5626  -18.2374 O   0  0  0  0  0  0  0  0  0  0  0  0
   28.6545  -23.5759  -16.5916 C   0  0  0  0  0  0  0  0  0  0  0  0
   28.1110  -23.2673  -15.2448 C   0  0  0  0  0  0  0  0  0  0  0  0
   26.9963  -22.2786  -15.2200 C   0  0  2  0  0  0  0  0  0  0  0  0
   27.3674  -20.9244  -15.5304 N   0  0  0  0  0  0  0  0  0  0  0  0
   26.3590  -22.2556  -13.8576 C   0  0  0  0  0  0  0  0  0  0  0  0
   25.9282  -23.3127  -13.3398 O   0  0  0  0  0  0  0  0  0  0  0  0
   26.2373  -21.0368  -13.1408 N   0  0  0  0  0  0  0  0  0  0  0  0
   25.6694  -20.9322  -11.8223 C   0  0  1  0  0  0  0  0  0  0  0  0
   26.3583  -19.9667  -10.9187 C   0  0  0  0  0  0  0  0  0  0  0  0
   27.5293  -20.4928  -10.1936 C   0  0  0  0  0  0  0  0  0  0  0  0
   28.6202  -21.1549  -10.7416 C   0  0  0  0  0  0  0  0  0  0  0  0
   29.4663  -21.4940   -9.7624 N   0  0  0  0  0  0  0  0  0  0  0  0
   28.9683  -21.0750   -8.5772 C   0  0  0  0  0  0  0  0  0  0  0  0
   29.4220  -21.1515   -7.2767 C   0  0  0  0  0  0  0  0  0  0  0  0
   28.6910  -20.6145   -6.2397 C   0  0  0  0  0  0  0  0  0  0  0  0
   27.4968  -19.9909   -6.4684 C   0  0  0  0  0  0  0  0  0  0  0  0
   27.0517  -19.9204   -7.7758 C   0  0  0  0  0  0  0  0  0  0  0  0
   27.7660  -20.4523   -8.8375 C   0  0  0  0  0  0  0  0  0  0  0  0
   24.2003  -20.7307  -11.9231 C   0  0  0  0  0  0  0  0  0  0  0  0
   23.5255  -20.4685  -10.8832 O   0  0  0  0  0  0  0  0  0  0  0  0
   23.4710  -20.8103  -13.1359 N   0  0  0  0  0  0  0  0  0  0  0  0
   22.1065  -20.3586  -13.2088 C   0  0  1  0  0  0  0  0  0  0  0  0
   22.0301  -19.2996  -14.3121 C   0  0  0  0  0  0  0  0  0  0  0  0
   20.6387  -18.7676  -14.3839 C   0  0  0  0  0  0  0  0  0  0  0  0
   20.3420  -17.8721  -15.5263 C   0  0  0  0  0  0  0  0  0  0  0  0
   18.9596  -17.3239  -15.5557 C   0  0  0  0  0  0  0  0  0  0  0  0
   18.7403  -16.3684  -16.6108 N   0  0  0  0  0  0  0  0  0  0  0  0
   21.2432  -21.5180  -13.5356 C   0  0  0  0  0  0  0  0  0  0  0  0
   21.6529  -22.4373  -14.3003 O   0  0  0  0  0  0  0  0  0  0  0  0
   19.9614  -21.6477  -13.0239 O   0  0  0  0  0  0  0  0  0  0  0  0
  2  3  2  0
  2  1  1  0
  4  2  1  0
  5  4  1  0
  5  6  1  0
  6  7  1  1
  8  9  2  0
  8  6  1  0
 10  8  1  0
 11 12  1  6
 11 10  1  0
 13 12  1  0
 13 14  2  0
 15 14  1  0
 16 15  1  0
 17 16  2  0
 18 17  1  0
 19 18  2  0
 19 20  1  0
 20 21  2  0
 21 16  1  0
 21 13  1  0
 22 11  1  0
 23 22  2  0
 24 22  1  0
 25 24  1  0
 25 26  1  6
 27 26  1  0
 28 29  1  0
 28 27  1  0
 30 29  1  0
 31 25  1  0
 31 33  1  0
 32 31  2  0
M  END
$$$$
