QWK.pdb
     RDKit          3D

 33 34  0  0  1  0  0  0  0  0999 V2000
   24.3818  -22.3887  -19.5447 N   0  0  0  0  0  0  0  0  0  0  0  0
   25.6230  -22.9931  -19.9427 C   0  0  0  0  0  0  0  0  0  0  0  0
   25.8129  -23.2648  -21.1359 O   0  0  0  0  0  0  0  0  0  0  0  0
   26.6173  -23.2678  -18.9075 C   0  0  0  0  0  0  0  0  0  0  0  0
   26.1301  -22.9293  -17.5465 C   0  0  0  0  0  0  0  0  0  0  0  0
   27.1414  -23.0551  -16.4592 C   0  0  2  0  0  0  0  0  0  0  0  0
   27.7847  -24.3375  -16.3621 N   0  0  0  0  0  0  0  0  0  0  0  0
   26.4996  -22.7861  -15.1256 C   0  0  0  0  0  0  0  0  0  0  0  0
   26.0517  -23.7306  -14.4339 O   0  0  0  0  0  0  0  0  0  0  0  0
   26.3929  -21.4593  -14.6332 N   0  0  0  0  0  0  0  0  0  0  0  0
   25.7722  -21.1131  -13.3816 C   0  0  1  0  0  0  0  0  0  0  0  0
   26.4193  -19.9849  -12.6526 C   0  0  0  0  0  0  0  0  0  0  0  0
   27.4637  -20.3645  -11.6835 C   0  0  0  0  0  0  0  0  0  0  0  0
   28.7589  -20.7742  -11.9722 C   0  0  0  0  0  0  0  0  0  0  0  0
   29.3980  -21.0503  -10.8298 N   0  0  0  0  0  0  0  0  0  0  0  0
   28.5631  -20.8349   -9.7881 C   0  0  0  0  0  0  0  0  0  0  0  0
   28.7021  -20.9510   -8.4207 C   0  0  0  0  0  0  0  0  0  0  0  0
   27.6579  -20.6467   -7.5750 C   0  0  0  0  0  0  0  0  0  0  0  0
   26.4555  -20.2212   -8.0652 C   0  0  0  0  0  0  0  0  0  0  0  0
   26.3274  -20.1087   -9.4374 C   0  0  0  0  0  0  0  0  0  0  0  0
   27.3606  -20.4087  -10.3109 C   0  0  0  0  0  0  0  0  0  0  0  0
   24.3073  -20.9530  -13.5751 C   0  0  0  0  0  0  0  0  0  0  0  0
   23.8698  -20.1941  -14.4906 O   0  0  0  0  0  0  0  0  0  0  0  0
   23.3277  -21.6083  -12.7875 N   0  0  0  0  0  0  0  0  0  0  0  0
   21.9247  -21.3813  -13.0135 C   0  0  1  0  0  0  0  0  0  0  0  0
   21.1557  -22.4857  -12.2830 C   0  0  0  0  0  0  0  0  0  0  0  0
   19.6934  -22.2902  -12.5016 C   0  0  0  0  0  0  0  0  0  0  0  0
   18.8074  -23.3496  -11.9652 C   0  0  0  0  0  0  0  0  0  0  0  0
   17.3517  -23.1105  -12.1550 C   0  0  0  0  0  0  0  0  0  0  0  0
   16.7101  -24.0919  -12.9914 N   0  0  0  0  0  0  0  0  0  0  0  0
   21.5694  -20.0490  -12.4702 C   0  0  0  0  0  0  0  0  0  0  0  0
   22.1528  -19.5882  -11.4479 O   0  0  0  0  0  0  0  0  0  0  0  0
   20.5928  -19.2547  -13.0507 O   0  0  0  0  0  0  0  0  0  0  0  0
  2  3  2  0
  2  1  1  0
  4  2  1  0
  5  4  1  0
  5  6  1  0
  6  7  1  1
  8  9  2  0
  8  6  1  0
 10  8  1  0
 11 12  1  6
 11 10  1  0
 13 12  1  0
 13 14  2  0
 15 14  1  0
 16 15  1  0
 17 16  2  0
 18 17  1  0
 19 18  2  0
 19 20  1  0
 20 21  2  0
 21 16  1  0
 21 13  1  0
 22 11  1  0
 23 22  2  0
 24 22  1  0
 25 24  1  0
 25 26  1  1
 27 26  1  0
 28 29  1  0
 28 27  1  0
 30 29  1  0
 31 25  1  0
 31 33  1  0
 32 31  2  0
M  END
$$$$
