QWK.pdb
     RDKit          3D

 33 34  0  0  1  0  0  0  0  0999 V2000
   28.3311  -25.4565  -16.8391 N   0  0  0  0  0  0  0  0  0  0  0  0
   28.7708  -24.3188  -17.5984 C   0  0  0  0  0  0  0  0  0  0  0  0
   28.7248  -24.3577  -18.8354 O   0  0  0  0  0  0  0  0  0  0  0  0
   29.2634  -23.1529  -16.8678 C   0  0  0  0  0  0  0  0  0  0  0  0
   28.5553  -22.9483  -15.5790 C   0  0  0  0  0  0  0  0  0  0  0  0
   27.3746  -22.0409  -15.6389 C   0  0  2  0  0  0  0  0  0  0  0  0
   27.6712  -20.6625  -15.9213 N   0  0  0  0  0  0  0  0  0  0  0  0
   26.6365  -22.0695  -14.3286 C   0  0  0  0  0  0  0  0  0  0  0  0
   26.2293  -23.1551  -13.8522 O   0  0  0  0  0  0  0  0  0  0  0  0
   26.3915  -20.8677  -13.6145 N   0  0  0  0  0  0  0  0  0  0  0  0
   25.6381  -20.7988  -12.3901 C   0  0  1  0  0  0  0  0  0  0  0  0
   26.1848  -19.8580  -11.3706 C   0  0  0  0  0  0  0  0  0  0  0  0
   27.3251  -20.3605  -10.5825 C   0  0  0  0  0  0  0  0  0  0  0  0
   28.4450  -21.0237  -11.0670 C   0  0  0  0  0  0  0  0  0  0  0  0
   29.2476  -21.3373  -10.0438 N   0  0  0  0  0  0  0  0  0  0  0  0
   28.6924  -20.9002   -8.8909 C   0  0  0  0  0  0  0  0  0  0  0  0
   29.0862  -20.9484   -7.5697 C   0  0  0  0  0  0  0  0  0  0  0  0
   28.3042  -20.3980   -6.5779 C   0  0  0  0  0  0  0  0  0  0  0  0
   27.1172  -19.7888   -6.8731 C   0  0  0  0  0  0  0  0  0  0  0  0
   26.7324  -19.7467   -8.2006 C   0  0  0  0  0  0  0  0  0  0  0  0
   27.4988  -20.2925   -9.2180 C   0  0  0  0  0  0  0  0  0  0  0  0
   24.1984  -20.5947  -12.6973 C   0  0  0  0  0  0  0  0  0  0  0  0
   23.8006  -19.4805  -13.1510 O   0  0  0  0  0  0  0  0  0  0  0  0
   23.2014  -21.5861  -12.5170 N   0  0  0  0  0  0  0  0  0  0  0  0
   21.8208  -21.3083  -12.8132 C   0  0  1  0  0  0  0  0  0  0  0  0
   21.0801  -22.6479  -12.8559 C   0  0  0  0  0  0  0  0  0  0  0  0
   19.6590  -22.4089  -13.2399 C   0  0  0  0  0  0  0  0  0  0  0  0
   18.8063  -23.6142  -13.3634 C   0  0  0  0  0  0  0  0  0  0  0  0
   17.4295  -23.3640  -13.8673 C   0  0  0  0  0  0  0  0  0  0  0  0
   16.5947  -24.5377  -13.8719 N   0  0  0  0  0  0  0  0  0  0  0  0
   21.2742  -20.4422  -11.7420 C   0  0  0  0  0  0  0  0  0  0  0  0
   20.4663  -19.5081  -12.0115 O   0  0  0  0  0  0  0  0  0  0  0  0
   21.6184  -20.6137  -10.4102 O   0  0  0  0  0  0  0  0  0  0  0  0
  2  3  2  0
  2  1  1  0
  4  2  1  0
  5  4  1  0
  5  6  1  0
  6  7  1  1
  8  9  2  0
  8  6  1  0
 10  8  1  0
 11 12  1  1
 11 10  1  0
 13 12  1  0
 13 14  2  0
 15 14  1  0
 16 15  1  0
 17 16  2  0
 18 17  1  0
 19 18  2  0
 19 20  1  0
 20 21  2  0
 21 16  1  0
 21 13  1  0
 22 11  1  0
 23 22  2  0
 24 22  1  0
 25 24  1  0
 25 26  1  1
 27 26  1  0
 28 29  1  0
 28 27  1  0
 30 29  1  0
 31 25  1  0
 31 33  1  0
 32 31  2  0
M  END
$$$$
