QWK.pdb
     RDKit          3D

 33 34  0  0  1  0  0  0  0  0999 V2000
   29.3843  -24.2322  -16.2060 N   0  0  0  0  0  0  0  0  0  0  0  0
   29.8934  -22.9516  -16.6125 C   0  0  0  0  0  0  0  0  0  0  0  0
   30.8183  -22.8971  -17.4343 O   0  0  0  0  0  0  0  0  0  0  0  0
   29.2921  -21.7551  -16.0272 C   0  0  0  0  0  0  0  0  0  0  0  0
   28.2833  -22.0764  -14.9863 C   0  0  0  0  0  0  0  0  0  0  0  0
   27.1670  -21.0973  -14.8587 C   0  0  2  0  0  0  0  0  0  0  0  0
   27.5665  -19.7318  -14.6499 N   0  0  0  0  0  0  0  0  0  0  0  0
   26.2809  -21.4749  -13.7034 C   0  0  0  0  0  0  0  0  0  0  0  0
   25.8009  -22.6300  -13.6218 O   0  0  0  0  0  0  0  0  0  0  0  0
   25.9768  -20.5283  -12.6907 N   0  0  0  0  0  0  0  0  0  0  0  0
   25.0924  -20.7887  -11.5853 C   0  0  1  0  0  0  0  0  0  0  0  0
   25.5077  -20.1727  -10.2925 C   0  0  0  0  0  0  0  0  0  0  0  0
   26.8357  -20.5714   -9.7912 C   0  0  0  0  0  0  0  0  0  0  0  0
   27.7570  -21.3896  -10.4320 C   0  0  0  0  0  0  0  0  0  0  0  0
   28.8344  -21.5338   -9.6522 N   0  0  0  0  0  0  0  0  0  0  0  0
   28.6554  -20.8332   -8.5096 C   0  0  0  0  0  0  0  0  0  0  0  0
   29.4333  -20.6310   -7.3886 C   0  0  0  0  0  0  0  0  0  0  0  0
   28.9889  -19.8390   -6.3525 C   0  0  0  0  0  0  0  0  0  0  0  0
   27.7662  -19.2311   -6.4049 C   0  0  0  0  0  0  0  0  0  0  0  0
   26.9949  -19.4411   -7.5333 C   0  0  0  0  0  0  0  0  0  0  0  0
   27.4167  -20.2330   -8.5893 C   0  0  0  0  0  0  0  0  0  0  0  0
   23.6918  -20.4880  -11.9814 C   0  0  0  0  0  0  0  0  0  0  0  0
   23.3526  -19.2970  -12.2497 O   0  0  0  0  0  0  0  0  0  0  0  0
   22.6711  -21.4657  -12.0874 N   0  0  0  0  0  0  0  0  0  0  0  0
   21.3469  -21.1076  -12.5225 C   0  0  1  0  0  0  0  0  0  0  0  0
   20.7985  -22.2793  -13.3418 C   0  0  0  0  0  0  0  0  0  0  0  0
   19.4036  -21.9676  -13.7679 C   0  0  0  0  0  0  0  0  0  0  0  0
   18.6811  -23.0511  -14.4743 C   0  0  0  0  0  0  0  0  0  0  0  0
   17.3097  -22.7011  -14.9316 C   0  0  0  0  0  0  0  0  0  0  0  0
   16.6362  -23.7772  -15.6118 N   0  0  0  0  0  0  0  0  0  0  0  0
   20.5065  -20.8672  -11.3257 C   0  0  0  0  0  0  0  0  0  0  0  0
   20.7105  -21.5011  -10.2513 O   0  0  0  0  0  0  0  0  0  0  0  0
   19.4700  -19.9468  -11.3279 O   0  0  0  0  0  0  0  0  0  0  0  0
  2  3  2  0
  2  1  1  0
  4  2  1  0
  5  4  1  0
  5  6  1  0
  6  7  1  1
  8  9  2  0
  8  6  1  0
 10  8  1  0
 11 12  1  1
 11 10  1  0
 13 12  1  0
 13 14  2  0
 15 14  1  0
 16 15  1  0
 17 16  2  0
 18 17  1  0
 19 18  2  0
 19 20  1  0
 20 21  2  0
 21 16  1  0
 21 13  1  0
 22 11  1  0
 23 22  2  0
 24 22  1  0
 25 24  1  0
 25 26  1  1
 27 26  1  0
 28 29  1  0
 28 27  1  0
 30 29  1  0
 31 25  1  0
 31 33  1  0
 32 31  2  0
M  END
$$$$
