QWK.pdb
     RDKit          3D

 33 34  0  0  1  0  0  0  0  0999 V2000
   28.0185  -23.1817  -16.7237 N   0  0  0  0  0  0  0  0  0  0  0  0
   29.0177  -22.1501  -16.6818 C   0  0  0  0  0  0  0  0  0  0  0  0
   29.7235  -21.9452  -17.6786 O   0  0  0  0  0  0  0  0  0  0  0  0
   29.1616  -21.3816  -15.4471 C   0  0  0  0  0  0  0  0  0  0  0  0
   28.1739  -21.7780  -14.4119 C   0  0  0  0  0  0  0  0  0  0  0  0
   27.1085  -20.7744  -14.1318 C   0  0  2  0  0  0  0  0  0  0  0  0
   27.5754  -19.4463  -13.8388 N   0  0  0  0  0  0  0  0  0  0  0  0
   26.2815  -21.2163  -12.9556 C   0  0  0  0  0  0  0  0  0  0  0  0
   25.7536  -22.3531  -12.9413 O   0  0  0  0  0  0  0  0  0  0  0  0
   26.0883  -20.3519  -11.8467 N   0  0  0  0  0  0  0  0  0  0  0  0
   25.2362  -20.6571  -10.7276 C   0  0  1  0  0  0  0  0  0  0  0  0
   25.6976  -20.1070   -9.4208 C   0  0  0  0  0  0  0  0  0  0  0  0
   27.0803  -20.4452   -9.0366 C   0  0  0  0  0  0  0  0  0  0  0  0
   27.9686  -21.2468   -9.7417 C   0  0  0  0  0  0  0  0  0  0  0  0
   29.1181  -21.3324   -9.0628 N   0  0  0  0  0  0  0  0  0  0  0  0
   29.0192  -20.6089   -7.9248 C   0  0  0  0  0  0  0  0  0  0  0  0
   29.8892  -20.3501   -6.8860 C   0  0  0  0  0  0  0  0  0  0  0  0
   29.5129  -19.5474   -5.8313 C   0  0  0  0  0  0  0  0  0  0  0  0
   28.2686  -18.9847   -5.7832 C   0  0  0  0  0  0  0  0  0  0  0  0
   27.4048  -19.2512   -6.8297 C   0  0  0  0  0  0  0  0  0  0  0  0
   27.7567  -20.0551   -7.9022 C   0  0  0  0  0  0  0  0  0  0  0  0
   23.8270  -20.3258  -11.0646 C   0  0  0  0  0  0  0  0  0  0  0  0
   23.4847  -19.1176  -11.2335 O   0  0  0  0  0  0  0  0  0  0  0  0
   22.8011  -21.2917  -11.2186 N   0  0  0  0  0  0  0  0  0  0  0  0
   21.4951  -20.9140  -11.6907 C   0  0  1  0  0  0  0  0  0  0  0  0
   21.3393  -21.4695  -13.1091 C   0  0  0  0  0  0  0  0  0  0  0  0
   21.5724  -20.3725  -14.0923 C   0  0  0  0  0  0  0  0  0  0  0  0
   21.4166  -20.7342  -15.5205 C   0  0  0  0  0  0  0  0  0  0  0  0
   21.6825  -19.6319  -16.4831 C   0  0  0  0  0  0  0  0  0  0  0  0
   20.8547  -18.4719  -16.2749 N   0  0  0  0  0  0  0  0  0  0  0  0
   20.4790  -21.4998  -10.7848 C   0  0  0  0  0  0  0  0  0  0  0  0
   19.2560  -21.2033  -10.9029 O   0  0  0  0  0  0  0  0  0  0  0  0
   20.8176  -22.3901   -9.7777 O   0  0  0  0  0  0  0  0  0  0  0  0
  2  3  2  0
  2  1  1  0
  4  2  1  0
  5  4  1  0
  5  6  1  0
  6  7  1  1
  8  9  2  0
  8  6  1  0
 10  8  1  0
 11 12  1  1
 11 10  1  0
 13 12  1  0
 13 14  2  0
 15 14  1  0
 16 15  1  0
 17 16  2  0
 18 17  1  0
 19 18  2  0
 19 20  1  0
 20 21  2  0
 21 16  1  0
 21 13  1  0
 22 11  1  0
 23 22  2  0
 24 22  1  0
 25 24  1  0
 25 26  1  6
 27 26  1  0
 28 29  1  0
 28 27  1  0
 30 29  1  0
 31 25  1  0
 31 33  1  0
 32 31  2  0
M  END
$$$$
