QWK.pdb
     RDKit          3D

 33 34  0  0  1  0  0  0  0  0999 V2000
   27.0723  -19.2511  -17.7206 N   0  0  0  0  0  0  0  0  0  0  0  0
   28.2250  -18.4797  -17.3457 C   0  0  0  0  0  0  0  0  0  0  0  0
   28.9225  -17.9595  -18.2270 O   0  0  0  0  0  0  0  0  0  0  0  0
   28.5296  -18.3454  -15.9226 C   0  0  0  0  0  0  0  0  0  0  0  0
   27.5740  -19.0892  -15.0636 C   0  0  0  0  0  0  0  0  0  0  0  0
   28.1779  -20.1556  -14.2157 C   0  0  2  0  0  0  0  0  0  0  0  0
   28.8548  -21.2025  -14.9323 N   0  0  0  0  0  0  0  0  0  0  0  0
   27.1136  -20.8144  -13.3816 C   0  0  0  0  0  0  0  0  0  0  0  0
   26.5647  -21.8718  -13.7713 O   0  0  0  0  0  0  0  0  0  0  0  0
   26.7171  -20.2475  -12.1424 N   0  0  0  0  0  0  0  0  0  0  0  0
   25.7488  -20.8420  -11.2589 C   0  0  1  0  0  0  0  0  0  0  0  0
   25.9146  -20.4892   -9.8197 C   0  0  0  0  0  0  0  0  0  0  0  0
   27.2407  -20.7719   -9.2403 C   0  0  0  0  0  0  0  0  0  0  0  0
   28.2803  -21.4704   -9.8403 C   0  0  0  0  0  0  0  0  0  0  0  0
   29.3135  -21.5352   -8.9931 N   0  0  0  0  0  0  0  0  0  0  0  0
   28.9899  -20.8980   -7.8451 C   0  0  0  0  0  0  0  0  0  0  0  0
   29.6682  -20.6606   -6.6677 C   0  0  0  0  0  0  0  0  0  0  0  0
   29.0787  -19.9551   -5.6415 C   0  0  0  0  0  0  0  0  0  0  0  0
   27.8066  -19.4703   -5.7597 C   0  0  0  0  0  0  0  0  0  0  0  0
   27.1361  -19.7146   -6.9441 C   0  0  0  0  0  0  0  0  0  0  0  0
   27.7045  -20.4215   -7.9918 C   0  0  0  0  0  0  0  0  0  0  0  0
   24.3790  -20.6131  -11.7883 C   0  0  0  0  0  0  0  0  0  0  0  0
   23.9980  -19.4377  -12.0688 O   0  0  0  0  0  0  0  0  0  0  0  0
   23.4337  -21.6451  -12.0129 N   0  0  0  0  0  0  0  0  0  0  0  0
   22.1515  -21.3580  -12.5999 C   0  0  1  0  0  0  0  0  0  0  0  0
   21.5917  -22.6728  -13.1500 C   0  0  0  0  0  0  0  0  0  0  0  0
   20.2703  -22.4118  -13.7905 C   0  0  0  0  0  0  0  0  0  0  0  0
   19.5235  -23.6051  -14.2522 C   0  0  0  0  0  0  0  0  0  0  0  0
   18.2510  -23.3159  -14.9659 C   0  0  0  0  0  0  0  0  0  0  0  0
   17.6019  -24.4911  -15.4873 N   0  0  0  0  0  0  0  0  0  0  0  0
   21.2632  -20.8109  -11.5472 C   0  0  0  0  0  0  0  0  0  0  0  0
   21.3619  -21.1991  -10.3483 O   0  0  0  0  0  0  0  0  0  0  0  0
   20.2945  -19.8588  -11.8241 O   0  0  0  0  0  0  0  0  0  0  0  0
  2  3  2  0
  2  1  1  0
  4  2  1  0
  5  4  1  0
  5  6  1  0
  6  7  1  6
  8  9  2  0
  8  6  1  0
 10  8  1  0
 11 12  1  1
 11 10  1  0
 13 12  1  0
 13 14  2  0
 15 14  1  0
 16 15  1  0
 17 16  2  0
 18 17  1  0
 19 18  2  0
 19 20  1  0
 20 21  2  0
 21 16  1  0
 21 13  1  0
 22 11  1  0
 23 22  2  0
 24 22  1  0
 25 24  1  0
 25 26  1  1
 27 26  1  0
 28 29  1  0
 28 27  1  0
 30 29  1  0
 31 25  1  0
 31 33  1  0
 32 31  2  0
M  END
$$$$
