HGI.pdb
     RDKit          3D

 23 23  0  0  1  0  0  0  0  0999 V2000
    8.5457  -17.4352   18.9967 N   0  0  0  0  0  0  0  0  0  0  0  0
    8.8603  -18.2481   20.1353 C   0  0  1  0  0  0  0  0  0  0  0  0
   10.3755  -18.2832   20.3149 C   0  0  0  0  0  0  0  0  0  0  0  0
   10.9739  -18.7215   19.0266 C   0  0  0  0  0  0  0  0  0  0  0  0
   10.7372  -19.9213   18.3522 C   0  0  0  0  0  0  0  0  0  0  0  0
   11.4639  -19.9473   17.2244 N   0  0  0  0  0  0  0  0  0  0  0  0
   12.1504  -18.8054   17.1643 C   0  0  0  0  0  0  0  0  0  0  0  0
   11.8582  -18.0590   18.2524 N   0  0  0  0  0  0  0  0  0  0  0  0
    8.1756  -17.7458   21.3191 C   0  0  0  0  0  0  0  0  0  0  0  0
    8.2008  -18.3541   22.3990 O   0  0  0  0  0  0  0  0  0  0  0  0
    7.4482  -16.5103   21.2400 N   0  0  0  0  0  0  0  0  0  0  0  0
    6.7943  -15.9398   22.3659 C   0  0  0  0  0  0  0  0  0  0  0  0
    7.6786  -15.3232   23.3503 C   0  0  0  0  0  0  0  0  0  0  0  0
    8.9386  -15.2423   23.0698 O   0  0  0  0  0  0  0  0  0  0  0  0
    5.9121  -11.6720   27.0994 C   0  0  0  0  0  0  0  0  0  0  0  0
    6.4617  -12.9623   26.5431 C   0  0  0  0  0  0  0  0  0  0  0  0
    7.7287  -12.7343   25.7513 C   0  0  2  0  0  0  0  0  0  0  0  0
    7.4868  -11.9478   24.4852 C   0  0  0  0  0  0  0  0  0  0  0  0
    8.3179  -14.0981   25.4243 C   0  0  2  0  0  0  0  0  0  0  0  0
    7.3411  -14.7855   24.6058 N   0  0  0  0  0  0  0  0  0  0  0  0
    8.5974  -14.8448   26.6813 C   0  0  0  0  0  0  0  0  0  0  0  0
    7.9196  -15.9820   27.0525 O   0  0  0  0  0  0  0  0  0  0  0  0
    9.4967  -14.4073   27.4317 O   0  0  0  0  0  0  0  0  0  0  0  0
  2  1  1  6
  2  3  1  0
  4  3  1  0
  4  5  2  0
  6  5  1  0
  7  6  1  0
  8  7  2  0
  8  4  1  0
  9  2  1  0
  9 11  1  0
 10  9  2  0
 12 11  1  0
 12 13  1  0
 13 20  1  0
 14 13  2  0
 16 15  1  0
 17 16  1  0
 17 18  1  6
 19 21  1  0
 19 17  1  0
 19 20  1  6
 21 22  1  0
 23 21  2  0
M  END
$$$$
