HGI.pdb
     RDKit          3D

 23 23  0  0  1  0  0  0  0  0999 V2000
    7.1307  -20.1917   23.2831 N   0  0  0  0  0  0  0  0  0  0  0  0
    6.1554  -19.4071   23.9827 C   0  0  1  0  0  0  0  0  0  0  0  0
    6.2991  -19.6596   25.4809 C   0  0  0  0  0  0  0  0  0  0  0  0
    6.4220  -21.1273   25.6828 C   0  0  0  0  0  0  0  0  0  0  0  0
    5.5140  -22.1115   25.2867 C   0  0  0  0  0  0  0  0  0  0  0  0
    5.9801  -23.3168   25.6484 N   0  0  0  0  0  0  0  0  0  0  0  0
    7.1506  -23.1264   26.2588 C   0  0  0  0  0  0  0  0  0  0  0  0
    7.4237  -21.8031   26.2829 N   0  0  0  0  0  0  0  0  0  0  0  0
    6.3034  -17.9979   23.6436 C   0  0  0  0  0  0  0  0  0  0  0  0
    5.5597  -17.1273   24.1189 O   0  0  0  0  0  0  0  0  0  0  0  0
    7.3391  -17.5985   22.7327 N   0  0  0  0  0  0  0  0  0  0  0  0
    7.5408  -16.2419   22.3589 C   0  0  0  0  0  0  0  0  0  0  0  0
    8.1537  -15.4008   23.3827 C   0  0  0  0  0  0  0  0  0  0  0  0
    9.1379  -14.6376   23.0338 O   0  0  0  0  0  0  0  0  0  0  0  0
    5.8233  -11.8875   25.7965 C   0  0  0  0  0  0  0  0  0  0  0  0
    6.9062  -12.7783   25.2395 C   0  0  0  0  0  0  0  0  0  0  0  0
    7.6228  -13.5368   26.3328 C   0  0  2  0  0  0  0  0  0  0  0  0
    8.3588  -12.6239   27.2843 C   0  0  0  0  0  0  0  0  0  0  0  0
    8.5924  -14.4997   25.6645 C   0  0  2  0  0  0  0  0  0  0  0  0
    7.8123  -15.3000   24.7438 N   0  0  0  0  0  0  0  0  0  0  0  0
    9.2573  -15.3457   26.6930 C   0  0  0  0  0  0  0  0  0  0  0  0
   10.4535  -15.0166   27.2855 O   0  0  0  0  0  0  0  0  0  0  0  0
    8.6908  -16.4085   27.0288 O   0  0  0  0  0  0  0  0  0  0  0  0
  2  1  1  6
  2  3  1  0
  4  3  1  0
  4  5  2  0
  6  5  1  0
  7  6  1  0
  8  7  2  0
  8  4  1  0
  9  2  1  0
  9 11  1  0
 10  9  2  0
 12 11  1  0
 12 13  1  0
 13 20  1  0
 14 13  2  0
 16 15  1  0
 17 16  1  0
 17 18  1  1
 19 21  1  0
 19 17  1  0
 19 20  1  6
 21 22  1  0
 23 21  2  0
M  END
$$$$
