HGI.pdb
     RDKit          3D

 23 23  0  0  1  0  0  0  0  0999 V2000
    8.9030  -15.0016   19.4670 N   0  0  0  0  0  0  0  0  0  0  0  0
    7.4856  -15.1215   19.2856 C   0  0  1  0  0  0  0  0  0  0  0  0
    7.2152  -15.9461   18.0302 C   0  0  0  0  0  0  0  0  0  0  0  0
    7.6497  -15.1417   16.8580 C   0  0  0  0  0  0  0  0  0  0  0  0
    7.9160  -13.7711   16.8284 C   0  0  0  0  0  0  0  0  0  0  0  0
    8.2821  -13.4170   15.5868 N   0  0  0  0  0  0  0  0  0  0  0  0
    8.2558  -14.5168   14.8329 C   0  0  0  0  0  0  0  0  0  0  0  0
    7.8737  -15.5643   15.5965 N   0  0  0  0  0  0  0  0  0  0  0  0
    6.8722  -15.7043   20.4717 C   0  0  0  0  0  0  0  0  0  0  0  0
    5.7170  -16.1539   20.4591 O   0  0  0  0  0  0  0  0  0  0  0  0
    7.6222  -15.7630   21.6948 N   0  0  0  0  0  0  0  0  0  0  0  0
    7.0811  -16.3040   22.8929 C   0  0  0  0  0  0  0  0  0  0  0  0
    7.9176  -16.1451   24.0786 C   0  0  0  0  0  0  0  0  0  0  0  0
    9.1392  -16.5663   24.0221 O   0  0  0  0  0  0  0  0  0  0  0  0
    6.2395  -12.2435   27.6274 C   0  0  0  0  0  0  0  0  0  0  0  0
    6.7410  -13.5936   27.1779 C   0  0  0  0  0  0  0  0  0  0  0  0
    7.9984  -13.4743   26.3479 C   0  0  2  0  0  0  0  0  0  0  0  0
    7.7545  -12.7947   25.0216 C   0  0  0  0  0  0  0  0  0  0  0  0
    8.5417  -14.8787   26.1324 C   0  0  2  0  0  0  0  0  0  0  0  0
    7.5697  -15.5781   25.3183 N   0  0  0  0  0  0  0  0  0  0  0  0
    8.7393  -15.5532   27.4446 C   0  0  0  0  0  0  0  0  0  0  0  0
    9.7264  -15.2021   28.3348 O   0  0  0  0  0  0  0  0  0  0  0  0
    7.9623  -16.4861   27.7434 O   0  0  0  0  0  0  0  0  0  0  0  0
  2  1  1  1
  2  3  1  0
  4  3  1  0
  4  5  2  0
  6  5  1  0
  7  6  1  0
  8  7  2  0
  8  4  1  0
  9  2  1  0
  9 11  1  0
 10  9  2  0
 12 11  1  0
 12 13  1  0
 13 20  1  0
 14 13  2  0
 16 15  1  0
 17 16  1  0
 17 18  1  6
 19 21  1  0
 19 17  1  0
 19 20  1  6
 21 22  1  0
 23 21  2  0
M  END
$$$$
