HGI.pdb
     RDKit          3D

 23 23  0  0  1  0  0  0  0  0999 V2000
    8.0584  -15.4133   18.9451 N   0  0  0  0  0  0  0  0  0  0  0  0
    7.4262  -15.3752   20.2317 C   0  0  1  0  0  0  0  0  0  0  0  0
    6.0338  -15.9894   20.1174 C   0  0  0  0  0  0  0  0  0  0  0  0
    6.1894  -17.3668   19.5802 C   0  0  0  0  0  0  0  0  0  0  0  0
    7.3768  -17.9909   19.1918 C   0  0  0  0  0  0  0  0  0  0  0  0
    7.1052  -19.2325   18.7611 N   0  0  0  0  0  0  0  0  0  0  0  0
    5.7878  -19.4126   18.8645 C   0  0  0  0  0  0  0  0  0  0  0  0
    5.2276  -18.2869   19.3597 N   0  0  0  0  0  0  0  0  0  0  0  0
    8.2511  -16.0574   21.2200 C   0  0  0  0  0  0  0  0  0  0  0  0
    9.4702  -16.2159   21.0601 O   0  0  0  0  0  0  0  0  0  0  0  0
    7.6407  -16.5638   22.4170 N   0  0  0  0  0  0  0  0  0  0  0  0
    8.3966  -17.1663   23.4594 C   0  0  0  0  0  0  0  0  0  0  0  0
    8.9131  -16.2426   24.4649 C   0  0  0  0  0  0  0  0  0  0  0  0
   10.1896  -16.2206   24.6720 O   0  0  0  0  0  0  0  0  0  0  0  0
    6.0406  -11.9795   26.0458 C   0  0  0  0  0  0  0  0  0  0  0  0
    7.1416  -12.9227   25.6279 C   0  0  0  0  0  0  0  0  0  0  0  0
    7.7980  -13.5785   26.8209 C   0  0  2  0  0  0  0  0  0  0  0  0
    8.4348  -12.5771   27.7547 C   0  0  0  0  0  0  0  0  0  0  0  0
    8.8422  -14.5510   26.2938 C   0  0  2  0  0  0  0  0  0  0  0  0
    8.1921  -15.3409   25.2690 N   0  0  0  0  0  0  0  0  0  0  0  0
    9.3450  -15.4063   27.4035 C   0  0  0  0  0  0  0  0  0  0  0  0
   10.4524  -15.0951   28.1566 O   0  0  0  0  0  0  0  0  0  0  0  0
    8.7213  -16.4601   27.6559 O   0  0  0  0  0  0  0  0  0  0  0  0
  2  1  1  6
  2  3  1  0
  4  3  1  0
  4  5  2  0
  6  5  1  0
  7  6  1  0
  8  7  2  0
  8  4  1  0
  9  2  1  0
  9 11  1  0
 10  9  2  0
 12 11  1  0
 12 13  1  0
 13 20  1  0
 14 13  2  0
 16 15  1  0
 17 16  1  0
 17 18  1  1
 19 21  1  0
 19 17  1  0
 19 20  1  6
 21 22  1  0
 23 21  2  0
M  END
$$$$
