HGI.pdb
     RDKit          3D

 23 23  0  0  1  0  0  0  0  0999 V2000
    8.3822  -18.5400   20.0341 N   0  0  0  0  0  0  0  0  0  0  0  0
    7.3963  -17.5769   19.6382 C   0  0  1  0  0  0  0  0  0  0  0  0
    6.3706  -18.2600   18.7379 C   0  0  0  0  0  0  0  0  0  0  0  0
    7.0116  -18.4928   17.4170 C   0  0  0  0  0  0  0  0  0  0  0  0
    8.0819  -17.7870   16.8634 C   0  0  0  0  0  0  0  0  0  0  0  0
    8.3722  -18.2961   15.6562 N   0  0  0  0  0  0  0  0  0  0  0  0
    7.5220  -19.2984   15.4297 C   0  0  0  0  0  0  0  0  0  0  0  0
    6.6957  -19.4226   16.4918 N   0  0  0  0  0  0  0  0  0  0  0  0
    6.7831  -16.9700   20.8122 C   0  0  0  0  0  0  0  0  0  0  0  0
    5.9381  -16.0678   20.7185 O   0  0  0  0  0  0  0  0  0  0  0  0
    7.1641  -17.4255   22.1196 N   0  0  0  0  0  0  0  0  0  0  0  0
    6.5837  -16.9005   23.3064 C   0  0  0  0  0  0  0  0  0  0  0  0
    7.4689  -16.0659   24.1133 C   0  0  0  0  0  0  0  0  0  0  0  0
    8.6950  -15.9275   23.7255 O   0  0  0  0  0  0  0  0  0  0  0  0
    5.6121  -11.7611   26.4840 C   0  0  0  0  0  0  0  0  0  0  0  0
    6.4923  -12.7664   25.7832 C   0  0  0  0  0  0  0  0  0  0  0  0
    7.3877  -13.4987   26.7559 C   0  0  2  0  0  0  0  0  0  0  0  0
    8.3446  -12.5747   27.4705 C   0  0  0  0  0  0  0  0  0  0  0  0
    8.1542  -14.5524   25.9709 C   0  0  2  0  0  0  0  0  0  0  0  0
    7.1652  -15.3662   25.2954 N   0  0  0  0  0  0  0  0  0  0  0  0
    8.9895  -15.3664   26.8958 C   0  0  0  0  0  0  0  0  0  0  0  0
   10.3140  -15.1004   27.1515 O   0  0  0  0  0  0  0  0  0  0  0  0
    8.4497  -16.3402   27.4646 O   0  0  0  0  0  0  0  0  0  0  0  0
  2  1  1  1
  2  3  1  0
  4  3  1  0
  4  5  2  0
  6  5  1  0
  7  6  1  0
  8  7  2  0
  8  4  1  0
  9  2  1  0
  9 11  1  0
 10  9  2  0
 12 11  1  0
 12 13  1  0
 13 20  1  0
 14 13  2  0
 16 15  1  0
 17 16  1  0
 17 18  1  6
 19 21  1  0
 19 17  1  0
 19 20  1  1
 21 22  1  0
 23 21  2  0
M  END
$$$$
