HGI.pdb
     RDKit          3D

 23 23  0  0  1  0  0  0  0  0999 V2000
    8.7991  -17.0617   18.6917 N   0  0  0  0  0  0  0  0  0  0  0  0
    9.3163  -15.7777   19.0663 C   0  0  1  0  0  0  0  0  0  0  0  0
    8.2098  -14.7367   18.9203 C   0  0  0  0  0  0  0  0  0  0  0  0
    8.1227  -14.3674   17.4830 C   0  0  0  0  0  0  0  0  0  0  0  0
    8.8948  -14.8724   16.4346 C   0  0  0  0  0  0  0  0  0  0  0  0
    8.5170  -14.2915   15.2854 N   0  0  0  0  0  0  0  0  0  0  0  0
    7.5335  -13.4379   15.5730 C   0  0  0  0  0  0  0  0  0  0  0  0
    7.2900  -13.4791   16.9017 N   0  0  0  0  0  0  0  0  0  0  0  0
    9.8545  -15.8252   20.4194 C   0  0  0  0  0  0  0  0  0  0  0  0
   10.3881  -14.8390   20.9480 O   0  0  0  0  0  0  0  0  0  0  0  0
    9.7677  -17.0471   21.1685 N   0  0  0  0  0  0  0  0  0  0  0  0
   10.5084  -17.2606   22.3629 C   0  0  0  0  0  0  0  0  0  0  0  0
    9.9047  -16.7122   23.5737 C   0  0  0  0  0  0  0  0  0  0  0  0
   10.5751  -16.7910   24.6770 O   0  0  0  0  0  0  0  0  0  0  0  0
    7.2971  -12.1815   23.8335 C   0  0  0  0  0  0  0  0  0  0  0  0
    8.1036  -13.4148   24.1575 C   0  0  0  0  0  0  0  0  0  0  0  0
    7.2499  -14.4907   24.7883 C   0  0  2  0  0  0  0  0  0  0  0  0
    6.6261  -14.0463   26.0897 C   0  0  0  0  0  0  0  0  0  0  0  0
    8.1351  -15.7072   25.0124 C   0  0  2  0  0  0  0  0  0  0  0  0
    8.6518  -16.0879   23.7144 N   0  0  0  0  0  0  0  0  0  0  0  0
    7.3411  -16.8065   25.6263 C   0  0  0  0  0  0  0  0  0  0  0  0
    7.4650  -17.1859   26.9420 O   0  0  0  0  0  0  0  0  0  0  0  0
    6.5219  -17.4099   24.8996 O   0  0  0  0  0  0  0  0  0  0  0  0
  2  1  1  1
  2  3  1  0
  4  3  1  0
  4  5  2  0
  6  5  1  0
  7  6  1  0
  8  7  2  0
  8  4  1  0
  9  2  1  0
  9 11  1  0
 10  9  2  0
 12 11  1  0
 12 13  1  0
 13 20  1  0
 14 13  2  0
 16 15  1  0
 17 16  1  0
 17 18  1  1
 19 21  1  0
 19 17  1  0
 19 20  1  6
 21 22  1  0
 23 21  2  0
M  END
$$$$
