HGI.pdb
     RDKit          3D

 23 23  0  0  1  0  0  0  0  0999 V2000
    8.8478  -16.6136   19.1337 N   0  0  0  0  0  0  0  0  0  0  0  0
    8.2566  -15.6198   19.9818 C   0  0  1  0  0  0  0  0  0  0  0  0
    7.0743  -14.9871   19.2530 C   0  0  0  0  0  0  0  0  0  0  0  0
    7.5805  -14.4217   17.9748 C   0  0  0  0  0  0  0  0  0  0  0  0
    8.2926  -13.2329   17.8024 C   0  0  0  0  0  0  0  0  0  0  0  0
    8.5709  -13.0671   16.5001 N   0  0  0  0  0  0  0  0  0  0  0  0
    8.0589  -14.1103   15.8456 C   0  0  0  0  0  0  0  0  0  0  0  0
    7.4579  -14.9340   16.7327 N   0  0  0  0  0  0  0  0  0  0  0  0
    7.8682  -16.2096   21.2561 C   0  0  0  0  0  0  0  0  0  0  0  0
    6.9815  -17.0723   21.3365 O   0  0  0  0  0  0  0  0  0  0  0  0
    8.5277  -15.7838   22.4585 N   0  0  0  0  0  0  0  0  0  0  0  0
    8.1023  -16.2039   23.7482 C   0  0  0  0  0  0  0  0  0  0  0  0
    8.8784  -15.6682   24.8625 C   0  0  0  0  0  0  0  0  0  0  0  0
   10.0960  -15.2971   24.6329 O   0  0  0  0  0  0  0  0  0  0  0  0
    6.9298  -12.0155   27.6046 C   0  0  0  0  0  0  0  0  0  0  0  0
    7.8080  -13.0470   26.9404 C   0  0  0  0  0  0  0  0  0  0  0  0
    8.5488  -13.8869   27.9553 C   0  0  2  0  0  0  0  0  0  0  0  0
    9.4494  -13.0617   28.8431 C   0  0  0  0  0  0  0  0  0  0  0  0
    9.3606  -14.9215   27.1908 C   0  0  2  0  0  0  0  0  0  0  0  0
    8.4740  -15.4924   26.1985 N   0  0  0  0  0  0  0  0  0  0  0  0
    9.8702  -15.9599   28.1277 C   0  0  0  0  0  0  0  0  0  0  0  0
   11.1079  -15.8998   28.7234 O   0  0  0  0  0  0  0  0  0  0  0  0
    9.1269  -16.9332   28.3795 O   0  0  0  0  0  0  0  0  0  0  0  0
  2  1  1  6
  2  3  1  0
  4  3  1  0
  4  5  2  0
  6  5  1  0
  7  6  1  0
  8  7  2  0
  8  4  1  0
  9  2  1  0
  9 11  1  0
 10  9  2  0
 12 11  1  0
 12 13  1  0
 13 20  1  0
 14 13  2  0
 16 15  1  0
 17 16  1  0
 17 18  1  6
 19 21  1  0
 19 17  1  0
 19 20  1  6
 21 22  1  0
 23 21  2  0
M  END
$$$$
