HGI.pdb
     RDKit          3D

 23 23  0  0  1  0  0  0  0  0999 V2000
    9.1495  -16.7802   19.0764 N   0  0  0  0  0  0  0  0  0  0  0  0
    7.7528  -16.8788   18.7671 C   0  0  1  0  0  0  0  0  0  0  0  0
    7.4590  -18.2830   18.2465 C   0  0  0  0  0  0  0  0  0  0  0  0
    7.7746  -18.3024   16.7939 C   0  0  0  0  0  0  0  0  0  0  0  0
    8.6284  -17.4381   16.1052 C   0  0  0  0  0  0  0  0  0  0  0  0
    8.6508  -17.7775   14.8071 N   0  0  0  0  0  0  0  0  0  0  0  0
    7.8407  -18.8259   14.6537 C   0  0  0  0  0  0  0  0  0  0  0  0
    7.3072  -19.1485   15.8527 N   0  0  0  0  0  0  0  0  0  0  0  0
    6.9516  -16.5450   19.9373 C   0  0  0  0  0  0  0  0  0  0  0  0
    5.7262  -16.7305   19.9679 O   0  0  0  0  0  0  0  0  0  0  0  0
    7.5936  -15.9844   21.0928 N   0  0  0  0  0  0  0  0  0  0  0  0
    6.8739  -15.6362   22.2682 C   0  0  0  0  0  0  0  0  0  0  0  0
    7.6950  -15.1851   23.3878 C   0  0  0  0  0  0  0  0  0  0  0  0
    8.9796  -15.1813   23.2372 O   0  0  0  0  0  0  0  0  0  0  0  0
    5.8798  -11.2932   26.3615 C   0  0  0  0  0  0  0  0  0  0  0  0
    6.7133  -12.2835   25.5862 C   0  0  0  0  0  0  0  0  0  0  0  0
    7.4312  -13.2476   26.5024 C   0  0  2  0  0  0  0  0  0  0  0  0
    8.3607  -12.5482   27.4653 C   0  0  0  0  0  0  0  0  0  0  0  0
    8.2073  -14.2209   25.6281 C   0  0  2  0  0  0  0  0  0  0  0  0
    7.2706  -14.7382   24.6525 N   0  0  0  0  0  0  0  0  0  0  0  0
    8.7787  -15.3107   26.4656 C   0  0  0  0  0  0  0  0  0  0  0  0
   10.0758  -15.3137   26.9215 O   0  0  0  0  0  0  0  0  0  0  0  0
    8.0326  -16.2684   26.7646 O   0  0  0  0  0  0  0  0  0  0  0  0
  2  1  1  1
  2  3  1  0
  4  3  1  0
  4  5  2  0
  6  5  1  0
  7  6  1  0
  8  7  2  0
  8  4  1  0
  9  2  1  0
  9 11  1  0
 10  9  2  0
 12 11  1  0
 12 13  1  0
 13 20  1  0
 14 13  2  0
 16 15  1  0
 17 16  1  0
 17 18  1  1
 19 21  1  0
 19 17  1  0
 19 20  1  6
 21 22  1  0
 23 21  2  0
M  END
$$$$
