HGI.pdb
     RDKit          3D

 23 23  0  0  1  0  0  0  0  0999 V2000
    9.2737  -17.3709   19.5278 N   0  0  0  0  0  0  0  0  0  0  0  0
   10.1718  -17.8680   20.5291 C   0  0  1  0  0  0  0  0  0  0  0  0
   11.5136  -17.1545   20.3888 C   0  0  0  0  0  0  0  0  0  0  0  0
   12.3092  -17.8836   19.3664 C   0  0  0  0  0  0  0  0  0  0  0  0
   12.3826  -17.6056   17.9998 C   0  0  0  0  0  0  0  0  0  0  0  0
   13.2056  -18.4872   17.4113 N   0  0  0  0  0  0  0  0  0  0  0  0
   13.6535  -19.3111   18.3595 C   0  0  0  0  0  0  0  0  0  0  0  0
   13.1146  -18.9511   19.5454 N   0  0  0  0  0  0  0  0  0  0  0  0
    9.5927  -17.6992   21.8554 C   0  0  0  0  0  0  0  0  0  0  0  0
   10.1307  -18.1657   22.8702 O   0  0  0  0  0  0  0  0  0  0  0  0
    8.3628  -16.9722   21.9987 N   0  0  0  0  0  0  0  0  0  0  0  0
    7.7353  -16.7814   23.2599 C   0  0  0  0  0  0  0  0  0  0  0  0
    8.4529  -15.9085   24.1841 C   0  0  0  0  0  0  0  0  0  0  0  0
    9.6371  -15.5103   23.8493 O   0  0  0  0  0  0  0  0  0  0  0  0
    6.2508  -11.7777   25.9996 C   0  0  0  0  0  0  0  0  0  0  0  0
    7.2439  -12.8306   25.5734 C   0  0  0  0  0  0  0  0  0  0  0  0
    7.9478  -13.4473   26.7602 C   0  0  2  0  0  0  0  0  0  0  0  0
    8.7485  -12.4377   27.5475 C   0  0  0  0  0  0  0  0  0  0  0  0
    8.8543  -14.5500   26.2346 C   0  0  2  0  0  0  0  0  0  0  0  0
    8.0225  -15.4223   25.4322 N   0  0  0  0  0  0  0  0  0  0  0  0
    9.4736  -15.2832   27.3724 C   0  0  0  0  0  0  0  0  0  0  0  0
    8.9190  -16.4054   27.9410 O   0  0  0  0  0  0  0  0  0  0  0  0
   10.5539  -14.8483   27.8273 O   0  0  0  0  0  0  0  0  0  0  0  0
  2  1  1  6
  2  3  1  0
  4  3  1  0
  4  5  2  0
  6  5  1  0
  7  6  1  0
  8  7  2  0
  8  4  1  0
  9  2  1  0
  9 11  1  0
 10  9  2  0
 12 11  1  0
 12 13  1  0
 13 20  1  0
 14 13  2  0
 16 15  1  0
 17 16  1  0
 17 18  1  6
 19 21  1  0
 19 17  1  0
 19 20  1  1
 21 22  1  0
 23 21  2  0
M  END
$$$$
