HGI.pdb
     RDKit          3D

 23 23  0  0  1  0  0  0  0  0999 V2000
    8.3063  -16.2358   19.8117 N   0  0  0  0  0  0  0  0  0  0  0  0
    7.8227  -15.0346   20.4278 C   0  0  1  0  0  0  0  0  0  0  0  0
    6.6705  -14.4802   19.5946 C   0  0  0  0  0  0  0  0  0  0  0  0
    7.2068  -14.1393   18.2507 C   0  0  0  0  0  0  0  0  0  0  0  0
    8.1380  -13.1454   17.9421 C   0  0  0  0  0  0  0  0  0  0  0  0
    8.3678  -13.1476   16.6200 N   0  0  0  0  0  0  0  0  0  0  0  0
    7.6137  -14.1085   16.0845 C   0  0  0  0  0  0  0  0  0  0  0  0
    6.9085  -14.7126   17.0664 N   0  0  0  0  0  0  0  0  0  0  0  0
    7.4309  -15.2966   21.8064 C   0  0  0  0  0  0  0  0  0  0  0  0
    6.9912  -14.4029   22.5445 O   0  0  0  0  0  0  0  0  0  0  0  0
    7.5551  -16.6270   22.3323 N   0  0  0  0  0  0  0  0  0  0  0  0
    7.2397  -16.9432   23.6819 C   0  0  0  0  0  0  0  0  0  0  0  0
    8.0919  -16.3090   24.6832 C   0  0  0  0  0  0  0  0  0  0  0  0
    9.3731  -16.3645   24.5148 O   0  0  0  0  0  0  0  0  0  0  0  0
    6.3521  -11.9914   27.0195 C   0  0  0  0  0  0  0  0  0  0  0  0
    7.1881  -13.0811   26.3949 C   0  0  0  0  0  0  0  0  0  0  0  0
    7.9510  -13.8663   27.4368 C   0  0  2  0  0  0  0  0  0  0  0  0
    8.9354  -13.0124   28.1996 C   0  0  0  0  0  0  0  0  0  0  0  0
    8.6731  -14.9982   26.7216 C   0  0  2  0  0  0  0  0  0  0  0  0
    7.7018  -15.6214   25.8470 N   0  0  0  0  0  0  0  0  0  0  0  0
    9.2103  -15.9662   27.7166 C   0  0  0  0  0  0  0  0  0  0  0  0
   10.4634  -15.8627   28.2727 O   0  0  0  0  0  0  0  0  0  0  0  0
    8.4764  -16.9193   28.0577 O   0  0  0  0  0  0  0  0  0  0  0  0
  2  1  1  6
  2  3  1  0
  4  3  1  0
  4  5  2  0
  6  5  1  0
  7  6  1  0
  8  7  2  0
  8  4  1  0
  9  2  1  0
  9 11  1  0
 10  9  2  0
 12 11  1  0
 12 13  1  0
 13 20  1  0
 14 13  2  0
 16 15  1  0
 17 16  1  0
 17 18  1  6
 19 21  1  0
 19 17  1  0
 19 20  1  6
 21 22  1  0
 23 21  2  0
M  END
$$$$
