HGI.pdb
     RDKit          3D

 23 23  0  0  1  0  0  0  0  0999 V2000
    6.5053  -13.7318   21.3868 N   0  0  0  0  0  0  0  0  0  0  0  0
    6.3784  -15.1433   21.1681 C   0  0  1  0  0  0  0  0  0  0  0  0
    6.1814  -15.3972   19.6761 C   0  0  0  0  0  0  0  0  0  0  0  0
    7.2760  -14.7011   18.9501 C   0  0  0  0  0  0  0  0  0  0  0  0
    7.5486  -13.3315   18.9485 C   0  0  0  0  0  0  0  0  0  0  0  0
    8.6177  -13.0927   18.1734 N   0  0  0  0  0  0  0  0  0  0  0  0
    9.0285  -14.2644   17.6863 C   0  0  0  0  0  0  0  0  0  0  0  0
    8.2204  -15.2420   18.1528 N   0  0  0  0  0  0  0  0  0  0  0  0
    7.5411  -15.8430   21.6983 C   0  0  0  0  0  0  0  0  0  0  0  0
    7.5986  -17.0806   21.7415 O   0  0  0  0  0  0  0  0  0  0  0  0
    8.6571  -15.0830   22.1870 N   0  0  0  0  0  0  0  0  0  0  0  0
    9.7889  -15.6966   22.7899 C   0  0  0  0  0  0  0  0  0  0  0  0
    9.7569  -15.7605   24.2480 C   0  0  0  0  0  0  0  0  0  0  0  0
   10.7874  -16.2489   24.8582 O   0  0  0  0  0  0  0  0  0  0  0  0
    6.0845  -12.7941   27.1228 C   0  0  0  0  0  0  0  0  0  0  0  0
    6.8440  -13.9776   26.5762 C   0  0  0  0  0  0  0  0  0  0  0  0
    8.2978  -13.9469   26.9882 C   0  0  2  0  0  0  0  0  0  0  0  0
    9.0434  -12.7756   26.3945 C   0  0  0  0  0  0  0  0  0  0  0  0
    8.9290  -15.2578   26.5443 C   0  0  2  0  0  0  0  0  0  0  0  0
    8.7261  -15.3512   25.1136 N   0  0  0  0  0  0  0  0  0  0  0  0
    8.2912  -16.3963   27.2603 C   0  0  0  0  0  0  0  0  0  0  0  0
    8.5193  -16.6795   28.5862 O   0  0  0  0  0  0  0  0  0  0  0  0
    7.5091  -17.1268   26.6138 O   0  0  0  0  0  0  0  0  0  0  0  0
  2  1  1  6
  2  3  1  0
  4  3  1  0
  4  5  2  0
  6  5  1  0
  7  6  1  0
  8  7  2  0
  8  4  1  0
  9  2  1  0
  9 11  1  0
 10  9  2  0
 12 11  1  0
 12 13  1  0
 13 20  1  0
 14 13  2  0
 16 15  1  0
 17 16  1  0
 17 18  1  6
 19 21  1  0
 19 17  1  0
 19 20  1  6
 21 22  1  0
 23 21  2  0
M  END
$$$$
