HGI.pdb
     RDKit          3D

 23 23  0  0  1  0  0  0  0  0999 V2000
    7.1638  -16.5033   19.7801 N   0  0  0  0  0  0  0  0  0  0  0  0
    8.4715  -16.0090   20.0994 C   0  0  1  0  0  0  0  0  0  0  0  0
    8.5184  -14.5110   19.8109 C   0  0  0  0  0  0  0  0  0  0  0  0
    8.3604  -14.3274   18.3442 C   0  0  0  0  0  0  0  0  0  0  0  0
    9.0714  -14.9758   17.3321 C   0  0  0  0  0  0  0  0  0  0  0  0
    8.6403  -14.5406   16.1382 N   0  0  0  0  0  0  0  0  0  0  0  0
    7.6821  -13.6404   16.3625 C   0  0  0  0  0  0  0  0  0  0  0  0
    7.5079  -13.5068   17.6960 N   0  0  0  0  0  0  0  0  0  0  0  0
    8.8027  -16.3150   21.4848 C   0  0  0  0  0  0  0  0  0  0  0  0
    9.9298  -16.0978   21.9531 O   0  0  0  0  0  0  0  0  0  0  0  0
    7.7989  -16.8850   22.3387 N   0  0  0  0  0  0  0  0  0  0  0  0
    8.0882  -17.3373   23.6550 C   0  0  0  0  0  0  0  0  0  0  0  0
    8.6541  -16.3297   24.5469 C   0  0  0  0  0  0  0  0  0  0  0  0
    9.9281  -16.3601   24.7685 O   0  0  0  0  0  0  0  0  0  0  0  0
    5.7612  -12.1101   26.9794 C   0  0  0  0  0  0  0  0  0  0  0  0
    6.5738  -13.3699   26.8092 C   0  0  0  0  0  0  0  0  0  0  0  0
    7.8965  -13.0941   26.1319 C   0  0  2  0  0  0  0  0  0  0  0  0
    7.7287  -12.5640   24.7279 C   0  0  0  0  0  0  0  0  0  0  0  0
    8.6852  -14.3947   26.1173 C   0  0  2  0  0  0  0  0  0  0  0  0
    7.9851  -15.2933   25.2234 N   0  0  0  0  0  0  0  0  0  0  0  0
    8.7692  -14.9528   27.4947 C   0  0  0  0  0  0  0  0  0  0  0  0
    9.5329  -14.3943   28.4922 O   0  0  0  0  0  0  0  0  0  0  0  0
    8.1072  -15.9829   27.7476 O   0  0  0  0  0  0  0  0  0  0  0  0
  2  1  1  1
  2  3  1  0
  4  3  1  0
  4  5  2  0
  6  5  1  0
  7  6  1  0
  8  7  2  0
  8  4  1  0
  9  2  1  0
  9 11  1  0
 10  9  2  0
 12 11  1  0
 12 13  1  0
 13 20  1  0
 14 13  2  0
 16 15  1  0
 17 16  1  0
 17 18  1  6
 19 21  1  0
 19 17  1  0
 19 20  1  6
 21 22  1  0
 23 21  2  0
M  END
$$$$
