TSF.pdb
     RDKit          3D

 25 25  0  0  1  0  0  0  0  0999 V2000
   10.4977  -13.6737   20.2252 C   0  0  0  0  0  0  0  0  0  0  0  0
    9.3381  -12.9763   19.5837 C   0  0  1  0  0  0  0  0  0  0  0  0
    9.7130  -12.3450   18.4106 O   0  0  0  0  0  0  0  0  0  0  0  0
    8.2039  -13.9515   19.2563 C   0  0  2  0  0  0  0  0  0  0  0  0
    7.1348  -13.2218   18.6000 N   0  0  0  0  0  0  0  0  0  0  0  0
    7.7057  -14.5182   20.5375 C   0  0  0  0  0  0  0  0  0  0  0  0
    6.9678  -13.8227   21.2819 O   0  0  0  0  0  0  0  0  0  0  0  0
    8.6047  -18.3608   21.6459 O   0  0  0  0  0  0  0  0  0  0  0  0
    7.3364  -17.8875   22.0195 C   0  0  0  0  0  0  0  0  0  0  0  0
    7.4623  -16.3682   22.1486 C   0  0  2  0  0  0  0  0  0  0  0  0
    8.0445  -15.8281   20.9399 N   0  0  0  0  0  0  0  0  0  0  0  0
    8.2923  -16.0945   23.3414 C   0  0  0  0  0  0  0  0  0  0  0  0
    9.5082  -15.8268   23.1201 O   0  0  0  0  0  0  0  0  0  0  0  0
    7.7575  -16.1298   24.6553 N   0  0  0  0  0  0  0  0  0  0  0  0
    8.6897  -15.8593   25.7485 C   0  0  1  0  0  0  0  0  0  0  0  0
    7.8308  -15.2843   26.8640 C   0  0  0  0  0  0  0  0  0  0  0  0
    7.3599  -13.9124   26.5614 C   0  0  0  0  0  0  0  0  0  0  0  0
    8.2142  -12.8113   26.6619 C   0  0  0  0  0  0  0  0  0  0  0  0
    7.7163  -11.5742   26.3558 C   0  0  0  0  0  0  0  0  0  0  0  0
    6.4105  -11.4332   25.9618 C   0  0  0  0  0  0  0  0  0  0  0  0
    5.5557  -12.4987   25.8562 C   0  0  0  0  0  0  0  0  0  0  0  0
    6.0497  -13.7536   26.1635 C   0  0  0  0  0  0  0  0  0  0  0  0
    9.2425  -17.1695   26.1620 C   0  0  0  0  0  0  0  0  0  0  0  0
   10.1380  -17.2612   27.0375 O   0  0  0  0  0  0  0  0  0  0  0  0
    8.8102  -18.3862   25.6115 O   0  0  0  0  0  0  0  0  0  0  0  0
  2  1  1  6
  3  2  1  0
  4  6  1  0
  4  2  1  0
  4  5  1  1
  6  7  2  0
  9  8  1  0
 10  9  1  6
 10 12  1  0
 11 10  1  0
 11  6  1  0
 12 13  2  0
 12 14  1  0
 14 15  1  0
 15 16  1  1
 16 17  1  0
 17 18  2  0
 18 19  1  0
 20 19  2  0
 21 20  1  0
 22 17  1  0
 22 21  2  0
 23 25  1  0
 23 15  1  0
 24 23  2  0
M  END
$$$$
