TSF.pdb
     RDKit          3D

 25 25  0  0  1  0  0  0  0  0999 V2000
    8.6183  -12.1170   19.0611 C   0  0  0  0  0  0  0  0  0  0  0  0
    8.6016  -13.0632   20.2217 C   0  0  1  0  0  0  0  0  0  0  0  0
    7.8906  -12.5428   21.2890 O   0  0  0  0  0  0  0  0  0  0  0  0
    7.9745  -14.4082   19.8444 C   0  0  2  0  0  0  0  0  0  0  0  0
    6.6198  -14.1777   19.3774 N   0  0  0  0  0  0  0  0  0  0  0  0
    7.9421  -15.2550   21.0661 C   0  0  0  0  0  0  0  0  0  0  0  0
    6.9189  -15.2549   21.7980 O   0  0  0  0  0  0  0  0  0  0  0  0
   11.1296  -17.6246   22.1077 O   0  0  0  0  0  0  0  0  0  0  0  0
    9.8544  -18.1550   22.3619 C   0  0  0  0  0  0  0  0  0  0  0  0
    8.9193  -16.9596   22.5550 C   0  0  2  0  0  0  0  0  0  0  0  0
    9.0411  -16.0645   21.4255 N   0  0  0  0  0  0  0  0  0  0  0  0
    9.2935  -16.3086   23.8289 C   0  0  0  0  0  0  0  0  0  0  0  0
   10.1169  -15.3529   23.7412 O   0  0  0  0  0  0  0  0  0  0  0  0
    8.7611  -16.7301   25.0749 N   0  0  0  0  0  0  0  0  0  0  0  0
    9.3340  -16.1171   26.2721 C   0  0  1  0  0  0  0  0  0  0  0  0
    8.1366  -15.7124   27.1177 C   0  0  0  0  0  0  0  0  0  0  0  0
    7.6409  -14.3576   26.7794 C   0  0  0  0  0  0  0  0  0  0  0  0
    6.3365  -14.1533   26.3225 C   0  0  0  0  0  0  0  0  0  0  0  0
    5.9411  -12.8742   26.0402 C   0  0  0  0  0  0  0  0  0  0  0  0
    6.8131  -11.8290   26.2061 C   0  0  0  0  0  0  0  0  0  0  0  0
    8.0961  -12.0064   26.6530 C   0  0  0  0  0  0  0  0  0  0  0  0
    8.5052  -13.2959   26.9412 C   0  0  0  0  0  0  0  0  0  0  0  0
   10.1017  -17.1799   26.9609 C   0  0  0  0  0  0  0  0  0  0  0  0
   10.0581  -18.3763   26.5821 O   0  0  0  0  0  0  0  0  0  0  0  0
   10.9221  -16.9283   28.0717 O   0  0  0  0  0  0  0  0  0  0  0  0
  2  1  1  6
  3  2  1  0
  4  6  1  0
  4  2  1  0
  4  5  1  1
  6  7  2  0
  9  8  1  0
 10  9  1  6
 10 12  1  0
 11 10  1  0
 11  6  1  0
 12 13  2  0
 12 14  1  0
 14 15  1  0
 15 16  1  1
 16 17  1  0
 17 18  2  0
 18 19  1  0
 20 19  2  0
 21 20  1  0
 22 17  1  0
 22 21  2  0
 23 25  1  0
 23 15  1  0
 24 23  2  0
M  END
$$$$
