TSF.pdb
     RDKit          3D

 25 25  0  0  1  0  0  0  0  0999 V2000
    8.1136  -12.4580   17.5682 C   0  0  0  0  0  0  0  0  0  0  0  0
    7.7220  -13.2309   18.7896 C   0  0  1  0  0  0  0  0  0  0  0  0
    6.8065  -14.2239   18.4884 O   0  0  0  0  0  0  0  0  0  0  0  0
    8.9346  -13.8889   19.4539 C   0  0  2  0  0  0  0  0  0  0  0  0
    9.4070  -14.9654   18.6028 N   0  0  0  0  0  0  0  0  0  0  0  0
    8.4930  -14.4451   20.7603 C   0  0  0  0  0  0  0  0  0  0  0  0
    8.2203  -13.6659   21.7096 O   0  0  0  0  0  0  0  0  0  0  0  0
    8.7473  -18.4290   21.5798 O   0  0  0  0  0  0  0  0  0  0  0  0
    7.6095  -17.8228   22.1366 C   0  0  0  0  0  0  0  0  0  0  0  0
    7.9240  -16.3294   22.2443 C   0  0  2  0  0  0  0  0  0  0  0  0
    8.3722  -15.8370   20.9605 N   0  0  0  0  0  0  0  0  0  0  0  0
    8.9516  -16.1701   23.2957 C   0  0  0  0  0  0  0  0  0  0  0  0
   10.1462  -16.3805   22.9384 O   0  0  0  0  0  0  0  0  0  0  0  0
    8.6182  -15.8032   24.6252 N   0  0  0  0  0  0  0  0  0  0  0  0
    9.7176  -15.7631   25.5880 C   0  0  1  0  0  0  0  0  0  0  0  0
    9.8248  -14.3036   26.0015 C   0  0  0  0  0  0  0  0  0  0  0  0
    8.4975  -13.6781   26.2075 C   0  0  0  0  0  0  0  0  0  0  0  0
    7.7883  -13.1102   25.1460 C   0  0  0  0  0  0  0  0  0  0  0  0
    6.5626  -12.5604   25.4054 C   0  0  0  0  0  0  0  0  0  0  0  0
    6.0553  -12.5734   26.6793 C   0  0  0  0  0  0  0  0  0  0  0  0
    6.7331  -13.1248   27.7346 C   0  0  0  0  0  0  0  0  0  0  0  0
    7.9732  -13.6833   27.4823 C   0  0  0  0  0  0  0  0  0  0  0  0
    9.2924  -16.5850   26.7443 C   0  0  0  0  0  0  0  0  0  0  0  0
   10.0118  -16.7085   27.7662 O   0  0  0  0  0  0  0  0  0  0  0  0
    8.0708  -17.2754   26.7795 O   0  0  0  0  0  0  0  0  0  0  0  0
  2  1  1  6
  3  2  1  0
  4  6  1  0
  4  2  1  0
  4  5  1  6
  6  7  2  0
  9  8  1  0
 10  9  1  6
 10 12  1  0
 11 10  1  0
 11  6  1  0
 12 13  2  0
 12 14  1  0
 14 15  1  0
 15 16  1  1
 16 17  1  0
 17 18  2  0
 18 19  1  0
 20 19  2  0
 21 20  1  0
 22 17  1  0
 22 21  2  0
 23 25  1  0
 23 15  1  0
 24 23  2  0
M  END
$$$$
