TSF.pdb
     RDKit          3D

 25 25  0  0  1  0  0  0  0  0999 V2000
   10.4356  -14.1180   17.4342 C   0  0  0  0  0  0  0  0  0  0  0  0
    9.8946  -14.4390   18.7932 C   0  0  1  0  0  0  0  0  0  0  0  0
   10.5488  -13.7233   19.7805 O   0  0  0  0  0  0  0  0  0  0  0  0
    8.3987  -14.1275   18.8931 C   0  0  2  0  0  0  0  0  0  0  0  0
    8.2031  -12.7040   18.6892 N   0  0  0  0  0  0  0  0  0  0  0  0
    7.9454  -14.5012   20.2591 C   0  0  0  0  0  0  0  0  0  0  0  0
    7.6379  -13.6010   21.0822 O   0  0  0  0  0  0  0  0  0  0  0  0
    7.9338  -18.3929   21.5447 O   0  0  0  0  0  0  0  0  0  0  0  0
    6.8199  -17.6366   21.9443 C   0  0  0  0  0  0  0  0  0  0  0  0
    7.2659  -16.1732   21.9384 C   0  0  2  0  0  0  0  0  0  0  0  0
    7.8518  -15.8527   20.6555 N   0  0  0  0  0  0  0  0  0  0  0  0
    8.2242  -15.9999   23.0512 C   0  0  0  0  0  0  0  0  0  0  0  0
    9.4477  -15.9909   22.7317 O   0  0  0  0  0  0  0  0  0  0  0  0
    7.7975  -15.8526   24.3964 N   0  0  0  0  0  0  0  0  0  0  0  0
    8.8430  -15.6292   25.3936 C   0  0  1  0  0  0  0  0  0  0  0  0
    8.1090  -15.1248   26.6263 C   0  0  0  0  0  0  0  0  0  0  0  0
    7.5835  -13.7513   26.4455 C   0  0  0  0  0  0  0  0  0  0  0  0
    8.4205  -12.6945   26.0782 C   0  0  0  0  0  0  0  0  0  0  0  0
    7.8662  -11.4541   25.9168 C   0  0  0  0  0  0  0  0  0  0  0  0
    6.5221  -11.2671   26.1138 C   0  0  0  0  0  0  0  0  0  0  0  0
    5.6832  -12.2886   26.4740 C   0  0  0  0  0  0  0  0  0  0  0  0
    6.2341  -13.5465   26.6394 C   0  0  0  0  0  0  0  0  0  0  0  0
    9.4463  -16.9527   25.6722 C   0  0  0  0  0  0  0  0  0  0  0  0
    8.8718  -18.0212   25.3481 O   0  0  0  0  0  0  0  0  0  0  0  0
   10.6874  -17.1045   26.3103 O   0  0  0  0  0  0  0  0  0  0  0  0
  2  1  1  6
  3  2  1  0
  4  6  1  0
  4  2  1  0
  4  5  1  1
  6  7  2  0
  9  8  1  0
 10  9  1  6
 10 12  1  0
 11 10  1  0
 11  6  1  0
 12 13  2  0
 12 14  1  0
 14 15  1  0
 15 16  1  1
 16 17  1  0
 17 18  2  0
 18 19  1  0
 20 19  2  0
 21 20  1  0
 22 17  1  0
 22 21  2  0
 23 25  1  0
 23 15  1  0
 24 23  2  0
M  END
$$$$
