TSF.pdb
     RDKit          3D

 25 25  0  0  1  0  0  0  0  0999 V2000
    9.4658  -13.0632   18.1176 C   0  0  0  0  0  0  0  0  0  0  0  0
    9.1010  -13.7650   19.3892 C   0  0  1  0  0  0  0  0  0  0  0  0
    9.1826  -12.9148   20.4781 O   0  0  0  0  0  0  0  0  0  0  0  0
    7.6789  -14.3302   19.3339 C   0  0  2  0  0  0  0  0  0  0  0  0
    6.7461  -13.2324   19.1577 N   0  0  0  0  0  0  0  0  0  0  0  0
    7.4079  -15.0103   20.6281 C   0  0  0  0  0  0  0  0  0  0  0  0
    6.7173  -14.4300   21.5049 O   0  0  0  0  0  0  0  0  0  0  0  0
    7.1840  -19.1561   23.0093 O   0  0  0  0  0  0  0  0  0  0  0  0
    7.7602  -18.5078   21.9049 C   0  0  0  0  0  0  0  0  0  0  0  0
    7.4261  -17.0222   22.0526 C   0  0  2  0  0  0  0  0  0  0  0  0
    7.9114  -16.3013   20.8965 N   0  0  0  0  0  0  0  0  0  0  0  0
    8.0502  -16.5528   23.3084 C   0  0  0  0  0  0  0  0  0  0  0  0
    9.2486  -16.1597   23.2177 O   0  0  0  0  0  0  0  0  0  0  0  0
    7.3474  -16.5438   24.5411 N   0  0  0  0  0  0  0  0  0  0  0  0
    8.0811  -16.0588   25.7089 C   0  0  1  0  0  0  0  0  0  0  0  0
    7.0182  -15.4734   26.6255 C   0  0  0  0  0  0  0  0  0  0  0  0
    6.9919  -13.9925   26.5829 C   0  0  0  0  0  0  0  0  0  0  0  0
    8.1322  -13.2538   26.2568 C   0  0  0  0  0  0  0  0  0  0  0  0
    8.0336  -11.8895   26.2244 C   0  0  0  0  0  0  0  0  0  0  0  0
    6.8401  -11.2762   26.5068 C   0  0  0  0  0  0  0  0  0  0  0  0
    5.7100  -11.9807   26.8287 C   0  0  0  0  0  0  0  0  0  0  0  0
    5.7995  -13.3605   26.8639 C   0  0  0  0  0  0  0  0  0  0  0  0
    8.6940  -17.2487   26.3428 C   0  0  0  0  0  0  0  0  0  0  0  0
    8.3250  -18.4138   26.0542 O   0  0  0  0  0  0  0  0  0  0  0  0
    9.7179  -17.1596   27.2989 O   0  0  0  0  0  0  0  0  0  0  0  0
  2  1  1  6
  3  2  1  0
  4  6  1  0
  4  2  1  0
  4  5  1  1
  6  7  2  0
  9  8  1  0
 10  9  1  6
 10 12  1  0
 11 10  1  0
 11  6  1  0
 12 13  2  0
 12 14  1  0
 14 15  1  0
 15 16  1  1
 16 17  1  0
 17 18  2  0
 18 19  1  0
 20 19  2  0
 21 20  1  0
 22 17  1  0
 22 21  2  0
 23 25  1  0
 23 15  1  0
 24 23  2  0
M  END
$$$$
