TSF.pdb
     RDKit          3D

 25 25  0  0  1  0  0  0  0  0999 V2000
    9.8260  -14.2356   17.2250 C   0  0  0  0  0  0  0  0  0  0  0  0
    9.4214  -14.5509   18.6319 C   0  0  1  0  0  0  0  0  0  0  0  0
   10.2641  -13.9467   19.5485 O   0  0  0  0  0  0  0  0  0  0  0  0
    7.9915  -14.0882   18.9250 C   0  0  2  0  0  0  0  0  0  0  0  0
    7.9336  -12.6432   18.8041 N   0  0  0  0  0  0  0  0  0  0  0  0
    7.6609  -14.4842   20.3197 C   0  0  0  0  0  0  0  0  0  0  0  0
    7.5854  -13.6050   21.2163 O   0  0  0  0  0  0  0  0  0  0  0  0
    7.5684  -18.3853   21.6525 O   0  0  0  0  0  0  0  0  0  0  0  0
    6.4539  -17.6081   22.0075 C   0  0  0  0  0  0  0  0  0  0  0  0
    6.9160  -16.1500   21.9772 C   0  0  2  0  0  0  0  0  0  0  0  0
    7.4284  -15.8336   20.6623 N   0  0  0  0  0  0  0  0  0  0  0  0
    7.9406  -15.9902   23.0314 C   0  0  0  0  0  0  0  0  0  0  0  0
    9.1372  -15.9034   22.6317 O   0  0  0  0  0  0  0  0  0  0  0  0
    7.6025  -15.9375   24.4085 N   0  0  0  0  0  0  0  0  0  0  0  0
    8.6914  -15.6441   25.3388 C   0  0  1  0  0  0  0  0  0  0  0  0
    8.0073  -15.1207   26.5920 C   0  0  0  0  0  0  0  0  0  0  0  0
    7.3878  -13.7913   26.3815 C   0  0  0  0  0  0  0  0  0  0  0  0
    8.1142  -12.7277   25.8401 C   0  0  0  0  0  0  0  0  0  0  0  0
    7.4759  -11.5307   25.6616 C   0  0  0  0  0  0  0  0  0  0  0  0
    6.1568  -11.3926   26.0096 C   0  0  0  0  0  0  0  0  0  0  0  0
    5.4256  -12.4219   26.5417 C   0  0  0  0  0  0  0  0  0  0  0  0
    6.0620  -13.6361   26.7258 C   0  0  0  0  0  0  0  0  0  0  0  0
    9.3549  -16.9361   25.6285 C   0  0  0  0  0  0  0  0  0  0  0  0
    8.8366  -18.0320   25.3011 O   0  0  0  0  0  0  0  0  0  0  0  0
   10.5943  -17.0260   26.2813 O   0  0  0  0  0  0  0  0  0  0  0  0
  2  1  1  6
  3  2  1  0
  4  6  1  0
  4  2  1  0
  4  5  1  1
  6  7  2  0
  9  8  1  0
 10  9  1  6
 10 12  1  0
 11 10  1  0
 11  6  1  0
 12 13  2  0
 12 14  1  0
 14 15  1  0
 15 16  1  1
 16 17  1  0
 17 18  2  0
 18 19  1  0
 20 19  2  0
 21 20  1  0
 22 17  1  0
 22 21  2  0
 23 25  1  0
 23 15  1  0
 24 23  2  0
M  END
$$$$
