TSF.pdb
     RDKit          3D

 25 25  0  0  1  0  0  0  0  0999 V2000
    9.0341  -12.4853   20.4681 C   0  0  0  0  0  0  0  0  0  0  0  0
    8.3469  -12.9116   19.2077 C   0  0  1  0  0  0  0  0  0  0  0  0
    8.7194  -12.1200   18.1354 O   0  0  0  0  0  0  0  0  0  0  0  0
    8.6653  -14.3675   18.8561 C   0  0  2  0  0  0  0  0  0  0  0  0
    7.9235  -14.7333   17.6635 N   0  0  0  0  0  0  0  0  0  0  0  0
    8.2275  -15.2179   19.9946 C   0  0  0  0  0  0  0  0  0  0  0  0
    7.0286  -15.5918   20.0686 O   0  0  0  0  0  0  0  0  0  0  0  0
   10.4474  -17.8469   21.4686 O   0  0  0  0  0  0  0  0  0  0  0  0
    9.0959  -17.8959   21.8469 C   0  0  0  0  0  0  0  0  0  0  0  0
    8.6607  -16.4488   22.0860 C   0  0  2  0  0  0  0  0  0  0  0  0
    9.1330  -15.6176   21.0008 N   0  0  0  0  0  0  0  0  0  0  0  0
    9.2138  -16.0324   23.3927 C   0  0  0  0  0  0  0  0  0  0  0  0
   10.3574  -15.4936   23.3633 O   0  0  0  0  0  0  0  0  0  0  0  0
    8.5047  -16.2252   24.6065 N   0  0  0  0  0  0  0  0  0  0  0  0
    9.1484  -15.7367   25.8249 C   0  0  1  0  0  0  0  0  0  0  0  0
    8.0025  -15.3445   26.7445 C   0  0  0  0  0  0  0  0  0  0  0  0
    7.4307  -14.0221   26.3985 C   0  0  0  0  0  0  0  0  0  0  0  0
    8.2003  -12.8576   26.4618 C   0  0  0  0  0  0  0  0  0  0  0  0
    7.6117  -11.6717   26.1166 C   0  0  0  0  0  0  0  0  0  0  0  0
    6.2992  -11.6414   25.7206 C   0  0  0  0  0  0  0  0  0  0  0  0
    5.5264  -12.7706   25.6512 C   0  0  0  0  0  0  0  0  0  0  0  0
    6.1126  -13.9745   25.9980 C   0  0  0  0  0  0  0  0  0  0  0  0
    9.8854  -16.8858   26.3993 C   0  0  0  0  0  0  0  0  0  0  0  0
    9.7152  -18.0563   25.9775 O   0  0  0  0  0  0  0  0  0  0  0  0
   10.8145  -16.7496   27.4426 O   0  0  0  0  0  0  0  0  0  0  0  0
  2  1  1  1
  3  2  1  0
  4  6  1  0
  4  2  1  0
  4  5  1  6
  6  7  2  0
  9  8  1  0
 10  9  1  6
 10 12  1  0
 11 10  1  0
 11  6  1  0
 12 13  2  0
 12 14  1  0
 14 15  1  0
 15 16  1  1
 16 17  1  0
 17 18  2  0
 18 19  1  0
 20 19  2  0
 21 20  1  0
 22 17  1  0
 22 21  2  0
 23 25  1  0
 23 15  1  0
 24 23  2  0
M  END
$$$$
