LLM.pdb
     RDKit          3D

 25 24  0  0  1  0  0  0  0  0999 V2000
   24.2365  -17.1997  -17.1007 C   0  0  0  0  0  0  0  0  0  0  0  0
   23.2480  -18.2996  -17.4054 C   0  0  2  0  0  0  0  0  0  0  0  0
   22.0407  -17.7651  -18.1068 C   0  0  0  0  0  0  0  0  0  0  0  0
   22.9339  -19.1305  -16.2064 C   0  0  0  0  0  0  0  0  0  0  0  0
   24.1189  -19.7082  -15.5107 C   0  0  2  0  0  0  0  0  0  0  0  0
   24.9328  -20.5621  -16.3501 N   0  0  0  0  0  0  0  0  0  0  0  0
   23.6356  -20.5541  -14.3688 C   0  0  0  0  0  0  0  0  0  0  0  0
   23.1270  -21.6854  -14.5622 O   0  0  0  0  0  0  0  0  0  0  0  0
   25.7910  -20.8629   -9.0114 C   0  0  0  0  0  0  0  0  0  0  0  0
   25.0027  -21.3941  -10.1579 C   0  0  2  0  0  0  0  0  0  0  0  0
   25.9518  -21.4538  -11.3681 C   0  0  0  0  0  0  0  0  0  0  0  0
   23.8305  -20.6105  -10.5927 C   0  0  0  0  0  0  0  0  0  0  0  0
   23.2370  -20.9074  -11.9245 C   0  0  2  0  0  0  0  0  0  0  0  0
   23.7290  -20.1195  -13.0212 N   0  0  0  0  0  0  0  0  0  0  0  0
   21.7484  -20.9472  -11.8920 C   0  0  0  0  0  0  0  0  0  0  0  0
   21.0983  -19.8810  -12.0426 O   0  0  0  0  0  0  0  0  0  0  0  0
   18.1767  -25.8472  -13.9457 C   0  0  0  0  0  0  0  0  0  0  0  0
   16.9494  -24.5170  -13.8633 S   0  0  0  0  0  0  0  0  0  0  0  0
   17.5293  -23.2186  -12.7086 C   0  0  0  0  0  0  0  0  0  0  0  0
   19.0286  -23.1390  -12.7115 C   0  0  0  0  0  0  0  0  0  0  0  0
   19.5183  -22.1431  -11.7263 C   0  0  2  0  0  0  0  0  0  0  0  0
   21.0009  -22.1332  -11.6979 N   0  0  0  0  0  0  0  0  0  0  0  0
   19.0738  -22.4619  -10.3680 C   0  0  0  0  0  0  0  0  0  0  0  0
   19.9049  -22.8749   -9.5234 O   0  0  0  0  0  0  0  0  0  0  0  0
   17.7702  -22.3303   -9.9509 O   0  0  0  0  0  0  0  0  0  0  0  0
  2  1  1  1
  2  3  1  0
  4  2  1  0
  4  5  1  0
  5  7  1  0
  5  6  1  6
  7  8  2  0
 10  9  1  1
 10 12  1  0
 11 10  1  0
 13 12  1  1
 14 13  1  0
 14  7  1  0
 15 16  2  0
 15 13  1  0
 17 18  1  0
 18 19  1  0
 19 20  1  0
 21 20  1  6
 21 23  1  0
 21 22  1  0
 22 15  1  0
 23 25  1  0
 24 23  2  0
M  END
$$$$
