LLM.pdb
     RDKit          3D

 25 24  0  0  1  0  0  0  0  0999 V2000
   21.2554  -18.8103  -16.2254 C   0  0  0  0  0  0  0  0  0  0  0  0
   22.4594  -19.2213  -17.0385 C   0  0  2  0  0  0  0  0  0  0  0  0
   22.0516  -19.8382  -18.3379 C   0  0  0  0  0  0  0  0  0  0  0  0
   23.4224  -20.0463  -16.2520 C   0  0  0  0  0  0  0  0  0  0  0  0
   23.7265  -19.5314  -14.8866 C   0  0  2  0  0  0  0  0  0  0  0  0
   24.2370  -18.1766  -14.8712 N   0  0  0  0  0  0  0  0  0  0  0  0
   24.7846  -20.4019  -14.2736 C   0  0  0  0  0  0  0  0  0  0  0  0
   24.6336  -21.6443  -14.1756 O   0  0  0  0  0  0  0  0  0  0  0  0
   30.6743  -20.2759  -12.0159 C   0  0  0  0  0  0  0  0  0  0  0  0
   29.3694  -20.9309  -12.3099 C   0  0  2  0  0  0  0  0  0  0  0  0
   29.6523  -22.0738  -13.3012 C   0  0  0  0  0  0  0  0  0  0  0  0
   28.3203  -20.0990  -12.9297 C   0  0  0  0  0  0  0  0  0  0  0  0
   26.9480  -20.6626  -13.0448 C   0  0  2  0  0  0  0  0  0  0  0  0
   26.0015  -19.8668  -13.7771 N   0  0  0  0  0  0  0  0  0  0  0  0
   26.4013  -21.1109  -11.7338 C   0  0  0  0  0  0  0  0  0  0  0  0
   26.3623  -22.3397  -11.4684 O   0  0  0  0  0  0  0  0  0  0  0  0
   28.2224  -18.8900   -6.1315 C   0  0  0  0  0  0  0  0  0  0  0  0
   27.0869  -20.2799   -5.8842 S   0  0  0  0  0  0  0  0  0  0  0  0
   25.6346  -20.0881   -6.9840 C   0  0  0  0  0  0  0  0  0  0  0  0
   26.0674  -19.7087   -8.3707 C   0  0  0  0  0  0  0  0  0  0  0  0
   25.5723  -20.6816   -9.3760 C   0  0  2  0  0  0  0  0  0  0  0  0
   25.9114  -20.2244  -10.7453 N   0  0  0  0  0  0  0  0  0  0  0  0
   24.1150  -20.8164   -9.3265 C   0  0  0  0  0  0  0  0  0  0  0  0
   23.5627  -21.2036   -8.2684 O   0  0  0  0  0  0  0  0  0  0  0  0
   23.2951  -20.5347  -10.3938 O   0  0  0  0  0  0  0  0  0  0  0  0
  2  1  1  1
  2  3  1  0
  4  2  1  0
  4  5  1  0
  5  7  1  0
  5  6  1  6
  7  8  2  0
 10  9  1  6
 10 12  1  0
 11 10  1  0
 13 12  1  1
 14 13  1  0
 14  7  1  0
 15 16  2  0
 15 13  1  0
 17 18  1  0
 18 19  1  0
 19 20  1  0
 21 20  1  1
 21 23  1  0
 21 22  1  0
 22 15  1  0
 23 25  1  0
 24 23  2  0
M  END
$$$$
