LLM.pdb
     RDKit          3D

 25 24  0  0  1  0  0  0  0  0999 V2000
   24.4077  -21.5434  -20.4907 C   0  0  0  0  0  0  0  0  0  0  0  0
   23.1662  -22.1616  -19.8941 C   0  0  2  0  0  0  0  0  0  0  0  0
   21.9287  -21.6180  -20.5331 C   0  0  0  0  0  0  0  0  0  0  0  0
   23.1575  -22.0954  -18.4034 C   0  0  0  0  0  0  0  0  0  0  0  0
   24.3988  -22.5896  -17.7424 C   0  0  2  0  0  0  0  0  0  0  0  0
   24.5660  -24.0262  -17.8085 N   0  0  0  0  0  0  0  0  0  0  0  0
   24.3415  -22.2249  -16.2875 C   0  0  0  0  0  0  0  0  0  0  0  0
   23.8325  -22.9976  -15.4390 O   0  0  0  0  0  0  0  0  0  0  0  0
   27.9751  -21.1007  -13.8555 C   0  0  0  0  0  0  0  0  0  0  0  0
   27.2651  -19.9091  -14.3979 C   0  0  2  0  0  0  0  0  0  0  0  0
   28.0583  -18.6690  -13.9489 C   0  0  0  0  0  0  0  0  0  0  0  0
   25.8749  -19.6910  -13.9544 C   0  0  0  0  0  0  0  0  0  0  0  0
   24.8306  -20.6497  -14.4066 C   0  0  2  0  0  0  0  0  0  0  0  0
   24.8569  -20.9954  -15.8013 N   0  0  0  0  0  0  0  0  0  0  0  0
   23.4647  -20.2637  -13.9549 C   0  0  0  0  0  0  0  0  0  0  0  0
   23.2530  -20.0597  -12.7320 O   0  0  0  0  0  0  0  0  0  0  0  0
   19.2206  -17.3750  -17.7427 C   0  0  0  0  0  0  0  0  0  0  0  0
   18.0825  -17.6385  -16.3579 S   0  0  0  0  0  0  0  0  0  0  0  0
   18.9683  -18.4677  -14.9856 C   0  0  0  0  0  0  0  0  0  0  0  0
   20.3470  -18.8772  -15.4166 C   0  0  0  0  0  0  0  0  0  0  0  0
   21.0363  -19.6528  -14.3557 C   0  0  2  0  0  0  0  0  0  0  0  0
   22.3647  -20.1084  -14.8319 N   0  0  0  0  0  0  0  0  0  0  0  0
   20.2853  -20.8556  -13.9903 C   0  0  0  0  0  0  0  0  0  0  0  0
   20.4954  -21.9295  -14.6046 O   0  0  0  0  0  0  0  0  0  0  0  0
   19.3433  -20.8811  -12.9890 O   0  0  0  0  0  0  0  0  0  0  0  0
  2  1  1  6
  2  3  1  0
  4  2  1  0
  4  5  1  0
  5  7  1  0
  5  6  1  1
  7  8  2  0
 10  9  1  1
 10 12  1  0
 11 10  1  0
 13 12  1  6
 14 13  1  0
 14  7  1  0
 15 16  2  0
 15 13  1  0
 17 18  1  0
 18 19  1  0
 19 20  1  0
 21 20  1  6
 21 23  1  0
 21 22  1  0
 22 15  1  0
 23 25  1  0
 24 23  2  0
M  END
$$$$
