LLM.pdb
     RDKit          3D

 25 24  0  0  1  0  0  0  0  0999 V2000
   28.7488  -18.3030  -16.1698 C   0  0  0  0  0  0  0  0  0  0  0  0
   27.8448  -17.1205  -15.9166 C   0  0  2  0  0  0  0  0  0  0  0  0
   28.6349  -15.8683  -15.7089 C   0  0  0  0  0  0  0  0  0  0  0  0
   26.8428  -17.3896  -14.8441 C   0  0  0  0  0  0  0  0  0  0  0  0
   26.1546  -18.7084  -14.9398 C   0  0  2  0  0  0  0  0  0  0  0  0
   25.1688  -18.7798  -15.9978 N   0  0  0  0  0  0  0  0  0  0  0  0
   25.4284  -18.9616  -13.6508 C   0  0  0  0  0  0  0  0  0  0  0  0
   24.7916  -18.0496  -13.0688 O   0  0  0  0  0  0  0  0  0  0  0  0
   21.5764  -19.6891  -12.2335 C   0  0  0  0  0  0  0  0  0  0  0  0
   22.3135  -20.8371  -12.8308 C   0  0  2  0  0  0  0  0  0  0  0  0
   21.3050  -21.9898  -12.9830 C   0  0  0  0  0  0  0  0  0  0  0  0
   23.4497  -21.3832  -12.0640 C   0  0  0  0  0  0  0  0  0  0  0  0
   24.6429  -20.5186  -11.8572 C   0  0  2  0  0  0  0  0  0  0  0  0
   25.4255  -20.2372  -13.0293 N   0  0  0  0  0  0  0  0  0  0  0  0
   25.4894  -20.9735  -10.7192 C   0  0  0  0  0  0  0  0  0  0  0  0
   25.9980  -22.1234  -10.7485 O   0  0  0  0  0  0  0  0  0  0  0  0
   28.5644  -17.6094   -6.2156 C   0  0  0  0  0  0  0  0  0  0  0  0
   28.2643  -19.0684   -5.1843 S   0  0  0  0  0  0  0  0  0  0  0  0
   27.2682  -20.2871   -6.1213 C   0  0  0  0  0  0  0  0  0  0  0  0
   26.9009  -19.7439   -7.4719 C   0  0  0  0  0  0  0  0  0  0  0  0
   26.2166  -20.7691   -8.2984 C   0  0  2  0  0  0  0  0  0  0  0  0
   25.7645  -20.1782   -9.5812 N   0  0  0  0  0  0  0  0  0  0  0  0
   25.0222  -21.2921   -7.6321 C   0  0  0  0  0  0  0  0  0  0  0  0
   25.1204  -22.2834   -6.8692 O   0  0  0  0  0  0  0  0  0  0  0  0
   23.7697  -20.7479   -7.7933 O   0  0  0  0  0  0  0  0  0  0  0  0
  2  1  1  1
  2  3  1  0
  4  2  1  0
  4  5  1  0
  5  7  1  0
  5  6  1  6
  7  8  2  0
 10  9  1  1
 10 12  1  0
 11 10  1  0
 13 12  1  6
 14 13  1  0
 14  7  1  0
 15 16  2  0
 15 13  1  0
 17 18  1  0
 18 19  1  0
 19 20  1  0
 21 20  1  1
 21 23  1  0
 21 22  1  0
 22 15  1  0
 23 25  1  0
 24 23  2  0
M  END
$$$$
