LLM.pdb
     RDKit          3D

 25 24  0  0  1  0  0  0  0  0999 V2000
   17.4084  -15.8521  -16.9403 C   0  0  0  0  0  0  0  0  0  0  0  0
   16.2419  -15.0290  -17.4316 C   0  0  2  0  0  0  0  0  0  0  0  0
   15.6917  -15.5764  -18.7094 C   0  0  0  0  0  0  0  0  0  0  0  0
   16.5556  -13.5710  -17.4823 C   0  0  0  0  0  0  0  0  0  0  0  0
   16.4080  -12.8482  -16.1871 C   0  0  2  0  0  0  0  0  0  0  0  0
   15.0588  -12.8558  -15.6619 N   0  0  0  0  0  0  0  0  0  0  0  0
   16.7845  -11.4105  -16.3981 C   0  0  0  0  0  0  0  0  0  0  0  0
   17.7717  -11.0897  -17.1042 O   0  0  0  0  0  0  0  0  0  0  0  0
   14.6563   -7.4762  -18.1392 C   0  0  0  0  0  0  0  0  0  0  0  0
   14.3026   -7.9259  -16.7641 C   0  0  2  0  0  0  0  0  0  0  0  0
   13.2509   -6.9403  -16.2244 C   0  0  0  0  0  0  0  0  0  0  0  0
   15.3870   -7.9588  -15.7641 C   0  0  0  0  0  0  0  0  0  0  0  0
   16.4614   -8.9763  -15.9204 C   0  0  2  0  0  0  0  0  0  0  0  0
   16.0476  -10.3484  -15.8130 N   0  0  0  0  0  0  0  0  0  0  0  0
   17.6521   -8.6865  -15.0737 C   0  0  0  0  0  0  0  0  0  0  0  0
   17.5936   -8.8918  -13.8342 O   0  0  0  0  0  0  0  0  0  0  0  0
   25.1392   -9.6391  -13.6985 C   0  0  0  0  0  0  0  0  0  0  0  0
   23.6740   -9.9126  -14.7285 S   0  0  0  0  0  0  0  0  0  0  0  0
   22.3310   -8.7868  -14.1953 C   0  0  0  0  0  0  0  0  0  0  0  0
   21.1087   -8.9813  -15.0453 C   0  0  0  0  0  0  0  0  0  0  0  0
   20.0621   -7.9796  -14.7233 C   0  0  2  0  0  0  0  0  0  0  0  0
   18.8723   -8.1834  -15.5846 N   0  0  0  0  0  0  0  0  0  0  0  0
   20.5283   -6.6129  -14.9665 C   0  0  0  0  0  0  0  0  0  0  0  0
   20.1225   -5.9889  -15.9767 O   0  0  0  0  0  0  0  0  0  0  0  0
   21.4023   -5.9550  -14.1334 O   0  0  0  0  0  0  0  0  0  0  0  0
  2  1  1  6
  2  3  1  0
  4  2  1  0
  4  5  1  0
  5  7  1  0
  5  6  1  6
  7  8  2  0
 10  9  1  6
 10 12  1  0
 11 10  1  0
 13 12  1  1
 14 13  1  0
 14  7  1  0
 15 16  2  0
 15 13  1  0
 17 18  1  0
 18 19  1  0
 19 20  1  0
 21 20  1  6
 21 23  1  0
 21 22  1  0
 22 15  1  0
 23 25  1  0
 24 23  2  0
M  END
$$$$
