LLM.pdb
     RDKit          3D

 25 24  0  0  1  0  0  0  0  0999 V2000
   19.2231  -11.3656  -20.9941 C   0  0  0  0  0  0  0  0  0  0  0  0
   18.1638  -10.5447  -20.2986 C   0  0  2  0  0  0  0  0  0  0  0  0
   17.4704   -9.6301  -21.2566 C   0  0  0  0  0  0  0  0  0  0  0  0
   18.6834   -9.8623  -19.0776 C   0  0  0  0  0  0  0  0  0  0  0  0
   19.4662  -10.7314  -18.1535 C   0  0  2  0  0  0  0  0  0  0  0  0
   18.6764  -11.7548  -17.5015 N   0  0  0  0  0  0  0  0  0  0  0  0
   20.0462   -9.8722  -17.0680 C   0  0  0  0  0  0  0  0  0  0  0  0
   19.3244   -9.3839  -16.1643 O   0  0  0  0  0  0  0  0  0  0  0  0
   22.9649  -10.6880  -13.7100 C   0  0  0  0  0  0  0  0  0  0  0  0
   23.6339  -10.3506  -14.9972 C   0  0  2  0  0  0  0  0  0  0  0  0
   25.1511  -10.4183  -14.7475 C   0  0  0  0  0  0  0  0  0  0  0  0
   23.3699   -9.0151  -15.5662 C   0  0  0  0  0  0  0  0  0  0  0  0
   21.9859   -8.6980  -16.0111 C   0  0  2  0  0  0  0  0  0  0  0  0
   21.4315   -9.5706  -17.0094 N   0  0  0  0  0  0  0  0  0  0  0  0
   21.8145   -7.2625  -16.3700 C   0  0  0  0  0  0  0  0  0  0  0  0
   22.1225   -6.8736  -17.5258 O   0  0  0  0  0  0  0  0  0  0  0  0
   17.8664   -0.5835  -16.2120 C   0  0  0  0  0  0  0  0  0  0  0  0
   17.9750   -2.3481  -15.8160 S   0  0  0  0  0  0  0  0  0  0  0  0
   19.7077   -2.9125  -16.0019 C   0  0  0  0  0  0  0  0  0  0  0  0
   19.8162   -4.3855  -15.7319 C   0  0  0  0  0  0  0  0  0  0  0  0
   21.2198   -4.8535  -15.8469 C   0  0  2  0  0  0  0  0  0  0  0  0
   21.3169   -6.2857  -15.4749 N   0  0  0  0  0  0  0  0  0  0  0  0
   22.1096   -4.1227  -14.9422 C   0  0  0  0  0  0  0  0  0  0  0  0
   22.4237   -4.6283  -13.8375 O   0  0  0  0  0  0  0  0  0  0  0  0
   22.6369   -2.8877  -15.2380 O   0  0  0  0  0  0  0  0  0  0  0  0
  2  1  1  6
  2  3  1  0
  4  2  1  0
  4  5  1  0
  5  7  1  0
  5  6  1  1
  7  8  2  0
 10  9  1  1
 10 12  1  0
 11 10  1  0
 13 12  1  6
 14 13  1  0
 14  7  1  0
 15 16  2  0
 15 13  1  0
 17 18  1  0
 18 19  1  0
 19 20  1  0
 21 20  1  1
 21 23  1  0
 21 22  1  0
 22 15  1  0
 23 25  1  0
 24 23  2  0
M  END
$$$$
