KSA.pdb
     RDKit          3D

 21 20  0  0  1  0  0  0  0  0999 V2000
   23.8424  -20.7989   -9.7312 N   0  0  0  0  0  0  0  0  0  0  0  0
   23.8832  -21.1155  -11.1251 C   0  0  1  0  0  0  0  0  0  0  0  0
   22.6627  -20.6176  -11.8726 C   0  0  0  0  0  0  0  0  0  0  0  0
   21.3894  -21.2489  -11.3221 C   0  0  0  0  0  0  0  0  0  0  0  0
   20.2703  -20.8450  -12.2727 C   0  0  0  0  0  0  0  0  0  0  0  0
   18.9696  -21.4730  -11.7633 C   0  0  0  0  0  0  0  0  0  0  0  0
   18.6496  -22.5545  -12.6630 N   0  0  0  0  0  0  0  0  0  0  0  0
   25.0682  -20.4997  -11.7953 C   0  0  0  0  0  0  0  0  0  0  0  0
   25.6223  -19.5094  -11.2900 O   0  0  0  0  0  0  0  0  0  0  0  0
   26.9725  -22.6213  -14.7856 O   0  0  0  0  0  0  0  0  0  0  0  0
   27.6299  -21.6665  -14.0411 C   0  0  0  0  0  0  0  0  0  0  0  0
   26.7508  -20.4881  -13.6822 C   0  0  2  0  0  0  0  0  0  0  0  0
   25.5829  -21.0209  -13.0055 N   0  0  0  0  0  0  0  0  0  0  0  0
   26.2821  -19.7626  -14.8736 C   0  0  0  0  0  0  0  0  0  0  0  0
   25.1894  -20.0956  -15.3855 O   0  0  0  0  0  0  0  0  0  0  0  0
   27.3548  -16.8851  -16.9692 C   0  0  0  0  0  0  0  0  0  0  0  0
   26.5164  -18.1226  -16.6887 C   0  0  2  0  0  0  0  0  0  0  0  0
   27.0148  -18.7052  -15.4639 N   0  0  0  0  0  0  0  0  0  0  0  0
   26.5969  -19.0886  -17.8052 C   0  0  0  0  0  0  0  0  0  0  0  0
   25.9012  -18.8897  -18.8276 O   0  0  0  0  0  0  0  0  0  0  0  0
   27.4097  -20.1924  -17.7518 O   0  0  0  0  0  0  0  0  0  0  0  0
  2  1  1  1
  2  8  1  0
  3  2  1  0
  4  3  1  0
  5  4  1  0
  6  5  1  0
  7  6  1  0
  8  9  2  0
 11 10  1  0
 12 11  1  6
 13 12  1  0
 13  8  1  0
 14 15  2  0
 14 12  1  0
 17 16  1  6
 17 19  1  0
 17 18  1  0
 18 14  1  0
 19 21  1  0
 20 19  2  0
M  END
$$$$
