KSA.pdb
     RDKit          3D

 21 20  0  0  1  0  0  0  0  0999 V2000
   21.7518  -10.5548  -17.1727 N   0  0  0  0  0  0  0  0  0  0  0  0
   20.6215   -9.9230  -17.7791 C   0  0  1  0  0  0  0  0  0  0  0  0
   19.4688  -10.8806  -18.0046 C   0  0  0  0  0  0  0  0  0  0  0  0
   19.9457  -12.1600  -18.6817 C   0  0  0  0  0  0  0  0  0  0  0  0
   18.7559  -13.1105  -18.6787 C   0  0  0  0  0  0  0  0  0  0  0  0
   19.1959  -14.4185  -19.3430 C   0  0  0  0  0  0  0  0  0  0  0  0
   18.0836  -15.3317  -19.2409 N   0  0  0  0  0  0  0  0  0  0  0  0
   20.0887   -8.8147  -16.9302 C   0  0  0  0  0  0  0  0  0  0  0  0
   19.0895   -8.1755  -17.2988 O   0  0  0  0  0  0  0  0  0  0  0  0
   21.7582   -8.3159  -13.1658 O   0  0  0  0  0  0  0  0  0  0  0  0
   20.4267   -8.0310  -13.3755 C   0  0  0  0  0  0  0  0  0  0  0  0
   20.1463   -7.5070  -14.7673 C   0  0  2  0  0  0  0  0  0  0  0  0
   20.6998   -8.4692  -15.7020 N   0  0  0  0  0  0  0  0  0  0  0  0
   20.8051   -6.2151  -15.0167 C   0  0  0  0  0  0  0  0  0  0  0  0
   21.9296   -6.2132  -15.5666 O   0  0  0  0  0  0  0  0  0  0  0  0
   19.9524   -2.6144  -14.8730 C   0  0  0  0  0  0  0  0  0  0  0  0
   20.9463   -3.7624  -14.9584 C   0  0  2  0  0  0  0  0  0  0  0  0
   20.2207   -4.9760  -14.6609 N   0  0  0  0  0  0  0  0  0  0  0  0
   22.0677   -3.5713  -14.0139 C   0  0  0  0  0  0  0  0  0  0  0  0
   22.0309   -4.1552  -12.9064 O   0  0  0  0  0  0  0  0  0  0  0  0
   23.1430   -2.7751  -14.3165 O   0  0  0  0  0  0  0  0  0  0  0  0
  2  1  1  1
  2  8  1  0
  3  2  1  0
  4  3  1  0
  5  4  1  0
  6  5  1  0
  7  6  1  0
  8  9  2  0
 11 10  1  0
 12 11  1  1
 13 12  1  0
 13  8  1  0
 14 15  2  0
 14 12  1  0
 17 16  1  1
 17 19  1  0
 17 18  1  0
 18 14  1  0
 19 21  1  0
 20 19  2  0
M  END
$$$$
