KSA.pdb
     RDKit          3D

 21 20  0  0  1  0  0  0  0  0999 V2000
   20.5706  -10.5984  -18.7336 N   0  0  0  0  0  0  0  0  0  0  0  0
   19.2998  -10.2088  -18.2064 C   0  0  1  0  0  0  0  0  0  0  0  0
   18.3797  -11.3893  -17.9686 C   0  0  0  0  0  0  0  0  0  0  0  0
   18.6928  -12.5288  -18.9310 C   0  0  0  0  0  0  0  0  0  0  0  0
   17.7614  -13.6724  -18.5519 C   0  0  0  0  0  0  0  0  0  0  0  0
   18.0267  -14.8347  -19.5133 C   0  0  0  0  0  0  0  0  0  0  0  0
   17.1524  -15.9114  -19.1156 N   0  0  0  0  0  0  0  0  0  0  0  0
   19.4390   -9.5115  -16.8922 C   0  0  0  0  0  0  0  0  0  0  0  0
   18.4273   -9.1237  -16.2848 O   0  0  0  0  0  0  0  0  0  0  0  0
   23.2886   -8.9510  -15.2030 O   0  0  0  0  0  0  0  0  0  0  0  0
   22.1742   -9.2102  -14.4357 C   0  0  0  0  0  0  0  0  0  0  0  0
   20.9037   -8.6378  -15.0260 C   0  0  2  0  0  0  0  0  0  0  0  0
   20.7086   -9.2779  -16.3137 N   0  0  0  0  0  0  0  0  0  0  0  0
   21.0051   -7.1886  -15.2606 C   0  0  0  0  0  0  0  0  0  0  0  0
   21.5126   -6.7902  -16.3333 O   0  0  0  0  0  0  0  0  0  0  0  0
   19.4986   -4.1087  -14.0216 C   0  0  0  0  0  0  0  0  0  0  0  0
   20.6756   -4.8280  -14.6620 C   0  0  2  0  0  0  0  0  0  0  0  0
   20.5532   -6.2277  -14.3247 N   0  0  0  0  0  0  0  0  0  0  0  0
   21.9629   -4.2794  -14.1845 C   0  0  0  0  0  0  0  0  0  0  0  0
   22.5799   -4.8868  -13.2793 O   0  0  0  0  0  0  0  0  0  0  0  0
   22.4976   -3.1277  -14.7038 O   0  0  0  0  0  0  0  0  0  0  0  0
  2  1  1  1
  2  8  1  0
  3  2  1  0
  4  3  1  0
  5  4  1  0
  6  5  1  0
  7  6  1  0
  8  9  2  0
 11 10  1  0
 12 11  1  6
 13 12  1  0
 13  8  1  0
 14 15  2  0
 14 12  1  0
 17 16  1  1
 17 19  1  0
 17 18  1  0
 18 14  1  0
 19 21  1  0
 20 19  2  0
M  END
$$$$
