KSA.pdb
     RDKit          3D

 21 20  0  0  1  0  0  0  0  0999 V2000
   19.1980  -12.9744  -17.2263 N   0  0  0  0  0  0  0  0  0  0  0  0
   19.2854  -11.5557  -17.3823 C   0  0  1  0  0  0  0  0  0  0  0  0
   17.9261  -10.8973  -17.5066 C   0  0  0  0  0  0  0  0  0  0  0  0
   17.1356  -11.4904  -18.6669 C   0  0  0  0  0  0  0  0  0  0  0  0
   15.8338  -10.7037  -18.7394 C   0  0  0  0  0  0  0  0  0  0  0  0
   15.0511  -11.1990  -19.9591 C   0  0  0  0  0  0  0  0  0  0  0  0
   13.8588  -10.3911  -20.0446 N   0  0  0  0  0  0  0  0  0  0  0  0
   19.9595  -10.9135  -16.2136 C   0  0  0  0  0  0  0  0  0  0  0  0
   19.5587  -11.1457  -15.0610 O   0  0  0  0  0  0  0  0  0  0  0  0
   23.7130   -9.3285  -16.6636 O   0  0  0  0  0  0  0  0  0  0  0  0
   23.2050   -9.6614  -15.4270 C   0  0  0  0  0  0  0  0  0  0  0  0
   21.7282   -9.3589  -15.2937 C   0  0  2  0  0  0  0  0  0  0  0  0
   21.0561  -10.0368  -16.3866 N   0  0  0  0  0  0  0  0  0  0  0  0
   21.4431   -7.9208  -15.4199 C   0  0  0  0  0  0  0  0  0  0  0  0
   21.0894   -7.4766  -16.5355 O   0  0  0  0  0  0  0  0  0  0  0  0
   21.1706   -4.9460  -13.2167 C   0  0  0  0  0  0  0  0  0  0  0  0
   21.3030   -5.6173  -14.5750 C   0  0  2  0  0  0  0  0  0  0  0  0
   21.5521   -7.0201  -14.3335 N   0  0  0  0  0  0  0  0  0  0  0  0
   22.3968   -5.0143  -15.3663 C   0  0  0  0  0  0  0  0  0  0  0  0
   23.5098   -5.5881  -15.3939 O   0  0  0  0  0  0  0  0  0  0  0  0
   22.2261   -3.8481  -16.0683 O   0  0  0  0  0  0  0  0  0  0  0  0
  2  1  1  1
  2  8  1  0
  3  2  1  0
  4  3  1  0
  5  4  1  0
  6  5  1  0
  7  6  1  0
  8  9  2  0
 11 10  1  0
 12 11  1  6
 13 12  1  0
 13  8  1  0
 14 15  2  0
 14 12  1  0
 17 16  1  1
 17 19  1  0
 17 18  1  0
 18 14  1  0
 19 21  1  0
 20 19  2  0
M  END
$$$$
