KSA.pdb
     RDKit          3D

 21 20  0  0  1  0  0  0  0  0999 V2000
   18.7828  -10.9473  -18.9004 N   0  0  0  0  0  0  0  0  0  0  0  0
   19.6256   -9.8219  -18.6398 C   0  0  1  0  0  0  0  0  0  0  0  0
   19.4748   -8.7271  -19.6767 C   0  0  0  0  0  0  0  0  0  0  0  0
   19.9844   -9.1887  -21.0369 C   0  0  0  0  0  0  0  0  0  0  0  0
   21.3927   -9.7194  -20.8045 C   0  0  0  0  0  0  0  0  0  0  0  0
   21.9869  -10.0912  -22.1663 C   0  0  0  0  0  0  0  0  0  0  0  0
   23.3068  -10.6167  -21.9149 N   0  0  0  0  0  0  0  0  0  0  0  0
   19.3164   -9.1965  -17.3184 C   0  0  0  0  0  0  0  0  0  0  0  0
   18.1364   -9.0748  -16.9500 O   0  0  0  0  0  0  0  0  0  0  0  0
   22.0601   -9.3412  -14.4002 O   0  0  0  0  0  0  0  0  0  0  0  0
   20.7349   -9.0707  -14.1380 C   0  0  0  0  0  0  0  0  0  0  0  0
   20.1069   -8.1466  -15.1587 C   0  0  2  0  0  0  0  0  0  0  0  0
   20.3447   -8.7331  -16.4646 N   0  0  0  0  0  0  0  0  0  0  0  0
   20.7248   -6.8111  -15.1519 C   0  0  0  0  0  0  0  0  0  0  0  0
   21.7707   -6.6322  -15.8160 O   0  0  0  0  0  0  0  0  0  0  0  0
   19.9423   -3.4037  -13.9145 C   0  0  0  0  0  0  0  0  0  0  0  0
   20.8945   -4.4625  -14.4485 C   0  0  2  0  0  0  0  0  0  0  0  0
   20.1860   -5.7216  -14.4264 N   0  0  0  0  0  0  0  0  0  0  0  0
   22.1268   -4.5344  -13.6345 C   0  0  0  0  0  0  0  0  0  0  0  0
   22.2029   -5.3961  -12.7287 O   0  0  0  0  0  0  0  0  0  0  0  0
   23.1845   -3.6863  -13.8437 O   0  0  0  0  0  0  0  0  0  0  0  0
  2  1  1  6
  2  8  1  0
  3  2  1  0
  4  3  1  0
  5  4  1  0
  6  5  1  0
  7  6  1  0
  8  9  2  0
 11 10  1  0
 12 11  1  1
 13 12  1  0
 13  8  1  0
 14 15  2  0
 14 12  1  0
 17 16  1  1
 17 19  1  0
 17 18  1  0
 18 14  1  0
 19 21  1  0
 20 19  2  0
M  END
$$$$
