KSA.pdb
     RDKit          3D

 21 20  0  0  1  0  0  0  0  0999 V2000
   17.9269  -11.6704  -16.3241 N   0  0  0  0  0  0  0  0  0  0  0  0
   16.9312  -10.6443  -16.3102 C   0  0  1  0  0  0  0  0  0  0  0  0
   15.5783  -11.1499  -15.8515 C   0  0  0  0  0  0  0  0  0  0  0  0
   15.4700  -12.6597  -16.0297 C   0  0  0  0  0  0  0  0  0  0  0  0
   14.1296  -13.0626  -15.4295 C   0  0  0  0  0  0  0  0  0  0  0  0
   13.9436  -14.5655  -15.6583 C   0  0  0  0  0  0  0  0  0  0  0  0
   12.6686  -14.9193  -15.0831 N   0  0  0  0  0  0  0  0  0  0  0  0
   17.3008   -9.5306  -15.3851 C   0  0  0  0  0  0  0  0  0  0  0  0
   16.8236   -9.4912  -14.2389 O   0  0  0  0  0  0  0  0  0  0  0  0
   20.6497   -8.2416  -13.9685 O   0  0  0  0  0  0  0  0  0  0  0  0
   20.1114   -7.3960  -14.9136 C   0  0  0  0  0  0  0  0  0  0  0  0
   18.5982   -7.4099  -14.9258 C   0  0  2  0  0  0  0  0  0  0  0  0
   18.1911   -8.5065  -15.7847 N   0  0  0  0  0  0  0  0  0  0  0  0
   18.0367   -6.1718  -15.4891 C   0  0  0  0  0  0  0  0  0  0  0  0
   17.9817   -6.0520  -16.7339 O   0  0  0  0  0  0  0  0  0  0  0  0
   16.0057   -3.3224  -14.3916 C   0  0  0  0  0  0  0  0  0  0  0  0
   17.0289   -3.9358  -15.3349 C   0  0  2  0  0  0  0  0  0  0  0  0
   17.5570   -5.1121  -14.6827 N   0  0  0  0  0  0  0  0  0  0  0  0
   18.1087   -2.9765  -15.6512 C   0  0  0  0  0  0  0  0  0  0  0  0
   17.8231   -1.9311  -16.2792 O   0  0  0  0  0  0  0  0  0  0  0  0
   19.4094   -3.1996  -15.2770 O   0  0  0  0  0  0  0  0  0  0  0  0
  2  1  1  1
  2  8  1  0
  3  2  1  0
  4  3  1  0
  5  4  1  0
  6  5  1  0
  7  6  1  0
  8  9  2  0
 11 10  1  0
 12 11  1  6
 13 12  1  0
 13  8  1  0
 14 15  2  0
 14 12  1  0
 17 16  1  1
 17 19  1  0
 17 18  1  0
 18 14  1  0
 19 21  1  0
 20 19  2  0
M  END
$$$$
