KSA.pdb
     RDKit          3D

 21 20  0  0  1  0  0  0  0  0999 V2000
   32.8748  -25.1201  -14.9089 N   0  0  0  0  0  0  0  0  0  0  0  0
   32.2390  -25.3086  -16.1757 C   0  0  1  0  0  0  0  0  0  0  0  0
   33.1630  -25.9254  -17.2065 C   0  0  0  0  0  0  0  0  0  0  0  0
   34.0360  -24.8627  -17.8632 C   0  0  0  0  0  0  0  0  0  0  0  0
   34.9785  -25.6071  -18.7995 C   0  0  0  0  0  0  0  0  0  0  0  0
   35.8980  -24.5759  -19.4604 C   0  0  0  0  0  0  0  0  0  0  0  0
   36.8131  -25.3114  -20.2990 N   0  0  0  0  0  0  0  0  0  0  0  0
   31.0586  -26.2186  -16.0696 C   0  0  0  0  0  0  0  0  0  0  0  0
   31.1687  -27.3139  -15.4942 O   0  0  0  0  0  0  0  0  0  0  0  0
   27.4963  -24.7131  -17.3866 O   0  0  0  0  0  0  0  0  0  0  0  0
   27.4412  -25.6470  -16.3753 C   0  0  0  0  0  0  0  0  0  0  0  0
   28.5889  -26.6325  -16.4175 C   0  0  2  0  0  0  0  0  0  0  0  0
   29.8027  -25.8616  -16.6140 N   0  0  0  0  0  0  0  0  0  0  0  0
   28.4718  -27.5723  -17.5437 C   0  0  0  0  0  0  0  0  0  0  0  0
   28.9010  -27.2188  -18.6652 O   0  0  0  0  0  0  0  0  0  0  0  0
   27.7845  -31.1397  -18.1013 C   0  0  0  0  0  0  0  0  0  0  0  0
   27.8094  -29.6978  -18.5843 C   0  0  2  0  0  0  0  0  0  0  0  0
   27.8946  -28.8579  -17.4116 N   0  0  0  0  0  0  0  0  0  0  0  0
   26.6035  -29.3777  -19.3778 C   0  0  0  0  0  0  0  0  0  0  0  0
   25.6756  -28.7355  -18.8343 O   0  0  0  0  0  0  0  0  0  0  0  0
   26.4741  -29.7635  -20.6878 O   0  0  0  0  0  0  0  0  0  0  0  0
  2  1  1  1
  2  8  1  0
  3  2  1  0
  4  3  1  0
  5  4  1  0
  6  5  1  0
  7  6  1  0
  8  9  2  0
 11 10  1  0
 12 11  1  6
 13 12  1  0
 13  8  1  0
 14 15  2  0
 14 12  1  0
 17 16  1  1
 17 19  1  0
 17 18  1  0
 18 14  1  0
 19 21  1  0
 20 19  2  0
M  END
$$$$
