YKC.pdb
     RDKit          3D

 28 28  0  0  1  0  0  0  0  0999 V2000
    5.4805  -10.3879   27.8765 O   0  0  0  0  0  0  0  0  0  0  0  0
    6.0909  -11.4949   27.2841 C   0  0  0  0  0  0  0  0  0  0  0  0
    7.2573  -12.0271   27.7854 C   0  0  0  0  0  0  0  0  0  0  0  0
    7.8740  -13.1361   27.1967 C   0  0  0  0  0  0  0  0  0  0  0  0
    7.3142  -13.7194   26.0908 C   0  0  0  0  0  0  0  0  0  0  0  0
    7.9434  -14.8819   25.4580 C   0  0  0  0  0  0  0  0  0  0  0  0
    6.9392  -15.7890   24.7715 C   0  0  2  0  0  0  0  0  0  0  0  0
    6.7660  -16.9454   25.6259 N   0  0  0  0  0  0  0  0  0  0  0  0
    7.5775  -16.1981   23.4687 C   0  0  0  0  0  0  0  0  0  0  0  0
    8.1764  -17.3038   23.3495 O   0  0  0  0  0  0  0  0  0  0  0  0
    6.1479  -13.1918   25.5848 C   0  0  0  0  0  0  0  0  0  0  0  0
    5.5350  -12.0839   26.1759 C   0  0  0  0  0  0  0  0  0  0  0  0
    7.5274  -15.3542   22.3302 N   0  0  0  0  0  0  0  0  0  0  0  0
    8.2319  -15.6520   21.0876 C   0  0  1  0  0  0  0  0  0  0  0  0
    7.9211  -14.5435   20.1077 C   0  0  0  0  0  0  0  0  0  0  0  0
    8.6359  -14.7542   18.7894 C   0  0  0  0  0  0  0  0  0  0  0  0
    7.9521  -13.9790   17.6872 C   0  0  0  0  0  0  0  0  0  0  0  0
    8.6976  -14.1848   16.3868 C   0  0  0  0  0  0  0  0  0  0  0  0
    8.1922  -13.2860   15.3764 N   0  0  0  0  0  0  0  0  0  0  0  0
    9.6770  -15.7959   21.2940 C   0  0  0  0  0  0  0  0  0  0  0  0
   10.2078  -15.2527   22.2948 O   0  0  0  0  0  0  0  0  0  0  0  0
   10.4615  -16.5391   20.3737 N   0  0  0  0  0  0  0  0  0  0  0  0
   11.8528  -16.7806   20.7263 C   0  0  1  0  0  0  0  0  0  0  0  0
   11.8347  -17.6868   21.9537 C   0  0  0  0  0  0  0  0  0  0  0  0
   13.5428  -18.1014   22.3622 S   0  0  0  0  0  0  0  0  0  0  0  0
   12.5164  -17.5235   19.6203 C   0  0  0  0  0  0  0  0  0  0  0  0
   11.8271  -18.1898   18.8175 O   0  0  0  0  0  0  0  0  0  0  0  0
   13.8896  -17.5173   19.4264 O   0  0  0  0  0  0  0  0  0  0  0  0
  2  1  1  0
  3  2  2  0
  4  3  1  0
  5  4  2  0
  5 11  1  0
  6  5  1  0
  7  6  1  0
  7  8  1  1
  9  7  1  0
 10  9  2  0
 11 12  2  0
 12  2  1  0
 13  9  1  0
 14 15  1  6
 14 13  1  0
 16 17  1  0
 16 15  1  0
 18 17  1  0
 19 18  1  0
 20 14  1  0
 21 20  2  0
 22 20  1  0
 23 22  1  0
 24 25  1  0
 23 24  1  1
 26 23  1  0
 26 28  1  0
 27 26  2  0
M  END
$$$$
