YKC.pdb
     RDKit          3D

 28 28  0  0  1  0  0  0  0  0999 V2000
    5.1958  -10.4336   27.3884 O   0  0  0  0  0  0  0  0  0  0  0  0
    5.8613  -11.5437   26.8652 C   0  0  0  0  0  0  0  0  0  0  0  0
    5.8020  -12.7737   27.4804 C   0  0  0  0  0  0  0  0  0  0  0  0
    6.4663  -13.8901   26.9616 C   0  0  0  0  0  0  0  0  0  0  0  0
    7.1999  -13.7719   25.8107 C   0  0  0  0  0  0  0  0  0  0  0  0
    7.9039  -14.9283   25.2495 C   0  0  0  0  0  0  0  0  0  0  0  0
    7.0544  -15.7079   24.2631 C   0  0  2  0  0  0  0  0  0  0  0  0
    6.4162  -16.7726   25.0092 N   0  0  0  0  0  0  0  0  0  0  0  0
    8.0172  -16.2852   23.2571 C   0  0  0  0  0  0  0  0  0  0  0  0
    8.5340  -17.4259   23.4222 O   0  0  0  0  0  0  0  0  0  0  0  0
    7.2631  -12.5445   25.1908 C   0  0  0  0  0  0  0  0  0  0  0  0
    6.5979  -11.4318   25.7124 C   0  0  0  0  0  0  0  0  0  0  0  0
    8.3763  -15.5662   22.0888 N   0  0  0  0  0  0  0  0  0  0  0  0
    9.4334  -15.9998   21.1813 C   0  0  1  0  0  0  0  0  0  0  0  0
    9.6289  -14.9102   20.1517 C   0  0  0  0  0  0  0  0  0  0  0  0
    8.5195  -14.9177   19.1210 C   0  0  0  0  0  0  0  0  0  0  0  0
    8.7921  -13.8943   18.0431 C   0  0  0  0  0  0  0  0  0  0  0  0
    7.7023  -13.9608   16.9956 C   0  0  0  0  0  0  0  0  0  0  0  0
    7.9524  -12.9910   15.9559 N   0  0  0  0  0  0  0  0  0  0  0  0
   10.6820  -16.2973   21.8913 C   0  0  0  0  0  0  0  0  0  0  0  0
   11.1547  -15.4410   22.6798 O   0  0  0  0  0  0  0  0  0  0  0  0
   11.3440  -17.5362   21.6878 N   0  0  0  0  0  0  0  0  0  0  0  0
   12.6255  -17.7243   22.3517 C   0  0  1  0  0  0  0  0  0  0  0  0
   12.5147  -19.0257   23.1405 C   0  0  0  0  0  0  0  0  0  0  0  0
   11.4206  -18.7316   24.5449 S   0  0  0  0  0  0  0  0  0  0  0  0
   13.6877  -17.9025   21.3243 C   0  0  0  0  0  0  0  0  0  0  0  0
   13.3887  -17.8798   20.1103 O   0  0  0  0  0  0  0  0  0  0  0  0
   15.0225  -18.0968   21.6467 O   0  0  0  0  0  0  0  0  0  0  0  0
  2  1  1  0
  3  2  2  0
  4  3  1  0
  5  4  2  0
  5 11  1  0
  6  5  1  0
  7  6  1  0
  7  8  1  1
  9  7  1  0
 10  9  2  0
 11 12  2  0
 12  2  1  0
 13  9  1  0
 14 15  1  6
 14 13  1  0
 16 17  1  0
 16 15  1  0
 18 17  1  0
 19 18  1  0
 20 14  1  0
 21 20  2  0
 22 20  1  0
 23 22  1  0
 24 25  1  0
 23 24  1  1
 26 23  1  0
 26 28  1  0
 27 26  2  0
M  END
$$$$
