YKC.pdb
     RDKit          3D

 28 28  0  0  1  0  0  0  0  0999 V2000
    5.6212  -10.5731   28.6956 O   0  0  0  0  0  0  0  0  0  0  0  0
    6.1971  -11.5363   27.8652 C   0  0  0  0  0  0  0  0  0  0  0  0
    7.0829  -12.4701   28.3534 C   0  0  0  0  0  0  0  0  0  0  0  0
    7.6635  -13.4378   27.5269 C   0  0  0  0  0  0  0  0  0  0  0  0
    7.3522  -13.4699   26.1933 C   0  0  0  0  0  0  0  0  0  0  0  0
    7.9488  -14.4750   25.3091 C   0  0  0  0  0  0  0  0  0  0  0  0
    6.9319  -15.4741   24.7893 C   0  0  2  0  0  0  0  0  0  0  0  0
    6.8109  -16.5104   25.7937 N   0  0  0  0  0  0  0  0  0  0  0  0
    7.5236  -16.0439   23.5254 C   0  0  0  0  0  0  0  0  0  0  0  0
    8.2946  -17.0441   23.5541 O   0  0  0  0  0  0  0  0  0  0  0  0
    6.4671  -12.5388   25.6990 C   0  0  0  0  0  0  0  0  0  0  0  0
    5.8892  -11.5737   26.5281 C   0  0  0  0  0  0  0  0  0  0  0  0
    7.2346  -15.4758   22.2588 N   0  0  0  0  0  0  0  0  0  0  0  0
    8.0644  -15.6976   21.0793 C   0  0  1  0  0  0  0  0  0  0  0  0
    7.7194  -14.6277   20.0685 C   0  0  0  0  0  0  0  0  0  0  0  0
    8.3812  -14.8948   18.7328 C   0  0  0  0  0  0  0  0  0  0  0  0
    7.7886  -14.0080   17.6623 C   0  0  0  0  0  0  0  0  0  0  0  0
    8.3698  -14.3828   16.3165 C   0  0  0  0  0  0  0  0  0  0  0  0
    7.9817  -13.4130   15.3200 N   0  0  0  0  0  0  0  0  0  0  0  0
    9.4953  -15.6891   21.4022 C   0  0  0  0  0  0  0  0  0  0  0  0
    9.9976  -14.6617   21.9223 O   0  0  0  0  0  0  0  0  0  0  0  0
   10.2979  -16.8275   21.1294 N   0  0  0  0  0  0  0  0  0  0  0  0
   11.7391  -16.6749   21.2638 C   0  0  1  0  0  0  0  0  0  0  0  0
   12.1386  -17.4462   22.5182 C   0  0  0  0  0  0  0  0  0  0  0  0
   10.9305  -18.7632   22.7678 S   0  0  0  0  0  0  0  0  0  0  0  0
   12.4100  -17.3168   20.1004 C   0  0  0  0  0  0  0  0  0  0  0  0
   11.7256  -17.9037   19.2340 O   0  0  0  0  0  0  0  0  0  0  0  0
   13.7850  -17.2995   19.9201 O   0  0  0  0  0  0  0  0  0  0  0  0
  2  1  1  0
  3  2  2  0
  4  3  1  0
  5  4  2  0
  5 11  1  0
  6  5  1  0
  7  6  1  0
  7  8  1  1
  9  7  1  0
 10  9  2  0
 11 12  2  0
 12  2  1  0
 13  9  1  0
 14 15  1  6
 14 13  1  0
 16 17  1  0
 16 15  1  0
 18 17  1  0
 19 18  1  0
 20 14  1  0
 21 20  2  0
 22 20  1  0
 23 22  1  0
 24 25  1  0
 23 24  1  1
 26 23  1  0
 26 28  1  0
 27 26  2  0
M  END
$$$$
