YKC.pdb
     RDKit          3D

 28 28  0  0  1  0  0  0  0  0999 V2000
    7.7132  -13.6871   15.2656 O   0  0  0  0  0  0  0  0  0  0  0  0
    7.5504  -13.8741   16.6395 C   0  0  0  0  0  0  0  0  0  0  0  0
    8.1222  -13.0192   17.5545 C   0  0  0  0  0  0  0  0  0  0  0  0
    7.9631  -13.2008   18.9323 C   0  0  0  0  0  0  0  0  0  0  0  0
    7.2209  -14.2533   19.3992 C   0  0  0  0  0  0  0  0  0  0  0  0
    7.0411  -14.4626   20.8386 C   0  0  0  0  0  0  0  0  0  0  0  0
    8.3178  -14.9046   21.5293 C   0  0  2  0  0  0  0  0  0  0  0  0
    8.7234  -16.1472   20.9056 N   0  0  0  0  0  0  0  0  0  0  0  0
    7.9444  -15.1455   22.9697 C   0  0  0  0  0  0  0  0  0  0  0  0
    7.4103  -14.2400   23.6699 O   0  0  0  0  0  0  0  0  0  0  0  0
    6.6466  -15.1117   18.4893 C   0  0  0  0  0  0  0  0  0  0  0  0
    6.8080  -14.9267   17.1137 C   0  0  0  0  0  0  0  0  0  0  0  0
    8.1802  -16.3991   23.5891 N   0  0  0  0  0  0  0  0  0  0  0  0
    7.9341  -16.6451   25.0060 C   0  0  1  0  0  0  0  0  0  0  0  0
    7.9625  -18.1410   25.2230 C   0  0  0  0  0  0  0  0  0  0  0  0
    6.8989  -18.8392   24.4018 C   0  0  0  0  0  0  0  0  0  0  0  0
    6.9462  -20.3316   24.6342 C   0  0  0  0  0  0  0  0  0  0  0  0
    5.9504  -21.0168   23.7241 C   0  0  0  0  0  0  0  0  0  0  0  0
    6.5333  -22.2104   23.1585 N   0  0  0  0  0  0  0  0  0  0  0  0
    8.9088  -15.9603   25.8621 C   0  0  0  0  0  0  0  0  0  0  0  0
   10.1321  -16.2014   25.7080 O   0  0  0  0  0  0  0  0  0  0  0  0
    8.4721  -15.0390   26.8495 N   0  0  0  0  0  0  0  0  0  0  0  0
    9.4967  -14.3795   27.6455 C   0  0  1  0  0  0  0  0  0  0  0  0
    8.9547  -12.9934   27.9818 C   0  0  0  0  0  0  0  0  0  0  0  0
    8.3763  -12.2372   26.4489 S   0  0  0  0  0  0  0  0  0  0  0  0
    9.6770  -15.1213   28.9233 C   0  0  0  0  0  0  0  0  0  0  0  0
   10.4629  -14.6826   29.7914 O   0  0  0  0  0  0  0  0  0  0  0  0
    9.0054  -16.3000   29.2112 O   0  0  0  0  0  0  0  0  0  0  0  0
  2  1  1  0
  3  2  2  0
  4  3  1  0
  5  4  2  0
  5 11  1  0
  6  5  1  0
  7  6  1  0
  7  8  1  6
  9  7  1  0
 10  9  2  0
 11 12  2  0
 12  2  1  0
 13  9  1  0
 14 15  1  6
 14 13  1  0
 16 17  1  0
 16 15  1  0
 18 17  1  0
 19 18  1  0
 20 14  1  0
 21 20  2  0
 22 20  1  0
 23 22  1  0
 24 25  1  0
 23 24  1  1
 26 23  1  0
 26 28  1  0
 27 26  2  0
M  END
$$$$
