YMV.pdb
     RDKit          3D

 28 28  0  0  1  0  0  0  0  0999 V2000
   23.6412  -16.2905  -17.6793 O   0  0  0  0  0  0  0  0  0  0  0  0
   23.7955  -17.0596  -16.5366 C   0  0  0  0  0  0  0  0  0  0  0  0
   23.3486  -18.3665  -16.5132 C   0  0  0  0  0  0  0  0  0  0  0  0
   23.4964  -19.1518  -15.3730 C   0  0  0  0  0  0  0  0  0  0  0  0
   24.0929  -18.6548  -14.2282 C   0  0  0  0  0  0  0  0  0  0  0  0
   24.2284  -19.5176  -13.0499 C   0  0  0  0  0  0  0  0  0  0  0  0
   25.6606  -19.8993  -12.7591 C   0  0  2  0  0  0  0  0  0  0  0  0
   26.1635  -20.7336  -13.8441 N   0  0  0  0  0  0  0  0  0  0  0  0
   25.6450  -20.6837  -11.4840 C   0  0  0  0  0  0  0  0  0  0  0  0
   25.4599  -21.9270  -11.5335 O   0  0  0  0  0  0  0  0  0  0  0  0
   24.5342  -17.3692  -14.2466 C   0  0  0  0  0  0  0  0  0  0  0  0
   24.3896  -16.5798  -15.3820 C   0  0  0  0  0  0  0  0  0  0  0  0
   28.1510  -17.9840   -6.4835 C   0  0  0  0  0  0  0  0  0  0  0  0
   27.9847  -19.6131   -5.7587 S   0  0  0  0  0  0  0  0  0  0  0  0
   26.6830  -20.5881   -6.6272 C   0  0  0  0  0  0  0  0  0  0  0  0
   26.6238  -20.0453   -8.0144 C   0  0  0  0  0  0  0  0  0  0  0  0
   25.6758  -20.7440   -8.9505 C   0  0  2  0  0  0  0  0  0  0  0  0
   25.8360  -20.0322  -10.2412 N   0  0  0  0  0  0  0  0  0  0  0  0
   24.2737  -20.7410   -8.5421 C   0  0  0  0  0  0  0  0  0  0  0  0
   23.6275  -19.6541   -8.6215 O   0  0  0  0  0  0  0  0  0  0  0  0
   21.6117  -23.8540   -8.7737 C   0  0  0  0  0  0  0  0  0  0  0  0
   21.2724  -22.3718   -8.7158 C   0  0  1  0  0  0  0  0  0  0  0  0
   19.8357  -22.2839   -8.2426 C   0  0  0  0  0  0  0  0  0  0  0  0
   22.1943  -21.7423   -7.6798 C   0  0  2  0  0  0  0  0  0  0  0  0
   23.5797  -21.8752   -8.0639 N   0  0  0  0  0  0  0  0  0  0  0  0
   22.0117  -22.3734   -6.3530 C   0  0  0  0  0  0  0  0  0  0  0  0
   20.9475  -22.0686   -5.5237 O   0  0  0  0  0  0  0  0  0  0  0  0
   22.8456  -23.2325   -5.9266 O   0  0  0  0  0  0  0  0  0  0  0  0
  2 12  2  0
  2  1  1  0
  3  2  1  0
  4  5  1  0
  4  3  2  0
  5 11  2  0
  6  5  1  0
  7  6  1  0
  7  8  1  6
  9  7  1  0
  9 10  2  0
 11 12  1  0
 13 14  1  0
 14 15  1  0
 16 15  1  0
 17 16  1  1
 17 18  1  0
 18  9  1  0
 19 25  1  0
 19 17  1  0
 20 19  2  0
 22 21  1  1
 23 22  1  0
 24 25  1  6
 24 22  1  0
 26 24  1  0
 27 26  1  0
 28 26  2  0
M  END
$$$$
