YMV.pdb
     RDKit          3D

 28 28  0  0  1  0  0  0  0  0999 V2000
   16.2945   -6.2344  -15.2443 O   0  0  0  0  0  0  0  0  0  0  0  0
   17.5082   -6.7379  -15.6852 C   0  0  0  0  0  0  0  0  0  0  0  0
   18.5051   -5.8792  -16.1058 C   0  0  0  0  0  0  0  0  0  0  0  0
   19.7295   -6.3696  -16.5515 C   0  0  0  0  0  0  0  0  0  0  0  0
   19.9913   -7.7274  -16.5891 C   0  0  0  0  0  0  0  0  0  0  0  0
   21.2955   -8.1999  -17.0654 C   0  0  0  0  0  0  0  0  0  0  0  0
   22.3237   -8.3051  -15.9640 C   0  0  2  0  0  0  0  0  0  0  0  0
   22.6251   -6.9700  -15.4612 N   0  0  0  0  0  0  0  0  0  0  0  0
   23.5511   -8.9027  -16.5787 C   0  0  0  0  0  0  0  0  0  0  0  0
   24.6388   -8.2750  -16.5055 O   0  0  0  0  0  0  0  0  0  0  0  0
   19.0132   -8.5763  -16.1761 C   0  0  0  0  0  0  0  0  0  0  0  0
   17.7883   -8.0929  -15.7300 C   0  0  0  0  0  0  0  0  0  0  0  0
   29.4230  -12.4316  -15.4656 C   0  0  0  0  0  0  0  0  0  0  0  0
   27.9153  -11.4722  -15.3504 S   0  0  0  0  0  0  0  0  0  0  0  0
   26.9102  -11.6423  -16.8866 C   0  0  0  0  0  0  0  0  0  0  0  0
   25.6595  -10.8682  -16.6440 C   0  0  0  0  0  0  0  0  0  0  0  0
   24.6909  -10.8125  -17.7938 C   0  0  2  0  0  0  0  0  0  0  0  0
   23.4852  -10.1570  -17.2326 N   0  0  0  0  0  0  0  0  0  0  0  0
   24.3383  -12.1023  -18.3809 C   0  0  0  0  0  0  0  0  0  0  0  0
   23.6562  -12.9123  -17.6852 O   0  0  0  0  0  0  0  0  0  0  0  0
   22.5518  -12.3573  -21.6044 C   0  0  0  0  0  0  0  0  0  0  0  0
   23.6192  -13.4396  -21.6724 C   0  0  1  0  0  0  0  0  0  0  0  0
   24.7555  -12.8636  -22.4927 C   0  0  0  0  0  0  0  0  0  0  0  0
   24.0911  -13.6923  -20.2466 C   0  0  2  0  0  0  0  0  0  0  0  0
   24.7039  -12.5130  -19.6825 N   0  0  0  0  0  0  0  0  0  0  0  0
   25.0724  -14.7999  -20.2002 C   0  0  0  0  0  0  0  0  0  0  0  0
   24.6976  -16.1298  -20.2635 O   0  0  0  0  0  0  0  0  0  0  0  0
   26.3157  -14.5569  -20.0984 O   0  0  0  0  0  0  0  0  0  0  0  0
  2 12  2  0
  2  1  1  0
  3  2  1  0
  4  5  1  0
  4  3  2  0
  5 11  2  0
  6  5  1  0
  7  6  1  0
  7  8  1  6
  9  7  1  0
  9 10  2  0
 11 12  1  0
 13 14  1  0
 14 15  1  0
 16 15  1  0
 17 16  1  1
 17 18  1  0
 18  9  1  0
 19 25  1  0
 19 17  1  0
 20 19  2  0
 22 21  1  1
 23 22  1  0
 24 25  1  6
 24 22  1  0
 26 24  1  0
 27 26  1  0
 28 26  2  0
M  END
$$$$
