YMV.pdb
     RDKit          3D

 28 28  0  0  1  0  0  0  0  0999 V2000
   17.8580  -14.1015  -23.2241 O   0  0  0  0  0  0  0  0  0  0  0  0
   17.8931  -13.3830  -22.0393 C   0  0  0  0  0  0  0  0  0  0  0  0
   18.4342  -12.1123  -22.0131 C   0  0  0  0  0  0  0  0  0  0  0  0
   18.4767  -11.3780  -20.8310 C   0  0  0  0  0  0  0  0  0  0  0  0
   17.9812  -11.8912  -19.6459 C   0  0  0  0  0  0  0  0  0  0  0  0
   18.0459  -11.0825  -18.4240 C   0  0  0  0  0  0  0  0  0  0  0  0
   19.4596  -10.7428  -18.0148 C   0  0  2  0  0  0  0  0  0  0  0  0
   20.1212  -11.9491  -17.5318 N   0  0  0  0  0  0  0  0  0  0  0  0
   19.3565   -9.7438  -16.9046 C   0  0  0  0  0  0  0  0  0  0  0  0
   18.9296  -10.1191  -15.7824 O   0  0  0  0  0  0  0  0  0  0  0  0
   17.4478  -13.1413  -19.6668 C   0  0  0  0  0  0  0  0  0  0  0  0
   17.4024  -13.8797  -20.8440 C   0  0  0  0  0  0  0  0  0  0  0  0
   23.2390   -3.7694  -13.9707 C   0  0  0  0  0  0  0  0  0  0  0  0
   22.9356   -5.2363  -14.9521 S   0  0  0  0  0  0  0  0  0  0  0  0
   21.1323   -5.6119  -15.0309 C   0  0  0  0  0  0  0  0  0  0  0  0
   21.0003   -6.7931  -15.9306 C   0  0  0  0  0  0  0  0  0  0  0  0
   19.6166   -7.3709  -16.0532 C   0  0  2  0  0  0  0  0  0  0  0  0
   19.7349   -8.3959  -17.1179 N   0  0  0  0  0  0  0  0  0  0  0  0
   18.5642   -6.4148  -16.3865 C   0  0  0  0  0  0  0  0  0  0  0  0
   18.5529   -5.9160  -17.5511 O   0  0  0  0  0  0  0  0  0  0  0  0
   14.8812   -6.2378  -14.6047 C   0  0  0  0  0  0  0  0  0  0  0  0
   15.1705   -5.6896  -15.9943 C   0  0  1  0  0  0  0  0  0  0  0  0
   14.1291   -4.6198  -16.2533 C   0  0  0  0  0  0  0  0  0  0  0  0
   16.5555   -5.0579  -15.9464 C   0  0  2  0  0  0  0  0  0  0  0  0
   17.5466   -6.0060  -15.4955 N   0  0  0  0  0  0  0  0  0  0  0  0
   16.5751   -3.8892  -15.0378 C   0  0  0  0  0  0  0  0  0  0  0  0
   16.2011   -2.6219  -15.4467 O   0  0  0  0  0  0  0  0  0  0  0  0
   16.9446   -4.0178  -13.8286 O   0  0  0  0  0  0  0  0  0  0  0  0
  2 12  2  0
  2  1  1  0
  3  2  1  0
  4  5  1  0
  4  3  2  0
  5 11  2  0
  6  5  1  0
  7  6  1  0
  7  8  1  1
  9  7  1  0
  9 10  2  0
 11 12  1  0
 13 14  1  0
 14 15  1  0
 16 15  1  0
 17 16  1  6
 17 18  1  0
 18  9  1  0
 19 25  1  0
 19 17  1  0
 20 19  2  0
 22 21  1  1
 23 22  1  0
 24 25  1  1
 24 22  1  0
 26 24  1  0
 27 26  1  0
 28 26  2  0
M  END
$$$$
