YMV.pdb
     RDKit          3D

 28 28  0  0  1  0  0  0  0  0999 V2000
   17.7654  -26.4726  -20.8043 O   0  0  0  0  0  0  0  0  0  0  0  0
   18.6806  -25.7555  -20.0497 C   0  0  0  0  0  0  0  0  0  0  0  0
   19.9821  -26.2019  -19.9278 C   0  0  0  0  0  0  0  0  0  0  0  0
   20.9130  -25.4928  -19.1734 C   0  0  0  0  0  0  0  0  0  0  0  0
   20.5704  -24.3216  -18.5219 C   0  0  0  0  0  0  0  0  0  0  0  0
   21.5833  -23.6065  -17.7384 C   0  0  0  0  0  0  0  0  0  0  0  0
   22.0656  -22.3425  -18.4101 C   0  0  2  0  0  0  0  0  0  0  0  0
   22.9870  -22.6928  -19.4846 N   0  0  0  0  0  0  0  0  0  0  0  0
   22.7864  -21.5494  -17.3647 C   0  0  0  0  0  0  0  0  0  0  0  0
   24.0261  -21.7092  -17.2230 O   0  0  0  0  0  0  0  0  0  0  0  0
   19.2907  -23.8784  -18.6391 C   0  0  0  0  0  0  0  0  0  0  0  0
   18.3565  -24.5819  -19.3909 C   0  0  0  0  0  0  0  0  0  0  0  0
   20.0769  -16.3419  -15.9283 C   0  0  0  0  0  0  0  0  0  0  0  0
   21.1186  -16.2004  -14.4785 S   0  0  0  0  0  0  0  0  0  0  0  0
   22.3876  -17.5376  -14.4491 C   0  0  0  0  0  0  0  0  0  0  0  0
   21.9459  -18.5418  -15.4585 C   0  0  0  0  0  0  0  0  0  0  0  0
   22.7642  -19.8022  -15.5290 C   0  0  2  0  0  0  0  0  0  0  0  0
   22.0797  -20.6332  -16.5484 N   0  0  0  0  0  0  0  0  0  0  0  0
   22.8891  -20.5409  -14.2754 C   0  0  0  0  0  0  0  0  0  0  0  0
   21.9003  -21.2290  -13.8828 O   0  0  0  0  0  0  0  0  0  0  0  0
   25.5590  -19.7590  -11.0591 C   0  0  0  0  0  0  0  0  0  0  0  0
   25.3789  -21.1990  -11.5170 C   0  0  1  0  0  0  0  0  0  0  0  0
   25.3503  -22.0434  -10.2591 C   0  0  0  0  0  0  0  0  0  0  0  0
   24.0306  -21.2790  -12.2206 C   0  0  2  0  0  0  0  0  0  0  0  0
   24.0460  -20.5454  -13.4640 N   0  0  0  0  0  0  0  0  0  0  0  0
   22.9521  -20.7330  -11.3659 C   0  0  0  0  0  0  0  0  0  0  0  0
   22.2815  -21.5014  -10.4315 O   0  0  0  0  0  0  0  0  0  0  0  0
   22.6020  -19.5155  -11.4673 O   0  0  0  0  0  0  0  0  0  0  0  0
  2 12  2  0
  2  1  1  0
  3  2  1  0
  4  5  1  0
  4  3  2  0
  5 11  2  0
  6  5  1  0
  7  6  1  0
  7  8  1  6
  9  7  1  0
  9 10  2  0
 11 12  1  0
 13 14  1  0
 14 15  1  0
 16 15  1  0
 17 16  1  1
 17 18  1  0
 18  9  1  0
 19 25  1  0
 19 17  1  0
 20 19  2  0
 22 21  1  1
 23 22  1  0
 24 25  1  6
 24 22  1  0
 26 24  1  0
 27 26  1  0
 28 26  2  0
M  END
$$$$
