YMV.pdb
     RDKit          3D

 28 28  0  0  1  0  0  0  0  0999 V2000
   28.8182  -14.9186  -20.0338 O   0  0  0  0  0  0  0  0  0  0  0  0
   28.4510  -15.8015  -19.0302 C   0  0  0  0  0  0  0  0  0  0  0  0
   29.3878  -16.2425  -18.1159 C   0  0  0  0  0  0  0  0  0  0  0  0
   29.0345  -17.1292  -17.1023 C   0  0  0  0  0  0  0  0  0  0  0  0
   27.7395  -17.5984  -16.9744 C   0  0  0  0  0  0  0  0  0  0  0  0
   27.4115  -18.5311  -15.8911 C   0  0  0  0  0  0  0  0  0  0  0  0
   28.2961  -19.7553  -15.8778 C   0  0  2  0  0  0  0  0  0  0  0  0
   28.0301  -20.5512  -17.0702 N   0  0  0  0  0  0  0  0  0  0  0  0
   27.9277  -20.5374  -14.6555 C   0  0  0  0  0  0  0  0  0  0  0  0
   26.9601  -21.3395  -14.7117 O   0  0  0  0  0  0  0  0  0  0  0  0
   26.8143  -17.1670  -17.8719 C   0  0  0  0  0  0  0  0  0  0  0  0
   27.1607  -16.2816  -18.8864 C   0  0  0  0  0  0  0  0  0  0  0  0
   32.3324  -21.9025  -10.1149 C   0  0  0  0  0  0  0  0  0  0  0  0
   30.9927  -21.2386   -9.1293 S   0  0  0  0  0  0  0  0  0  0  0  0
   29.3681  -21.5231   -9.9532 C   0  0  0  0  0  0  0  0  0  0  0  0
   29.5022  -20.9580  -11.3262 C   0  0  0  0  0  0  0  0  0  0  0  0
   28.2905  -21.0879  -12.2083 C   0  0  2  0  0  0  0  0  0  0  0  0
   28.6600  -20.3744  -13.4544 N   0  0  0  0  0  0  0  0  0  0  0  0
   27.0528  -20.5400  -11.6600 C   0  0  0  0  0  0  0  0  0  0  0  0
   26.9080  -19.2814  -11.6453 O   0  0  0  0  0  0  0  0  0  0  0  0
   22.3543  -20.4425  -10.9732 C   0  0  0  0  0  0  0  0  0  0  0  0
   23.5734  -21.1960  -11.4847 C   0  0  1  0  0  0  0  0  0  0  0  0
   23.7046  -20.8435  -12.9525 C   0  0  0  0  0  0  0  0  0  0  0  0
   24.7793  -20.6673  -10.7193 C   0  0  2  0  0  0  0  0  0  0  0  0
   25.9947  -21.3212  -11.1435 N   0  0  0  0  0  0  0  0  0  0  0  0
   24.6170  -20.8758   -9.2626 C   0  0  0  0  0  0  0  0  0  0  0  0
   25.4326  -21.7249   -8.5366 O   0  0  0  0  0  0  0  0  0  0  0  0
   23.7034  -20.2681   -8.6214 O   0  0  0  0  0  0  0  0  0  0  0  0
  2 12  2  0
  2  1  1  0
  3  2  1  0
  4  5  1  0
  4  3  2  0
  5 11  2  0
  6  5  1  0
  7  6  1  0
  7  8  1  6
  9  7  1  0
  9 10  2  0
 11 12  1  0
 13 14  1  0
 14 15  1  0
 16 15  1  0
 17 16  1  1
 17 18  1  0
 18  9  1  0
 19 25  1  0
 19 17  1  0
 20 19  2  0
 22 21  1  1
 23 22  1  0
 24 25  1  6
 24 22  1  0
 26 24  1  0
 27 26  1  0
 28 26  2  0
M  END
$$$$
