YMV.pdb
     RDKit          3D

 28 28  0  0  1  0  0  0  0  0999 V2000
   19.6712  -29.7507  -11.7415 O   0  0  0  0  0  0  0  0  0  0  0  0
   20.4097  -30.4581  -10.8059 C   0  0  0  0  0  0  0  0  0  0  0  0
   20.6345  -31.8103  -10.9765 C   0  0  0  0  0  0  0  0  0  0  0  0
   21.3743  -32.5346  -10.0457 C   0  0  0  0  0  0  0  0  0  0  0  0
   21.9085  -31.9300   -8.9220 C   0  0  0  0  0  0  0  0  0  0  0  0
   22.6820  -32.7313   -7.9677 C   0  0  0  0  0  0  0  0  0  0  0  0
   24.1741  -32.5518   -8.1188 C   0  0  2  0  0  0  0  0  0  0  0  0
   24.6150  -33.2156   -9.3400 N   0  0  0  0  0  0  0  0  0  0  0  0
   24.8074  -33.2067   -6.9308 C   0  0  0  0  0  0  0  0  0  0  0  0
   25.5844  -34.1795   -7.1110 O   0  0  0  0  0  0  0  0  0  0  0  0
   21.6899  -30.5994   -8.7500 C   0  0  0  0  0  0  0  0  0  0  0  0
   20.9520  -29.8705   -9.6759 C   0  0  0  0  0  0  0  0  0  0  0  0
   26.0487  -30.7071   -0.6913 C   0  0  0  0  0  0  0  0  0  0  0  0
   26.4035  -29.9864   -2.2918 S   0  0  0  0  0  0  0  0  0  0  0  0
   26.5615  -31.2953   -3.5806 C   0  0  0  0  0  0  0  0  0  0  0  0
   25.3198  -32.1146   -3.4846 C   0  0  0  0  0  0  0  0  0  0  0  0
   25.2294  -33.2791   -4.4328 C   0  0  2  0  0  0  0  0  0  0  0  0
   24.5336  -32.7353   -5.6238 N   0  0  0  0  0  0  0  0  0  0  0  0
   24.5203  -34.4500   -3.9237 C   0  0  0  0  0  0  0  0  0  0  0  0
   23.2850  -34.5630   -4.1817 O   0  0  0  0  0  0  0  0  0  0  0  0
   24.1934  -39.0123   -2.3342 C   0  0  0  0  0  0  0  0  0  0  0  0
   25.1443  -37.8795   -2.6917 C   0  0  1  0  0  0  0  0  0  0  0  0
   25.6784  -38.1947   -4.0743 C   0  0  0  0  0  0  0  0  0  0  0  0
   24.3186  -36.6006   -2.7389 C   0  0  2  0  0  0  0  0  0  0  0  0
   25.1205  -35.4764   -3.1603 N   0  0  0  0  0  0  0  0  0  0  0  0
   23.7389  -36.2934   -1.4117 C   0  0  0  0  0  0  0  0  0  0  0  0
   22.4842  -36.7313   -1.0279 O   0  0  0  0  0  0  0  0  0  0  0  0
   24.3905  -35.6028   -0.5669 O   0  0  0  0  0  0  0  0  0  0  0  0
  2 12  2  0
  2  1  1  0
  3  2  1  0
  4  5  1  0
  4  3  2  0
  5 11  2  0
  6  5  1  0
  7  6  1  0
  7  8  1  6
  9  7  1  0
  9 10  2  0
 11 12  1  0
 13 14  1  0
 14 15  1  0
 16 15  1  0
 17 16  1  1
 17 18  1  0
 18  9  1  0
 19 25  1  0
 19 17  1  0
 20 19  2  0
 22 21  1  6
 23 22  1  0
 24 25  1  1
 24 22  1  0
 26 24  1  0
 27 26  1  0
 28 26  2  0
M  END
$$$$
