YMV.pdb
     RDKit          3D

 28 28  0  0  1  0  0  0  0  0999 V2000
   18.8442  -23.0688  -10.0108 O   0  0  0  0  0  0  0  0  0  0  0  0
   20.0028  -22.4135  -10.3976 C   0  0  0  0  0  0  0  0  0  0  0  0
   20.7586  -22.8997  -11.4466 C   0  0  0  0  0  0  0  0  0  0  0  0
   21.9247  -22.2528  -11.8470 C   0  0  0  0  0  0  0  0  0  0  0  0
   22.3666  -21.1058  -11.2124 C   0  0  0  0  0  0  0  0  0  0  0  0
   23.6004  -20.4566  -11.6677 C   0  0  0  0  0  0  0  0  0  0  0  0
   24.8266  -20.9320  -10.9248 C   0  0  2  0  0  0  0  0  0  0  0  0
   24.7101  -20.5588   -9.5201 N   0  0  0  0  0  0  0  0  0  0  0  0
   25.9985  -20.2309  -11.5384 C   0  0  0  0  0  0  0  0  0  0  0  0
   26.7055  -19.4786  -10.8198 O   0  0  0  0  0  0  0  0  0  0  0  0
   21.6259  -20.6238  -10.1795 C   0  0  0  0  0  0  0  0  0  0  0  0
   20.4605  -21.2651   -9.7749 C   0  0  0  0  0  0  0  0  0  0  0  0
   31.1497  -21.6092   -9.3818 C   0  0  0  0  0  0  0  0  0  0  0  0
   30.1426  -22.1263  -10.7693 S   0  0  0  0  0  0  0  0  0  0  0  0
   29.3513  -20.6736  -11.5835 C   0  0  0  0  0  0  0  0  0  0  0  0
   28.5094  -21.2293  -12.6810 C   0  0  0  0  0  0  0  0  0  0  0  0
   27.6772  -20.2298  -13.4372 C   0  0  2  0  0  0  0  0  0  0  0  0
   26.3041  -20.4142  -12.9090 N   0  0  0  0  0  0  0  0  0  0  0  0
   27.6841  -20.3779  -14.8901 C   0  0  0  0  0  0  0  0  0  0  0  0
   27.2644  -21.4663  -15.3847 O   0  0  0  0  0  0  0  0  0  0  0  0
   26.3652  -17.8098  -18.6502 C   0  0  0  0  0  0  0  0  0  0  0  0
   26.5073  -18.1838  -17.1821 C   0  0  1  0  0  0  0  0  0  0  0  0
   25.1507  -18.6954  -16.7416 C   0  0  0  0  0  0  0  0  0  0  0  0
   27.5310  -19.3087  -17.1044 C   0  0  2  0  0  0  0  0  0  0  0  0
   28.1263  -19.3833  -15.7911 N   0  0  0  0  0  0  0  0  0  0  0  0
   28.6101  -19.1146  -18.0993 C   0  0  0  0  0  0  0  0  0  0  0  0
   29.8476  -18.5959  -17.7638 O   0  0  0  0  0  0  0  0  0  0  0  0
   28.4277  -19.4252  -19.3181 O   0  0  0  0  0  0  0  0  0  0  0  0
  2 12  2  0
  2  1  1  0
  3  2  1  0
  4  5  1  0
  4  3  2  0
  5 11  2  0
  6  5  1  0
  7  6  1  0
  7  8  1  1
  9  7  1  0
  9 10  2  0
 11 12  1  0
 13 14  1  0
 14 15  1  0
 16 15  1  0
 17 16  1  1
 17 18  1  0
 18  9  1  0
 19 25  1  0
 19 17  1  0
 20 19  2  0
 22 21  1  6
 23 22  1  0
 24 25  1  1
 24 22  1  0
 26 24  1  0
 27 26  1  0
 28 26  2  0
M  END
$$$$
