YMV.pdb
     RDKit          3D

 28 28  0  0  1  0  0  0  0  0999 V2000
   17.0501  -10.8059  -24.8686 O   0  0  0  0  0  0  0  0  0  0  0  0
   17.6744  -10.3281  -23.7270 C   0  0  0  0  0  0  0  0  0  0  0  0
   18.7335   -9.4475  -23.8314 C   0  0  0  0  0  0  0  0  0  0  0  0
   19.3709   -8.9586  -22.6942 C   0  0  0  0  0  0  0  0  0  0  0  0
   18.9690   -9.3348  -21.4251 C   0  0  0  0  0  0  0  0  0  0  0  0
   19.6687   -8.7947  -20.2547 C   0  0  0  0  0  0  0  0  0  0  0  0
   21.0159   -9.4373  -20.0236 C   0  0  2  0  0  0  0  0  0  0  0  0
   20.8208  -10.8142  -19.5853 N   0  0  0  0  0  0  0  0  0  0  0  0
   21.6855   -8.6518  -18.9391 C   0  0  0  0  0  0  0  0  0  0  0  0
   21.5116   -8.9930  -17.7408 O   0  0  0  0  0  0  0  0  0  0  0  0
   17.9271  -10.2011  -21.3176 C   0  0  0  0  0  0  0  0  0  0  0  0
   17.2864  -10.6929  -22.4493 C   0  0  0  0  0  0  0  0  0  0  0  0
   28.4471   -7.2344  -20.0145 C   0  0  0  0  0  0  0  0  0  0  0  0
   26.9844   -6.2156  -19.8433 S   0  0  0  0  0  0  0  0  0  0  0  0
   25.7295   -7.0430  -18.7758 C   0  0  0  0  0  0  0  0  0  0  0  0
   24.4683   -6.2681  -18.9527 C   0  0  0  0  0  0  0  0  0  0  0  0
   23.2646   -6.8023  -18.2255 C   0  0  2  0  0  0  0  0  0  0  0  0
   22.5023   -7.5407  -19.2609 N   0  0  0  0  0  0  0  0  0  0  0  0
   22.4151   -5.7966  -17.5934 C   0  0  0  0  0  0  0  0  0  0  0  0
   21.6054   -5.1502  -18.3227 O   0  0  0  0  0  0  0  0  0  0  0  0
   19.8178   -4.0503  -13.9446 C   0  0  0  0  0  0  0  0  0  0  0  0
   20.7916   -5.1121  -14.4342 C   0  0  1  0  0  0  0  0  0  0  0  0
   19.9540   -6.3233  -14.7913 C   0  0  0  0  0  0  0  0  0  0  0  0
   21.4602   -4.5620  -15.6872 C   0  0  2  0  0  0  0  0  0  0  0  0
   22.4300   -5.4931  -16.2134 N   0  0  0  0  0  0  0  0  0  0  0  0
   22.1445   -3.2799  -15.4047 C   0  0  0  0  0  0  0  0  0  0  0  0
   21.4733   -2.0713  -15.3618 O   0  0  0  0  0  0  0  0  0  0  0  0
   23.3966   -3.2504  -15.1888 O   0  0  0  0  0  0  0  0  0  0  0  0
  2 12  2  0
  2  1  1  0
  3  2  1  0
  4  5  1  0
  4  3  2  0
  5 11  2  0
  6  5  1  0
  7  6  1  0
  7  8  1  1
  9  7  1  0
  9 10  2  0
 11 12  1  0
 13 14  1  0
 14 15  1  0
 16 15  1  0
 17 16  1  6
 17 18  1  0
 18  9  1  0
 19 25  1  0
 19 17  1  0
 20 19  2  0
 22 21  1  6
 23 22  1  0
 24 25  1  1
 24 22  1  0
 26 24  1  0
 27 26  1  0
 28 26  2  0
M  END
$$$$
