YMV.pdb
     RDKit          3D

 28 28  0  0  1  0  0  0  0  0999 V2000
   19.1652  -31.0128   -8.8383 O   0  0  0  0  0  0  0  0  0  0  0  0
   18.8401  -29.6976   -9.1309 C   0  0  0  0  0  0  0  0  0  0  0  0
   19.6899  -28.9265   -9.9000 C   0  0  0  0  0  0  0  0  0  0  0  0
   19.3774  -27.6039  -10.2025 C   0  0  0  0  0  0  0  0  0  0  0  0
   18.2108  -27.0168   -9.7466 C   0  0  0  0  0  0  0  0  0  0  0  0
   17.9213  -25.6206  -10.0899 C   0  0  0  0  0  0  0  0  0  0  0  0
   18.9015  -24.6469   -9.4795 C   0  0  2  0  0  0  0  0  0  0  0  0
   18.7400  -24.6501   -8.0303 N   0  0  0  0  0  0  0  0  0  0  0  0
   18.5582  -23.2949  -10.0233 C   0  0  0  0  0  0  0  0  0  0  0  0
   17.5577  -22.6871   -9.5630 O   0  0  0  0  0  0  0  0  0  0  0  0
   17.3715  -27.7718   -8.9895 C   0  0  0  0  0  0  0  0  0  0  0  0
   17.6778  -29.0931   -8.6838 C   0  0  0  0  0  0  0  0  0  0  0  0
   23.2330  -20.1902  -10.1606 C   0  0  0  0  0  0  0  0  0  0  0  0
   21.8747  -19.1946   -9.5519 S   0  0  0  0  0  0  0  0  0  0  0  0
   20.2680  -20.0718   -9.7718 C   0  0  0  0  0  0  0  0  0  0  0  0
   20.2437  -20.5296  -11.1903 C   0  0  0  0  0  0  0  0  0  0  0  0
   19.0572  -21.3647  -11.5881 C   0  0  2  0  0  0  0  0  0  0  0  0
   19.3507  -22.7114  -11.0416 N   0  0  0  0  0  0  0  0  0  0  0  0
   18.7996  -21.4466  -13.0232 C   0  0  0  0  0  0  0  0  0  0  0  0
   19.5590  -22.1750  -13.7290 O   0  0  0  0  0  0  0  0  0  0  0  0
   15.9720  -22.8105  -14.7180 C   0  0  0  0  0  0  0  0  0  0  0  0
   16.1403  -21.4580  -15.3946 C   0  0  1  0  0  0  0  0  0  0  0  0
   15.1421  -20.5273  -14.7362 C   0  0  0  0  0  0  0  0  0  0  0  0
   17.5572  -20.9838  -15.0998 C   0  0  2  0  0  0  0  0  0  0  0  0
   17.7521  -20.7679  -13.6856 N   0  0  0  0  0  0  0  0  0  0  0  0
   17.8541  -19.7211  -15.8134 C   0  0  0  0  0  0  0  0  0  0  0  0
   18.0504  -19.6675  -17.1816 O   0  0  0  0  0  0  0  0  0  0  0  0
   17.9397  -18.6246  -15.1767 O   0  0  0  0  0  0  0  0  0  0  0  0
  2 12  2  0
  2  1  1  0
  3  2  1  0
  4  5  1  0
  4  3  2  0
  5 11  2  0
  6  5  1  0
  7  6  1  0
  7  8  1  1
  9  7  1  0
  9 10  2  0
 11 12  1  0
 13 14  1  0
 14 15  1  0
 16 15  1  0
 17 16  1  6
 17 18  1  0
 18  9  1  0
 19 25  1  0
 19 17  1  0
 20 19  2  0
 22 21  1  1
 23 22  1  0
 24 25  1  1
 24 22  1  0
 26 24  1  0
 27 26  1  0
 28 26  2  0
M  END
$$$$
