YMV.pdb
     RDKit          3D

 28 28  0  0  1  0  0  0  0  0999 V2000
   29.6017  -20.4563   -4.1709 O   0  0  0  0  0  0  0  0  0  0  0  0
   28.9419  -20.3687   -5.3867 C   0  0  0  0  0  0  0  0  0  0  0  0
   27.9081  -19.4677   -5.5528 C   0  0  0  0  0  0  0  0  0  0  0  0
   27.2357  -19.3679   -6.7678 C   0  0  0  0  0  0  0  0  0  0  0  0
   27.5763  -20.1629   -7.8473 C   0  0  0  0  0  0  0  0  0  0  0  0
   26.8414  -20.0238   -9.1089 C   0  0  0  0  0  0  0  0  0  0  0  0
   27.1027  -21.1571  -10.0726 C   0  0  2  0  0  0  0  0  0  0  0  0
   28.5190  -21.1740  -10.4192 N   0  0  0  0  0  0  0  0  0  0  0  0
   26.2864  -20.8769  -11.2959 C   0  0  0  0  0  0  0  0  0  0  0  0
   26.6787  -19.9963  -12.1040 O   0  0  0  0  0  0  0  0  0  0  0  0
   28.5931  -21.0510   -7.6885 C   0  0  0  0  0  0  0  0  0  0  0  0
   29.2686  -21.1556   -6.4778 C   0  0  0  0  0  0  0  0  0  0  0  0
   24.7167  -25.2517  -14.7137 C   0  0  0  0  0  0  0  0  0  0  0  0
   25.8618  -24.0316  -15.3519 S   0  0  0  0  0  0  0  0  0  0  0  0
   25.8279  -22.5000  -14.3261 C   0  0  0  0  0  0  0  0  0  0  0  0
   24.5046  -22.4975  -13.6398 C   0  0  0  0  0  0  0  0  0  0  0  0
   24.2438  -21.3314  -12.7258 C   0  0  2  0  0  0  0  0  0  0  0  0
   25.0897  -21.5947  -11.5369 N   0  0  0  0  0  0  0  0  0  0  0  0
   22.8517  -21.1467  -12.3250 C   0  0  0  0  0  0  0  0  0  0  0  0
   22.4260  -21.7895  -11.3195 O   0  0  0  0  0  0  0  0  0  0  0  0
   21.0004  -17.8566  -11.8157 C   0  0  0  0  0  0  0  0  0  0  0  0
   20.0686  -18.7547  -12.6161 C   0  0  1  0  0  0  0  0  0  0  0  0
   20.1832  -18.3063  -14.0589 C   0  0  0  0  0  0  0  0  0  0  0  0
   20.5913  -20.1784  -12.4771 C   0  0  2  0  0  0  0  0  0  0  0  0
   21.9390  -20.2916  -12.9826 N   0  0  0  0  0  0  0  0  0  0  0  0
   19.7318  -21.1340  -13.2119 C   0  0  0  0  0  0  0  0  0  0  0  0
   18.5042  -21.5527  -12.7315 O   0  0  0  0  0  0  0  0  0  0  0  0
   20.1041  -21.6088  -14.3304 O   0  0  0  0  0  0  0  0  0  0  0  0
  2 12  2  0
  2  1  1  0
  3  2  1  0
  4  5  1  0
  4  3  2  0
  5 11  2  0
  6  5  1  0
  7  6  1  0
  7  8  1  6
  9  7  1  0
  9 10  2  0
 11 12  1  0
 13 14  1  0
 14 15  1  0
 16 15  1  0
 17 16  1  6
 17 18  1  0
 18  9  1  0
 19 25  1  0
 19 17  1  0
 20 19  2  0
 22 21  1  1
 23 22  1  0
 24 25  1  6
 24 22  1  0
 26 24  1  0
 27 26  1  0
 28 26  2  0
M  END
$$$$
