IKQ.pdb
     RDKit          3D

 27 26  0  0  1  0  0  0  0  0999 V2000
    5.4805  -11.4527   26.3770 C   0  0  0  0  0  0  0  0  0  0  0  0
    5.3630  -12.8423   25.8603 C   0  0  0  0  0  0  0  0  0  0  0  0
    6.6880  -13.5312   25.5683 C   0  0  2  0  0  0  0  0  0  0  0  0
    7.3764  -12.6113   24.5573 C   0  0  0  0  0  0  0  0  0  0  0  0
    6.4023  -14.8872   25.0363 C   0  0  2  0  0  0  0  0  0  0  0  0
    5.7308  -15.6346   26.1132 N   0  0  0  0  0  0  0  0  0  0  0  0
    7.5372  -15.6935   24.5983 C   0  0  0  0  0  0  0  0  0  0  0  0
    8.1981  -16.3675   25.4685 O   0  0  0  0  0  0  0  0  0  0  0  0
    8.0337  -15.8453   23.2830 N   0  0  0  0  0  0  0  0  0  0  0  0
    9.1746  -16.6918   22.9625 C   0  0  1  0  0  0  0  0  0  0  0  0
    9.3163  -16.8185   21.4658 C   0  0  0  0  0  0  0  0  0  0  0  0
   10.4890  -17.6040   21.0067 C   0  0  0  0  0  0  0  0  0  0  0  0
   10.6006  -17.6761   19.4991 C   0  0  0  0  0  0  0  0  0  0  0  0
   11.8019  -18.4751   19.0735 C   0  0  0  0  0  0  0  0  0  0  0  0
   11.8205  -18.6936   17.6283 N   0  0  0  0  0  0  0  0  0  0  0  0
   10.4274  -16.1887   23.5278 C   0  0  0  0  0  0  0  0  0  0  0  0
   10.7368  -14.9819   23.3654 O   0  0  0  0  0  0  0  0  0  0  0  0
   11.1487  -14.0642   28.3487 N   0  0  0  0  0  0  0  0  0  0  0  0
   10.9955  -15.4682   28.3146 C   0  0  0  0  0  0  0  0  0  0  0  0
   10.4680  -16.0400   29.3107 O   0  0  0  0  0  0  0  0  0  0  0  0
   11.4197  -16.3067   27.1741 C   0  0  0  0  0  0  0  0  0  0  0  0
   12.0293  -15.4576   26.0806 C   0  0  0  0  0  0  0  0  0  0  0  0
   12.4988  -16.3585   24.9506 C   0  0  2  0  0  0  0  0  0  0  0  0
   11.3698  -16.9580   24.2733 N   0  0  0  0  0  0  0  0  0  0  0  0
   13.3842  -17.4304   25.4328 C   0  0  0  0  0  0  0  0  0  0  0  0
   13.0085  -18.7485   25.3316 O   0  0  0  0  0  0  0  0  0  0  0  0
   14.4872  -17.1429   25.9388 O   0  0  0  0  0  0  0  0  0  0  0  0
  2  3  1  0
  2  1  1  0
  3  5  1  0
  3  4  1  6
  5  6  1  1
  7  5  1  0
  8  7  2  0
  9  7  1  0
 10  9  1  0
 10 11  1  6
 11 12  1  0
 12 13  1  0
 13 14  1  0
 14 15  1  0
 16 10  1  0
 17 16  2  0
 18 19  1  0
 19 21  1  0
 20 19  2  0
 22 21  1  0
 23 22  1  1
 23 24  1  0
 24 16  1  0
 25 23  1  0
 25 26  1  0
 27 25  2  0
M  END
$$$$
