IKQ.pdb
     RDKit          3D

 27 26  0  0  1  0  0  0  0  0999 V2000
    5.7174  -11.6875   27.1582 C   0  0  0  0  0  0  0  0  0  0  0  0
    6.3375  -12.9655   27.5984 C   0  0  0  0  0  0  0  0  0  0  0  0
    7.2416  -13.6268   26.5685 C   0  0  2  0  0  0  0  0  0  0  0  0
    7.9987  -12.4613   25.9277 C   0  0  0  0  0  0  0  0  0  0  0  0
    6.3895  -14.3767   25.6118 C   0  0  2  0  0  0  0  0  0  0  0  0
    5.8224  -15.5178   26.3505 N   0  0  0  0  0  0  0  0  0  0  0  0
    7.0300  -14.9159   24.4164 C   0  0  0  0  0  0  0  0  0  0  0  0
    7.6330  -16.0472   24.4864 O   0  0  0  0  0  0  0  0  0  0  0  0
    7.0797  -14.3380   23.1268 N   0  0  0  0  0  0  0  0  0  0  0  0
    7.8204  -14.9330   22.0230 C   0  0  1  0  0  0  0  0  0  0  0  0
    7.6868  -14.0721   20.7911 C   0  0  0  0  0  0  0  0  0  0  0  0
    8.3681  -14.5930   19.5798 C   0  0  0  0  0  0  0  0  0  0  0  0
    8.0419  -13.8033   18.3305 C   0  0  0  0  0  0  0  0  0  0  0  0
    8.6557  -14.4286   17.1079 C   0  0  0  0  0  0  0  0  0  0  0  0
    8.5295  -13.5622   15.9374 N   0  0  0  0  0  0  0  0  0  0  0  0
    9.2386  -15.1220   22.3316 C   0  0  0  0  0  0  0  0  0  0  0  0
    9.8318  -14.2778   23.0485 O   0  0  0  0  0  0  0  0  0  0  0  0
   12.7981  -18.0806   25.7128 N   0  0  0  0  0  0  0  0  0  0  0  0
   11.5004  -18.4081   25.2608 C   0  0  0  0  0  0  0  0  0  0  0  0
   10.9095  -19.3918   25.7905 O   0  0  0  0  0  0  0  0  0  0  0  0
   10.7945  -17.6607   24.1992 C   0  0  0  0  0  0  0  0  0  0  0  0
   11.6241  -16.4879   23.7255 C   0  0  0  0  0  0  0  0  0  0  0  0
   11.4489  -16.3247   22.2250 C   0  0  2  0  0  0  0  0  0  0  0  0
   10.0478  -16.2087   21.8843 N   0  0  0  0  0  0  0  0  0  0  0  0
   12.0249  -17.4538   21.4774 C   0  0  0  0  0  0  0  0  0  0  0  0
   13.3815  -17.6737   21.4750 O   0  0  0  0  0  0  0  0  0  0  0  0
   11.2769  -18.2206   20.8387 O   0  0  0  0  0  0  0  0  0  0  0  0
  2  3  1  0
  2  1  1  0
  3  5  1  0
  3  4  1  6
  5  6  1  1
  7  5  1  0
  8  7  2  0
  9  7  1  0
 10  9  1  0
 10 11  1  6
 11 12  1  0
 12 13  1  0
 13 14  1  0
 14 15  1  0
 16 10  1  0
 17 16  2  0
 18 19  1  0
 19 21  1  0
 20 19  2  0
 22 21  1  0
 23 22  1  1
 23 24  1  0
 24 16  1  0
 25 23  1  0
 25 26  1  0
 27 25  2  0
M  END
$$$$
