IKQ.pdb
     RDKit          3D

 27 26  0  0  1  0  0  0  0  0999 V2000
    6.5321  -12.0038   28.0716 C   0  0  0  0  0  0  0  0  0  0  0  0
    6.0372  -13.0604   27.1494 C   0  0  0  0  0  0  0  0  0  0  0  0
    7.0322  -13.4985   26.0847 C   0  0  2  0  0  0  0  0  0  0  0  0
    7.5063  -12.1891   25.4502 C   0  0  0  0  0  0  0  0  0  0  0  0
    6.3326  -14.3982   25.1335 C   0  0  2  0  0  0  0  0  0  0  0  0
    6.0446  -15.6461   25.8609 N   0  0  0  0  0  0  0  0  0  0  0  0
    7.0383  -14.7680   23.9108 C   0  0  0  0  0  0  0  0  0  0  0  0
    7.7172  -15.8575   23.8859 O   0  0  0  0  0  0  0  0  0  0  0  0
    7.0789  -14.0594   22.6878 N   0  0  0  0  0  0  0  0  0  0  0  0
    7.8739  -14.4958   21.5483 C   0  0  1  0  0  0  0  0  0  0  0  0
    7.9689  -13.3847   20.5321 C   0  0  0  0  0  0  0  0  0  0  0  0
    8.7595  -13.7055   19.3177 C   0  0  0  0  0  0  0  0  0  0  0  0
    8.0638  -14.6875   18.3998 C   0  0  0  0  0  0  0  0  0  0  0  0
    8.9483  -15.0895   17.2515 C   0  0  0  0  0  0  0  0  0  0  0  0
    9.2230  -13.9629   16.3616 N   0  0  0  0  0  0  0  0  0  0  0  0
    9.2215  -14.9210   21.9299 C   0  0  0  0  0  0  0  0  0  0  0  0
   10.0091  -14.0876   22.4434 O   0  0  0  0  0  0  0  0  0  0  0  0
   10.6918  -19.3017   25.3990 N   0  0  0  0  0  0  0  0  0  0  0  0
   10.6310  -17.9063   25.6108 C   0  0  0  0  0  0  0  0  0  0  0  0
   10.4224  -17.4845   26.7839 O   0  0  0  0  0  0  0  0  0  0  0  0
   10.7985  -16.9103   24.5320 C   0  0  0  0  0  0  0  0  0  0  0  0
   11.1688  -17.5858   23.2301 C   0  0  0  0  0  0  0  0  0  0  0  0
   11.1216  -16.5649   22.1057 C   0  0  2  0  0  0  0  0  0  0  0  0
    9.7529  -16.2357   21.7723 N   0  0  0  0  0  0  0  0  0  0  0  0
   11.7996  -17.0497   20.8930 C   0  0  0  0  0  0  0  0  0  0  0  0
   11.0914  -17.2775   19.7374 O   0  0  0  0  0  0  0  0  0  0  0  0
   13.0293  -17.2570   20.9110 O   0  0  0  0  0  0  0  0  0  0  0  0
  2  3  1  0
  2  1  1  0
  3  5  1  0
  3  4  1  6
  5  6  1  1
  7  5  1  0
  8  7  2  0
  9  7  1  0
 10  9  1  0
 10 11  1  6
 11 12  1  0
 12 13  1  0
 13 14  1  0
 14 15  1  0
 16 10  1  0
 17 16  2  0
 18 19  1  0
 19 21  1  0
 20 19  2  0
 22 21  1  0
 23 22  1  1
 23 24  1  0
 24 16  1  0
 25 23  1  0
 25 26  1  0
 27 25  2  0
M  END
$$$$
