IKQ.pdb
     RDKit          3D

 27 26  0  0  1  0  0  0  0  0999 V2000
    6.3393  -11.8962   28.2437 C   0  0  0  0  0  0  0  0  0  0  0  0
    5.7909  -12.8999   27.2930 C   0  0  0  0  0  0  0  0  0  0  0  0
    6.7864  -13.4208   26.2669 C   0  0  2  0  0  0  0  0  0  0  0  0
    7.3088  -12.1599   25.5745 C   0  0  0  0  0  0  0  0  0  0  0  0
    6.0728  -14.3464   25.3517 C   0  0  2  0  0  0  0  0  0  0  0  0
    5.6572  -15.5066   26.1582 N   0  0  0  0  0  0  0  0  0  0  0  0
    6.8116  -14.8644   24.2046 C   0  0  0  0  0  0  0  0  0  0  0  0
    7.4551  -15.9691   24.3224 O   0  0  0  0  0  0  0  0  0  0  0  0
    6.9210  -14.2917   22.9163 N   0  0  0  0  0  0  0  0  0  0  0  0
    7.7471  -14.8671   21.8640 C   0  0  1  0  0  0  0  0  0  0  0  0
    7.6581  -14.0193   20.6191 C   0  0  0  0  0  0  0  0  0  0  0  0
    8.3948  -14.5453   19.4429 C   0  0  0  0  0  0  0  0  0  0  0  0
    8.1829  -13.7189   18.1928 C   0  0  0  0  0  0  0  0  0  0  0  0
    8.8832  -14.3244   17.0072 C   0  0  0  0  0  0  0  0  0  0  0  0
    8.7972  -13.4612   15.8307 N   0  0  0  0  0  0  0  0  0  0  0  0
    9.1499  -15.0039   22.2588 C   0  0  0  0  0  0  0  0  0  0  0  0
    9.6538  -14.1646   23.0463 O   0  0  0  0  0  0  0  0  0  0  0  0
   11.2975  -16.5931   26.6000 N   0  0  0  0  0  0  0  0  0  0  0  0
   10.6600  -17.5246   25.7505 C   0  0  0  0  0  0  0  0  0  0  0  0
   10.1292  -18.5473   26.2700 O   0  0  0  0  0  0  0  0  0  0  0  0
   10.5800  -17.3676   24.2832 C   0  0  0  0  0  0  0  0  0  0  0  0
   11.4302  -16.2053   23.8203 C   0  0  0  0  0  0  0  0  0  0  0  0
   11.3993  -16.1360   22.3027 C   0  0  2  0  0  0  0  0  0  0  0  0
   10.0381  -16.0324   21.8241 N   0  0  0  0  0  0  0  0  0  0  0  0
   12.0290  -17.3139   21.6849 C   0  0  0  0  0  0  0  0  0  0  0  0
   11.2925  -18.1763   20.9087 O   0  0  0  0  0  0  0  0  0  0  0  0
   13.2431  -17.5343   21.8657 O   0  0  0  0  0  0  0  0  0  0  0  0
  2  3  1  0
  2  1  1  0
  3  5  1  0
  3  4  1  6
  5  6  1  1
  7  5  1  0
  8  7  2  0
  9  7  1  0
 10  9  1  0
 10 11  1  6
 11 12  1  0
 12 13  1  0
 13 14  1  0
 14 15  1  0
 16 10  1  0
 17 16  2  0
 18 19  1  0
 19 21  1  0
 20 19  2  0
 22 21  1  0
 23 22  1  1
 23 24  1  0
 24 16  1  0
 25 23  1  0
 25 26  1  0
 27 25  2  0
M  END
$$$$
