IKQ.pdb
     RDKit          3D

 27 26  0  0  1  0  0  0  0  0999 V2000
    7.9692  -11.8809   27.2465 C   0  0  0  0  0  0  0  0  0  0  0  0
    7.6852  -13.2762   26.8173 C   0  0  0  0  0  0  0  0  0  0  0  0
    6.3267  -13.4810   26.1631 C   0  0  2  0  0  0  0  0  0  0  0  0
    5.3224  -13.1935   27.2815 C   0  0  0  0  0  0  0  0  0  0  0  0
    6.2600  -14.8725   25.6507 C   0  0  2  0  0  0  0  0  0  0  0  0
    6.6548  -15.7550   26.7619 N   0  0  0  0  0  0  0  0  0  0  0  0
    7.1058  -15.2137   24.5113 C   0  0  0  0  0  0  0  0  0  0  0  0
    7.6502  -16.3754   24.4624 O   0  0  0  0  0  0  0  0  0  0  0  0
    7.4234  -14.4033   23.3968 N   0  0  0  0  0  0  0  0  0  0  0  0
    8.0800  -14.9220   22.2049 C   0  0  1  0  0  0  0  0  0  0  0  0
    8.1035  -13.8641   21.1294 C   0  0  0  0  0  0  0  0  0  0  0  0
    8.6362  -14.3091   19.8175 C   0  0  0  0  0  0  0  0  0  0  0  0
    8.5258  -13.2493   18.7427 C   0  0  0  0  0  0  0  0  0  0  0  0
    8.8202  -13.8141   17.3801 C   0  0  0  0  0  0  0  0  0  0  0  0
    8.4569  -12.8782   16.3177 N   0  0  0  0  0  0  0  0  0  0  0  0
    9.4457  -15.3789   22.4662 C   0  0  0  0  0  0  0  0  0  0  0  0
   10.2296  -15.5637   21.5018 O   0  0  0  0  0  0  0  0  0  0  0  0
   11.9818  -16.7444   28.1561 N   0  0  0  0  0  0  0  0  0  0  0  0
   11.4811  -15.5100   27.6857 C   0  0  0  0  0  0  0  0  0  0  0  0
   11.2292  -14.6026   28.5287 O   0  0  0  0  0  0  0  0  0  0  0  0
   11.2351  -15.2215   26.2574 C   0  0  0  0  0  0  0  0  0  0  0  0
   11.6426  -16.3952   25.3945 C   0  0  0  0  0  0  0  0  0  0  0  0
   11.3731  -16.0618   23.9367 C   0  0  2  0  0  0  0  0  0  0  0  0
    9.9996  -15.6464   23.7536 N   0  0  0  0  0  0  0  0  0  0  0  0
   11.6426  -17.2060   23.0513 C   0  0  0  0  0  0  0  0  0  0  0  0
   12.8951  -17.7688   22.9947 O   0  0  0  0  0  0  0  0  0  0  0  0
   10.7270  -17.6717   22.3440 O   0  0  0  0  0  0  0  0  0  0  0  0
  2  3  1  0
  2  1  1  0
  3  5  1  0
  3  4  1  1
  5  6  1  1
  7  5  1  0
  8  7  2  0
  9  7  1  0
 10  9  1  0
 10 11  1  6
 11 12  1  0
 12 13  1  0
 13 14  1  0
 14 15  1  0
 16 10  1  0
 17 16  2  0
 18 19  1  0
 19 21  1  0
 20 19  2  0
 22 21  1  0
 23 22  1  1
 23 24  1  0
 24 16  1  0
 25 23  1  0
 25 26  1  0
 27 25  2  0
M  END
$$$$
