IKQ.pdb
     RDKit          3D

 27 26  0  0  1  0  0  0  0  0999 V2000
    6.0176  -11.2349   27.2907 C   0  0  0  0  0  0  0  0  0  0  0  0
    5.7037  -12.5144   26.6007 C   0  0  0  0  0  0  0  0  0  0  0  0
    6.8903  -13.1850   25.9242 C   0  0  2  0  0  0  0  0  0  0  0  0
    7.5071  -12.0803   25.0631 C   0  0  0  0  0  0  0  0  0  0  0  0
    6.3883  -14.3388   25.1366 C   0  0  2  0  0  0  0  0  0  0  0  0
    5.9602  -15.3621   26.1057 N   0  0  0  0  0  0  0  0  0  0  0  0
    7.3189  -14.9836   24.2157 C   0  0  0  0  0  0  0  0  0  0  0  0
    7.9434  -16.0393   24.5950 O   0  0  0  0  0  0  0  0  0  0  0  0
    7.6432  -14.5893   22.8970 N   0  0  0  0  0  0  0  0  0  0  0  0
    8.5725  -15.3319   22.0568 C   0  0  1  0  0  0  0  0  0  0  0  0
    8.7901  -14.5970   20.7572 C   0  0  0  0  0  0  0  0  0  0  0  0
    7.6038  -14.5206   19.8686 C   0  0  0  0  0  0  0  0  0  0  0  0
    7.7828  -13.5474   18.7233 C   0  0  0  0  0  0  0  0  0  0  0  0
    8.0250  -14.2650   17.4238 C   0  0  0  0  0  0  0  0  0  0  0  0
    8.2008  -13.3289   16.3149 N   0  0  0  0  0  0  0  0  0  0  0  0
    9.8635  -15.5599   22.7075 C   0  0  0  0  0  0  0  0  0  0  0  0
   10.4510  -14.6000   23.2661 O   0  0  0  0  0  0  0  0  0  0  0  0
   12.7482  -19.1962   28.0817 N   0  0  0  0  0  0  0  0  0  0  0  0
   11.9016  -18.9163   26.9860 C   0  0  0  0  0  0  0  0  0  0  0  0
   10.7106  -19.3375   27.0232 O   0  0  0  0  0  0  0  0  0  0  0  0
   12.3346  -18.1557   25.7952 C   0  0  0  0  0  0  0  0  0  0  0  0
   11.1543  -17.8327   24.9059 C   0  0  0  0  0  0  0  0  0  0  0  0
   11.6380  -17.0477   23.6981 C   0  0  2  0  0  0  0  0  0  0  0  0
   10.5498  -16.8090   22.7753 N   0  0  0  0  0  0  0  0  0  0  0  0
   12.7184  -17.7465   22.9839 C   0  0  0  0  0  0  0  0  0  0  0  0
   13.9548  -17.9033   23.5632 O   0  0  0  0  0  0  0  0  0  0  0  0
   12.5129  -18.2021   21.8413 O   0  0  0  0  0  0  0  0  0  0  0  0
  2  3  1  0
  2  1  1  0
  3  5  1  0
  3  4  1  6
  5  6  1  1
  7  5  1  0
  8  7  2  0
  9  7  1  0
 10  9  1  0
 10 11  1  6
 11 12  1  0
 12 13  1  0
 13 14  1  0
 14 15  1  0
 16 10  1  0
 17 16  2  0
 18 19  1  0
 19 21  1  0
 20 19  2  0
 22 21  1  0
 23 22  1  1
 23 24  1  0
 24 16  1  0
 25 23  1  0
 25 26  1  0
 27 25  2  0
M  END
$$$$
