IKQ.pdb
     RDKit          3D

 27 26  0  0  1  0  0  0  0  0999 V2000
    7.8427  -12.8747   17.0333 C   0  0  0  0  0  0  0  0  0  0  0  0
    7.4218  -13.5917   18.2664 C   0  0  0  0  0  0  0  0  0  0  0  0
    8.5348  -13.8415   19.2735 C   0  0  2  0  0  0  0  0  0  0  0  0
    9.5870  -14.6254   18.4858 C   0  0  0  0  0  0  0  0  0  0  0  0
    7.9678  -14.5972   20.4185 C   0  0  2  0  0  0  0  0  0  0  0  0
    6.8692  -13.7822   20.9647 N   0  0  0  0  0  0  0  0  0  0  0  0
    8.8613  -14.9112   21.5289 C   0  0  0  0  0  0  0  0  0  0  0  0
    9.2835  -13.9596   22.2802 O   0  0  0  0  0  0  0  0  0  0  0  0
    9.3496  -16.1815   21.9132 N   0  0  0  0  0  0  0  0  0  0  0  0
   10.3861  -16.3572   22.9209 C   0  0  1  0  0  0  0  0  0  0  0  0
   10.0352  -17.5145   23.8230 C   0  0  0  0  0  0  0  0  0  0  0  0
   11.0820  -17.8886   24.8064 C   0  0  0  0  0  0  0  0  0  0  0  0
   10.7021  -19.0866   25.6496 C   0  0  0  0  0  0  0  0  0  0  0  0
   11.7738  -19.4165   26.6522 C   0  0  0  0  0  0  0  0  0  0  0  0
   12.9282  -20.0514   26.0192 N   0  0  0  0  0  0  0  0  0  0  0  0
   11.7094  -16.5810   22.3367 C   0  0  0  0  0  0  0  0  0  0  0  0
   11.9064  -17.5993   21.6277 O   0  0  0  0  0  0  0  0  0  0  0  0
   15.7550  -13.4385   19.0184 N   0  0  0  0  0  0  0  0  0  0  0  0
   14.6119  -14.2244   18.7514 C   0  0  0  0  0  0  0  0  0  0  0  0
   14.1083  -14.1795   17.5931 O   0  0  0  0  0  0  0  0  0  0  0  0
   13.9714  -15.0987   19.7560 C   0  0  0  0  0  0  0  0  0  0  0  0
   14.6976  -15.0169   21.0804 C   0  0  0  0  0  0  0  0  0  0  0  0
   14.1580  -16.0875   22.0139 C   0  0  2  0  0  0  0  0  0  0  0  0
   12.8422  -15.7284   22.4961 N   0  0  0  0  0  0  0  0  0  0  0  0
   15.0415  -16.3060   23.1703 C   0  0  0  0  0  0  0  0  0  0  0  0
   16.2176  -17.0034   23.0320 O   0  0  0  0  0  0  0  0  0  0  0  0
   14.7224  -15.8549   24.2883 O   0  0  0  0  0  0  0  0  0  0  0  0
  2  3  1  0
  2  1  1  0
  3  5  1  0
  3  4  1  6
  5  6  1  1
  7  5  1  0
  8  7  2  0
  9  7  1  0
 10  9  1  0
 10 11  1  6
 11 12  1  0
 12 13  1  0
 13 14  1  0
 14 15  1  0
 16 10  1  0
 17 16  2  0
 18 19  1  0
 19 21  1  0
 20 19  2  0
 22 21  1  0
 23 22  1  6
 23 24  1  0
 24 16  1  0
 25 23  1  0
 25 26  1  0
 27 25  2  0
M  END
$$$$
