IKQ.pdb
     RDKit          3D

 27 26  0  0  1  0  0  0  0  0999 V2000
    6.3238  -11.7198   27.9998 C   0  0  0  0  0  0  0  0  0  0  0  0
    5.8567  -12.8635   27.1719 C   0  0  0  0  0  0  0  0  0  0  0  0
    6.8709  -13.3789   26.1613 C   0  0  2  0  0  0  0  0  0  0  0  0
    7.2922  -12.1319   25.3805 C   0  0  0  0  0  0  0  0  0  0  0  0
    6.2107  -14.4089   25.3206 C   0  0  2  0  0  0  0  0  0  0  0  0
    5.9227  -15.5554   26.1992 N   0  0  0  0  0  0  0  0  0  0  0  0
    6.9542  -14.9232   24.1749 C   0  0  0  0  0  0  0  0  0  0  0  0
    7.6892  -15.9654   24.3232 O   0  0  0  0  0  0  0  0  0  0  0  0
    6.9773  -14.4093   22.8577 N   0  0  0  0  0  0  0  0  0  0  0  0
    7.8166  -14.9679   21.8068 C   0  0  1  0  0  0  0  0  0  0  0  0
    7.6048  -14.2073   20.5211 C   0  0  0  0  0  0  0  0  0  0  0  0
    8.3936  -14.6945   19.3620 C   0  0  0  0  0  0  0  0  0  0  0  0
    8.1072  -13.9306   18.0871 C   0  0  0  0  0  0  0  0  0  0  0  0
    8.7841  -14.5633   16.9023 C   0  0  0  0  0  0  0  0  0  0  0  0
    8.6251  -13.7553   15.6946 N   0  0  0  0  0  0  0  0  0  0  0  0
    9.2389  -14.9516   22.1517 C   0  0  0  0  0  0  0  0  0  0  0  0
    9.6735  -14.0715   22.9359 O   0  0  0  0  0  0  0  0  0  0  0  0
   12.6000  -18.8086   26.2226 N   0  0  0  0  0  0  0  0  0  0  0  0
   11.5668  -18.5835   25.2858 C   0  0  0  0  0  0  0  0  0  0  0  0
   10.3799  -18.8595   25.6214 O   0  0  0  0  0  0  0  0  0  0  0  0
   11.7993  -18.0414   23.9308 C   0  0  0  0  0  0  0  0  0  0  0  0
   11.1442  -16.6869   23.7746 C   0  0  0  0  0  0  0  0  0  0  0  0
   11.4458  -16.1421   22.3886 C   0  0  2  0  0  0  0  0  0  0  0  0
   10.2205  -15.8683   21.6700 N   0  0  0  0  0  0  0  0  0  0  0  0
   12.2601  -17.0763   21.5950 C   0  0  0  0  0  0  0  0  0  0  0  0
   13.6252  -17.1199   21.7473 O   0  0  0  0  0  0  0  0  0  0  0  0
   11.7086  -17.8374   20.7753 O   0  0  0  0  0  0  0  0  0  0  0  0
  2  3  1  0
  2  1  1  0
  3  5  1  0
  3  4  1  6
  5  6  1  1
  7  5  1  0
  8  7  2  0
  9  7  1  0
 10  9  1  0
 10 11  1  6
 11 12  1  0
 12 13  1  0
 13 14  1  0
 14 15  1  0
 16 10  1  0
 17 16  2  0
 18 19  1  0
 19 21  1  0
 20 19  2  0
 22 21  1  0
 23 22  1  1
 23 24  1  0
 24 16  1  0
 25 23  1  0
 25 26  1  0
 27 25  2  0
M  END
$$$$
