LEC.pdb
     RDKit          3D

 24 23  0  0  1  0  0  0  0  0999 V2000
   26.5178  -12.4020  -15.1330 C   0  0  0  0  0  0  0  0  0  0  0  0
   26.6719  -11.7217  -16.4771 C   0  0  2  0  0  0  0  0  0  0  0  0
   28.0663  -11.1681  -16.6100 C   0  0  0  0  0  0  0  0  0  0  0  0
   25.6142  -10.6720  -16.6804 C   0  0  0  0  0  0  0  0  0  0  0  0
   24.2461  -11.2751  -16.6735 C   0  0  2  0  0  0  0  0  0  0  0  0
   24.0440  -12.2786  -17.6711 N   0  0  0  0  0  0  0  0  0  0  0  0
   23.2180  -10.1674  -16.7443 C   0  0  0  0  0  0  0  0  0  0  0  0
   23.2951   -9.4237  -17.7498 O   0  0  0  0  0  0  0  0  0  0  0  0
   22.2526   -9.9848  -15.7628 N   0  0  0  0  0  0  0  0  0  0  0  0
   21.2649   -8.9460  -15.8066 C   0  0  1  0  0  0  0  0  0  0  0  0
   19.8620   -9.3820  -15.4560 C   0  0  0  0  0  0  0  0  0  0  0  0
   19.2504  -10.3703  -16.3962 C   0  0  0  0  0  0  0  0  0  0  0  0
   17.9100  -10.8586  -15.9987 C   0  0  0  0  0  0  0  0  0  0  0  0
   16.8639  -10.2725  -16.3145 O   0  0  0  0  0  0  0  0  0  0  0  0
   21.7073   -7.8037  -14.9924 C   0  0  0  0  0  0  0  0  0  0  0  0
   22.1861   -7.9205  -13.8316 O   0  0  0  0  0  0  0  0  0  0  0  0
   17.8075  -12.0175  -15.2420 O   0  0  0  0  0  0  0  0  0  0  0  0
   21.6077   -6.4673  -15.5074 N   0  0  0  0  0  0  0  0  0  0  0  0
   22.0202   -5.3093  -14.7698 C   0  0  1  0  0  0  0  0  0  0  0  0
   22.8336   -4.4458  -15.7422 C   0  0  0  0  0  0  0  0  0  0  0  0
   23.2696   -2.8606  -14.9801 S   0  0  0  0  0  0  0  0  0  0  0  0
   20.8310   -4.5067  -14.4079 C   0  0  0  0  0  0  0  0  0  0  0  0
   19.7659   -4.4264  -15.2897 O   0  0  0  0  0  0  0  0  0  0  0  0
   20.7363   -3.8789  -13.3141 O   0  0  0  0  0  0  0  0  0  0  0  0
  2  1  1  1
  3  2  1  0
  4  5  1  0
  4  2  1  0
  5  6  1  6
  7  5  1  0
  7  8  2  0
  9  7  1  0
 10  9  1  0
 11 12  1  0
 10 11  1  1
 12 13  1  0
 13 17  1  0
 13 14  2  0
 15 10  1  0
 16 15  2  0
 18 15  1  0
 19 18  1  0
 19 20  1  6
 20 21  1  0
 22 19  1  0
 23 22  1  0
 24 22  2  0
M  END
$$$$
