LEC.pdb
     RDKit          3D

 24 23  0  0  1  0  0  0  0  0999 V2000
   14.4838  -11.5672  -13.3816 C   0  0  0  0  0  0  0  0  0  0  0  0
   14.5579  -12.0867  -11.9611 C   0  0  2  0  0  0  0  0  0  0  0  0
   13.1709  -12.3875  -11.4567 C   0  0  0  0  0  0  0  0  0  0  0  0
   15.2994  -11.1292  -11.0692 C   0  0  0  0  0  0  0  0  0  0  0  0
   16.7057  -10.9335  -11.5375 C   0  0  2  0  0  0  0  0  0  0  0  0
   17.5516  -12.0685  -11.3397 N   0  0  0  0  0  0  0  0  0  0  0  0
   17.2638   -9.6743  -10.9113 C   0  0  0  0  0  0  0  0  0  0  0  0
   17.6706   -9.7933   -9.7321 O   0  0  0  0  0  0  0  0  0  0  0  0
   17.3227   -8.4668  -11.5948 N   0  0  0  0  0  0  0  0  0  0  0  0
   17.8059   -7.2491  -11.0115 C   0  0  1  0  0  0  0  0  0  0  0  0
   18.8903   -6.5500  -11.7966 C   0  0  0  0  0  0  0  0  0  0  0  0
   20.2786   -6.7508  -11.2798 C   0  0  0  0  0  0  0  0  0  0  0  0
   21.3332   -6.0425  -12.0409 C   0  0  0  0  0  0  0  0  0  0  0  0
   21.8557   -6.5173  -13.0603 O   0  0  0  0  0  0  0  0  0  0  0  0
   16.6754   -6.3558  -10.7160 C   0  0  0  0  0  0  0  0  0  0  0  0
   15.8505   -5.9660  -11.5866 O   0  0  0  0  0  0  0  0  0  0  0  0
   21.7626   -4.7966  -11.6056 O   0  0  0  0  0  0  0  0  0  0  0  0
   16.4614   -5.8786   -9.3790 N   0  0  0  0  0  0  0  0  0  0  0  0
   15.3849   -5.0019   -9.0215 C   0  0  1  0  0  0  0  0  0  0  0  0
   15.0727   -5.2819   -7.5461 C   0  0  0  0  0  0  0  0  0  0  0  0
   14.4438   -6.9681   -7.3333 S   0  0  0  0  0  0  0  0  0  0  0  0
   15.8518   -3.5992   -9.0809 C   0  0  0  0  0  0  0  0  0  0  0  0
   14.9457   -2.5683   -8.8940 O   0  0  0  0  0  0  0  0  0  0  0  0
   17.0583   -3.2882   -9.2977 O   0  0  0  0  0  0  0  0  0  0  0  0
  2  1  1  6
  3  2  1  0
  4  5  1  0
  4  2  1  0
  5  6  1  1
  7  5  1  0
  7  8  2  0
  9  7  1  0
 10  9  1  0
 11 12  1  0
 10 11  1  6
 12 13  1  0
 13 17  1  0
 13 14  2  0
 15 10  1  0
 16 15  2  0
 18 15  1  0
 19 18  1  0
 19 20  1  1
 20 21  1  0
 22 19  1  0
 23 22  1  0
 24 22  2  0
M  END
$$$$
