LEC.pdb
     RDKit          3D

 24 23  0  0  1  0  0  0  0  0999 V2000
   25.7206  -11.6251  -17.2757 C   0  0  0  0  0  0  0  0  0  0  0  0
   24.4828  -12.3927  -16.8611 C   0  0  2  0  0  0  0  0  0  0  0  0
   24.4384  -13.7141  -17.5826 C   0  0  0  0  0  0  0  0  0  0  0  0
   23.2381  -11.5767  -17.0777 C   0  0  0  0  0  0  0  0  0  0  0  0
   23.2987  -10.2880  -16.3221 C   0  0  2  0  0  0  0  0  0  0  0  0
   23.5169  -10.4427  -14.9181 N   0  0  0  0  0  0  0  0  0  0  0  0
   22.0617   -9.4745  -16.6338 C   0  0  0  0  0  0  0  0  0  0  0  0
   21.7712   -9.3791  -17.8489 O   0  0  0  0  0  0  0  0  0  0  0  0
   21.2977   -8.8731  -15.6421 N   0  0  0  0  0  0  0  0  0  0  0  0
   20.0939   -8.1393  -15.9051 C   0  0  1  0  0  0  0  0  0  0  0  0
   18.9218   -8.4952  -15.0217 C   0  0  0  0  0  0  0  0  0  0  0  0
   17.6354   -7.8181  -15.3699 C   0  0  0  0  0  0  0  0  0  0  0  0
   16.4918   -8.1708  -14.4975 C   0  0  0  0  0  0  0  0  0  0  0  0
   15.3515   -7.7166  -14.6733 O   0  0  0  0  0  0  0  0  0  0  0  0
   20.3776   -6.6961  -15.8906 C   0  0  0  0  0  0  0  0  0  0  0  0
   21.1615   -6.1492  -15.0679 O   0  0  0  0  0  0  0  0  0  0  0  0
   16.6920   -9.0435  -13.4371 O   0  0  0  0  0  0  0  0  0  0  0  0
   19.7513   -5.8267  -16.8461 N   0  0  0  0  0  0  0  0  0  0  0  0
   20.0269   -4.4222  -16.9280 C   0  0  1  0  0  0  0  0  0  0  0  0
   19.8687   -4.0371  -18.4043 C   0  0  0  0  0  0  0  0  0  0  0  0
   20.1389   -2.2601  -18.6351 S   0  0  0  0  0  0  0  0  0  0  0  0
   18.9824   -3.6720  -16.1961 C   0  0  0  0  0  0  0  0  0  0  0  0
   19.3346   -2.5567  -15.4541 O   0  0  0  0  0  0  0  0  0  0  0  0
   17.7622   -4.0037  -16.2142 O   0  0  0  0  0  0  0  0  0  0  0  0
  2  1  1  6
  3  2  1  0
  4  5  1  0
  4  2  1  0
  5  6  1  1
  7  5  1  0
  7  8  2  0
  9  7  1  0
 10  9  1  0
 11 12  1  0
 10 11  1  1
 12 13  1  0
 13 17  1  0
 13 14  2  0
 15 10  1  0
 16 15  2  0
 18 15  1  0
 19 18  1  0
 19 20  1  6
 20 21  1  0
 22 19  1  0
 23 22  1  0
 24 22  2  0
M  END
$$$$
