LEC.pdb
     RDKit          3D

 24 23  0  0  1  0  0  0  0  0999 V2000
   27.1103  -19.6058   -4.7760 C   0  0  0  0  0  0  0  0  0  0  0  0
   28.0579  -20.0829   -5.8567 C   0  0  2  0  0  0  0  0  0  0  0  0
   29.4639  -19.6572   -5.5243 C   0  0  0  0  0  0  0  0  0  0  0  0
   27.6185  -19.6079   -7.2144 C   0  0  0  0  0  0  0  0  0  0  0  0
   26.2641  -20.1382   -7.5601 C   0  0  2  0  0  0  0  0  0  0  0  0
   26.0555  -21.5010   -7.1830 N   0  0  0  0  0  0  0  0  0  0  0  0
   25.9980  -19.8925   -9.0291 C   0  0  0  0  0  0  0  0  0  0  0  0
   26.2202  -18.7262   -9.4295 O   0  0  0  0  0  0  0  0  0  0  0  0
   25.5387  -20.8904   -9.8788 N   0  0  0  0  0  0  0  0  0  0  0  0
   25.2952  -20.6895  -11.2778 C   0  0  1  0  0  0  0  0  0  0  0  0
   26.1284  -21.5459  -12.2015 C   0  0  0  0  0  0  0  0  0  0  0  0
   26.0014  -21.2216  -13.6553 C   0  0  0  0  0  0  0  0  0  0  0  0
   26.9257  -21.9662  -14.5409 C   0  0  0  0  0  0  0  0  0  0  0  0
   26.5897  -22.9963  -15.1439 O   0  0  0  0  0  0  0  0  0  0  0  0
   23.8564  -20.8164  -11.5558 C   0  0  0  0  0  0  0  0  0  0  0  0
   23.1438  -21.7607  -11.1188 O   0  0  0  0  0  0  0  0  0  0  0  0
   28.2227  -21.5025  -14.7107 O   0  0  0  0  0  0  0  0  0  0  0  0
   23.1868  -19.8356  -12.3624 N   0  0  0  0  0  0  0  0  0  0  0  0
   21.7880  -19.8954  -12.6708 C   0  0  1  0  0  0  0  0  0  0  0  0
   21.4806  -18.6566  -13.5215 C   0  0  0  0  0  0  0  0  0  0  0  0
   22.8309  -18.3270  -14.6842 S   0  0  0  0  0  0  0  0  0  0  0  0
   21.5251  -21.0633  -13.5403 C   0  0  0  0  0  0  0  0  0  0  0  0
   20.2285  -21.5280  -13.6880 O   0  0  0  0  0  0  0  0  0  0  0  0
   22.4410  -21.6699  -14.1669 O   0  0  0  0  0  0  0  0  0  0  0  0
  2  1  1  1
  3  2  1  0
  4  5  1  0
  4  2  1  0
  5  6  1  6
  7  5  1  0
  7  8  2  0
  9  7  1  0
 10  9  1  0
 11 12  1  0
 10 11  1  6
 12 13  1  0
 13 17  1  0
 13 14  2  0
 15 10  1  0
 16 15  2  0
 18 15  1  0
 19 18  1  0
 19 20  1  6
 20 21  1  0
 22 19  1  0
 23 22  1  0
 24 22  2  0
M  END
$$$$
