LEC.pdb
     RDKit          3D

 24 23  0  0  1  0  0  0  0  0999 V2000
   26.0716  -20.6341   -7.0878 C   0  0  0  0  0  0  0  0  0  0  0  0
   27.2366  -20.0114   -7.8282 C   0  0  2  0  0  0  0  0  0  0  0  0
   27.5838  -18.6844   -7.2060 C   0  0  0  0  0  0  0  0  0  0  0  0
   26.9488  -19.8991   -9.3001 C   0  0  0  0  0  0  0  0  0  0  0  0
   26.7614  -21.2474   -9.9184 C   0  0  2  0  0  0  0  0  0  0  0  0
   27.9618  -22.0166  -10.0195 N   0  0  0  0  0  0  0  0  0  0  0  0
   26.0579  -21.0871  -11.2483 C   0  0  0  0  0  0  0  0  0  0  0  0
   26.8025  -21.0928  -12.2561 O   0  0  0  0  0  0  0  0  0  0  0  0
   24.6803  -20.9434  -11.3484 N   0  0  0  0  0  0  0  0  0  0  0  0
   23.9802  -20.8696  -12.5979 C   0  0  1  0  0  0  0  0  0  0  0  0
   22.4741  -20.8535  -12.4873 C   0  0  0  0  0  0  0  0  0  0  0  0
   21.7426  -20.7655  -13.7880 C   0  0  0  0  0  0  0  0  0  0  0  0
   20.2662  -20.7784  -13.6725 C   0  0  0  0  0  0  0  0  0  0  0  0
   19.5629  -21.6616  -14.1852 O   0  0  0  0  0  0  0  0  0  0  0  0
   24.4876  -19.7364  -13.3866 C   0  0  0  0  0  0  0  0  0  0  0  0
   24.5715  -18.5600  -12.9401 O   0  0  0  0  0  0  0  0  0  0  0  0
   19.6327  -19.7666  -12.9646 O   0  0  0  0  0  0  0  0  0  0  0  0
   24.9219  -19.9349  -14.7405 N   0  0  0  0  0  0  0  0  0  0  0  0
   25.3826  -18.8690  -15.5812 C   0  0  1  0  0  0  0  0  0  0  0  0
   26.7554  -19.3008  -16.1118 C   0  0  0  0  0  0  0  0  0  0  0  0
   27.4879  -17.9940  -17.1313 S   0  0  0  0  0  0  0  0  0  0  0  0
   24.5026  -18.7607  -16.7657 C   0  0  0  0  0  0  0  0  0  0  0  0
   24.3364  -17.5325  -17.3843 O   0  0  0  0  0  0  0  0  0  0  0  0
   23.8832  -19.7509  -17.2508 O   0  0  0  0  0  0  0  0  0  0  0  0
  2  1  1  1
  3  2  1  0
  4  5  1  0
  4  2  1  0
  5  6  1  6
  7  5  1  0
  7  8  2  0
  9  7  1  0
 10  9  1  0
 11 12  1  0
 10 11  1  1
 12 13  1  0
 13 17  1  0
 13 14  2  0
 15 10  1  0
 16 15  2  0
 18 15  1  0
 19 18  1  0
 19 20  1  6
 20 21  1  0
 22 19  1  0
 23 22  1  0
 24 22  2  0
M  END
$$$$
