LEC.pdb
     RDKit          3D

 24 23  0  0  1  0  0  0  0  0999 V2000
   18.2535  -11.8455  -18.4516 C   0  0  0  0  0  0  0  0  0  0  0  0
   16.8974  -11.9173  -17.7814 C   0  0  2  0  0  0  0  0  0  0  0  0
   15.8110  -11.8221  -18.8202 C   0  0  0  0  0  0  0  0  0  0  0  0
   16.7632  -10.8697  -16.7107 C   0  0  0  0  0  0  0  0  0  0  0  0
   17.8808  -10.9615  -15.7218 C   0  0  2  0  0  0  0  0  0  0  0  0
   17.7608  -12.0493  -14.8025 N   0  0  0  0  0  0  0  0  0  0  0  0
   18.0367   -9.6262  -15.0277 C   0  0  0  0  0  0  0  0  0  0  0  0
   17.2763   -9.4346  -14.0505 O   0  0  0  0  0  0  0  0  0  0  0  0
   18.9595   -8.6752  -15.4433 N   0  0  0  0  0  0  0  0  0  0  0  0
   19.1050   -7.3893  -14.8252 C   0  0  1  0  0  0  0  0  0  0  0  0
   20.5225   -7.0059  -14.4724 C   0  0  0  0  0  0  0  0  0  0  0  0
   20.6667   -5.7099  -13.7413 C   0  0  0  0  0  0  0  0  0  0  0  0
   22.0498   -5.3812  -13.3266 C   0  0  0  0  0  0  0  0  0  0  0  0
   22.7130   -4.4813  -13.8632 O   0  0  0  0  0  0  0  0  0  0  0  0
   18.4444   -6.3642  -15.6475 C   0  0  0  0  0  0  0  0  0  0  0  0
   18.5752   -6.2856  -16.8993 O   0  0  0  0  0  0  0  0  0  0  0  0
   22.6385   -6.1024  -12.2973 O   0  0  0  0  0  0  0  0  0  0  0  0
   17.5963   -5.3815  -15.0341 N   0  0  0  0  0  0  0  0  0  0  0  0
   16.8418   -4.4191  -15.7823 C   0  0  1  0  0  0  0  0  0  0  0  0
   15.3857   -4.5597  -15.3209 C   0  0  0  0  0  0  0  0  0  0  0  0
   14.7033   -6.1586  -15.8324 S   0  0  0  0  0  0  0  0  0  0  0  0
   17.2629   -3.0546  -15.3952 C   0  0  0  0  0  0  0  0  0  0  0  0
   16.9020   -1.9769  -16.1871 O   0  0  0  0  0  0  0  0  0  0  0  0
   17.9482   -2.8181  -14.3589 O   0  0  0  0  0  0  0  0  0  0  0  0
  2  1  1  6
  3  2  1  0
  4  5  1  0
  4  2  1  0
  5  6  1  1
  7  5  1  0
  7  8  2  0
  9  7  1  0
 10  9  1  0
 11 12  1  0
 10 11  1  6
 12 13  1  0
 13 17  1  0
 13 14  2  0
 15 10  1  0
 16 15  2  0
 18 15  1  0
 19 18  1  0
 19 20  1  1
 20 21  1  0
 22 19  1  0
 23 22  1  0
 24 22  2  0
M  END
$$$$
