STQ.pdb
     RDKit          3D

 23 22  0  0  1  0  0  0  0  0999 V2000
   11.8074  -18.4710   20.0988 O   0  0  0  0  0  0  0  0  0  0  0  0
   11.0620  -18.0595   19.0108 C   0  0  0  0  0  0  0  0  0  0  0  0
   11.0570  -16.5598   18.8295 C   0  0  2  0  0  0  0  0  0  0  0  0
   12.3621  -16.1543   18.2868 N   0  0  0  0  0  0  0  0  0  0  0  0
   10.7837  -15.8170   20.0793 C   0  0  0  0  0  0  0  0  0  0  0  0
   11.6774  -15.1657   20.6795 O   0  0  0  0  0  0  0  0  0  0  0  0
    7.3350  -13.9222   20.8572 C   0  0  0  0  0  0  0  0  0  0  0  0
    7.6951  -14.9026   21.9430 C   0  0  1  0  0  0  0  0  0  0  0  0
    7.0043  -16.0905   21.6770 O   0  0  0  0  0  0  0  0  0  0  0  0
    9.1976  -15.1422   21.9034 C   0  0  2  0  0  0  0  0  0  0  0  0
    9.4870  -15.8081   20.6588 N   0  0  0  0  0  0  0  0  0  0  0  0
    9.6889  -15.8491   23.0860 C   0  0  0  0  0  0  0  0  0  0  0  0
   10.2282  -17.0011   22.9558 O   0  0  0  0  0  0  0  0  0  0  0  0
    9.6041  -13.3127   28.8061 N   0  0  0  0  0  0  0  0  0  0  0  0
   10.0883  -14.5830   29.1728 C   0  0  0  0  0  0  0  0  0  0  0  0
   10.3363  -14.8663   30.3734 O   0  0  0  0  0  0  0  0  0  0  0  0
   10.3041  -15.6038   28.0843 C   0  0  0  0  0  0  0  0  0  0  0  0
    9.9718  -15.0250   26.7539 C   0  0  0  0  0  0  0  0  0  0  0  0
   10.0114  -15.9786   25.6003 C   0  0  2  0  0  0  0  0  0  0  0  0
    9.5882  -15.2976   24.3888 N   0  0  0  0  0  0  0  0  0  0  0  0
    9.3109  -17.2416   25.8178 C   0  0  0  0  0  0  0  0  0  0  0  0
    8.1052  -17.4480   25.5048 O   0  0  0  0  0  0  0  0  0  0  0  0
    9.9544  -18.3227   26.3989 O   0  0  0  0  0  0  0  0  0  0  0  0
  2  1  1  0
  3  4  1  1
  3  5  1  0
  3  2  1  0
  5  6  2  0
  8  7  1  6
  8  9  1  0
  8 10  1  0
 10 12  1  0
 11  5  1  0
 10 11  1  6
 12 13  2  0
 12 20  1  0
 15 14  1  0
 15 16  2  0
 17 18  1  0
 17 15  1  0
 19 18  1  1
 20 19  1  0
 21 19  1  0
 21 23  1  0
 22 21  2  0
M  END
$$$$
