STQ.pdb
     RDKit          3D

 23 22  0  0  1  0  0  0  0  0999 V2000
   10.2376  -12.7019   19.7398 O   0  0  0  0  0  0  0  0  0  0  0  0
    9.0736  -12.7130   18.9959 C   0  0  0  0  0  0  0  0  0  0  0  0
    8.5670  -14.1071   18.7096 C   0  0  2  0  0  0  0  0  0  0  0  0
    7.3460  -13.9987   17.8974 N   0  0  0  0  0  0  0  0  0  0  0  0
    8.2858  -14.8933   19.9308 C   0  0  0  0  0  0  0  0  0  0  0  0
    7.1808  -14.8281   20.5287 O   0  0  0  0  0  0  0  0  0  0  0  0
    9.5730  -18.6130   22.8378 C   0  0  0  0  0  0  0  0  0  0  0  0
    9.7928  -17.8121   21.5807 C   0  0  1  0  0  0  0  0  0  0  0  0
    9.2775  -18.5597   20.5155 O   0  0  0  0  0  0  0  0  0  0  0  0
    9.0495  -16.4902   21.7098 C   0  0  2  0  0  0  0  0  0  0  0  0
    9.2625  -15.7638   20.4838 N   0  0  0  0  0  0  0  0  0  0  0  0
    9.4205  -15.7482   22.9145 C   0  0  0  0  0  0  0  0  0  0  0  0
   10.5484  -15.1483   22.9658 O   0  0  0  0  0  0  0  0  0  0  0  0
    5.3980  -12.7391   26.2667 N   0  0  0  0  0  0  0  0  0  0  0  0
    6.5069  -12.4836   27.0959 C   0  0  0  0  0  0  0  0  0  0  0  0
    6.4205  -11.7067   28.0819 O   0  0  0  0  0  0  0  0  0  0  0  0
    7.8106  -13.1683   26.7718 C   0  0  0  0  0  0  0  0  0  0  0  0
    7.6457  -14.0770   25.6046 C   0  0  0  0  0  0  0  0  0  0  0  0
    8.8506  -14.8841   25.2321 C   0  0  2  0  0  0  0  0  0  0  0  0
    8.5648  -15.6680   24.0428 N   0  0  0  0  0  0  0  0  0  0  0  0
    9.4206  -15.6805   26.3156 C   0  0  0  0  0  0  0  0  0  0  0  0
    9.1636  -16.9012   26.5108 O   0  0  0  0  0  0  0  0  0  0  0  0
   10.3081  -15.1208   27.2208 O   0  0  0  0  0  0  0  0  0  0  0  0
  2  1  1  0
  3  4  1  1
  3  5  1  0
  3  2  1  0
  5  6  2  0
  8  7  1  1
  8  9  1  0
  8 10  1  0
 10 12  1  0
 11  5  1  0
 10 11  1  6
 12 13  2  0
 12 20  1  0
 15 14  1  0
 15 16  2  0
 17 18  1  0
 17 15  1  0
 19 18  1  1
 20 19  1  0
 21 19  1  0
 21 23  1  0
 22 21  2  0
M  END
$$$$
