STQ.pdb
     RDKit          3D

 23 22  0  0  1  0  0  0  0  0999 V2000
   11.2145  -19.1731   18.1973 O   0  0  0  0  0  0  0  0  0  0  0  0
   10.7076  -18.5038   19.2944 C   0  0  0  0  0  0  0  0  0  0  0  0
   10.2611  -17.0964   18.9753 C   0  0  2  0  0  0  0  0  0  0  0  0
   11.2390  -16.4976   18.0547 N   0  0  0  0  0  0  0  0  0  0  0  0
   10.1137  -16.2401   20.1726 C   0  0  0  0  0  0  0  0  0  0  0  0
   11.0581  -15.5331   20.6099 O   0  0  0  0  0  0  0  0  0  0  0  0
    6.8251  -14.2648   21.0790 C   0  0  0  0  0  0  0  0  0  0  0  0
    7.2522  -15.1103   22.2506 C   0  0  1  0  0  0  0  0  0  0  0  0
    6.4933  -16.2857   22.2141 O   0  0  0  0  0  0  0  0  0  0  0  0
    8.7332  -15.4301   22.1056 C   0  0  2  0  0  0  0  0  0  0  0  0
    8.8862  -16.1802   20.8849 N   0  0  0  0  0  0  0  0  0  0  0  0
    9.2867  -16.0931   23.2860 C   0  0  0  0  0  0  0  0  0  0  0  0
    9.6515  -17.3164   23.2118 O   0  0  0  0  0  0  0  0  0  0  0  0
   10.0550  -13.1467   28.7620 N   0  0  0  0  0  0  0  0  0  0  0  0
   10.5288  -14.4120   29.1585 C   0  0  0  0  0  0  0  0  0  0  0  0
   10.8950  -14.6312   30.3421 O   0  0  0  0  0  0  0  0  0  0  0  0
   10.5875  -15.5064   28.1230 C   0  0  0  0  0  0  0  0  0  0  0  0
   10.0824  -15.0120   26.8132 C   0  0  0  0  0  0  0  0  0  0  0  0
    9.9368  -16.0450   25.7391 C   0  0  2  0  0  0  0  0  0  0  0  0
    9.4362  -15.4214   24.5263 N   0  0  0  0  0  0  0  0  0  0  0  0
    9.1793  -17.2334   26.1228 C   0  0  0  0  0  0  0  0  0  0  0  0
    9.6653  -18.2112   26.7567 O   0  0  0  0  0  0  0  0  0  0  0  0
    7.8368  -17.3572   25.8022 O   0  0  0  0  0  0  0  0  0  0  0  0
  2  1  1  0
  3  4  1  6
  3  5  1  0
  3  2  1  0
  5  6  2  0
  8  7  1  6
  8  9  1  0
  8 10  1  0
 10 12  1  0
 11  5  1  0
 10 11  1  6
 12 13  2  0
 12 20  1  0
 15 14  1  0
 15 16  2  0
 17 18  1  0
 17 15  1  0
 19 18  1  1
 20 19  1  0
 21 19  1  0
 21 23  1  0
 22 21  2  0
M  END
$$$$
