STQ.pdb
     RDKit          3D

 23 22  0  0  1  0  0  0  0  0999 V2000
   12.3665  -18.8905   21.9959 O   0  0  0  0  0  0  0  0  0  0  0  0
   11.7234  -19.0123   20.7793 C   0  0  0  0  0  0  0  0  0  0  0  0
   11.6995  -17.7242   19.9905 C   0  0  2  0  0  0  0  0  0  0  0  0
   13.0864  -17.3404   19.6877 N   0  0  0  0  0  0  0  0  0  0  0  0
   11.0175  -16.6159   20.6942 C   0  0  0  0  0  0  0  0  0  0  0  0
   11.6513  -15.6537   21.1996 O   0  0  0  0  0  0  0  0  0  0  0  0
    6.7336  -14.5278   21.9403 C   0  0  0  0  0  0  0  0  0  0  0  0
    7.4562  -15.6344   21.2168 C   0  0  1  0  0  0  0  0  0  0  0  0
    7.3442  -15.3775   19.8455 O   0  0  0  0  0  0  0  0  0  0  0  0
    8.9176  -15.6203   21.6417 C   0  0  2  0  0  0  0  0  0  0  0  0
    9.6037  -16.5924   20.8290 N   0  0  0  0  0  0  0  0  0  0  0  0
    9.0901  -15.8180   23.0807 C   0  0  0  0  0  0  0  0  0  0  0  0
    9.6289  -16.8946   23.5113 O   0  0  0  0  0  0  0  0  0  0  0  0
    5.0214  -12.2103   26.9126 N   0  0  0  0  0  0  0  0  0  0  0  0
    6.3788  -12.5581   27.0506 C   0  0  0  0  0  0  0  0  0  0  0  0
    7.1721  -11.8436   27.7166 O   0  0  0  0  0  0  0  0  0  0  0  0
    6.8630  -13.8168   26.3763 C   0  0  0  0  0  0  0  0  0  0  0  0
    8.3329  -13.7545   26.1508 C   0  0  0  0  0  0  0  0  0  0  0  0
    8.9359  -14.9356   25.4556 C   0  0  2  0  0  0  0  0  0  0  0  0
    8.6766  -14.8476   24.0289 N   0  0  0  0  0  0  0  0  0  0  0  0
    8.5785  -16.2343   26.0203 C   0  0  0  0  0  0  0  0  0  0  0  0
    9.0815  -16.7129   27.0749 O   0  0  0  0  0  0  0  0  0  0  0  0
    7.6324  -17.0414   25.4087 O   0  0  0  0  0  0  0  0  0  0  0  0
  2  1  1  0
  3  4  1  1
  3  5  1  0
  3  2  1  0
  5  6  2  0
  8  7  1  1
  8  9  1  0
  8 10  1  0
 10 12  1  0
 11  5  1  0
 10 11  1  6
 12 13  2  0
 12 20  1  0
 15 14  1  0
 15 16  2  0
 17 18  1  0
 17 15  1  0
 19 18  1  1
 20 19  1  0
 21 19  1  0
 21 23  1  0
 22 21  2  0
M  END
$$$$
