STQ.pdb
     RDKit          3D

 23 22  0  0  1  0  0  0  0  0999 V2000
   10.0689  -17.6065   15.5733 O   0  0  0  0  0  0  0  0  0  0  0  0
    8.9901  -16.8441   15.1689 C   0  0  0  0  0  0  0  0  0  0  0  0
    9.2858  -15.3628   15.1502 C   0  0  2  0  0  0  0  0  0  0  0  0
   10.2937  -15.1046   14.1111 N   0  0  0  0  0  0  0  0  0  0  0  0
    9.7639  -14.8417   16.4495 C   0  0  0  0  0  0  0  0  0  0  0  0
   10.9825  -14.6261   16.6763 O   0  0  0  0  0  0  0  0  0  0  0  0
    7.3159  -12.6416   18.8538 C   0  0  0  0  0  0  0  0  0  0  0  0
    8.0420  -13.7381   19.5890 C   0  0  1  0  0  0  0  0  0  0  0  0
    7.1736  -14.8331   19.6663 O   0  0  0  0  0  0  0  0  0  0  0  0
    9.2917  -14.1065   18.8022 C   0  0  2  0  0  0  0  0  0  0  0  0
    8.8567  -14.5599   17.5055 N   0  0  0  0  0  0  0  0  0  0  0  0
   10.1460  -15.0590   19.5111 C   0  0  0  0  0  0  0  0  0  0  0  0
   10.8024  -15.9342   18.8494 O   0  0  0  0  0  0  0  0  0  0  0  0
   15.0129  -14.4570   20.0411 N   0  0  0  0  0  0  0  0  0  0  0  0
   15.1269  -15.4109   21.0705 C   0  0  0  0  0  0  0  0  0  0  0  0
   16.2464  -15.8715   21.4136 O   0  0  0  0  0  0  0  0  0  0  0  0
   13.8659  -15.8708   21.7573 C   0  0  0  0  0  0  0  0  0  0  0  0
   12.6668  -15.3216   21.0673 C   0  0  0  0  0  0  0  0  0  0  0  0
   11.3441  -15.7093   21.6521 C   0  0  2  0  0  0  0  0  0  0  0  0
   10.2753  -15.0481   20.9235 N   0  0  0  0  0  0  0  0  0  0  0  0
   11.2349  -15.5424   23.0990 C   0  0  0  0  0  0  0  0  0  0  0  0
   10.5349  -14.6543   23.6606 O   0  0  0  0  0  0  0  0  0  0  0  0
   11.9167  -16.3808   23.9666 O   0  0  0  0  0  0  0  0  0  0  0  0
  2  1  1  0
  3  4  1  6
  3  5  1  0
  3  2  1  0
  5  6  2  0
  8  7  1  6
  8  9  1  0
  8 10  1  0
 10 12  1  0
 11  5  1  0
 10 11  1  6
 12 13  2  0
 12 20  1  0
 15 14  1  0
 15 16  2  0
 17 18  1  0
 17 15  1  0
 19 18  1  6
 20 19  1  0
 21 19  1  0
 21 23  1  0
 22 21  2  0
M  END
$$$$
