STQ.pdb
     RDKit          3D

 23 22  0  0  1  0  0  0  0  0999 V2000
   12.4929  -17.0207   18.0674 O   0  0  0  0  0  0  0  0  0  0  0  0
   12.1835  -16.1314   17.0565 C   0  0  0  0  0  0  0  0  0  0  0  0
   12.2592  -14.6876   17.4943 C   0  0  2  0  0  0  0  0  0  0  0  0
   13.6688  -14.2695   17.4706 N   0  0  0  0  0  0  0  0  0  0  0  0
   11.6908  -14.4499   18.8393 C   0  0  0  0  0  0  0  0  0  0  0  0
   12.3959  -14.4923   19.8805 O   0  0  0  0  0  0  0  0  0  0  0  0
    8.2475  -12.2980   19.3563 C   0  0  0  0  0  0  0  0  0  0  0  0
    8.2555  -13.6151   20.0877 C   0  0  1  0  0  0  0  0  0  0  0  0
    7.5941  -14.5451   19.2774 O   0  0  0  0  0  0  0  0  0  0  0  0
    9.7002  -14.0387   20.3113 C   0  0  2  0  0  0  0  0  0  0  0  0
   10.3110  -14.1605   19.0119 N   0  0  0  0  0  0  0  0  0  0  0  0
    9.8159  -15.2389   21.1392 C   0  0  0  0  0  0  0  0  0  0  0  0
   10.0641  -16.3659   20.5886 O   0  0  0  0  0  0  0  0  0  0  0  0
   13.6740  -17.9259   22.6293 N   0  0  0  0  0  0  0  0  0  0  0  0
   13.0114  -18.5309   23.7145 C   0  0  0  0  0  0  0  0  0  0  0  0
   13.5336  -19.4824   24.3509 O   0  0  0  0  0  0  0  0  0  0  0  0
   11.6506  -18.0074   24.0987 C   0  0  0  0  0  0  0  0  0  0  0  0
   11.2275  -16.9244   23.1694 C   0  0  0  0  0  0  0  0  0  0  0  0
    9.8749  -16.3362   23.4273 C   0  0  2  0  0  0  0  0  0  0  0  0
    9.6611  -15.1993   22.5486 N   0  0  0  0  0  0  0  0  0  0  0  0
    9.5880  -16.0356   24.8274 C   0  0  0  0  0  0  0  0  0  0  0  0
    9.6511  -16.8815   25.7627 O   0  0  0  0  0  0  0  0  0  0  0  0
    9.2191  -14.7592   25.2212 O   0  0  0  0  0  0  0  0  0  0  0  0
  2  1  1  0
  3  4  1  1
  3  5  1  0
  3  2  1  0
  5  6  2  0
  8  7  1  6
  8  9  1  0
  8 10  1  0
 10 12  1  0
 11  5  1  0
 10 11  1  6
 12 13  2  0
 12 20  1  0
 15 14  1  0
 15 16  2  0
 17 18  1  0
 17 15  1  0
 19 18  1  1
 20 19  1  0
 21 19  1  0
 21 23  1  0
 22 21  2  0
M  END
$$$$
