STQ.pdb
     RDKit          3D

 23 22  0  0  1  0  0  0  0  0999 V2000
   13.0915  -17.0749   20.5793 O   0  0  0  0  0  0  0  0  0  0  0  0
   12.5667  -16.8517   19.3210 C   0  0  0  0  0  0  0  0  0  0  0  0
   12.3606  -15.3865   19.0167 C   0  0  2  0  0  0  0  0  0  0  0  0
   13.6800  -14.7500   18.8879 N   0  0  0  0  0  0  0  0  0  0  0  0
   11.5633  -14.6790   20.0425 C   0  0  0  0  0  0  0  0  0  0  0  0
   12.0999  -14.0075   20.9612 O   0  0  0  0  0  0  0  0  0  0  0  0
    8.0538  -13.0876   19.1884 C   0  0  0  0  0  0  0  0  0  0  0  0
    7.9445  -13.9098   20.4462 C   0  0  1  0  0  0  0  0  0  0  0  0
    7.4081  -15.1514   20.0863 O   0  0  0  0  0  0  0  0  0  0  0  0
    9.3368  -14.0841   21.0360 C   0  0  2  0  0  0  0  0  0  0  0  0
   10.1438  -14.7289   20.0315 N   0  0  0  0  0  0  0  0  0  0  0  0
    9.3225  -14.7766   22.3242 C   0  0  0  0  0  0  0  0  0  0  0  0
   10.0632  -15.8041   22.4984 O   0  0  0  0  0  0  0  0  0  0  0  0
    6.8624  -10.9531   27.1161 N   0  0  0  0  0  0  0  0  0  0  0  0
    6.5924  -12.1722   26.4653 C   0  0  0  0  0  0  0  0  0  0  0  0
    5.4515  -12.7005   26.5141 O   0  0  0  0  0  0  0  0  0  0  0  0
    7.7117  -12.8348   25.7025 C   0  0  0  0  0  0  0  0  0  0  0  0
    7.4606  -14.2962   25.5738 C   0  0  0  0  0  0  0  0  0  0  0  0
    8.3959  -15.0410   24.6725 C   0  0  2  0  0  0  0  0  0  0  0  0
    8.5072  -14.3455   23.4019 N   0  0  0  0  0  0  0  0  0  0  0  0
    8.1050  -16.4640   24.5191 C   0  0  0  0  0  0  0  0  0  0  0  0
    8.3902  -17.3438   25.3787 O   0  0  0  0  0  0  0  0  0  0  0  0
    7.4757  -16.9443   23.3816 O   0  0  0  0  0  0  0  0  0  0  0  0
  2  1  1  0
  3  4  1  1
  3  5  1  0
  3  2  1  0
  5  6  2  0
  8  7  1  6
  8  9  1  0
  8 10  1  0
 10 12  1  0
 11  5  1  0
 10 11  1  6
 12 13  2  0
 12 20  1  0
 15 14  1  0
 15 16  2  0
 17 18  1  0
 17 15  1  0
 19 18  1  1
 20 19  1  0
 21 19  1  0
 21 23  1  0
 22 21  2  0
M  END
$$$$
