KMC.pdb
     RDKit          3D

 24 23  0  0  1  0  0  0  0  0999 V2000
    8.0931  -14.9876   19.9126 N   0  0  0  0  0  0  0  0  0  0  0  0
    7.3410  -15.6284   20.9634 C   0  0  1  0  0  0  0  0  0  0  0  0
    7.1618  -17.0961   20.8203 C   0  0  0  0  0  0  0  0  0  0  0  0
    6.8133  -17.6158   19.4789 C   0  0  0  0  0  0  0  0  0  0  0  0
    6.5438  -19.0764   19.3843 C   0  0  0  0  0  0  0  0  0  0  0  0
    6.1454  -19.4449   17.9445 C   0  0  0  0  0  0  0  0  0  0  0  0
    7.0365  -20.4989   17.4968 N   0  0  0  0  0  0  0  0  0  0  0  0
    8.0353  -15.3778   22.2479 C   0  0  0  0  0  0  0  0  0  0  0  0
    9.2868  -15.4446   22.3002 O   0  0  0  0  0  0  0  0  0  0  0  0
    6.7140  -11.7109   27.7636 C   0  0  0  0  0  0  0  0  0  0  0  0
    6.5449  -11.2514   26.0358 S   0  0  0  0  0  0  0  0  0  0  0  0
    7.0859  -12.5474   24.9049 C   0  0  0  0  0  0  0  0  0  0  0  0
    7.2838  -13.8830   25.5897 C   0  0  0  0  0  0  0  0  0  0  0  0
    8.0549  -14.7921   24.6791 C   0  0  2  0  0  0  0  0  0  0  0  0
    7.3550  -15.0606   23.4444 N   0  0  0  0  0  0  0  0  0  0  0  0
    8.4708  -16.0512   25.2887 C   0  0  0  0  0  0  0  0  0  0  0  0
    7.6043  -16.9374   25.5011 O   0  0  0  0  0  0  0  0  0  0  0  0
    9.8112  -16.3500   25.6650 N   0  0  0  0  0  0  0  0  0  0  0  0
   10.1088  -17.6202   26.2513 C   0  0  1  0  0  0  0  0  0  0  0  0
   11.2415  -18.2669   25.4854 C   0  0  0  0  0  0  0  0  0  0  0  0
   12.5665  -17.0820   25.1276 S   0  0  0  0  0  0  0  0  0  0  0  0
   10.4249  -17.5164   27.7029 C   0  0  0  0  0  0  0  0  0  0  0  0
   10.4741  -16.4002   28.2487 O   0  0  0  0  0  0  0  0  0  0  0  0
   10.6555  -18.6954   28.3973 O   0  0  0  0  0  0  0  0  0  0  0  0
  2  1  1  6
  2  8  1  0
  2  3  1  0
  4  3  1  0
  4  5  1  0
  5  6  1  0
  6  7  1  0
  8  9  2  0
 10 11  1  0
 11 12  1  0
 13 12  1  0
 14 13  1  1
 15 14  1  0
 15  8  1  0
 16 14  1  0
 17 16  2  0
 18 16  1  0
 19 18  1  0
 19 22  1  0
 19 20  1  6
 21 20  1  0
 22 24  1  0
 23 22  2  0
M  END
$$$$
