KMC.pdb
     RDKit          3D

 24 23  0  0  1  0  0  0  0  0999 V2000
    9.1369  -17.0381   20.7875 N   0  0  0  0  0  0  0  0  0  0  0  0
   10.0823  -15.9519   20.8698 C   0  0  1  0  0  0  0  0  0  0  0  0
   10.0296  -14.9701   19.7563 C   0  0  0  0  0  0  0  0  0  0  0  0
    8.9092  -15.0837   18.7958 C   0  0  0  0  0  0  0  0  0  0  0  0
    8.9236  -14.1377   17.6469 C   0  0  0  0  0  0  0  0  0  0  0  0
    7.6431  -14.3072   16.8107 C   0  0  0  0  0  0  0  0  0  0  0  0
    7.7217  -13.3858   15.6926 N   0  0  0  0  0  0  0  0  0  0  0  0
    9.8365  -15.2197   22.1340 C   0  0  0  0  0  0  0  0  0  0  0  0
   10.4607  -14.1568   22.3670 O   0  0  0  0  0  0  0  0  0  0  0  0
    6.1715  -11.2824   26.9475 C   0  0  0  0  0  0  0  0  0  0  0  0
    6.6313  -12.9941   26.6588 S   0  0  0  0  0  0  0  0  0  0  0  0
    6.8513  -13.3805   24.9112 C   0  0  0  0  0  0  0  0  0  0  0  0
    7.2195  -14.8289   24.6693 C   0  0  0  0  0  0  0  0  0  0  0  0
    8.6781  -14.9144   24.3293 C   0  0  2  0  0  0  0  0  0  0  0  0
    8.9194  -15.6582   23.1148 N   0  0  0  0  0  0  0  0  0  0  0  0
    9.5208  -15.4391   25.3991 C   0  0  0  0  0  0  0  0  0  0  0  0
    9.9507  -16.6174   25.3098 O   0  0  0  0  0  0  0  0  0  0  0  0
    9.8955  -14.6968   26.5550 N   0  0  0  0  0  0  0  0  0  0  0  0
   10.5803  -15.3584   27.6222 C   0  0  1  0  0  0  0  0  0  0  0  0
   10.6216  -14.4446   28.8270 C   0  0  0  0  0  0  0  0  0  0  0  0
   11.3352  -15.2770   30.2711 S   0  0  0  0  0  0  0  0  0  0  0  0
    9.9704  -16.6744   27.9598 C   0  0  0  0  0  0  0  0  0  0  0  0
    8.7363  -16.7746   28.0753 O   0  0  0  0  0  0  0  0  0  0  0  0
   10.8245  -17.7539   28.1346 O   0  0  0  0  0  0  0  0  0  0  0  0
  2  1  1  6
  2  8  1  0
  2  3  1  0
  4  3  1  0
  4  5  1  0
  5  6  1  0
  6  7  1  0
  8  9  2  0
 10 11  1  0
 11 12  1  0
 13 12  1  0
 14 13  1  1
 15 14  1  0
 15  8  1  0
 16 14  1  0
 17 16  2  0
 18 16  1  0
 19 18  1  0
 19 22  1  0
 19 20  1  1
 21 20  1  0
 22 24  1  0
 23 22  2  0
M  END
$$$$
