KMC.pdb
     RDKit          3D

 24 23  0  0  1  0  0  0  0  0999 V2000
    8.5268  -18.0636   21.0780 N   0  0  0  0  0  0  0  0  0  0  0  0
    9.8501  -17.4934   21.1435 C   0  0  1  0  0  0  0  0  0  0  0  0
   10.3052  -16.7867   19.9188 C   0  0  0  0  0  0  0  0  0  0  0  0
   10.5913  -17.6078   18.7209 C   0  0  0  0  0  0  0  0  0  0  0  0
   11.9329  -18.2495   18.6632 C   0  0  0  0  0  0  0  0  0  0  0  0
   12.0713  -19.0616   17.3636 C   0  0  0  0  0  0  0  0  0  0  0  0
   13.3465  -19.7524   17.4094 N   0  0  0  0  0  0  0  0  0  0  0  0
    9.8818  -16.5263   22.2653 C   0  0  0  0  0  0  0  0  0  0  0  0
   10.9240  -15.8633   22.4838 O   0  0  0  0  0  0  0  0  0  0  0  0
    6.1717  -11.5338   27.0863 C   0  0  0  0  0  0  0  0  0  0  0  0
    6.0032  -12.9090   25.9438 S   0  0  0  0  0  0  0  0  0  0  0  0
    7.5771  -13.6960   25.5500 C   0  0  0  0  0  0  0  0  0  0  0  0
    7.4484  -14.7794   24.5005 C   0  0  0  0  0  0  0  0  0  0  0  0
    8.8133  -15.3065   24.1691 C   0  0  2  0  0  0  0  0  0  0  0  0
    8.7821  -16.3019   23.1229 N   0  0  0  0  0  0  0  0  0  0  0  0
    9.5584  -15.8230   25.3128 C   0  0  0  0  0  0  0  0  0  0  0  0
    9.7132  -17.0659   25.4245 O   0  0  0  0  0  0  0  0  0  0  0  0
   10.1313  -15.0035   26.3266 N   0  0  0  0  0  0  0  0  0  0  0  0
   10.9652  -15.6005   27.3235 C   0  0  1  0  0  0  0  0  0  0  0  0
   11.4228  -14.5325   28.2920 C   0  0  0  0  0  0  0  0  0  0  0  0
   10.0249  -13.5763   28.9394 S   0  0  0  0  0  0  0  0  0  0  0  0
   10.2898  -16.7226   28.0323 C   0  0  0  0  0  0  0  0  0  0  0  0
    9.0736  -16.9200   27.8640 O   0  0  0  0  0  0  0  0  0  0  0  0
   11.0640  -17.5154   28.8674 O   0  0  0  0  0  0  0  0  0  0  0  0
  2  1  1  6
  2  8  1  0
  2  3  1  0
  4  3  1  0
  4  5  1  0
  5  6  1  0
  6  7  1  0
  8  9  2  0
 10 11  1  0
 11 12  1  0
 13 12  1  0
 14 13  1  1
 15 14  1  0
 15  8  1  0
 16 14  1  0
 17 16  2  0
 18 16  1  0
 19 18  1  0
 19 22  1  0
 19 20  1  1
 21 20  1  0
 22 24  1  0
 23 22  2  0
M  END
$$$$
