KMC.pdb
     RDKit          3D

 24 23  0  0  1  0  0  0  0  0999 V2000
    9.6759  -16.2227   19.8390 N   0  0  0  0  0  0  0  0  0  0  0  0
    8.8580  -16.7930   20.8812 C   0  0  1  0  0  0  0  0  0  0  0  0
    9.0633  -18.2419   21.1368 C   0  0  0  0  0  0  0  0  0  0  0  0
    8.6324  -19.1904   20.0854 C   0  0  0  0  0  0  0  0  0  0  0  0
    7.7715  -20.3215   20.5266 C   0  0  0  0  0  0  0  0  0  0  0  0
    7.2702  -21.1084   19.3030 C   0  0  0  0  0  0  0  0  0  0  0  0
    6.3790  -22.1481   19.7827 N   0  0  0  0  0  0  0  0  0  0  0  0
    9.1388  -16.0645   22.1402 C   0  0  0  0  0  0  0  0  0  0  0  0
   10.3017  -15.6575   22.3756 O   0  0  0  0  0  0  0  0  0  0  0  0
    7.0018  -11.3037   27.9904 C   0  0  0  0  0  0  0  0  0  0  0  0
    6.4764  -12.2547   26.5606 S   0  0  0  0  0  0  0  0  0  0  0  0
    7.7007  -13.4681   26.0316 C   0  0  0  0  0  0  0  0  0  0  0  0
    7.3440  -14.1320   24.7186 C   0  0  0  0  0  0  0  0  0  0  0  0
    8.4458  -15.0725   24.3288 C   0  0  2  0  0  0  0  0  0  0  0  0
    8.1510  -15.7951   23.1134 N   0  0  0  0  0  0  0  0  0  0  0  0
    8.8387  -16.0130   25.3733 C   0  0  0  0  0  0  0  0  0  0  0  0
    8.0360  -16.9231   25.7031 O   0  0  0  0  0  0  0  0  0  0  0  0
   10.0881  -15.9705   26.0551 N   0  0  0  0  0  0  0  0  0  0  0  0
   10.3905  -16.9736   27.0288 C   0  0  1  0  0  0  0  0  0  0  0  0
   11.7729  -17.5254   26.7595 C   0  0  0  0  0  0  0  0  0  0  0  0
   11.9571  -18.0499   25.0337 S   0  0  0  0  0  0  0  0  0  0  0  0
   10.2708  -16.4664   28.4238 C   0  0  0  0  0  0  0  0  0  0  0  0
    9.9470  -15.2832   28.6279 O   0  0  0  0  0  0  0  0  0  0  0  0
   10.5316  -17.3555   29.4566 O   0  0  0  0  0  0  0  0  0  0  0  0
  2  1  1  6
  2  8  1  0
  2  3  1  0
  4  3  1  0
  4  5  1  0
  5  6  1  0
  6  7  1  0
  8  9  2  0
 10 11  1  0
 11 12  1  0
 13 12  1  0
 14 13  1  1
 15 14  1  0
 15  8  1  0
 16 14  1  0
 17 16  2  0
 18 16  1  0
 19 18  1  0
 19 22  1  0
 19 20  1  6
 21 20  1  0
 22 24  1  0
 23 22  2  0
M  END
$$$$
