KMC.pdb
     RDKit          3D

 24 23  0  0  1  0  0  0  0  0999 V2000
    7.9947  -17.5726   21.5377 N   0  0  0  0  0  0  0  0  0  0  0  0
    9.1035  -16.7953   21.0410 C   0  0  1  0  0  0  0  0  0  0  0  0
    8.8706  -16.0978   19.7503 C   0  0  0  0  0  0  0  0  0  0  0  0
    8.7764  -16.9297   18.5297 C   0  0  0  0  0  0  0  0  0  0  0  0
    7.5551  -17.7694   18.3936 C   0  0  0  0  0  0  0  0  0  0  0  0
    7.5944  -18.5419   17.0634 C   0  0  0  0  0  0  0  0  0  0  0  0
    6.4083  -19.3754   17.0027 N   0  0  0  0  0  0  0  0  0  0  0  0
    9.4424  -15.7716   22.0569 C   0  0  0  0  0  0  0  0  0  0  0  0
   10.4085  -14.9965   21.8585 O   0  0  0  0  0  0  0  0  0  0  0  0
    6.9858  -11.5514   27.1138 C   0  0  0  0  0  0  0  0  0  0  0  0
    6.1264  -12.9588   26.4029 S   0  0  0  0  0  0  0  0  0  0  0  0
    7.2457  -14.2116   25.7478 C   0  0  0  0  0  0  0  0  0  0  0  0
    8.1474  -13.6824   24.6529 C   0  0  0  0  0  0  0  0  0  0  0  0
    9.1700  -14.7257   24.3120 C   0  0  2  0  0  0  0  0  0  0  0  0
    8.7249  -15.6135   23.2633 N   0  0  0  0  0  0  0  0  0  0  0  0
    9.6392  -15.5100   25.4499 C   0  0  0  0  0  0  0  0  0  0  0  0
    8.9900  -16.5315   25.7911 O   0  0  0  0  0  0  0  0  0  0  0  0
   10.7996  -15.1933   26.2118 N   0  0  0  0  0  0  0  0  0  0  0  0
   11.3391  -16.1696   27.1071 C   0  0  1  0  0  0  0  0  0  0  0  0
   12.8301  -15.9513   27.2391 C   0  0  0  0  0  0  0  0  0  0  0  0
   13.6305  -15.8168   25.6178 S   0  0  0  0  0  0  0  0  0  0  0  0
   10.6686  -16.1541   28.4367 C   0  0  0  0  0  0  0  0  0  0  0  0
    9.7799  -15.3171   28.6734 O   0  0  0  0  0  0  0  0  0  0  0  0
   11.0737  -17.0947   29.3730 O   0  0  0  0  0  0  0  0  0  0  0  0
  2  1  1  1
  2  8  1  0
  2  3  1  0
  4  3  1  0
  4  5  1  0
  5  6  1  0
  6  7  1  0
  8  9  2  0
 10 11  1  0
 11 12  1  0
 13 12  1  0
 14 13  1  1
 15 14  1  0
 15  8  1  0
 16 14  1  0
 17 16  2  0
 18 16  1  0
 19 18  1  0
 19 22  1  0
 19 20  1  1
 21 20  1  0
 22 24  1  0
 23 22  2  0
M  END
$$$$
