KMC.pdb
     RDKit          3D

 24 23  0  0  1  0  0  0  0  0999 V2000
    7.1443  -18.4324   22.1740 N   0  0  0  0  0  0  0  0  0  0  0  0
    8.1845  -17.8108   21.3917 C   0  0  1  0  0  0  0  0  0  0  0  0
    7.7680  -17.3019   20.0597 C   0  0  0  0  0  0  0  0  0  0  0  0
    8.8272  -16.7951   19.1585 C   0  0  0  0  0  0  0  0  0  0  0  0
    8.7221  -17.1879   17.7268 C   0  0  0  0  0  0  0  0  0  0  0  0
    8.8272  -15.9412   16.8311 C   0  0  0  0  0  0  0  0  0  0  0  0
    8.5276  -16.3492   15.4712 N   0  0  0  0  0  0  0  0  0  0  0  0
    8.7261  -16.6697   22.1659 C   0  0  0  0  0  0  0  0  0  0  0  0
    9.7990  -16.1288   21.8057 O   0  0  0  0  0  0  0  0  0  0  0  0
    5.5134  -12.2697   26.0024 C   0  0  0  0  0  0  0  0  0  0  0  0
    7.1925  -12.2239   26.6375 S   0  0  0  0  0  0  0  0  0  0  0  0
    8.3391  -13.2273   25.6732 C   0  0  0  0  0  0  0  0  0  0  0  0
    7.6461  -14.3078   24.8705 C   0  0  0  0  0  0  0  0  0  0  0  0
    8.6730  -15.0765   24.0928 C   0  0  2  0  0  0  0  0  0  0  0  0
    8.0903  -16.1429   23.3120 N   0  0  0  0  0  0  0  0  0  0  0  0
    9.7727  -15.6031   24.8950 C   0  0  0  0  0  0  0  0  0  0  0  0
   10.3683  -14.8308   25.6888 O   0  0  0  0  0  0  0  0  0  0  0  0
   10.2244  -16.9523   24.8400 N   0  0  0  0  0  0  0  0  0  0  0  0
   11.2591  -17.3827   25.7288 C   0  0  1  0  0  0  0  0  0  0  0  0
   10.7805  -17.2341   27.1560 C   0  0  0  0  0  0  0  0  0  0  0  0
    9.4981  -18.4508   27.5594 S   0  0  0  0  0  0  0  0  0  0  0  0
   11.7068  -18.7751   25.4487 C   0  0  0  0  0  0  0  0  0  0  0  0
   11.1040  -19.4626   24.6059 O   0  0  0  0  0  0  0  0  0  0  0  0
   12.8003  -19.2542   26.1558 O   0  0  0  0  0  0  0  0  0  0  0  0
  2  1  1  1
  2  8  1  0
  2  3  1  0
  4  3  1  0
  4  5  1  0
  5  6  1  0
  6  7  1  0
  8  9  2  0
 10 11  1  0
 11 12  1  0
 13 12  1  0
 14 13  1  1
 15 14  1  0
 15  8  1  0
 16 14  1  0
 17 16  2  0
 18 16  1  0
 19 18  1  0
 19 22  1  0
 19 20  1  1
 21 20  1  0
 22 24  1  0
 23 22  2  0
M  END
$$$$
