KMC.pdb
     RDKit          3D

 24 23  0  0  1  0  0  0  0  0999 V2000
    7.4135  -16.9839   21.2693 N   0  0  0  0  0  0  0  0  0  0  0  0
    8.8272  -16.6995   21.3023 C   0  0  1  0  0  0  0  0  0  0  0  0
    9.3167  -15.7594   20.2615 C   0  0  0  0  0  0  0  0  0  0  0  0
    8.3783  -14.7202   19.7816 C   0  0  0  0  0  0  0  0  0  0  0  0
    8.8595  -13.8566   18.6691 C   0  0  0  0  0  0  0  0  0  0  0  0
    7.7845  -12.8161   18.3091 C   0  0  0  0  0  0  0  0  0  0  0  0
    8.2810  -12.0391   17.1888 N   0  0  0  0  0  0  0  0  0  0  0  0
    9.1516  -16.1208   22.6270 C   0  0  0  0  0  0  0  0  0  0  0  0
   10.3232  -15.7436   22.8693 O   0  0  0  0  0  0  0  0  0  0  0  0
    6.0936  -12.0675   26.9365 C   0  0  0  0  0  0  0  0  0  0  0  0
    6.8305  -11.7136   25.3376 S   0  0  0  0  0  0  0  0  0  0  0  0
    7.8200  -13.0791   24.6990 C   0  0  0  0  0  0  0  0  0  0  0  0
    7.5510  -14.3868   25.4129 C   0  0  0  0  0  0  0  0  0  0  0  0
    8.5405  -15.4133   24.9465 C   0  0  2  0  0  0  0  0  0  0  0  0
    8.1972  -15.9653   23.6566 N   0  0  0  0  0  0  0  0  0  0  0  0
    8.7820  -16.4975   25.8932 C   0  0  0  0  0  0  0  0  0  0  0  0
    7.8580  -17.3189   26.1230 O   0  0  0  0  0  0  0  0  0  0  0  0
   10.0111  -16.6921   26.5852 N   0  0  0  0  0  0  0  0  0  0  0  0
   10.3641  -18.0038   27.0330 C   0  0  1  0  0  0  0  0  0  0  0  0
   10.4431  -18.9307   25.8402 C   0  0  0  0  0  0  0  0  0  0  0  0
   10.8180  -20.6323   26.3416 S   0  0  0  0  0  0  0  0  0  0  0  0
   11.6316  -18.0161   27.8147 C   0  0  0  0  0  0  0  0  0  0  0  0
   12.6715  -17.5498   27.3172 O   0  0  0  0  0  0  0  0  0  0  0  0
   11.5955  -18.5590   29.0911 O   0  0  0  0  0  0  0  0  0  0  0  0
  2  1  1  1
  2  8  1  0
  2  3  1  0
  4  3  1  0
  4  5  1  0
  5  6  1  0
  6  7  1  0
  8  9  2  0
 10 11  1  0
 11 12  1  0
 13 12  1  0
 14 13  1  1
 15 14  1  0
 15  8  1  0
 16 14  1  0
 17 16  2  0
 18 16  1  0
 19 18  1  0
 19 22  1  0
 19 20  1  6
 21 20  1  0
 22 24  1  0
 23 22  2  0
M  END
$$$$
