KMC.pdb
     RDKit          3D

 24 23  0  0  1  0  0  0  0  0999 V2000
    9.3996  -16.3403   19.6612 N   0  0  0  0  0  0  0  0  0  0  0  0
    8.3627  -16.6568   20.6125 C   0  0  1  0  0  0  0  0  0  0  0  0
    8.1436  -18.1043   20.8643 C   0  0  0  0  0  0  0  0  0  0  0  0
    8.1159  -19.0067   19.6913 C   0  0  0  0  0  0  0  0  0  0  0  0
    9.4263  -19.5541   19.2461 C   0  0  0  0  0  0  0  0  0  0  0  0
    9.3499  -21.0880   19.1512 C   0  0  0  0  0  0  0  0  0  0  0  0
   10.6705  -21.5739   18.7972 N   0  0  0  0  0  0  0  0  0  0  0  0
    8.7088  -16.0177   21.9035 C   0  0  0  0  0  0  0  0  0  0  0  0
    9.9044  -15.9914   22.2821 O   0  0  0  0  0  0  0  0  0  0  0  0
    6.8506  -11.5333   28.1748 C   0  0  0  0  0  0  0  0  0  0  0  0
    6.2761  -12.2765   26.6443 S   0  0  0  0  0  0  0  0  0  0  0  0
    7.4770  -13.4062   25.9143 C   0  0  0  0  0  0  0  0  0  0  0  0
    7.0206  -13.9754   24.5877 C   0  0  0  0  0  0  0  0  0  0  0  0
    8.1023  -14.8540   24.0323 C   0  0  2  0  0  0  0  0  0  0  0  0
    7.7493  -15.4225   22.7523 N   0  0  0  0  0  0  0  0  0  0  0  0
    8.5448  -15.9142   24.9325 C   0  0  0  0  0  0  0  0  0  0  0  0
    7.7929  -16.9047   25.1186 O   0  0  0  0  0  0  0  0  0  0  0  0
    9.7890  -15.9039   25.6249 N   0  0  0  0  0  0  0  0  0  0  0  0
   10.1315  -17.0070   26.4685 C   0  0  1  0  0  0  0  0  0  0  0  0
   11.4214  -17.6256   25.9769 C   0  0  0  0  0  0  0  0  0  0  0  0
   11.2007  -18.4417   24.3729 S   0  0  0  0  0  0  0  0  0  0  0  0
   10.2284  -16.6175   27.9026 C   0  0  0  0  0  0  0  0  0  0  0  0
   10.5675  -17.4597   28.7524 O   0  0  0  0  0  0  0  0  0  0  0  0
    9.9296  -15.3037   28.2345 O   0  0  0  0  0  0  0  0  0  0  0  0
  2  1  1  6
  2  8  1  0
  2  3  1  0
  4  3  1  0
  4  5  1  0
  5  6  1  0
  6  7  1  0
  8  9  2  0
 10 11  1  0
 11 12  1  0
 13 12  1  0
 14 13  1  1
 15 14  1  0
 15  8  1  0
 16 14  1  0
 17 16  2  0
 18 16  1  0
 19 18  1  0
 19 22  1  0
 19 20  1  6
 21 20  1  0
 22 24  1  0
 23 22  2  0
M  END
$$$$
