KMC.pdb
     RDKit          3D

 24 23  0  0  1  0  0  0  0  0999 V2000
    7.9336  -12.8553   19.5584 N   0  0  0  0  0  0  0  0  0  0  0  0
    7.5892  -13.9998   20.3659 C   0  0  1  0  0  0  0  0  0  0  0  0
    8.0593  -15.3119   19.8522 C   0  0  0  0  0  0  0  0  0  0  0  0
    8.2302  -15.4528   18.3887 C   0  0  0  0  0  0  0  0  0  0  0  0
    8.4912  -16.8276   17.8819 C   0  0  0  0  0  0  0  0  0  0  0  0
    8.5146  -16.8247   16.3434 C   0  0  0  0  0  0  0  0  0  0  0  0
    8.9379  -18.1421   15.9066 N   0  0  0  0  0  0  0  0  0  0  0  0
    8.1692  -13.8051   21.7152 C   0  0  0  0  0  0  0  0  0  0  0  0
    9.3080  -13.2924   21.8331 O   0  0  0  0  0  0  0  0  0  0  0  0
    5.1767  -11.2626   26.6994 C   0  0  0  0  0  0  0  0  0  0  0  0
    6.6943  -11.8115   27.4870 S   0  0  0  0  0  0  0  0  0  0  0  0
    7.7300  -12.8127   26.4023 C   0  0  0  0  0  0  0  0  0  0  0  0
    7.0950  -13.0690   25.0521 C   0  0  0  0  0  0  0  0  0  0  0  0
    8.0383  -13.8777   24.2115 C   0  0  2  0  0  0  0  0  0  0  0  0
    7.4997  -14.1713   22.9038 N   0  0  0  0  0  0  0  0  0  0  0  0
    8.5026  -15.1118   24.8371 C   0  0  0  0  0  0  0  0  0  0  0  0
    8.9137  -15.0722   26.0248 O   0  0  0  0  0  0  0  0  0  0  0  0
    8.5223  -16.3774   24.1849 N   0  0  0  0  0  0  0  0  0  0  0  0
    8.9794  -17.5284   24.9003 C   0  0  1  0  0  0  0  0  0  0  0  0
    7.9605  -18.6374   24.7588 C   0  0  0  0  0  0  0  0  0  0  0  0
    6.6133  -18.4623   25.9596 S   0  0  0  0  0  0  0  0  0  0  0  0
   10.3303  -17.9730   24.4587 C   0  0  0  0  0  0  0  0  0  0  0  0
   10.8270  -19.0105   24.9312 O   0  0  0  0  0  0  0  0  0  0  0  0
   10.9895  -17.1931   23.5191 O   0  0  0  0  0  0  0  0  0  0  0  0
  2  1  1  6
  2  8  1  0
  2  3  1  0
  4  3  1  0
  4  5  1  0
  5  6  1  0
  6  7  1  0
  8  9  2  0
 10 11  1  0
 11 12  1  0
 13 12  1  0
 14 13  1  1
 15 14  1  0
 15  8  1  0
 16 14  1  0
 17 16  2  0
 18 16  1  0
 19 18  1  0
 19 22  1  0
 19 20  1  6
 21 20  1  0
 22 24  1  0
 23 22  2  0
M  END
$$$$
