FEY.pdb
     RDKit          3D

 33 34  0  0  1  0  0  0  0  0999 V2000
    7.0632  -17.9323   20.8050 N   0  0  0  0  0  0  0  0  0  0  0  0
    8.1884  -17.0693   20.9883 C   0  0  1  0  0  0  0  0  0  0  0  0
    7.8000  -15.7876   21.7295 C   0  0  0  0  0  0  0  0  0  0  0  0
    7.7894  -14.6922   20.7481 C   0  0  0  0  0  0  0  0  0  0  0  0
    8.9455  -14.3649   20.0787 C   0  0  0  0  0  0  0  0  0  0  0  0
    8.9796  -13.3342   19.1399 C   0  0  0  0  0  0  0  0  0  0  0  0
    7.8193  -12.6258   18.8783 C   0  0  0  0  0  0  0  0  0  0  0  0
    6.6688  -12.9544   19.5470 C   0  0  0  0  0  0  0  0  0  0  0  0
    6.6432  -13.9798   20.4783 C   0  0  0  0  0  0  0  0  0  0  0  0
    9.2700  -17.7064   21.7694 C   0  0  0  0  0  0  0  0  0  0  0  0
    9.0011  -18.5952   22.6371 O   0  0  0  0  0  0  0  0  0  0  0  0
   10.6471  -17.3911   21.6217 N   0  0  0  0  0  0  0  0  0  0  0  0
   11.6569  -17.7702   22.6084 C   0  0  1  0  0  0  0  0  0  0  0  0
   12.9949  -17.5493   21.9578 C   0  0  0  0  0  0  0  0  0  0  0  0
   13.2532  -18.4195   20.7589 C   0  0  0  0  0  0  0  0  0  0  0  0
   14.1715  -17.7216   19.8282 C   0  0  0  0  0  0  0  0  0  0  0  0
   13.9401  -17.7368   18.6073 O   0  0  0  0  0  0  0  0  0  0  0  0
   11.5525  -16.9069   23.8100 C   0  0  0  0  0  0  0  0  0  0  0  0
   12.1307  -15.7953   23.8995 O   0  0  0  0  0  0  0  0  0  0  0  0
   15.2756  -17.0593   20.3104 O   0  0  0  0  0  0  0  0  0  0  0  0
    5.7176  -11.9944   27.6965 O   0  0  0  0  0  0  0  0  0  0  0  0
    6.5254  -12.8681   26.9721 C   0  0  0  0  0  0  0  0  0  0  0  0
    6.1677  -14.1929   26.8359 C   0  0  0  0  0  0  0  0  0  0  0  0
    6.9522  -15.0758   26.1231 C   0  0  0  0  0  0  0  0  0  0  0  0
    8.1298  -14.7005   25.5078 C   0  0  0  0  0  0  0  0  0  0  0  0
    8.9938  -15.6284   24.7486 C   0  0  0  0  0  0  0  0  0  0  0  0
    9.9757  -16.2715   25.6605 C   0  0  2  0  0  0  0  0  0  0  0  0
   10.7903  -17.2687   24.9548 N   0  0  0  0  0  0  0  0  0  0  0  0
    9.2817  -16.9719   26.7529 C   0  0  0  0  0  0  0  0  0  0  0  0
    9.1740  -16.5469   27.9352 O   0  0  0  0  0  0  0  0  0  0  0  0
    8.4716  -13.3500   25.6601 C   0  0  0  0  0  0  0  0  0  0  0  0
    7.6959  -12.4602   26.3691 C   0  0  0  0  0  0  0  0  0  0  0  0
    8.6874  -18.2140   26.4684 O   0  0  0  0  0  0  0  0  0  0  0  0
  2  1  1  1
  2  3  1  0
  3  4  1  0
  4  5  2  0
  5  6  1  0
  7  6  2  0
  8  7  1  0
  9  4  1  0
  9  8  2  0
 10 11  2  0
 10  2  1  0
 12 10  1  0
 13 18  1  0
 13 12  1  0
 13 14  1  6
 15 14  1  0
 16 15  1  0
 17 16  2  0
 18 28  1  0
 19 18  2  0
 20 16  1  0
 22 21  1  0
 23 22  2  0
 24 23  1  0
 25 24  2  0
 25 31  1  0
 26 25  1  0
 27 26  1  6
 28 27  1  0
 29 27  1  0
 30 29  2  0
 31 32  2  0
 32 22  1  0
 33 29  1  0
M  END
$$$$
