FEY.pdb
     RDKit          3D

 33 34  0  0  1  0  0  0  0  0999 V2000
    5.9579  -17.9099   22.3531 N   0  0  0  0  0  0  0  0  0  0  0  0
    7.0093  -16.9493   22.2256 C   0  0  1  0  0  0  0  0  0  0  0  0
    6.5795  -15.5729   22.7391 C   0  0  0  0  0  0  0  0  0  0  0  0
    7.1402  -14.5634   21.8281 C   0  0  0  0  0  0  0  0  0  0  0  0
    7.9121  -14.9611   20.7614 C   0  0  0  0  0  0  0  0  0  0  0  0
    8.4623  -14.0376   19.8730 C   0  0  0  0  0  0  0  0  0  0  0  0
    8.2232  -12.6888   20.0733 C   0  0  0  0  0  0  0  0  0  0  0  0
    7.4536  -12.2957   21.1372 C   0  0  0  0  0  0  0  0  0  0  0  0
    6.9105  -13.2194   22.0153 C   0  0  0  0  0  0  0  0  0  0  0  0
    8.2206  -17.3312   22.9823 C   0  0  0  0  0  0  0  0  0  0  0  0
    8.1241  -17.8032   24.1583 O   0  0  0  0  0  0  0  0  0  0  0  0
    9.5429  -17.2076   22.4783 N   0  0  0  0  0  0  0  0  0  0  0  0
   10.7224  -17.6138   23.2404 C   0  0  1  0  0  0  0  0  0  0  0  0
   11.8782  -17.6028   22.2780 C   0  0  0  0  0  0  0  0  0  0  0  0
   11.7858  -18.6317   21.1853 C   0  0  0  0  0  0  0  0  0  0  0  0
   12.9703  -18.5238   20.3010 C   0  0  0  0  0  0  0  0  0  0  0  0
   14.0947  -18.3390   20.7969 O   0  0  0  0  0  0  0  0  0  0  0  0
   10.9894  -16.6451   24.3314 C   0  0  0  0  0  0  0  0  0  0  0  0
   11.6842  -15.6117   24.1668 O   0  0  0  0  0  0  0  0  0  0  0  0
   12.8289  -18.6274   18.9374 O   0  0  0  0  0  0  0  0  0  0  0  0
    5.5001  -13.0871   26.2311 O   0  0  0  0  0  0  0  0  0  0  0  0
    6.8353  -13.4754   26.3159 C   0  0  0  0  0  0  0  0  0  0  0  0
    7.6792  -12.8666   27.2208 C   0  0  0  0  0  0  0  0  0  0  0  0
    9.0048  -13.2350   27.3220 C   0  0  0  0  0  0  0  0  0  0  0  0
    9.5685  -14.2213   26.5376 C   0  0  0  0  0  0  0  0  0  0  0  0
   10.9874  -14.6266   26.6181 C   0  0  0  0  0  0  0  0  0  0  0  0
   11.0876  -16.1004   26.7826 C   0  0  2  0  0  0  0  0  0  0  0  0
   10.4804  -16.8094   25.6492 N   0  0  0  0  0  0  0  0  0  0  0  0
   10.3769  -16.5325   27.9965 C   0  0  0  0  0  0  0  0  0  0  0  0
    9.4153  -17.3478   28.0236 O   0  0  0  0  0  0  0  0  0  0  0  0
    8.6913  -14.8250   25.6265 C   0  0  0  0  0  0  0  0  0  0  0  0
    7.3667  -14.4653   25.5172 C   0  0  0  0  0  0  0  0  0  0  0  0
   10.7936  -16.0014   29.2299 O   0  0  0  0  0  0  0  0  0  0  0  0
  2  1  1  1
  2  3  1  0
  3  4  1  0
  4  5  2  0
  5  6  1  0
  7  6  2  0
  8  7  1  0
  9  4  1  0
  9  8  2  0
 10 11  2  0
 10  2  1  0
 12 10  1  0
 13 18  1  0
 13 12  1  0
 13 14  1  6
 15 14  1  0
 16 15  1  0
 17 16  2  0
 18 28  1  0
 19 18  2  0
 20 16  1  0
 22 21  1  0
 23 22  2  0
 24 23  1  0
 25 24  2  0
 25 31  1  0
 26 25  1  0
 27 26  1  6
 28 27  1  0
 29 27  1  0
 30 29  2  0
 31 32  2  0
 32 22  1  0
 33 29  1  0
M  END
$$$$
