FEY.pdb
     RDKit          3D

 33 34  0  0  1  0  0  0  0  0999 V2000
    5.9282  -16.9957   24.7989 N   0  0  0  0  0  0  0  0  0  0  0  0
    6.6416  -16.9272   23.5616 C   0  0  1  0  0  0  0  0  0  0  0  0
    6.6171  -15.5136   22.9752 C   0  0  0  0  0  0  0  0  0  0  0  0
    6.9454  -14.5763   24.0600 C   0  0  0  0  0  0  0  0  0  0  0  0
    7.1950  -15.0569   25.3243 C   0  0  0  0  0  0  0  0  0  0  0  0
    7.5107  -14.2037   26.3813 C   0  0  0  0  0  0  0  0  0  0  0  0
    7.5734  -12.8405   26.1479 C   0  0  0  0  0  0  0  0  0  0  0  0
    7.3242  -12.3648   24.8869 C   0  0  0  0  0  0  0  0  0  0  0  0
    7.0112  -13.2190   23.8421 C   0  0  0  0  0  0  0  0  0  0  0  0
    8.0628  -17.3084   23.7051 C   0  0  0  0  0  0  0  0  0  0  0  0
    8.5077  -17.7314   24.8178 O   0  0  0  0  0  0  0  0  0  0  0  0
    9.0138  -17.2367   22.6523 N   0  0  0  0  0  0  0  0  0  0  0  0
   10.3414  -17.8422   22.7413 C   0  0  1  0  0  0  0  0  0  0  0  0
   10.9328  -17.7813   21.3598 C   0  0  0  0  0  0  0  0  0  0  0  0
   10.9050  -16.4149   20.7324 C   0  0  0  0  0  0  0  0  0  0  0  0
   11.2382  -16.5235   19.2923 C   0  0  0  0  0  0  0  0  0  0  0  0
   11.3942  -17.6444   18.7788 O   0  0  0  0  0  0  0  0  0  0  0  0
   11.1990  -17.0683   23.6716 C   0  0  0  0  0  0  0  0  0  0  0  0
   11.0534  -15.8354   23.8626 O   0  0  0  0  0  0  0  0  0  0  0  0
   11.3748  -15.3908   18.5252 O   0  0  0  0  0  0  0  0  0  0  0  0
    9.6758  -13.3840   29.9774 O   0  0  0  0  0  0  0  0  0  0  0  0
   10.0212  -14.4461   29.1449 C   0  0  0  0  0  0  0  0  0  0  0  0
    9.2354  -14.7584   28.0556 C   0  0  0  0  0  0  0  0  0  0  0  0
    9.5581  -15.8058   27.2178 C   0  0  0  0  0  0  0  0  0  0  0  0
   10.6709  -16.6003   27.4089 C   0  0  0  0  0  0  0  0  0  0  0  0
   11.0326  -17.7346   26.5335 C   0  0  0  0  0  0  0  0  0  0  0  0
   12.3388  -17.4730   25.8742 C   0  0  2  0  0  0  0  0  0  0  0  0
   12.2532  -17.6603   24.4204 N   0  0  0  0  0  0  0  0  0  0  0  0
   13.3628  -18.4049   26.3728 C   0  0  0  0  0  0  0  0  0  0  0  0
   13.7335  -18.5016   27.5742 O   0  0  0  0  0  0  0  0  0  0  0  0
   11.4534  -16.2632   28.5216 C   0  0  0  0  0  0  0  0  0  0  0  0
   11.1407  -15.2200   29.3641 C   0  0  0  0  0  0  0  0  0  0  0  0
   13.9843  -19.2604   25.4460 O   0  0  0  0  0  0  0  0  0  0  0  0
  2  1  1  1
  2  3  1  0
  3  4  1  0
  4  5  2  0
  5  6  1  0
  7  6  2  0
  8  7  1  0
  9  4  1  0
  9  8  2  0
 10 11  2  0
 10  2  1  0
 12 10  1  0
 13 18  1  0
 13 12  1  0
 13 14  1  6
 15 14  1  0
 16 15  1  0
 17 16  2  0
 18 28  1  0
 19 18  2  0
 20 16  1  0
 22 21  1  0
 23 22  2  0
 24 23  1  0
 25 24  2  0
 25 31  1  0
 26 25  1  0
 27 26  1  1
 28 27  1  0
 29 27  1  0
 30 29  2  0
 31 32  2  0
 32 22  1  0
 33 29  1  0
M  END
$$$$
