FEY.pdb
     RDKit          3D

 33 34  0  0  1  0  0  0  0  0999 V2000
    5.9026  -18.1189   24.3099 N   0  0  0  0  0  0  0  0  0  0  0  0
    6.9124  -17.1157   24.4459 C   0  0  1  0  0  0  0  0  0  0  0  0
    7.0553  -16.6541   25.8983 C   0  0  0  0  0  0  0  0  0  0  0  0
    7.0608  -15.1834   25.8991 C   0  0  0  0  0  0  0  0  0  0  0  0
    6.7091  -14.5006   27.0401 C   0  0  0  0  0  0  0  0  0  0  0  0
    6.7016  -13.1068   27.0847 C   0  0  0  0  0  0  0  0  0  0  0  0
    7.0574  -12.3969   25.9506 C   0  0  0  0  0  0  0  0  0  0  0  0
    7.4074  -13.0802   24.8151 C   0  0  0  0  0  0  0  0  0  0  0  0
    7.4124  -14.4651   24.7789 C   0  0  0  0  0  0  0  0  0  0  0  0
    8.2441  -17.5896   24.0126 C   0  0  0  0  0  0  0  0  0  0  0  0
    8.7577  -18.6306   24.5300 O   0  0  0  0  0  0  0  0  0  0  0  0
    9.0311  -16.9465   23.0203 N   0  0  0  0  0  0  0  0  0  0  0  0
   10.3358  -17.4499   22.5947 C   0  0  1  0  0  0  0  0  0  0  0  0
   10.5937  -16.8708   21.2308 C   0  0  0  0  0  0  0  0  0  0  0  0
   11.9617  -17.1652   20.6800 C   0  0  0  0  0  0  0  0  0  0  0  0
   12.0786  -16.6007   19.3146 C   0  0  0  0  0  0  0  0  0  0  0  0
   11.7124  -15.4332   19.0971 O   0  0  0  0  0  0  0  0  0  0  0  0
   11.3943  -16.9896   23.5261 C   0  0  0  0  0  0  0  0  0  0  0  0
   12.6094  -17.2621   23.3610 O   0  0  0  0  0  0  0  0  0  0  0  0
   12.5897  -17.3629   18.2909 O   0  0  0  0  0  0  0  0  0  0  0  0
    9.0396  -16.9468   30.7163 O   0  0  0  0  0  0  0  0  0  0  0  0
    9.6908  -16.3368   29.6466 C   0  0  0  0  0  0  0  0  0  0  0  0
    8.9812  -15.9585   28.5263 C   0  0  0  0  0  0  0  0  0  0  0  0
    9.6053  -15.3530   27.4553 C   0  0  0  0  0  0  0  0  0  0  0  0
   10.9602  -15.0890   27.4313 C   0  0  0  0  0  0  0  0  0  0  0  0
   11.6546  -14.4524   26.2927 C   0  0  0  0  0  0  0  0  0  0  0  0
   12.1949  -15.4931   25.3792 C   0  0  2  0  0  0  0  0  0  0  0  0
   11.1178  -16.2040   24.6789 N   0  0  0  0  0  0  0  0  0  0  0  0
   12.9574  -16.4978   26.1372 C   0  0  0  0  0  0  0  0  0  0  0  0
   12.6653  -17.7218   26.2186 O   0  0  0  0  0  0  0  0  0  0  0  0
   11.6592  -15.4822   28.5805 C   0  0  0  0  0  0  0  0  0  0  0  0
   11.0464  -16.0870   29.6551 C   0  0  0  0  0  0  0  0  0  0  0  0
   14.1046  -16.0718   26.8297 O   0  0  0  0  0  0  0  0  0  0  0  0
  2  1  1  1
  2  3  1  0
  3  4  1  0
  4  5  2  0
  5  6  1  0
  7  6  2  0
  8  7  1  0
  9  4  1  0
  9  8  2  0
 10 11  2  0
 10  2  1  0
 12 10  1  0
 13 18  1  0
 13 12  1  0
 13 14  1  6
 15 14  1  0
 16 15  1  0
 17 16  2  0
 18 28  1  0
 19 18  2  0
 20 16  1  0
 22 21  1  0
 23 22  2  0
 24 23  1  0
 25 24  2  0
 25 31  1  0
 26 25  1  0
 27 26  1  1
 28 27  1  0
 29 27  1  0
 30 29  2  0
 31 32  2  0
 32 22  1  0
 33 29  1  0
M  END
$$$$
