FEY.pdb
     RDKit          3D

 33 34  0  0  1  0  0  0  0  0999 V2000
    6.0900  -17.7716   21.7713 N   0  0  0  0  0  0  0  0  0  0  0  0
    7.1966  -16.8828   21.9446 C   0  0  1  0  0  0  0  0  0  0  0  0
    6.7449  -15.5165   22.4660 C   0  0  0  0  0  0  0  0  0  0  0  0
    7.2215  -14.4987   21.5172 C   0  0  0  0  0  0  0  0  0  0  0  0
    7.1935  -13.1699   21.8713 C   0  0  0  0  0  0  0  0  0  0  0  0
    7.6364  -12.1727   21.0029 C   0  0  0  0  0  0  0  0  0  0  0  0
    8.1151  -12.5333   19.7549 C   0  0  0  0  0  0  0  0  0  0  0  0
    8.1417  -13.8583   19.4050 C   0  0  0  0  0  0  0  0  0  0  0  0
    7.6999  -14.8431   20.2735 C   0  0  0  0  0  0  0  0  0  0  0  0
    8.1945  -17.4007   22.9048 C   0  0  0  0  0  0  0  0  0  0  0  0
    8.0404  -18.5421   23.4420 O   0  0  0  0  0  0  0  0  0  0  0  0
    9.3639  -16.6938   23.2927 N   0  0  0  0  0  0  0  0  0  0  0  0
   10.6332  -17.3594   23.5801 C   0  0  1  0  0  0  0  0  0  0  0  0
   11.5025  -17.1646   22.3683 C   0  0  0  0  0  0  0  0  0  0  0  0
   12.8288  -17.8700   22.4360 C   0  0  0  0  0  0  0  0  0  0  0  0
   13.5873  -17.6210   21.1872 C   0  0  0  0  0  0  0  0  0  0  0  0
   14.7538  -17.1967   21.2491 O   0  0  0  0  0  0  0  0  0  0  0  0
   11.2888  -16.7333   24.7541 C   0  0  0  0  0  0  0  0  0  0  0  0
   12.4336  -17.0660   25.1499 O   0  0  0  0  0  0  0  0  0  0  0  0
   13.0057  -17.8575   19.9642 O   0  0  0  0  0  0  0  0  0  0  0  0
    5.9007  -11.4260   26.0378 O   0  0  0  0  0  0  0  0  0  0  0  0
    6.6158  -12.5921   26.3009 C   0  0  0  0  0  0  0  0  0  0  0  0
    7.9121  -12.5215   26.7661 C   0  0  0  0  0  0  0  0  0  0  0  0
    8.6391  -13.6631   27.0334 C   0  0  0  0  0  0  0  0  0  0  0  0
    8.1280  -14.9333   26.8561 C   0  0  0  0  0  0  0  0  0  0  0  0
    8.8890  -16.1715   27.1237 C   0  0  0  0  0  0  0  0  0  0  0  0
   10.3431  -15.9260   26.9377 C   0  0  2  0  0  0  0  0  0  0  0  0
   10.6739  -15.7077   25.5239 N   0  0  0  0  0  0  0  0  0  0  0  0
   11.1236  -17.0877   27.3922 C   0  0  0  0  0  0  0  0  0  0  0  0
   11.1277  -17.5452   28.5673 O   0  0  0  0  0  0  0  0  0  0  0  0
    6.8096  -14.9790   26.3831 C   0  0  0  0  0  0  0  0  0  0  0  0
    6.0749  -13.8460   26.1133 C   0  0  0  0  0  0  0  0  0  0  0  0
   11.9327  -17.7486   26.4510 O   0  0  0  0  0  0  0  0  0  0  0  0
  2  1  1  1
  2  3  1  0
  3  4  1  0
  4  5  2  0
  5  6  1  0
  7  6  2  0
  8  7  1  0
  9  4  1  0
  9  8  2  0
 10 11  2  0
 10  2  1  0
 12 10  1  0
 13 18  1  0
 13 12  1  0
 13 14  1  6
 15 14  1  0
 16 15  1  0
 17 16  2  0
 18 28  1  0
 19 18  2  0
 20 16  1  0
 22 21  1  0
 23 22  2  0
 24 23  1  0
 25 24  2  0
 25 31  1  0
 26 25  1  0
 27 26  1  6
 28 27  1  0
 29 27  1  0
 30 29  2  0
 31 32  2  0
 32 22  1  0
 33 29  1  0
M  END
$$$$
