LTG.pdb
     RDKit          3D

 20 19  0  0  1  0  0  0  0  0999 V2000
   16.1670  -15.6328  -15.6460 C   0  0  0  0  0  0  0  0  0  0  0  0
   17.3358  -15.4379  -16.5794 C   0  0  1  0  0  0  0  0  0  0  0  0
   16.9041  -15.0259  -17.9702 C   0  0  0  0  0  0  0  0  0  0  0  0
   18.2615  -14.4092  -15.9703 C   0  0  0  0  0  0  0  0  0  0  0  0
   19.4637  -14.2056  -16.8691 C   0  0  2  0  0  0  0  0  0  0  0  0
   20.2997  -15.3902  -16.9417 N   0  0  0  0  0  0  0  0  0  0  0  0
   20.3025  -13.1019  -16.3688 C   0  0  0  0  0  0  0  0  0  0  0  0
   21.0815  -13.3241  -15.4142 O   0  0  0  0  0  0  0  0  0  0  0  0
   23.3187  -11.3948  -17.6798 C   0  0  0  0  0  0  0  0  0  0  0  0
   22.2608  -10.3280  -17.3964 C   0  0  1  0  0  0  0  0  0  0  0  0
   21.8163   -9.7187  -18.5426 O   0  0  0  0  0  0  0  0  0  0  0  0
   21.2172  -10.7760  -16.4592 C   0  0  2  0  0  0  0  0  0  0  0  0
   20.3210  -11.7958  -16.8610 N   0  0  0  0  0  0  0  0  0  0  0  0
   20.3957   -9.5959  -16.0762 C   0  0  0  0  0  0  0  0  0  0  0  0
   19.2101   -9.4797  -16.5054 O   0  0  0  0  0  0  0  0  0  0  0  0
   20.8561   -8.5501  -15.2341 N   0  0  0  0  0  0  0  0  0  0  0  0
   19.9481   -7.4558  -14.8883 C   0  0  0  0  0  0  0  0  0  0  0  0
   20.6008   -6.4484  -14.0463 C   0  0  0  0  0  0  0  0  0  0  0  0
   19.9095   -5.3069  -13.6945 O   0  0  0  0  0  0  0  0  0  0  0  0
   21.7742   -6.5994  -13.6375 O   0  0  0  0  0  0  0  0  0  0  0  0
  2  1  1  1
  3  2  1  0
  4  2  1  0
  5  4  1  0
  5  6  1  1
  7  5  1  0
  7  8  2  0
 10  9  1  6
 10 12  1  0
 11 10  1  0
 12 13  1  6
 13  7  1  0
 14 12  1  0
 14 16  1  0
 15 14  2  0
 16 17  1  0
 17 18  1  0
 18 20  2  0
 18 19  1  0
M  END
$$$$
