LTG.pdb
     RDKit          3D

 20 19  0  0  1  0  0  0  0  0999 V2000
   31.4503  -21.3145   -9.8372 C   0  0  0  0  0  0  0  0  0  0  0  0
   30.6016  -21.1190  -11.0688 C   0  0  1  0  0  0  0  0  0  0  0  0
   31.2317  -21.7180  -12.3076 C   0  0  0  0  0  0  0  0  0  0  0  0
   29.2400  -21.7213  -10.8058 C   0  0  0  0  0  0  0  0  0  0  0  0
   28.3161  -21.4273  -11.9697 C   0  0  2  0  0  0  0  0  0  0  0  0
   28.4480  -20.0608  -12.4417 N   0  0  0  0  0  0  0  0  0  0  0  0
   26.9096  -21.6259  -11.5765 C   0  0  0  0  0  0  0  0  0  0  0  0
   26.5896  -22.6948  -11.0084 O   0  0  0  0  0  0  0  0  0  0  0  0
   22.4996  -20.6352   -9.9608 C   0  0  0  0  0  0  0  0  0  0  0  0
   23.9600  -20.2753  -10.2350 C   0  0  1  0  0  0  0  0  0  0  0  0
   24.7333  -20.3406   -9.1035 O   0  0  0  0  0  0  0  0  0  0  0  0
   24.5097  -20.9382  -11.4295 C   0  0  2  0  0  0  0  0  0  0  0  0
   25.8651  -20.7217  -11.7762 N   0  0  0  0  0  0  0  0  0  0  0  0
   23.6874  -20.5405  -12.6042 C   0  0  0  0  0  0  0  0  0  0  0  0
   23.8274  -19.3923  -13.1193 O   0  0  0  0  0  0  0  0  0  0  0  0
   22.7211  -21.3815  -13.2158 N   0  0  0  0  0  0  0  0  0  0  0  0
   22.0551  -20.9357  -14.4402 C   0  0  0  0  0  0  0  0  0  0  0  0
   20.8235  -20.1935  -14.1542 C   0  0  0  0  0  0  0  0  0  0  0  0
   20.1448  -19.5807  -15.1879 O   0  0  0  0  0  0  0  0  0  0  0  0
   20.3711  -20.1019  -12.9907 O   0  0  0  0  0  0  0  0  0  0  0  0
  2  1  1  1
  3  2  1  0
  4  2  1  0
  5  4  1  0
  5  6  1  1
  7  5  1  0
  7  8  2  0
 10  9  1  1
 10 12  1  0
 11 10  1  0
 12 13  1  6
 13  7  1  0
 14 12  1  0
 14 16  1  0
 15 14  2  0
 16 17  1  0
 17 18  1  0
 18 20  2  0
 18 19  1  0
M  END
$$$$
