LTG.pdb
     RDKit          3D

 20 19  0  0  1  0  0  0  0  0999 V2000
   28.9502  -20.5674   -5.5791 C   0  0  0  0  0  0  0  0  0  0  0  0
   27.5685  -20.1699   -6.0354 C   0  0  1  0  0  0  0  0  0  0  0  0
   27.2743  -18.7066   -5.7852 C   0  0  0  0  0  0  0  0  0  0  0  0
   27.4397  -20.5070   -7.5037 C   0  0  0  0  0  0  0  0  0  0  0  0
   26.0640  -20.1141   -8.0010 C   0  0  2  0  0  0  0  0  0  0  0  0
   25.0623  -21.1180   -7.6907 N   0  0  0  0  0  0  0  0  0  0  0  0
   26.0742  -19.9365   -9.4641 C   0  0  0  0  0  0  0  0  0  0  0  0
   26.8254  -19.0655   -9.9586 O   0  0  0  0  0  0  0  0  0  0  0  0
   27.4255  -21.8022  -12.3286 C   0  0  0  0  0  0  0  0  0  0  0  0
   25.9429  -21.5655  -12.6168 C   0  0  1  0  0  0  0  0  0  0  0  0
   25.2322  -22.7372  -12.6832 O   0  0  0  0  0  0  0  0  0  0  0  0
   25.3511  -20.4996  -11.7910 C   0  0  2  0  0  0  0  0  0  0  0  0
   25.3122  -20.6580  -10.3846 N   0  0  0  0  0  0  0  0  0  0  0  0
   23.9518  -20.2785  -12.2465 C   0  0  0  0  0  0  0  0  0  0  0  0
   22.9816  -20.5812  -11.4913 O   0  0  0  0  0  0  0  0  0  0  0  0
   23.6074  -19.7330  -13.5109 N   0  0  0  0  0  0  0  0  0  0  0  0
   22.1991  -19.4940  -13.8289 C   0  0  0  0  0  0  0  0  0  0  0  0
   21.9435  -19.5674  -15.2707 C   0  0  0  0  0  0  0  0  0  0  0  0
   22.9664  -19.9293  -16.1237 O   0  0  0  0  0  0  0  0  0  0  0  0
   20.8157  -19.3089  -15.7484 O   0  0  0  0  0  0  0  0  0  0  0  0
  2  1  1  6
  3  2  1  0
  4  2  1  0
  5  4  1  0
  5  6  1  6
  7  5  1  0
  7  8  2  0
 10  9  1  1
 10 12  1  0
 11 10  1  0
 12 13  1  1
 13  7  1  0
 14 12  1  0
 14 16  1  0
 15 14  2  0
 16 17  1  0
 17 18  1  0
 18 20  2  0
 18 19  1  0
M  END
$$$$
