LTG.pdb
     RDKit          3D

 20 19  0  0  1  0  0  0  0  0999 V2000
   25.2147  -12.6973  -17.5595 C   0  0  0  0  0  0  0  0  0  0  0  0
   24.0723  -12.6459  -16.5758 C   0  0  1  0  0  0  0  0  0  0  0  0
   24.5353  -12.7894  -15.1421 C   0  0  0  0  0  0  0  0  0  0  0  0
   23.3302  -11.3445  -16.7800 C   0  0  0  0  0  0  0  0  0  0  0  0
   22.0941  -11.3167  -15.9049 C   0  0  2  0  0  0  0  0  0  0  0  0
   21.1253  -12.3255  -16.2939 N   0  0  0  0  0  0  0  0  0  0  0  0
   21.4273  -10.0053  -15.9933 C   0  0  0  0  0  0  0  0  0  0  0  0
   20.9680   -9.6378  -17.0986 O   0  0  0  0  0  0  0  0  0  0  0  0
   18.2018   -8.5743  -15.5813 C   0  0  0  0  0  0  0  0  0  0  0  0
   19.1296   -7.8334  -14.6181 C   0  0  1  0  0  0  0  0  0  0  0  0
   18.8714   -8.1416  -13.3063 O   0  0  0  0  0  0  0  0  0  0  0  0
   20.5448   -7.8761  -15.0227 C   0  0  2  0  0  0  0  0  0  0  0  0
   21.2480   -9.1023  -14.9440 N   0  0  0  0  0  0  0  0  0  0  0  0
   21.2950   -6.8867  -14.2025 C   0  0  0  0  0  0  0  0  0  0  0  0
   22.1334   -7.2810  -13.3395 O   0  0  0  0  0  0  0  0  0  0  0  0
   21.1375   -5.4807  -14.3177 N   0  0  0  0  0  0  0  0  0  0  0  0
   21.8897   -4.5995  -13.4237 C   0  0  0  0  0  0  0  0  0  0  0  0
   21.6511   -3.1840  -13.7223 C   0  0  0  0  0  0  0  0  0  0  0  0
   22.2112   -2.2161  -12.9134 O   0  0  0  0  0  0  0  0  0  0  0  0
   20.9492   -2.8311  -14.6968 O   0  0  0  0  0  0  0  0  0  0  0  0
  2  1  1  6
  3  2  1  0
  4  2  1  0
  5  4  1  0
  5  6  1  6
  7  5  1  0
  7  8  2  0
 10  9  1  6
 10 12  1  0
 11 10  1  0
 12 13  1  1
 13  7  1  0
 14 12  1  0
 14 16  1  0
 15 14  2  0
 16 17  1  0
 17 18  1  0
 18 20  2  0
 18 19  1  0
M  END
$$$$
