LTG.pdb
     RDKit          3D

 20 19  0  0  1  0  0  0  0  0999 V2000
   27.3378  -19.2729   -6.9276 C   0  0  0  0  0  0  0  0  0  0  0  0
   26.7600  -20.3418   -7.8214 C   0  0  1  0  0  0  0  0  0  0  0  0
   25.3223  -20.6683   -7.4794 C   0  0  0  0  0  0  0  0  0  0  0  0
   26.8863  -19.8790   -9.2552 C   0  0  0  0  0  0  0  0  0  0  0  0
   26.4525  -20.9877  -10.1917 C   0  0  2  0  0  0  0  0  0  0  0  0
   27.5279  -21.9229  -10.4680 N   0  0  0  0  0  0  0  0  0  0  0  0
   26.0079  -20.4307  -11.4818 C   0  0  0  0  0  0  0  0  0  0  0  0
   26.7286  -19.5783  -12.0488 O   0  0  0  0  0  0  0  0  0  0  0  0
   26.3965  -21.0865  -14.7910 C   0  0  0  0  0  0  0  0  0  0  0  0
   24.8775  -21.0078  -14.6371 C   0  0  1  0  0  0  0  0  0  0  0  0
   24.2694  -22.2191  -14.8508 O   0  0  0  0  0  0  0  0  0  0  0  0
   24.4503  -20.2768  -13.4323 C   0  0  2  0  0  0  0  0  0  0  0  0
   24.8332  -20.7627  -12.1588 N   0  0  0  0  0  0  0  0  0  0  0  0
   22.9648  -20.1905  -13.4406 C   0  0  0  0  0  0  0  0  0  0  0  0
   22.2856  -20.8316  -12.5857 O   0  0  0  0  0  0  0  0  0  0  0  0
   22.2217  -19.4147  -14.3685 N   0  0  0  0  0  0  0  0  0  0  0  0
   20.7676  -19.3282  -14.2283 C   0  0  0  0  0  0  0  0  0  0  0  0
   20.0785  -20.3348  -15.0417 C   0  0  0  0  0  0  0  0  0  0  0  0
   18.8121  -20.0687  -15.5213 O   0  0  0  0  0  0  0  0  0  0  0  0
   20.6132  -21.4337  -15.3125 O   0  0  0  0  0  0  0  0  0  0  0  0
  2  1  1  1
  3  2  1  0
  4  2  1  0
  5  4  1  0
  5  6  1  6
  7  5  1  0
  7  8  2  0
 10  9  1  1
 10 12  1  0
 11 10  1  0
 12 13  1  1
 13  7  1  0
 14 12  1  0
 14 16  1  0
 15 14  2  0
 16 17  1  0
 17 18  1  0
 18 20  2  0
 18 19  1  0
M  END
$$$$
