LTG.pdb
     RDKit          3D

 20 19  0  0  1  0  0  0  0  0999 V2000
   14.3489  -13.3587  -16.1832 C   0  0  0  0  0  0  0  0  0  0  0  0
   15.7071  -13.0639  -15.5970 C   0  0  1  0  0  0  0  0  0  0  0  0
   16.7571  -14.0609  -16.0372 C   0  0  0  0  0  0  0  0  0  0  0  0
   16.0960  -11.6562  -15.9883 C   0  0  0  0  0  0  0  0  0  0  0  0
   17.4091  -11.2855  -15.3304 C   0  0  2  0  0  0  0  0  0  0  0  0
   17.3725  -11.4733  -13.8913 N   0  0  0  0  0  0  0  0  0  0  0  0
   17.7334   -9.8704  -15.5840 C   0  0  0  0  0  0  0  0  0  0  0  0
   17.8269   -9.4783  -16.7694 O   0  0  0  0  0  0  0  0  0  0  0  0
   15.8758   -6.6323  -15.3313 C   0  0  0  0  0  0  0  0  0  0  0  0
   17.1430   -6.5400  -14.4810 C   0  0  1  0  0  0  0  0  0  0  0  0
   16.8650   -6.4584  -13.1399 O   0  0  0  0  0  0  0  0  0  0  0  0
   18.1762   -7.5161  -14.8660 C   0  0  2  0  0  0  0  0  0  0  0  0
   17.9539   -8.8913  -14.6138 N   0  0  0  0  0  0  0  0  0  0  0  0
   19.4462   -7.1448  -14.1852 C   0  0  0  0  0  0  0  0  0  0  0  0
   19.8912   -7.8562  -13.2371 O   0  0  0  0  0  0  0  0  0  0  0  0
   20.2277   -6.0111  -14.5302 N   0  0  0  0  0  0  0  0  0  0  0  0
   21.4571   -5.7346  -13.7862 C   0  0  0  0  0  0  0  0  0  0  0  0
   22.1920   -4.5967  -14.3470 C   0  0  0  0  0  0  0  0  0  0  0  0
   23.3043   -4.1153  -13.6869 O   0  0  0  0  0  0  0  0  0  0  0  0
   21.8336   -4.0492  -15.4141 O   0  0  0  0  0  0  0  0  0  0  0  0
  2  1  1  6
  3  2  1  0
  4  2  1  0
  5  4  1  0
  5  6  1  1
  7  5  1  0
  7  8  2  0
 10  9  1  6
 10 12  1  0
 11 10  1  0
 12 13  1  1
 13  7  1  0
 14 12  1  0
 14 16  1  0
 15 14  2  0
 16 17  1  0
 17 18  1  0
 18 20  2  0
 18 19  1  0
M  END
$$$$
