LTG.pdb
     RDKit          3D

 20 19  0  0  1  0  0  0  0  0999 V2000
   22.4368  -14.4851  -15.8364 C   0  0  0  0  0  0  0  0  0  0  0  0
   22.6599  -13.2006  -15.0778 C   0  0  1  0  0  0  0  0  0  0  0  0
   24.0257  -13.1407  -14.4287 C   0  0  0  0  0  0  0  0  0  0  0  0
   22.4609  -12.0459  -16.0334 C   0  0  0  0  0  0  0  0  0  0  0  0
   20.9852  -11.7241  -16.1481 C   0  0  2  0  0  0  0  0  0  0  0  0
   20.3479  -12.4550  -17.2285 N   0  0  0  0  0  0  0  0  0  0  0  0
   20.7880  -10.2870  -16.4092 C   0  0  0  0  0  0  0  0  0  0  0  0
   20.9184   -9.8656  -17.5809 O   0  0  0  0  0  0  0  0  0  0  0  0
   18.1523   -8.0216  -17.1710 C   0  0  0  0  0  0  0  0  0  0  0  0
   18.8121   -7.5015  -15.8938 C   0  0  1  0  0  0  0  0  0  0  0  0
   18.0037   -7.6456  -14.7946 O   0  0  0  0  0  0  0  0  0  0  0  0
   20.2049   -7.9513  -15.7320 C   0  0  2  0  0  0  0  0  0  0  0  0
   20.4614   -9.3168  -15.4602 N   0  0  0  0  0  0  0  0  0  0  0  0
   20.8262   -7.1613  -14.6347 C   0  0  0  0  0  0  0  0  0  0  0  0
   21.1672   -7.7297  -13.5558 O   0  0  0  0  0  0  0  0  0  0  0  0
   21.0763   -5.7658  -14.7069 N   0  0  0  0  0  0  0  0  0  0  0  0
   21.5810   -5.0659  -13.5250 C   0  0  0  0  0  0  0  0  0  0  0  0
   21.9250   -3.6715  -13.8201 C   0  0  0  0  0  0  0  0  0  0  0  0
   21.8472   -3.2138  -15.1197 O   0  0  0  0  0  0  0  0  0  0  0  0
   22.2888   -2.8834  -12.9182 O   0  0  0  0  0  0  0  0  0  0  0  0
  2  1  1  6
  3  2  1  0
  4  2  1  0
  5  4  1  0
  5  6  1  6
  7  5  1  0
  7  8  2  0
 10  9  1  6
 10 12  1  0
 11 10  1  0
 12 13  1  1
 13  7  1  0
 14 12  1  0
 14 16  1  0
 15 14  2  0
 16 17  1  0
 17 18  1  0
 18 20  2  0
 18 19  1  0
M  END
$$$$
