LTG.pdb
     RDKit          3D

 20 19  0  0  1  0  0  0  0  0999 V2000
   18.1789  -13.0151  -15.4948 C   0  0  0  0  0  0  0  0  0  0  0  0
   19.3390  -12.3474  -16.1903 C   0  0  1  0  0  0  0  0  0  0  0  0
   18.9914  -11.8945  -17.5919 C   0  0  0  0  0  0  0  0  0  0  0  0
   19.7941  -11.1831  -15.3398 C   0  0  0  0  0  0  0  0  0  0  0  0
   20.9112  -10.4404  -16.0433 C   0  0  2  0  0  0  0  0  0  0  0  0
   22.2131  -11.0200  -15.7667 N   0  0  0  0  0  0  0  0  0  0  0  0
   20.9514   -9.0331  -15.6071 C   0  0  0  0  0  0  0  0  0  0  0  0
   21.3342   -8.7754  -14.4433 O   0  0  0  0  0  0  0  0  0  0  0  0
   23.2338   -6.2323  -16.2723 C   0  0  0  0  0  0  0  0  0  0  0  0
   21.8227   -5.7710  -16.6374 C   0  0  1  0  0  0  0  0  0  0  0  0
   21.6787   -5.5531  -17.9843 O   0  0  0  0  0  0  0  0  0  0  0  0
   20.7641   -6.5701  -15.9978 C   0  0  2  0  0  0  0  0  0  0  0  0
   20.5975   -7.9239  -16.3771 N   0  0  0  0  0  0  0  0  0  0  0  0
   19.4617   -5.8872  -16.2253 C   0  0  0  0  0  0  0  0  0  0  0  0
   18.6176   -6.3792  -17.0307 O   0  0  0  0  0  0  0  0  0  0  0  0
   19.0775   -4.6805  -15.5840 N   0  0  0  0  0  0  0  0  0  0  0  0
   17.8246   -4.0306  -15.9707 C   0  0  0  0  0  0  0  0  0  0  0  0
   17.6107   -2.7768  -15.2416 C   0  0  0  0  0  0  0  0  0  0  0  0
   16.5243   -1.9858  -15.5560 O   0  0  0  0  0  0  0  0  0  0  0  0
   18.3926   -2.4050  -14.3376 O   0  0  0  0  0  0  0  0  0  0  0  0
  2  1  1  1
  3  2  1  0
  4  2  1  0
  5  4  1  0
  5  6  1  1
  7  5  1  0
  7  8  2  0
 10  9  1  6
 10 12  1  0
 11 10  1  0
 12 13  1  6
 13  7  1  0
 14 12  1  0
 14 16  1  0
 15 14  2  0
 16 17  1  0
 17 18  1  0
 18 20  2  0
 18 19  1  0
M  END
$$$$
