LTG.pdb
     RDKit          3D

 20 19  0  0  1  0  0  0  0  0999 V2000
   26.5220  -19.8154   -9.7306 C   0  0  0  0  0  0  0  0  0  0  0  0
   25.6213  -20.8947  -10.2778 C   0  0  1  0  0  0  0  0  0  0  0  0
   24.2200  -20.8226   -9.7107 C   0  0  0  0  0  0  0  0  0  0  0  0
   25.6045  -20.7779  -11.7852 C   0  0  0  0  0  0  0  0  0  0  0  0
   24.7542  -21.8838  -12.3755 C   0  0  2  0  0  0  0  0  0  0  0  0
   25.3780  -23.1873  -12.2366 N   0  0  0  0  0  0  0  0  0  0  0  0
   24.5292  -21.6517  -13.8134 C   0  0  0  0  0  0  0  0  0  0  0  0
   25.4560  -21.9067  -14.6157 O   0  0  0  0  0  0  0  0  0  0  0  0
   22.5381  -23.4236  -16.5071 C   0  0  0  0  0  0  0  0  0  0  0  0
   22.0734  -21.9738  -16.3675 C   0  0  1  0  0  0  0  0  0  0  0  0
   20.8161  -21.8802  -15.8263 O   0  0  0  0  0  0  0  0  0  0  0  0
   23.0938  -21.0880  -15.7822 C   0  0  2  0  0  0  0  0  0  0  0  0
   23.3572  -21.1629  -14.3932 N   0  0  0  0  0  0  0  0  0  0  0  0
   22.7174  -19.6800  -16.0822 C   0  0  0  0  0  0  0  0  0  0  0  0
   22.4939  -18.8663  -15.1381 O   0  0  0  0  0  0  0  0  0  0  0  0
   22.5847  -19.1582  -17.3956 N   0  0  0  0  0  0  0  0  0  0  0  0
   22.1367  -17.7769  -17.5764 C   0  0  0  0  0  0  0  0  0  0  0  0
   23.2570  -16.8682  -17.8389 C   0  0  0  0  0  0  0  0  0  0  0  0
   23.0009  -15.5514  -18.1636 O   0  0  0  0  0  0  0  0  0  0  0  0
   24.4443  -17.2593  -17.7755 O   0  0  0  0  0  0  0  0  0  0  0  0
  2  1  1  1
  3  2  1  0
  4  2  1  0
  5  4  1  0
  5  6  1  6
  7  5  1  0
  7  8  2  0
 10  9  1  1
 10 12  1  0
 11 10  1  0
 12 13  1  1
 13  7  1  0
 14 12  1  0
 14 16  1  0
 15 14  2  0
 16 17  1  0
 17 18  1  0
 18 20  2  0
 18 19  1  0
M  END
$$$$
