FMN.pdb
     RDKit          3D

 28 28  0  0  1  0  0  0  0  0999 V2000
   28.5569  -21.1700   -9.0516 N   0  0  0  0  0  0  0  0  0  0  0  0
   27.2648  -20.5446   -9.1973 C   0  0  1  0  0  0  0  0  0  0  0  0
   27.1658  -19.3829   -8.2547 C   0  0  0  0  0  0  0  0  0  0  0  0
   27.4953  -19.8317   -6.8912 C   0  0  0  0  0  0  0  0  0  0  0  0
   26.5921  -20.5077   -6.0946 C   0  0  0  0  0  0  0  0  0  0  0  0
   26.9311  -20.9209   -4.8083 C   0  0  0  0  0  0  0  0  0  0  0  0
   28.1874  -20.6612   -4.2980 C   0  0  0  0  0  0  0  0  0  0  0  0
   29.0810  -19.9956   -5.0784 C   0  0  0  0  0  0  0  0  0  0  0  0
   28.7441  -19.5880   -6.3495 C   0  0  0  0  0  0  0  0  0  0  0  0
   27.0541  -20.2101  -10.6057 C   0  0  0  0  0  0  0  0  0  0  0  0
   27.7177  -19.2399  -11.0857 O   0  0  0  0  0  0  0  0  0  0  0  0
   28.4514  -22.5983  -15.6193 C   0  0  0  0  0  0  0  0  0  0  0  0
   27.8919  -21.0085  -16.2851 S   0  0  0  0  0  0  0  0  0  0  0  0
   26.6444  -20.3280  -15.1495 C   0  0  0  0  0  0  0  0  0  0  0  0
   26.9623  -20.8559  -13.7667 C   0  0  0  0  0  0  0  0  0  0  0  0
   25.9109  -20.3694  -12.8094 C   0  0  2  0  0  0  0  0  0  0  0  0
   26.1759  -20.8718  -11.4809 N   0  0  0  0  0  0  0  0  0  0  0  0
   24.5320  -20.6628  -13.2537 C   0  0  0  0  0  0  0  0  0  0  0  0
   24.1608  -20.1850  -14.3571 O   0  0  0  0  0  0  0  0  0  0  0  0
   20.3107  -24.8451  -13.4234 N   0  0  0  0  0  0  0  0  0  0  0  0
   20.7431  -23.5025  -13.5049 C   0  0  0  0  0  0  0  0  0  0  0  0
   20.1582  -22.6497  -14.2018 O   0  0  0  0  0  0  0  0  0  0  0  0
   21.9416  -23.1410  -12.7146 C   0  0  0  0  0  0  0  0  0  0  0  0
   22.2468  -21.6917  -12.9127 C   0  0  2  0  0  0  0  0  0  0  0  0
   23.6287  -21.4434  -12.5055 N   0  0  0  0  0  0  0  0  0  0  0  0
   21.4020  -20.7782  -12.1117 C   0  0  0  0  0  0  0  0  0  0  0  0
   20.9633  -19.6755  -12.5901 O   0  0  0  0  0  0  0  0  0  0  0  0
   21.0115  -21.0224  -10.7955 O   0  0  0  0  0  0  0  0  0  0  0  0
  2  3  1  0
  2  1  1  6
  4  3  1  0
  5  4  2  0
  6  5  1  0
  7  8  1  0
  7  6  2  0
  8  9  2  0
  9  4  1  0
 10 11  2  0
 10  2  1  0
 13 12  1  0
 14 13  1  0
 15 14  1  0
 16 15  1  6
 16 17  1  0
 17 10  1  0
 18 25  1  0
 18 16  1  0
 19 18  2  0
 20 21  1  0
 21 22  2  0
 23 21  1  0
 24 23  1  1
 24 25  1  0
 26 24  1  0
 26 28  1  0
 27 26  2  0
M  END
$$$$
