FMN.pdb
     RDKit          3D

 28 28  0  0  1  0  0  0  0  0999 V2000
   20.6456  -14.1187  -17.0127 N   0  0  0  0  0  0  0  0  0  0  0  0
   21.3139  -13.1283  -17.8217 C   0  0  1  0  0  0  0  0  0  0  0  0
   20.3096  -12.4431  -18.6990 C   0  0  0  0  0  0  0  0  0  0  0  0
   19.8889  -13.3632  -19.7694 C   0  0  0  0  0  0  0  0  0  0  0  0
   18.6373  -13.9464  -19.7965 C   0  0  0  0  0  0  0  0  0  0  0  0
   18.2661  -14.8130  -20.8219 C   0  0  0  0  0  0  0  0  0  0  0  0
   19.1486  -15.1099  -21.8413 C   0  0  0  0  0  0  0  0  0  0  0  0
   20.3828  -14.5382  -21.8195 C   0  0  0  0  0  0  0  0  0  0  0  0
   20.7479  -13.6819  -20.8052 C   0  0  0  0  0  0  0  0  0  0  0  0
   22.0744  -12.2347  -16.9480 C   0  0  0  0  0  0  0  0  0  0  0  0
   21.5431  -11.8971  -15.8454 O   0  0  0  0  0  0  0  0  0  0  0  0
   28.4283  -11.0758  -15.4630 C   0  0  0  0  0  0  0  0  0  0  0  0
   27.5348  -12.6383  -15.6727 S   0  0  0  0  0  0  0  0  0  0  0  0
   25.7543  -12.2947  -15.5285 C   0  0  0  0  0  0  0  0  0  0  0  0
   25.4788  -11.0256  -16.3066 C   0  0  0  0  0  0  0  0  0  0  0  0
   23.9958  -10.7822  -16.3261 C   0  0  2  0  0  0  0  0  0  0  0  0
   23.3500  -11.7128  -17.2230 N   0  0  0  0  0  0  0  0  0  0  0  0
   23.6355   -9.3794  -16.6209 C   0  0  0  0  0  0  0  0  0  0  0  0
   23.5439   -9.0426  -17.8300 O   0  0  0  0  0  0  0  0  0  0  0  0
   22.0779   -4.6072  -16.2367 N   0  0  0  0  0  0  0  0  0  0  0  0
   21.7870   -5.1404  -14.9610 C   0  0  0  0  0  0  0  0  0  0  0  0
   21.1206   -4.5193  -14.1096 O   0  0  0  0  0  0  0  0  0  0  0  0
   22.3151   -6.4924  -14.6695 C   0  0  0  0  0  0  0  0  0  0  0  0
   22.9445   -7.0547  -15.9025 C   0  0  2  0  0  0  0  0  0  0  0  0
   23.3934   -8.4172  -15.6205 N   0  0  0  0  0  0  0  0  0  0  0  0
   24.1335   -6.3091  -16.3717 C   0  0  0  0  0  0  0  0  0  0  0  0
   25.2915   -6.5010  -15.8623 O   0  0  0  0  0  0  0  0  0  0  0  0
   24.1099   -5.3528  -17.3862 O   0  0  0  0  0  0  0  0  0  0  0  0
  2  3  1  0
  2  1  1  1
  4  3  1  0
  5  4  2  0
  6  5  1  0
  7  8  1  0
  7  6  2  0
  8  9  2  0
  9  4  1  0
 10 11  2  0
 10  2  1  0
 13 12  1  0
 14 13  1  0
 15 14  1  0
 16 15  1  6
 16 17  1  0
 17 10  1  0
 18 25  1  0
 18 16  1  0
 19 18  2  0
 20 21  1  0
 21 22  2  0
 23 21  1  0
 24 23  1  1
 24 25  1  0
 26 24  1  0
 26 28  1  0
 27 26  2  0
M  END
$$$$
