FMN.pdb
     RDKit          3D

 28 28  0  0  1  0  0  0  0  0999 V2000
   21.6368   -6.4143   -9.9945 N   0  0  0  0  0  0  0  0  0  0  0  0
   20.3962   -6.5677  -10.7151 C   0  0  1  0  0  0  0  0  0  0  0  0
   20.2291   -8.0023  -11.1173 C   0  0  0  0  0  0  0  0  0  0  0  0
   21.1823   -8.3211  -12.1939 C   0  0  0  0  0  0  0  0  0  0  0  0
   21.0691   -7.7928  -13.4649 C   0  0  0  0  0  0  0  0  0  0  0  0
   21.9858   -8.1116  -14.4641 C   0  0  0  0  0  0  0  0  0  0  0  0
   23.0355   -8.9695  -14.2031 C   0  0  0  0  0  0  0  0  0  0  0  0
   23.1517   -9.4929  -12.9529 C   0  0  0  0  0  0  0  0  0  0  0  0
   22.2448   -9.1766  -11.9666 C   0  0  0  0  0  0  0  0  0  0  0  0
   19.3049   -6.0281   -9.9039 C   0  0  0  0  0  0  0  0  0  0  0  0
   19.3847   -6.1651   -8.6442 O   0  0  0  0  0  0  0  0  0  0  0  0
   16.8271   -0.4830   -9.8784 C   0  0  0  0  0  0  0  0  0  0  0  0
   15.2912   -1.2845   -9.3471 S   0  0  0  0  0  0  0  0  0  0  0  0
   15.6740   -3.0099   -8.9164 C   0  0  0  0  0  0  0  0  0  0  0  0
   16.7976   -3.4597   -9.8259 C   0  0  0  0  0  0  0  0  0  0  0  0
   17.1247   -4.8939   -9.5180 C   0  0  2  0  0  0  0  0  0  0  0  0
   18.1677   -5.3671  -10.3988 N   0  0  0  0  0  0  0  0  0  0  0  0
   15.9417   -5.7800   -9.5250 C   0  0  0  0  0  0  0  0  0  0  0  0
   15.0045   -5.5076   -8.7307 O   0  0  0  0  0  0  0  0  0  0  0  0
   12.2653   -9.2404   -8.1523 N   0  0  0  0  0  0  0  0  0  0  0  0
   13.0577   -9.1399   -9.3177 C   0  0  0  0  0  0  0  0  0  0  0  0
   12.7346   -9.6733  -10.3975 O   0  0  0  0  0  0  0  0  0  0  0  0
   14.3114   -8.3608   -9.2040 C   0  0  0  0  0  0  0  0  0  0  0  0
   14.5920   -7.6814  -10.5049 C   0  0  2  0  0  0  0  0  0  0  0  0
   15.8205   -6.9003  -10.3708 N   0  0  0  0  0  0  0  0  0  0  0  0
   13.5382   -6.7366  -10.9365 C   0  0  0  0  0  0  0  0  0  0  0  0
   13.0629   -5.8518  -10.1437 O   0  0  0  0  0  0  0  0  0  0  0  0
   12.9765   -6.7172  -12.2126 O   0  0  0  0  0  0  0  0  0  0  0  0
  2  3  1  0
  2  1  1  1
  4  3  1  0
  5  4  2  0
  6  5  1  0
  7  8  1  0
  7  6  2  0
  8  9  2  0
  9  4  1  0
 10 11  2  0
 10  2  1  0
 13 12  1  0
 14 13  1  0
 15 14  1  0
 16 15  1  6
 16 17  1  0
 17 10  1  0
 18 25  1  0
 18 16  1  0
 19 18  2  0
 20 21  1  0
 21 22  2  0
 23 21  1  0
 24 23  1  1
 24 25  1  0
 26 24  1  0
 26 28  1  0
 27 26  2  0
M  END
$$$$
