FMN.pdb
     RDKit          3D

 28 28  0  0  1  0  0  0  0  0999 V2000
   23.7863  -11.5259  -15.1416 N   0  0  0  0  0  0  0  0  0  0  0  0
   22.7027  -11.0265  -15.9529 C   0  0  1  0  0  0  0  0  0  0  0  0
   21.3982  -11.5028  -15.3878 C   0  0  0  0  0  0  0  0  0  0  0  0
   21.2588  -12.9481  -15.6341 C   0  0  0  0  0  0  0  0  0  0  0  0
   21.0544  -13.4687  -16.8969 C   0  0  0  0  0  0  0  0  0  0  0  0
   20.9263  -14.8407  -17.1007 C   0  0  0  0  0  0  0  0  0  0  0  0
   21.0015  -15.7165  -16.0360 C   0  0  0  0  0  0  0  0  0  0  0  0
   21.2026  -15.2091  -14.7900 C   0  0  0  0  0  0  0  0  0  0  0  0
   21.3290  -13.8528  -14.5905 C   0  0  0  0  0  0  0  0  0  0  0  0
   22.8257   -9.5734  -16.0687 C   0  0  0  0  0  0  0  0  0  0  0  0
   23.1623   -8.9266  -15.0294 O   0  0  0  0  0  0  0  0  0  0  0  0
   25.5970   -4.9246  -20.4601 C   0  0  0  0  0  0  0  0  0  0  0  0
   23.7937   -4.9049  -20.2816 S   0  0  0  0  0  0  0  0  0  0  0  0
   23.3879   -5.4301  -18.5879 C   0  0  0  0  0  0  0  0  0  0  0  0
   23.1393   -6.9228  -18.6295 C   0  0  0  0  0  0  0  0  0  0  0  0
   22.7516   -7.3873  -17.2538 C   0  0  2  0  0  0  0  0  0  0  0  0
   22.6025   -8.8244  -17.2368 N   0  0  0  0  0  0  0  0  0  0  0  0
   21.5623   -6.6951  -16.7143 C   0  0  0  0  0  0  0  0  0  0  0  0
   21.6596   -5.4616  -16.4850 O   0  0  0  0  0  0  0  0  0  0  0  0
   17.0136   -5.6404  -14.8313 N   0  0  0  0  0  0  0  0  0  0  0  0
   17.3821   -6.8807  -14.2637 C   0  0  0  0  0  0  0  0  0  0  0  0
   16.7610   -7.3950  -13.3126 O   0  0  0  0  0  0  0  0  0  0  0  0
   18.5580   -7.5589  -14.8545 C   0  0  0  0  0  0  0  0  0  0  0  0
   19.1706   -6.6745  -15.8914 C   0  0  2  0  0  0  0  0  0  0  0  0
   20.3420   -7.3479  -16.4497 N   0  0  0  0  0  0  0  0  0  0  0  0
   19.6418   -5.3701  -15.3757 C   0  0  0  0  0  0  0  0  0  0  0  0
   20.7257   -4.8338  -15.7937 O   0  0  0  0  0  0  0  0  0  0  0  0
   18.9701   -4.6183  -14.4123 O   0  0  0  0  0  0  0  0  0  0  0  0
  2  3  1  0
  2  1  1  1
  4  3  1  0
  5  4  2  0
  6  5  1  0
  7  8  1  0
  7  6  2  0
  8  9  2  0
  9  4  1  0
 10 11  2  0
 10  2  1  0
 13 12  1  0
 14 13  1  0
 15 14  1  0
 16 15  1  6
 16 17  1  0
 17 10  1  0
 18 25  1  0
 18 16  1  0
 19 18  2  0
 20 21  1  0
 21 22  2  0
 23 21  1  0
 24 23  1  1
 24 25  1  0
 26 24  1  0
 26 28  1  0
 27 26  2  0
M  END
$$$$
