FMN.pdb
     RDKit          3D

 28 28  0  0  1  0  0  0  0  0999 V2000
   20.8227  -13.2333  -18.2567 N   0  0  0  0  0  0  0  0  0  0  0  0
   20.9627  -11.8272  -17.9647 C   0  0  1  0  0  0  0  0  0  0  0  0
   19.7089  -11.1092  -18.3650 C   0  0  0  0  0  0  0  0  0  0  0  0
   19.4464  -11.3462  -19.7947 C   0  0  0  0  0  0  0  0  0  0  0  0
   19.6791  -10.3867  -20.7604 C   0  0  0  0  0  0  0  0  0  0  0  0
   19.4220  -10.6386  -22.1060 C   0  0  0  0  0  0  0  0  0  0  0  0
   18.9248  -11.8628  -22.5064 C   0  0  0  0  0  0  0  0  0  0  0  0
   18.6937  -12.8116  -21.5593 C   0  0  0  0  0  0  0  0  0  0  0  0
   18.9485  -12.5608  -20.2298 C   0  0  0  0  0  0  0  0  0  0  0  0
   21.3375  -11.6680  -16.5596 C   0  0  0  0  0  0  0  0  0  0  0  0
   21.5336  -12.7222  -15.8799 O   0  0  0  0  0  0  0  0  0  0  0  0
   27.0179  -10.3816  -16.9504 C   0  0  0  0  0  0  0  0  0  0  0  0
   26.4165   -9.4912  -15.4912 S   0  0  0  0  0  0  0  0  0  0  0  0
   25.0543  -10.4531  -14.7641 C   0  0  0  0  0  0  0  0  0  0  0  0
   23.9144  -10.4385  -15.7602 C   0  0  0  0  0  0  0  0  0  0  0  0
   22.6281  -10.2008  -15.0202 C   0  0  2  0  0  0  0  0  0  0  0  0
   21.5006  -10.4429  -15.8906 N   0  0  0  0  0  0  0  0  0  0  0  0
   22.5603   -8.8736  -14.3729 C   0  0  0  0  0  0  0  0  0  0  0  0
   23.5212   -8.5354  -13.6341 O   0  0  0  0  0  0  0  0  0  0  0  0
   22.8648   -4.3168  -14.7720 N   0  0  0  0  0  0  0  0  0  0  0  0
   23.5242   -5.2164  -15.6392 C   0  0  0  0  0  0  0  0  0  0  0  0
   24.6004   -4.9378  -16.2040 O   0  0  0  0  0  0  0  0  0  0  0  0
   22.8741   -6.5288  -15.8551 C   0  0  0  0  0  0  0  0  0  0  0  0
   21.6357   -6.6109  -15.0229 C   0  0  2  0  0  0  0  0  0  0  0  0
   21.4814   -7.9840  -14.5455 N   0  0  0  0  0  0  0  0  0  0  0  0
   20.3915   -6.2767  -15.7508 C   0  0  0  0  0  0  0  0  0  0  0  0
   20.1216   -6.7897  -16.8915 O   0  0  0  0  0  0  0  0  0  0  0  0
   19.4186   -5.3964  -15.2787 O   0  0  0  0  0  0  0  0  0  0  0  0
  2  3  1  0
  2  1  1  1
  4  3  1  0
  5  4  2  0
  6  5  1  0
  7  8  1  0
  7  6  2  0
  8  9  2  0
  9  4  1  0
 10 11  2  0
 10  2  1  0
 13 12  1  0
 14 13  1  0
 15 14  1  0
 16 15  1  6
 16 17  1  0
 17 10  1  0
 18 25  1  0
 18 16  1  0
 19 18  2  0
 20 21  1  0
 21 22  2  0
 23 21  1  0
 24 23  1  6
 24 25  1  0
 26 24  1  0
 26 28  1  0
 27 26  2  0
M  END
$$$$
