FMN.pdb
     RDKit          3D

 28 28  0  0  1  0  0  0  0  0999 V2000
   24.5534  -19.9679  -10.7502 N   0  0  0  0  0  0  0  0  0  0  0  0
   25.9158  -20.1039  -11.2056 C   0  0  1  0  0  0  0  0  0  0  0  0
   26.5392  -21.3034  -10.5572 C   0  0  0  0  0  0  0  0  0  0  0  0
   26.9269  -20.9655   -9.1772 C   0  0  0  0  0  0  0  0  0  0  0  0
   26.0010  -20.8038   -8.1653 C   0  0  0  0  0  0  0  0  0  0  0  0
   26.3964  -20.4844   -6.8684 C   0  0  0  0  0  0  0  0  0  0  0  0
   27.7332  -20.3212   -6.5644 C   0  0  0  0  0  0  0  0  0  0  0  0
   28.6495  -20.4792   -7.5573 C   0  0  0  0  0  0  0  0  0  0  0  0
   28.2568  -20.7949   -8.8385 C   0  0  0  0  0  0  0  0  0  0  0  0
   25.9289  -20.1224  -12.6683 C   0  0  0  0  0  0  0  0  0  0  0  0
   24.8882  -20.5439  -13.2609 O   0  0  0  0  0  0  0  0  0  0  0  0
   27.7447  -14.9630  -17.2098 C   0  0  0  0  0  0  0  0  0  0  0  0
   28.5582  -16.4706  -16.6189 S   0  0  0  0  0  0  0  0  0  0  0  0
   27.3034  -17.5094  -15.8092 C   0  0  0  0  0  0  0  0  0  0  0  0
   27.9443  -18.8531  -15.5341 C   0  0  0  0  0  0  0  0  0  0  0  0
   26.9162  -19.7635  -14.9233 C   0  0  2  0  0  0  0  0  0  0  0  0
   26.9991  -19.7124  -13.4817 N   0  0  0  0  0  0  0  0  0  0  0  0
   26.9783  -21.1475  -15.4385 C   0  0  0  0  0  0  0  0  0  0  0  0
   27.8750  -21.9012  -14.9787 O   0  0  0  0  0  0  0  0  0  0  0  0
   25.0307  -25.5523  -14.4554 N   0  0  0  0  0  0  0  0  0  0  0  0
   25.6917  -25.0128  -15.5816 C   0  0  0  0  0  0  0  0  0  0  0  0
   26.7424  -25.5019  -16.0417 O   0  0  0  0  0  0  0  0  0  0  0  0
   25.0753  -23.8205  -16.2061 C   0  0  0  0  0  0  0  0  0  0  0  0
   26.1305  -23.0260  -16.9047 C   0  0  2  0  0  0  0  0  0  0  0  0
   26.0889  -21.6517  -16.4081 N   0  0  0  0  0  0  0  0  0  0  0  0
   25.9598  -22.9478  -18.3725 C   0  0  0  0  0  0  0  0  0  0  0  0
   25.4528  -21.9171  -18.9363 O   0  0  0  0  0  0  0  0  0  0  0  0
   26.3249  -23.9595  -19.2599 O   0  0  0  0  0  0  0  0  0  0  0  0
  2  3  1  0
  2  1  1  6
  4  3  1  0
  5  4  2  0
  6  5  1  0
  7  8  1  0
  7  6  2  0
  8  9  2  0
  9  4  1  0
 10 11  2  0
 10  2  1  0
 13 12  1  0
 14 13  1  0
 15 14  1  0
 16 15  1  6
 16 17  1  0
 17 10  1  0
 18 25  1  0
 18 16  1  0
 19 18  2  0
 20 21  1  0
 21 22  2  0
 23 21  1  0
 24 23  1  1
 24 25  1  0
 26 24  1  0
 26 28  1  0
 27 26  2  0
M  END
$$$$
