PVC.pdb
     RDKit          3D

 21 21  0  0  1  0  0  0  0  0999 V2000
   25.2126  -19.6826  -17.7501 N   0  0  0  0  0  0  0  0  0  0  0  0
   23.8548  -19.2457  -17.9488 C   0  0  0  0  0  0  0  0  0  0  0  0
   23.7088  -17.9235  -17.2475 C   0  0  0  0  0  0  0  0  0  0  0  0
   24.8205  -17.8760  -16.2384 C   0  0  0  0  0  0  0  0  0  0  0  0
   25.7590  -18.9535  -16.6462 C   0  0  1  0  0  0  0  0  0  0  0  0
   26.0954  -19.8999  -15.5460 C   0  0  0  0  0  0  0  0  0  0  0  0
   25.5359  -21.0000  -15.4680 O   0  0  0  0  0  0  0  0  0  0  0  0
   29.2145  -21.3675  -12.0186 C   0  0  0  0  0  0  0  0  0  0  0  0
   28.8243  -20.5419  -13.2089 C   0  0  2  0  0  0  0  0  0  0  0  0
   29.5917  -19.2545  -13.2340 C   0  0  0  0  0  0  0  0  0  0  0  0
   27.3630  -20.4191  -13.4002 C   0  0  2  0  0  0  0  0  0  0  0  0
   27.0634  -19.5600  -14.5660 N   0  0  0  0  0  0  0  0  0  0  0  0
   26.5344  -20.0360  -12.2576 C   0  0  0  0  0  0  0  0  0  0  0  0
   26.2700  -18.7892  -12.0153 O   0  0  0  0  0  0  0  0  0  0  0  0
   25.9297  -20.8834  -11.3053 N   0  0  0  0  0  0  0  0  0  0  0  0
   25.2006  -20.3857  -10.1219 C   0  0  1  0  0  0  0  0  0  0  0  0
   24.0050  -21.3002   -9.9673 C   0  0  0  0  0  0  0  0  0  0  0  0
   22.7399  -20.4120   -9.0235 S   0  0  0  0  0  0  0  0  0  0  0  0
   26.0393  -20.4348   -8.9267 C   0  0  0  0  0  0  0  0  0  0  0  0
   27.0055  -21.2322   -8.8464 O   0  0  0  0  0  0  0  0  0  0  0  0
   25.7810  -19.6017   -7.8633 O   0  0  0  0  0  0  0  0  0  0  0  0
  2  3  1  0
  2  1  1  0
  4  3  1  0
  4  5  1  0
  5  1  1  0
  5  6  1  1
  7  6  2  0
  9  8  1  1
  9 11  1  0
 10  9  1  0
 11 13  1  0
 11 12  1  6
 12  6  1  0
 13 15  1  0
 14 13  2  0
 15 16  1  0
 16 17  1  1
 17 18  1  0
 19 16  1  0
 20 19  2  0
 21 19  1  0
M  END
$$$$
