PVC.pdb
     RDKit          3D

 21 21  0  0  1  0  0  0  0  0999 V2000
   19.3603  -11.0193  -17.7098 N   0  0  0  0  0  0  0  0  0  0  0  0
   19.0760  -10.8752  -19.1143 C   0  0  0  0  0  0  0  0  0  0  0  0
   20.1645  -10.0188  -19.7000 C   0  0  0  0  0  0  0  0  0  0  0  0
   20.7584   -9.2707  -18.5406 C   0  0  0  0  0  0  0  0  0  0  0  0
   20.2734   -9.9843  -17.3309 C   0  0  1  0  0  0  0  0  0  0  0  0
   19.6222   -9.0911  -16.3322 C   0  0  0  0  0  0  0  0  0  0  0  0
   18.3933   -9.0915  -16.1932 O   0  0  0  0  0  0  0  0  0  0  0  0
   19.7539   -6.7909  -12.0679 C   0  0  0  0  0  0  0  0  0  0  0  0
   20.3529   -7.6185  -13.1666 C   0  0  2  0  0  0  0  0  0  0  0  0
   21.8488   -7.6240  -13.0689 C   0  0  0  0  0  0  0  0  0  0  0  0
   19.8007   -7.3256  -14.5068 C   0  0  2  0  0  0  0  0  0  0  0  0
   20.3965   -8.2228  -15.5202 N   0  0  0  0  0  0  0  0  0  0  0  0
   19.8073   -5.9427  -14.9827 C   0  0  0  0  0  0  0  0  0  0  0  0
   20.9060   -5.3822  -15.3850 O   0  0  0  0  0  0  0  0  0  0  0  0
   18.7136   -5.0567  -15.0804 N   0  0  0  0  0  0  0  0  0  0  0  0
   18.8293   -3.6766  -15.5918 C   0  0  1  0  0  0  0  0  0  0  0  0
   17.5152   -3.3887  -16.2845 C   0  0  0  0  0  0  0  0  0  0  0  0
   17.3725   -4.5085  -17.7007 S   0  0  0  0  0  0  0  0  0  0  0  0
   19.0516   -2.7278  -14.5033 C   0  0  0  0  0  0  0  0  0  0  0  0
   19.3828   -1.5398  -14.7378 O   0  0  0  0  0  0  0  0  0  0  0  0
   18.9001   -3.1248  -13.1953 O   0  0  0  0  0  0  0  0  0  0  0  0
  2  3  1  0
  2  1  1  0
  4  3  1  0
  4  5  1  0
  5  1  1  0
  5  6  1  1
  7  6  2  0
  9  8  1  1
  9 11  1  0
 10  9  1  0
 11 13  1  0
 11 12  1  6
 12  6  1  0
 13 15  1  0
 14 13  2  0
 15 16  1  0
 16 17  1  1
 17 18  1  0
 19 16  1  0
 20 19  2  0
 21 19  1  0
M  END
$$$$
