PVC.pdb
     RDKit          3D

 21 21  0  0  1  0  0  0  0  0999 V2000
   15.2703  -26.0654   -1.5036 N   0  0  0  0  0  0  0  0  0  0  0  0
   14.8381  -27.4388   -1.4747 C   0  0  0  0  0  0  0  0  0  0  0  0
   13.3520  -27.4298   -1.2450 C   0  0  0  0  0  0  0  0  0  0  0  0
   13.0447  -26.0904   -0.6383 C   0  0  0  0  0  0  0  0  0  0  0  0
   14.2538  -25.2647   -0.8918 C   0  0  1  0  0  0  0  0  0  0  0  0
   14.8030  -24.6190    0.3332 C   0  0  0  0  0  0  0  0  0  0  0  0
   15.6603  -25.1910    1.0167 O   0  0  0  0  0  0  0  0  0  0  0  0
   14.0497  -20.3920    1.1727 C   0  0  0  0  0  0  0  0  0  0  0  0
   15.2501  -21.2183    1.5293 C   0  0  2  0  0  0  0  0  0  0  0  0
   16.3311  -21.0501    0.5045 C   0  0  0  0  0  0  0  0  0  0  0  0
   14.9292  -22.6142    1.8971 C   0  0  2  0  0  0  0  0  0  0  0  0
   14.3553  -23.3359    0.7410 N   0  0  0  0  0  0  0  0  0  0  0  0
   14.1317  -22.8588    3.0984 C   0  0  0  0  0  0  0  0  0  0  0  0
   12.8495  -23.0409    3.0206 O   0  0  0  0  0  0  0  0  0  0  0  0
   14.5808  -22.9349    4.4337 N   0  0  0  0  0  0  0  0  0  0  0  0
   13.6789  -23.1466    5.5834 C   0  0  1  0  0  0  0  0  0  0  0  0
   14.2911  -24.2806    6.3764 C   0  0  0  0  0  0  0  0  0  0  0  0
   14.2419  -25.7715    5.3494 S   0  0  0  0  0  0  0  0  0  0  0  0
   13.5810  -21.9428    6.4054 C   0  0  0  0  0  0  0  0  0  0  0  0
   14.2626  -20.9220    6.1420 O   0  0  0  0  0  0  0  0  0  0  0  0
   12.7342  -21.9095    7.4886 O   0  0  0  0  0  0  0  0  0  0  0  0
  2  3  1  0
  2  1  1  0
  4  3  1  0
  4  5  1  0
  5  1  1  0
  5  6  1  1
  7  6  2  0
  9  8  1  6
  9 11  1  0
 10  9  1  0
 11 13  1  0
 11 12  1  6
 12  6  1  0
 13 15  1  0
 14 13  2  0
 15 16  1  0
 16 17  1  1
 17 18  1  0
 19 16  1  0
 20 19  2  0
 21 19  1  0
M  END
$$$$
