PVC.pdb
     RDKit          3D

 21 21  0  0  1  0  0  0  0  0999 V2000
   21.1483  -13.4200  -18.3484 N   0  0  0  0  0  0  0  0  0  0  0  0
   19.7766  -13.4972  -18.7804 C   0  0  0  0  0  0  0  0  0  0  0  0
   19.5456  -12.3506  -19.7255 C   0  0  0  0  0  0  0  0  0  0  0  0
   20.6249  -11.3513  -19.4203 C   0  0  0  0  0  0  0  0  0  0  0  0
   21.6266  -12.0978  -18.6159 C   0  0  1  0  0  0  0  0  0  0  0  0
   21.9785  -11.4297  -17.3318 C   0  0  0  0  0  0  0  0  0  0  0  0
   21.2922  -11.6099  -16.3189 O   0  0  0  0  0  0  0  0  0  0  0  0
   25.9356   -9.7295  -16.5334 C   0  0  0  0  0  0  0  0  0  0  0  0
   24.8820  -10.2691  -15.6117 C   0  0  2  0  0  0  0  0  0  0  0  0
   25.1067  -11.7275  -15.3478 C   0  0  0  0  0  0  0  0  0  0  0  0
   23.5032   -9.8931  -15.9919 C   0  0  2  0  0  0  0  0  0  0  0  0
   23.1068  -10.5741  -17.2433 N   0  0  0  0  0  0  0  0  0  0  0  0
   23.1522   -8.4745  -16.0497 C   0  0  0  0  0  0  0  0  0  0  0  0
   23.4045   -7.7688  -17.1087 O   0  0  0  0  0  0  0  0  0  0  0  0
   22.5301   -7.6964  -15.0507 N   0  0  0  0  0  0  0  0  0  0  0  0
   22.1899   -6.2704  -15.2259 C   0  0  1  0  0  0  0  0  0  0  0  0
   20.7230   -6.2455  -15.5967 C   0  0  0  0  0  0  0  0  0  0  0  0
   20.1807   -4.5177  -15.6170 S   0  0  0  0  0  0  0  0  0  0  0  0
   22.4184   -5.5186  -13.9942 C   0  0  0  0  0  0  0  0  0  0  0  0
   22.4088   -6.0896  -12.8763 O   0  0  0  0  0  0  0  0  0  0  0  0
   22.6493   -4.1637  -14.0414 O   0  0  0  0  0  0  0  0  0  0  0  0
  2  3  1  0
  2  1  1  0
  4  3  1  0
  4  5  1  0
  5  1  1  0
  5  6  1  1
  7  6  2  0
  9  8  1  6
  9 11  1  0
 10  9  1  0
 11 13  1  0
 11 12  1  6
 12  6  1  0
 13 15  1  0
 14 13  2  0
 15 16  1  0
 16 17  1  1
 17 18  1  0
 19 16  1  0
 20 19  2  0
 21 19  1  0
M  END
$$$$
