PVC.pdb
     RDKit          3D

 21 21  0  0  1  0  0  0  0  0999 V2000
   25.8866  -17.8199  -16.3440 N   0  0  0  0  0  0  0  0  0  0  0  0
   26.7638  -16.7012  -16.5742 C   0  0  0  0  0  0  0  0  0  0  0  0
   28.1597  -17.1614  -16.2563 C   0  0  0  0  0  0  0  0  0  0  0  0
   27.9973  -18.3612  -15.3670 C   0  0  0  0  0  0  0  0  0  0  0  0
   26.5751  -18.7643  -15.5178 C   0  0  1  0  0  0  0  0  0  0  0  0
   25.8544  -18.9058  -14.2217 C   0  0  0  0  0  0  0  0  0  0  0  0
   24.9630  -18.1089  -13.9061 O   0  0  0  0  0  0  0  0  0  0  0  0
   25.2091  -22.6999  -12.4813 C   0  0  0  0  0  0  0  0  0  0  0  0
   24.4905  -21.3928  -12.3195 C   0  0  2  0  0  0  0  0  0  0  0  0
   23.4595  -21.2198  -13.3939 C   0  0  0  0  0  0  0  0  0  0  0  0
   25.3884  -20.2379  -12.1029 C   0  0  2  0  0  0  0  0  0  0  0  0
   26.1744  -19.9564  -13.3235 N   0  0  0  0  0  0  0  0  0  0  0  0
   26.2554  -20.2330  -10.9252 C   0  0  0  0  0  0  0  0  0  0  0  0
   27.4677  -20.6907  -10.9891 O   0  0  0  0  0  0  0  0  0  0  0  0
   25.9502  -19.7677   -9.6287 N   0  0  0  0  0  0  0  0  0  0  0  0
   26.7900  -20.0464   -8.4468 C   0  0  1  0  0  0  0  0  0  0  0  0
   27.1483  -18.6922   -7.8747 C   0  0  0  0  0  0  0  0  0  0  0  0
   28.0495  -18.9597   -6.3267 S   0  0  0  0  0  0  0  0  0  0  0  0
   26.0641  -20.8422   -7.4599 C   0  0  0  0  0  0  0  0  0  0  0  0
   24.8314  -21.0496   -7.5759 O   0  0  0  0  0  0  0  0  0  0  0  0
   26.7252  -21.3802   -6.3806 O   0  0  0  0  0  0  0  0  0  0  0  0
  2  3  1  0
  2  1  1  0
  4  3  1  0
  4  5  1  0
  5  1  1  0
  5  6  1  1
  7  6  2  0
  9  8  1  6
  9 11  1  0
 10  9  1  0
 11 13  1  0
 11 12  1  6
 12  6  1  0
 13 15  1  0
 14 13  2  0
 15 16  1  0
 16 17  1  1
 17 18  1  0
 19 16  1  0
 20 19  2  0
 21 19  1  0
M  END
$$$$
