PVC.pdb
     RDKit          3D

 21 21  0  0  1  0  0  0  0  0999 V2000
   28.4200  -20.5360  -15.4542 N   0  0  0  0  0  0  0  0  0  0  0  0
   28.0436  -19.7682  -16.6131 C   0  0  0  0  0  0  0  0  0  0  0  0
   27.8256  -18.3530  -16.1540 C   0  0  0  0  0  0  0  0  0  0  0  0
   27.5797  -18.4411  -14.6747 C   0  0  0  0  0  0  0  0  0  0  0  0
   28.0331  -19.8022  -14.2879 C   0  0  1  0  0  0  0  0  0  0  0  0
   27.0117  -20.5788  -13.5309 C   0  0  0  0  0  0  0  0  0  0  0  0
   26.4641  -21.5637  -14.0402 O   0  0  0  0  0  0  0  0  0  0  0  0
   24.7932  -21.4645   -9.1544 C   0  0  0  0  0  0  0  0  0  0  0  0
   25.7631  -20.6938  -10.0008 C   0  0  2  0  0  0  0  0  0  0  0  0
   25.8564  -19.2716   -9.5361 C   0  0  0  0  0  0  0  0  0  0  0  0
   25.5693  -20.8799  -11.4550 C   0  0  2  0  0  0  0  0  0  0  0  0
   26.6463  -20.2059  -12.2117 N   0  0  0  0  0  0  0  0  0  0  0  0
   24.2643  -20.5664  -12.0358 C   0  0  0  0  0  0  0  0  0  0  0  0
   24.0028  -19.3767  -12.4826 O   0  0  0  0  0  0  0  0  0  0  0  0
   23.1604  -21.4299  -12.1988 N   0  0  0  0  0  0  0  0  0  0  0  0
   21.8665  -20.9968  -12.7627 C   0  0  1  0  0  0  0  0  0  0  0  0
   21.5881  -21.9406  -13.9122 C   0  0  0  0  0  0  0  0  0  0  0  0
   19.9074  -21.6192  -14.5052 S   0  0  0  0  0  0  0  0  0  0  0  0
   20.8025  -21.0790  -11.7649 C   0  0  0  0  0  0  0  0  0  0  0  0
   20.8982  -21.8500  -10.7788 O   0  0  0  0  0  0  0  0  0  0  0  0
   19.6714  -20.3071  -11.8918 O   0  0  0  0  0  0  0  0  0  0  0  0
  2  3  1  0
  2  1  1  0
  4  3  1  0
  4  5  1  0
  5  1  1  0
  5  6  1  6
  7  6  2  0
  9  8  1  1
  9 11  1  0
 10  9  1  0
 11 13  1  0
 11 12  1  6
 12  6  1  0
 13 15  1  0
 14 13  2  0
 15 16  1  0
 16 17  1  6
 17 18  1  0
 19 16  1  0
 20 19  2  0
 21 19  1  0
M  END
$$$$
