PVC.pdb
     RDKit          3D

 21 21  0  0  1  0  0  0  0  0999 V2000
   16.8116  -10.1815  -13.0349 N   0  0  0  0  0  0  0  0  0  0  0  0
   17.6393   -9.9225  -14.1847 C   0  0  0  0  0  0  0  0  0  0  0  0
   18.9070   -9.2881  -13.6830 C   0  0  0  0  0  0  0  0  0  0  0  0
   18.5715   -8.7296  -12.3295 C   0  0  0  0  0  0  0  0  0  0  0  0
   17.2883   -9.3765  -11.9517 C   0  0  1  0  0  0  0  0  0  0  0  0
   16.2283   -8.4098  -11.5499 C   0  0  0  0  0  0  0  0  0  0  0  0
   15.4018   -8.0022  -12.3745 O   0  0  0  0  0  0  0  0  0  0  0  0
   14.9656   -7.8703   -7.4141 C   0  0  0  0  0  0  0  0  0  0  0  0
   14.2532   -7.6493   -8.7157 C   0  0  2  0  0  0  0  0  0  0  0  0
   13.5289   -8.8914   -9.1397 C   0  0  0  0  0  0  0  0  0  0  0  0
   15.0883   -7.0097   -9.7552 C   0  0  2  0  0  0  0  0  0  0  0  0
   16.1443   -7.9373  -10.2147 N   0  0  0  0  0  0  0  0  0  0  0  0
   15.6518   -5.6868   -9.4882 C   0  0  0  0  0  0  0  0  0  0  0  0
   16.6832   -5.5464   -8.7138 O   0  0  0  0  0  0  0  0  0  0  0  0
   15.2105   -4.4425   -9.9859 N   0  0  0  0  0  0  0  0  0  0  0  0
   15.8626   -3.1591   -9.6584 C   0  0  1  0  0  0  0  0  0  0  0  0
   15.8810   -2.3716  -10.9503 C   0  0  0  0  0  0  0  0  0  0  0  0
   16.8829   -3.2872  -12.1493 S   0  0  0  0  0  0  0  0  0  0  0  0
   15.1179   -2.4364   -8.6301 C   0  0  0  0  0  0  0  0  0  0  0  0
   13.9819   -2.8234   -8.2614 O   0  0  0  0  0  0  0  0  0  0  0  0
   15.6541   -1.3128   -8.0459 O   0  0  0  0  0  0  0  0  0  0  0  0
  2  3  1  0
  2  1  1  0
  4  3  1  0
  4  5  1  0
  5  1  1  0
  5  6  1  6
  7  6  2  0
  9  8  1  1
  9 11  1  0
 10  9  1  0
 11 13  1  0
 11 12  1  1
 12  6  1  0
 13 15  1  0
 14 13  2  0
 15 16  1  0
 16 17  1  6
 17 18  1  0
 19 16  1  0
 20 19  2  0
 21 19  1  0
M  END
$$$$
