PVC.pdb
     RDKit          3D

 21 21  0  0  1  0  0  0  0  0999 V2000
   24.4039  -33.2260  -11.0342 N   0  0  0  0  0  0  0  0  0  0  0  0
   23.0189  -32.8313  -11.0279 C   0  0  0  0  0  0  0  0  0  0  0  0
   22.9277  -31.5511  -10.2443 C   0  0  0  0  0  0  0  0  0  0  0  0
   24.1627  -31.5110   -9.3901 C   0  0  0  0  0  0  0  0  0  0  0  0
   25.0707  -32.5313   -9.9752 C   0  0  1  0  0  0  0  0  0  0  0  0
   25.5805  -33.5167   -8.9810 C   0  0  0  0  0  0  0  0  0  0  0  0
   25.2646  -34.7099   -9.0574 O   0  0  0  0  0  0  0  0  0  0  0  0
   29.1895  -35.1953   -6.3590 C   0  0  0  0  0  0  0  0  0  0  0  0
   28.4911  -34.2331   -7.2740 C   0  0  2  0  0  0  0  0  0  0  0  0
   29.2818  -32.9672   -7.4135 C   0  0  0  0  0  0  0  0  0  0  0  0
   27.0530  -34.0593   -6.9764 C   0  0  2  0  0  0  0  0  0  0  0  0
   26.4383  -33.1081   -7.9274 N   0  0  0  0  0  0  0  0  0  0  0  0
   26.6523  -33.7418   -5.6062 C   0  0  0  0  0  0  0  0  0  0  0  0
   27.0039  -32.6226   -5.0521 O   0  0  0  0  0  0  0  0  0  0  0  0
   25.8788  -34.5289   -4.7271 N   0  0  0  0  0  0  0  0  0  0  0  0
   25.5578  -34.1248   -3.3439 C   0  0  1  0  0  0  0  0  0  0  0  0
   24.1477  -34.6140   -3.0948 C   0  0  0  0  0  0  0  0  0  0  0  0
   23.0786  -33.1647   -2.9037 S   0  0  0  0  0  0  0  0  0  0  0  0
   26.4842  -34.7291   -2.3895 C   0  0  0  0  0  0  0  0  0  0  0  0
   26.9646  -35.8717   -2.5886 O   0  0  0  0  0  0  0  0  0  0  0  0
   26.8469  -34.0502   -1.2498 O   0  0  0  0  0  0  0  0  0  0  0  0
  2  3  1  0
  2  1  1  0
  4  3  1  0
  4  5  1  0
  5  1  1  0
  5  6  1  1
  7  6  2  0
  9  8  1  1
  9 11  1  0
 10  9  1  0
 11 13  1  0
 11 12  1  6
 12  6  1  0
 13 15  1  0
 14 13  2  0
 15 16  1  0
 16 17  1  1
 17 18  1  0
 19 16  1  0
 20 19  2  0
 21 19  1  0
M  END
$$$$
