PWQ.pdb
     RDKit          3D

 31 33  0  0  1  0  0  0  0  0999 V2000
    7.3832  -16.0825   21.0942 N   0  0  0  0  0  0  0  0  0  0  0  0
    6.1601  -15.4041   20.7929 C   0  0  0  0  0  0  0  0  0  0  0  0
    6.5774  -14.3269   19.8231 C   0  0  0  0  0  0  0  0  0  0  0  0
    7.9045  -13.8679   20.4414 C   0  0  0  0  0  0  0  0  0  0  0  0
    8.4818  -15.1814   20.8688 C   0  0  1  0  0  0  0  0  0  0  0  0
    9.2956  -15.1087   22.1048 C   0  0  0  0  0  0  0  0  0  0  0  0
   10.2372  -14.2891   22.2576 O   0  0  0  0  0  0  0  0  0  0  0  0
    8.9866  -16.0097   23.1534 N   0  0  0  0  0  0  0  0  0  0  0  0
    9.6591  -15.8940   24.4610 C   0  0  1  0  0  0  0  0  0  0  0  0
    8.6772  -16.2961   25.5416 C   0  0  0  0  0  0  0  0  0  0  0  0
    7.5341  -15.4076   25.6725 C   0  0  0  0  0  0  0  0  0  0  0  0
    6.1849  -15.7365   25.4682 C   0  0  0  0  0  0  0  0  0  0  0  0
    5.4318  -14.6497   25.6632 N   0  0  0  0  0  0  0  0  0  0  0  0
    6.1988  -13.5957   25.9904 C   0  0  0  0  0  0  0  0  0  0  0  0
    5.9454  -12.2641   26.2912 C   0  0  0  0  0  0  0  0  0  0  0  0
    6.9355  -11.3726   26.5994 C   0  0  0  0  0  0  0  0  0  0  0  0
    8.2509  -11.8238   26.6107 C   0  0  0  0  0  0  0  0  0  0  0  0
    8.4940  -13.1549   26.3091 C   0  0  0  0  0  0  0  0  0  0  0  0
    7.5121  -14.0548   25.9996 C   0  0  0  0  0  0  0  0  0  0  0  0
   10.8477  -16.7700   24.4013 C   0  0  0  0  0  0  0  0  0  0  0  0
   10.7873  -17.9112   23.8222 O   0  0  0  0  0  0  0  0  0  0  0  0
   18.0866  -16.4078   24.5233 N   0  0  0  0  0  0  0  0  0  0  0  0
   16.8429  -16.4686   23.8164 C   0  0  0  0  0  0  0  0  0  0  0  0
   16.7436  -15.6907   22.8090 O   0  0  0  0  0  0  0  0  0  0  0  0
   15.7466  -17.3703   24.2127 C   0  0  0  0  0  0  0  0  0  0  0  0
   14.4760  -16.6269   24.4130 C   0  0  0  0  0  0  0  0  0  0  0  0
   13.2721  -17.3715   24.8308 C   0  0  2  0  0  0  0  0  0  0  0  0
   12.1218  -16.4548   24.9502 N   0  0  0  0  0  0  0  0  0  0  0  0
   13.3611  -18.2949   25.9357 C   0  0  0  0  0  0  0  0  0  0  0  0
   12.6889  -18.2246   26.9852 O   0  0  0  0  0  0  0  0  0  0  0  0
   14.2587  -19.3735   25.8754 O   0  0  0  0  0  0  0  0  0  0  0  0
  2  1  1  0
  3  4  1  0
  3  2  1  0
  4  5  1  0
  5  1  1  0
  5  6  1  1
  7  6  2  0
  8  6  1  0
  9 10  1  1
  9  8  1  0
 10 11  1  0
 11 19  1  0
 12 11  2  0
 12 13  1  0
 13 14  1  0
 14 15  2  0
 15 16  1  0
 17 16  2  0
 18 17  1  0
 19 18  2  0
 19 14  1  0
 20 21  2  0
 20  9  1  0
 22 23  1  0
 23 24  2  0
 25 26  1  0
 25 23  1  0
 27 26  1  1
 27 28  1  0
 28 20  1  0
 29 27  1  0
 29 31  1  0
 30 29  2  0
M  END
$$$$
