PWQ.pdb
     RDKit          3D

 31 33  0  0  1  0  0  0  0  0999 V2000
    7.4576  -15.4432   20.8847 N   0  0  0  0  0  0  0  0  0  0  0  0
    6.2522  -14.7345   20.5822 C   0  0  0  0  0  0  0  0  0  0  0  0
    6.7281  -13.5352   19.8009 C   0  0  0  0  0  0  0  0  0  0  0  0
    7.9971  -13.1591   20.5771 C   0  0  0  0  0  0  0  0  0  0  0  0
    8.5577  -14.5163   20.8687 C   0  0  1  0  0  0  0  0  0  0  0  0
    9.2727  -14.6078   22.1632 C   0  0  0  0  0  0  0  0  0  0  0  0
   10.1780  -13.8041   22.5038 O   0  0  0  0  0  0  0  0  0  0  0  0
    8.9086  -15.6535   23.0468 N   0  0  0  0  0  0  0  0  0  0  0  0
    9.5980  -15.8129   24.3409 C   0  0  1  0  0  0  0  0  0  0  0  0
    8.5639  -16.1436   25.3967 C   0  0  0  0  0  0  0  0  0  0  0  0
    7.5444  -15.1230   25.5764 C   0  0  0  0  0  0  0  0  0  0  0  0
    6.1715  -15.2495   25.3128 C   0  0  0  0  0  0  0  0  0  0  0  0
    5.5623  -14.0909   25.5827 N   0  0  0  0  0  0  0  0  0  0  0  0
    6.4499  -13.1801   26.0172 C   0  0  0  0  0  0  0  0  0  0  0  0
    6.3644  -11.8557   26.4253 C   0  0  0  0  0  0  0  0  0  0  0  0
    7.4522  -11.1339   26.8323 C   0  0  0  0  0  0  0  0  0  0  0  0
    8.6953  -11.7575   26.8359 C   0  0  0  0  0  0  0  0  0  0  0  0
    8.7708  -13.0799   26.4268 C   0  0  0  0  0  0  0  0  0  0  0  0
    7.6900  -13.8110   26.0180 C   0  0  0  0  0  0  0  0  0  0  0  0
   10.6000  -16.8829   24.1542 C   0  0  0  0  0  0  0  0  0  0  0  0
   10.2509  -18.0311   23.7059 O   0  0  0  0  0  0  0  0  0  0  0  0
   16.3443  -16.7341   22.0037 N   0  0  0  0  0  0  0  0  0  0  0  0
   16.2487  -16.2597   23.3513 C   0  0  0  0  0  0  0  0  0  0  0  0
   17.1895  -15.4843   23.7301 O   0  0  0  0  0  0  0  0  0  0  0  0
   15.1389  -16.6302   24.2475 C   0  0  0  0  0  0  0  0  0  0  0  0
   14.1275  -17.4621   23.5460 C   0  0  0  0  0  0  0  0  0  0  0  0
   12.9220  -17.8909   24.2818 C   0  0  2  0  0  0  0  0  0  0  0  0
   11.9890  -16.7579   24.4356 N   0  0  0  0  0  0  0  0  0  0  0  0
   13.0708  -18.6545   25.4968 C   0  0  0  0  0  0  0  0  0  0  0  0
   12.6173  -18.3238   26.6118 O   0  0  0  0  0  0  0  0  0  0  0  0
   13.7720  -19.8712   25.4769 O   0  0  0  0  0  0  0  0  0  0  0  0
  2  1  1  0
  3  4  1  0
  3  2  1  0
  4  5  1  0
  5  1  1  0
  5  6  1  1
  7  6  2  0
  8  6  1  0
  9 10  1  1
  9  8  1  0
 10 11  1  0
 11 19  1  0
 12 11  2  0
 12 13  1  0
 13 14  1  0
 14 15  2  0
 15 16  1  0
 17 16  2  0
 18 17  1  0
 19 18  2  0
 19 14  1  0
 20 21  2  0
 20  9  1  0
 22 23  1  0
 23 24  2  0
 25 26  1  0
 25 23  1  0
 27 26  1  1
 27 28  1  0
 28 20  1  0
 29 27  1  0
 29 31  1  0
 30 29  2  0
M  END
$$$$
