PWQ.pdb
     RDKit          3D

 31 33  0  0  1  0  0  0  0  0999 V2000
    7.4483  -15.2701   20.5559 N   0  0  0  0  0  0  0  0  0  0  0  0
    6.3241  -14.4330   20.2688 C   0  0  0  0  0  0  0  0  0  0  0  0
    6.8967  -13.3560   19.3814 C   0  0  0  0  0  0  0  0  0  0  0  0
    8.2479  -13.0979   20.0610 C   0  0  0  0  0  0  0  0  0  0  0  0
    8.6521  -14.4948   20.4168 C   0  0  1  0  0  0  0  0  0  0  0  0
    9.4283  -14.5959   21.6748 C   0  0  0  0  0  0  0  0  0  0  0  0
   10.4361  -13.8835   21.9169 O   0  0  0  0  0  0  0  0  0  0  0  0
    9.0034  -15.5426   22.6392 N   0  0  0  0  0  0  0  0  0  0  0  0
    9.6741  -15.6268   23.9502 C   0  0  1  0  0  0  0  0  0  0  0  0
    8.6726  -16.1300   24.9687 C   0  0  0  0  0  0  0  0  0  0  0  0
    7.5377  -15.2464   25.1794 C   0  0  0  0  0  0  0  0  0  0  0  0
    6.1803  -15.5686   25.0245 C   0  0  0  0  0  0  0  0  0  0  0  0
    5.4381  -14.4889   25.2884 N   0  0  0  0  0  0  0  0  0  0  0  0
    6.2202  -13.4461   25.6157 C   0  0  0  0  0  0  0  0  0  0  0  0
    5.9822  -12.1252   25.9712 C   0  0  0  0  0  0  0  0  0  0  0  0
    6.9862  -11.2442   26.2643 C   0  0  0  0  0  0  0  0  0  0  0  0
    8.3002  -11.6954   26.2024 C   0  0  0  0  0  0  0  0  0  0  0  0
    8.5279  -13.0158   25.8466 C   0  0  0  0  0  0  0  0  0  0  0  0
    7.5320  -13.9051   25.5516 C   0  0  0  0  0  0  0  0  0  0  0  0
   10.8283  -16.5326   23.7742 C   0  0  0  0  0  0  0  0  0  0  0  0
   10.7536  -17.5365   22.9819 O   0  0  0  0  0  0  0  0  0  0  0  0
   10.0386  -16.5396   28.9043 N   0  0  0  0  0  0  0  0  0  0  0  0
   10.9270  -17.6609   28.9666 C   0  0  0  0  0  0  0  0  0  0  0  0
   10.9028  -18.3225   30.0581 O   0  0  0  0  0  0  0  0  0  0  0  0
   11.8095  -18.0388   27.8483 C   0  0  0  0  0  0  0  0  0  0  0  0
   11.7011  -17.0776   26.7208 C   0  0  0  0  0  0  0  0  0  0  0  0
   12.5080  -17.3083   25.5066 C   0  0  2  0  0  0  0  0  0  0  0  0
   12.0828  -16.3923   24.4305 N   0  0  0  0  0  0  0  0  0  0  0  0
   12.7083  -18.6580   25.0379 C   0  0  0  0  0  0  0  0  0  0  0  0
   11.7961  -19.4630   24.7586 O   0  0  0  0  0  0  0  0  0  0  0  0
   14.0115  -19.1527   24.8663 O   0  0  0  0  0  0  0  0  0  0  0  0
  2  1  1  0
  3  4  1  0
  3  2  1  0
  4  5  1  0
  5  1  1  0
  5  6  1  1
  7  6  2  0
  8  6  1  0
  9 10  1  1
  9  8  1  0
 10 11  1  0
 11 19  1  0
 12 11  2  0
 12 13  1  0
 13 14  1  0
 14 15  2  0
 15 16  1  0
 17 16  2  0
 18 17  1  0
 19 18  2  0
 19 14  1  0
 20 21  2  0
 20  9  1  0
 22 23  1  0
 23 24  2  0
 25 26  1  0
 25 23  1  0
 27 26  1  1
 27 28  1  0
 28 20  1  0
 29 27  1  0
 29 31  1  0
 30 29  2  0
M  END
$$$$
