PWQ.pdb
     RDKit          3D

 31 33  0  0  1  0  0  0  0  0999 V2000
    8.6887  -18.1300   20.0158 N   0  0  0  0  0  0  0  0  0  0  0  0
    7.6651  -18.2661   19.0255 C   0  0  0  0  0  0  0  0  0  0  0  0
    8.2916  -17.6880   17.7811 C   0  0  0  0  0  0  0  0  0  0  0  0
    9.0359  -16.4767   18.3579 C   0  0  0  0  0  0  0  0  0  0  0  0
    9.5663  -17.0566   19.6321 C   0  0  1  0  0  0  0  0  0  0  0  0
    9.6444  -16.0866   20.7494 C   0  0  0  0  0  0  0  0  0  0  0  0
   10.3405  -15.0403   20.7006 O   0  0  0  0  0  0  0  0  0  0  0  0
    8.8949  -16.3641   21.9191 N   0  0  0  0  0  0  0  0  0  0  0  0
    8.8862  -15.4114   23.0450 C   0  0  1  0  0  0  0  0  0  0  0  0
    7.5508  -15.5175   23.7515 C   0  0  0  0  0  0  0  0  0  0  0  0
    7.2603  -14.4133   24.6513 C   0  0  0  0  0  0  0  0  0  0  0  0
    6.1499  -13.5561   24.6003 C   0  0  0  0  0  0  0  0  0  0  0  0
    6.2443  -12.6537   25.5816 N   0  0  0  0  0  0  0  0  0  0  0  0
    7.3629  -12.8517   26.2999 C   0  0  0  0  0  0  0  0  0  0  0  0
    7.9376  -12.2259   27.3981 C   0  0  0  0  0  0  0  0  0  0  0  0
    9.1178  -12.6380   27.9524 C   0  0  0  0  0  0  0  0  0  0  0  0
    9.7664  -13.7314   27.3885 C   0  0  0  0  0  0  0  0  0  0  0  0
    9.1850  -14.3497   26.2923 C   0  0  0  0  0  0  0  0  0  0  0  0
    8.0057  -13.9462   25.7301 C   0  0  0  0  0  0  0  0  0  0  0  0
   10.0301  -15.7709   23.9086 C   0  0  0  0  0  0  0  0  0  0  0  0
   10.2253  -15.1614   25.0183 O   0  0  0  0  0  0  0  0  0  0  0  0
   10.4140  -19.7931   28.5299 N   0  0  0  0  0  0  0  0  0  0  0  0
   10.9551  -18.5232   28.1492 C   0  0  0  0  0  0  0  0  0  0  0  0
   10.6288  -17.5397   28.8950 O   0  0  0  0  0  0  0  0  0  0  0  0
   11.8365  -18.3529   26.9803 C   0  0  0  0  0  0  0  0  0  0  0  0
   11.1304  -17.6794   25.8600 C   0  0  0  0  0  0  0  0  0  0  0  0
   11.8932  -17.3222   24.6480 C   0  0  2  0  0  0  0  0  0  0  0  0
   10.9867  -16.7825   23.6160 N   0  0  0  0  0  0  0  0  0  0  0  0
   12.8463  -18.2626   24.1108 C   0  0  0  0  0  0  0  0  0  0  0  0
   13.7537  -18.8168   24.7647 O   0  0  0  0  0  0  0  0  0  0  0  0
   12.7919  -18.6149   22.7523 O   0  0  0  0  0  0  0  0  0  0  0  0
  2  1  1  0
  3  4  1  0
  3  2  1  0
  4  5  1  0
  5  1  1  0
  5  6  1  1
  7  6  2  0
  8  6  1  0
  9 10  1  1
  9  8  1  0
 10 11  1  0
 11 19  1  0
 12 11  2  0
 12 13  1  0
 13 14  1  0
 14 15  2  0
 15 16  1  0
 17 16  2  0
 18 17  1  0
 19 18  2  0
 19 14  1  0
 20 21  2  0
 20  9  1  0
 22 23  1  0
 23 24  2  0
 25 26  1  0
 25 23  1  0
 27 26  1  1
 27 28  1  0
 28 20  1  0
 29 27  1  0
 29 31  1  0
 30 29  2  0
M  END
$$$$
