PWQ.pdb
     RDKit          3D

 31 33  0  0  1  0  0  0  0  0999 V2000
    7.4124  -15.4591   20.9850 N   0  0  0  0  0  0  0  0  0  0  0  0
    6.2213  -14.7242   20.6882 C   0  0  0  0  0  0  0  0  0  0  0  0
    6.7127  -13.5671   19.8546 C   0  0  0  0  0  0  0  0  0  0  0  0
    8.0120  -13.2045   20.5858 C   0  0  0  0  0  0  0  0  0  0  0  0
    8.5390  -14.5677   20.9099 C   0  0  1  0  0  0  0  0  0  0  0  0
    9.2841  -14.6376   22.1887 C   0  0  0  0  0  0  0  0  0  0  0  0
   10.2403  -13.8697   22.4670 O   0  0  0  0  0  0  0  0  0  0  0  0
    8.8894  -15.6194   23.1306 N   0  0  0  0  0  0  0  0  0  0  0  0
    9.6029  -15.7532   24.4145 C   0  0  1  0  0  0  0  0  0  0  0  0
    8.6065  -16.1745   25.4743 C   0  0  0  0  0  0  0  0  0  0  0  0
    7.4805  -15.2684   25.6313 C   0  0  0  0  0  0  0  0  0  0  0  0
    6.1357  -15.5379   25.3328 C   0  0  0  0  0  0  0  0  0  0  0  0
    5.4008  -14.4517   25.5905 N   0  0  0  0  0  0  0  0  0  0  0  0
    6.1760  -13.4546   26.0500 C   0  0  0  0  0  0  0  0  0  0  0  0
    5.9407  -12.1490   26.4596 C   0  0  0  0  0  0  0  0  0  0  0  0
    6.9356  -11.3184   26.8960 C   0  0  0  0  0  0  0  0  0  0  0  0
    8.2372  -11.8071   26.9291 C   0  0  0  0  0  0  0  0  0  0  0  0
    8.4623  -13.1119   26.5182 C   0  0  0  0  0  0  0  0  0  0  0  0
    7.4754  -13.9508   26.0802 C   0  0  0  0  0  0  0  0  0  0  0  0
   10.6750  -16.7468   24.1979 C   0  0  0  0  0  0  0  0  0  0  0  0
   10.6268  -17.8922   24.7696 O   0  0  0  0  0  0  0  0  0  0  0  0
   16.0823  -15.4823   21.1528 N   0  0  0  0  0  0  0  0  0  0  0  0
   16.4952  -16.4870   22.0857 C   0  0  0  0  0  0  0  0  0  0  0  0
   17.7479  -16.7320   22.1124 O   0  0  0  0  0  0  0  0  0  0  0  0
   15.5467  -17.1923   22.9660 C   0  0  0  0  0  0  0  0  0  0  0  0
   14.1596  -16.6928   22.7825 C   0  0  0  0  0  0  0  0  0  0  0  0
   13.0750  -17.2874   23.5878 C   0  0  2  0  0  0  0  0  0  0  0  0
   11.8159  -16.5488   23.3712 N   0  0  0  0  0  0  0  0  0  0  0  0
   13.3103  -17.5842   24.9798 C   0  0  0  0  0  0  0  0  0  0  0  0
   13.1701  -16.7746   25.9195 O   0  0  0  0  0  0  0  0  0  0  0  0
   13.7316  -18.8691   25.3596 O   0  0  0  0  0  0  0  0  0  0  0  0
  2  1  1  0
  3  4  1  0
  3  2  1  0
  4  5  1  0
  5  1  1  0
  5  6  1  1
  7  6  2  0
  8  6  1  0
  9 10  1  1
  9  8  1  0
 10 11  1  0
 11 19  1  0
 12 11  2  0
 12 13  1  0
 13 14  1  0
 14 15  2  0
 15 16  1  0
 17 16  2  0
 18 17  1  0
 19 18  2  0
 19 14  1  0
 20 21  2  0
 20  9  1  0
 22 23  1  0
 23 24  2  0
 25 26  1  0
 25 23  1  0
 27 26  1  1
 27 28  1  0
 28 20  1  0
 29 27  1  0
 29 31  1  0
 30 29  2  0
M  END
$$$$
