SRK.pdb
     RDKit          3D

 27 26  0  0  1  0  0  0  0  0999 V2000
   13.4523  -21.0529   16.0884 O   0  0  0  0  0  0  0  0  0  0  0  0
   12.7113  -22.1802   15.7988 C   0  0  0  0  0  0  0  0  0  0  0  0
   11.2652  -21.9239   16.1346 C   0  0  2  0  0  0  0  0  0  0  0  0
   11.0179  -20.5038   16.1533 N   0  0  0  0  0  0  0  0  0  0  0  0
   10.9194  -22.5088   17.4477 C   0  0  0  0  0  0  0  0  0  0  0  0
   10.2293  -21.8485   18.2545 O   0  0  0  0  0  0  0  0  0  0  0  0
   11.2258  -30.8292   17.4550 N   0  0  0  0  0  0  0  0  0  0  0  0
   11.0842  -29.7098   16.5851 C   0  0  0  0  0  0  0  0  0  0  0  0
   10.7266  -29.9368   15.3684 N   0  0  0  0  0  0  0  0  0  0  0  0
   11.3159  -28.3912   17.0263 N   0  0  0  0  0  0  0  0  0  0  0  0
   11.8555  -28.0914   18.3333 C   0  0  0  0  0  0  0  0  0  0  0  0
   12.0322  -26.6068   18.4530 C   0  0  0  0  0  0  0  0  0  0  0  0
   10.7954  -25.8944   18.8835 C   0  0  0  0  0  0  0  0  0  0  0  0
   10.9485  -24.4002   19.0401 C   0  0  2  0  0  0  0  0  0  0  0  0
   11.3678  -23.8061   17.7866 N   0  0  0  0  0  0  0  0  0  0  0  0
   11.9541  -24.0495   20.0646 C   0  0  0  0  0  0  0  0  0  0  0  0
   13.1000  -23.7189   19.7019 O   0  0  0  0  0  0  0  0  0  0  0  0
   10.6371  -29.1662   14.6751 N   0  0  0  0  0  0  0  0  0  0  0  0
   11.6162  -24.0920   21.4140 C   0  0  2  0  0  0  0  0  0  0  0  0
   12.6770  -23.5686   22.3819 C   0  0  0  0  0  0  0  0  0  0  0  0
   11.8999  -23.1474   23.5540 C   0  0  0  0  0  0  0  0  0  0  0  0
   12.4245  -22.3907   24.6633 C   0  0  0  0  0  0  0  0  0  0  0  0
   11.6712  -21.8967   25.8135 C   0  0  0  0  0  0  0  0  0  0  0  0
   12.5423  -21.2043   26.8247 N   0  0  0  0  0  0  0  0  0  0  0  0
   11.8248  -20.5551   27.8786 C   0  0  0  0  0  0  0  0  0  0  0  0
   13.4415  -24.8489   22.5586 O   0  0  0  0  0  0  0  0  0  0  0  0
   13.0529  -26.0754   22.1756 O   0  0  0  0  0  0  0  0  0  0  0  0
  2  1  1  0
  3  4  1  1
  3  2  1  0
  5  3  1  0
  6  5  2  0
  7  8  1  0
  8 10  1  0
  9  8  2  0
 11 10  1  0
 11 12  1  0
 14 13  1  6
 13 12  1  0
 14 15  1  0
 15  5  1  0
 16 17  2  0
 16 14  1  0
 18 16  1  0
 19 18  1  0
 20 21  1  0
 19 20  1  6
 22 21  1  0
 23 22  1  0
 24 23  1  0
 25 26  1  0
 25 19  1  0
 27 25  2  0
M  END
$$$$
