SRK.pdb
     RDKit          3D

 27 26  0  0  1  0  0  0  0  0999 V2000
   11.2087  -20.1984   21.0976 O   0  0  0  0  0  0  0  0  0  0  0  0
   10.3145  -20.0866   20.0527 C   0  0  0  0  0  0  0  0  0  0  0  0
   10.4001  -18.6991   19.4720 C   0  0  2  0  0  0  0  0  0  0  0  0
   11.7785  -18.3702   19.2075 N   0  0  0  0  0  0  0  0  0  0  0  0
    9.8181  -17.7051   20.3990 C   0  0  0  0  0  0  0  0  0  0  0  0
   10.5560  -17.1279   21.2270 O   0  0  0  0  0  0  0  0  0  0  0  0
    4.3115  -19.7599   18.9919 N   0  0  0  0  0  0  0  0  0  0  0  0
    3.2008  -18.9726   19.4119 C   0  0  0  0  0  0  0  0  0  0  0  0
    2.0766  -19.1507   18.8083 N   0  0  0  0  0  0  0  0  0  0  0  0
    3.3087  -18.0316   20.4559 N   0  0  0  0  0  0  0  0  0  0  0  0
    4.1495  -16.8596   20.3633 C   0  0  0  0  0  0  0  0  0  0  0  0
    5.5237  -17.2124   20.8499 C   0  0  0  0  0  0  0  0  0  0  0  0
    6.4746  -16.0645   20.8274 C   0  0  0  0  0  0  0  0  0  0  0  0
    7.8878  -16.4060   21.2358 C   0  0  2  0  0  0  0  0  0  0  0  0
    8.4361  -17.4116   20.3478 N   0  0  0  0  0  0  0  0  0  0  0  0
    7.9548  -16.9357   22.6137 C   0  0  0  0  0  0  0  0  0  0  0  0
    7.8817  -18.1669   22.7948 O   0  0  0  0  0  0  0  0  0  0  0  0
    1.2320  -18.5964   19.0572 N   0  0  0  0  0  0  0  0  0  0  0  0
    8.0969  -16.0627   23.6882 C   0  0  1  0  0  0  0  0  0  0  0  0
    8.0251  -16.6990   25.0760 C   0  0  0  0  0  0  0  0  0  0  0  0
    9.4006  -16.5938   25.5779 C   0  0  0  0  0  0  0  0  0  0  0  0
    9.9844  -17.4585   26.5728 C   0  0  0  0  0  0  0  0  0  0  0  0
   11.3358  -17.3669   27.1205 C   0  0  0  0  0  0  0  0  0  0  0  0
   11.5803  -18.3501   28.2314 N   0  0  0  0  0  0  0  0  0  0  0  0
   12.9230  -18.3631   28.7256 C   0  0  0  0  0  0  0  0  0  0  0  0
    7.0531  -15.7347   25.6926 O   0  0  0  0  0  0  0  0  0  0  0  0
    6.3560  -15.9119   26.8260 O   0  0  0  0  0  0  0  0  0  0  0  0
  2  1  1  0
  3  4  1  1
  3  2  1  0
  5  3  1  0
  6  5  2  0
  7  8  1  0
  8 10  1  0
  9  8  2  0
 11 10  1  0
 11 12  1  0
 14 13  1  6
 13 12  1  0
 14 15  1  0
 15  5  1  0
 16 17  2  0
 16 14  1  0
 18 16  1  0
 19 18  1  0
 20 21  1  0
 19 20  1  1
 22 21  1  0
 23 22  1  0
 24 23  1  0
 25 26  1  0
 25 19  1  0
 27 25  2  0
M  END
$$$$
