SRK.pdb
     RDKit          3D

 27 26  0  0  1  0  0  0  0  0999 V2000
    5.3512  -20.1150   25.4584 O   0  0  0  0  0  0  0  0  0  0  0  0
    6.3348  -20.0531   24.4927 C   0  0  0  0  0  0  0  0  0  0  0  0
    5.7632  -19.4420   23.2399 C   0  0  2  0  0  0  0  0  0  0  0  0
    5.3067  -20.4866   22.3575 N   0  0  0  0  0  0  0  0  0  0  0  0
    6.7753  -18.6128   22.5513 C   0  0  0  0  0  0  0  0  0  0  0  0
    7.4906  -19.1243   21.6625 O   0  0  0  0  0  0  0  0  0  0  0  0
    7.2047  -14.9243   18.1585 N   0  0  0  0  0  0  0  0  0  0  0  0
    7.8444  -13.6573   18.0354 C   0  0  0  0  0  0  0  0  0  0  0  0
    8.4627  -13.4018   16.9343 N   0  0  0  0  0  0  0  0  0  0  0  0
    7.8055  -12.7010   19.0702 N   0  0  0  0  0  0  0  0  0  0  0  0
    7.3648  -13.0207   20.4091 C   0  0  0  0  0  0  0  0  0  0  0  0
    8.0598  -14.2711   20.8598 C   0  0  0  0  0  0  0  0  0  0  0  0
    7.1885  -15.1803   21.6576 C   0  0  0  0  0  0  0  0  0  0  0  0
    7.8705  -16.4310   22.1587 C   0  0  2  0  0  0  0  0  0  0  0  0
    6.9316  -17.2511   22.8977 N   0  0  0  0  0  0  0  0  0  0  0  0
    9.0045  -16.1238   23.0551 C   0  0  0  0  0  0  0  0  0  0  0  0
    8.7994  -15.4511   24.0844 O   0  0  0  0  0  0  0  0  0  0  0  0
    8.9255  -12.4843   16.7709 N   0  0  0  0  0  0  0  0  0  0  0  0
   10.2808  -16.5835   22.7446 C   0  0  1  0  0  0  0  0  0  0  0  0
   11.3821  -16.2082   23.7357 C   0  0  0  0  0  0  0  0  0  0  0  0
   11.7222  -17.4845   24.3765 C   0  0  0  0  0  0  0  0  0  0  0  0
   11.0551  -18.0314   25.5315 C   0  0  0  0  0  0  0  0  0  0  0  0
   11.3921  -19.2726   26.2247 C   0  0  0  0  0  0  0  0  0  0  0  0
   10.4327  -19.5964   27.3362 N   0  0  0  0  0  0  0  0  0  0  0  0
   10.6792  -20.8473   27.9855 C   0  0  0  0  0  0  0  0  0  0  0  0
   12.3920  -15.7131   22.7408 O   0  0  0  0  0  0  0  0  0  0  0  0
   13.5281  -15.0514   23.0115 O   0  0  0  0  0  0  0  0  0  0  0  0
  2  1  1  0
  3  4  1  6
  3  2  1  0
  5  3  1  0
  6  5  2  0
  7  8  1  0
  8 10  1  0
  9  8  2  0
 11 10  1  0
 11 12  1  0
 14 13  1  1
 13 12  1  0
 14 15  1  0
 15  5  1  0
 16 17  2  0
 16 14  1  0
 18 16  1  0
 19 18  1  0
 20 21  1  0
 19 20  1  1
 22 21  1  0
 23 22  1  0
 24 23  1  0
 25 26  1  0
 25 19  1  0
 27 25  2  0
M  END
$$$$
