SRK.pdb
     RDKit          3D

 27 26  0  0  1  0  0  0  0  0999 V2000
    7.8082  -19.0852   26.5549 O   0  0  0  0  0  0  0  0  0  0  0  0
    6.5328  -18.6343   26.2828 C   0  0  0  0  0  0  0  0  0  0  0  0
    6.1699  -18.9956   24.8660 C   0  0  2  0  0  0  0  0  0  0  0  0
    6.3015  -20.4193   24.6815 N   0  0  0  0  0  0  0  0  0  0  0  0
    7.0387  -18.2846   23.9039 C   0  0  0  0  0  0  0  0  0  0  0  0
    7.9620  -18.9041   23.3320 O   0  0  0  0  0  0  0  0  0  0  0  0
    7.5660  -14.8613   18.0598 N   0  0  0  0  0  0  0  0  0  0  0  0
    8.0561  -13.5313   18.2034 C   0  0  0  0  0  0  0  0  0  0  0  0
    8.8971  -13.1037   17.3261 N   0  0  0  0  0  0  0  0  0  0  0  0
    7.6397  -12.6953   19.2592 N   0  0  0  0  0  0  0  0  0  0  0  0
    6.9225  -13.1945   20.4106 C   0  0  0  0  0  0  0  0  0  0  0  0
    7.6582  -14.3807   20.9597 C   0  0  0  0  0  0  0  0  0  0  0  0
    6.9615  -15.0338   22.1045 C   0  0  0  0  0  0  0  0  0  0  0  0
    7.6763  -16.2340   22.6782 C   0  0  2  0  0  0  0  0  0  0  0  0
    6.8252  -16.9133   23.6345 N   0  0  0  0  0  0  0  0  0  0  0  0
    8.9247  -15.8567   23.3732 C   0  0  0  0  0  0  0  0  0  0  0  0
    8.8554  -15.2128   24.4384 O   0  0  0  0  0  0  0  0  0  0  0  0
    9.2697  -12.1327   17.3580 N   0  0  0  0  0  0  0  0  0  0  0  0
   10.1564  -16.2197   22.8366 C   0  0  1  0  0  0  0  0  0  0  0  0
   11.3776  -15.8978   23.6973 C   0  0  0  0  0  0  0  0  0  0  0  0
   11.6270  -17.1470   24.4271 C   0  0  0  0  0  0  0  0  0  0  0  0
   11.2845  -17.3783   25.8081 C   0  0  0  0  0  0  0  0  0  0  0  0
   11.4659  -18.6219   26.5533 C   0  0  0  0  0  0  0  0  0  0  0  0
   10.9778  -18.5256   27.9721 N   0  0  0  0  0  0  0  0  0  0  0  0
   11.0124  -19.7598   28.6952 C   0  0  0  0  0  0  0  0  0  0  0  0
   12.3436  -15.6144   22.5832 O   0  0  0  0  0  0  0  0  0  0  0  0
   13.4533  -14.8626   22.6546 O   0  0  0  0  0  0  0  0  0  0  0  0
  2  1  1  0
  3  4  1  1
  3  2  1  0
  5  3  1  0
  6  5  2  0
  7  8  1  0
  8 10  1  0
  9  8  2  0
 11 10  1  0
 11 12  1  0
 14 13  1  1
 13 12  1  0
 14 15  1  0
 15  5  1  0
 16 17  2  0
 16 14  1  0
 18 16  1  0
 19 18  1  0
 20 21  1  0
 19 20  1  6
 22 21  1  0
 23 22  1  0
 24 23  1  0
 25 26  1  0
 25 19  1  0
 27 25  2  0
M  END
$$$$
