IRS.pdb
     RDKit          3D

 26 25  0  0  1  0  0  0  0  0999 V2000
    6.9168  -12.0628   18.8207 C   0  0  0  0  0  0  0  0  0  0  0  0
    8.3957  -12.3443   19.0836 C   0  0  0  0  0  0  0  0  0  0  0  0
    8.5543  -13.7315   19.7129 C   0  0  2  0  0  0  0  0  0  0  0  0
    7.7332  -13.7509   20.9713 C   0  0  0  0  0  0  0  0  0  0  0  0
   10.0297  -13.8901   19.9882 C   0  0  2  0  0  0  0  0  0  0  0  0
   10.7275  -13.8823   18.7231 N   0  0  0  0  0  0  0  0  0  0  0  0
   10.3769  -15.0848   20.7552 C   0  0  0  0  0  0  0  0  0  0  0  0
    9.9939  -15.3076   21.9339 O   0  0  0  0  0  0  0  0  0  0  0  0
   14.0770  -23.0066   21.2290 N   0  0  0  0  0  0  0  0  0  0  0  0
   13.3561  -22.7383   20.0400 C   0  0  0  0  0  0  0  0  0  0  0  0
   12.7304  -23.6918   19.4362 N   0  0  0  0  0  0  0  0  0  0  0  0
   13.2724  -21.4415   19.4595 N   0  0  0  0  0  0  0  0  0  0  0  0
   13.8731  -20.2571   20.0609 C   0  0  0  0  0  0  0  0  0  0  0  0
   12.9010  -19.4768   20.8641 C   0  0  0  0  0  0  0  0  0  0  0  0
   12.4785  -18.2189   20.1831 C   0  0  0  0  0  0  0  0  0  0  0  0
   11.4865  -17.3501   20.8372 C   0  0  2  0  0  0  0  0  0  0  0  0
   11.1992  -16.0872   20.1724 N   0  0  0  0  0  0  0  0  0  0  0  0
   11.9741  -17.0223   22.2423 C   0  0  0  0  0  0  0  0  0  0  0  0
   12.9426  -16.2829   22.4612 O   0  0  0  0  0  0  0  0  0  0  0  0
   12.2353  -23.5729   18.5343 O   0  0  0  0  0  0  0  0  0  0  0  0
    9.4483  -17.4268   25.0405 C   0  0  0  0  0  0  0  0  0  0  0  0
   10.6745  -17.4042   25.6920 C   0  0  2  0  0  0  0  0  0  0  0  0
   11.7930  -17.3790   24.6911 N   0  0  0  0  0  0  0  0  0  0  0  0
   11.2814  -17.5924   23.3307 C   0  0  0  0  0  0  0  0  0  0  0  0
   12.8328  -18.3909   25.0129 O   0  0  0  0  0  0  0  0  0  0  0  0
   13.5235  -18.3538   26.2133 O   0  0  0  0  0  0  0  0  0  0  0  0
  2  1  1  0
  2  3  1  0
  3  4  1  1
  5  3  1  0
  5  6  1  6
  7  5  1  0
  7  8  2  0
  9 10  1  0
 10 11  2  0
 12 10  1  0
 12 13  1  0
 14 15  1  0
 14 13  1  0
 16 15  1  6
 16 18  1  0
 16 17  1  0
 17  7  1  0
 18 19  2  0
 21 20  1  0
 22 21  1  6
 23 22  1  0
 23 18  1  0
 24 22  1  0
 25 24  1  0
 26 24  2  0
M  END
$$$$
