IRS.pdb
     RDKit          3D

 26 25  0  0  1  0  0  0  0  0999 V2000
    6.5547  -11.5345   27.7866 C   0  0  0  0  0  0  0  0  0  0  0  0
    5.9661  -12.7607   27.0898 C   0  0  0  0  0  0  0  0  0  0  0  0
    7.0857  -13.5612   26.4181 C   0  0  2  0  0  0  0  0  0  0  0  0
    7.7665  -12.6472   25.4386 C   0  0  0  0  0  0  0  0  0  0  0  0
    6.4063  -14.7255   25.7394 C   0  0  2  0  0  0  0  0  0  0  0  0
    5.7356  -15.5082   26.7518 N   0  0  0  0  0  0  0  0  0  0  0  0
    7.2998  -15.5705   24.9497 C   0  0  0  0  0  0  0  0  0  0  0  0
    7.8049  -16.6482   25.3607 O   0  0  0  0  0  0  0  0  0  0  0  0
    9.9146  -13.9727   18.1090 N   0  0  0  0  0  0  0  0  0  0  0  0
    8.8478  -13.1809   18.5994 C   0  0  0  0  0  0  0  0  0  0  0  0
    8.9263  -11.8937   18.5534 N   0  0  0  0  0  0  0  0  0  0  0  0
    7.6580  -13.7364   19.1483 N   0  0  0  0  0  0  0  0  0  0  0  0
    7.3955  -15.1695   19.1994 C   0  0  0  0  0  0  0  0  0  0  0  0
    7.2372  -15.6655   20.5879 C   0  0  0  0  0  0  0  0  0  0  0  0
    8.5220  -15.6591   21.3454 C   0  0  0  0  0  0  0  0  0  0  0  0
    8.5097  -16.0013   22.7770 C   0  0  2  0  0  0  0  0  0  0  0  0
    7.6495  -15.1894   23.6256 N   0  0  0  0  0  0  0  0  0  0  0  0
    9.9271  -15.8811   23.3210 C   0  0  0  0  0  0  0  0  0  0  0  0
   10.4562  -14.7924   23.5807 O   0  0  0  0  0  0  0  0  0  0  0  0
    8.1708  -11.2606   18.8716 O   0  0  0  0  0  0  0  0  0  0  0  0
   11.7293  -19.1611   24.9363 C   0  0  0  0  0  0  0  0  0  0  0  0
   12.2144  -17.8931   25.2282 C   0  0  1  0  0  0  0  0  0  0  0  0
   12.0279  -16.9824   24.0494 N   0  0  0  0  0  0  0  0  0  0  0  0
   10.6552  -17.0703   23.5337 C   0  0  0  0  0  0  0  0  0  0  0  0
   13.0023  -17.2858   22.9692 O   0  0  0  0  0  0  0  0  0  0  0  0
   14.3674  -17.1931   23.1868 O   0  0  0  0  0  0  0  0  0  0  0  0
  2  1  1  0
  2  3  1  0
  3  4  1  6
  5  3  1  0
  5  6  1  1
  7  5  1  0
  7  8  2  0
  9 10  1  0
 10 11  2  0
 12 10  1  0
 12 13  1  0
 14 15  1  0
 14 13  1  0
 16 15  1  6
 16 18  1  0
 16 17  1  0
 17  7  1  0
 18 19  2  0
 21 20  1  0
 22 21  1  1
 23 22  1  0
 23 18  1  0
 24 22  1  0
 25 24  1  0
 26 24  2  0
M  END
$$$$
