IRS.pdb
     RDKit          3D

 26 25  0  0  1  0  0  0  0  0999 V2000
    7.3058  -11.7782   19.8374 C   0  0  0  0  0  0  0  0  0  0  0  0
    7.8921  -13.0736   19.2774 C   0  0  0  0  0  0  0  0  0  0  0  0
    8.0436  -14.1016   20.4024 C   0  0  2  0  0  0  0  0  0  0  0  0
    8.9971  -13.5264   21.4116 C   0  0  0  0  0  0  0  0  0  0  0  0
    8.5852  -15.3488   19.7475 C   0  0  2  0  0  0  0  0  0  0  0  0
    7.6510  -15.7633   18.7263 N   0  0  0  0  0  0  0  0  0  0  0  0
    8.8534  -16.4492   20.6710 C   0  0  0  0  0  0  0  0  0  0  0  0
    7.9636  -17.1755   21.1873 O   0  0  0  0  0  0  0  0  0  0  0  0
   12.2470  -22.0000   18.9325 N   0  0  0  0  0  0  0  0  0  0  0  0
   11.8382  -21.0667   17.9490 C   0  0  0  0  0  0  0  0  0  0  0  0
   11.0743  -21.4442   16.9799 N   0  0  0  0  0  0  0  0  0  0  0  0
   12.2246  -19.6972   17.9711 N   0  0  0  0  0  0  0  0  0  0  0  0
   12.2951  -18.9069   19.1942 C   0  0  0  0  0  0  0  0  0  0  0  0
   11.4865  -19.4911   20.2914 C   0  0  0  0  0  0  0  0  0  0  0  0
   11.6152  -18.7249   21.5645 C   0  0  0  0  0  0  0  0  0  0  0  0
   10.5241  -17.8241   21.9704 C   0  0  2  0  0  0  0  0  0  0  0  0
   10.1918  -16.7554   21.0394 N   0  0  0  0  0  0  0  0  0  0  0  0
   10.8955  -17.1719   23.2956 C   0  0  0  0  0  0  0  0  0  0  0  0
   11.6164  -16.1683   23.3710 O   0  0  0  0  0  0  0  0  0  0  0  0
   10.7402  -20.8106   16.2319 O   0  0  0  0  0  0  0  0  0  0  0  0
    8.8607  -15.8786   25.5928 C   0  0  0  0  0  0  0  0  0  0  0  0
    9.6660  -16.5632   26.4936 C   0  0  2  0  0  0  0  0  0  0  0  0
   10.8172  -17.2057   25.7754 N   0  0  0  0  0  0  0  0  0  0  0  0
   10.3875  -17.7470   24.4791 C   0  0  0  0  0  0  0  0  0  0  0  0
   11.4410  -18.2755   26.5970 O   0  0  0  0  0  0  0  0  0  0  0  0
   12.0281  -17.9918   27.8193 O   0  0  0  0  0  0  0  0  0  0  0  0
  2  1  1  0
  2  3  1  0
  3  4  1  1
  5  3  1  0
  5  6  1  6
  7  5  1  0
  7  8  2  0
  9 10  1  0
 10 11  2  0
 12 10  1  0
 12 13  1  0
 14 15  1  0
 14 13  1  0
 16 15  1  6
 16 18  1  0
 16 17  1  0
 17  7  1  0
 18 19  2  0
 21 20  1  0
 22 21  1  6
 23 22  1  0
 23 18  1  0
 24 22  1  0
 25 24  1  0
 26 24  2  0
M  END
$$$$
