IRS.pdb
     RDKit          3D

 26 25  0  0  1  0  0  0  0  0999 V2000
    6.8935  -11.7527   28.2339 C   0  0  0  0  0  0  0  0  0  0  0  0
    6.2804  -13.0029   27.6042 C   0  0  0  0  0  0  0  0  0  0  0  0
    7.2886  -13.6484   26.6489 C   0  0  2  0  0  0  0  0  0  0  0  0
    7.6787  -12.6082   25.6369 C   0  0  0  0  0  0  0  0  0  0  0  0
    6.5682  -14.8170   26.0217 C   0  0  2  0  0  0  0  0  0  0  0  0
    6.4631  -15.8648   27.0108 N   0  0  0  0  0  0  0  0  0  0  0  0
    7.1908  -15.3272   24.8018 C   0  0  0  0  0  0  0  0  0  0  0  0
    7.9499  -16.3309   24.7587 O   0  0  0  0  0  0  0  0  0  0  0  0
   10.5292  -13.1948   18.4817 N   0  0  0  0  0  0  0  0  0  0  0  0
    9.7883  -13.7977   17.4362 C   0  0  0  0  0  0  0  0  0  0  0  0
   10.3773  -14.1300   16.3372 N   0  0  0  0  0  0  0  0  0  0  0  0
    8.3953  -14.0733   17.5315 N   0  0  0  0  0  0  0  0  0  0  0  0
    7.6062  -13.7955   18.7254 C   0  0  0  0  0  0  0  0  0  0  0  0
    8.2387  -14.3271   19.9568 C   0  0  0  0  0  0  0  0  0  0  0  0
    7.3371  -14.2446   21.1420 C   0  0  0  0  0  0  0  0  0  0  0  0
    7.6505  -15.0461   22.3361 C   0  0  2  0  0  0  0  0  0  0  0  0
    6.9522  -14.6787   23.5595 N   0  0  0  0  0  0  0  0  0  0  0  0
    9.1436  -14.9417   22.6175 C   0  0  0  0  0  0  0  0  0  0  0  0
    9.6656  -13.9308   23.1055 O   0  0  0  0  0  0  0  0  0  0  0  0
    9.9019  -14.6139   15.5545 O   0  0  0  0  0  0  0  0  0  0  0  0
   11.3637  -17.3723   24.4804 C   0  0  0  0  0  0  0  0  0  0  0  0
   11.8916  -17.2432   23.2024 C   0  0  2  0  0  0  0  0  0  0  0  0
   11.3974  -15.9782   22.5627 N   0  0  0  0  0  0  0  0  0  0  0  0
    9.9533  -16.0534   22.3041 C   0  0  0  0  0  0  0  0  0  0  0  0
   12.1297  -15.6844   21.3034 O   0  0  0  0  0  0  0  0  0  0  0  0
   13.4953  -15.4508   21.3047 O   0  0  0  0  0  0  0  0  0  0  0  0
  2  1  1  0
  2  3  1  0
  3  4  1  6
  5  3  1  0
  5  6  1  1
  7  5  1  0
  7  8  2  0
  9 10  1  0
 10 11  2  0
 12 10  1  0
 12 13  1  0
 14 15  1  0
 14 13  1  0
 16 15  1  6
 16 18  1  0
 16 17  1  0
 17  7  1  0
 18 19  2  0
 21 20  1  0
 22 21  1  1
 23 22  1  0
 23 18  1  0
 24 22  1  0
 25 24  1  0
 26 24  2  0
M  END
$$$$
