WAS.pdb
     RDKit          3D

 26 27  0  0  1  0  0  0  0  0999 V2000
   27.8441  -20.9234  -15.7105 N   0  0  0  0  0  0  0  0  0  0  0  0
   26.8602  -20.0585  -15.1038 C   0  0  1  0  0  0  0  0  0  0  0  0
   26.0908  -19.2213  -16.1099 C   0  0  0  0  0  0  0  0  0  0  0  0
   26.8871  -18.1490  -16.7245 C   0  0  0  0  0  0  0  0  0  0  0  0
   27.5244  -18.1906  -17.9440 C   0  0  0  0  0  0  0  0  0  0  0  0
   28.1745  -17.0365  -18.1705 N   0  0  0  0  0  0  0  0  0  0  0  0
   27.9764  -16.2232  -17.1124 C   0  0  0  0  0  0  0  0  0  0  0  0
   28.4409  -14.9389  -16.8953 C   0  0  0  0  0  0  0  0  0  0  0  0
   28.0768  -14.3182  -15.7062 C   0  0  0  0  0  0  0  0  0  0  0  0
   27.2822  -14.9776  -14.7939 C   0  0  0  0  0  0  0  0  0  0  0  0
   26.8323  -16.2559  -15.0324 C   0  0  0  0  0  0  0  0  0  0  0  0
   27.1825  -16.8881  -16.2037 C   0  0  0  0  0  0  0  0  0  0  0  0
   25.9482  -20.8740  -14.2858 C   0  0  0  0  0  0  0  0  0  0  0  0
   25.5172  -21.9569  -14.7563 O   0  0  0  0  0  0  0  0  0  0  0  0
   24.3791  -20.6648  -10.9047 C   0  0  0  0  0  0  0  0  0  0  0  0
   24.4454  -21.1434  -12.3590 C   0  0  2  0  0  0  0  0  0  0  0  0
   25.5397  -20.4645  -12.9640 N   0  0  0  0  0  0  0  0  0  0  0  0
   23.1366  -20.8842  -12.9910 C   0  0  0  0  0  0  0  0  0  0  0  0
   22.7342  -19.7836  -13.4139 O   0  0  0  0  0  0  0  0  0  0  0  0
   20.7357  -24.1794  -13.3200 O   0  0  0  0  0  0  0  0  0  0  0  0
   20.5372  -23.1834  -14.2841 C   0  0  0  0  0  0  0  0  0  0  0  0
   20.9150  -21.8108  -13.7136 C   0  0  2  0  0  0  0  0  0  0  0  0
   22.2412  -21.9862  -13.1368 N   0  0  0  0  0  0  0  0  0  0  0  0
   19.9230  -21.4902  -12.6713 C   0  0  0  0  0  0  0  0  0  0  0  0
   18.6127  -21.1808  -12.9093 O   0  0  0  0  0  0  0  0  0  0  0  0
   20.3193  -21.5032  -11.4590 O   0  0  0  0  0  0  0  0  0  0  0  0
  2  1  1  6
  3  2  1  0
  3  4  1  0
  4 12  1  0
  5  4  2  0
  5  6  1  0
  6  7  1  0
  7  8  1  0
  8  9  2  0
 10  9  1  0
 11 10  2  0
 12  7  2  0
 12 11  1  0
 13  2  1  0
 13 14  2  0
 16 15  1  1
 16 18  1  0
 16 17  1  0
 17 13  1  0
 18 23  1  0
 19 18  2  0
 21 20  1  0
 22 21  1  1
 22 24  1  0
 23 22  1  0
 24 26  2  0
 24 25  1  0
M  END
$$$$
