WAS.pdb
     RDKit          3D

 26 27  0  0  1  0  0  0  0  0999 V2000
   27.0122  -22.7754  -10.0011 N   0  0  0  0  0  0  0  0  0  0  0  0
   26.3687  -21.5371   -9.6319 C   0  0  1  0  0  0  0  0  0  0  0  0
   27.3000  -20.3386   -9.6705 C   0  0  0  0  0  0  0  0  0  0  0  0
   28.3233  -20.3460   -8.6147 C   0  0  0  0  0  0  0  0  0  0  0  0
   29.6785  -20.5216   -8.7811 C   0  0  0  0  0  0  0  0  0  0  0  0
   30.3027  -20.4907   -7.5914 N   0  0  0  0  0  0  0  0  0  0  0  0
   29.3757  -20.2952   -6.6309 C   0  0  0  0  0  0  0  0  0  0  0  0
   29.5411  -20.1887   -5.2620 C   0  0  0  0  0  0  0  0  0  0  0  0
   28.4024  -19.9789   -4.4932 C   0  0  0  0  0  0  0  0  0  0  0  0
   27.1665  -19.8838   -5.0949 C   0  0  0  0  0  0  0  0  0  0  0  0
   27.0271  -19.9933   -6.4594 C   0  0  0  0  0  0  0  0  0  0  0  0
   28.1425  -20.2020   -7.2381 C   0  0  0  0  0  0  0  0  0  0  0  0
   25.2010  -21.3284  -10.5030 C   0  0  0  0  0  0  0  0  0  0  0  0
   25.3063  -21.5849  -11.7289 O   0  0  0  0  0  0  0  0  0  0  0  0
   21.6572  -20.2173  -10.0688 C   0  0  0  0  0  0  0  0  0  0  0  0
   22.8402  -20.7557  -10.8805 C   0  0  2  0  0  0  0  0  0  0  0  0
   23.9446  -20.8408   -9.9876 N   0  0  0  0  0  0  0  0  0  0  0  0
   23.0524  -19.8621  -12.0365 C   0  0  0  0  0  0  0  0  0  0  0  0
   23.6355  -18.7614  -12.0121 O   0  0  0  0  0  0  0  0  0  0  0  0
   22.7828  -21.5701  -15.5283 O   0  0  0  0  0  0  0  0  0  0  0  0
   23.2657  -20.2564  -15.5697 C   0  0  0  0  0  0  0  0  0  0  0  0
   22.6077  -19.4148  -14.4692 C   0  0  2  0  0  0  0  0  0  0  0  0
   22.5486  -20.2858  -13.3030 N   0  0  0  0  0  0  0  0  0  0  0  0
   21.2542  -19.0711  -14.9417 C   0  0  0  0  0  0  0  0  0  0  0  0
   20.9820  -18.2542  -16.0037 O   0  0  0  0  0  0  0  0  0  0  0  0
   20.2662  -19.5745  -14.3113 O   0  0  0  0  0  0  0  0  0  0  0  0
  2  1  1  6
  3  2  1  0
  3  4  1  0
  4 12  1  0
  5  4  2  0
  5  6  1  0
  6  7  1  0
  7  8  1  0
  8  9  2  0
 10  9  1  0
 11 10  2  0
 12  7  2  0
 12 11  1  0
 13  2  1  0
 13 14  2  0
 16 15  1  1
 16 18  1  0
 16 17  1  0
 17 13  1  0
 18 23  1  0
 19 18  2  0
 21 20  1  0
 22 21  1  6
 22 24  1  0
 23 22  1  0
 24 26  2  0
 24 25  1  0
M  END
$$$$
