WAS.pdb
     RDKit          3D

 26 27  0  0  1  0  0  0  0  0999 V2000
   27.7012  -22.2493  -11.0096 N   0  0  0  0  0  0  0  0  0  0  0  0
   26.6152  -21.4895  -10.4376 C   0  0  1  0  0  0  0  0  0  0  0  0
   27.0595  -20.1792   -9.8124 C   0  0  0  0  0  0  0  0  0  0  0  0
   28.0657  -20.3369   -8.7519 C   0  0  0  0  0  0  0  0  0  0  0  0
   29.4137  -20.5593   -8.9209 C   0  0  0  0  0  0  0  0  0  0  0  0
   30.0211  -20.6730   -7.7275 N   0  0  0  0  0  0  0  0  0  0  0  0
   29.0900  -20.5278   -6.7620 C   0  0  0  0  0  0  0  0  0  0  0  0
   29.2400  -20.5619   -5.3877 C   0  0  0  0  0  0  0  0  0  0  0  0
   28.1009  -20.3740   -4.6137 C   0  0  0  0  0  0  0  0  0  0  0  0
   26.8796  -20.1630   -5.2159 C   0  0  0  0  0  0  0  0  0  0  0  0
   26.7555  -20.1333   -6.5859 C   0  0  0  0  0  0  0  0  0  0  0  0
   27.8715  -20.3182   -7.3698 C   0  0  0  0  0  0  0  0  0  0  0  0
   25.5945  -21.2628  -11.4733 C   0  0  0  0  0  0  0  0  0  0  0  0
   25.9526  -20.7988  -12.5851 O   0  0  0  0  0  0  0  0  0  0  0  0
   22.0517  -22.1962  -12.0225 C   0  0  0  0  0  0  0  0  0  0  0  0
   23.2839  -21.3316  -12.3098 C   0  0  2  0  0  0  0  0  0  0  0  0
   24.2009  -21.5593  -11.2461 N   0  0  0  0  0  0  0  0  0  0  0  0
   22.8423  -19.9298  -12.4505 C   0  0  0  0  0  0  0  0  0  0  0  0
   22.6875  -19.1153  -11.5205 O   0  0  0  0  0  0  0  0  0  0  0  0
   22.1634  -18.7826  -16.2975 O   0  0  0  0  0  0  0  0  0  0  0  0
   22.5381  -17.7511  -15.4279 C   0  0  0  0  0  0  0  0  0  0  0  0
   22.1109  -18.0857  -13.9934 C   0  0  2  0  0  0  0  0  0  0  0  0
   22.5640  -19.4515  -13.7662 N   0  0  0  0  0  0  0  0  0  0  0  0
   20.6396  -18.0028  -13.9523 C   0  0  0  0  0  0  0  0  0  0  0  0
   19.9233  -16.8384  -13.9394 O   0  0  0  0  0  0  0  0  0  0  0  0
   19.9897  -19.1000  -13.9268 O   0  0  0  0  0  0  0  0  0  0  0  0
  2  1  1  6
  3  2  1  0
  3  4  1  0
  4 12  1  0
  5  4  2  0
  5  6  1  0
  6  7  1  0
  7  8  1  0
  8  9  2  0
 10  9  1  0
 11 10  2  0
 12  7  2  0
 12 11  1  0
 13  2  1  0
 13 14  2  0
 16 15  1  1
 16 18  1  0
 16 17  1  0
 17 13  1  0
 18 23  1  0
 19 18  2  0
 21 20  1  0
 22 21  1  6
 22 24  1  0
 23 22  1  0
 24 26  2  0
 24 25  1  0
M  END
$$$$
