NLM.pdb
     RDKit          3D

 25 24  0  0  1  0  0  0  0  0999 V2000
   23.8203  -32.3599  -14.5498 N   0  0  0  0  0  0  0  0  0  0  0  0
   23.2424  -33.4227  -13.8318 C   0  0  0  0  0  0  0  0  0  0  0  0
   23.9638  -34.3130  -13.3505 O   0  0  0  0  0  0  0  0  0  0  0  0
   21.7827  -33.4801  -13.6508 C   0  0  0  0  0  0  0  0  0  0  0  0
   21.3221  -32.8722  -12.3491 C   0  0  2  0  0  0  0  0  0  0  0  0
   21.5930  -31.4507  -12.2891 N   0  0  0  0  0  0  0  0  0  0  0  0
   21.9884  -33.5041  -11.1793 C   0  0  0  0  0  0  0  0  0  0  0  0
   21.9098  -34.7649  -10.9757 O   0  0  0  0  0  0  0  0  0  0  0  0
   26.3732  -34.5851   -9.0682 C   0  0  0  0  0  0  0  0  0  0  0  0
   25.9064  -33.2885   -9.6172 C   0  0  2  0  0  0  0  0  0  0  0  0
   27.0343  -32.2625   -9.3463 C   0  0  0  0  0  0  0  0  0  0  0  0
   24.6986  -32.7528   -9.0071 C   0  0  0  0  0  0  0  0  0  0  0  0
   23.3894  -33.4726   -9.0605 C   0  0  2  0  0  0  0  0  0  0  0  0
   22.7341  -32.7865  -10.2341 N   0  0  0  0  0  0  0  0  0  0  0  0
   22.4976  -33.1700   -7.9499 C   0  0  0  0  0  0  0  0  0  0  0  0
   22.1231  -31.9497   -7.7871 O   0  0  0  0  0  0  0  0  0  0  0  0
   16.2186  -34.4243   -3.4564 C   0  0  0  0  0  0  0  0  0  0  0  0
   17.3726  -35.0331   -4.6887 S   0  0  0  0  0  0  0  0  0  0  0  0
   18.8700  -34.0448   -4.7923 C   0  0  0  0  0  0  0  0  0  0  0  0
   19.8398  -34.4948   -5.8352 C   0  0  0  0  0  0  0  0  0  0  0  0
   21.0738  -33.5970   -5.9463 C   0  0  2  0  0  0  0  0  0  0  0  0
   21.9489  -34.0638   -6.9917 N   0  0  0  0  0  0  0  0  0  0  0  0
   21.7170  -33.6437   -4.6288 C   0  0  0  0  0  0  0  0  0  0  0  0
   22.5923  -34.5293   -4.3481 O   0  0  0  0  0  0  0  0  0  0  0  0
   21.4093  -32.7421   -3.6456 O   0  0  0  0  0  0  0  0  0  0  0  0
  1  2  1  0
  2  3  2  0
  2  4  1  0
  5  6  1  6
  5  4  1  0
  7  5  1  0
  8  7  2  0
 10  9  1  1
 10 12  1  0
 11 10  1  0
 13 12  1  1
 13 14  1  0
 14  7  1  0
 15 13  1  0
 15 16  2  0
 18 17  1  0
 19 20  1  0
 19 18  1  0
 21 20  1  1
 21 22  1  0
 22 15  1  0
 23 21  1  0
 24 23  2  0
 25 23  1  0
M  END
$$$$
