NLM.pdb
     RDKit          3D

 25 24  0  0  1  0  0  0  0  0999 V2000
   13.8904  -25.8515   -2.8845 N   0  0  0  0  0  0  0  0  0  0  0  0
   14.9180  -25.9468   -1.9284 C   0  0  0  0  0  0  0  0  0  0  0  0
   15.4489  -27.0457   -1.6935 O   0  0  0  0  0  0  0  0  0  0  0  0
   15.3644  -24.7444   -1.2062 C   0  0  0  0  0  0  0  0  0  0  0  0
   14.6108  -23.4995   -1.6041 C   0  0  2  0  0  0  0  0  0  0  0  0
   14.8896  -23.1110   -2.9712 N   0  0  0  0  0  0  0  0  0  0  0  0
   14.9544  -22.3447   -0.7322 C   0  0  0  0  0  0  0  0  0  0  0  0
   15.9906  -21.6296   -0.9609 O   0  0  0  0  0  0  0  0  0  0  0  0
   13.1166  -18.5812    3.1633 C   0  0  0  0  0  0  0  0  0  0  0  0
   12.7440  -18.8125    1.7462 C   0  0  2  0  0  0  0  0  0  0  0  0
   11.2085  -18.6310    1.6580 C   0  0  0  0  0  0  0  0  0  0  0  0
   13.0377  -20.1428    1.2344 C   0  0  0  0  0  0  0  0  0  0  0  0
   14.4357  -20.6529    1.0903 C   0  0  2  0  0  0  0  0  0  0  0  0
   14.1904  -21.9606    0.3782 N   0  0  0  0  0  0  0  0  0  0  0  0
   15.0532  -21.0605    2.3444 C   0  0  0  0  0  0  0  0  0  0  0  0
   14.6052  -22.1170    2.9265 O   0  0  0  0  0  0  0  0  0  0  0  0
   19.9348  -24.9102    2.4664 C   0  0  0  0  0  0  0  0  0  0  0  0
   19.8344  -23.3369    3.3240 S   0  0  0  0  0  0  0  0  0  0  0  0
   18.1474  -22.7431    3.4994 C   0  0  0  0  0  0  0  0  0  0  0  0
   18.0191  -21.4428    4.2227 C   0  0  0  0  0  0  0  0  0  0  0  0
   16.5778  -20.9377    4.3154 C   0  0  2  0  0  0  0  0  0  0  0  0
   16.1295  -20.4446    3.0377 N   0  0  0  0  0  0  0  0  0  0  0  0
   16.5923  -19.8851    5.3369 C   0  0  0  0  0  0  0  0  0  0  0  0
   16.4183  -18.6586    5.0292 O   0  0  0  0  0  0  0  0  0  0  0  0
   16.7909  -20.1704    6.6611 O   0  0  0  0  0  0  0  0  0  0  0  0
  1  2  1  0
  2  3  2  0
  2  4  1  0
  5  6  1  6
  5  4  1  0
  7  5  1  0
  8  7  2  0
 10  9  1  1
 10 12  1  0
 11 10  1  0
 13 12  1  1
 13 14  1  0
 14  7  1  0
 15 13  1  0
 15 16  2  0
 18 17  1  0
 19 20  1  0
 19 18  1  0
 21 20  1  6
 21 22  1  0
 22 15  1  0
 23 21  1  0
 24 23  2  0
 25 23  1  0
M  END
$$$$
