NLM.pdb
     RDKit          3D

 25 24  0  0  1  0  0  0  0  0999 V2000
   17.8795  -12.8802  -18.6177 N   0  0  0  0  0  0  0  0  0  0  0  0
   18.7250  -13.5394  -17.7069 C   0  0  0  0  0  0  0  0  0  0  0  0
   18.6265  -14.7675  -17.5437 O   0  0  0  0  0  0  0  0  0  0  0  0
   19.7268  -12.7739  -16.9470 C   0  0  0  0  0  0  0  0  0  0  0  0
   19.6515  -11.2878  -17.1957 C   0  0  2  0  0  0  0  0  0  0  0  0
   20.2240  -10.9229  -18.4751 N   0  0  0  0  0  0  0  0  0  0  0  0
   20.3712  -10.5163  -16.1475 C   0  0  0  0  0  0  0  0  0  0  0  0
   19.8911  -10.3988  -14.9672 O   0  0  0  0  0  0  0  0  0  0  0  0
   24.1534  -11.3971  -14.0397 C   0  0  0  0  0  0  0  0  0  0  0  0
   24.2125  -10.8212  -15.4054 C   0  0  2  0  0  0  0  0  0  0  0  0
   25.7078  -10.7893  -15.8070 C   0  0  0  0  0  0  0  0  0  0  0  0
   23.7175   -9.4582  -15.5282 C   0  0  0  0  0  0  0  0  0  0  0  0
   22.2890   -9.1004  -15.2701 C   0  0  2  0  0  0  0  0  0  0  0  0
   21.5983   -9.8752  -16.3655 N   0  0  0  0  0  0  0  0  0  0  0  0
   21.9577   -7.7154  -15.5739 C   0  0  0  0  0  0  0  0  0  0  0  0
   22.4680   -6.7931  -14.8357 O   0  0  0  0  0  0  0  0  0  0  0  0
   20.8410   -1.6435  -20.4032 C   0  0  0  0  0  0  0  0  0  0  0  0
   21.1728   -3.3903  -20.1593 S   0  0  0  0  0  0  0  0  0  0  0  0
   20.9468   -3.9132  -18.4549 C   0  0  0  0  0  0  0  0  0  0  0  0
   21.1848   -5.3679  -18.2151 C   0  0  0  0  0  0  0  0  0  0  0  0
   20.9004   -5.8018  -16.7757 C   0  0  2  0  0  0  0  0  0  0  0  0
   21.1321   -7.2151  -16.6162 N   0  0  0  0  0  0  0  0  0  0  0  0
   19.5009   -5.4420  -16.5232 C   0  0  0  0  0  0  0  0  0  0  0  0
   18.5697   -6.3127  -16.5858 O   0  0  0  0  0  0  0  0  0  0  0  0
   19.1327   -4.1614  -16.2090 O   0  0  0  0  0  0  0  0  0  0  0  0
  1  2  1  0
  2  3  2  0
  2  4  1  0
  5  6  1  6
  5  4  1  0
  7  5  1  0
  8  7  2  0
 10  9  1  1
 10 12  1  0
 11 10  1  0
 13 12  1  6
 13 14  1  0
 14  7  1  0
 15 13  1  0
 15 16  2  0
 18 17  1  0
 19 20  1  0
 19 18  1  0
 21 20  1  6
 21 22  1  0
 22 15  1  0
 23 21  1  0
 24 23  2  0
 25 23  1  0
M  END
$$$$
