NLM.pdb
     RDKit          3D

 25 24  0  0  1  0  0  0  0  0999 V2000
   15.5967  -11.1637  -17.5867 N   0  0  0  0  0  0  0  0  0  0  0  0
   15.9645  -11.6447  -16.3168 C   0  0  0  0  0  0  0  0  0  0  0  0
   15.2021  -12.4039  -15.6947 O   0  0  0  0  0  0  0  0  0  0  0  0
   17.2527  -11.2485  -15.7251 C   0  0  0  0  0  0  0  0  0  0  0  0
   18.0493  -10.3184  -16.6063 C   0  0  2  0  0  0  0  0  0  0  0  0
   18.6641  -11.0174  -17.7159 N   0  0  0  0  0  0  0  0  0  0  0  0
   19.1341   -9.6374  -15.8506 C   0  0  0  0  0  0  0  0  0  0  0  0
   18.9137   -9.1181  -14.7021 O   0  0  0  0  0  0  0  0  0  0  0  0
   23.3435  -11.0787  -14.0293 C   0  0  0  0  0  0  0  0  0  0  0  0
   23.0439  -10.9803  -15.4787 C   0  0  2  0  0  0  0  0  0  0  0  0
   24.3222  -11.4344  -16.2258 C   0  0  0  0  0  0  0  0  0  0  0  0
   22.7310   -9.6431  -15.9604 C   0  0  0  0  0  0  0  0  0  0  0  0
   21.5328   -8.8837  -15.4884 C   0  0  2  0  0  0  0  0  0  0  0  0
   20.4471   -9.5146  -16.3254 N   0  0  0  0  0  0  0  0  0  0  0  0
   21.5116   -7.4877  -15.9021 C   0  0  0  0  0  0  0  0  0  0  0  0
   21.3963   -7.2281  -17.1572 O   0  0  0  0  0  0  0  0  0  0  0  0
   18.1032   -1.1723  -17.6827 C   0  0  0  0  0  0  0  0  0  0  0  0
   18.2180   -2.7585  -16.8510 S   0  0  0  0  0  0  0  0  0  0  0  0
   19.9121   -3.2377  -16.4910 C   0  0  0  0  0  0  0  0  0  0  0  0
   20.0617   -4.6118  -15.9252 C   0  0  0  0  0  0  0  0  0  0  0  0
   21.5161   -5.0049  -15.6584 C   0  0  2  0  0  0  0  0  0  0  0  0
   21.5884   -6.3262  -15.0878 N   0  0  0  0  0  0  0  0  0  0  0  0
   22.0414   -3.9826  -14.7469 C   0  0  0  0  0  0  0  0  0  0  0  0
   21.9567   -4.1156  -13.4803 O   0  0  0  0  0  0  0  0  0  0  0  0
   22.6449   -2.8453  -15.2124 O   0  0  0  0  0  0  0  0  0  0  0  0
  1  2  1  0
  2  3  2  0
  2  4  1  0
  5  6  1  6
  5  4  1  0
  7  5  1  0
  8  7  2  0
 10  9  1  1
 10 12  1  0
 11 10  1  0
 13 12  1  6
 13 14  1  0
 14  7  1  0
 15 13  1  0
 15 16  2  0
 18 17  1  0
 19 20  1  0
 19 18  1  0
 21 20  1  1
 21 22  1  0
 22 15  1  0
 23 21  1  0
 24 23  2  0
 25 23  1  0
M  END
$$$$
