NLM.pdb
     RDKit          3D

 25 24  0  0  1  0  0  0  0  0999 V2000
   21.0861  -20.3158  -14.7732 N   0  0  0  0  0  0  0  0  0  0  0  0
   22.0065  -19.6947  -13.9093 C   0  0  0  0  0  0  0  0  0  0  0  0
   21.9369  -18.4712  -13.7021 O   0  0  0  0  0  0  0  0  0  0  0  0
   23.0522  -20.4945  -13.2507 C   0  0  0  0  0  0  0  0  0  0  0  0
   24.4488  -20.0164  -13.5619 C   0  0  2  0  0  0  0  0  0  0  0  0
   24.8086  -20.2571  -14.9440 N   0  0  0  0  0  0  0  0  0  0  0  0
   25.4649  -20.6916  -12.7112 C   0  0  0  0  0  0  0  0  0  0  0  0
   25.7223  -21.9370  -12.8523 O   0  0  0  0  0  0  0  0  0  0  0  0
   29.3718  -18.5169   -8.5732 C   0  0  0  0  0  0  0  0  0  0  0  0
   28.9273  -19.7820   -9.2076 C   0  0  2  0  0  0  0  0  0  0  0  0
   30.1987  -20.4651   -9.7689 C   0  0  0  0  0  0  0  0  0  0  0  0
   28.0073  -19.6286  -10.3247 C   0  0  0  0  0  0  0  0  0  0  0  0
   27.2001  -20.7686  -10.8576 C   0  0  2  0  0  0  0  0  0  0  0  0
   26.1996  -20.0335  -11.7155 N   0  0  0  0  0  0  0  0  0  0  0  0
   26.3705  -21.4287   -9.8594 C   0  0  0  0  0  0  0  0  0  0  0  0
   26.6050  -22.6665   -9.5974 O   0  0  0  0  0  0  0  0  0  0  0  0
   27.3254  -21.5435   -3.1916 C   0  0  0  0  0  0  0  0  0  0  0  0
   26.1011  -20.4760   -3.9548 S   0  0  0  0  0  0  0  0  0  0  0  0
   25.2500  -21.2603   -5.3296 C   0  0  0  0  0  0  0  0  0  0  0  0
   25.6463  -20.7514   -6.6766 C   0  0  0  0  0  0  0  0  0  0  0  0
   24.9217  -21.4509   -7.8285 C   0  0  2  0  0  0  0  0  0  0  0  0
   25.3080  -20.8786   -9.0934 N   0  0  0  0  0  0  0  0  0  0  0  0
   23.4903  -21.2760   -7.5599 C   0  0  0  0  0  0  0  0  0  0  0  0
   22.7675  -20.5117   -8.2829 O   0  0  0  0  0  0  0  0  0  0  0  0
   22.8678  -21.9233   -6.5265 O   0  0  0  0  0  0  0  0  0  0  0  0
  1  2  1  0
  2  3  2  0
  2  4  1  0
  5  6  1  6
  5  4  1  0
  7  5  1  0
  8  7  2  0
 10  9  1  6
 10 12  1  0
 11 10  1  0
 13 12  1  1
 13 14  1  0
 14  7  1  0
 15 13  1  0
 15 16  2  0
 18 17  1  0
 19 20  1  0
 19 18  1  0
 21 20  1  1
 21 22  1  0
 22 15  1  0
 23 21  1  0
 24 23  2  0
 25 23  1  0
M  END
$$$$
