NLM.pdb
     RDKit          3D

 25 24  0  0  1  0  0  0  0  0999 V2000
   12.3630  -20.8862    3.3256 N   0  0  0  0  0  0  0  0  0  0  0  0
   13.3713  -21.8034    3.6737 C   0  0  0  0  0  0  0  0  0  0  0  0
   13.0980  -22.7906    4.3776 O   0  0  0  0  0  0  0  0  0  0  0  0
   14.7504  -21.5938    3.2037 C   0  0  0  0  0  0  0  0  0  0  0  0
   14.9175  -20.3273    2.4011 C   0  0  2  0  0  0  0  0  0  0  0  0
   15.0254  -20.5955    0.9819 N   0  0  0  0  0  0  0  0  0  0  0  0
   16.1334  -19.5735    2.8074 C   0  0  0  0  0  0  0  0  0  0  0  0
   17.3044  -20.0186    2.5466 O   0  0  0  0  0  0  0  0  0  0  0  0
   18.9258  -14.8779    3.4018 C   0  0  0  0  0  0  0  0  0  0  0  0
   17.5139  -15.1199    3.0165 C   0  0  2  0  0  0  0  0  0  0  0  0
   16.7455  -13.8072    3.3074 C   0  0  0  0  0  0  0  0  0  0  0  0
   16.8378  -16.1733    3.7588 C   0  0  0  0  0  0  0  0  0  0  0  0
   17.3505  -17.5772    3.8004 C   0  0  2  0  0  0  0  0  0  0  0  0
   16.0920  -18.3499    3.4896 N   0  0  0  0  0  0  0  0  0  0  0  0
   17.7120  -18.0399    5.1329 C   0  0  0  0  0  0  0  0  0  0  0  0
   16.7643  -18.2880    5.9673 O   0  0  0  0  0  0  0  0  0  0  0  0
   20.7356  -23.8745    5.5308 C   0  0  0  0  0  0  0  0  0  0  0  0
   21.2519  -22.3299    6.2849 S   0  0  0  0  0  0  0  0  0  0  0  0
   19.9358  -21.1077    6.3458 C   0  0  0  0  0  0  0  0  0  0  0  0
   20.3033  -19.8335    7.0325 C   0  0  0  0  0  0  0  0  0  0  0  0
   19.1925  -18.7819    6.9988 C   0  0  2  0  0  0  0  0  0  0  0  0
   19.0090  -18.2798    5.6605 N   0  0  0  0  0  0  0  0  0  0  0  0
   19.6162  -17.7289    7.9280 C   0  0  0  0  0  0  0  0  0  0  0  0
   19.9710  -16.5766    7.5088 O   0  0  0  0  0  0  0  0  0  0  0  0
   19.6484  -17.9337    9.2812 O   0  0  0  0  0  0  0  0  0  0  0  0
  1  2  1  0
  2  3  2  0
  2  4  1  0
  5  6  1  6
  5  4  1  0
  7  5  1  0
  8  7  2  0
 10  9  1  1
 10 12  1  0
 11 10  1  0
 13 12  1  1
 13 14  1  0
 14  7  1  0
 15 13  1  0
 15 16  2  0
 18 17  1  0
 19 20  1  0
 19 18  1  0
 21 20  1  6
 21 22  1  0
 22 15  1  0
 23 21  1  0
 24 23  2  0
 25 23  1  0
M  END
$$$$
