NLM.pdb
     RDKit          3D

 25 24  0  0  1  0  0  0  0  0999 V2000
   27.8212  -19.4787  -18.5897 N   0  0  0  0  0  0  0  0  0  0  0  0
   27.7951  -19.1258  -17.2281 C   0  0  0  0  0  0  0  0  0  0  0  0
   28.5741  -18.2596  -16.7952 O   0  0  0  0  0  0  0  0  0  0  0  0
   26.8446  -19.7828  -16.3162 C   0  0  0  0  0  0  0  0  0  0  0  0
   27.5000  -20.7827  -15.3960 C   0  0  2  0  0  0  0  0  0  0  0  0
   27.9215  -21.9745  -16.1030 N   0  0  0  0  0  0  0  0  0  0  0  0
   26.5844  -21.2105  -14.3049 C   0  0  0  0  0  0  0  0  0  0  0  0
   25.6864  -22.0994  -14.5065 O   0  0  0  0  0  0  0  0  0  0  0  0
   26.1763  -19.5616   -8.4180 C   0  0  0  0  0  0  0  0  0  0  0  0
   25.5120  -20.3594   -9.4775 C   0  0  2  0  0  0  0  0  0  0  0  0
   25.3860  -21.8027   -8.9302 C   0  0  0  0  0  0  0  0  0  0  0  0
   26.2382  -20.4513  -10.7353 C   0  0  0  0  0  0  0  0  0  0  0  0
   25.6771  -21.1484  -11.9331 C   0  0  2  0  0  0  0  0  0  0  0  0
   26.6329  -20.6867  -13.0058 N   0  0  0  0  0  0  0  0  0  0  0  0
   24.3919  -20.6276  -12.3773 C   0  0  0  0  0  0  0  0  0  0  0  0
   24.3562  -19.4405  -12.8726 O   0  0  0  0  0  0  0  0  0  0  0  0
   22.7178  -20.1653  -17.6315 C   0  0  0  0  0  0  0  0  0  0  0  0
   21.0318  -20.2998  -17.0312 S   0  0  0  0  0  0  0  0  0  0  0  0
   20.9186  -20.2107  -15.2400 C   0  0  0  0  0  0  0  0  0  0  0  0
   22.1051  -20.7560  -14.5151 C   0  0  0  0  0  0  0  0  0  0  0  0
   21.9747  -20.6820  -12.9924 C   0  0  2  0  0  0  0  0  0  0  0  0
   23.1253  -21.2707  -12.3551 N   0  0  0  0  0  0  0  0  0  0  0  0
   20.7378  -21.3998  -12.6659 C   0  0  0  0  0  0  0  0  0  0  0  0
   20.7629  -22.5353  -12.0835 O   0  0  0  0  0  0  0  0  0  0  0  0
   19.5059  -20.8850  -12.9689 O   0  0  0  0  0  0  0  0  0  0  0  0
  1  2  1  0
  2  3  2  0
  2  4  1  0
  5  6  1  6
  5  4  1  0
  7  5  1  0
  8  7  2  0
 10  9  1  1
 10 12  1  0
 11 10  1  0
 13 12  1  1
 13 14  1  0
 14  7  1  0
 15 13  1  0
 15 16  2  0
 18 17  1  0
 19 20  1  0
 19 18  1  0
 21 20  1  6
 21 22  1  0
 22 15  1  0
 23 21  1  0
 24 23  2  0
 25 23  1  0
M  END
$$$$
