GYI.pdb
     RDKit          3D

 25 25  0  0  1  0  0  0  0  0999 V2000
   27.8242  -19.0918  -14.9355 N   0  0  0  0  0  0  0  0  0  0  0  0
   27.7903  -20.1844  -13.9907 C   0  0  0  0  0  0  0  0  0  0  0  0
   26.9825  -19.8181  -12.8083 C   0  0  0  0  0  0  0  0  0  0  0  0
   26.6339  -18.6222  -12.6420 O   0  0  0  0  0  0  0  0  0  0  0  0
   21.3011  -18.8741  -15.3071 O   0  0  0  0  0  0  0  0  0  0  0  0
   22.0431  -19.3995  -14.2571 C   0  0  0  0  0  0  0  0  0  0  0  0
   23.0280  -20.3385  -14.4763 C   0  0  0  0  0  0  0  0  0  0  0  0
   23.7889  -20.8873  -13.4662 C   0  0  0  0  0  0  0  0  0  0  0  0
   23.5938  -20.5105  -12.1540 C   0  0  0  0  0  0  0  0  0  0  0  0
   24.3736  -21.0405  -11.0467 C   0  0  0  0  0  0  0  0  0  0  0  0
   25.7067  -20.4101  -10.7676 C   0  0  2  0  0  0  0  0  0  0  0  0
   26.6150  -20.8183  -11.8836 N   0  0  0  0  0  0  0  0  0  0  0  0
   26.2959  -20.8540   -9.4940 C   0  0  0  0  0  0  0  0  0  0  0  0
   26.6769  -22.0858   -9.4642 O   0  0  0  0  0  0  0  0  0  0  0  0
   22.5891  -19.5542  -11.9374 C   0  0  0  0  0  0  0  0  0  0  0  0
   21.8370  -19.0141  -12.9495 C   0  0  0  0  0  0  0  0  0  0  0  0
   29.3864  -18.1013   -5.8916 C   0  0  0  0  0  0  0  0  0  0  0  0
   28.7646  -19.1282   -6.7817 C   0  0  0  0  0  0  0  0  0  0  0  0
   27.5442  -19.7686   -6.1506 C   0  0  2  0  0  0  0  0  0  0  0  0
   27.9003  -20.5597   -4.9171 C   0  0  0  0  0  0  0  0  0  0  0  0
   26.8919  -20.7545   -7.1215 C   0  0  2  0  0  0  0  0  0  0  0  0
   26.4837  -20.0632   -8.3305 N   0  0  0  0  0  0  0  0  0  0  0  0
   25.6916  -21.2544   -6.4241 C   0  0  0  0  0  0  0  0  0  0  0  0
   24.6395  -20.5734   -6.4640 O   0  0  0  0  0  0  0  0  0  0  0  0
   25.7088  -22.4739   -5.7209 O   0  0  0  0  0  0  0  0  0  0  0  0
  2  3  1  0
  2  1  1  0
  3  4  2  0
  6  7  2  0
  6  5  1  0
  8  7  1  0
  9  8  2  0
 10  9  1  0
 11 10  1  6
 12 11  1  0
 12  3  1  0
 13 22  1  0
 13 11  1  0
 14 13  2  0
 15  9  1  0
 15 16  2  0
 16  6  1  0
 18 17  1  0
 19 20  1  1
 19 18  1  0
 21 19  1  0
 21 22  1  6
 23 25  1  0
 23 21  1  0
 24 23  2  0
M  END
$$$$
