GYI.pdb
     RDKit          3D

 25 25  0  0  1  0  0  0  0  0999 V2000
   22.8067  -24.3971  -13.7838 N   0  0  0  0  0  0  0  0  0  0  0  0
   24.2386  -24.3772  -13.9758 C   0  0  0  0  0  0  0  0  0  0  0  0
   24.6894  -23.0200  -14.3497 C   0  0  0  0  0  0  0  0  0  0  0  0
   23.8385  -22.1426  -14.6417 O   0  0  0  0  0  0  0  0  0  0  0  0
   24.6931  -20.0889   -8.4643 O   0  0  0  0  0  0  0  0  0  0  0  0
   25.3343  -20.2742   -9.6823 C   0  0  0  0  0  0  0  0  0  0  0  0
   25.9809  -21.4549   -9.9784 C   0  0  0  0  0  0  0  0  0  0  0  0
   26.6299  -21.6837  -11.1729 C   0  0  0  0  0  0  0  0  0  0  0  0
   26.6620  -20.7144  -12.1533 C   0  0  0  0  0  0  0  0  0  0  0  0
   27.3159  -20.9003  -13.4390 C   0  0  0  0  0  0  0  0  0  0  0  0
   26.4610  -21.3056  -14.6042 C   0  0  2  0  0  0  0  0  0  0  0  0
   26.0701  -22.7306  -14.3727 N   0  0  0  0  0  0  0  0  0  0  0  0
   27.1664  -21.2137  -15.8927 C   0  0  0  0  0  0  0  0  0  0  0  0
   27.9965  -22.1707  -16.1346 O   0  0  0  0  0  0  0  0  0  0  0  0
   26.0020  -19.5142  -11.8456 C   0  0  0  0  0  0  0  0  0  0  0  0
   25.3590  -19.2960  -10.6536 C   0  0  0  0  0  0  0  0  0  0  0  0
   24.6904  -21.8459  -20.1030 C   0  0  0  0  0  0  0  0  0  0  0  0
   25.7925  -21.7624  -19.0972 C   0  0  0  0  0  0  0  0  0  0  0  0
   26.6214  -20.5039  -19.2600 C   0  0  2  0  0  0  0  0  0  0  0  0
   27.3843  -20.4989  -20.5608 C   0  0  0  0  0  0  0  0  0  0  0  0
   27.6660  -20.4006  -18.1473 C   0  0  2  0  0  0  0  0  0  0  0  0
   27.0104  -20.1954  -16.8690 N   0  0  0  0  0  0  0  0  0  0  0  0
   28.4689  -19.2065  -18.4737 C   0  0  0  0  0  0  0  0  0  0  0  0
   28.0851  -18.0864  -18.0610 O   0  0  0  0  0  0  0  0  0  0  0  0
   29.6494  -19.3043  -19.2346 O   0  0  0  0  0  0  0  0  0  0  0  0
  2  3  1  0
  2  1  1  0
  3  4  2  0
  6  7  2  0
  6  5  1  0
  8  7  1  0
  9  8  2  0
 10  9  1  0
 11 10  1  1
 12 11  1  0
 12  3  1  0
 13 22  1  0
 13 11  1  0
 14 13  2  0
 15  9  1  0
 15 16  2  0
 16  6  1  0
 18 17  1  0
 19 20  1  6
 19 18  1  0
 21 19  1  0
 21 22  1  1
 23 25  1  0
 23 21  1  0
 24 23  2  0
M  END
$$$$
