GYI.pdb
     RDKit          3D

 25 25  0  0  1  0  0  0  0  0999 V2000
   23.8427  -24.6465  -13.8909 N   0  0  0  0  0  0  0  0  0  0  0  0
   24.8248  -24.0101  -13.0436 C   0  0  0  0  0  0  0  0  0  0  0  0
   24.4383  -22.6102  -12.7684 C   0  0  0  0  0  0  0  0  0  0  0  0
   23.6216  -22.0318  -13.5284 O   0  0  0  0  0  0  0  0  0  0  0  0
   19.9798  -22.3625   -7.5253 O   0  0  0  0  0  0  0  0  0  0  0  0
   21.0933  -21.8222   -8.1557 C   0  0  0  0  0  0  0  0  0  0  0  0
   22.3579  -21.9742   -7.6290 C   0  0  0  0  0  0  0  0  0  0  0  0
   23.4910  -21.4560   -8.2190 C   0  0  0  0  0  0  0  0  0  0  0  0
   23.4080  -20.7427   -9.3963 C   0  0  0  0  0  0  0  0  0  0  0  0
   24.5667  -20.1848  -10.0754 C   0  0  0  0  0  0  0  0  0  0  0  0
   24.7254  -20.4775  -11.5389 C   0  0  2  0  0  0  0  0  0  0  0  0
   24.9932  -21.9445  -11.6552 N   0  0  0  0  0  0  0  0  0  0  0  0
   25.8442  -19.7441  -12.1527 C   0  0  0  0  0  0  0  0  0  0  0  0
   26.6709  -19.2062  -11.3216 O   0  0  0  0  0  0  0  0  0  0  0  0
   22.1173  -20.5912   -9.9274 C   0  0  0  0  0  0  0  0  0  0  0  0
   20.9956  -21.1105   -9.3324 C   0  0  0  0  0  0  0  0  0  0  0  0
   30.2140  -20.7368  -11.8570 C   0  0  0  0  0  0  0  0  0  0  0  0
   29.6421  -19.8058  -12.8766 C   0  0  0  0  0  0  0  0  0  0  0  0
   28.4023  -20.3739  -13.5382 C   0  0  2  0  0  0  0  0  0  0  0  0
   28.7348  -21.1208  -14.8054 C   0  0  0  0  0  0  0  0  0  0  0  0
   27.4443  -19.2506  -13.9387 C   0  0  2  0  0  0  0  0  0  0  0  0
   26.0899  -19.5888  -13.5419 N   0  0  0  0  0  0  0  0  0  0  0  0
   27.5122  -19.1847  -15.4112 C   0  0  0  0  0  0  0  0  0  0  0  0
   26.5160  -19.5471  -16.0809 O   0  0  0  0  0  0  0  0  0  0  0  0
   28.6680  -18.7248  -16.0703 O   0  0  0  0  0  0  0  0  0  0  0  0
  2  3  1  0
  2  1  1  0
  3  4  2  0
  6  7  2  0
  6  5  1  0
  8  7  1  0
  9  8  2  0
 10  9  1  0
 11 10  1  1
 12 11  1  0
 12  3  1  0
 13 22  1  0
 13 11  1  0
 14 13  2  0
 15  9  1  0
 15 16  2  0
 16  6  1  0
 18 17  1  0
 19 20  1  6
 19 18  1  0
 21 19  1  0
 21 22  1  6
 23 25  1  0
 23 21  1  0
 24 23  2  0
M  END
$$$$
