GYI.pdb
     RDKit          3D

 25 25  0  0  1  0  0  0  0  0999 V2000
   25.2174  -12.8477  -17.4424 N   0  0  0  0  0  0  0  0  0  0  0  0
   24.6123  -12.2979  -16.2511 C   0  0  0  0  0  0  0  0  0  0  0  0
   23.5671  -11.3164  -16.6102 C   0  0  0  0  0  0  0  0  0  0  0  0
   23.3446  -11.0626  -17.8207 O   0  0  0  0  0  0  0  0  0  0  0  0
   18.2204  -14.8763  -17.9631 O   0  0  0  0  0  0  0  0  0  0  0  0
   18.7768  -13.7636  -17.3454 C   0  0  0  0  0  0  0  0  0  0  0  0
   18.6846  -12.5101  -17.9111 C   0  0  0  0  0  0  0  0  0  0  0  0
   19.2208  -11.3783  -17.3349 C   0  0  0  0  0  0  0  0  0  0  0  0
   19.8921  -11.4513  -16.1324 C   0  0  0  0  0  0  0  0  0  0  0  0
   20.4659  -10.2925  -15.4667 C   0  0  0  0  0  0  0  0  0  0  0  0
   21.7506   -9.7401  -16.0117 C   0  0  2  0  0  0  0  0  0  0  0  0
   22.8345  -10.6790  -15.5867 N   0  0  0  0  0  0  0  0  0  0  0  0
   22.0617   -8.3969  -15.4967 C   0  0  0  0  0  0  0  0  0  0  0  0
   22.5602   -8.3658  -14.3076 O   0  0  0  0  0  0  0  0  0  0  0  0
   19.9828  -12.7307  -15.5617 C   0  0  0  0  0  0  0  0  0  0  0  0
   19.4459  -13.8512  -16.1431 C   0  0  0  0  0  0  0  0  0  0  0  0
   24.2346   -2.8969  -16.9233 C   0  0  0  0  0  0  0  0  0  0  0  0
   23.5057   -3.7702  -15.9540 C   0  0  0  0  0  0  0  0  0  0  0  0
   23.1309   -5.1083  -16.5595 C   0  0  2  0  0  0  0  0  0  0  0  0
   22.2041   -4.9508  -17.7386 C   0  0  0  0  0  0  0  0  0  0  0  0
   22.3867   -5.9707  -15.5384 C   0  0  2  0  0  0  0  0  0  0  0  0
   21.8737   -7.1671  -16.1798 N   0  0  0  0  0  0  0  0  0  0  0  0
   21.2522   -5.1451  -15.0817 C   0  0  0  0  0  0  0  0  0  0  0  0
   20.1192   -5.3420  -15.5813 O   0  0  0  0  0  0  0  0  0  0  0  0
   21.4206   -4.1486  -14.1017 O   0  0  0  0  0  0  0  0  0  0  0  0
  2  3  1  0
  2  1  1  0
  3  4  2  0
  6  7  2  0
  6  5  1  0
  8  7  1  0
  9  8  2  0
 10  9  1  0
 11 10  1  1
 12 11  1  0
 12  3  1  0
 13 22  1  0
 13 11  1  0
 14 13  2  0
 15  9  1  0
 15 16  2  0
 16  6  1  0
 18 17  1  0
 19 20  1  6
 19 18  1  0
 21 19  1  0
 21 22  1  6
 23 25  1  0
 23 21  1  0
 24 23  2  0
M  END
$$$$
