GYI.pdb
     RDKit          3D

 25 25  0  0  1  0  0  0  0  0999 V2000
   27.8972  -21.6902  -15.3501 N   0  0  0  0  0  0  0  0  0  0  0  0
   27.9401  -22.2385  -14.0141 C   0  0  0  0  0  0  0  0  0  0  0  0
   27.4341  -21.2525  -13.0360 C   0  0  0  0  0  0  0  0  0  0  0  0
   27.7733  -20.0469  -13.1392 O   0  0  0  0  0  0  0  0  0  0  0  0
   22.4329  -18.8503  -16.1839 O   0  0  0  0  0  0  0  0  0  0  0  0
   22.9502  -19.2766  -14.9675 C   0  0  0  0  0  0  0  0  0  0  0  0
   22.9520  -20.6100  -14.6185 C   0  0  0  0  0  0  0  0  0  0  0  0
   23.4541  -21.0790  -13.4233 C   0  0  0  0  0  0  0  0  0  0  0  0
   23.9929  -20.2107  -12.4972 C   0  0  0  0  0  0  0  0  0  0  0  0
   24.5521  -20.6446  -11.2267 C   0  0  0  0  0  0  0  0  0  0  0  0
   26.0457  -20.6287  -11.0801 C   0  0  2  0  0  0  0  0  0  0  0  0
   26.5771  -21.6811  -12.0005 N   0  0  0  0  0  0  0  0  0  0  0  0
   26.4911  -20.9318   -9.7104 C   0  0  0  0  0  0  0  0  0  0  0  0
   26.4442  -22.1776   -9.3801 O   0  0  0  0  0  0  0  0  0  0  0  0
   23.9878  -18.8542  -12.8585 C   0  0  0  0  0  0  0  0  0  0  0  0
   23.4854  -18.3972  -14.0504 C   0  0  0  0  0  0  0  0  0  0  0  0
   29.5208  -19.1050   -4.6212 C   0  0  0  0  0  0  0  0  0  0  0  0
   28.6596  -20.0667   -5.3741 C   0  0  0  0  0  0  0  0  0  0  0  0
   28.2167  -19.5109   -6.7129 C   0  0  2  0  0  0  0  0  0  0  0  0
   27.3888  -18.2603   -6.5550 C   0  0  0  0  0  0  0  0  0  0  0  0
   27.3352  -20.5212   -7.4493 C   0  0  2  0  0  0  0  0  0  0  0  0
   26.9625  -19.9984   -8.7508 N   0  0  0  0  0  0  0  0  0  0  0  0
   26.1222  -20.6595   -6.6207 C   0  0  0  0  0  0  0  0  0  0  0  0
   25.0771  -20.0621   -6.9712 O   0  0  0  0  0  0  0  0  0  0  0  0
   26.1199  -21.4456   -5.4527 O   0  0  0  0  0  0  0  0  0  0  0  0
  2  3  1  0
  2  1  1  0
  3  4  2  0
  6  7  2  0
  6  5  1  0
  8  7  1  0
  9  8  2  0
 10  9  1  0
 11 10  1  1
 12 11  1  0
 12  3  1  0
 13 22  1  0
 13 11  1  0
 14 13  2  0
 15  9  1  0
 15 16  2  0
 16  6  1  0
 18 17  1  0
 19 20  1  1
 19 18  1  0
 21 19  1  0
 21 22  1  6
 23 25  1  0
 23 21  1  0
 24 23  2  0
M  END
$$$$
