GYI.pdb
     RDKit          3D

 25 25  0  0  1  0  0  0  0  0999 V2000
   28.1100  -23.1974  -17.9056 N   0  0  0  0  0  0  0  0  0  0  0  0
   28.1469  -21.9787  -17.1303 C   0  0  0  0  0  0  0  0  0  0  0  0
   27.3225  -22.1185  -15.9114 C   0  0  0  0  0  0  0  0  0  0  0  0
   26.5891  -23.1293  -15.7715 O   0  0  0  0  0  0  0  0  0  0  0  0
   24.5046  -20.3496   -7.5938 O   0  0  0  0  0  0  0  0  0  0  0  0
   25.1698  -20.4054   -8.8118 C   0  0  0  0  0  0  0  0  0  0  0  0
   25.8602  -21.5337   -9.1991 C   0  0  0  0  0  0  0  0  0  0  0  0
   26.5345  -21.6346  -10.3973 C   0  0  0  0  0  0  0  0  0  0  0  0
   26.5484  -20.5816  -11.2878 C   0  0  0  0  0  0  0  0  0  0  0  0
   27.2274  -20.6317  -12.5730 C   0  0  0  0  0  0  0  0  0  0  0  0
   26.5212  -21.3126  -13.7089 C   0  0  2  0  0  0  0  0  0  0  0  0
   27.3721  -21.1133  -14.9226 N   0  0  0  0  0  0  0  0  0  0  0  0
   25.1857  -20.7528  -13.9723 C   0  0  0  0  0  0  0  0  0  0  0  0
   25.1772  -19.5784  -14.5053 O   0  0  0  0  0  0  0  0  0  0  0  0
   25.8437  -19.4354  -10.8874 C   0  0  0  0  0  0  0  0  0  0  0  0
   25.1759  -19.3447   -9.6925 C   0  0  0  0  0  0  0  0  0  0  0  0
   22.2089  -21.7826  -17.6418 C   0  0  0  0  0  0  0  0  0  0  0  0
   22.8460  -21.1097  -16.4694 C   0  0  0  0  0  0  0  0  0  0  0  0
   22.0191  -21.2552  -15.2074 C   0  0  2  0  0  0  0  0  0  0  0  0
   20.6913  -20.5494  -15.3221 C   0  0  0  0  0  0  0  0  0  0  0  0
   22.7413  -20.6239  -14.0158 C   0  0  2  0  0  0  0  0  0  0  0  0
   23.9407  -21.3798  -13.7056 N   0  0  0  0  0  0  0  0  0  0  0  0
   21.7989  -20.7310  -12.8855 C   0  0  0  0  0  0  0  0  0  0  0  0
   21.7244  -21.8145  -12.2588 O   0  0  0  0  0  0  0  0  0  0  0  0
   20.9894  -19.6448  -12.5026 O   0  0  0  0  0  0  0  0  0  0  0  0
  2  3  1  0
  2  1  1  0
  3  4  2  0
  6  7  2  0
  6  5  1  0
  8  7  1  0
  9  8  2  0
 10  9  1  0
 11 10  1  1
 12 11  1  0
 12  3  1  0
 13 22  1  0
 13 11  1  0
 14 13  2  0
 15  9  1  0
 15 16  2  0
 16  6  1  0
 18 17  1  0
 19 20  1  6
 19 18  1  0
 21 19  1  0
 21 22  1  1
 23 25  1  0
 23 21  1  0
 24 23  2  0
M  END
$$$$
