GYI.pdb
     RDKit          3D

 25 25  0  0  1  0  0  0  0  0999 V2000
   27.8884  -19.4692  -14.3587 N   0  0  0  0  0  0  0  0  0  0  0  0
   28.0274  -20.4999  -13.3557 C   0  0  0  0  0  0  0  0  0  0  0  0
   27.3226  -20.1108  -12.1161 C   0  0  0  0  0  0  0  0  0  0  0  0
   26.8741  -18.9427  -11.9985 O   0  0  0  0  0  0  0  0  0  0  0  0
   20.7531  -19.8714  -12.9839 O   0  0  0  0  0  0  0  0  0  0  0  0
   21.8287  -20.2557  -12.1936 C   0  0  0  0  0  0  0  0  0  0  0  0
   22.7230  -21.2144  -12.6191 C   0  0  0  0  0  0  0  0  0  0  0  0
   23.8040  -21.6270  -11.8697 C   0  0  0  0  0  0  0  0  0  0  0  0
   24.0465  -21.0835  -10.6257 C   0  0  0  0  0  0  0  0  0  0  0  0
   25.1772  -21.4649   -9.7943 C   0  0  0  0  0  0  0  0  0  0  0  0
   26.4136  -20.6171   -9.8667 C   0  0  2  0  0  0  0  0  0  0  0  0
   27.1642  -21.0582  -11.0828 N   0  0  0  0  0  0  0  0  0  0  0  0
   27.2861  -20.7734   -8.6916 C   0  0  0  0  0  0  0  0  0  0  0  0
   27.9930  -21.8520   -8.6714 O   0  0  0  0  0  0  0  0  0  0  0  0
   23.1320  -20.1080  -10.1979 C   0  0  0  0  0  0  0  0  0  0  0  0
   22.0589  -19.7043  -10.9511 C   0  0  0  0  0  0  0  0  0  0  0  0
   30.4712  -18.2225   -4.0913 C   0  0  0  0  0  0  0  0  0  0  0  0
   29.8276  -19.4082   -4.7343 C   0  0  0  0  0  0  0  0  0  0  0  0
   28.9258  -19.0143   -5.8872 C   0  0  2  0  0  0  0  0  0  0  0  0
   27.7860  -18.1372   -5.4337 C   0  0  0  0  0  0  0  0  0  0  0  0
   28.2906  -20.2535   -6.5204 C   0  0  2  0  0  0  0  0  0  0  0  0
   27.4193  -19.8611   -7.6126 N   0  0  0  0  0  0  0  0  0  0  0  0
   27.4774  -20.8656   -5.4521 C   0  0  0  0  0  0  0  0  0  0  0  0
   26.2369  -20.6830   -5.4541 O   0  0  0  0  0  0  0  0  0  0  0  0
   28.0676  -21.6455   -4.4394 O   0  0  0  0  0  0  0  0  0  0  0  0
  2  3  1  0
  2  1  1  0
  3  4  2  0
  6  7  2  0
  6  5  1  0
  8  7  1  0
  9  8  2  0
 10  9  1  0
 11 10  1  1
 12 11  1  0
 12  3  1  0
 13 22  1  0
 13 11  1  0
 14 13  2  0
 15  9  1  0
 15 16  2  0
 16  6  1  0
 18 17  1  0
 19 20  1  1
 19 18  1  0
 21 19  1  0
 21 22  1  6
 23 25  1  0
 23 21  1  0
 24 23  2  0
M  END
$$$$
