GYI.pdb
     RDKit          3D

 25 25  0  0  1  0  0  0  0  0999 V2000
   26.0967  -24.1549  -16.5441 N   0  0  0  0  0  0  0  0  0  0  0  0
   26.5662  -22.8900  -16.0271 C   0  0  0  0  0  0  0  0  0  0  0  0
   26.0258  -22.6550  -14.6715 C   0  0  0  0  0  0  0  0  0  0  0  0
   25.1161  -23.4006  -14.2290 O   0  0  0  0  0  0  0  0  0  0  0  0
   25.7783  -19.6936   -6.2492 O   0  0  0  0  0  0  0  0  0  0  0  0
   26.0679  -19.9482   -7.5836 C   0  0  0  0  0  0  0  0  0  0  0  0
   26.1320  -18.9288   -8.5091 C   0  0  0  0  0  0  0  0  0  0  0  0
   26.4157  -19.1337   -9.8425 C   0  0  0  0  0  0  0  0  0  0  0  0
   26.6556  -20.4035  -10.3239 C   0  0  0  0  0  0  0  0  0  0  0  0
   26.9753  -20.6830  -11.7149 C   0  0  0  0  0  0  0  0  0  0  0  0
   25.9427  -21.3961  -12.5383 C   0  0  2  0  0  0  0  0  0  0  0  0
   26.5403  -21.5956  -13.8948 N   0  0  0  0  0  0  0  0  0  0  0  0
   24.6940  -20.6302  -12.6813 C   0  0  0  0  0  0  0  0  0  0  0  0
   24.7552  -19.6241  -13.4859 O   0  0  0  0  0  0  0  0  0  0  0  0
   26.5886  -21.4373   -9.3765 C   0  0  0  0  0  0  0  0  0  0  0  0
   26.3051  -21.2232   -8.0515 C   0  0  0  0  0  0  0  0  0  0  0  0
   20.3522  -19.8963  -15.7400 C   0  0  0  0  0  0  0  0  0  0  0  0
   20.7189  -19.6424  -14.3136 C   0  0  0  0  0  0  0  0  0  0  0  0
   21.9259  -20.4507  -13.8808 C   0  0  2  0  0  0  0  0  0  0  0  0
   21.6467  -21.9325  -13.9044 C   0  0  0  0  0  0  0  0  0  0  0  0
   22.3141  -20.1081  -12.4414 C   0  0  2  0  0  0  0  0  0  0  0  0
   23.4598  -20.9006  -12.0347 N   0  0  0  0  0  0  0  0  0  0  0  0
   21.1490  -20.4897  -11.6204 C   0  0  0  0  0  0  0  0  0  0  0  0
   20.1185  -19.7766  -11.6618 O   0  0  0  0  0  0  0  0  0  0  0  0
   21.1760  -21.6324  -10.7986 O   0  0  0  0  0  0  0  0  0  0  0  0
  2  3  1  0
  2  1  1  0
  3  4  2  0
  6  7  2  0
  6  5  1  0
  8  7  1  0
  9  8  2  0
 10  9  1  0
 11 10  1  1
 12 11  1  0
 12  3  1  0
 13 22  1  0
 13 11  1  0
 14 13  2  0
 15  9  1  0
 15 16  2  0
 16  6  1  0
 18 17  1  0
 19 20  1  1
 19 18  1  0
 21 19  1  0
 21 22  1  1
 23 25  1  0
 23 21  1  0
 24 23  2  0
M  END
$$$$
