WKH.pdb
     RDKit          3D

 34 36  0  0  1  0  0  0  0  0999 V2000
    7.1810  -16.8843   23.8164 N   0  0  0  0  0  0  0  0  0  0  0  0
    8.3560  -16.1263   24.1653 C   0  0  1  0  0  0  0  0  0  0  0  0
    8.3055  -15.7558   25.6096 C   0  0  0  0  0  0  0  0  0  0  0  0
    7.2106  -14.7850   25.8256 C   0  0  0  0  0  0  0  0  0  0  0  0
    5.9918  -15.0523   26.4492 C   0  0  0  0  0  0  0  0  0  0  0  0
    5.2591  -13.9367   26.5025 N   0  0  0  0  0  0  0  0  0  0  0  0
    5.9391  -12.9328   25.9386 C   0  0  0  0  0  0  0  0  0  0  0  0
    5.6304  -11.6025   25.7355 C   0  0  0  0  0  0  0  0  0  0  0  0
    6.4973  -10.7305   25.1091 C   0  0  0  0  0  0  0  0  0  0  0  0
    7.7060  -11.2461   24.6851 C   0  0  0  0  0  0  0  0  0  0  0  0
    8.0251  -12.5782   24.8842 C   0  0  0  0  0  0  0  0  0  0  0  0
    7.1531  -13.4423   25.5122 C   0  0  0  0  0  0  0  0  0  0  0  0
    9.5611  -16.9000   23.8021 C   0  0  0  0  0  0  0  0  0  0  0  0
    9.9942  -17.7479   24.6170 O   0  0  0  0  0  0  0  0  0  0  0  0
   10.2671  -16.7474   22.5840 N   0  0  0  0  0  0  0  0  0  0  0  0
   11.5214  -17.4265   22.3613 C   0  0  1  0  0  0  0  0  0  0  0  0
   11.9538  -17.3784   20.9210 C   0  0  0  0  0  0  0  0  0  0  0  0
   11.1535  -18.2743   20.0235 C   0  0  0  0  0  0  0  0  0  0  0  0
   10.9498  -17.7396   18.6462 C   0  0  0  0  0  0  0  0  0  0  0  0
   10.0323  -18.7137   17.9147 C   0  0  0  0  0  0  0  0  0  0  0  0
    9.8148  -18.3130   16.5459 N   0  0  0  0  0  0  0  0  0  0  0  0
   12.5927  -16.7135   23.1466 C   0  0  0  0  0  0  0  0  0  0  0  0
   12.7783  -15.5047   22.8403 O   0  0  0  0  0  0  0  0  0  0  0  0
   13.3332  -17.3699   24.1580 N   0  0  0  0  0  0  0  0  0  0  0  0
   14.2760  -16.6287   24.9587 C   0  0  1  0  0  0  0  0  0  0  0  0
   14.3026  -17.2747   26.3433 C   0  0  0  0  0  0  0  0  0  0  0  0
   13.0079  -17.0915   27.0301 C   0  0  0  0  0  0  0  0  0  0  0  0
   12.0200  -16.1791   26.6494 C   0  0  0  0  0  0  0  0  0  0  0  0
   11.0204  -16.3447   27.5389 N   0  0  0  0  0  0  0  0  0  0  0  0
   11.3442  -17.2952   28.4265 C   0  0  0  0  0  0  0  0  0  0  0  0
   12.5611  -17.7502   28.1123 N   0  0  0  0  0  0  0  0  0  0  0  0
   15.6247  -16.6582   24.3424 C   0  0  0  0  0  0  0  0  0  0  0  0
   16.7180  -15.9583   24.8717 O   0  0  0  0  0  0  0  0  0  0  0  0
   15.8464  -17.3227   23.3038 O   0  0  0  0  0  0  0  0  0  0  0  0
  2  1  1  1
  2 13  1  0
  2  3  1  0
  3  4  1  0
  4  5  2  0
  6  5  1  0
  7  6  1  0
  8  7  2  0
  9  8  1  0
 10  9  2  0
 10 11  1  0
 11 12  2  0
 12  7  1  0
 12  4  1  0
 13 14  2  0
 15 13  1  0
 16 22  1  0
 16 15  1  0
 16 17  1  6
 18 17  1  0
 19 18  1  0
 20 19  1  0
 21 20  1  0
 22 23  2  0
 24 25  1  0
 24 22  1  0
 25 32  1  0
 25 26  1  1
 27 26  1  0
 27 28  2  0
 29 28  1  0
 30 31  2  0
 30 29  1  0
 31 27  1  0
 32 34  2  0
 32 33  1  0
M  END
$$$$
