WKH.pdb
     RDKit          3D

 34 36  0  0  1  0  0  0  0  0999 V2000
    6.7171  -17.7798   24.6221 N   0  0  0  0  0  0  0  0  0  0  0  0
    7.0100  -16.4379   24.1855 C   0  0  1  0  0  0  0  0  0  0  0  0
    7.9204  -15.7771   25.1656 C   0  0  0  0  0  0  0  0  0  0  0  0
    7.1236  -14.9176   26.0680 C   0  0  0  0  0  0  0  0  0  0  0  0
    6.3616  -15.3542   27.1518 C   0  0  0  0  0  0  0  0  0  0  0  0
    5.8056  -14.3049   27.7631 N   0  0  0  0  0  0  0  0  0  0  0  0
    6.1646  -13.1825   27.1310 C   0  0  0  0  0  0  0  0  0  0  0  0
    5.8599  -11.8545   27.3540 C   0  0  0  0  0  0  0  0  0  0  0  0
    6.3440  -10.8410   26.5522 C   0  0  0  0  0  0  0  0  0  0  0  0
    7.1584  -11.2100   25.5001 C   0  0  0  0  0  0  0  0  0  0  0  0
    7.4701  -12.5386   25.2682 C   0  0  0  0  0  0  0  0  0  0  0  0
    6.9828  -13.5448   26.0753 C   0  0  0  0  0  0  0  0  0  0  0  0
    7.5588  -16.4801   22.8144 C   0  0  0  0  0  0  0  0  0  0  0  0
    8.2048  -17.4942   22.4609 O   0  0  0  0  0  0  0  0  0  0  0  0
    7.4032  -15.4426   21.8632 N   0  0  0  0  0  0  0  0  0  0  0  0
    8.0368  -15.5196   20.5683 C   0  0  1  0  0  0  0  0  0  0  0  0
    7.5745  -14.4331   19.6360 C   0  0  0  0  0  0  0  0  0  0  0  0
    8.0891  -14.5841   18.2357 C   0  0  0  0  0  0  0  0  0  0  0  0
    7.5900  -13.5504   17.2836 C   0  0  0  0  0  0  0  0  0  0  0  0
    8.1102  -13.9227   15.8992 C   0  0  0  0  0  0  0  0  0  0  0  0
    7.6358  -13.0079   14.8895 N   0  0  0  0  0  0  0  0  0  0  0  0
    9.5189  -15.3139   20.7527 C   0  0  0  0  0  0  0  0  0  0  0  0
    9.8470  -14.3162   21.4501 O   0  0  0  0  0  0  0  0  0  0  0  0
   10.4679  -16.1905   20.1754 N   0  0  0  0  0  0  0  0  0  0  0  0
   11.5568  -16.7008   20.9711 C   0  0  1  0  0  0  0  0  0  0  0  0
   10.9454  -17.5344   22.0965 C   0  0  0  0  0  0  0  0  0  0  0  0
   12.0023  -18.1736   22.9063 C   0  0  0  0  0  0  0  0  0  0  0  0
   13.3758  -18.0098   22.7062 C   0  0  0  0  0  0  0  0  0  0  0  0
   13.9664  -18.7620   23.6564 N   0  0  0  0  0  0  0  0  0  0  0  0
   13.0381  -19.3650   24.4119 C   0  0  0  0  0  0  0  0  0  0  0  0
   11.8372  -19.0028   23.9503 N   0  0  0  0  0  0  0  0  0  0  0  0
   12.4680  -17.5284   20.1436 C   0  0  0  0  0  0  0  0  0  0  0  0
   12.0102  -18.5446   19.2932 O   0  0  0  0  0  0  0  0  0  0  0  0
   13.7075  -17.3496   20.1711 O   0  0  0  0  0  0  0  0  0  0  0  0
  2  1  1  1
  2 13  1  0
  2  3  1  0
  3  4  1  0
  4  5  2  0
  6  5  1  0
  7  6  1  0
  8  7  2  0
  9  8  1  0
 10  9  2  0
 10 11  1  0
 11 12  2  0
 12  7  1  0
 12  4  1  0
 13 14  2  0
 15 13  1  0
 16 22  1  0
 16 15  1  0
 16 17  1  6
 18 17  1  0
 19 18  1  0
 20 19  1  0
 21 20  1  0
 22 23  2  0
 24 25  1  0
 24 22  1  0
 25 32  1  0
 25 26  1  1
 27 26  1  0
 27 28  2  0
 29 28  1  0
 30 31  2  0
 30 29  1  0
 31 27  1  0
 32 34  2  0
 32 33  1  0
M  END
$$$$
