WKH.pdb
     RDKit          3D

 34 36  0  0  1  0  0  0  0  0999 V2000
    7.7965  -17.3404   25.5567 N   0  0  0  0  0  0  0  0  0  0  0  0
    6.9553  -16.8825   24.4797 C   0  0  1  0  0  0  0  0  0  0  0  0
    6.2754  -15.6150   24.8761 C   0  0  0  0  0  0  0  0  0  0  0  0
    7.1369  -14.8758   25.8243 C   0  0  0  0  0  0  0  0  0  0  0  0
    8.2888  -15.3686   26.4377 C   0  0  0  0  0  0  0  0  0  0  0  0
    8.8331  -14.4186   27.2027 N   0  0  0  0  0  0  0  0  0  0  0  0
    8.0908  -13.3089   27.1264 C   0  0  0  0  0  0  0  0  0  0  0  0
    8.2129  -12.0687   27.7206 C   0  0  0  0  0  0  0  0  0  0  0  0
    7.3052  -11.0524   27.5022 C   0  0  0  0  0  0  0  0  0  0  0  0
    6.2516  -11.3262   26.6528 C   0  0  0  0  0  0  0  0  0  0  0  0
    6.1203  -12.5662   26.0518 C   0  0  0  0  0  0  0  0  0  0  0  0
    7.0329  -13.5756   26.2749 C   0  0  0  0  0  0  0  0  0  0  0  0
    7.7646  -16.7521   23.2505 C   0  0  0  0  0  0  0  0  0  0  0  0
    8.4842  -17.7180   22.9043 O   0  0  0  0  0  0  0  0  0  0  0  0
    7.7829  -15.5988   22.4289 N   0  0  0  0  0  0  0  0  0  0  0  0
    8.1669  -15.6813   21.0398 C   0  0  1  0  0  0  0  0  0  0  0  0
    8.1576  -14.3393   20.3596 C   0  0  0  0  0  0  0  0  0  0  0  0
    8.5840  -14.3912   18.9229 C   0  0  0  0  0  0  0  0  0  0  0  0
    7.8245  -13.4752   18.0239 C   0  0  0  0  0  0  0  0  0  0  0  0
    8.3611  -13.6813   16.6113 C   0  0  0  0  0  0  0  0  0  0  0  0
    7.8647  -12.6768   15.7025 N   0  0  0  0  0  0  0  0  0  0  0  0
    9.5881  -16.1792   20.9694 C   0  0  0  0  0  0  0  0  0  0  0  0
    9.8769  -16.8577   19.9468 O   0  0  0  0  0  0  0  0  0  0  0  0
   10.5256  -15.8961   21.9908 N   0  0  0  0  0  0  0  0  0  0  0  0
   11.8259  -16.5191   21.9700 C   0  0  1  0  0  0  0  0  0  0  0  0
   12.8601  -15.4063   21.8042 C   0  0  0  0  0  0  0  0  0  0  0  0
   13.2686  -15.2794   20.3905 C   0  0  0  0  0  0  0  0  0  0  0  0
   12.7996  -16.0795   19.3451 C   0  0  0  0  0  0  0  0  0  0  0  0
   13.4251  -15.6252   18.2405 N   0  0  0  0  0  0  0  0  0  0  0  0
   14.2371  -14.6065   18.5552 C   0  0  0  0  0  0  0  0  0  0  0  0
   14.1390  -14.3973   19.8717 N   0  0  0  0  0  0  0  0  0  0  0  0
   12.0662  -17.2731   23.2244 C   0  0  0  0  0  0  0  0  0  0  0  0
   11.1160  -17.3632   24.2512 O   0  0  0  0  0  0  0  0  0  0  0  0
   13.1489  -17.8717   23.4214 O   0  0  0  0  0  0  0  0  0  0  0  0
  2  1  1  1
  2 13  1  0
  2  3  1  0
  3  4  1  0
  4  5  2  0
  6  5  1  0
  7  6  1  0
  8  7  2  0
  9  8  1  0
 10  9  2  0
 10 11  1  0
 11 12  2  0
 12  7  1  0
 12  4  1  0
 13 14  2  0
 15 13  1  0
 16 22  1  0
 16 15  1  0
 16 17  1  1
 18 17  1  0
 19 18  1  0
 20 19  1  0
 21 20  1  0
 22 23  2  0
 24 25  1  0
 24 22  1  0
 25 32  1  0
 25 26  1  1
 27 26  1  0
 27 28  2  0
 29 28  1  0
 30 31  2  0
 30 29  1  0
 31 27  1  0
 32 34  2  0
 32 33  1  0
M  END
$$$$
