WKH.pdb
     RDKit          3D

 34 36  0  0  1  0  0  0  0  0999 V2000
    6.4507  -18.3813   24.7361 N   0  0  0  0  0  0  0  0  0  0  0  0
    6.6337  -16.9584   24.5986 C   0  0  1  0  0  0  0  0  0  0  0  0
    7.2520  -16.4082   25.8400 C   0  0  0  0  0  0  0  0  0  0  0  0
    6.5689  -15.1488   26.2077 C   0  0  0  0  0  0  0  0  0  0  0  0
    5.2308  -15.0232   26.5815 C   0  0  0  0  0  0  0  0  0  0  0  0
    4.9642  -13.7486   26.8788 N   0  0  0  0  0  0  0  0  0  0  0  0
    6.0710  -13.0154   26.7182 C   0  0  0  0  0  0  0  0  0  0  0  0
    6.3230  -11.6681   26.8840 C   0  0  0  0  0  0  0  0  0  0  0  0
    7.5645  -11.1143   26.6464 C   0  0  0  0  0  0  0  0  0  0  0  0
    8.5630  -11.9719   26.2291 C   0  0  0  0  0  0  0  0  0  0  0  0
    8.3206  -13.3242   26.0601 C   0  0  0  0  0  0  0  0  0  0  0  0
    7.0770  -13.8692   26.3011 C   0  0  0  0  0  0  0  0  0  0  0  0
    7.4240  -16.6838   23.3809 C   0  0  0  0  0  0  0  0  0  0  0  0
    8.3337  -17.4863   23.0660 O   0  0  0  0  0  0  0  0  0  0  0  0
    7.2216  -15.5648   22.5369 N   0  0  0  0  0  0  0  0  0  0  0  0
    8.0806  -15.3244   21.4019 C   0  0  1  0  0  0  0  0  0  0  0  0
    7.6992  -14.0814   20.6448 C   0  0  0  0  0  0  0  0  0  0  0  0
    8.6033  -13.7826   19.4864 C   0  0  0  0  0  0  0  0  0  0  0  0
    7.9285  -13.8154   18.1569 C   0  0  0  0  0  0  0  0  0  0  0  0
    8.9979  -13.5558   17.1011 C   0  0  0  0  0  0  0  0  0  0  0  0
    8.4608  -13.6524   15.7656 N   0  0  0  0  0  0  0  0  0  0  0  0
    9.4822  -15.0956   21.9080 C   0  0  0  0  0  0  0  0  0  0  0  0
    9.5690  -14.5592   23.0456 O   0  0  0  0  0  0  0  0  0  0  0  0
   10.6162  -15.4638   21.1461 N   0  0  0  0  0  0  0  0  0  0  0  0
   11.7497  -16.0800   21.7902 C   0  0  1  0  0  0  0  0  0  0  0  0
   11.2342  -17.3084   22.5389 C   0  0  0  0  0  0  0  0  0  0  0  0
   12.3495  -18.0382   23.1753 C   0  0  0  0  0  0  0  0  0  0  0  0
   13.4996  -17.4444   23.7024 C   0  0  0  0  0  0  0  0  0  0  0  0
   14.2417  -18.4649   24.1773 N   0  0  0  0  0  0  0  0  0  0  0  0
   13.6124  -19.6298   23.9696 C   0  0  0  0  0  0  0  0  0  0  0  0
   12.4547  -19.3652   23.3562 N   0  0  0  0  0  0  0  0  0  0  0  0
   12.7735  -16.4692   20.7901 C   0  0  0  0  0  0  0  0  0  0  0  0
   14.1488  -16.4444   21.0609 O   0  0  0  0  0  0  0  0  0  0  0  0
   12.4448  -16.8435   19.6407 O   0  0  0  0  0  0  0  0  0  0  0  0
  2  1  1  1
  2 13  1  0
  2  3  1  0
  3  4  1  0
  4  5  2  0
  6  5  1  0
  7  6  1  0
  8  7  2  0
  9  8  1  0
 10  9  2  0
 10 11  1  0
 11 12  2  0
 12  7  1  0
 12  4  1  0
 13 14  2  0
 15 13  1  0
 16 22  1  0
 16 15  1  0
 16 17  1  1
 18 17  1  0
 19 18  1  0
 20 19  1  0
 21 20  1  0
 22 23  2  0
 24 25  1  0
 24 22  1  0
 25 32  1  0
 25 26  1  6
 27 26  1  0
 27 28  2  0
 29 28  1  0
 30 31  2  0
 30 29  1  0
 31 27  1  0
 32 34  2  0
 32 33  1  0
M  END
$$$$
