WKH.pdb
     RDKit          3D

 34 36  0  0  1  0  0  0  0  0999 V2000
    6.1814  -17.8667   24.2719 N   0  0  0  0  0  0  0  0  0  0  0  0
    6.8408  -16.5913   24.1470 C   0  0  1  0  0  0  0  0  0  0  0  0
    7.4494  -16.2090   25.4544 C   0  0  0  0  0  0  0  0  0  0  0  0
    6.7099  -15.0587   26.0183 C   0  0  0  0  0  0  0  0  0  0  0  0
    5.5291  -15.1286   26.7577 C   0  0  0  0  0  0  0  0  0  0  0  0
    5.1617  -13.9015   27.1363 N   0  0  0  0  0  0  0  0  0  0  0  0
    6.0497  -13.0124   26.6791 C   0  0  0  0  0  0  0  0  0  0  0  0
    6.1249  -11.6379   26.7858 C   0  0  0  0  0  0  0  0  0  0  0  0
    7.1468  -10.9076   26.2141 C   0  0  0  0  0  0  0  0  0  0  0  0
    8.1081  -11.6141   25.5189 C   0  0  0  0  0  0  0  0  0  0  0  0
    8.0419  -12.9921   25.4064 C   0  0  0  0  0  0  0  0  0  0  0  0
    7.0177  -13.7140   25.9821 C   0  0  0  0  0  0  0  0  0  0  0  0
    7.8202  -16.6548   23.0427 C   0  0  0  0  0  0  0  0  0  0  0  0
    8.5268  -17.6838   22.9298 O   0  0  0  0  0  0  0  0  0  0  0  0
    8.0170  -15.6223   22.0937 N   0  0  0  0  0  0  0  0  0  0  0  0
    9.0681  -15.7087   21.1079 C   0  0  1  0  0  0  0  0  0  0  0  0
    9.1072  -14.5081   20.2019 C   0  0  0  0  0  0  0  0  0  0  0  0
    8.3068  -14.6778   18.9453 C   0  0  0  0  0  0  0  0  0  0  0  0
    8.5774  -13.6475   17.9015 C   0  0  0  0  0  0  0  0  0  0  0  0
    7.6568  -13.9459   16.7229 C   0  0  0  0  0  0  0  0  0  0  0  0
    7.8718  -13.0243   15.6340 N   0  0  0  0  0  0  0  0  0  0  0  0
   10.3924  -15.7361   21.8279 C   0  0  0  0  0  0  0  0  0  0  0  0
   10.3294  -15.6701   23.0854 O   0  0  0  0  0  0  0  0  0  0  0  0
   11.6175  -15.8302   21.1261 N   0  0  0  0  0  0  0  0  0  0  0  0
   12.7089  -16.5939   21.6782 C   0  0  1  0  0  0  0  0  0  0  0  0
   12.1949  -18.0129   21.9180 C   0  0  0  0  0  0  0  0  0  0  0  0
   11.9472  -18.2427   23.3558 C   0  0  0  0  0  0  0  0  0  0  0  0
   12.0705  -17.2741   24.3558 C   0  0  0  0  0  0  0  0  0  0  0  0
   11.7552  -17.9059   25.5044 N   0  0  0  0  0  0  0  0  0  0  0  0
   11.4515  -19.1879   25.2585 C   0  0  0  0  0  0  0  0  0  0  0  0
   11.5700  -19.3908   23.9426 N   0  0  0  0  0  0  0  0  0  0  0  0
   13.8635  -16.6068   20.7474 C   0  0  0  0  0  0  0  0  0  0  0  0
   15.1595  -16.2423   21.1385 O   0  0  0  0  0  0  0  0  0  0  0  0
   13.7253  -16.9507   19.5508 O   0  0  0  0  0  0  0  0  0  0  0  0
  2  1  1  1
  2 13  1  0
  2  3  1  0
  3  4  1  0
  4  5  2  0
  6  5  1  0
  7  6  1  0
  8  7  2  0
  9  8  1  0
 10  9  2  0
 10 11  1  0
 11 12  2  0
 12  7  1  0
 12  4  1  0
 13 14  2  0
 15 13  1  0
 16 22  1  0
 16 15  1  0
 16 17  1  6
 18 17  1  0
 19 18  1  0
 20 19  1  0
 21 20  1  0
 22 23  2  0
 24 25  1  0
 24 22  1  0
 25 32  1  0
 25 26  1  6
 27 26  1  0
 27 28  2  0
 29 28  1  0
 30 31  2  0
 30 29  1  0
 31 27  1  0
 32 34  2  0
 32 33  1  0
M  END
$$$$
