GNI.pdb
     RDKit          3D

 21 20  0  0  1  0  0  0  0  0999 V2000
   18.1247  -20.0324  -13.7132 N   0  0  0  0  0  0  0  0  0  0  0  0
   19.3464  -19.4187  -14.1394 C   0  0  0  0  0  0  0  0  0  0  0  0
   20.4954  -20.2819  -13.7962 C   0  0  0  0  0  0  0  0  0  0  0  0
   20.8275  -20.4358  -12.5967 O   0  0  0  0  0  0  0  0  0  0  0  0
   24.1503  -23.8465  -13.7890 N   0  0  0  0  0  0  0  0  0  0  0  0
   23.5046  -23.9642  -15.0359 C   0  0  0  0  0  0  0  0  0  0  0  0
   23.7387  -24.9484  -15.7613 O   0  0  0  0  0  0  0  0  0  0  0  0
   22.5591  -22.9296  -15.4778 C   0  0  0  0  0  0  0  0  0  0  0  0
   22.3389  -21.8589  -14.4334 C   0  0  2  0  0  0  0  0  0  0  0  0
   21.2695  -20.9682  -14.7715 N   0  0  0  0  0  0  0  0  0  0  0  0
   23.6028  -21.1288  -14.1377 C   0  0  0  0  0  0  0  0  0  0  0  0
   23.8655  -20.1157  -14.8358 O   0  0  0  0  0  0  0  0  0  0  0  0
   25.6074  -20.8881   -8.9360 C   0  0  0  0  0  0  0  0  0  0  0  0
   25.2227  -20.4911  -10.3400 C   0  0  0  0  0  0  0  0  0  0  0  0
   26.1301  -21.0571  -11.3845 C   0  0  2  0  0  0  0  0  0  0  0  0
   27.4827  -20.3872  -11.2590 C   0  0  0  0  0  0  0  0  0  0  0  0
   25.6426  -20.8428  -12.7941 C   0  0  2  0  0  0  0  0  0  0  0  0
   24.4593  -21.5775  -13.1049 N   0  0  0  0  0  0  0  0  0  0  0  0
   26.7427  -21.3174  -13.6897 C   0  0  0  0  0  0  0  0  0  0  0  0
   27.4900  -20.5111  -14.2977 O   0  0  0  0  0  0  0  0  0  0  0  0
   26.9680  -22.6726  -13.8734 O   0  0  0  0  0  0  0  0  0  0  0  0
  1  2  1  0
  3  4  2  0
  3  2  1  0
  6  8  1  0
  6  5  1  0
  7  6  2  0
  9  8  1  6
  9 11  1  0
  9 10  1  0
 10  3  1  0
 11 12  2  0
 13 14  1  0
 15 14  1  0
 15 16  1  6
 17 15  1  0
 17 18  1  6
 18 11  1  0
 19 17  1  0
 20 19  2  0
 21 19  1  0
M  END
$$$$
