GNI.pdb
     RDKit          3D

 21 20  0  0  1  0  0  0  0  0999 V2000
   18.1910  -12.0394  -15.8691 N   0  0  0  0  0  0  0  0  0  0  0  0
   19.3963  -11.2668  -15.8333 C   0  0  0  0  0  0  0  0  0  0  0  0
   19.1604   -9.9894  -15.1295 C   0  0  0  0  0  0  0  0  0  0  0  0
   18.5919   -9.0423  -15.7232 O   0  0  0  0  0  0  0  0  0  0  0  0
   16.7798   -7.7920  -12.4975 N   0  0  0  0  0  0  0  0  0  0  0  0
   17.5570   -8.3264  -11.4507 C   0  0  0  0  0  0  0  0  0  0  0  0
   17.0389   -8.5226  -10.3359 O   0  0  0  0  0  0  0  0  0  0  0  0
   18.9728   -8.6506  -11.6740 C   0  0  0  0  0  0  0  0  0  0  0  0
   19.3818   -8.5020  -13.1219 C   0  0  2  0  0  0  0  0  0  0  0  0
   19.5502   -9.7623  -13.7811 N   0  0  0  0  0  0  0  0  0  0  0  0
   20.5864   -7.6363  -13.2538 C   0  0  0  0  0  0  0  0  0  0  0  0
   21.6706   -8.0749  -12.7904 O   0  0  0  0  0  0  0  0  0  0  0  0
   23.7086   -4.9070  -17.3629 C   0  0  0  0  0  0  0  0  0  0  0  0
   23.2299   -4.7677  -15.9388 C   0  0  0  0  0  0  0  0  0  0  0  0
   22.0823   -5.6674  -15.6096 C   0  0  2  0  0  0  0  0  0  0  0  0
   20.8873   -5.2431  -16.4378 C   0  0  0  0  0  0  0  0  0  0  0  0
   21.6727   -5.6248  -14.1601 C   0  0  2  0  0  0  0  0  0  0  0  0
   20.4893   -6.3719  -13.8811 N   0  0  0  0  0  0  0  0  0  0  0  0
   21.4088   -4.1863  -13.8464 C   0  0  0  0  0  0  0  0  0  0  0  0
   20.2437   -3.7164  -13.8449 O   0  0  0  0  0  0  0  0  0  0  0  0
   22.4535   -3.3263  -13.5461 O   0  0  0  0  0  0  0  0  0  0  0  0
  1  2  1  0
  3  4  2  0
  3  2  1  0
  6  8  1  0
  6  5  1  0
  7  6  2  0
  9  8  1  1
  9 11  1  0
  9 10  1  0
 10  3  1  0
 11 12  2  0
 13 14  1  0
 15 14  1  0
 15 16  1  6
 17 15  1  0
 17 18  1  6
 18 11  1  0
 19 17  1  0
 20 19  2  0
 21 19  1  0
M  END
$$$$
