GNI.pdb
     RDKit          3D

 21 20  0  0  1  0  0  0  0  0999 V2000
   24.0813  -18.7553  -19.3598 N   0  0  0  0  0  0  0  0  0  0  0  0
   24.1413  -19.1578  -17.9868 C   0  0  0  0  0  0  0  0  0  0  0  0
   22.8411  -19.7179  -17.5640 C   0  0  0  0  0  0  0  0  0  0  0  0
   21.8897  -18.9508  -17.2830 O   0  0  0  0  0  0  0  0  0  0  0  0
   20.5404  -22.0018  -19.5434 N   0  0  0  0  0  0  0  0  0  0  0  0
   20.7181  -23.1722  -18.7791 C   0  0  0  0  0  0  0  0  0  0  0  0
   20.5223  -24.2853  -19.3009 O   0  0  0  0  0  0  0  0  0  0  0  0
   21.1327  -23.0789  -17.3723 C   0  0  0  0  0  0  0  0  0  0  0  0
   21.3764  -21.6534  -16.9315 C   0  0  2  0  0  0  0  0  0  0  0  0
   22.5963  -21.1141  -17.4533 N   0  0  0  0  0  0  0  0  0  0  0  0
   21.2985  -21.5286  -15.4495 C   0  0  0  0  0  0  0  0  0  0  0  0
   22.1949  -22.0930  -14.7709 O   0  0  0  0  0  0  0  0  0  0  0  0
   20.1933  -16.9040  -13.5587 C   0  0  0  0  0  0  0  0  0  0  0  0
   20.8120  -18.2608  -13.3284 C   0  0  0  0  0  0  0  0  0  0  0  0
   19.8156  -19.3085  -12.9480 C   0  0  2  0  0  0  0  0  0  0  0  0
   19.7244  -19.3574  -11.4370 C   0  0  0  0  0  0  0  0  0  0  0  0
   20.1731  -20.6908  -13.4297 C   0  0  2  0  0  0  0  0  0  0  0  0
   20.2458  -20.7970  -14.8510 N   0  0  0  0  0  0  0  0  0  0  0  0
   19.0843  -21.5936  -12.9431 C   0  0  0  0  0  0  0  0  0  0  0  0
   17.9512  -21.6089  -13.4853 O   0  0  0  0  0  0  0  0  0  0  0  0
   19.2999  -22.4449  -11.8708 O   0  0  0  0  0  0  0  0  0  0  0  0
  1  2  1  0
  3  4  2  0
  3  2  1  0
  6  8  1  0
  6  5  1  0
  7  6  2  0
  9  8  1  1
  9 11  1  0
  9 10  1  0
 10  3  1  0
 11 12  2  0
 13 14  1  0
 15 14  1  0
 15 16  1  1
 17 15  1  0
 17 18  1  6
 18 11  1  0
 19 17  1  0
 20 19  2  0
 21 19  1  0
M  END
$$$$
