GNI.pdb
     RDKit          3D

 21 20  0  0  1  0  0  0  0  0999 V2000
   17.6066  -13.1157  -15.7525 N   0  0  0  0  0  0  0  0  0  0  0  0
   16.5839  -12.1668  -16.0762 C   0  0  0  0  0  0  0  0  0  0  0  0
   17.1066  -10.7913  -15.9440 C   0  0  0  0  0  0  0  0  0  0  0  0
   18.0630  -10.4125  -16.6614 O   0  0  0  0  0  0  0  0  0  0  0  0
   17.6073   -5.7890  -15.1246 N   0  0  0  0  0  0  0  0  0  0  0  0
   16.3666   -6.1314  -14.5509 C   0  0  0  0  0  0  0  0  0  0  0  0
   15.6116   -5.2342  -14.1332 O   0  0  0  0  0  0  0  0  0  0  0  0
   15.9661   -7.5414  -14.4463 C   0  0  0  0  0  0  0  0  0  0  0  0
   17.0300   -8.4873  -14.9554 C   0  0  2  0  0  0  0  0  0  0  0  0
   16.5758   -9.8438  -15.0265 N   0  0  0  0  0  0  0  0  0  0  0  0
   18.2860   -8.3586  -14.1654 C   0  0  0  0  0  0  0  0  0  0  0  0
   18.2792   -8.7999  -12.9874 O   0  0  0  0  0  0  0  0  0  0  0  0
   23.6968  -10.2800  -14.4728 C   0  0  0  0  0  0  0  0  0  0  0  0
   22.9116   -9.0687  -14.0334 C   0  0  0  0  0  0  0  0  0  0  0  0
   21.5499   -8.9922  -14.6457 C   0  0  2  0  0  0  0  0  0  0  0  0
   21.7057   -8.7576  -16.1338 C   0  0  0  0  0  0  0  0  0  0  0  0
   20.6969   -7.8793  -14.0939 C   0  0  2  0  0  0  0  0  0  0  0  0
   19.4307   -7.7586  -14.7409 N   0  0  0  0  0  0  0  0  0  0  0  0
   21.4660   -6.6165  -14.3207 C   0  0  0  0  0  0  0  0  0  0  0  0
   22.4483   -6.3065  -13.6016 O   0  0  0  0  0  0  0  0  0  0  0  0
   21.1108   -5.7473  -15.3403 O   0  0  0  0  0  0  0  0  0  0  0  0
  1  2  1  0
  3  4  2  0
  3  2  1  0
  6  8  1  0
  6  5  1  0
  7  6  2  0
  9  8  1  1
  9 11  1  0
  9 10  1  0
 10  3  1  0
 11 12  2  0
 13 14  1  0
 15 14  1  0
 15 16  1  6
 17 15  1  0
 17 18  1  6
 18 11  1  0
 19 17  1  0
 20 19  2  0
 21 19  1  0
M  END
$$$$
