GNI.pdb
     RDKit          3D

 21 20  0  0  1  0  0  0  0  0999 V2000
   16.3786  -19.4029  -20.4159 N   0  0  0  0  0  0  0  0  0  0  0  0
   16.8463  -18.1742  -19.8480 C   0  0  0  0  0  0  0  0  0  0  0  0
   15.8272  -17.6155  -18.9358 C   0  0  0  0  0  0  0  0  0  0  0  0
   14.6235  -17.5816  -19.2860 O   0  0  0  0  0  0  0  0  0  0  0  0
   16.5759  -18.9230  -14.8511 N   0  0  0  0  0  0  0  0  0  0  0  0
   15.3749  -18.2042  -15.0137 C   0  0  0  0  0  0  0  0  0  0  0  0
   14.2837  -18.7900  -14.8881 O   0  0  0  0  0  0  0  0  0  0  0  0
   15.4106  -16.7696  -15.3301 C   0  0  0  0  0  0  0  0  0  0  0  0
   15.1607  -16.4911  -16.7949 C   0  0  2  0  0  0  0  0  0  0  0  0
   16.1375  -17.0992  -17.6479 N   0  0  0  0  0  0  0  0  0  0  0  0
   15.0284  -15.0296  -17.0491 C   0  0  0  0  0  0  0  0  0  0  0  0
   16.0879  -14.3663  -17.1909 O   0  0  0  0  0  0  0  0  0  0  0  0
   10.7705  -12.9580  -19.9688 C   0  0  0  0  0  0  0  0  0  0  0  0
   12.1662  -13.1364  -19.4240 C   0  0  0  0  0  0  0  0  0  0  0  0
   12.3198  -12.6493  -18.0190 C   0  0  2  0  0  0  0  0  0  0  0  0
   12.2379  -11.1370  -18.0241 C   0  0  0  0  0  0  0  0  0  0  0  0
   13.6299  -13.0344  -17.3819 C   0  0  2  0  0  0  0  0  0  0  0  0
   13.7478  -14.4330  -17.1239 N   0  0  0  0  0  0  0  0  0  0  0  0
   13.6854  -12.3065  -16.0763 C   0  0  0  0  0  0  0  0  0  0  0  0
   13.3448  -12.8585  -15.0005 O   0  0  0  0  0  0  0  0  0  0  0  0
   14.1185  -10.9910  -16.0196 O   0  0  0  0  0  0  0  0  0  0  0  0
  1  2  1  0
  3  4  2  0
  3  2  1  0
  6  8  1  0
  6  5  1  0
  7  6  2  0
  9  8  1  1
  9 11  1  0
  9 10  1  0
 10  3  1  0
 11 12  2  0
 13 14  1  0
 15 14  1  0
 15 16  1  6
 17 15  1  0
 17 18  1  1
 18 11  1  0
 19 17  1  0
 20 19  2  0
 21 19  1  0
M  END
$$$$
