GNI.pdb
     RDKit          3D

 21 20  0  0  1  0  0  0  0  0999 V2000
   20.7894  -12.7345  -17.7959 N   0  0  0  0  0  0  0  0  0  0  0  0
   20.1498  -11.4581  -17.6836 C   0  0  0  0  0  0  0  0  0  0  0  0
   20.8731  -10.6108  -16.7131 C   0  0  0  0  0  0  0  0  0  0  0  0
   20.3589  -10.3559  -15.5981 O   0  0  0  0  0  0  0  0  0  0  0  0
   25.1744  -11.3564  -14.5507 N   0  0  0  0  0  0  0  0  0  0  0  0
   24.7426  -10.9587  -15.8317 C   0  0  0  0  0  0  0  0  0  0  0  0
   24.6658  -11.8004  -16.7456 O   0  0  0  0  0  0  0  0  0  0  0  0
   24.3848   -9.5565  -16.0874 C   0  0  0  0  0  0  0  0  0  0  0  0
   22.8957   -9.3110  -15.9979 C   0  0  2  0  0  0  0  0  0  0  0  0
   22.1536  -10.0508  -16.9744 N   0  0  0  0  0  0  0  0  0  0  0  0
   22.5873   -7.8548  -16.0464 C   0  0  0  0  0  0  0  0  0  0  0  0
   22.7039   -7.2728  -17.1556 O   0  0  0  0  0  0  0  0  0  0  0  0
   18.0241   -5.8783  -15.5252 C   0  0  0  0  0  0  0  0  0  0  0  0
   19.4966   -6.0163  -15.8242 C   0  0  0  0  0  0  0  0  0  0  0  0
   20.3736   -5.5204  -14.7197 C   0  0  2  0  0  0  0  0  0  0  0  0
   20.1941   -4.0212  -14.6013 C   0  0  0  0  0  0  0  0  0  0  0  0
   21.8397   -5.7896  -14.9402 C   0  0  2  0  0  0  0  0  0  0  0  0
   22.1802   -7.1739  -14.8750 N   0  0  0  0  0  0  0  0  0  0  0  0
   22.5620   -5.0728  -13.8439 C   0  0  0  0  0  0  0  0  0  0  0  0
   22.8477   -5.6433  -12.7617 O   0  0  0  0  0  0  0  0  0  0  0  0
   22.9383   -3.7474  -13.9955 O   0  0  0  0  0  0  0  0  0  0  0  0
  1  2  1  0
  3  4  2  0
  3  2  1  0
  6  8  1  0
  6  5  1  0
  7  6  2  0
  9  8  1  6
  9 11  1  0
  9 10  1  0
 10  3  1  0
 11 12  2  0
 13 14  1  0
 15 14  1  0
 15 16  1  6
 17 15  1  0
 17 18  1  1
 18 11  1  0
 19 17  1  0
 20 19  2  0
 21 19  1  0
M  END
$$$$
