GNI.pdb
     RDKit          3D

 21 20  0  0  1  0  0  0  0  0999 V2000
   19.0687  -13.5233  -16.4311 N   0  0  0  0  0  0  0  0  0  0  0  0
   18.5904  -12.3088  -17.0203 C   0  0  0  0  0  0  0  0  0  0  0  0
   19.0498  -11.1464  -16.2325 C   0  0  0  0  0  0  0  0  0  0  0  0
   18.4122  -10.7882  -15.2137 O   0  0  0  0  0  0  0  0  0  0  0  0
   23.5920  -10.9326  -15.1401 N   0  0  0  0  0  0  0  0  0  0  0  0
   22.6325   -9.9797  -14.7440 C   0  0  0  0  0  0  0  0  0  0  0  0
   22.2609   -9.9353  -13.5568 O   0  0  0  0  0  0  0  0  0  0  0  0
   22.0731   -9.0427  -15.7282 C   0  0  0  0  0  0  0  0  0  0  0  0
   20.5760   -9.1869  -15.8825 C   0  0  2  0  0  0  0  0  0  0  0  0
   20.2040  -10.3876  -16.5691 N   0  0  0  0  0  0  0  0  0  0  0  0
   19.9816   -7.9753  -16.5124 C   0  0  0  0  0  0  0  0  0  0  0  0
   20.1319   -7.8324  -17.7532 O   0  0  0  0  0  0  0  0  0  0  0  0
   14.8940   -4.9028  -16.6526 C   0  0  0  0  0  0  0  0  0  0  0  0
   16.3974   -4.7859  -16.7067 C   0  0  0  0  0  0  0  0  0  0  0  0
   17.1041   -5.9851  -16.1613 C   0  0  2  0  0  0  0  0  0  0  0  0
   16.8309   -6.0675  -14.6739 C   0  0  0  0  0  0  0  0  0  0  0  0
   18.5986   -5.9483  -16.3506 C   0  0  2  0  0  0  0  0  0  0  0  0
   19.2785   -7.0348  -15.7232 N   0  0  0  0  0  0  0  0  0  0  0  0
   19.0644   -4.6731  -15.7225 C   0  0  0  0  0  0  0  0  0  0  0  0
   18.8040   -3.5551  -16.2328 O   0  0  0  0  0  0  0  0  0  0  0  0
   19.8029   -4.6927  -14.5497 O   0  0  0  0  0  0  0  0  0  0  0  0
  1  2  1  0
  3  4  2  0
  3  2  1  0
  6  8  1  0
  6  5  1  0
  7  6  2  0
  9  8  1  6
  9 11  1  0
  9 10  1  0
 10  3  1  0
 11 12  2  0
 13 14  1  0
 15 14  1  0
 15 16  1  1
 17 15  1  0
 17 18  1  1
 18 11  1  0
 19 17  1  0
 20 19  2  0
 21 19  1  0
M  END
$$$$
