GNI.pdb
     RDKit          3D

 21 20  0  0  1  0  0  0  0  0999 V2000
   25.5924  -21.2718   -8.5591 N   0  0  0  0  0  0  0  0  0  0  0  0
   24.6697  -20.5153   -9.3511 C   0  0  0  0  0  0  0  0  0  0  0  0
   25.1304  -20.4597  -10.7538 C   0  0  0  0  0  0  0  0  0  0  0  0
   26.3029  -20.0989  -11.0146 O   0  0  0  0  0  0  0  0  0  0  0  0
   26.5994  -22.0491  -14.9279 N   0  0  0  0  0  0  0  0  0  0  0  0
   25.3645  -22.7075  -14.7634 C   0  0  0  0  0  0  0  0  0  0  0  0
   25.1687  -23.8009  -15.3254 O   0  0  0  0  0  0  0  0  0  0  0  0
   24.3125  -22.1059  -13.9322 C   0  0  0  0  0  0  0  0  0  0  0  0
   24.7838  -20.8674  -13.2044 C   0  0  2  0  0  0  0  0  0  0  0  0
   24.3013  -20.8003  -11.8575 N   0  0  0  0  0  0  0  0  0  0  0  0
   24.4613  -19.6352  -13.9761 C   0  0  0  0  0  0  0  0  0  0  0  0
   23.3068  -19.1528  -13.8447 O   0  0  0  0  0  0  0  0  0  0  0  0
   25.3281  -14.5192  -15.3594 C   0  0  0  0  0  0  0  0  0  0  0  0
   26.0623  -15.5647  -16.1622 C   0  0  0  0  0  0  0  0  0  0  0  0
   26.3059  -16.8299  -15.4039 C   0  0  2  0  0  0  0  0  0  0  0  0
   27.5219  -17.5150  -15.9921 C   0  0  0  0  0  0  0  0  0  0  0  0
   25.1583  -17.8046  -15.4630 C   0  0  2  0  0  0  0  0  0  0  0  0
   25.4341  -19.0479  -14.8189 N   0  0  0  0  0  0  0  0  0  0  0  0
   24.9131  -18.0684  -16.9148 C   0  0  0  0  0  0  0  0  0  0  0  0
   25.3096  -19.1245  -17.4676 O   0  0  0  0  0  0  0  0  0  0  0  0
   24.2353  -17.1449  -17.6952 O   0  0  0  0  0  0  0  0  0  0  0  0
  1  2  1  0
  3  4  2  0
  3  2  1  0
  6  8  1  0
  6  5  1  0
  7  6  2  0
  9  8  1  6
  9 11  1  0
  9 10  1  0
 10  3  1  0
 11 12  2  0
 13 14  1  0
 15 14  1  0
 15 16  1  6
 17 15  1  0
 17 18  1  1
 18 11  1  0
 19 17  1  0
 20 19  2  0
 21 19  1  0
M  END
$$$$
