GNI.pdb
     RDKit          3D

 21 20  0  0  1  0  0  0  0  0999 V2000
   23.0269  -17.8942  -16.0258 N   0  0  0  0  0  0  0  0  0  0  0  0
   22.2186  -16.9201  -15.3560 C   0  0  0  0  0  0  0  0  0  0  0  0
   22.5111  -15.5699  -15.8798 C   0  0  0  0  0  0  0  0  0  0  0  0
   23.6840  -15.2624  -16.2001 O   0  0  0  0  0  0  0  0  0  0  0  0
   20.4586  -11.2320  -19.2293 N   0  0  0  0  0  0  0  0  0  0  0  0
   20.7517  -11.3717  -17.8582 C   0  0  0  0  0  0  0  0  0  0  0  0
   21.2299  -10.4102  -17.2286 O   0  0  0  0  0  0  0  0  0  0  0  0
   20.4940  -12.6469  -17.1747 C   0  0  0  0  0  0  0  0  0  0  0  0
   21.7633  -13.3243  -16.7102 C   0  0  2  0  0  0  0  0  0  0  0  0
   21.5148  -14.5696  -16.0477 N   0  0  0  0  0  0  0  0  0  0  0  0
   22.5906  -12.4047  -15.8808 C   0  0  0  0  0  0  0  0  0  0  0  0
   22.2586  -12.2507  -14.6772 O   0  0  0  0  0  0  0  0  0  0  0  0
   27.7830  -12.8822  -15.4952 C   0  0  0  0  0  0  0  0  0  0  0  0
   26.3506  -12.5091  -15.2024 C   0  0  0  0  0  0  0  0  0  0  0  0
   25.9733  -11.1584  -15.7202 C   0  0  2  0  0  0  0  0  0  0  0  0
   26.6905  -10.1107  -14.8943 C   0  0  0  0  0  0  0  0  0  0  0  0
   24.4965  -10.8688  -15.6439 C   0  0  2  0  0  0  0  0  0  0  0  0
   23.7034  -11.7408  -16.4485 N   0  0  0  0  0  0  0  0  0  0  0  0
   24.3218   -9.4713  -16.1477 C   0  0  0  0  0  0  0  0  0  0  0  0
   23.9905   -9.2372  -17.3366 O   0  0  0  0  0  0  0  0  0  0  0  0
   24.5229   -8.3878  -15.3070 O   0  0  0  0  0  0  0  0  0  0  0  0
  1  2  1  0
  3  4  2  0
  3  2  1  0
  6  8  1  0
  6  5  1  0
  7  6  2  0
  9  8  1  1
  9 11  1  0
  9 10  1  0
 10  3  1  0
 11 12  2  0
 13 14  1  0
 15 14  1  0
 15 16  1  1
 17 15  1  0
 17 18  1  6
 18 11  1  0
 19 17  1  0
 20 19  2  0
 21 19  1  0
M  END
$$$$
