SWG.pdb
     RDKit          3D

 25 26  0  0  1  0  0  0  0  0999 V2000
    8.3492  -17.3787   20.2256 O   0  0  0  0  0  0  0  0  0  0  0  0
    7.1065  -17.0377   20.7123 C   0  0  0  0  0  0  0  0  0  0  0  0
    7.0874  -15.5604   21.1195 C   0  0  2  0  0  0  0  0  0  0  0  0
    7.0453  -14.7971   19.9088 N   0  0  0  0  0  0  0  0  0  0  0  0
    8.3129  -15.2558   21.9380 C   0  0  0  0  0  0  0  0  0  0  0  0
    9.2114  -14.5846   21.4475 O   0  0  0  0  0  0  0  0  0  0  0  0
    8.3991  -15.7538   23.2648 N   0  0  0  0  0  0  0  0  0  0  0  0
    9.4203  -15.5712   24.2147 C   0  0  1  0  0  0  0  0  0  0  0  0
    9.0360  -15.6545   25.6808 C   0  0  0  0  0  0  0  0  0  0  0  0
    7.7231  -14.9855   25.9577 C   0  0  0  0  0  0  0  0  0  0  0  0
    6.4504  -15.4843   25.9645 C   0  0  0  0  0  0  0  0  0  0  0  0
    5.6231  -14.4647   26.2348 N   0  0  0  0  0  0  0  0  0  0  0  0
    6.3278  -13.3460   26.3978 C   0  0  0  0  0  0  0  0  0  0  0  0
    5.9183  -12.0423   26.6843 C   0  0  0  0  0  0  0  0  0  0  0  0
    6.8438  -11.0360   26.8012 C   0  0  0  0  0  0  0  0  0  0  0  0
    8.1712  -11.3291   26.6334 C   0  0  0  0  0  0  0  0  0  0  0  0
    8.6046  -12.6181   26.3477 C   0  0  0  0  0  0  0  0  0  0  0  0
    7.6688  -13.6215   26.2322 C   0  0  0  0  0  0  0  0  0  0  0  0
   10.7399  -16.1259   23.9707 C   0  0  0  0  0  0  0  0  0  0  0  0
   11.6310  -15.9183   24.8808 O   0  0  0  0  0  0  0  0  0  0  0  0
   11.1653  -16.8729   22.8442 N   0  0  0  0  0  0  0  0  0  0  0  0
   12.5450  -17.3454   22.8279 C   0  0  0  0  0  0  0  0  0  0  0  0
   12.7971  -17.9508   21.4984 C   0  0  0  0  0  0  0  0  0  0  0  0
   13.1938  -19.1508   21.3410 O   0  0  0  0  0  0  0  0  0  0  0  0
   12.5969  -17.1871   20.3643 O   0  0  0  0  0  0  0  0  0  0  0  0
  2  1  1  0
  2  3  1  0
  3  4  1  6
  5  7  1  0
  5  3  1  0
  6  5  2  0
  8  7  1  0
  8  9  1  1
  9 10  1  0
 10 11  2  0
 10 18  1  0
 11 12  1  0
 12 13  1  0
 13 14  2  0
 15 14  1  0
 16 15  2  0
 17 18  2  0
 17 16  1  0
 18 13  1  0
 19  8  1  0
 20 19  2  0
 21 19  1  0
 22 23  1  0
 22 21  1  0
 23 25  1  0
 24 23  2  0
M  END
$$$$
