SWG.pdb
     RDKit          3D

 25 26  0  0  1  0  0  0  0  0999 V2000
    8.4904  -17.3941   20.2967 O   0  0  0  0  0  0  0  0  0  0  0  0
    7.1927  -17.1544   20.6916 C   0  0  0  0  0  0  0  0  0  0  0  0
    7.0302  -15.6876   21.1050 C   0  0  2  0  0  0  0  0  0  0  0  0
    6.9273  -14.9254   19.8974 N   0  0  0  0  0  0  0  0  0  0  0  0
    8.2138  -15.2729   21.9366 C   0  0  0  0  0  0  0  0  0  0  0  0
    9.0397  -14.5027   21.4643 O   0  0  0  0  0  0  0  0  0  0  0  0
    8.3456  -15.7843   23.2546 N   0  0  0  0  0  0  0  0  0  0  0  0
    9.3851  -15.5866   24.1815 C   0  0  1  0  0  0  0  0  0  0  0  0
    9.0322  -15.6614   25.6559 C   0  0  0  0  0  0  0  0  0  0  0  0
    7.6991  -15.0408   25.9481 C   0  0  0  0  0  0  0  0  0  0  0  0
    6.4414  -15.5762   25.9298 C   0  0  0  0  0  0  0  0  0  0  0  0
    5.5834  -14.5911   26.2305 N   0  0  0  0  0  0  0  0  0  0  0  0
    6.2543  -13.4589   26.4367 C   0  0  0  0  0  0  0  0  0  0  0  0
    5.8055  -12.1784   26.7661 C   0  0  0  0  0  0  0  0  0  0  0  0
    6.7007  -11.1504   26.9236 C   0  0  0  0  0  0  0  0  0  0  0  0
    8.0368  -11.3989   26.7537 C   0  0  0  0  0  0  0  0  0  0  0  0
    8.5092  -12.6640   26.4257 C   0  0  0  0  0  0  0  0  0  0  0  0
    7.6036  -13.6894   26.2696 C   0  0  0  0  0  0  0  0  0  0  0  0
   10.7036  -16.1332   23.9140 C   0  0  0  0  0  0  0  0  0  0  0  0
   11.5866  -15.9928   24.8446 O   0  0  0  0  0  0  0  0  0  0  0  0
   11.1357  -16.8065   22.7445 N   0  0  0  0  0  0  0  0  0  0  0  0
   12.5016  -17.3175   22.7240 C   0  0  0  0  0  0  0  0  0  0  0  0
   12.7511  -17.8795   21.3751 C   0  0  0  0  0  0  0  0  0  0  0  0
   13.1984  -17.1896   20.4025 O   0  0  0  0  0  0  0  0  0  0  0  0
   12.4889  -19.2168   21.1463 O   0  0  0  0  0  0  0  0  0  0  0  0
  2  1  1  0
  2  3  1  0
  3  4  1  6
  5  7  1  0
  5  3  1  0
  6  5  2  0
  8  7  1  0
  8  9  1  1
  9 10  1  0
 10 11  2  0
 10 18  1  0
 11 12  1  0
 12 13  1  0
 13 14  2  0
 15 14  1  0
 16 15  2  0
 17 18  2  0
 17 16  1  0
 18 13  1  0
 19  8  1  0
 20 19  2  0
 21 19  1  0
 22 23  1  0
 22 21  1  0
 23 25  1  0
 24 23  2  0
M  END
$$$$
