SWG.pdb
     RDKit          3D

 25 26  0  0  1  0  0  0  0  0999 V2000
    8.4539  -17.6937   20.7008 O   0  0  0  0  0  0  0  0  0  0  0  0
    7.9451  -16.5920   20.0491 C   0  0  0  0  0  0  0  0  0  0  0  0
    7.3860  -15.5904   21.0654 C   0  0  2  0  0  0  0  0  0  0  0  0
    6.8814  -14.4787   20.3174 N   0  0  0  0  0  0  0  0  0  0  0  0
    8.4807  -15.1835   22.0144 C   0  0  0  0  0  0  0  0  0  0  0  0
    9.2423  -14.2781   21.7004 O   0  0  0  0  0  0  0  0  0  0  0  0
    8.6050  -15.8597   23.2567 N   0  0  0  0  0  0  0  0  0  0  0  0
    9.5770  -15.6966   24.2603 C   0  0  1  0  0  0  0  0  0  0  0  0
    9.1060  -15.7272   25.7030 C   0  0  0  0  0  0  0  0  0  0  0  0
    7.7492  -15.1103   25.8655 C   0  0  0  0  0  0  0  0  0  0  0  0
    6.5014  -15.6629   25.7859 C   0  0  0  0  0  0  0  0  0  0  0  0
    5.6144  -14.6751   25.9715 N   0  0  0  0  0  0  0  0  0  0  0  0
    6.2576  -13.5246   26.1644 C   0  0  0  0  0  0  0  0  0  0  0  0
    5.7738  -12.2348   26.3920 C   0  0  0  0  0  0  0  0  0  0  0  0
    6.6452  -11.1879   26.5581 C   0  0  0  0  0  0  0  0  0  0  0  0
    7.9925  -11.4268   26.4977 C   0  0  0  0  0  0  0  0  0  0  0  0
    8.4995  -12.7009   26.2723 C   0  0  0  0  0  0  0  0  0  0  0  0
    7.6176  -13.7452   26.1068 C   0  0  0  0  0  0  0  0  0  0  0  0
   10.8831  -16.3124   24.1062 C   0  0  0  0  0  0  0  0  0  0  0  0
   11.6977  -16.1951   25.1003 O   0  0  0  0  0  0  0  0  0  0  0  0
   11.3697  -17.0310   22.9862 N   0  0  0  0  0  0  0  0  0  0  0  0
   12.7003  -17.6198   23.0864 C   0  0  0  0  0  0  0  0  0  0  0  0
   13.6423  -16.7261   22.3712 C   0  0  0  0  0  0  0  0  0  0  0  0
   13.2899  -15.9587   21.4178 O   0  0  0  0  0  0  0  0  0  0  0  0
   14.9724  -16.7151   22.7458 O   0  0  0  0  0  0  0  0  0  0  0  0
  2  1  1  0
  2  3  1  0
  3  4  1  6
  5  7  1  0
  5  3  1  0
  6  5  2  0
  8  7  1  0
  8  9  1  1
  9 10  1  0
 10 11  2  0
 10 18  1  0
 11 12  1  0
 12 13  1  0
 13 14  2  0
 15 14  1  0
 16 15  2  0
 17 18  2  0
 17 16  1  0
 18 13  1  0
 19  8  1  0
 20 19  2  0
 21 19  1  0
 22 23  1  0
 22 21  1  0
 23 25  1  0
 24 23  2  0
M  END
$$$$
