SWG.pdb
     RDKit          3D

 25 26  0  0  1  0  0  0  0  0999 V2000
    8.5789  -17.4888   20.2495 O   0  0  0  0  0  0  0  0  0  0  0  0
    7.7637  -16.4813   19.7829 C   0  0  0  0  0  0  0  0  0  0  0  0
    7.0927  -15.7603   20.9571 C   0  0  2  0  0  0  0  0  0  0  0  0
    6.2696  -14.7318   20.3962 N   0  0  0  0  0  0  0  0  0  0  0  0
    8.1530  -15.2026   21.8677 C   0  0  0  0  0  0  0  0  0  0  0  0
    8.6526  -14.1146   21.6126 O   0  0  0  0  0  0  0  0  0  0  0  0
    8.5502  -15.9521   23.0063 N   0  0  0  0  0  0  0  0  0  0  0  0
    9.5503  -15.6630   23.9522 C   0  0  1  0  0  0  0  0  0  0  0  0
    9.1660  -15.7262   25.4193 C   0  0  0  0  0  0  0  0  0  0  0  0
    7.8346  -15.0883   25.6806 C   0  0  0  0  0  0  0  0  0  0  0  0
    6.5742  -15.6174   25.6749 C   0  0  0  0  0  0  0  0  0  0  0  0
    5.7199  -14.6174   25.9341 N   0  0  0  0  0  0  0  0  0  0  0  0
    6.3958  -13.4818   26.1023 C   0  0  0  0  0  0  0  0  0  0  0  0
    5.9522  -12.1878   26.3816 C   0  0  0  0  0  0  0  0  0  0  0  0
    6.8521  -11.1594   26.5062 C   0  0  0  0  0  0  0  0  0  0  0  0
    8.1878  -11.4209   26.3533 C   0  0  0  0  0  0  0  0  0  0  0  0
    8.6550  -12.6998   26.0750 C   0  0  0  0  0  0  0  0  0  0  0  0
    7.7447  -13.7254   25.9516 C   0  0  0  0  0  0  0  0  0  0  0  0
   10.9087  -16.1258   23.7300 C   0  0  0  0  0  0  0  0  0  0  0  0
   11.1098  -17.3965   23.8322 O   0  0  0  0  0  0  0  0  0  0  0  0
   12.0447  -15.3410   23.4118 N   0  0  0  0  0  0  0  0  0  0  0  0
   13.2077  -16.0270   22.8603 C   0  0  0  0  0  0  0  0  0  0  0  0
   14.1225  -16.3361   23.9851 C   0  0  0  0  0  0  0  0  0  0  0  0
   13.7162  -16.6896   25.1392 O   0  0  0  0  0  0  0  0  0  0  0  0
   15.4866  -16.2393   23.7866 O   0  0  0  0  0  0  0  0  0  0  0  0
  2  1  1  0
  2  3  1  0
  3  4  1  6
  5  7  1  0
  5  3  1  0
  6  5  2  0
  8  7  1  0
  8  9  1  1
  9 10  1  0
 10 11  2  0
 10 18  1  0
 11 12  1  0
 12 13  1  0
 13 14  2  0
 15 14  1  0
 16 15  2  0
 17 18  2  0
 17 16  1  0
 18 13  1  0
 19  8  1  0
 20 19  2  0
 21 19  1  0
 22 23  1  0
 22 21  1  0
 23 25  1  0
 24 23  2  0
M  END
$$$$
