EQA.pdb
     RDKit          3D

 24 23  0  0  1  0  0  0  0  0999 V2000
    9.7004  -18.9077   15.5056 N   0  0  0  0  0  0  0  0  0  0  0  0
   10.6317  -19.0000   16.5728 C   0  0  1  0  0  0  0  0  0  0  0  0
   11.9277  -18.3337   16.3321 C   0  0  0  0  0  0  0  0  0  0  0  0
   12.3383  -18.3472   14.9030 C   0  0  0  0  0  0  0  0  0  0  0  0
   13.5910  -17.6556   14.5959 C   0  0  0  0  0  0  0  0  0  0  0  0
   14.5498  -17.4694   15.3662 O   0  0  0  0  0  0  0  0  0  0  0  0
    9.9781  -18.5516   17.8493 C   0  0  0  0  0  0  0  0  0  0  0  0
    9.1647  -17.5755   17.8307 O   0  0  0  0  0  0  0  0  0  0  0  0
   13.6843  -17.1557   13.2600 O   0  0  0  0  0  0  0  0  0  0  0  0
    7.0488  -22.9630   20.5469 N   0  0  0  0  0  0  0  0  0  0  0  0
    8.1922  -22.1400   20.3529 C   0  0  0  0  0  0  0  0  0  0  0  0
    9.3039  -22.7090   20.2448 O   0  0  0  0  0  0  0  0  0  0  0  0
    8.0172  -20.6747   20.2891 C   0  0  0  0  0  0  0  0  0  0  0  0
    9.1285  -20.0339   21.0943 C   0  0  0  0  0  0  0  0  0  0  0  0
    9.6235  -18.8461   20.3497 C   0  0  2  0  0  0  0  0  0  0  0  0
   10.2497  -19.1933   19.0776 N   0  0  0  0  0  0  0  0  0  0  0  0
   10.5437  -18.0426   21.1997 C   0  0  0  0  0  0  0  0  0  0  0  0
   11.7923  -18.0994   21.1656 O   0  0  0  0  0  0  0  0  0  0  0  0
    9.8488  -15.2320   23.5396 C   0  0  0  0  0  0  0  0  0  0  0  0
   10.7817  -16.2587   22.9141 C   0  0  2  0  0  0  0  0  0  0  0  0
    9.9565  -17.1375   22.1245 N   0  0  0  0  0  0  0  0  0  0  0  0
   11.4754  -17.0567   23.9469 C   0  0  0  0  0  0  0  0  0  0  0  0
   12.5626  -16.5081   24.6020 O   0  0  0  0  0  0  0  0  0  0  0  0
   11.1249  -18.2195   24.2637 O   0  0  0  0  0  0  0  0  0  0  0  0
  2  3  1  0
  2  1  1  6
  4  3  1  0
  5  4  1  0
  5  6  2  0
  7  8  2  0
  7  2  1  0
  9  5  1  0
 10 11  1  0
 11 13  1  0
 12 11  2  0
 13 14  1  0
 15 14  1  1
 15 16  1  0
 16  7  1  0
 17 15  1  0
 18 17  2  0
 20 19  1  1
 20 22  1  0
 20 21  1  0
 21 17  1  0
 22 23  1  0
 24 22  2  0
M  END
$$$$
