EQA.pdb
     RDKit          3D

 24 23  0  0  1  0  0  0  0  0999 V2000
    6.7397  -15.3156   20.2073 N   0  0  0  0  0  0  0  0  0  0  0  0
    8.1497  -15.1720   20.1296 C   0  0  1  0  0  0  0  0  0  0  0  0
    8.6233  -14.1535   19.1704 C   0  0  0  0  0  0  0  0  0  0  0  0
    7.7367  -14.0054   17.9859 C   0  0  0  0  0  0  0  0  0  0  0  0
    8.3824  -14.1794   16.6841 C   0  0  0  0  0  0  0  0  0  0  0  0
    9.1217  -15.1173   16.3363 O   0  0  0  0  0  0  0  0  0  0  0  0
    8.7107  -14.9735   21.5093 C   0  0  0  0  0  0  0  0  0  0  0  0
    9.9668  -14.8644   21.6682 O   0  0  0  0  0  0  0  0  0  0  0  0
    8.1102  -13.1413   15.7399 O   0  0  0  0  0  0  0  0  0  0  0  0
    6.5249  -10.9168   26.3649 N   0  0  0  0  0  0  0  0  0  0  0  0
    6.5241  -12.3032   26.0483 C   0  0  0  0  0  0  0  0  0  0  0  0
    5.6406  -13.0177   26.5776 O   0  0  0  0  0  0  0  0  0  0  0  0
    7.5501  -12.8271   25.1239 C   0  0  0  0  0  0  0  0  0  0  0  0
    7.3184  -14.3148   24.9602 C   0  0  0  0  0  0  0  0  0  0  0  0
    8.3402  -14.8491   24.0215 C   0  0  2  0  0  0  0  0  0  0  0  0
    7.8689  -14.9062   22.6411 N   0  0  0  0  0  0  0  0  0  0  0  0
    8.8252  -16.1796   24.4791 C   0  0  0  0  0  0  0  0  0  0  0  0
    8.4440  -17.2814   24.0271 O   0  0  0  0  0  0  0  0  0  0  0  0
   11.5871  -17.7151   25.1162 C   0  0  0  0  0  0  0  0  0  0  0  0
   10.3564  -17.4482   25.9703 C   0  0  2  0  0  0  0  0  0  0  0  0
    9.8003  -16.2002   25.5124 N   0  0  0  0  0  0  0  0  0  0  0  0
   10.7102  -17.3164   27.3994 C   0  0  0  0  0  0  0  0  0  0  0  0
   11.1854  -18.4232   28.0787 O   0  0  0  0  0  0  0  0  0  0  0  0
   10.6005  -16.2400   28.0355 O   0  0  0  0  0  0  0  0  0  0  0  0
  2  3  1  0
  2  1  1  1
  4  3  1  0
  5  4  1  0
  5  6  2  0
  7  8  2  0
  7  2  1  0
  9  5  1  0
 10 11  1  0
 11 13  1  0
 12 11  2  0
 13 14  1  0
 15 14  1  1
 15 16  1  0
 16  7  1  0
 17 15  1  0
 18 17  2  0
 20 19  1  6
 20 22  1  0
 20 21  1  0
 21 17  1  0
 22 23  1  0
 24 22  2  0
M  END
$$$$
