EQA.pdb
     RDKit          3D

 24 23  0  0  1  0  0  0  0  0999 V2000
    3.5250  -24.1753   23.0142 N   0  0  0  0  0  0  0  0  0  0  0  0
    4.7591  -23.5335   22.7320 C   0  0  1  0  0  0  0  0  0  0  0  0
    4.9030  -23.0336   21.3496 C   0  0  0  0  0  0  0  0  0  0  0  0
    3.7112  -22.2856   20.8688 C   0  0  0  0  0  0  0  0  0  0  0  0
    3.7279  -21.9055   19.4557 C   0  0  0  0  0  0  0  0  0  0  0  0
    3.7825  -20.7521   18.9930 O   0  0  0  0  0  0  0  0  0  0  0  0
    5.0194  -22.4711   23.7621 C   0  0  0  0  0  0  0  0  0  0  0  0
    4.1728  -21.5387   23.9323 O   0  0  0  0  0  0  0  0  0  0  0  0
    3.6744  -23.0034   18.5420 O   0  0  0  0  0  0  0  0  0  0  0  0
    8.7998  -22.9557   28.7111 N   0  0  0  0  0  0  0  0  0  0  0  0
    8.3208  -21.6239   28.8497 C   0  0  0  0  0  0  0  0  0  0  0  0
    8.6212  -21.0065   29.8984 O   0  0  0  0  0  0  0  0  0  0  0  0
    7.5037  -21.0405   27.7663 C   0  0  0  0  0  0  0  0  0  0  0  0
    7.3179  -22.0974   26.6975 C   0  0  0  0  0  0  0  0  0  0  0  0
    6.4908  -21.5207   25.6050 C   0  0  2  0  0  0  0  0  0  0  0  0
    6.1913  -22.4841   24.5499 N   0  0  0  0  0  0  0  0  0  0  0  0
    7.1359  -20.2997   25.0501 C   0  0  0  0  0  0  0  0  0  0  0  0
    8.0041  -20.2874   24.1504 O   0  0  0  0  0  0  0  0  0  0  0  0
    6.3930  -16.6959   25.5231 C   0  0  0  0  0  0  0  0  0  0  0  0
    7.3309  -17.8227   25.1153 C   0  0  2  0  0  0  0  0  0  0  0  0
    6.7326  -19.0466   25.5851 N   0  0  0  0  0  0  0  0  0  0  0  0
    8.6607  -17.6709   25.7426 C   0  0  0  0  0  0  0  0  0  0  0  0
    9.5214  -16.6992   25.2659 O   0  0  0  0  0  0  0  0  0  0  0  0
    9.0536  -18.3863   26.6961 O   0  0  0  0  0  0  0  0  0  0  0  0
  2  3  1  0
  2  1  1  6
  4  3  1  0
  5  4  1  0
  5  6  2  0
  7  8  2  0
  7  2  1  0
  9  5  1  0
 10 11  1  0
 11 13  1  0
 12 11  2  0
 13 14  1  0
 15 14  1  1
 15 16  1  0
 16  7  1  0
 17 15  1  0
 18 17  2  0
 20 19  1  1
 20 22  1  0
 20 21  1  0
 21 17  1  0
 22 23  1  0
 24 22  2  0
M  END
$$$$
