EQA.pdb
     RDKit          3D

 24 23  0  0  1  0  0  0  0  0999 V2000
   -3.0928  -25.3459   28.0332 N   0  0  0  0  0  0  0  0  0  0  0  0
   -4.1691  -26.1121   27.5143 C   0  0  1  0  0  0  0  0  0  0  0  0
   -3.7818  -27.3951   26.8934 C   0  0  0  0  0  0  0  0  0  0  0  0
   -2.8060  -28.1694   27.7053 C   0  0  0  0  0  0  0  0  0  0  0  0
   -2.4260  -29.4756   27.1656 C   0  0  0  0  0  0  0  0  0  0  0  0
   -1.3235  -29.7933   26.6852 O   0  0  0  0  0  0  0  0  0  0  0  0
   -5.2243  -26.2755   28.5714 C   0  0  0  0  0  0  0  0  0  0  0  0
   -6.3458  -26.7899   28.2669 O   0  0  0  0  0  0  0  0  0  0  0  0
   -3.4578  -30.4638   27.2133 O   0  0  0  0  0  0  0  0  0  0  0  0
   -4.4698  -27.8877   34.3694 N   0  0  0  0  0  0  0  0  0  0  0  0
   -5.8582  -27.5800   34.3812 C   0  0  0  0  0  0  0  0  0  0  0  0
   -6.5246  -27.9484   35.3770 O   0  0  0  0  0  0  0  0  0  0  0  0
   -6.4398  -26.8514   33.2356 C   0  0  0  0  0  0  0  0  0  0  0  0
   -5.3485  -26.6493   32.2051 C   0  0  0  0  0  0  0  0  0  0  0  0
   -5.9533  -26.0325   30.9950 C   0  0  2  0  0  0  0  0  0  0  0  0
   -4.9977  -25.8667   29.9039 N   0  0  0  0  0  0  0  0  0  0  0  0
   -6.6063  -24.7400   31.3382 C   0  0  0  0  0  0  0  0  0  0  0  0
   -7.4688  -24.5812   32.2295 O   0  0  0  0  0  0  0  0  0  0  0  0
   -5.9597  -21.2668   30.1883 C   0  0  0  0  0  0  0  0  0  0  0  0
   -6.8545  -22.3210   30.8236 C   0  0  2  0  0  0  0  0  0  0  0  0
   -6.2185  -23.5935   30.5936 N   0  0  0  0  0  0  0  0  0  0  0  0
   -8.1943  -22.3381   30.1994 C   0  0  0  0  0  0  0  0  0  0  0  0
   -9.1324  -21.4030   30.5965 O   0  0  0  0  0  0  0  0  0  0  0  0
   -8.5283  -23.1668   29.3179 O   0  0  0  0  0  0  0  0  0  0  0  0
  2  3  1  0
  2  1  1  1
  4  3  1  0
  5  4  1  0
  5  6  2  0
  7  8  2  0
  7  2  1  0
  9  5  1  0
 10 11  1  0
 11 13  1  0
 12 11  2  0
 13 14  1  0
 15 14  1  1
 15 16  1  0
 16  7  1  0
 17 15  1  0
 18 17  2  0
 20 19  1  6
 20 22  1  0
 20 21  1  0
 21 17  1  0
 22 23  1  0
 24 22  2  0
M  END
$$$$
