EQA.pdb
     RDKit          3D

 24 23  0  0  1  0  0  0  0  0999 V2000
   10.5234  -18.1789   18.3802 N   0  0  0  0  0  0  0  0  0  0  0  0
   11.7513  -17.4693   18.4371 C   0  0  1  0  0  0  0  0  0  0  0  0
   12.3208  -17.0975   17.1261 C   0  0  0  0  0  0  0  0  0  0  0  0
   12.3676  -18.2301   16.1638 C   0  0  0  0  0  0  0  0  0  0  0  0
   12.7597  -17.8857   14.7965 C   0  0  0  0  0  0  0  0  0  0  0  0
   13.0363  -16.7537   14.3614 O   0  0  0  0  0  0  0  0  0  0  0  0
   11.6088  -16.2931   19.3613 C   0  0  0  0  0  0  0  0  0  0  0  0
   12.6229  -15.5747   19.6266 O   0  0  0  0  0  0  0  0  0  0  0  0
   12.8197  -18.9943   13.8961 O   0  0  0  0  0  0  0  0  0  0  0  0
    6.6778  -12.9531   19.5544 N   0  0  0  0  0  0  0  0  0  0  0  0
    7.5984  -13.3157   18.5329 C   0  0  0  0  0  0  0  0  0  0  0  0
    7.2607  -13.0991   17.3453 O   0  0  0  0  0  0  0  0  0  0  0  0
    8.8900  -13.9217   18.9152 C   0  0  0  0  0  0  0  0  0  0  0  0
    8.9267  -14.0347   20.4251 C   0  0  0  0  0  0  0  0  0  0  0  0
   10.1350  -14.8112   20.8090 C   0  0  2  0  0  0  0  0  0  0  0  0
   10.3660  -15.9661   19.9466 N   0  0  0  0  0  0  0  0  0  0  0  0
   10.0639  -15.2148   22.2398 C   0  0  0  0  0  0  0  0  0  0  0  0
    9.8558  -14.4401   23.1989 O   0  0  0  0  0  0  0  0  0  0  0  0
    9.5454  -18.3204   24.0115 C   0  0  0  0  0  0  0  0  0  0  0  0
   10.3530  -17.0349   23.9075 C   0  0  2  0  0  0  0  0  0  0  0  0
   10.2468  -16.5915   22.5405 N   0  0  0  0  0  0  0  0  0  0  0  0
   11.7782  -17.2665   24.2240 C   0  0  0  0  0  0  0  0  0  0  0  0
   12.1379  -17.5608   25.5264 O   0  0  0  0  0  0  0  0  0  0  0  0
   12.6889  -17.2091   23.3623 O   0  0  0  0  0  0  0  0  0  0  0  0
  2  3  1  0
  2  1  1  6
  4  3  1  0
  5  4  1  0
  5  6  2  0
  7  8  2  0
  7  2  1  0
  9  5  1  0
 10 11  1  0
 11 13  1  0
 12 11  2  0
 13 14  1  0
 15 14  1  6
 15 16  1  0
 16  7  1  0
 17 15  1  0
 18 17  2  0
 20 19  1  6
 20 22  1  0
 20 21  1  0
 21 17  1  0
 22 23  1  0
 24 22  2  0
M  END
$$$$
