EQA.pdb
     RDKit          3D

 24 23  0  0  1  0  0  0  0  0999 V2000
   10.8865  -18.7174   21.7752 N   0  0  0  0  0  0  0  0  0  0  0  0
   11.2042  -17.3354   21.7133 C   0  0  1  0  0  0  0  0  0  0  0  0
   10.9904  -16.7024   20.3960 C   0  0  0  0  0  0  0  0  0  0  0  0
   11.0425  -17.6672   19.2657 C   0  0  0  0  0  0  0  0  0  0  0  0
   12.0999  -17.4348   18.2810 C   0  0  0  0  0  0  0  0  0  0  0  0
   12.8289  -18.2924   17.7513 O   0  0  0  0  0  0  0  0  0  0  0  0
   10.5025  -16.6088   22.8257 C   0  0  0  0  0  0  0  0  0  0  0  0
   10.5741  -15.3418   22.8933 O   0  0  0  0  0  0  0  0  0  0  0  0
   12.2838  -16.0654   17.9150 O   0  0  0  0  0  0  0  0  0  0  0  0
    6.7090  -19.3902   27.3816 N   0  0  0  0  0  0  0  0  0  0  0  0
    7.3565  -19.7621   26.1713 C   0  0  0  0  0  0  0  0  0  0  0  0
    6.9655  -20.8088   25.6031 O   0  0  0  0  0  0  0  0  0  0  0  0
    8.4434  -18.9089   25.6493 C   0  0  0  0  0  0  0  0  0  0  0  0
    7.8630  -17.5437   25.3444 C   0  0  0  0  0  0  0  0  0  0  0  0
    8.9561  -16.6696   24.8429 C   0  0  2  0  0  0  0  0  0  0  0  0
    9.7614  -17.3060   23.8049 N   0  0  0  0  0  0  0  0  0  0  0  0
    9.8068  -16.1983   25.9694 C   0  0  0  0  0  0  0  0  0  0  0  0
   10.9067  -16.6931   26.2995 O   0  0  0  0  0  0  0  0  0  0  0  0
    9.4637  -13.2472   28.2164 C   0  0  0  0  0  0  0  0  0  0  0  0
   10.1189  -14.5598   27.8122 C   0  0  2  0  0  0  0  0  0  0  0  0
    9.3317  -15.0970   26.7313 N   0  0  0  0  0  0  0  0  0  0  0  0
   10.1191  -15.5285   28.9287 C   0  0  0  0  0  0  0  0  0  0  0  0
    9.3288  -16.6595   28.8370 O   0  0  0  0  0  0  0  0  0  0  0  0
   10.8072  -15.3760   29.9673 O   0  0  0  0  0  0  0  0  0  0  0  0
  2  3  1  0
  2  1  1  6
  4  3  1  0
  5  4  1  0
  5  6  2  0
  7  8  2  0
  7  2  1  0
  9  5  1  0
 10 11  1  0
 11 13  1  0
 12 11  2  0
 13 14  1  0
 15 14  1  1
 15 16  1  0
 16  7  1  0
 17 15  1  0
 18 17  2  0
 20 19  1  1
 20 22  1  0
 20 21  1  0
 21 17  1  0
 22 23  1  0
 24 22  2  0
M  END
$$$$
