KCK.pdb
     RDKit          3D

 25 24  0  0  1  0  0  0  0  0999 V2000
    8.7337  -15.6004   19.5812 N   0  0  0  0  0  0  0  0  0  0  0  0
    9.2660  -14.3482   20.0202 C   0  0  1  0  0  0  0  0  0  0  0  0
    8.5391  -13.1424   19.5173 C   0  0  0  0  0  0  0  0  0  0  0  0
    7.4897  -13.4571   18.4967 C   0  0  0  0  0  0  0  0  0  0  0  0
    8.0026  -13.3287   17.0768 C   0  0  0  0  0  0  0  0  0  0  0  0
    6.8681  -13.8331   16.1771 C   0  0  0  0  0  0  0  0  0  0  0  0
    7.3445  -13.8817   14.8138 N   0  0  0  0  0  0  0  0  0  0  0  0
    9.3029  -14.3322   21.4999 C   0  0  0  0  0  0  0  0  0  0  0  0
   10.3328  -13.9499   22.1147 O   0  0  0  0  0  0  0  0  0  0  0  0
    8.2110  -14.7351   22.3067 N   0  0  0  0  0  0  0  0  0  0  0  0
    8.2294  -14.5630   23.7662 C   0  0  1  0  0  0  0  0  0  0  0  0
    6.8092  -14.3848   24.1791 C   0  0  0  0  0  0  0  0  0  0  0  0
    6.5354  -14.2868   25.9474 S   0  0  0  0  0  0  0  0  0  0  0  0
    8.9544  -15.6579   24.4153 C   0  0  0  0  0  0  0  0  0  0  0  0
    8.9133  -16.8205   23.8793 O   0  0  0  0  0  0  0  0  0  0  0  0
    9.7072  -15.5691   25.5878 N   0  0  0  0  0  0  0  0  0  0  0  0
   10.3497  -16.7015   26.2367 C   0  0  1  0  0  0  0  0  0  0  0  0
   10.7973  -16.3779   27.6191 C   0  0  0  0  0  0  0  0  0  0  0  0
   11.2766  -17.5242   28.4315 C   0  0  0  0  0  0  0  0  0  0  0  0
   11.7163  -17.1311   29.8252 C   0  0  0  0  0  0  0  0  0  0  0  0
   12.1238  -18.3874   30.5934 C   0  0  0  0  0  0  0  0  0  0  0  0
   12.6312  -18.0575   31.9112 N   0  0  0  0  0  0  0  0  0  0  0  0
    9.3666  -17.7967   26.2777 C   0  0  0  0  0  0  0  0  0  0  0  0
    9.7337  -19.1181   26.1332 O   0  0  0  0  0  0  0  0  0  0  0  0
    8.1550  -17.5356   26.4473 O   0  0  0  0  0  0  0  0  0  0  0  0
  2  8  1  0
  2  1  1  1
  3  2  1  0
  4  3  1  0
  5  4  1  0
  6  5  1  0
  6  7  1  0
  8  9  2  0
 10 11  1  0
 10  8  1  0
 11 12  1  1
 12 13  1  0
 14 15  2  0
 14 11  1  0
 16 14  1  0
 17 23  1  0
 17 16  1  0
 17 18  1  1
 19 20  1  0
 19 18  1  0
 20 21  1  0
 22 21  1  0
 23 24  1  0
 25 23  2  0
M  END
$$$$
