KCK.pdb
     RDKit          3D

 25 24  0  0  1  0  0  0  0  0999 V2000
   10.2072  -15.9478   20.8526 N   0  0  0  0  0  0  0  0  0  0  0  0
    9.1228  -16.1562   21.7607 C   0  0  1  0  0  0  0  0  0  0  0  0
    8.5950  -17.5544   21.8031 C   0  0  0  0  0  0  0  0  0  0  0  0
    8.0595  -18.0333   20.4894 C   0  0  0  0  0  0  0  0  0  0  0  0
    9.0644  -18.8671   19.7210 C   0  0  0  0  0  0  0  0  0  0  0  0
    8.3035  -19.4282   18.5139 C   0  0  0  0  0  0  0  0  0  0  0  0
    9.2121  -20.2273   17.7241 N   0  0  0  0  0  0  0  0  0  0  0  0
    9.5419  -15.7357   23.1167 C   0  0  0  0  0  0  0  0  0  0  0  0
   10.7199  -15.9299   23.5162 O   0  0  0  0  0  0  0  0  0  0  0  0
    8.6704  -15.1022   24.0356 N   0  0  0  0  0  0  0  0  0  0  0  0
    9.1319  -14.6780   25.3650 C   0  0  1  0  0  0  0  0  0  0  0  0
    8.1183  -13.7069   25.8637 C   0  0  0  0  0  0  0  0  0  0  0  0
    8.3016  -13.2269   27.5805 S   0  0  0  0  0  0  0  0  0  0  0  0
    9.3907  -15.8350   26.2253 C   0  0  0  0  0  0  0  0  0  0  0  0
    8.5140  -16.7675   26.2756 O   0  0  0  0  0  0  0  0  0  0  0  0
   10.5216  -16.0376   27.0186 N   0  0  0  0  0  0  0  0  0  0  0  0
   10.7103  -17.1794   27.9000 C   0  0  1  0  0  0  0  0  0  0  0  0
   11.8915  -17.9989   27.5139 C   0  0  0  0  0  0  0  0  0  0  0  0
   12.2044  -19.1462   28.4024 C   0  0  0  0  0  0  0  0  0  0  0  0
   13.4371  -19.9155   27.9794 C   0  0  0  0  0  0  0  0  0  0  0  0
   13.6655  -21.0687   28.9553 C   0  0  0  0  0  0  0  0  0  0  0  0
   14.8837  -21.7903   28.6419 N   0  0  0  0  0  0  0  0  0  0  0  0
   10.8962  -16.6532   29.2624 C   0  0  0  0  0  0  0  0  0  0  0  0
   11.2391  -15.3390   29.5012 O   0  0  0  0  0  0  0  0  0  0  0  0
   10.7426  -17.4114   30.2456 O   0  0  0  0  0  0  0  0  0  0  0  0
  2  8  1  0
  2  1  1  6
  3  2  1  0
  4  3  1  0
  5  4  1  0
  6  5  1  0
  6  7  1  0
  8  9  2  0
 10 11  1  0
 10  8  1  0
 11 12  1  1
 12 13  1  0
 14 15  2  0
 14 11  1  0
 16 14  1  0
 17 23  1  0
 17 16  1  0
 17 18  1  6
 19 20  1  0
 19 18  1  0
 20 21  1  0
 22 21  1  0
 23 24  1  0
 25 23  2  0
M  END
$$$$
