KCK.pdb
     RDKit          3D

 25 24  0  0  1  0  0  0  0  0999 V2000
   10.8097  -20.2154   15.8286 N   0  0  0  0  0  0  0  0  0  0  0  0
   10.1606  -20.6714   17.0180 C   0  0  1  0  0  0  0  0  0  0  0  0
   10.1899  -22.1519   17.2250 C   0  0  0  0  0  0  0  0  0  0  0  0
    9.2869  -22.9050   16.2981 C   0  0  0  0  0  0  0  0  0  0  0  0
   10.0350  -23.5317   15.1392 C   0  0  0  0  0  0  0  0  0  0  0  0
    9.0034  -24.3827   14.3892 C   0  0  0  0  0  0  0  0  0  0  0  0
    9.6390  -24.9668   13.2304 N   0  0  0  0  0  0  0  0  0  0  0  0
   10.7600  -19.9884   18.1865 C   0  0  0  0  0  0  0  0  0  0  0  0
   11.9324  -19.5325   18.1349 O   0  0  0  0  0  0  0  0  0  0  0  0
   10.0750  -19.8046   19.4122 N   0  0  0  0  0  0  0  0  0  0  0  0
   10.6964  -19.0983   20.5413 C   0  0  1  0  0  0  0  0  0  0  0  0
    9.6793  -18.1260   21.0305 C   0  0  0  0  0  0  0  0  0  0  0  0
    8.4260  -18.8124   22.1119 S   0  0  0  0  0  0  0  0  0  0  0  0
   11.2102  -20.0446   21.5344 C   0  0  0  0  0  0  0  0  0  0  0  0
   10.5844  -21.1487   21.7076 O   0  0  0  0  0  0  0  0  0  0  0  0
   12.3403  -19.8689   22.3352 N   0  0  0  0  0  0  0  0  0  0  0  0
   12.7650  -20.8002   23.3688 C   0  0  1  0  0  0  0  0  0  0  0  0
   14.2474  -20.8996   23.4618 C   0  0  0  0  0  0  0  0  0  0  0  0
   14.7721  -21.8951   24.4300 C   0  0  0  0  0  0  0  0  0  0  0  0
   16.2837  -21.9472   24.4791 C   0  0  0  0  0  0  0  0  0  0  0  0
   16.7147  -23.1021   25.3818 C   0  0  0  0  0  0  0  0  0  0  0  0
   18.1439  -23.3322   25.2962 N   0  0  0  0  0  0  0  0  0  0  0  0
   12.2199  -20.3128   24.6466 C   0  0  0  0  0  0  0  0  0  0  0  0
   12.0403  -21.1436   25.7325 O   0  0  0  0  0  0  0  0  0  0  0  0
   11.9036  -19.1083   24.7660 O   0  0  0  0  0  0  0  0  0  0  0  0
  2  8  1  0
  2  1  1  6
  3  2  1  0
  4  3  1  0
  5  4  1  0
  6  5  1  0
  6  7  1  0
  8  9  2  0
 10 11  1  0
 10  8  1  0
 11 12  1  1
 12 13  1  0
 14 15  2  0
 14 11  1  0
 16 14  1  0
 17 23  1  0
 17 16  1  0
 17 18  1  1
 19 20  1  0
 19 18  1  0
 20 21  1  0
 22 21  1  0
 23 24  1  0
 25 23  2  0
M  END
$$$$
