KCK.pdb
     RDKit          3D

 25 24  0  0  1  0  0  0  0  0999 V2000
    7.7533  -15.3549   20.4522 N   0  0  0  0  0  0  0  0  0  0  0  0
    6.9170  -15.4760   21.6055 C   0  0  1  0  0  0  0  0  0  0  0  0
    6.4916  -16.8714   21.9329 C   0  0  0  0  0  0  0  0  0  0  0  0
    6.6069  -17.8196   20.7799 C   0  0  0  0  0  0  0  0  0  0  0  0
    5.2892  -18.0229   20.0602 C   0  0  0  0  0  0  0  0  0  0  0  0
    5.5622  -19.0782   18.9819 C   0  0  0  0  0  0  0  0  0  0  0  0
    4.6772  -20.2000   19.1968 N   0  0  0  0  0  0  0  0  0  0  0  0
    7.6091  -14.8755   22.7681 C   0  0  0  0  0  0  0  0  0  0  0  0
    8.8269  -15.1101   22.9848 O   0  0  0  0  0  0  0  0  0  0  0  0
    6.9671  -14.0176   23.6939 N   0  0  0  0  0  0  0  0  0  0  0  0
    7.6543  -13.5379   24.9013 C   0  0  1  0  0  0  0  0  0  0  0  0
    6.7579  -12.5143   25.5076 C   0  0  0  0  0  0  0  0  0  0  0  0
    7.2701  -11.9071   27.1140 S   0  0  0  0  0  0  0  0  0  0  0  0
    8.0327  -14.6555   25.7694 C   0  0  0  0  0  0  0  0  0  0  0  0
    7.2545  -15.6709   25.8327 O   0  0  0  0  0  0  0  0  0  0  0  0
    9.1825  -14.7365   26.5573 N   0  0  0  0  0  0  0  0  0  0  0  0
    9.5522  -15.8986   27.3503 C   0  0  1  0  0  0  0  0  0  0  0  0
   10.4354  -16.8333   26.6004 C   0  0  0  0  0  0  0  0  0  0  0  0
   10.8591  -18.0539   27.3315 C   0  0  0  0  0  0  0  0  0  0  0  0
   11.6934  -18.9978   26.4930 C   0  0  0  0  0  0  0  0  0  0  0  0
   12.0130  -20.2458   27.3144 C   0  0  0  0  0  0  0  0  0  0  0  0
   12.7517  -21.2170   26.5308 N   0  0  0  0  0  0  0  0  0  0  0  0
   10.2545  -15.4055   28.5466 C   0  0  0  0  0  0  0  0  0  0  0  0
   10.6456  -16.2468   29.5670 O   0  0  0  0  0  0  0  0  0  0  0  0
   10.5108  -14.1859   28.6558 O   0  0  0  0  0  0  0  0  0  0  0  0
  2  8  1  0
  2  1  1  6
  3  2  1  0
  4  3  1  0
  5  4  1  0
  6  5  1  0
  6  7  1  0
  8  9  2  0
 10 11  1  0
 10  8  1  0
 11 12  1  1
 12 13  1  0
 14 15  2  0
 14 11  1  0
 16 14  1  0
 17 23  1  0
 17 16  1  0
 17 18  1  6
 19 20  1  0
 19 18  1  0
 20 21  1  0
 22 21  1  0
 23 24  1  0
 25 23  2  0
M  END
$$$$
