KCK.pdb
     RDKit          3D

 25 24  0  0  1  0  0  0  0  0999 V2000
   10.2764  -17.3848   18.0753 N   0  0  0  0  0  0  0  0  0  0  0  0
    9.5611  -17.9444   19.1795 C   0  0  1  0  0  0  0  0  0  0  0  0
    9.5220  -19.4387   19.2139 C   0  0  0  0  0  0  0  0  0  0  0  0
    8.4997  -20.0331   18.2957 C   0  0  0  0  0  0  0  0  0  0  0  0
    8.5667  -21.5462   18.2525 C   0  0  0  0  0  0  0  0  0  0  0  0
    7.4972  -21.9816   17.2438 C   0  0  0  0  0  0  0  0  0  0  0  0
    7.4367  -23.4253   17.2269 N   0  0  0  0  0  0  0  0  0  0  0  0
   10.1392  -17.4274   20.4403 C   0  0  0  0  0  0  0  0  0  0  0  0
   11.3851  -17.4151   20.6206 O   0  0  0  0  0  0  0  0  0  0  0  0
    9.3522  -16.9235   21.5043 N   0  0  0  0  0  0  0  0  0  0  0  0
    9.9439  -16.5948   22.8089 C   0  0  1  0  0  0  0  0  0  0  0  0
    8.9904  -15.6615   23.4715 C   0  0  0  0  0  0  0  0  0  0  0  0
    9.3219  -15.3337   25.2019 S   0  0  0  0  0  0  0  0  0  0  0  0
   10.2770  -17.8100   23.5559 C   0  0  0  0  0  0  0  0  0  0  0  0
    9.4141  -18.7555   23.6012 O   0  0  0  0  0  0  0  0  0  0  0  0
   11.4672  -18.0567   24.2431 N   0  0  0  0  0  0  0  0  0  0  0  0
   11.7344  -19.2620   25.0124 C   0  0  1  0  0  0  0  0  0  0  0  0
   13.0955  -19.8056   24.7516 C   0  0  0  0  0  0  0  0  0  0  0  0
   13.4696  -21.0174   25.5231 C   0  0  0  0  0  0  0  0  0  0  0  0
   14.8961  -21.4639   25.2868 C   0  0  0  0  0  0  0  0  0  0  0  0
   15.1531  -22.7505   26.0699 C   0  0  0  0  0  0  0  0  0  0  0  0
   16.4857  -23.2634   25.8173 N   0  0  0  0  0  0  0  0  0  0  0  0
   11.6062  -18.9088   26.4359 C   0  0  0  0  0  0  0  0  0  0  0  0
   11.5436  -19.8659   27.4268 O   0  0  0  0  0  0  0  0  0  0  0  0
   11.5498  -17.7054   26.7730 O   0  0  0  0  0  0  0  0  0  0  0  0
  2  8  1  0
  2  1  1  6
  3  2  1  0
  4  3  1  0
  5  4  1  0
  6  5  1  0
  6  7  1  0
  8  9  2  0
 10 11  1  0
 10  8  1  0
 11 12  1  1
 12 13  1  0
 14 15  2  0
 14 11  1  0
 16 14  1  0
 17 23  1  0
 17 16  1  0
 17 18  1  1
 19 20  1  0
 19 18  1  0
 20 21  1  0
 22 21  1  0
 23 24  1  0
 25 23  2  0
M  END
$$$$
