KCK.pdb
     RDKit          3D

 25 24  0  0  1  0  0  0  0  0999 V2000
    8.4774  -17.2853   17.9286 N   0  0  0  0  0  0  0  0  0  0  0  0
    7.6455  -16.9021   19.0263 C   0  0  1  0  0  0  0  0  0  0  0  0
    6.7128  -17.9647   19.5124 C   0  0  0  0  0  0  0  0  0  0  0  0
    6.6245  -19.1484   18.5998 C   0  0  0  0  0  0  0  0  0  0  0  0
    5.3298  -19.1810   17.8134 C   0  0  0  0  0  0  0  0  0  0  0  0
    5.3180  -20.5311   17.0868 C   0  0  0  0  0  0  0  0  0  0  0  0
    4.0636  -21.1939   17.3611 N   0  0  0  0  0  0  0  0  0  0  0  0
    8.5016  -16.4365   20.1405 C   0  0  0  0  0  0  0  0  0  0  0  0
    9.7186  -16.7543   20.1943 O   0  0  0  0  0  0  0  0  0  0  0  0
    8.0246  -15.6223   21.1965 N   0  0  0  0  0  0  0  0  0  0  0  0
    8.9251  -15.1106   22.2392 C   0  0  1  0  0  0  0  0  0  0  0  0
    8.2260  -13.9478   22.8544 C   0  0  0  0  0  0  0  0  0  0  0  0
    6.7299  -14.3472   23.7564 S   0  0  0  0  0  0  0  0  0  0  0  0
    9.3257  -16.1788   23.1580 C   0  0  0  0  0  0  0  0  0  0  0  0
    8.5272  -17.1646   23.3344 O   0  0  0  0  0  0  0  0  0  0  0  0
   10.5176  -16.2409   23.8826 N   0  0  0  0  0  0  0  0  0  0  0  0
   10.9511  -17.3988   24.6490 C   0  0  1  0  0  0  0  0  0  0  0  0
   12.4129  -17.6465   24.5155 C   0  0  0  0  0  0  0  0  0  0  0  0
   12.9345  -18.8477   25.2147 C   0  0  0  0  0  0  0  0  0  0  0  0
   14.4313  -19.0221   25.0749 C   0  0  0  0  0  0  0  0  0  0  0  0
   14.8418  -20.3468   25.7159 C   0  0  0  0  0  0  0  0  0  0  0  0
   16.2584  -20.6012   25.5380 N   0  0  0  0  0  0  0  0  0  0  0  0
   10.6195  -17.1378   26.0595 C   0  0  0  0  0  0  0  0  0  0  0  0
   10.5130  -18.1518   26.9881 O   0  0  0  0  0  0  0  0  0  0  0  0
   10.4241  -15.9632   26.4429 O   0  0  0  0  0  0  0  0  0  0  0  0
  2  8  1  0
  2  1  1  6
  3  2  1  0
  4  3  1  0
  5  4  1  0
  6  5  1  0
  6  7  1  0
  8  9  2  0
 10 11  1  0
 10  8  1  0
 11 12  1  1
 12 13  1  0
 14 15  2  0
 14 11  1  0
 16 14  1  0
 17 23  1  0
 17 16  1  0
 17 18  1  1
 19 20  1  0
 19 18  1  0
 20 21  1  0
 22 21  1  0
 23 24  1  0
 25 23  2  0
M  END
$$$$
