KCK.pdb
     RDKit          3D

 25 24  0  0  1  0  0  0  0  0999 V2000
    4.6871  -20.1613   19.8954 N   0  0  0  0  0  0  0  0  0  0  0  0
    4.6197  -19.3478   21.0692 C   0  0  1  0  0  0  0  0  0  0  0  0
    4.5333  -20.1032   22.3565 C   0  0  0  0  0  0  0  0  0  0  0  0
    3.4240  -21.1082   22.3888 C   0  0  0  0  0  0  0  0  0  0  0  0
    3.3607  -21.8624   23.7014 C   0  0  0  0  0  0  0  0  0  0  0  0
    2.1576  -22.8054   23.5821 C   0  0  0  0  0  0  0  0  0  0  0  0
    2.1354  -23.6762   24.7350 N   0  0  0  0  0  0  0  0  0  0  0  0
    5.7898  -18.4416   21.0955 C   0  0  0  0  0  0  0  0  0  0  0  0
    6.9406  -18.8667   20.8128 O   0  0  0  0  0  0  0  0  0  0  0  0
    5.6996  -17.0689   21.4316 N   0  0  0  0  0  0  0  0  0  0  0  0
    6.8944  -16.2165   21.5087 C   0  0  1  0  0  0  0  0  0  0  0  0
    6.4099  -14.8136   21.3807 C   0  0  0  0  0  0  0  0  0  0  0  0
    7.6322  -13.5498   21.7274 S   0  0  0  0  0  0  0  0  0  0  0  0
    7.6785  -16.5182   22.7086 C   0  0  0  0  0  0  0  0  0  0  0  0
    7.0710  -16.5889   23.8340 O   0  0  0  0  0  0  0  0  0  0  0  0
    9.0554  -16.7441   22.7601 N   0  0  0  0  0  0  0  0  0  0  0  0
    9.8156  -16.8942   23.9912 C   0  0  1  0  0  0  0  0  0  0  0  0
   10.2236  -18.3054   24.2318 C   0  0  0  0  0  0  0  0  0  0  0  0
   10.4580  -18.6810   25.6488 C   0  0  0  0  0  0  0  0  0  0  0  0
   10.9006  -20.1175   25.8246 C   0  0  0  0  0  0  0  0  0  0  0  0
   11.2291  -20.3623   27.2966 C   0  0  0  0  0  0  0  0  0  0  0  0
   11.6280  -21.7376   27.5254 N   0  0  0  0  0  0  0  0  0  0  0  0
   11.0129  -16.0458   23.8712 C   0  0  0  0  0  0  0  0  0  0  0  0
   11.6863  -15.5664   24.9751 O   0  0  0  0  0  0  0  0  0  0  0  0
   11.4446  -15.7403   22.7375 O   0  0  0  0  0  0  0  0  0  0  0  0
  2  8  1  0
  2  1  1  6
  3  2  1  0
  4  3  1  0
  5  4  1  0
  6  5  1  0
  6  7  1  0
  8  9  2  0
 10 11  1  0
 10  8  1  0
 11 12  1  1
 12 13  1  0
 14 15  2  0
 14 11  1  0
 16 14  1  0
 17 23  1  0
 17 16  1  0
 17 18  1  6
 19 20  1  0
 19 18  1  0
 20 21  1  0
 22 21  1  0
 23 24  1  0
 25 23  2  0
M  END
$$$$
