KCK.pdb
     RDKit          3D

 25 24  0  0  1  0  0  0  0  0999 V2000
    7.5324  -12.7243   20.1094 N   0  0  0  0  0  0  0  0  0  0  0  0
    7.5212  -13.9648   20.8202 C   0  0  1  0  0  0  0  0  0  0  0  0
    8.1858  -15.1028   20.1140 C   0  0  0  0  0  0  0  0  0  0  0  0
    7.5166  -15.4850   18.8303 C   0  0  0  0  0  0  0  0  0  0  0  0
    8.0516  -16.7825   18.2595 C   0  0  0  0  0  0  0  0  0  0  0  0
    7.2070  -17.0681   17.0121 C   0  0  0  0  0  0  0  0  0  0  0  0
    7.6111  -18.3411   16.4605 N   0  0  0  0  0  0  0  0  0  0  0  0
    8.1433  -13.7651   22.1484 C   0  0  0  0  0  0  0  0  0  0  0  0
    9.2440  -13.1644   22.2606 O   0  0  0  0  0  0  0  0  0  0  0  0
    7.5596  -14.2234   23.3544 N   0  0  0  0  0  0  0  0  0  0  0  0
    8.2399  -14.0623   24.6472 C   0  0  1  0  0  0  0  0  0  0  0  0
    7.3210  -13.2578   25.5002 C   0  0  0  0  0  0  0  0  0  0  0  0
    5.7099  -13.9886   25.7861 S   0  0  0  0  0  0  0  0  0  0  0  0
    8.6497  -15.3595   25.1905 C   0  0  0  0  0  0  0  0  0  0  0  0
    7.8272  -16.3389   25.1204 O   0  0  0  0  0  0  0  0  0  0  0  0
    9.8746  -15.6526   25.7932 N   0  0  0  0  0  0  0  0  0  0  0  0
   10.2266  -16.9521   26.3440 C   0  0  1  0  0  0  0  0  0  0  0  0
   11.6941  -17.1992   26.3087 C   0  0  0  0  0  0  0  0  0  0  0  0
   12.1467  -18.5019   26.8582 C   0  0  0  0  0  0  0  0  0  0  0  0
   13.6519  -18.6575   26.8738 C   0  0  0  0  0  0  0  0  0  0  0  0
   14.0044  -20.0558   27.3786 C   0  0  0  0  0  0  0  0  0  0  0  0
   15.4370  -20.2116   27.5407 N   0  0  0  0  0  0  0  0  0  0  0  0
    9.7529  -16.9784   27.7378 C   0  0  0  0  0  0  0  0  0  0  0  0
    9.4733  -15.8248   28.4397 O   0  0  0  0  0  0  0  0  0  0  0  0
    9.5953  -18.0755   28.3179 O   0  0  0  0  0  0  0  0  0  0  0  0
  2  8  1  0
  2  1  1  6
  3  2  1  0
  4  3  1  0
  5  4  1  0
  6  5  1  0
  6  7  1  0
  8  9  2  0
 10 11  1  0
 10  8  1  0
 11 12  1  1
 12 13  1  0
 14 15  2  0
 14 11  1  0
 16 14  1  0
 17 23  1  0
 17 16  1  0
 17 18  1  1
 19 20  1  0
 19 18  1  0
 20 21  1  0
 22 21  1  0
 23 24  1  0
 25 23  2  0
M  END
$$$$
