KCK.pdb
     RDKit          3D

 25 24  0  0  1  0  0  0  0  0999 V2000
    7.7306  -14.6931   20.2512 N   0  0  0  0  0  0  0  0  0  0  0  0
    6.8945  -14.9313   21.3862 C   0  0  1  0  0  0  0  0  0  0  0  0
    6.3613  -16.3238   21.4961 C   0  0  0  0  0  0  0  0  0  0  0  0
    7.3721  -17.3801   21.1736 C   0  0  0  0  0  0  0  0  0  0  0  0
    6.8003  -18.7801   21.2676 C   0  0  0  0  0  0  0  0  0  0  0  0
    7.9717  -19.7281   20.9845 C   0  0  0  0  0  0  0  0  0  0  0  0
    7.4848  -21.0882   21.0148 N   0  0  0  0  0  0  0  0  0  0  0  0
    7.6394  -14.5796   22.6160 C   0  0  0  0  0  0  0  0  0  0  0  0
    8.8898  -14.7144   22.6728 O   0  0  0  0  0  0  0  0  0  0  0  0
    7.0145  -14.0799   23.7844 N   0  0  0  0  0  0  0  0  0  0  0  0
    7.7985  -13.6437   24.9485 C   0  0  1  0  0  0  0  0  0  0  0  0
    6.9194  -12.7166   25.7147 C   0  0  0  0  0  0  0  0  0  0  0  0
    7.5047  -12.2906   27.3540 S   0  0  0  0  0  0  0  0  0  0  0  0
    8.3213  -14.7934   25.6906 C   0  0  0  0  0  0  0  0  0  0  0  0
    7.5270  -15.7630   25.9544 O   0  0  0  0  0  0  0  0  0  0  0  0
    9.6287  -14.9516   26.1544 N   0  0  0  0  0  0  0  0  0  0  0  0
   10.0846  -16.0803   26.9509 C   0  0  1  0  0  0  0  0  0  0  0  0
   11.3147  -16.7038   26.3905 C   0  0  0  0  0  0  0  0  0  0  0  0
   11.8818  -17.8341   27.1681 C   0  0  0  0  0  0  0  0  0  0  0  0
   13.1598  -18.3889   26.5772 C   0  0  0  0  0  0  0  0  0  0  0  0
   13.6692  -19.5233   27.4648 C   0  0  0  0  0  0  0  0  0  0  0  0
   14.7519  -20.2462   26.8260 N   0  0  0  0  0  0  0  0  0  0  0  0
   10.3582  -15.5758   28.3067 C   0  0  0  0  0  0  0  0  0  0  0  0
   10.5630  -16.4211   29.3769 O   0  0  0  0  0  0  0  0  0  0  0  0
   10.4084  -14.3424   28.5103 O   0  0  0  0  0  0  0  0  0  0  0  0
  2  8  1  0
  2  1  1  6
  3  2  1  0
  4  3  1  0
  5  4  1  0
  6  5  1  0
  6  7  1  0
  8  9  2  0
 10 11  1  0
 10  8  1  0
 11 12  1  1
 12 13  1  0
 14 15  2  0
 14 11  1  0
 16 14  1  0
 17 23  1  0
 17 16  1  0
 17 18  1  6
 19 20  1  0
 19 18  1  0
 20 21  1  0
 22 21  1  0
 23 24  1  0
 25 23  2  0
M  END
$$$$
