KCK.pdb
     RDKit          3D

 25 24  0  0  1  0  0  0  0  0999 V2000
    8.0127  -14.4325   20.4328 N   0  0  0  0  0  0  0  0  0  0  0  0
    7.1928  -14.8223   21.5373 C   0  0  1  0  0  0  0  0  0  0  0  0
    6.9597  -16.2939   21.6618 C   0  0  0  0  0  0  0  0  0  0  0  0
    8.2190  -17.1037   21.6482 C   0  0  0  0  0  0  0  0  0  0  0  0
    7.9516  -18.5949   21.6689 C   0  0  0  0  0  0  0  0  0  0  0  0
    9.3269  -19.2659   21.5728 C   0  0  0  0  0  0  0  0  0  0  0  0
    9.1435  -20.6991   21.5625 N   0  0  0  0  0  0  0  0  0  0  0  0
    7.7882  -14.3000   22.7878 C   0  0  0  0  0  0  0  0  0  0  0  0
    9.0371  -14.2088   22.9178 O   0  0  0  0  0  0  0  0  0  0  0  0
    7.0153  -13.8772   23.8965 N   0  0  0  0  0  0  0  0  0  0  0  0
    7.6458  -13.4008   25.1358 C   0  0  1  0  0  0  0  0  0  0  0  0
    6.6342  -12.5392   25.8092 C   0  0  0  0  0  0  0  0  0  0  0  0
    7.0537  -12.0300   27.4753 S   0  0  0  0  0  0  0  0  0  0  0  0
    8.1639  -14.5204   25.9256 C   0  0  0  0  0  0  0  0  0  0  0  0
    7.3824  -15.5032   26.1787 O   0  0  0  0  0  0  0  0  0  0  0  0
    9.4539  -14.6360   26.4470 N   0  0  0  0  0  0  0  0  0  0  0  0
    9.9119  -15.7515   27.2608 C   0  0  1  0  0  0  0  0  0  0  0  0
   11.1781  -16.3409   26.7457 C   0  0  0  0  0  0  0  0  0  0  0  0
   11.0725  -17.0935   25.4704 C   0  0  0  0  0  0  0  0  0  0  0  0
   12.3844  -17.6975   25.0184 C   0  0  0  0  0  0  0  0  0  0  0  0
   12.1432  -18.5322   23.7617 C   0  0  0  0  0  0  0  0  0  0  0  0
   13.3815  -19.0924   23.2560 N   0  0  0  0  0  0  0  0  0  0  0  0
   10.1226  -15.2393   28.6249 C   0  0  0  0  0  0  0  0  0  0  0  0
   10.4264  -16.0708   29.6823 O   0  0  0  0  0  0  0  0  0  0  0  0
   10.0250  -14.0122   28.8478 O   0  0  0  0  0  0  0  0  0  0  0  0
  2  8  1  0
  2  1  1  6
  3  2  1  0
  4  3  1  0
  5  4  1  0
  6  5  1  0
  6  7  1  0
  8  9  2  0
 10 11  1  0
 10  8  1  0
 11 12  1  1
 12 13  1  0
 14 15  2  0
 14 11  1  0
 16 14  1  0
 17 23  1  0
 17 16  1  0
 17 18  1  6
 19 20  1  0
 19 18  1  0
 20 21  1  0
 22 21  1  0
 23 24  1  0
 25 23  2  0
M  END
$$$$
