SYD.pdb
     RDKit          3D

 27 27  0  0  1  0  0  0  0  0999 V2000
    8.5784  -16.2715   20.0523 O   0  0  0  0  0  0  0  0  0  0  0  0
    7.4445  -15.4672   19.8362 C   0  0  0  0  0  0  0  0  0  0  0  0
    7.5954  -14.1300   20.5326 C   0  0  2  0  0  0  0  0  0  0  0  0
    8.1593  -13.1648   19.6364 N   0  0  0  0  0  0  0  0  0  0  0  0
    8.4235  -14.2203   21.7420 C   0  0  0  0  0  0  0  0  0  0  0  0
    9.5641  -13.7063   21.7876 O   0  0  0  0  0  0  0  0  0  0  0  0
    5.9379  -10.1286   27.3173 O   0  0  0  0  0  0  0  0  0  0  0  0
    6.4166  -11.3404   26.8296 C   0  0  0  0  0  0  0  0  0  0  0  0
    7.7404  -11.5125   26.4680 C   0  0  0  0  0  0  0  0  0  0  0  0
    8.1855  -12.7257   25.9876 C   0  0  0  0  0  0  0  0  0  0  0  0
    7.3570  -13.8247   25.8391 C   0  0  0  0  0  0  0  0  0  0  0  0
    7.8836  -15.0998   25.3108 C   0  0  0  0  0  0  0  0  0  0  0  0
    8.7807  -14.9646   24.1295 C   0  0  2  0  0  0  0  0  0  0  0  0
    7.9751  -14.8979   22.9311 N   0  0  0  0  0  0  0  0  0  0  0  0
    9.8283  -15.9969   24.0503 C   0  0  0  0  0  0  0  0  0  0  0  0
   10.5761  -16.1471   25.0540 O   0  0  0  0  0  0  0  0  0  0  0  0
    6.0284  -13.6333   26.2077 C   0  0  0  0  0  0  0  0  0  0  0  0
    5.5754  -12.4227   26.6891 C   0  0  0  0  0  0  0  0  0  0  0  0
   10.0532  -16.8224   22.9415 N   0  0  0  0  0  0  0  0  0  0  0  0
   11.1234  -17.8481   22.9585 C   0  0  1  0  0  0  0  0  0  0  0  0
   10.4560  -19.1656   22.7340 C   0  0  0  0  0  0  0  0  0  0  0  0
    9.5505  -19.1544   21.5821 C   0  0  0  0  0  0  0  0  0  0  0  0
    9.6936  -19.9664   20.6422 O   0  0  0  0  0  0  0  0  0  0  0  0
   11.9981  -17.5035   21.7999 C   0  0  0  0  0  0  0  0  0  0  0  0
   12.7696  -16.3758   21.7672 O   0  0  0  0  0  0  0  0  0  0  0  0
    8.4941  -18.2414   21.4845 O   0  0  0  0  0  0  0  0  0  0  0  0
   12.0587  -18.2575   20.7835 O   0  0  0  0  0  0  0  0  0  0  0  0
  2  1  1  0
  3  2  1  0
  3  5  1  0
  3  4  1  6
  5 14  1  0
  5  6  2  0
  8  7  1  0
  8 18  2  0
  9  8  1  0
 10  9  2  0
 10 11  1  0
 11 17  2  0
 12 11  1  0
 13 12  1  1
 14 13  1  0
 15 13  1  0
 15 16  2  0
 17 18  1  0
 19 15  1  0
 20 19  1  0
 20 21  1  6
 22 21  1  0
 22 26  1  0
 23 22  2  0
 24 20  1  0
 25 24  1  0
 27 24  2  0
M  END
$$$$
