SYD.pdb
     RDKit          3D

 27 27  0  0  1  0  0  0  0  0999 V2000
    5.7305  -16.9767   19.8959 O   0  0  0  0  0  0  0  0  0  0  0  0
    7.0724  -16.6684   20.1853 C   0  0  0  0  0  0  0  0  0  0  0  0
    7.2234  -15.1996   20.5252 C   0  0  2  0  0  0  0  0  0  0  0  0
    7.7288  -14.4782   19.3951 N   0  0  0  0  0  0  0  0  0  0  0  0
    8.1028  -14.9812   21.6808 C   0  0  0  0  0  0  0  0  0  0  0  0
    9.3190  -14.7241   21.5318 O   0  0  0  0  0  0  0  0  0  0  0  0
   10.6996  -14.4892   30.2396 O   0  0  0  0  0  0  0  0  0  0  0  0
    9.9654  -14.5325   29.0587 C   0  0  0  0  0  0  0  0  0  0  0  0
    9.4080  -15.7065   28.5857 C   0  0  0  0  0  0  0  0  0  0  0  0
    8.6854  -15.7181   27.4116 C   0  0  0  0  0  0  0  0  0  0  0  0
    8.4752  -14.5831   26.6475 C   0  0  0  0  0  0  0  0  0  0  0  0
    7.7000  -14.6527   25.3918 C   0  0  0  0  0  0  0  0  0  0  0  0
    8.5064  -14.9459   24.1743 C   0  0  2  0  0  0  0  0  0  0  0  0
    7.6211  -15.0496   23.0363 N   0  0  0  0  0  0  0  0  0  0  0  0
    9.3938  -16.1136   24.3092 C   0  0  0  0  0  0  0  0  0  0  0  0
    8.8728  -17.2570   24.2075 O   0  0  0  0  0  0  0  0  0  0  0  0
    9.0433  -13.4110   27.1385 C   0  0  0  0  0  0  0  0  0  0  0  0
    9.7676  -13.3912   28.3122 C   0  0  0  0  0  0  0  0  0  0  0  0
   10.7731  -16.0451   24.5422 N   0  0  0  0  0  0  0  0  0  0  0  0
   11.6083  -17.2699   24.5446 C   0  0  1  0  0  0  0  0  0  0  0  0
   12.9602  -16.8661   24.0537 C   0  0  0  0  0  0  0  0  0  0  0  0
   13.6716  -17.9591   23.3858 C   0  0  0  0  0  0  0  0  0  0  0  0
   13.2012  -19.1175   23.3669 O   0  0  0  0  0  0  0  0  0  0  0  0
   11.6759  -17.6806   25.9774 C   0  0  0  0  0  0  0  0  0  0  0  0
   11.8021  -18.9847   26.3664 O   0  0  0  0  0  0  0  0  0  0  0  0
   14.8990  -17.7558   22.7447 O   0  0  0  0  0  0  0  0  0  0  0  0
   11.6169  -16.8191   26.9046 O   0  0  0  0  0  0  0  0  0  0  0  0
  2  1  1  0
  3  2  1  0
  3  5  1  0
  3  4  1  6
  5 14  1  0
  5  6  2  0
  8  7  1  0
  8 18  2  0
  9  8  1  0
 10  9  2  0
 10 11  1  0
 11 17  2  0
 12 11  1  0
 13 12  1  1
 14 13  1  0
 15 13  1  0
 15 16  2  0
 17 18  1  0
 19 15  1  0
 20 19  1  0
 20 21  1  1
 22 21  1  0
 22 26  1  0
 23 22  2  0
 24 20  1  0
 25 24  1  0
 27 24  2  0
M  END
$$$$
