SYD.pdb
     RDKit          3D

 27 27  0  0  1  0  0  0  0  0999 V2000
    8.2414  -18.7119   19.8671 O   0  0  0  0  0  0  0  0  0  0  0  0
    7.7732  -17.8727   18.8395 C   0  0  0  0  0  0  0  0  0  0  0  0
    8.4785  -16.5322   18.8792 C   0  0  2  0  0  0  0  0  0  0  0  0
    9.7117  -16.5986   18.1528 N   0  0  0  0  0  0  0  0  0  0  0  0
    8.7403  -16.0792   20.2514 C   0  0  0  0  0  0  0  0  0  0  0  0
    9.8598  -16.2437   20.7869 O   0  0  0  0  0  0  0  0  0  0  0  0
    7.2631  -12.1808   28.1951 O   0  0  0  0  0  0  0  0  0  0  0  0
    7.1631  -12.6587   26.8924 C   0  0  0  0  0  0  0  0  0  0  0  0
    7.6397  -11.9408   25.8105 C   0  0  0  0  0  0  0  0  0  0  0  0
    7.5261  -12.4406   24.5307 C   0  0  0  0  0  0  0  0  0  0  0  0
    6.9419  -13.6640   24.2509 C   0  0  0  0  0  0  0  0  0  0  0  0
    6.8377  -14.1489   22.8594 C   0  0  0  0  0  0  0  0  0  0  0  0
    8.0069  -14.9393   22.3831 C   0  0  2  0  0  0  0  0  0  0  0  0
    7.7347  -15.4271   21.0499 N   0  0  0  0  0  0  0  0  0  0  0  0
    8.4218  -16.0112   23.3041 C   0  0  0  0  0  0  0  0  0  0  0  0
    7.8014  -17.1067   23.2414 O   0  0  0  0  0  0  0  0  0  0  0  0
    6.4680  -14.3725   25.3514 C   0  0  0  0  0  0  0  0  0  0  0  0
    6.5778  -13.8793   26.6349 C   0  0  0  0  0  0  0  0  0  0  0  0
    9.4546  -15.9008   24.2435 N   0  0  0  0  0  0  0  0  0  0  0  0
    9.8996  -17.0762   25.0299 C   0  0  1  0  0  0  0  0  0  0  0  0
   11.3044  -17.3635   24.6110 C   0  0  0  0  0  0  0  0  0  0  0  0
   11.9268  -18.4275   25.4031 C   0  0  0  0  0  0  0  0  0  0  0  0
   11.2481  -19.1323   26.1815 O   0  0  0  0  0  0  0  0  0  0  0  0
    9.8628  -16.6191   26.4498 C   0  0  0  0  0  0  0  0  0  0  0  0
    9.6976  -17.4799   27.4984 O   0  0  0  0  0  0  0  0  0  0  0  0
   13.2975  -18.6991   25.3236 O   0  0  0  0  0  0  0  0  0  0  0  0
    9.9851  -15.3922   26.7416 O   0  0  0  0  0  0  0  0  0  0  0  0
  2  1  1  0
  3  2  1  0
  3  5  1  0
  3  4  1  6
  5 14  1  0
  5  6  2  0
  8  7  1  0
  8 18  2  0
  9  8  1  0
 10  9  2  0
 10 11  1  0
 11 17  2  0
 12 11  1  0
 13 12  1  1
 14 13  1  0
 15 13  1  0
 15 16  2  0
 17 18  1  0
 19 15  1  0
 20 19  1  0
 20 21  1  6
 22 21  1  0
 22 26  1  0
 23 22  2  0
 24 20  1  0
 25 24  1  0
 27 24  2  0
M  END
$$$$
