SYD.pdb
     RDKit          3D

 27 27  0  0  1  0  0  0  0  0999 V2000
    8.1992  -17.2857   20.4357 O   0  0  0  0  0  0  0  0  0  0  0  0
    8.3248  -16.1265   19.6484 C   0  0  0  0  0  0  0  0  0  0  0  0
    7.9540  -14.8934   20.4472 C   0  0  2  0  0  0  0  0  0  0  0  0
    8.1127  -13.7166   19.6454 N   0  0  0  0  0  0  0  0  0  0  0  0
    8.7497  -14.7628   21.6745 C   0  0  0  0  0  0  0  0  0  0  0  0
    9.9250  -14.3328   21.6436 O   0  0  0  0  0  0  0  0  0  0  0  0
   10.7184  -14.9163   30.4186 O   0  0  0  0  0  0  0  0  0  0  0  0
   10.1012  -14.8569   29.1732 C   0  0  0  0  0  0  0  0  0  0  0  0
   10.1343  -13.7152   28.3933 C   0  0  0  0  0  0  0  0  0  0  0  0
    9.5130  -13.6866   27.1629 C   0  0  0  0  0  0  0  0  0  0  0  0
    8.8316  -14.7721   26.6398 C   0  0  0  0  0  0  0  0  0  0  0  0
    8.1754  -14.6850   25.3192 C   0  0  0  0  0  0  0  0  0  0  0  0
    9.0376  -15.0660   24.1659 C   0  0  2  0  0  0  0  0  0  0  0  0
    8.2284  -15.1180   22.9692 N   0  0  0  0  0  0  0  0  0  0  0  0
    9.8133  -16.2999   24.3785 C   0  0  0  0  0  0  0  0  0  0  0  0
    9.2197  -17.3988   24.2074 O   0  0  0  0  0  0  0  0  0  0  0  0
    8.8085  -15.9121   27.4382 C   0  0  0  0  0  0  0  0  0  0  0  0
    9.4276  -15.9487   28.6702 C   0  0  0  0  0  0  0  0  0  0  0  0
   11.1612  -16.3400   24.7567 N   0  0  0  0  0  0  0  0  0  0  0  0
   11.8755  -17.6312   24.8996 C   0  0  1  0  0  0  0  0  0  0  0  0
   13.2791  -17.3954   24.4458 C   0  0  0  0  0  0  0  0  0  0  0  0
   13.3839  -17.2117   22.9960 C   0  0  0  0  0  0  0  0  0  0  0  0
   12.6565  -17.8576   22.2105 O   0  0  0  0  0  0  0  0  0  0  0  0
   11.8433  -17.9232   26.3624 C   0  0  0  0  0  0  0  0  0  0  0  0
   12.3696  -19.0645   26.8991 O   0  0  0  0  0  0  0  0  0  0  0  0
   14.2956  -16.3122   22.4314 O   0  0  0  0  0  0  0  0  0  0  0  0
   11.3160  -17.1084   27.1769 O   0  0  0  0  0  0  0  0  0  0  0  0
  2  1  1  0
  3  2  1  0
  3  5  1  0
  3  4  1  6
  5 14  1  0
  5  6  2  0
  8  7  1  0
  8 18  2  0
  9  8  1  0
 10  9  2  0
 10 11  1  0
 11 17  2  0
 12 11  1  0
 13 12  1  1
 14 13  1  0
 15 13  1  0
 15 16  2  0
 17 18  1  0
 19 15  1  0
 20 19  1  0
 20 21  1  1
 22 21  1  0
 22 26  1  0
 23 22  2  0
 24 20  1  0
 25 24  1  0
 27 24  2  0
M  END
$$$$
