SYD.pdb
     RDKit          3D

 27 27  0  0  1  0  0  0  0  0999 V2000
   10.2533  -18.1697   19.7758 O   0  0  0  0  0  0  0  0  0  0  0  0
    8.9844  -17.6862   20.1442 C   0  0  0  0  0  0  0  0  0  0  0  0
    9.0239  -16.1868   20.3585 C   0  0  2  0  0  0  0  0  0  0  0  0
    9.6723  -15.5446   19.2540 N   0  0  0  0  0  0  0  0  0  0  0  0
    9.7020  -15.8187   21.6080 C   0  0  0  0  0  0  0  0  0  0  0  0
   10.8730  -15.3761   21.6051 O   0  0  0  0  0  0  0  0  0  0  0  0
   10.8397  -14.4786   30.4082 O   0  0  0  0  0  0  0  0  0  0  0  0
   10.3262  -14.6884   29.1323 C   0  0  0  0  0  0  0  0  0  0  0  0
   10.0935  -13.6443   28.2558 C   0  0  0  0  0  0  0  0  0  0  0  0
    9.5836  -13.8837   26.9975 C   0  0  0  0  0  0  0  0  0  0  0  0
    9.2784  -15.1539   26.5395 C   0  0  0  0  0  0  0  0  0  0  0  0
    8.7254  -15.3539   25.1843 C   0  0  0  0  0  0  0  0  0  0  0  0
    9.7417  -15.6052   24.1248 C   0  0  2  0  0  0  0  0  0  0  0  0
    9.0650  -15.9447   22.8935 N   0  0  0  0  0  0  0  0  0  0  0  0
   10.7664  -16.5949   24.4989 C   0  0  0  0  0  0  0  0  0  0  0  0
   10.4473  -17.8133   24.4458 O   0  0  0  0  0  0  0  0  0  0  0  0
    9.5188  -16.1923   27.4348 C   0  0  0  0  0  0  0  0  0  0  0  0
   10.0288  -15.9610   28.6954 C   0  0  0  0  0  0  0  0  0  0  0  0
   12.0680  -16.2800   24.9090 N   0  0  0  0  0  0  0  0  0  0  0  0
   13.0465  -17.3469   25.2284 C   0  0  1  0  0  0  0  0  0  0  0  0
   14.4036  -16.7420   25.0741 C   0  0  0  0  0  0  0  0  0  0  0  0
   14.7581  -16.4922   23.6746 C   0  0  0  0  0  0  0  0  0  0  0  0
   15.6101  -15.6293   23.3698 O   0  0  0  0  0  0  0  0  0  0  0  0
   12.7865  -17.6849   26.6582 C   0  0  0  0  0  0  0  0  0  0  0  0
   13.4650  -18.6703   27.3189 O   0  0  0  0  0  0  0  0  0  0  0  0
   14.1633  -17.2031   22.6259 O   0  0  0  0  0  0  0  0  0  0  0  0
   11.9098  -17.0594   27.3255 O   0  0  0  0  0  0  0  0  0  0  0  0
  2  1  1  0
  3  2  1  0
  3  5  1  0
  3  4  1  6
  5 14  1  0
  5  6  2  0
  8  7  1  0
  8 18  2  0
  9  8  1  0
 10  9  2  0
 10 11  1  0
 11 17  2  0
 12 11  1  0
 13 12  1  1
 14 13  1  0
 15 13  1  0
 15 16  2  0
 17 18  1  0
 19 15  1  0
 20 19  1  0
 20 21  1  1
 22 21  1  0
 22 26  1  0
 23 22  2  0
 24 20  1  0
 25 24  1  0
 27 24  2  0
M  END
$$$$
