SYD.pdb
     RDKit          3D

 27 27  0  0  1  0  0  0  0  0999 V2000
    8.4437  -16.6681   19.6784 O   0  0  0  0  0  0  0  0  0  0  0  0
    7.1970  -16.1870   20.1186 C   0  0  0  0  0  0  0  0  0  0  0  0
    7.3389  -14.8044   20.7220 C   0  0  2  0  0  0  0  0  0  0  0  0
    7.8588  -13.8896   19.7495 N   0  0  0  0  0  0  0  0  0  0  0  0
    8.2005  -14.7996   21.9112 C   0  0  0  0  0  0  0  0  0  0  0  0
    9.3779  -14.3776   21.8581 O   0  0  0  0  0  0  0  0  0  0  0  0
    5.5815  -10.0985   26.7117 O   0  0  0  0  0  0  0  0  0  0  0  0
    6.1158  -11.3534   26.4374 C   0  0  0  0  0  0  0  0  0  0  0  0
    7.4351  -11.5205   26.0575 C   0  0  0  0  0  0  0  0  0  0  0  0
    7.9361  -12.7772   25.7921 C   0  0  0  0  0  0  0  0  0  0  0  0
    7.1704  -13.9266   25.8861 C   0  0  0  0  0  0  0  0  0  0  0  0
    7.7549  -15.2487   25.5818 C   0  0  0  0  0  0  0  0  0  0  0  0
    8.6007  -15.2917   24.3565 C   0  0  2  0  0  0  0  0  0  0  0  0
    7.7445  -15.2751   23.1919 N   0  0  0  0  0  0  0  0  0  0  0  0
    9.5667  -16.4033   24.3328 C   0  0  0  0  0  0  0  0  0  0  0  0
    9.1601  -17.5206   23.9141 O   0  0  0  0  0  0  0  0  0  0  0  0
    5.8454  -13.7395   26.2696 C   0  0  0  0  0  0  0  0  0  0  0  0
    5.3366  -12.4856   26.5368 C   0  0  0  0  0  0  0  0  0  0  0  0
   10.9028  -16.3082   24.7418 N   0  0  0  0  0  0  0  0  0  0  0  0
   11.7612  -17.5137   24.8304 C   0  0  1  0  0  0  0  0  0  0  0  0
   13.1668  -17.0537   24.6196 C   0  0  0  0  0  0  0  0  0  0  0  0
   13.3597  -16.3916   23.3269 C   0  0  0  0  0  0  0  0  0  0  0  0
   12.8513  -16.8555   22.2831 O   0  0  0  0  0  0  0  0  0  0  0  0
   11.5789  -18.0079   26.2263 C   0  0  0  0  0  0  0  0  0  0  0  0
   10.8000  -17.3594   27.1432 O   0  0  0  0  0  0  0  0  0  0  0  0
   14.1156  -15.2199   23.2050 O   0  0  0  0  0  0  0  0  0  0  0  0
   12.1509  -19.0672   26.6214 O   0  0  0  0  0  0  0  0  0  0  0  0
  2  1  1  0
  3  2  1  0
  3  5  1  0
  3  4  1  6
  5 14  1  0
  5  6  2  0
  8  7  1  0
  8 18  2  0
  9  8  1  0
 10  9  2  0
 10 11  1  0
 11 17  2  0
 12 11  1  0
 13 12  1  1
 14 13  1  0
 15 13  1  0
 15 16  2  0
 17 18  1  0
 19 15  1  0
 20 19  1  0
 20 21  1  1
 22 21  1  0
 22 26  1  0
 23 22  2  0
 24 20  1  0
 25 24  1  0
 27 24  2  0
M  END
$$$$
