SYD.pdb
     RDKit          3D

 27 27  0  0  1  0  0  0  0  0999 V2000
   10.0612  -20.4027   19.6317 O   0  0  0  0  0  0  0  0  0  0  0  0
    9.9922  -19.7141   18.4067 C   0  0  0  0  0  0  0  0  0  0  0  0
    9.1356  -18.4711   18.5383 C   0  0  2  0  0  0  0  0  0  0  0  0
    9.0747  -17.7759   17.2870 N   0  0  0  0  0  0  0  0  0  0  0  0
    9.6267  -17.5622   19.5820 C   0  0  0  0  0  0  0  0  0  0  0  0
   10.7053  -16.9413   19.4473 O   0  0  0  0  0  0  0  0  0  0  0  0
    7.2340  -11.5729   18.3164 O   0  0  0  0  0  0  0  0  0  0  0  0
    7.5194  -12.5368   19.2782 C   0  0  0  0  0  0  0  0  0  0  0  0
    6.7103  -13.6419   19.4700 C   0  0  0  0  0  0  0  0  0  0  0  0
    7.0192  -14.5804   20.4315 C   0  0  0  0  0  0  0  0  0  0  0  0
    8.1324  -14.4810   21.2483 C   0  0  0  0  0  0  0  0  0  0  0  0
    8.4124  -15.5111   22.2695 C   0  0  0  0  0  0  0  0  0  0  0  0
    9.4338  -16.5212   21.8756 C   0  0  2  0  0  0  0  0  0  0  0  0
    8.9028  -17.3362   20.8064 N   0  0  0  0  0  0  0  0  0  0  0  0
    9.9471  -17.3246   22.9982 C   0  0  0  0  0  0  0  0  0  0  0  0
    9.2082  -18.2438   23.4435 O   0  0  0  0  0  0  0  0  0  0  0  0
    8.9351  -13.3628   21.0413 C   0  0  0  0  0  0  0  0  0  0  0  0
    8.6329  -12.4194   20.0815 C   0  0  0  0  0  0  0  0  0  0  0  0
   11.1956  -17.1410   23.6057 N   0  0  0  0  0  0  0  0  0  0  0  0
   11.6453  -18.0250   24.7077 C   0  0  1  0  0  0  0  0  0  0  0  0
   13.1196  -17.8246   24.8414 C   0  0  0  0  0  0  0  0  0  0  0  0
   13.8683  -19.0838   24.8160 C   0  0  0  0  0  0  0  0  0  0  0  0
   13.2765  -20.1850   24.7919 O   0  0  0  0  0  0  0  0  0  0  0  0
   10.9384  -17.5129   25.9178 C   0  0  0  0  0  0  0  0  0  0  0  0
   10.5857  -18.3195   26.9632 O   0  0  0  0  0  0  0  0  0  0  0  0
   15.2677  -19.1089   24.8175 O   0  0  0  0  0  0  0  0  0  0  0  0
   10.6322  -16.2879   26.0227 O   0  0  0  0  0  0  0  0  0  0  0  0
  2  1  1  0
  3  2  1  0
  3  5  1  0
  3  4  1  6
  5 14  1  0
  5  6  2  0
  8  7  1  0
  8 18  2  0
  9  8  1  0
 10  9  2  0
 10 11  1  0
 11 17  2  0
 12 11  1  0
 13 12  1  1
 14 13  1  0
 15 13  1  0
 15 16  2  0
 17 18  1  0
 19 15  1  0
 20 19  1  0
 20 21  1  1
 22 21  1  0
 22 26  1  0
 23 22  2  0
 24 20  1  0
 25 24  1  0
 27 24  2  0
M  END
$$$$
