SYD.pdb
     RDKit          3D

 27 27  0  0  1  0  0  0  0  0999 V2000
    9.0618  -18.5266   20.8467 O   0  0  0  0  0  0  0  0  0  0  0  0
    8.5010  -18.0938   19.6311 C   0  0  0  0  0  0  0  0  0  0  0  0
    8.7128  -16.6053   19.4432 C   0  0  2  0  0  0  0  0  0  0  0  0
    9.8108  -16.3687   18.5536 N   0  0  0  0  0  0  0  0  0  0  0  0
    8.9518  -15.9101   20.7145 C   0  0  0  0  0  0  0  0  0  0  0  0
   10.0948  -15.5086   21.0299 O   0  0  0  0  0  0  0  0  0  0  0  0
    7.0161  -10.8682   27.8301 O   0  0  0  0  0  0  0  0  0  0  0  0
    6.9615  -11.7051   26.7201 C   0  0  0  0  0  0  0  0  0  0  0  0
    7.4500  -11.3171   25.4857 C   0  0  0  0  0  0  0  0  0  0  0  0
    7.3818  -12.1688   24.4038 C   0  0  0  0  0  0  0  0  0  0  0  0
    6.8332  -13.4375   24.4796 C   0  0  0  0  0  0  0  0  0  0  0  0
    6.7769  -14.3070   23.2867 C   0  0  0  0  0  0  0  0  0  0  0  0
    8.0949  -14.8310   22.8317 C   0  0  2  0  0  0  0  0  0  0  0  0
    7.8961  -15.6537   21.6599 N   0  0  0  0  0  0  0  0  0  0  0  0
    8.8621  -15.5200   23.8834 C   0  0  0  0  0  0  0  0  0  0  0  0
    9.1563  -14.8614   24.9172 O   0  0  0  0  0  0  0  0  0  0  0  0
    6.3467  -13.8111   25.7292 C   0  0  0  0  0  0  0  0  0  0  0  0
    6.4113  -12.9648   26.8165 C   0  0  0  0  0  0  0  0  0  0  0  0
    9.2878  -16.8526   23.8174 N   0  0  0  0  0  0  0  0  0  0  0  0
   10.0589  -17.4631   24.9267 C   0  0  1  0  0  0  0  0  0  0  0  0
    9.5328  -18.8505   25.0999 C   0  0  0  0  0  0  0  0  0  0  0  0
    8.1601  -18.8774   25.6114 C   0  0  0  0  0  0  0  0  0  0  0  0
    7.6677  -17.8833   26.1880 O   0  0  0  0  0  0  0  0  0  0  0  0
   11.4675  -17.4979   24.4359 C   0  0  0  0  0  0  0  0  0  0  0  0
   12.5105  -17.9147   25.2145 O   0  0  0  0  0  0  0  0  0  0  0  0
    7.3464  -20.0084   25.4778 O   0  0  0  0  0  0  0  0  0  0  0  0
   11.7546  -17.1345   23.2565 O   0  0  0  0  0  0  0  0  0  0  0  0
  2  1  1  0
  3  2  1  0
  3  5  1  0
  3  4  1  6
  5 14  1  0
  5  6  2  0
  8  7  1  0
  8 18  2  0
  9  8  1  0
 10  9  2  0
 10 11  1  0
 11 17  2  0
 12 11  1  0
 13 12  1  1
 14 13  1  0
 15 13  1  0
 15 16  2  0
 17 18  1  0
 19 15  1  0
 20 19  1  0
 20 21  1  6
 22 21  1  0
 22 26  1  0
 23 22  2  0
 24 20  1  0
 25 24  1  0
 27 24  2  0
M  END
$$$$
