SYD.pdb
     RDKit          3D

 27 27  0  0  1  0  0  0  0  0999 V2000
    8.9060  -18.7918   19.9275 O   0  0  0  0  0  0  0  0  0  0  0  0
    8.3963  -17.6986   19.2033 C   0  0  0  0  0  0  0  0  0  0  0  0
    9.3053  -16.4942   19.3407 C   0  0  2  0  0  0  0  0  0  0  0  0
   10.6088  -16.7953   18.8278 N   0  0  0  0  0  0  0  0  0  0  0  0
    9.4183  -16.0352   20.7311 C   0  0  0  0  0  0  0  0  0  0  0  0
   10.4454  -16.2647   21.4090 O   0  0  0  0  0  0  0  0  0  0  0  0
    7.1191  -12.1040   28.4572 O   0  0  0  0  0  0  0  0  0  0  0  0
    7.1757  -12.5446   27.1388 C   0  0  0  0  0  0  0  0  0  0  0  0
    6.2008  -13.3629   26.5977 C   0  0  0  0  0  0  0  0  0  0  0  0
    6.2844  -13.7834   25.2874 C   0  0  0  0  0  0  0  0  0  0  0  0
    7.3241  -13.4232   24.4475 C   0  0  0  0  0  0  0  0  0  0  0  0
    7.3698  -13.9094   23.0533 C   0  0  0  0  0  0  0  0  0  0  0  0
    8.4666  -14.8745   22.7630 C   0  0  2  0  0  0  0  0  0  0  0  0
    8.3652  -15.3032   21.3862 N   0  0  0  0  0  0  0  0  0  0  0  0
    8.5354  -16.0054   23.7041 C   0  0  0  0  0  0  0  0  0  0  0  0
    7.5836  -16.8318   23.6935 O   0  0  0  0  0  0  0  0  0  0  0  0
    8.2959  -12.5997   25.0087 C   0  0  0  0  0  0  0  0  0  0  0  0
    8.2195  -12.1746   26.3187 C   0  0  0  0  0  0  0  0  0  0  0  0
    9.5810  -16.2281   24.6089 N   0  0  0  0  0  0  0  0  0  0  0  0
    9.5220  -17.3437   25.5835 C   0  0  1  0  0  0  0  0  0  0  0  0
   10.5575  -18.3345   25.1619 C   0  0  0  0  0  0  0  0  0  0  0  0
   11.8178  -17.7033   24.7621 C   0  0  0  0  0  0  0  0  0  0  0  0
   12.4095  -16.9069   25.5230 O   0  0  0  0  0  0  0  0  0  0  0  0
    9.8935  -16.7264   26.8901 C   0  0  0  0  0  0  0  0  0  0  0  0
   10.2051  -15.4020   27.0188 O   0  0  0  0  0  0  0  0  0  0  0  0
   12.4098  -17.9621   23.5205 O   0  0  0  0  0  0  0  0  0  0  0  0
    9.9353  -17.4208   27.9491 O   0  0  0  0  0  0  0  0  0  0  0  0
  2  1  1  0
  3  2  1  0
  3  5  1  0
  3  4  1  1
  5 14  1  0
  5  6  2  0
  8  7  1  0
  8 18  2  0
  9  8  1  0
 10  9  2  0
 10 11  1  0
 11 17  2  0
 12 11  1  0
 13 12  1  1
 14 13  1  0
 15 13  1  0
 15 16  2  0
 17 18  1  0
 19 15  1  0
 20 19  1  0
 20 21  1  6
 22 21  1  0
 22 26  1  0
 23 22  2  0
 24 20  1  0
 25 24  1  0
 27 24  2  0
M  END
$$$$
