YSK.pdb
     RDKit          3D

 28 28  0  0  1  0  0  0  0  0999 V2000
    9.2693  -17.1042    9.5562 O   0  0  0  0  0  0  0  0  0  0  0  0
    9.7713  -17.2318   10.8429 C   0  0  0  0  0  0  0  0  0  0  0  0
   10.8642  -16.4466   11.1791 C   0  0  0  0  0  0  0  0  0  0  0  0
   11.3711  -16.5665   12.4577 C   0  0  0  0  0  0  0  0  0  0  0  0
   10.8121  -17.4297   13.3564 C   0  0  0  0  0  0  0  0  0  0  0  0
   11.3593  -17.5575   14.7326 C   0  0  0  0  0  0  0  0  0  0  0  0
   10.3096  -17.0121   15.6756 C   0  0  2  0  0  0  0  0  0  0  0  0
    9.9640  -15.6521   15.3576 N   0  0  0  0  0  0  0  0  0  0  0  0
   10.7254  -17.1614   17.0964 C   0  0  0  0  0  0  0  0  0  0  0  0
   11.4361  -16.2678   17.6597 O   0  0  0  0  0  0  0  0  0  0  0  0
    9.7179  -18.2039   12.9921 C   0  0  0  0  0  0  0  0  0  0  0  0
    9.2081  -18.0939   11.7307 C   0  0  0  0  0  0  0  0  0  0  0  0
    9.1965  -20.2239   19.3077 O   0  0  0  0  0  0  0  0  0  0  0  0
    9.7498  -19.1954   20.0534 C   0  0  0  0  0  0  0  0  0  0  0  0
   10.8365  -18.5403   19.2281 C   0  0  2  0  0  0  0  0  0  0  0  0
   10.3568  -18.2826   17.8723 N   0  0  0  0  0  0  0  0  0  0  0  0
   12.0310  -19.3781   19.1222 C   0  0  0  0  0  0  0  0  0  0  0  0
   12.3444  -19.9647   18.0320 O   0  0  0  0  0  0  0  0  0  0  0  0
   12.8868  -19.5653   20.2369 N   0  0  0  0  0  0  0  0  0  0  0  0
   14.3533  -19.5733   20.0915 C   0  0  1  0  0  0  0  0  0  0  0  0
   14.7791  -18.3060   19.3891 C   0  0  0  0  0  0  0  0  0  0  0  0
   16.1304  -18.3689   18.7792 C   0  0  0  0  0  0  0  0  0  0  0  0
   16.5276  -17.1428   18.0163 C   0  0  0  0  0  0  0  0  0  0  0  0
   17.9535  -17.1383   17.5785 C   0  0  0  0  0  0  0  0  0  0  0  0
   18.3569  -15.8939   16.9610 N   0  0  0  0  0  0  0  0  0  0  0  0
   14.9250  -19.7429   21.4265 C   0  0  0  0  0  0  0  0  0  0  0  0
   14.3575  -19.2715   22.4302 O   0  0  0  0  0  0  0  0  0  0  0  0
   16.1145  -20.4350   21.6007 O   0  0  0  0  0  0  0  0  0  0  0  0
  2 12  2  0
  2  1  1  0
  3  2  1  0
  4  5  1  0
  4  3  2  0
  5 11  2  0
  6  5  1  0
  7  9  1  0
  7  6  1  0
  7  8  1  6
  9 16  1  0
  9 10  2  0
 11 12  1  0
 13 14  1  0
 15 14  1  1
 15 17  1  0
 16 15  1  0
 17 18  2  0
 19 17  1  0
 19 20  1  0
 20 26  1  0
 20 21  1  1
 22 21  1  0
 23 22  1  0
 24 23  1  0
 25 24  1  0
 26 28  1  0
 27 26  2  0
M  END
$$$$
