YSK.pdb
     RDKit          3D

 28 28  0  0  1  0  0  0  0  0999 V2000
    5.0363  -10.4638   26.9561 O   0  0  0  0  0  0  0  0  0  0  0  0
    5.8602  -11.5290   26.6242 C   0  0  0  0  0  0  0  0  0  0  0  0
    6.1798  -12.4238   27.6348 C   0  0  0  0  0  0  0  0  0  0  0  0
    6.9995  -13.4876   27.3142 C   0  0  0  0  0  0  0  0  0  0  0  0
    7.4764  -13.6486   26.0445 C   0  0  0  0  0  0  0  0  0  0  0  0
    8.3588  -14.7945   25.7012 C   0  0  0  0  0  0  0  0  0  0  0  0
    7.4904  -15.8300   25.0213 C   0  0  2  0  0  0  0  0  0  0  0  0
    6.7735  -16.6328   25.9762 N   0  0  0  0  0  0  0  0  0  0  0  0
    8.2797  -16.6648   24.0757 C   0  0  0  0  0  0  0  0  0  0  0  0
    8.8556  -17.7271   24.4765 O   0  0  0  0  0  0  0  0  0  0  0  0
    7.1398  -12.7367   25.0522 C   0  0  0  0  0  0  0  0  0  0  0  0
    6.3301  -11.6811   25.3575 C   0  0  0  0  0  0  0  0  0  0  0  0
    9.2593  -15.2406   20.3029 O   0  0  0  0  0  0  0  0  0  0  0  0
    8.9447  -16.5895   20.3431 C   0  0  0  0  0  0  0  0  0  0  0  0
    9.1998  -17.0961   21.7466 C   0  0  2  0  0  0  0  0  0  0  0  0
    8.4236  -16.3226   22.7130 N   0  0  0  0  0  0  0  0  0  0  0  0
   10.6088  -16.9895   22.1251 C   0  0  0  0  0  0  0  0  0  0  0  0
   11.1124  -15.8892   22.5331 O   0  0  0  0  0  0  0  0  0  0  0  0
   11.4668  -18.1158   22.0513 N   0  0  0  0  0  0  0  0  0  0  0  0
   12.8982  -18.0191   22.3882 C   0  0  1  0  0  0  0  0  0  0  0  0
   13.2294  -19.0792   23.4116 C   0  0  0  0  0  0  0  0  0  0  0  0
   12.4531  -20.3353   23.2647 C   0  0  0  0  0  0  0  0  0  0  0  0
   12.7678  -21.3854   24.2851 C   0  0  0  0  0  0  0  0  0  0  0  0
   11.9645  -22.6334   24.1364 C   0  0  0  0  0  0  0  0  0  0  0  0
   12.3526  -23.6756   25.0614 N   0  0  0  0  0  0  0  0  0  0  0  0
   13.6508  -18.1315   21.1396 C   0  0  0  0  0  0  0  0  0  0  0  0
   13.0707  -18.3610   20.0614 O   0  0  0  0  0  0  0  0  0  0  0  0
   15.0300  -17.9837   21.1327 O   0  0  0  0  0  0  0  0  0  0  0  0
  2 12  2  0
  2  1  1  0
  3  2  1  0
  4  5  1  0
  4  3  2  0
  5 11  2  0
  6  5  1  0
  7  9  1  0
  7  6  1  0
  7  8  1  1
  9 16  1  0
  9 10  2  0
 11 12  1  0
 13 14  1  0
 15 14  1  6
 15 17  1  0
 16 15  1  0
 17 18  2  0
 19 17  1  0
 19 20  1  0
 20 26  1  0
 20 21  1  1
 22 21  1  0
 23 22  1  0
 24 23  1  0
 25 24  1  0
 26 28  1  0
 27 26  2  0
M  END
$$$$
