YSK.pdb
     RDKit          3D

 28 28  0  0  1  0  0  0  0  0999 V2000
    7.3899  -11.2827   18.2583 O   0  0  0  0  0  0  0  0  0  0  0  0
    7.8819  -12.3344   19.0168 C   0  0  0  0  0  0  0  0  0  0  0  0
    9.2497  -12.5615   18.9762 C   0  0  0  0  0  0  0  0  0  0  0  0
    9.7492  -13.6063   19.7280 C   0  0  0  0  0  0  0  0  0  0  0  0
    8.9208  -14.3861   20.4837 C   0  0  0  0  0  0  0  0  0  0  0  0
    9.4603  -15.5106   21.2925 C   0  0  0  0  0  0  0  0  0  0  0  0
    9.8299  -16.6118   20.3231 C   0  0  2  0  0  0  0  0  0  0  0  0
    8.6710  -17.1478   19.6601 N   0  0  0  0  0  0  0  0  0  0  0  0
   10.6303  -17.6752   20.9884 C   0  0  0  0  0  0  0  0  0  0  0  0
   10.0769  -18.4958   21.7891 O   0  0  0  0  0  0  0  0  0  0  0  0
    7.5547  -14.1356   20.5054 C   0  0  0  0  0  0  0  0  0  0  0  0
    7.0496  -13.1053   19.7661 C   0  0  0  0  0  0  0  0  0  0  0  0
   14.6505  -17.8791   20.2314 O   0  0  0  0  0  0  0  0  0  0  0  0
   14.0639  -19.1144   20.4548 C   0  0  0  0  0  0  0  0  0  0  0  0
   12.8295  -18.9081   21.3063 C   0  0  2  0  0  0  0  0  0  0  0  0
   12.0174  -17.8205   20.7656 N   0  0  0  0  0  0  0  0  0  0  0  0
   13.1625  -18.5656   22.6889 C   0  0  0  0  0  0  0  0  0  0  0  0
   13.1340  -17.3591   23.1066 O   0  0  0  0  0  0  0  0  0  0  0  0
   13.5295  -19.5723   23.6173 N   0  0  0  0  0  0  0  0  0  0  0  0
   13.7859  -19.2592   25.0343 C   0  0  1  0  0  0  0  0  0  0  0  0
   13.0529  -20.2614   25.8940 C   0  0  0  0  0  0  0  0  0  0  0  0
   13.2772  -20.0973   27.3516 C   0  0  0  0  0  0  0  0  0  0  0  0
   12.5665  -21.0991   28.2083 C   0  0  0  0  0  0  0  0  0  0  0  0
   12.7185  -20.8590   29.6727 C   0  0  0  0  0  0  0  0  0  0  0  0
   12.0732  -21.8662   30.4861 N   0  0  0  0  0  0  0  0  0  0  0  0
   15.2355  -19.2484   25.2252 C   0  0  0  0  0  0  0  0  0  0  0  0
   15.7716  -18.4422   26.0091 O   0  0  0  0  0  0  0  0  0  0  0  0
   16.0437  -20.1393   24.5344 O   0  0  0  0  0  0  0  0  0  0  0  0
  2 12  2  0
  2  1  1  0
  3  2  1  0
  4  5  1  0
  4  3  2  0
  5 11  2  0
  6  5  1  0
  7  9  1  0
  7  6  1  0
  7  8  1  1
  9 16  1  0
  9 10  2  0
 11 12  1  0
 13 14  1  0
 15 14  1  6
 15 17  1  0
 16 15  1  0
 17 18  2  0
 19 17  1  0
 19 20  1  0
 20 26  1  0
 20 21  1  1
 22 21  1  0
 23 22  1  0
 24 23  1  0
 25 24  1  0
 26 28  1  0
 27 26  2  0
M  END
$$$$
