WHA.pdb
     RDKit          3D

 30 32  0  0  1  0  0  0  0  0999 V2000
    6.1289  -17.0249   23.5970 N   0  0  0  0  0  0  0  0  0  0  0  0
    7.2653  -16.1266   23.6367 C   0  0  1  0  0  0  0  0  0  0  0  0
    7.8177  -15.9493   25.0205 C   0  0  0  0  0  0  0  0  0  0  0  0
    6.9324  -15.0179   25.7539 C   0  0  0  0  0  0  0  0  0  0  0  0
    5.6996  -15.2543   26.3282 C   0  0  0  0  0  0  0  0  0  0  0  0
    5.2684  -14.1300   26.8810 N   0  0  0  0  0  0  0  0  0  0  0  0
    6.1774  -13.1518   26.6922 C   0  0  0  0  0  0  0  0  0  0  0  0
    6.1608  -11.8320   27.0857 C   0  0  0  0  0  0  0  0  0  0  0  0
    7.2332  -11.0281   26.7606 C   0  0  0  0  0  0  0  0  0  0  0  0
    8.3223  -11.5193   26.0492 C   0  0  0  0  0  0  0  0  0  0  0  0
    8.2925  -12.8510   25.6764 C   0  0  0  0  0  0  0  0  0  0  0  0
    7.2417  -13.6875   25.9807 C   0  0  0  0  0  0  0  0  0  0  0  0
    8.2744  -16.5311   22.6390 C   0  0  0  0  0  0  0  0  0  0  0  0
    8.3544  -17.7047   22.2067 O   0  0  0  0  0  0  0  0  0  0  0  0
    9.1916  -15.5731   22.1425 N   0  0  0  0  0  0  0  0  0  0  0  0
   10.2477  -15.9241   21.2130 C   0  0  1  0  0  0  0  0  0  0  0  0
   10.4148  -14.8034   20.2198 C   0  0  0  0  0  0  0  0  0  0  0  0
    9.2109  -14.5757   19.4166 C   0  0  0  0  0  0  0  0  0  0  0  0
    8.4478  -13.4260   19.4699 C   0  0  0  0  0  0  0  0  0  0  0  0
    7.4394  -13.5778   18.6060 N   0  0  0  0  0  0  0  0  0  0  0  0
    7.5274  -14.7754   18.0041 C   0  0  0  0  0  0  0  0  0  0  0  0
    8.6208  -15.3708   18.5160 N   0  0  0  0  0  0  0  0  0  0  0  0
   11.4909  -16.1225   21.9776 C   0  0  0  0  0  0  0  0  0  0  0  0
   12.4010  -15.2569   21.9194 O   0  0  0  0  0  0  0  0  0  0  0  0
   12.4289  -18.4561   24.7216 C   0  0  0  0  0  0  0  0  0  0  0  0
   12.8035  -17.5408   23.5502 C   0  0  2  0  0  0  0  0  0  0  0  0
   11.6271  -17.3068   22.7722 N   0  0  0  0  0  0  0  0  0  0  0  0
   13.8658  -18.2129   22.7962 C   0  0  0  0  0  0  0  0  0  0  0  0
   15.1506  -18.3842   23.3054 O   0  0  0  0  0  0  0  0  0  0  0  0
   13.6418  -18.6619   21.6464 O   0  0  0  0  0  0  0  0  0  0  0  0
  2  1  1  1
  2 13  1  0
  2  3  1  0
  3  4  1  0
  4  5  2  0
  5  6  1  0
  7  6  1  0
  8  7  2  0
  9  8  1  0
 10 11  1  0
 10  9  2  0
 11 12  2  0
 12  4  1  0
 12  7  1  0
 13 14  2  0
 15 13  1  0
 15 16  1  0
 16 17  1  6
 18 17  1  0
 19 18  2  0
 20 21  1  0
 20 19  1  0
 21 22  2  0
 22 18  1  0
 23 24  2  0
 23 16  1  0
 26 25  1  1
 26 27  1  0
 27 23  1  0
 28 29  1  0
 28 26  1  0
 30 28  2  0
M  END
$$$$
