WHA.pdb
     RDKit          3D

 30 32  0  0  1  0  0  0  0  0999 V2000
    6.2611  -17.6708   24.6311 N   0  0  0  0  0  0  0  0  0  0  0  0
    7.3471  -16.8279   24.1728 C   0  0  1  0  0  0  0  0  0  0  0  0
    8.0075  -16.0730   25.2888 C   0  0  0  0  0  0  0  0  0  0  0  0
    7.0870  -15.0007   25.7271 C   0  0  0  0  0  0  0  0  0  0  0  0
    5.8171  -15.1027   26.2584 C   0  0  0  0  0  0  0  0  0  0  0  0
    5.3637  -13.8827   26.5067 N   0  0  0  0  0  0  0  0  0  0  0  0
    6.2939  -12.9711   26.1567 C   0  0  0  0  0  0  0  0  0  0  0  0
    6.2668  -11.5962   26.2323 C   0  0  0  0  0  0  0  0  0  0  0  0
    7.3670  -10.8850   25.8011 C   0  0  0  0  0  0  0  0  0  0  0  0
    8.4942  -11.5232   25.2955 C   0  0  0  0  0  0  0  0  0  0  0  0
    8.4736  -12.9052   25.2398 C   0  0  0  0  0  0  0  0  0  0  0  0
    7.3960  -13.6527   25.6598 C   0  0  0  0  0  0  0  0  0  0  0  0
    8.2859  -17.6066   23.3421 C   0  0  0  0  0  0  0  0  0  0  0  0
    8.5546  -18.8067   23.5830 O   0  0  0  0  0  0  0  0  0  0  0  0
    8.9134  -16.9921   22.2312 N   0  0  0  0  0  0  0  0  0  0  0  0
   10.1787  -17.4619   21.7015 C   0  0  1  0  0  0  0  0  0  0  0  0
   10.5635  -16.6026   20.5251 C   0  0  0  0  0  0  0  0  0  0  0  0
   11.7395  -17.1108   19.8144 C   0  0  0  0  0  0  0  0  0  0  0  0
   13.0387  -16.7373   20.0965 C   0  0  0  0  0  0  0  0  0  0  0  0
   13.8350  -17.3995   19.2518 N   0  0  0  0  0  0  0  0  0  0  0  0
   13.0986  -18.1795   18.4432 C   0  0  0  0  0  0  0  0  0  0  0  0
   11.8165  -17.9870   18.8056 N   0  0  0  0  0  0  0  0  0  0  0  0
   11.1926  -17.3606   22.7651 C   0  0  0  0  0  0  0  0  0  0  0  0
   11.5133  -16.2300   23.2121 O   0  0  0  0  0  0  0  0  0  0  0  0
   12.4792  -19.4479   25.3860 C   0  0  0  0  0  0  0  0  0  0  0  0
   12.8476  -18.5202   24.2224 C   0  0  2  0  0  0  0  0  0  0  0  0
   11.7885  -18.5645   23.2632 N   0  0  0  0  0  0  0  0  0  0  0  0
   14.1290  -18.9861   23.6842 C   0  0  0  0  0  0  0  0  0  0  0  0
   15.3286  -18.8384   24.3760 O   0  0  0  0  0  0  0  0  0  0  0  0
   14.1812  -19.5427   22.5611 O   0  0  0  0  0  0  0  0  0  0  0  0
  2  1  1  1
  2 13  1  0
  2  3  1  0
  3  4  1  0
  4  5  2  0
  5  6  1  0
  7  6  1  0
  8  7  2  0
  9  8  1  0
 10 11  1  0
 10  9  2  0
 11 12  2  0
 12  4  1  0
 12  7  1  0
 13 14  2  0
 15 13  1  0
 15 16  1  0
 16 17  1  6
 18 17  1  0
 19 18  2  0
 20 21  1  0
 20 19  1  0
 21 22  2  0
 22 18  1  0
 23 24  2  0
 23 16  1  0
 26 25  1  1
 26 27  1  0
 27 23  1  0
 28 29  1  0
 28 26  1  0
 30 28  2  0
M  END
$$$$
