WHA.pdb
     RDKit          3D

 30 32  0  0  1  0  0  0  0  0999 V2000
    6.4282  -17.7817   24.6655 N   0  0  0  0  0  0  0  0  0  0  0  0
    6.8712  -16.5120   24.1254 C   0  0  1  0  0  0  0  0  0  0  0  0
    7.8350  -15.8007   25.0292 C   0  0  0  0  0  0  0  0  0  0  0  0
    7.0656  -14.8613   25.8747 C   0  0  0  0  0  0  0  0  0  0  0  0
    6.0206  -15.1192   26.7390 C   0  0  0  0  0  0  0  0  0  0  0  0
    5.6346  -13.9768   27.2879 N   0  0  0  0  0  0  0  0  0  0  0  0
    6.3914  -12.9656   26.8151 C   0  0  0  0  0  0  0  0  0  0  0  0
    6.3548  -11.6180   27.0970 C   0  0  0  0  0  0  0  0  0  0  0  0
    7.2536  -10.7826   26.4675 C   0  0  0  0  0  0  0  0  0  0  0  0
    8.1887  -11.2698   25.5610 C   0  0  0  0  0  0  0  0  0  0  0  0
    8.1861  -12.6302   25.3109 C   0  0  0  0  0  0  0  0  0  0  0  0
    7.3063  -13.4985   25.9178 C   0  0  0  0  0  0  0  0  0  0  0  0
    7.3645  -16.6852   22.7455 C   0  0  0  0  0  0  0  0  0  0  0  0
    7.8973  -17.7501   22.3546 O   0  0  0  0  0  0  0  0  0  0  0  0
    7.2397  -15.6219   21.8186 N   0  0  0  0  0  0  0  0  0  0  0  0
    7.8317  -15.6766   20.4961 C   0  0  1  0  0  0  0  0  0  0  0  0
    7.4711  -14.4190   19.7486 C   0  0  0  0  0  0  0  0  0  0  0  0
    7.9750  -14.4150   18.3729 C   0  0  0  0  0  0  0  0  0  0  0  0
    8.7569  -15.4151   17.8294 C   0  0  0  0  0  0  0  0  0  0  0  0
    9.0217  -15.0702   16.5656 N   0  0  0  0  0  0  0  0  0  0  0  0
    8.4417  -13.8926   16.2804 C   0  0  0  0  0  0  0  0  0  0  0  0
    7.8051  -13.5087   17.4027 N   0  0  0  0  0  0  0  0  0  0  0  0
    9.2930  -15.7837   20.6466 C   0  0  0  0  0  0  0  0  0  0  0  0
    9.9203  -14.8910   21.2715 O   0  0  0  0  0  0  0  0  0  0  0  0
   11.7084  -18.4117   20.7536 C   0  0  0  0  0  0  0  0  0  0  0  0
   11.3837  -17.0426   20.1451 C   0  0  2  0  0  0  0  0  0  0  0  0
    9.9620  -16.9124   20.0711 N   0  0  0  0  0  0  0  0  0  0  0  0
   12.0342  -16.9850   18.8328 C   0  0  0  0  0  0  0  0  0  0  0  0
   13.2706  -16.3746   18.6372 O   0  0  0  0  0  0  0  0  0  0  0  0
   11.4830  -17.4953   17.8279 O   0  0  0  0  0  0  0  0  0  0  0  0
  2  1  1  1
  2 13  1  0
  2  3  1  0
  3  4  1  0
  4  5  2  0
  5  6  1  0
  7  6  1  0
  8  7  2  0
  9  8  1  0
 10 11  1  0
 10  9  2  0
 11 12  2  0
 12  4  1  0
 12  7  1  0
 13 14  2  0
 15 13  1  0
 15 16  1  0
 16 17  1  6
 18 17  1  0
 19 18  2  0
 20 21  1  0
 20 19  1  0
 21 22  2  0
 22 18  1  0
 23 24  2  0
 23 16  1  0
 26 25  1  6
 26 27  1  0
 27 23  1  0
 28 29  1  0
 28 26  1  0
 30 28  2  0
M  END
$$$$
