WHA.pdb
     RDKit          3D

 30 32  0  0  1  0  0  0  0  0999 V2000
    6.2623  -17.1467   23.4146 N   0  0  0  0  0  0  0  0  0  0  0  0
    7.3765  -16.2210   23.4564 C   0  0  1  0  0  0  0  0  0  0  0  0
    7.8893  -15.9914   24.8477 C   0  0  0  0  0  0  0  0  0  0  0  0
    6.9302  -15.1125   25.5527 C   0  0  0  0  0  0  0  0  0  0  0  0
    5.7871  -15.4485   26.2497 C   0  0  0  0  0  0  0  0  0  0  0  0
    5.2360  -14.3382   26.7177 N   0  0  0  0  0  0  0  0  0  0  0  0
    5.9781  -13.2727   26.3534 C   0  0  0  0  0  0  0  0  0  0  0  0
    5.7969  -11.9314   26.6086 C   0  0  0  0  0  0  0  0  0  0  0  0
    6.7163  -11.0305   26.1134 C   0  0  0  0  0  0  0  0  0  0  0  0
    7.8139  -11.4459   25.3676 C   0  0  0  0  0  0  0  0  0  0  0  0
    7.9525  -12.8029   25.1381 C   0  0  0  0  0  0  0  0  0  0  0  0
    7.0578  -13.7351   25.6142 C   0  0  0  0  0  0  0  0  0  0  0  0
    8.4197  -16.6298   22.4961 C   0  0  0  0  0  0  0  0  0  0  0  0
    8.5746  -17.8228   22.1448 O   0  0  0  0  0  0  0  0  0  0  0  0
    9.2838  -15.6537   21.9432 N   0  0  0  0  0  0  0  0  0  0  0  0
   10.2993  -15.9871   20.9633 C   0  0  1  0  0  0  0  0  0  0  0  0
   10.5604  -14.7787   20.1020 C   0  0  0  0  0  0  0  0  0  0  0  0
    9.3678  -14.3328   19.3771 C   0  0  0  0  0  0  0  0  0  0  0  0
    8.5439  -15.1684   18.6493 C   0  0  0  0  0  0  0  0  0  0  0  0
    7.5685  -14.4143   18.1334 N   0  0  0  0  0  0  0  0  0  0  0  0
    7.7357  -13.1333   18.5015 C   0  0  0  0  0  0  0  0  0  0  0  0
    8.8449  -13.1060   19.2638 N   0  0  0  0  0  0  0  0  0  0  0  0
   11.5239  -16.3809   21.6807 C   0  0  0  0  0  0  0  0  0  0  0  0
   12.5840  -16.5835   21.0355 O   0  0  0  0  0  0  0  0  0  0  0  0
   12.4233  -16.3879   25.3047 C   0  0  0  0  0  0  0  0  0  0  0  0
   12.6414  -16.8467   23.8583 C   0  0  2  0  0  0  0  0  0  0  0  0
   11.4701  -16.5226   23.1053 N   0  0  0  0  0  0  0  0  0  0  0  0
   12.9193  -18.2854   23.8961 C   0  0  0  0  0  0  0  0  0  0  0  0
   12.0646  -19.2273   23.3287 O   0  0  0  0  0  0  0  0  0  0  0  0
   13.9574  -18.7172   24.4526 O   0  0  0  0  0  0  0  0  0  0  0  0
  2  1  1  1
  2 13  1  0
  2  3  1  0
  3  4  1  0
  4  5  2  0
  5  6  1  0
  7  6  1  0
  8  7  2  0
  9  8  1  0
 10 11  1  0
 10  9  2  0
 11 12  2  0
 12  4  1  0
 12  7  1  0
 13 14  2  0
 15 13  1  0
 15 16  1  0
 16 17  1  6
 18 17  1  0
 19 18  2  0
 20 21  1  0
 20 19  1  0
 21 22  2  0
 22 18  1  0
 23 24  2  0
 23 16  1  0
 26 25  1  1
 26 27  1  0
 27 23  1  0
 28 29  1  0
 28 26  1  0
 30 28  2  0
M  END
$$$$
