WHA.pdb
     RDKit          3D

 30 32  0  0  1  0  0  0  0  0999 V2000
    7.0500  -17.0608   23.9415 N   0  0  0  0  0  0  0  0  0  0  0  0
    8.1702  -16.2423   24.3598 C   0  0  1  0  0  0  0  0  0  0  0  0
    8.0425  -15.7624   25.7758 C   0  0  0  0  0  0  0  0  0  0  0  0
    6.8910  -14.8359   25.8459 C   0  0  0  0  0  0  0  0  0  0  0  0
    5.5601  -15.1133   26.0849 C   0  0  0  0  0  0  0  0  0  0  0  0
    4.8801  -13.9764   26.0574 N   0  0  0  0  0  0  0  0  0  0  0  0
    5.7185  -12.9501   25.8074 C   0  0  0  0  0  0  0  0  0  0  0  0
    5.4655  -11.6014   25.6889 C   0  0  0  0  0  0  0  0  0  0  0  0
    6.5170  -10.7486   25.4259 C   0  0  0  0  0  0  0  0  0  0  0  0
    7.8172  -11.2193   25.2792 C   0  0  0  0  0  0  0  0  0  0  0  0
    8.0207  -12.5815   25.4070 C   0  0  0  0  0  0  0  0  0  0  0  0
    6.9991  -13.4669   25.6691 C   0  0  0  0  0  0  0  0  0  0  0  0
    9.4437  -16.9316   24.0762 C   0  0  0  0  0  0  0  0  0  0  0  0
    9.5405  -18.1811   24.0685 O   0  0  0  0  0  0  0  0  0  0  0  0
   10.6059  -16.1706   23.8015 N   0  0  0  0  0  0  0  0  0  0  0  0
   11.9368  -16.7427   23.8646 C   0  0  1  0  0  0  0  0  0  0  0  0
   12.8542  -15.9412   22.9780 C   0  0  0  0  0  0  0  0  0  0  0  0
   12.3952  -15.8913   21.5876 C   0  0  0  0  0  0  0  0  0  0  0  0
   11.9253  -16.9835   20.8854 C   0  0  0  0  0  0  0  0  0  0  0  0
   11.6021  -16.5591   19.6599 N   0  0  0  0  0  0  0  0  0  0  0  0
   11.8461  -15.2427   19.5511 C   0  0  0  0  0  0  0  0  0  0  0  0
   12.3320  -14.8535   20.7447 N   0  0  0  0  0  0  0  0  0  0  0  0
   12.3979  -16.6899   25.2625 C   0  0  0  0  0  0  0  0  0  0  0  0
   13.5463  -17.1108   25.5542 O   0  0  0  0  0  0  0  0  0  0  0  0
   11.1811  -14.9019   28.2771 C   0  0  0  0  0  0  0  0  0  0  0  0
   11.9098  -16.0852   27.6297 C   0  0  2  0  0  0  0  0  0  0  0  0
   11.5161  -16.1555   26.2572 N   0  0  0  0  0  0  0  0  0  0  0  0
   11.5519  -17.2853   28.3915 C   0  0  0  0  0  0  0  0  0  0  0  0
   11.8777  -17.4421   29.7364 O   0  0  0  0  0  0  0  0  0  0  0  0
   10.9286  -18.2245   27.8409 O   0  0  0  0  0  0  0  0  0  0  0  0
  2  1  1  1
  2 13  1  0
  2  3  1  0
  3  4  1  0
  4  5  2  0
  5  6  1  0
  7  6  1  0
  8  7  2  0
  9  8  1  0
 10 11  1  0
 10  9  2  0
 11 12  2  0
 12  4  1  0
 12  7  1  0
 13 14  2  0
 15 13  1  0
 15 16  1  0
 16 17  1  6
 18 17  1  0
 19 18  2  0
 20 21  1  0
 20 19  1  0
 21 22  2  0
 22 18  1  0
 23 24  2  0
 23 16  1  0
 26 25  1  1
 26 27  1  0
 27 23  1  0
 28 29  1  0
 28 26  1  0
 30 28  2  0
M  END
$$$$
