WHA.pdb
     RDKit          3D

 30 32  0  0  1  0  0  0  0  0999 V2000
    8.4223  -16.4982   22.3854 N   0  0  0  0  0  0  0  0  0  0  0  0
    8.8624  -16.0299   23.6843 C   0  0  1  0  0  0  0  0  0  0  0  0
    7.7248  -15.8021   24.6358 C   0  0  0  0  0  0  0  0  0  0  0  0
    6.9984  -14.5880   24.2029 C   0  0  0  0  0  0  0  0  0  0  0  0
    6.2829  -14.3649   23.0436 C   0  0  0  0  0  0  0  0  0  0  0  0
    5.7995  -13.1317   23.0762 N   0  0  0  0  0  0  0  0  0  0  0  0
    6.1715  -12.5268   24.2227 C   0  0  0  0  0  0  0  0  0  0  0  0
    5.9063  -11.2576   24.6872 C   0  0  0  0  0  0  0  0  0  0  0  0
    6.4130  -10.8791   25.9128 C   0  0  0  0  0  0  0  0  0  0  0  0
    7.1803  -11.7462   26.6828 C   0  0  0  0  0  0  0  0  0  0  0  0
    7.4192  -13.0099   26.1736 C   0  0  0  0  0  0  0  0  0  0  0  0
    6.9322  -13.4274   24.9551 C   0  0  0  0  0  0  0  0  0  0  0  0
    9.9183  -16.9122   24.2173 C   0  0  0  0  0  0  0  0  0  0  0  0
    9.6631  -18.0291   24.7252 O   0  0  0  0  0  0  0  0  0  0  0  0
   11.2713  -16.4981   24.1610 N   0  0  0  0  0  0  0  0  0  0  0  0
   12.3431  -17.2787   24.7478 C   0  0  1  0  0  0  0  0  0  0  0  0
   13.6001  -17.0606   23.9461 C   0  0  0  0  0  0  0  0  0  0  0  0
   13.4863  -17.5539   22.5713 C   0  0  0  0  0  0  0  0  0  0  0  0
   12.7334  -18.6501   22.1994 C   0  0  0  0  0  0  0  0  0  0  0  0
   12.8702  -18.7966   20.8781 N   0  0  0  0  0  0  0  0  0  0  0  0
   13.6784  -17.8402   20.3917 C   0  0  0  0  0  0  0  0  0  0  0  0
   14.0447  -17.0892   21.4471 N   0  0  0  0  0  0  0  0  0  0  0  0
   12.5358  -16.8301   26.1375 C   0  0  0  0  0  0  0  0  0  0  0  0
   13.6988  -16.6208   26.5672 O   0  0  0  0  0  0  0  0  0  0  0  0
   10.5442  -15.1845   28.6782 C   0  0  0  0  0  0  0  0  0  0  0  0
   11.5139  -16.3265   28.3533 C   0  0  2  0  0  0  0  0  0  0  0  0
   11.3817  -16.6437   26.9656 N   0  0  0  0  0  0  0  0  0  0  0  0
   11.1743  -17.4485   29.2332 C   0  0  0  0  0  0  0  0  0  0  0  0
   10.7108  -18.6677   28.7453 O   0  0  0  0  0  0  0  0  0  0  0  0
   11.2945  -17.3389   30.4772 O   0  0  0  0  0  0  0  0  0  0  0  0
  2  1  1  6
  2 13  1  0
  2  3  1  0
  3  4  1  0
  4  5  2  0
  5  6  1  0
  7  6  1  0
  8  7  2  0
  9  8  1  0
 10 11  1  0
 10  9  2  0
 11 12  2  0
 12  4  1  0
 12  7  1  0
 13 14  2  0
 15 13  1  0
 15 16  1  0
 16 17  1  6
 18 17  1  0
 19 18  2  0
 20 21  1  0
 20 19  1  0
 21 22  2  0
 22 18  1  0
 23 24  2  0
 23 16  1  0
 26 25  1  1
 26 27  1  0
 27 23  1  0
 28 29  1  0
 28 26  1  0
 30 28  2  0
M  END
$$$$
