RHH.pdb
     RDKit          3D

 32 33  0  0  1  0  0  0  0  0999 V2000
   46.3612  -11.2630   -7.3960 N   0  0  0  0  0  0  0  0  0  0  0  0
   45.8690  -10.7949   -6.1659 C   0  0  0  0  0  0  0  0  0  0  0  0
   46.6023  -10.8568   -5.1176 N   0  0  0  0  0  0  0  0  0  0  0  0
   44.5622  -10.2634   -6.0867 N   0  0  0  0  0  0  0  0  0  0  0  0
   43.8302   -9.9022   -7.2457 C   0  0  0  0  0  0  0  0  0  0  0  0
   42.4894   -9.3077   -6.9498 C   0  0  0  0  0  0  0  0  0  0  0  0
   41.7212   -8.7952   -8.1209 C   0  0  0  0  0  0  0  0  0  0  0  0
   40.6844   -9.8112   -8.5505 C   0  0  2  0  0  0  0  0  0  0  0  0
   41.3144  -11.1434   -8.6191 N   0  0  0  0  0  0  0  0  0  0  0  0
   40.1603   -9.4505   -9.8850 C   0  0  0  0  0  0  0  0  0  0  0  0
   40.8407   -9.0267  -10.8468 O   0  0  0  0  0  0  0  0  0  0  0  0
   46.2872  -10.5241   -4.1946 N   0  0  0  0  0  0  0  0  0  0  0  0
   38.7570   -9.5612  -10.2049 C   0  0  1  0  0  0  0  0  0  0  0  0
   38.2258   -9.2249  -11.5002 C   0  0  0  0  0  0  0  0  0  0  0  0
   37.0379  -10.0518  -11.8779 C   0  0  0  0  0  0  0  0  0  0  0  0
   36.5226   -9.7080  -13.2201 C   0  0  0  0  0  0  0  0  0  0  0  0
   36.8859   -8.6686  -14.0390 N   0  0  0  0  0  0  0  0  0  0  0  0
   36.1627   -8.7314  -15.1710 C   0  0  0  0  0  0  0  0  0  0  0  0
   35.3538   -9.7873  -15.0799 N   0  0  0  0  0  0  0  0  0  0  0  0
   35.5758  -10.3905  -13.8749 C   0  0  0  0  0  0  0  0  0  0  0  0
   38.0231   -7.7829  -11.5450 O   0  0  0  0  0  0  0  0  0  0  0  0
   37.5665   -7.1834  -10.5406 N   0  0  0  0  0  0  0  0  0  0  0  0
   38.3147   -6.9736  -12.6836 C   0  0  1  0  0  0  0  0  0  0  0  0
   38.1813   -5.5201  -12.6865 C   0  0  0  0  0  0  0  0  0  0  0  0
   39.5038   -4.8448  -12.6292 C   0  0  0  0  0  0  0  0  0  0  0  0
   40.1452   -4.9285  -11.2895 C   0  0  0  0  0  0  0  0  0  0  0  0
   41.3749   -5.5636  -11.0560 N   0  0  0  0  0  0  0  0  0  0  0  0
   41.6310   -5.4472   -9.7663 C   0  0  0  0  0  0  0  0  0  0  0  0
   40.6287   -4.7744   -9.1825 N   0  0  0  0  0  0  0  0  0  0  0  0
   39.7099   -4.4499  -10.1040 C   0  0  0  0  0  0  0  0  0  0  0  0
   37.4682   -5.2161  -13.9813 O   0  0  0  0  0  0  0  0  0  0  0  0
   37.3982   -6.0170  -14.9400 O   0  0  0  0  0  0  0  0  0  0  0  0
  2  3  2  0
  2  1  1  0
  4  2  1  0
  5  4  1  0
  6  5  1  0
  7  6  1  0
  8  7  1  0
  8  9  1  6
 10  8  1  0
 10 12  1  0
 11 10  2  0
 13 12  1  0
 13 14  1  6
 14 15  1  0
 15 16  2  0
 16 17  1  0
 18 17  1  0
 19 15  1  0
 19 18  2  0
 20 13  1  0
 21 20  2  0
 22 20  1  0
 23 22  1  0
 23 30  1  0
 23 24  1  6
 25 24  1  0
 26 25  2  0
 27 26  1  0
 28 27  1  0
 28 29  2  0
 29 25  1  0
 30 32  1  0
 31 30  2  0
M  END
$$$$
