RHH.pdb
     RDKit          3D

 32 33  0  0  1  0  0  0  0  0999 V2000
   43.2653   -9.3019   -3.2607 N   0  0  0  0  0  0  0  0  0  0  0  0
   44.5755   -9.6595   -3.6214 C   0  0  0  0  0  0  0  0  0  0  0  0
   45.2482  -10.4585   -2.8800 N   0  0  0  0  0  0  0  0  0  0  0  0
   45.1512   -9.1303   -4.7983 N   0  0  0  0  0  0  0  0  0  0  0  0
   44.3587   -8.5736   -5.8335 C   0  0  0  0  0  0  0  0  0  0  0  0
   44.0910   -9.5196   -6.9615 C   0  0  0  0  0  0  0  0  0  0  0  0
   43.3205   -8.9711   -8.1146 C   0  0  0  0  0  0  0  0  0  0  0  0
   43.0476  -10.0631   -9.1270 C   0  0  2  0  0  0  0  0  0  0  0  0
   44.3227  -10.4832   -9.7385 N   0  0  0  0  0  0  0  0  0  0  0  0
   42.1478   -9.5480  -10.1809 C   0  0  0  0  0  0  0  0  0  0  0  0
   42.5054   -8.9247  -11.2062 O   0  0  0  0  0  0  0  0  0  0  0  0
   46.1803  -10.8121   -3.1411 N   0  0  0  0  0  0  0  0  0  0  0  0
   40.7172   -9.7285  -10.1127 C   0  0  1  0  0  0  0  0  0  0  0  0
   39.8192   -9.2080  -11.1106 C   0  0  0  0  0  0  0  0  0  0  0  0
   39.0083  -10.2721  -11.7799 C   0  0  0  0  0  0  0  0  0  0  0  0
   39.8271  -11.1189  -12.6730 C   0  0  0  0  0  0  0  0  0  0  0  0
   41.1750  -11.0524  -12.9214 N   0  0  0  0  0  0  0  0  0  0  0  0
   41.5047  -12.0146  -13.8011 C   0  0  0  0  0  0  0  0  0  0  0  0
   40.3931  -12.6829  -14.1099 N   0  0  0  0  0  0  0  0  0  0  0  0
   39.3569  -12.1297  -13.4133 C   0  0  0  0  0  0  0  0  0  0  0  0
   39.0535   -8.1247  -10.5087 O   0  0  0  0  0  0  0  0  0  0  0  0
   38.7164   -8.1921   -9.3010 N   0  0  0  0  0  0  0  0  0  0  0  0
   38.6443   -6.9529  -11.2128 C   0  0  1  0  0  0  0  0  0  0  0  0
   38.0795   -5.7799  -10.5527 C   0  0  0  0  0  0  0  0  0  0  0  0
   39.0325   -5.1807   -9.5827 C   0  0  0  0  0  0  0  0  0  0  0  0
   38.7711   -5.5913   -8.1769 C   0  0  0  0  0  0  0  0  0  0  0  0
   37.7735   -6.5074   -7.8086 N   0  0  0  0  0  0  0  0  0  0  0  0
   37.8261   -6.6285   -6.4952 C   0  0  0  0  0  0  0  0  0  0  0  0
   38.8017   -5.8384   -6.0240 N   0  0  0  0  0  0  0  0  0  0  0  0
   39.3900   -5.1958   -7.0436 C   0  0  0  0  0  0  0  0  0  0  0  0
   37.7795   -4.8269  -11.6837 O   0  0  0  0  0  0  0  0  0  0  0  0
   38.1032   -5.0379  -12.8738 O   0  0  0  0  0  0  0  0  0  0  0  0
  2  3  2  0
  2  1  1  0
  4  2  1  0
  5  4  1  0
  6  5  1  0
  7  6  1  0
  8  7  1  0
  8  9  1  6
 10  8  1  0
 10 12  1  0
 11 10  2  0
 13 12  1  0
 13 14  1  6
 14 15  1  0
 15 16  2  0
 16 17  1  0
 18 17  1  0
 19 15  1  0
 19 18  2  0
 20 13  1  0
 21 20  2  0
 22 20  1  0
 23 22  1  0
 23 30  1  0
 23 24  1  1
 25 24  1  0
 26 25  2  0
 27 26  1  0
 28 27  1  0
 28 29  2  0
 29 25  1  0
 30 32  1  0
 31 30  2  0
M  END
$$$$
