RHH.pdb
     RDKit          3D

 32 33  0  0  1  0  0  0  0  0999 V2000
   28.2310  -21.1995  -21.3152 N   0  0  0  0  0  0  0  0  0  0  0  0
   26.9505  -20.6751  -21.5603 C   0  0  0  0  0  0  0  0  0  0  0  0
   26.8160  -19.6249  -22.2809 N   0  0  0  0  0  0  0  0  0  0  0  0
   25.8138  -21.3040  -21.0044 N   0  0  0  0  0  0  0  0  0  0  0  0
   25.9128  -22.5091  -20.2645 C   0  0  0  0  0  0  0  0  0  0  0  0
   25.2867  -22.4353  -18.9075 C   0  0  0  0  0  0  0  0  0  0  0  0
   26.0459  -21.6789  -17.8703 C   0  0  0  0  0  0  0  0  0  0  0  0
   26.4346  -22.5993  -16.7328 C   0  0  2  0  0  0  0  0  0  0  0  0
   26.5732  -23.9737  -17.2506 N   0  0  0  0  0  0  0  0  0  0  0  0
   25.3836  -22.5736  -15.6934 C   0  0  0  0  0  0  0  0  0  0  0  0
   24.4509  -23.4008  -15.5771 O   0  0  0  0  0  0  0  0  0  0  0  0
   25.9004  -19.1937  -22.4751 N   0  0  0  0  0  0  0  0  0  0  0  0
   25.3427  -21.5461  -14.6803 C   0  0  2  0  0  0  0  0  0  0  0  0
   24.3766  -21.5446  -13.6128 C   0  0  0  0  0  0  0  0  0  0  0  0
   24.8074  -20.7288  -12.4352 C   0  0  0  0  0  0  0  0  0  0  0  0
   23.8061  -20.7464  -11.3479 C   0  0  0  0  0  0  0  0  0  0  0  0
   22.5416  -21.2792  -11.3536 N   0  0  0  0  0  0  0  0  0  0  0  0
   21.9749  -21.0716  -10.1517 C   0  0  0  0  0  0  0  0  0  0  0  0
   22.8565  -20.4203   -9.3926 N   0  0  0  0  0  0  0  0  0  0  0  0
   23.9874  -20.2192  -10.1312 C   0  0  0  0  0  0  0  0  0  0  0  0
   23.0805  -21.1918  -14.1766 O   0  0  0  0  0  0  0  0  0  0  0  0
   22.9871  -20.2288  -14.9771 N   0  0  0  0  0  0  0  0  0  0  0  0
   21.8681  -21.8823  -13.8772 C   0  0  1  0  0  0  0  0  0  0  0  0
   20.5879  -21.5558  -14.4977 C   0  0  0  0  0  0  0  0  0  0  0  0
   19.7272  -22.7574  -14.6514 C   0  0  0  0  0  0  0  0  0  0  0  0
   18.4133  -22.4584  -15.2820 C   0  0  0  0  0  0  0  0  0  0  0  0
   18.2499  -21.5568  -16.3453 N   0  0  0  0  0  0  0  0  0  0  0  0
   16.9641  -21.5400  -16.6433 C   0  0  0  0  0  0  0  0  0  0  0  0
   16.3165  -22.3815  -15.8244 N   0  0  0  0  0  0  0  0  0  0  0  0
   17.1920  -22.9519  -14.9838 C   0  0  0  0  0  0  0  0  0  0  0  0
   19.9649  -20.5540  -13.5566 O   0  0  0  0  0  0  0  0  0  0  0  0
   20.1530  -20.5531  -12.3197 O   0  0  0  0  0  0  0  0  0  0  0  0
  2  3  2  0
  2  1  1  0
  4  2  1  0
  5  4  1  0
  6  5  1  0
  7  6  1  0
  8  7  1  0
  8  9  1  6
 10  8  1  0
 10 12  1  0
 11 10  2  0
 13 12  1  0
 13 14  1  1
 14 15  1  0
 15 16  2  0
 16 17  1  0
 18 17  1  0
 19 15  1  0
 19 18  2  0
 20 13  1  0
 21 20  2  0
 22 20  1  0
 23 22  1  0
 23 30  1  0
 23 24  1  1
 25 24  1  0
 26 25  2  0
 27 26  1  0
 28 27  1  0
 28 29  2  0
 29 25  1  0
 30 32  1  0
 31 30  2  0
M  END
$$$$
