RHH.pdb
     RDKit          3D

 32 33  0  0  1  0  0  0  0  0999 V2000
   26.6636  -20.8124   -8.9925 N   0  0  0  0  0  0  0  0  0  0  0  0
   25.3841  -21.1565   -9.4605 C   0  0  0  0  0  0  0  0  0  0  0  0
   24.3604  -20.9848   -8.7102 N   0  0  0  0  0  0  0  0  0  0  0  0
   25.2305  -21.6987  -10.7562 N   0  0  0  0  0  0  0  0  0  0  0  0
   26.3401  -21.9228  -11.6095 C   0  0  0  0  0  0  0  0  0  0  0  0
   26.5093  -20.8753  -12.6645 C   0  0  0  0  0  0  0  0  0  0  0  0
   25.2818  -20.4972  -13.4226 C   0  0  0  0  0  0  0  0  0  0  0  0
   25.1993  -21.2882  -14.7107 C   0  0  2  0  0  0  0  0  0  0  0  0
   26.3046  -20.8804  -15.5986 N   0  0  0  0  0  0  0  0  0  0  0  0
   23.9098  -21.0129  -15.3794 C   0  0  0  0  0  0  0  0  0  0  0  0
   23.6819  -20.0643  -16.1641 O   0  0  0  0  0  0  0  0  0  0  0  0
   23.4194  -21.3207   -8.9628 N   0  0  0  0  0  0  0  0  0  0  0  0
   22.7537  -21.8525  -15.1740 C   0  0  2  0  0  0  0  0  0  0  0  0
   21.5121  -21.6512  -15.8747 C   0  0  0  0  0  0  0  0  0  0  0  0
   21.1629  -22.7864  -16.7842 C   0  0  0  0  0  0  0  0  0  0  0  0
   22.0063  -22.8086  -17.9980 C   0  0  0  0  0  0  0  0  0  0  0  0
   22.8785  -21.8531  -18.4552 N   0  0  0  0  0  0  0  0  0  0  0  0
   23.4375  -22.2841  -19.5999 C   0  0  0  0  0  0  0  0  0  0  0  0
   22.9347  -23.4890  -19.8705 N   0  0  0  0  0  0  0  0  0  0  0  0
   22.0507  -23.8130  -18.8814 C   0  0  0  0  0  0  0  0  0  0  0  0
   20.4925  -21.2986  -14.8957 O   0  0  0  0  0  0  0  0  0  0  0  0
   20.5412  -21.7841  -13.7386 N   0  0  0  0  0  0  0  0  0  0  0  0
   19.4060  -20.4128  -15.1623 C   0  0  1  0  0  0  0  0  0  0  0  0
   18.3987  -20.0607  -14.1664 C   0  0  0  0  0  0  0  0  0  0  0  0
   17.6684  -18.8202  -14.5354 C   0  0  0  0  0  0  0  0  0  0  0  0
   18.4358  -17.5804  -14.2402 C   0  0  0  0  0  0  0  0  0  0  0  0
   19.6278  -17.5633  -13.4992 N   0  0  0  0  0  0  0  0  0  0  0  0
   20.0242  -16.3060  -13.4343 C   0  0  0  0  0  0  0  0  0  0  0  0
   19.1452  -15.5379  -14.0941 N   0  0  0  0  0  0  0  0  0  0  0  0
   18.1654  -16.3053  -14.5936 C   0  0  0  0  0  0  0  0  0  0  0  0
   17.4728  -21.2522  -14.1388 O   0  0  0  0  0  0  0  0  0  0  0  0
   17.2347  -21.9697  -15.1358 O   0  0  0  0  0  0  0  0  0  0  0  0
  2  3  2  0
  2  1  1  0
  4  2  1  0
  5  4  1  0
  6  5  1  0
  7  6  1  0
  8  7  1  0
  8  9  1  6
 10  8  1  0
 10 12  1  0
 11 10  2  0
 13 12  1  0
 13 14  1  6
 14 15  1  0
 15 16  2  0
 16 17  1  0
 18 17  1  0
 19 15  1  0
 19 18  2  0
 20 13  1  0
 21 20  2  0
 22 20  1  0
 23 22  1  0
 23 30  1  0
 23 24  1  1
 25 24  1  0
 26 25  2  0
 27 26  1  0
 28 27  1  0
 28 29  2  0
 29 25  1  0
 30 32  1  0
 31 30  2  0
M  END
$$$$
