RHH.pdb
     RDKit          3D

 32 33  0  0  1  0  0  0  0  0999 V2000
   21.5477  -28.5918  -16.0412 N   0  0  0  0  0  0  0  0  0  0  0  0
   21.6258  -27.3779  -15.3376 C   0  0  0  0  0  0  0  0  0  0  0  0
   20.8336  -27.1546  -14.3563 N   0  0  0  0  0  0  0  0  0  0  0  0
   22.5740  -26.4024  -15.7195 N   0  0  0  0  0  0  0  0  0  0  0  0
   23.5277  -26.6456  -16.7398 C   0  0  0  0  0  0  0  0  0  0  0  0
   24.3717  -25.4553  -17.0708 C   0  0  0  0  0  0  0  0  0  0  0  0
   24.9125  -24.6866  -15.9127 C   0  0  0  0  0  0  0  0  0  0  0  0
   25.6086  -23.4327  -16.3977 C   0  0  2  0  0  0  0  0  0  0  0  0
   27.0575  -23.5598  -16.1513 N   0  0  0  0  0  0  0  0  0  0  0  0
   25.0896  -22.2612  -15.6603 C   0  0  0  0  0  0  0  0  0  0  0  0
   25.2841  -22.0163  -14.4479 O   0  0  0  0  0  0  0  0  0  0  0  0
   20.8132  -26.2590  -13.8469 N   0  0  0  0  0  0  0  0  0  0  0  0
   24.2783  -21.2566  -16.3055 C   0  0  1  0  0  0  0  0  0  0  0  0
   23.7924  -20.0892  -15.6167 C   0  0  0  0  0  0  0  0  0  0  0  0
   24.2009  -18.8094  -16.2748 C   0  0  0  0  0  0  0  0  0  0  0  0
   25.6656  -18.6121  -16.2503 C   0  0  0  0  0  0  0  0  0  0  0  0
   26.6272  -19.3911  -15.6575 N   0  0  0  0  0  0  0  0  0  0  0  0
   27.8339  -18.8418  -15.8824 C   0  0  0  0  0  0  0  0  0  0  0  0
   27.6500  -17.7353  -16.6032 N   0  0  0  0  0  0  0  0  0  0  0  0
   26.3109  -17.5932  -16.8303 C   0  0  0  0  0  0  0  0  0  0  0  0
   22.3606  -20.2531  -15.4041 O   0  0  0  0  0  0  0  0  0  0  0  0
   21.6519  -20.7828  -16.2952 N   0  0  0  0  0  0  0  0  0  0  0  0
   21.6803  -19.8431  -14.2186 C   0  0  1  0  0  0  0  0  0  0  0  0
   20.2420  -20.0018  -14.0267 C   0  0  0  0  0  0  0  0  0  0  0  0
   19.9304  -20.7267  -12.7674 C   0  0  0  0  0  0  0  0  0  0  0  0
   20.2246  -22.1830  -12.8432 C   0  0  0  0  0  0  0  0  0  0  0  0
   20.7220  -22.8156  -13.9933 N   0  0  0  0  0  0  0  0  0  0  0  0
   20.8586  -24.0956  -13.7015 C   0  0  0  0  0  0  0  0  0  0  0  0
   20.4739  -24.2963  -12.4328 N   0  0  0  0  0  0  0  0  0  0  0  0
   20.0822  -23.1326  -11.8935 C   0  0  0  0  0  0  0  0  0  0  0  0
   19.7151  -18.5882  -13.9882 O   0  0  0  0  0  0  0  0  0  0  0  0
   18.4975  -18.3005  -14.0002 O   0  0  0  0  0  0  0  0  0  0  0  0
  2  3  2  0
  2  1  1  0
  4  2  1  0
  5  4  1  0
  6  5  1  0
  7  6  1  0
  8  7  1  0
  8  9  1  1
 10  8  1  0
 10 12  1  0
 11 10  2  0
 13 12  1  0
 13 14  1  6
 14 15  1  0
 15 16  2  0
 16 17  1  0
 18 17  1  0
 19 15  1  0
 19 18  2  0
 20 13  1  0
 21 20  2  0
 22 20  1  0
 23 22  1  0
 23 30  1  0
 23 24  1  6
 25 24  1  0
 26 25  2  0
 27 26  1  0
 28 27  1  0
 28 29  2  0
 29 25  1  0
 30 32  1  0
 31 30  2  0
M  END
$$$$
