RHH.pdb
     RDKit          3D

 32 33  0  0  1  0  0  0  0  0999 V2000
   28.3908   -7.3304  -23.5114 N   0  0  0  0  0  0  0  0  0  0  0  0
   28.3681   -8.6922  -23.8573 C   0  0  0  0  0  0  0  0  0  0  0  0
   29.3482   -9.2052  -24.5029 N   0  0  0  0  0  0  0  0  0  0  0  0
   27.2597   -9.4916  -23.4982 N   0  0  0  0  0  0  0  0  0  0  0  0
   26.1318   -8.9500  -22.8317 C   0  0  0  0  0  0  0  0  0  0  0  0
   25.0835   -9.9652  -22.5010 C   0  0  0  0  0  0  0  0  0  0  0  0
   23.8784   -9.4598  -21.7820 C   0  0  0  0  0  0  0  0  0  0  0  0
   24.1298   -9.4430  -20.2893 C   0  0  2  0  0  0  0  0  0  0  0  0
   24.8651  -10.6645  -19.9104 N   0  0  0  0  0  0  0  0  0  0  0  0
   22.8388   -9.4082  -19.5698 C   0  0  0  0  0  0  0  0  0  0  0  0
   21.9549   -8.5306  -19.6973 O   0  0  0  0  0  0  0  0  0  0  0  0
   29.3812  -10.1995  -24.7718 N   0  0  0  0  0  0  0  0  0  0  0  0
   22.4730  -10.4289  -18.6167 C   0  0  1  0  0  0  0  0  0  0  0  0
   21.2431  -10.3899  -17.8690 C   0  0  0  0  0  0  0  0  0  0  0  0
   20.8497  -11.7246  -17.3201 C   0  0  0  0  0  0  0  0  0  0  0  0
   19.5496  -11.6782  -16.6183 C   0  0  0  0  0  0  0  0  0  0  0  0
   18.7356  -10.5975  -16.3892 N   0  0  0  0  0  0  0  0  0  0  0  0
   17.6479  -11.0060  -15.7121 C   0  0  0  0  0  0  0  0  0  0  0  0
   17.7620  -12.3191  -15.5115 N   0  0  0  0  0  0  0  0  0  0  0  0
   18.9366  -12.7344  -16.0709 C   0  0  0  0  0  0  0  0  0  0  0  0
   21.3436   -9.3163  -16.8894 O   0  0  0  0  0  0  0  0  0  0  0  0
   22.4082   -9.1563  -16.2430 N   0  0  0  0  0  0  0  0  0  0  0  0
   20.2869   -8.4021  -16.5998 C   0  0  1  0  0  0  0  0  0  0  0  0
   20.4429   -7.2561  -15.7094 C   0  0  0  0  0  0  0  0  0  0  0  0
   21.6199   -6.4273  -16.0784 C   0  0  0  0  0  0  0  0  0  0  0  0
   21.7231   -5.1727  -15.2854 C   0  0  0  0  0  0  0  0  0  0  0  0
   22.2917   -5.1092  -14.0037 N   0  0  0  0  0  0  0  0  0  0  0  0
   22.2110   -3.8528  -13.6073 C   0  0  0  0  0  0  0  0  0  0  0  0
   21.6234   -3.1291  -14.5711 N   0  0  0  0  0  0  0  0  0  0  0  0
   21.3182   -3.9250  -15.6065 C   0  0  0  0  0  0  0  0  0  0  0  0
   19.1573   -6.4827  -15.8723 O   0  0  0  0  0  0  0  0  0  0  0  0
   18.4968   -6.4495  -16.9345 O   0  0  0  0  0  0  0  0  0  0  0  0
  2  3  2  0
  2  1  1  0
  4  2  1  0
  5  4  1  0
  6  5  1  0
  7  6  1  0
  8  7  1  0
  8  9  1  1
 10  8  1  0
 10 12  1  0
 11 10  2  0
 13 12  1  0
 13 14  1  6
 14 15  1  0
 15 16  2  0
 16 17  1  0
 18 17  1  0
 19 15  1  0
 19 18  2  0
 20 13  1  0
 21 20  2  0
 22 20  1  0
 23 22  1  0
 23 30  1  0
 23 24  1  1
 25 24  1  0
 26 25  2  0
 27 26  1  0
 28 27  1  0
 28 29  2  0
 29 25  1  0
 30 32  1  0
 31 30  2  0
M  END
$$$$
