RHH.pdb
     RDKit          3D

 32 33  0  0  1  0  0  0  0  0999 V2000
   19.2483  -27.6603  -15.1952 N   0  0  0  0  0  0  0  0  0  0  0  0
   18.3741  -28.7585  -15.2621 C   0  0  0  0  0  0  0  0  0  0  0  0
   17.2445  -28.6424  -15.8545 N   0  0  0  0  0  0  0  0  0  0  0  0
   18.7404  -29.9873  -14.6685 N   0  0  0  0  0  0  0  0  0  0  0  0
   19.9886  -30.1617  -14.0195 C   0  0  0  0  0  0  0  0  0  0  0  0
   20.2459  -31.5678  -13.5775 C   0  0  0  0  0  0  0  0  0  0  0  0
   21.5051  -31.7997  -12.8125 C   0  0  0  0  0  0  0  0  0  0  0  0
   22.6526  -32.0648  -13.7638 C   0  0  2  0  0  0  0  0  0  0  0  0
   22.1360  -32.7511  -14.9630 N   0  0  0  0  0  0  0  0  0  0  0  0
   23.6552  -32.9269  -13.1026 C   0  0  0  0  0  0  0  0  0  0  0  0
   23.5827  -34.1709  -12.9815 O   0  0  0  0  0  0  0  0  0  0  0  0
   16.5255  -29.3805  -15.8368 N   0  0  0  0  0  0  0  0  0  0  0  0
   24.8555  -32.3817  -12.5144 C   0  0  1  0  0  0  0  0  0  0  0  0
   25.8700  -33.2066  -11.9114 C   0  0  0  0  0  0  0  0  0  0  0  0
   27.2590  -32.7435  -12.2179 C   0  0  0  0  0  0  0  0  0  0  0  0
   27.5967  -32.9009  -13.6484 C   0  0  0  0  0  0  0  0  0  0  0  0
   26.8208  -33.4002  -14.6640 N   0  0  0  0  0  0  0  0  0  0  0  0
   27.5237  -33.3617  -15.8099 C   0  0  0  0  0  0  0  0  0  0  0  0
   28.7235  -32.8492  -15.5349 N   0  0  0  0  0  0  0  0  0  0  0  0
   28.7688  -32.5647  -14.2000 C   0  0  0  0  0  0  0  0  0  0  0  0
   25.5561  -33.3466  -10.4958 O   0  0  0  0  0  0  0  0  0  0  0  0
   24.9214  -32.4399   -9.9026 N   0  0  0  0  0  0  0  0  0  0  0  0
   25.9287  -34.4753   -9.7061 C   0  0  1  0  0  0  0  0  0  0  0  0
   25.4865  -34.6682   -8.3285 C   0  0  0  0  0  0  0  0  0  0  0  0
   25.5120  -36.1014   -7.9367 C   0  0  0  0  0  0  0  0  0  0  0  0
   24.4187  -36.8966   -8.5578 C   0  0  0  0  0  0  0  0  0  0  0  0
   23.2014  -36.3426   -8.9836 N   0  0  0  0  0  0  0  0  0  0  0  0
   22.4785  -37.3311   -9.4762 C   0  0  0  0  0  0  0  0  0  0  0  0
   23.1779  -38.4712   -9.3811 N   0  0  0  0  0  0  0  0  0  0  0  0
   24.3698  -38.2206   -8.8196 C   0  0  0  0  0  0  0  0  0  0  0  0
   26.4632  -33.8604   -7.5094 O   0  0  0  0  0  0  0  0  0  0  0  0
   27.4709  -33.2950   -7.9894 O   0  0  0  0  0  0  0  0  0  0  0  0
  2  3  2  0
  2  1  1  0
  4  2  1  0
  5  4  1  0
  6  5  1  0
  7  6  1  0
  8  7  1  0
  8  9  1  6
 10  8  1  0
 10 12  1  0
 11 10  2  0
 13 12  1  0
 13 14  1  6
 14 15  1  0
 15 16  2  0
 16 17  1  0
 18 17  1  0
 19 15  1  0
 19 18  2  0
 20 13  1  0
 21 20  2  0
 22 20  1  0
 23 22  1  0
 23 30  1  0
 23 24  1  1
 25 24  1  0
 26 25  2  0
 27 26  1  0
 28 27  1  0
 28 29  2  0
 29 25  1  0
 30 32  1  0
 31 30  2  0
M  END
$$$$
