RHH.pdb
     RDKit          3D

 32 33  0  0  1  0  0  0  0  0999 V2000
   38.5375  -30.9374  -15.3033 N   0  0  0  0  0  0  0  0  0  0  0  0
   38.2422  -30.3477  -16.5441 C   0  0  0  0  0  0  0  0  0  0  0  0
   38.2728  -31.0540  -17.6121 N   0  0  0  0  0  0  0  0  0  0  0  0
   37.9192  -28.9738  -16.6117 N   0  0  0  0  0  0  0  0  0  0  0  0
   37.6400  -28.2130  -15.4485 C   0  0  0  0  0  0  0  0  0  0  0  0
   36.2066  -28.2681  -15.0230 C   0  0  0  0  0  0  0  0  0  0  0  0
   35.8031  -27.3273  -13.9383 C   0  0  0  0  0  0  0  0  0  0  0  0
   35.2742  -26.0399  -14.5338 C   0  0  2  0  0  0  0  0  0  0  0  0
   34.9447  -25.1035  -13.4425 N   0  0  0  0  0  0  0  0  0  0  0  0
   34.0539  -26.3219  -15.3193 C   0  0  0  0  0  0  0  0  0  0  0  0
   32.8905  -25.9777  -15.0102 O   0  0  0  0  0  0  0  0  0  0  0  0
   38.0758  -30.6646  -18.5457 N   0  0  0  0  0  0  0  0  0  0  0  0
   34.1040  -27.0509  -16.5643 C   0  0  2  0  0  0  0  0  0  0  0  0
   33.1380  -26.8625  -17.6152 C   0  0  0  0  0  0  0  0  0  0  0  0
   32.9631  -25.4271  -17.9984 C   0  0  0  0  0  0  0  0  0  0  0  0
   31.7665  -24.8246  -17.3738 C   0  0  0  0  0  0  0  0  0  0  0  0
   30.8398  -25.4124  -16.5501 N   0  0  0  0  0  0  0  0  0  0  0  0
   29.9139  -24.4977  -16.2118 C   0  0  0  0  0  0  0  0  0  0  0  0
   30.2396  -23.3492  -16.8055 N   0  0  0  0  0  0  0  0  0  0  0  0
   31.3837  -23.5510  -17.5234 C   0  0  0  0  0  0  0  0  0  0  0  0
   33.4773  -27.7641  -18.7080 O   0  0  0  0  0  0  0  0  0  0  0  0
   34.6773  -27.9139  -19.0463 N   0  0  0  0  0  0  0  0  0  0  0  0
   32.5154  -28.5151  -19.4476 C   0  0  1  0  0  0  0  0  0  0  0  0
   32.3054  -29.9476  -19.2623 C   0  0  0  0  0  0  0  0  0  0  0  0
   31.9673  -30.2776  -17.8533 C   0  0  0  0  0  0  0  0  0  0  0  0
   31.6907  -31.7241  -17.6421 C   0  0  0  0  0  0  0  0  0  0  0  0
   31.9076  -32.7068  -18.6205 N   0  0  0  0  0  0  0  0  0  0  0  0
   31.5532  -33.8631  -18.0917 C   0  0  0  0  0  0  0  0  0  0  0  0
   31.1271  -33.6557  -16.8373 N   0  0  0  0  0  0  0  0  0  0  0  0
   31.2054  -32.3487  -16.5475 C   0  0  0  0  0  0  0  0  0  0  0  0
   31.1620  -30.2775  -20.1903 O   0  0  0  0  0  0  0  0  0  0  0  0
   30.1118  -29.6015  -20.2658 O   0  0  0  0  0  0  0  0  0  0  0  0
  2  3  2  0
  2  1  1  0
  4  2  1  0
  5  4  1  0
  6  5  1  0
  7  6  1  0
  8  7  1  0
  8  9  1  1
 10  8  1  0
 10 12  1  0
 11 10  2  0
 13 12  1  0
 13 14  1  1
 14 15  1  0
 15 16  2  0
 16 17  1  0
 18 17  1  0
 19 15  1  0
 19 18  2  0
 20 13  1  0
 21 20  2  0
 22 20  1  0
 23 22  1  0
 23 30  1  0
 23 24  1  6
 25 24  1  0
 26 25  2  0
 27 26  1  0
 28 27  1  0
 28 29  2  0
 29 25  1  0
 30 32  1  0
 31 30  2  0
M  END
$$$$
