RHH.pdb
     RDKit          3D

 32 33  0  0  1  0  0  0  0  0999 V2000
   17.0259  -11.1395  -22.6316 N   0  0  0  0  0  0  0  0  0  0  0  0
   17.1276  -11.9960  -21.5222 C   0  0  0  0  0  0  0  0  0  0  0  0
   16.0908  -12.6131  -21.0926 N   0  0  0  0  0  0  0  0  0  0  0  0
   18.3732  -12.1688  -20.8778 N   0  0  0  0  0  0  0  0  0  0  0  0
   19.5589  -11.5662  -21.3683 C   0  0  0  0  0  0  0  0  0  0  0  0
   20.7854  -11.9332  -20.5938 C   0  0  0  0  0  0  0  0  0  0  0  0
   22.0712  -11.3547  -21.0800 C   0  0  0  0  0  0  0  0  0  0  0  0
   23.2283  -11.8997  -20.2702 C   0  0  2  0  0  0  0  0  0  0  0  0
   23.1332  -13.3711  -20.2233 N   0  0  0  0  0  0  0  0  0  0  0  0
   23.1662  -11.3630  -18.8941 C   0  0  0  0  0  0  0  0  0  0  0  0
   22.3554  -11.7167  -18.0080 O   0  0  0  0  0  0  0  0  0  0  0  0
   16.1187  -13.2650  -20.2949 N   0  0  0  0  0  0  0  0  0  0  0  0
   24.0761  -10.3400  -18.4364 C   0  0  1  0  0  0  0  0  0  0  0  0
   23.9773   -9.7385  -17.1320 C   0  0  0  0  0  0  0  0  0  0  0  0
   25.3016   -9.3101  -16.5837 C   0  0  0  0  0  0  0  0  0  0  0  0
   26.1365  -10.4607  -16.1787 C   0  0  0  0  0  0  0  0  0  0  0  0
   25.8232  -11.7966  -16.1940 N   0  0  0  0  0  0  0  0  0  0  0  0
   26.8775  -12.4975  -15.7405 C   0  0  0  0  0  0  0  0  0  0  0  0
   27.8450  -11.6304  -15.4411 N   0  0  0  0  0  0  0  0  0  0  0  0
   27.3875  -10.3725  -15.7115 C   0  0  0  0  0  0  0  0  0  0  0  0
   22.9590   -8.6983  -17.1898 O   0  0  0  0  0  0  0  0  0  0  0  0
   22.9543   -7.8790  -18.1413 N   0  0  0  0  0  0  0  0  0  0  0  0
   21.9316   -8.5357  -16.2129 C   0  0  1  0  0  0  0  0  0  0  0  0
   20.9258   -7.4799  -16.2787 C   0  0  0  0  0  0  0  0  0  0  0  0
   19.5480   -8.0223  -16.1538 C   0  0  0  0  0  0  0  0  0  0  0  0
   18.4996   -6.9672  -16.1830 C   0  0  0  0  0  0  0  0  0  0  0  0
   18.7545   -5.6289  -16.5207 N   0  0  0  0  0  0  0  0  0  0  0  0
   17.6055   -4.9843  -16.4388 C   0  0  0  0  0  0  0  0  0  0  0  0
   16.6480   -5.8469  -16.0686 N   0  0  0  0  0  0  0  0  0  0  0  0
   17.1812   -7.0669  -15.9077 C   0  0  0  0  0  0  0  0  0  0  0  0
   21.2635   -6.5739  -15.1200 O   0  0  0  0  0  0  0  0  0  0  0  0
   21.3999   -5.3345  -15.2246 O   0  0  0  0  0  0  0  0  0  0  0  0
  2  3  2  0
  2  1  1  0
  4  2  1  0
  5  4  1  0
  6  5  1  0
  7  6  1  0
  8  7  1  0
  8  9  1  1
 10  8  1  0
 10 12  1  0
 11 10  2  0
 13 12  1  0
 13 14  1  1
 14 15  1  0
 15 16  2  0
 16 17  1  0
 18 17  1  0
 19 15  1  0
 19 18  2  0
 20 13  1  0
 21 20  2  0
 22 20  1  0
 23 22  1  0
 23 30  1  0
 23 24  1  1
 25 24  1  0
 26 25  2  0
 27 26  1  0
 28 27  1  0
 28 29  2  0
 29 25  1  0
 30 32  1  0
 31 30  2  0
M  END
$$$$
