RHH.pdb
     RDKit          3D

 32 33  0  0  1  0  0  0  0  0999 V2000
   31.8553  -33.5762  -16.3318 N   0  0  0  0  0  0  0  0  0  0  0  0
   30.5502  -33.9213  -16.7221 C   0  0  0  0  0  0  0  0  0  0  0  0
   30.2086  -35.1536  -16.7952 N   0  0  0  0  0  0  0  0  0  0  0  0
   29.6191  -32.9074  -17.0406 N   0  0  0  0  0  0  0  0  0  0  0  0
   28.5540  -33.1289  -17.9496 C   0  0  0  0  0  0  0  0  0  0  0  0
   27.6852  -31.9295  -18.1625 C   0  0  0  0  0  0  0  0  0  0  0  0
   27.4577  -31.0593  -16.9727 C   0  0  0  0  0  0  0  0  0  0  0  0
   25.9904  -31.0570  -16.6004 C   0  0  2  0  0  0  0  0  0  0  0  0
   25.3251  -32.1994  -17.2550 N   0  0  0  0  0  0  0  0  0  0  0  0
   25.3644  -29.7992  -17.0606 C   0  0  0  0  0  0  0  0  0  0  0  0
   25.7118  -28.6445  -16.7236 O   0  0  0  0  0  0  0  0  0  0  0  0
   29.3013  -35.4606  -17.1754 N   0  0  0  0  0  0  0  0  0  0  0  0
   24.2498  -29.7973  -17.9780 C   0  0  2  0  0  0  0  0  0  0  0  0
   23.6048  -28.5866  -18.4154 C   0  0  0  0  0  0  0  0  0  0  0  0
   23.8079  -28.3087  -19.8711 C   0  0  0  0  0  0  0  0  0  0  0  0
   25.2339  -28.1141  -20.2084 C   0  0  0  0  0  0  0  0  0  0  0  0
   26.1064  -28.9976  -20.7925 N   0  0  0  0  0  0  0  0  0  0  0  0
   27.3083  -28.4071  -20.9158 C   0  0  0  0  0  0  0  0  0  0  0  0
   27.2086  -27.1728  -20.4217 N   0  0  0  0  0  0  0  0  0  0  0  0
   25.9276  -26.9918  -19.9846 C   0  0  0  0  0  0  0  0  0  0  0  0
   22.2167  -28.6295  -17.9752 O   0  0  0  0  0  0  0  0  0  0  0  0
   21.7229  -29.7091  -17.5659 N   0  0  0  0  0  0  0  0  0  0  0  0
   21.3471  -27.4982  -17.9742 C   0  0  2  0  0  0  0  0  0  0  0  0
   19.9423  -27.5700  -17.5843 C   0  0  0  0  0  0  0  0  0  0  0  0
   19.4874  -28.9749  -17.4176 C   0  0  0  0  0  0  0  0  0  0  0  0
   18.0431  -29.0852  -17.0783 C   0  0  0  0  0  0  0  0  0  0  0  0
   17.1585  -27.9955  -17.0861 N   0  0  0  0  0  0  0  0  0  0  0  0
   15.9731  -28.4578  -16.7350 C   0  0  0  0  0  0  0  0  0  0  0  0
   16.0696  -29.7760  -16.5087 N   0  0  0  0  0  0  0  0  0  0  0  0
   17.3331  -30.1751  -16.7149 C   0  0  0  0  0  0  0  0  0  0  0  0
   19.8817  -26.8174  -16.2776 O   0  0  0  0  0  0  0  0  0  0  0  0
   20.8194  -26.1167  -15.8358 O   0  0  0  0  0  0  0  0  0  0  0  0
  2  3  2  0
  2  1  1  0
  4  2  1  0
  5  4  1  0
  6  5  1  0
  7  6  1  0
  8  7  1  0
  8  9  1  6
 10  8  1  0
 10 12  1  0
 11 10  2  0
 13 12  1  0
 13 14  1  1
 14 15  1  0
 15 16  2  0
 16 17  1  0
 18 17  1  0
 19 15  1  0
 19 18  2  0
 20 13  1  0
 21 20  2  0
 22 20  1  0
 23 22  1  0
 23 30  1  0
 23 24  1  6
 25 24  1  0
 26 25  2  0
 27 26  1  0
 28 27  1  0
 28 29  2  0
 29 25  1  0
 30 32  1  0
 31 30  2  0
M  END
$$$$
