DNN.pdb
     RDKit          3D

 25 24  0  0  1  0  0  0  0  0999 V2000
   13.2016   -9.7991  -10.1669 N   0  0  0  0  0  0  0  0  0  0  0  0
   14.6328   -9.6287  -10.1377 C   0  0  1  0  0  0  0  0  0  0  0  0
   15.2794  -10.4503  -11.1855 C   0  0  0  0  0  0  0  0  0  0  0  0
   15.0415  -11.8891  -10.9782 C   0  0  0  0  0  0  0  0  0  0  0  0
   14.3901  -12.3864  -10.0307 O   0  0  0  0  0  0  0  0  0  0  0  0
   14.9357   -8.1749  -10.2666 C   0  0  0  0  0  0  0  0  0  0  0  0
   14.3480   -7.4358  -11.0970 O   0  0  0  0  0  0  0  0  0  0  0  0
   15.5600  -12.8439  -11.8812 O   0  0  0  0  0  0  0  0  0  0  0  0
   13.6253   -5.0876   -9.0337 N   0  0  0  0  0  0  0  0  0  0  0  0
   14.6733   -4.9833   -8.0969 C   0  0  0  0  0  0  0  0  0  0  0  0
   14.4270   -4.4192   -6.9812 O   0  0  0  0  0  0  0  0  0  0  0  0
   16.0440   -5.4680   -8.2812 C   0  0  0  0  0  0  0  0  0  0  0  0
   16.2715   -6.1495   -9.6049 C   0  0  2  0  0  0  0  0  0  0  0  0
   15.9152   -7.5606   -9.4446 N   0  0  0  0  0  0  0  0  0  0  0  0
   17.7538   -6.1064   -9.8750 C   0  0  0  0  0  0  0  0  0  0  0  0
   18.5837   -6.6862   -9.1210 O   0  0  0  0  0  0  0  0  0  0  0  0
   22.2468   -7.1395  -11.8131 N   0  0  0  0  0  0  0  0  0  0  0  0
   21.0301   -7.2879  -12.5364 C   0  0  0  0  0  0  0  0  0  0  0  0
   21.0339   -7.6811  -13.7521 O   0  0  0  0  0  0  0  0  0  0  0  0
   19.7275   -7.0072  -11.9429 C   0  0  0  0  0  0  0  0  0  0  0  0
   19.6713   -5.5960  -11.4113 C   0  0  2  0  0  0  0  0  0  0  0  0
   18.2562   -5.4007  -11.0016 N   0  0  0  0  0  0  0  0  0  0  0  0
   19.9298   -4.6748  -12.5769 C   0  0  0  0  0  0  0  0  0  0  0  0
   21.2024   -4.1314  -12.7503 O   0  0  0  0  0  0  0  0  0  0  0  0
   19.0796   -4.3468  -13.4246 O   0  0  0  0  0  0  0  0  0  0  0  0
  2  3  1  0
  2  1  1  6
  3  4  1  0
  4  8  1  0
  4  5  2  0
  6  2  1  0
  7  6  2  0
  9 10  1  0
 10 12  1  0
 11 10  2  0
 13 12  1  1
 13 14  1  0
 14  6  1  0
 15 13  1  0
 15 22  1  0
 16 15  2  0
 18 17  1  0
 18 19  2  0
 20 18  1  0
 21 20  1  6
 21 22  1  0
 21 23  1  0
 23 24  1  0
 25 23  2  0
M  END
$$$$
