DNN.pdb
     RDKit          3D

 25 24  0  0  1  0  0  0  0  0999 V2000
   19.2347  -11.1564  -17.4243 N   0  0  0  0  0  0  0  0  0  0  0  0
   18.8424  -11.0180  -16.0440 C   0  0  1  0  0  0  0  0  0  0  0  0
   18.6075  -12.3447  -15.4309 C   0  0  0  0  0  0  0  0  0  0  0  0
   17.3526  -12.9530  -15.9052 C   0  0  0  0  0  0  0  0  0  0  0  0
   16.4812  -12.3728  -16.5932 O   0  0  0  0  0  0  0  0  0  0  0  0
   19.8871  -10.2249  -15.3358 C   0  0  0  0  0  0  0  0  0  0  0  0
   19.8278   -9.9815  -14.1035 O   0  0  0  0  0  0  0  0  0  0  0  0
   17.0399  -14.2958  -15.5971 O   0  0  0  0  0  0  0  0  0  0  0  0
   23.5212  -11.2754  -14.4764 N   0  0  0  0  0  0  0  0  0  0  0  0
   24.0130  -10.4420  -15.5013 C   0  0  0  0  0  0  0  0  0  0  0  0
   25.1284  -10.7448  -16.0377 O   0  0  0  0  0  0  0  0  0  0  0  0
   23.3573   -9.2390  -16.0216 C   0  0  0  0  0  0  0  0  0  0  0  0
   22.0430   -8.9302  -15.3541 C   0  0  2  0  0  0  0  0  0  0  0  0
   21.0055   -9.7053  -16.0371 N   0  0  0  0  0  0  0  0  0  0  0  0
   21.7427   -7.4773  -15.6211 C   0  0  0  0  0  0  0  0  0  0  0  0
   21.5926   -7.0345  -16.7936 O   0  0  0  0  0  0  0  0  0  0  0  0
   20.5062   -2.5166  -15.1431 N   0  0  0  0  0  0  0  0  0  0  0  0
   19.5850   -3.4819  -14.6481 C   0  0  0  0  0  0  0  0  0  0  0  0
   18.3890   -3.1509  -14.3433 O   0  0  0  0  0  0  0  0  0  0  0  0
   19.9436   -4.8838  -14.4643 C   0  0  0  0  0  0  0  0  0  0  0  0
   21.3880   -5.1222  -14.8305 C   0  0  2  0  0  0  0  0  0  0  0  0
   21.6204   -6.5612  -14.5415 N   0  0  0  0  0  0  0  0  0  0  0  0
   22.2261   -4.3306  -13.8584 C   0  0  0  0  0  0  0  0  0  0  0  0
   22.5344   -3.0011  -14.1456 O   0  0  0  0  0  0  0  0  0  0  0  0
   22.6811   -4.7741  -12.7883 O   0  0  0  0  0  0  0  0  0  0  0  0
  2  3  1  0
  2  1  1  6
  3  4  1  0
  4  8  1  0
  4  5  2  0
  6  2  1  0
  7  6  2  0
  9 10  1  0
 10 12  1  0
 11 10  2  0
 13 12  1  6
 13 14  1  0
 14  6  1  0
 15 13  1  0
 15 22  1  0
 16 15  2  0
 18 17  1  0
 18 19  2  0
 20 18  1  0
 21 20  1  1
 21 22  1  0
 21 23  1  0
 23 24  1  0
 25 23  2  0
M  END
$$$$
