DNN.pdb
     RDKit          3D

 25 24  0  0  1  0  0  0  0  0999 V2000
   17.6012  -12.3201  -15.1431 N   0  0  0  0  0  0  0  0  0  0  0  0
   17.1162  -10.9636  -15.0868 C   0  0  1  0  0  0  0  0  0  0  0  0
   15.6363  -10.9371  -15.0683 C   0  0  0  0  0  0  0  0  0  0  0  0
   15.0632  -11.4594  -16.3207 C   0  0  0  0  0  0  0  0  0  0  0  0
   15.3412  -11.0487  -17.4711 O   0  0  0  0  0  0  0  0  0  0  0  0
   17.7264  -10.2951  -13.9024 C   0  0  0  0  0  0  0  0  0  0  0  0
   17.6198  -10.7587  -12.7384 O   0  0  0  0  0  0  0  0  0  0  0  0
   14.1172  -12.5085  -16.2992 O   0  0  0  0  0  0  0  0  0  0  0  0
   20.2667   -6.5591  -11.0017 N   0  0  0  0  0  0  0  0  0  0  0  0
   20.7239   -6.6688  -12.3305 C   0  0  0  0  0  0  0  0  0  0  0  0
   21.7400   -5.9811  -12.6742 O   0  0  0  0  0  0  0  0  0  0  0  0
   20.1364   -7.5108  -13.3763 C   0  0  0  0  0  0  0  0  0  0  0  0
   19.0170   -8.3911  -12.8859 C   0  0  2  0  0  0  0  0  0  0  0  0
   18.4618   -9.0905  -14.0462 N   0  0  0  0  0  0  0  0  0  0  0  0
   17.9321   -7.4803  -12.3708 C   0  0  0  0  0  0  0  0  0  0  0  0
   17.0188   -7.0425  -13.1242 O   0  0  0  0  0  0  0  0  0  0  0  0
   14.6330   -7.5007   -7.5935 N   0  0  0  0  0  0  0  0  0  0  0  0
   14.8266   -7.3380   -8.9940 C   0  0  0  0  0  0  0  0  0  0  0  0
   13.9098   -6.8354   -9.7286 O   0  0  0  0  0  0  0  0  0  0  0  0
   16.0630   -7.7262   -9.6636 C   0  0  0  0  0  0  0  0  0  0  0  0
   16.6569   -6.5601  -10.4151 C   0  0  2  0  0  0  0  0  0  0  0  0
   17.9143   -7.0891  -11.0046 N   0  0  0  0  0  0  0  0  0  0  0  0
   17.0457   -5.5257   -9.3889 C   0  0  0  0  0  0  0  0  0  0  0  0
   16.2739   -4.3719   -9.2541 O   0  0  0  0  0  0  0  0  0  0  0  0
   18.0261   -5.6147   -8.6275 O   0  0  0  0  0  0  0  0  0  0  0  0
  2  3  1  0
  2  1  1  1
  3  4  1  0
  4  8  1  0
  4  5  2  0
  6  2  1  0
  7  6  2  0
  9 10  1  0
 10 12  1  0
 11 10  2  0
 13 12  1  6
 13 14  1  0
 14  6  1  0
 15 13  1  0
 15 22  1  0
 16 15  2  0
 18 17  1  0
 18 19  2  0
 20 18  1  0
 21 20  1  1
 21 22  1  0
 21 23  1  0
 23 24  1  0
 25 23  2  0
M  END
$$$$
