DNN.pdb
     RDKit          3D

 25 24  0  0  1  0  0  0  0  0999 V2000
   19.5683  -11.4187  -17.5483 N   0  0  0  0  0  0  0  0  0  0  0  0
   18.7960  -11.2685  -16.3403 C   0  0  1  0  0  0  0  0  0  0  0  0
   18.5089  -12.5883  -15.7348 C   0  0  0  0  0  0  0  0  0  0  0  0
   17.5299  -13.3530  -16.5265 C   0  0  0  0  0  0  0  0  0  0  0  0
   17.8079  -14.2771  -17.3253 O   0  0  0  0  0  0  0  0  0  0  0  0
   19.5324  -10.3534  -15.4224 C   0  0  0  0  0  0  0  0  0  0  0  0
   19.1109  -10.0716  -14.2717 O   0  0  0  0  0  0  0  0  0  0  0  0
   16.1480  -13.0763  -16.4279 O   0  0  0  0  0  0  0  0  0  0  0  0
   22.5751   -9.1982  -17.6018 N   0  0  0  0  0  0  0  0  0  0  0  0
   23.3912   -9.4250  -16.4751 C   0  0  0  0  0  0  0  0  0  0  0  0
   24.5960   -9.7907  -16.6706 O   0  0  0  0  0  0  0  0  0  0  0  0
   22.9848   -9.2796  -15.0746 C   0  0  0  0  0  0  0  0  0  0  0  0
   21.5324   -8.9210  -14.9005 C   0  0  2  0  0  0  0  0  0  0  0  0
   20.7561   -9.7555  -15.8195 N   0  0  0  0  0  0  0  0  0  0  0  0
   21.3699   -7.4972  -15.3681 C   0  0  0  0  0  0  0  0  0  0  0  0
   21.4621   -7.1837  -16.5873 O   0  0  0  0  0  0  0  0  0  0  0  0
   17.5185   -5.5886  -14.8752 N   0  0  0  0  0  0  0  0  0  0  0  0
   18.7321   -5.0437  -15.3807 C   0  0  0  0  0  0  0  0  0  0  0  0
   18.9609   -5.0064  -16.6373 O   0  0  0  0  0  0  0  0  0  0  0  0
   19.7695   -4.5020  -14.5098 C   0  0  0  0  0  0  0  0  0  0  0  0
   21.1257   -5.0468  -14.8853 C   0  0  2  0  0  0  0  0  0  0  0  0
   21.1054   -6.4616  -14.4314 N   0  0  0  0  0  0  0  0  0  0  0  0
   22.1421   -4.3213  -14.0399 C   0  0  0  0  0  0  0  0  0  0  0  0
   22.3934   -2.9708  -14.2806 O   0  0  0  0  0  0  0  0  0  0  0  0
   22.7970   -4.8389  -13.1169 O   0  0  0  0  0  0  0  0  0  0  0  0
  2  3  1  0
  2  1  1  6
  3  4  1  0
  4  8  1  0
  4  5  2  0
  6  2  1  0
  7  6  2  0
  9 10  1  0
 10 12  1  0
 11 10  2  0
 13 12  1  6
 13 14  1  0
 14  6  1  0
 15 13  1  0
 15 22  1  0
 16 15  2  0
 18 17  1  0
 18 19  2  0
 20 18  1  0
 21 20  1  1
 21 22  1  0
 21 23  1  0
 23 24  1  0
 25 23  2  0
M  END
$$$$
