DNN.pdb
     RDKit          3D

 25 24  0  0  1  0  0  0  0  0999 V2000
   16.3535  -11.5149  -16.6505 N   0  0  0  0  0  0  0  0  0  0  0  0
   16.7792  -11.7973  -15.3024 C   0  0  1  0  0  0  0  0  0  0  0  0
   16.6258  -13.2372  -14.9956 C   0  0  0  0  0  0  0  0  0  0  0  0
   15.2093  -13.6371  -14.9374 C   0  0  0  0  0  0  0  0  0  0  0  0
   14.2342  -12.8507  -14.9349 O   0  0  0  0  0  0  0  0  0  0  0  0
   18.1795  -11.3123  -15.1405 C   0  0  0  0  0  0  0  0  0  0  0  0
   18.8397  -11.5007  -14.0870 O   0  0  0  0  0  0  0  0  0  0  0  0
   14.8463  -15.0011  -14.8778 O   0  0  0  0  0  0  0  0  0  0  0  0
   22.9888   -9.3065  -16.2484 N   0  0  0  0  0  0  0  0  0  0  0  0
   22.3251   -9.9446  -17.3157 C   0  0  0  0  0  0  0  0  0  0  0  0
   22.9606  -10.1033  -18.4087 O   0  0  0  0  0  0  0  0  0  0  0  0
   20.9509  -10.4536  -17.2937 C   0  0  0  0  0  0  0  0  0  0  0  0
   20.1988  -10.1097  -16.0349 C   0  0  2  0  0  0  0  0  0  0  0  0
   18.8303  -10.6076  -16.1856 N   0  0  0  0  0  0  0  0  0  0  0  0
   20.1071   -8.6064  -15.9719 C   0  0  0  0  0  0  0  0  0  0  0  0
   19.2920   -7.9601  -16.6869 O   0  0  0  0  0  0  0  0  0  0  0  0
   22.8263   -3.6858  -14.1041 N   0  0  0  0  0  0  0  0  0  0  0  0
   21.7349   -4.5259  -13.7459 C   0  0  0  0  0  0  0  0  0  0  0  0
   20.6679   -4.0356  -13.2421 O   0  0  0  0  0  0  0  0  0  0  0  0
   21.7668   -5.9725  -13.9314 C   0  0  0  0  0  0  0  0  0  0  0  0
   20.8432   -6.3922  -15.0486 C   0  0  2  0  0  0  0  0  0  0  0  0
   20.9495   -7.8737  -15.0927 N   0  0  0  0  0  0  0  0  0  0  0  0
   21.4339   -5.8638  -16.3315 C   0  0  0  0  0  0  0  0  0  0  0  0
   20.7479   -4.8833  -17.0477 O   0  0  0  0  0  0  0  0  0  0  0  0
   22.5145   -6.2382  -16.8225 O   0  0  0  0  0  0  0  0  0  0  0  0
  2  3  1  0
  2  1  1  6
  3  4  1  0
  4  8  1  0
  4  5  2  0
  6  2  1  0
  7  6  2  0
  9 10  1  0
 10 12  1  0
 11 10  2  0
 13 12  1  6
 13 14  1  0
 14  6  1  0
 15 13  1  0
 15 22  1  0
 16 15  2  0
 18 17  1  0
 18 19  2  0
 20 18  1  0
 21 20  1  1
 21 22  1  0
 21 23  1  0
 23 24  1  0
 25 23  2  0
M  END
$$$$
