DNN.pdb
     RDKit          3D

 25 24  0  0  1  0  0  0  0  0999 V2000
   20.1755   -9.1215  -18.8391 N   0  0  0  0  0  0  0  0  0  0  0  0
   19.4805  -10.0405  -17.9727 C   0  0  1  0  0  0  0  0  0  0  0  0
   19.2461  -11.3311  -18.6585 C   0  0  0  0  0  0  0  0  0  0  0  0
   18.2836  -11.1964  -19.7655 C   0  0  0  0  0  0  0  0  0  0  0  0
   18.1464  -12.0092  -20.7088 O   0  0  0  0  0  0  0  0  0  0  0  0
   20.2647  -10.1833  -16.7131 C   0  0  0  0  0  0  0  0  0  0  0  0
   19.8704  -10.8903  -15.7509 O   0  0  0  0  0  0  0  0  0  0  0  0
   17.4129  -10.0860  -19.8338 O   0  0  0  0  0  0  0  0  0  0  0  0
   23.2862  -12.1740  -16.2767 N   0  0  0  0  0  0  0  0  0  0  0  0
   24.1161  -11.0372  -16.2007 C   0  0  0  0  0  0  0  0  0  0  0  0
   25.3154  -11.1407  -16.6182 O   0  0  0  0  0  0  0  0  0  0  0  0
   23.7301   -9.7230  -15.6795 C   0  0  0  0  0  0  0  0  0  0  0  0
   22.2739   -9.6238  -15.3079 C   0  0  2  0  0  0  0  0  0  0  0  0
   21.5055   -9.5153  -16.5495 N   0  0  0  0  0  0  0  0  0  0  0  0
   22.0934   -8.3201  -14.5730 C   0  0  0  0  0  0  0  0  0  0  0  0
   22.6132   -8.1184  -13.4405 O   0  0  0  0  0  0  0  0  0  0  0  0
   20.9399   -3.4645  -13.3378 N   0  0  0  0  0  0  0  0  0  0  0  0
   21.9924   -3.7574  -14.2499 C   0  0  0  0  0  0  0  0  0  0  0  0
   22.8418   -2.8618  -14.5805 O   0  0  0  0  0  0  0  0  0  0  0  0
   22.1636   -5.0758  -14.8504 C   0  0  0  0  0  0  0  0  0  0  0  0
   21.0935   -6.0271  -14.3738 C   0  0  2  0  0  0  0  0  0  0  0  0
   21.3220   -7.2744  -15.1485 N   0  0  0  0  0  0  0  0  0  0  0  0
   19.7690   -5.4608  -14.8199 C   0  0  0  0  0  0  0  0  0  0  0  0
   19.0025   -6.1637  -15.7491 O   0  0  0  0  0  0  0  0  0  0  0  0
   19.2848   -4.3869  -14.4186 O   0  0  0  0  0  0  0  0  0  0  0  0
  2  3  1  0
  2  1  1  6
  3  4  1  0
  4  8  1  0
  4  5  2  0
  6  2  1  0
  7  6  2  0
  9 10  1  0
 10 12  1  0
 11 10  2  0
 13 12  1  6
 13 14  1  0
 14  6  1  0
 15 13  1  0
 15 22  1  0
 16 15  2  0
 18 17  1  0
 18 19  2  0
 20 18  1  0
 21 20  1  6
 21 22  1  0
 21 23  1  0
 23 24  1  0
 25 23  2  0
M  END
$$$$
