DNN.pdb
     RDKit          3D

 25 24  0  0  1  0  0  0  0  0999 V2000
   26.6585  -21.8562  -10.6202 N   0  0  0  0  0  0  0  0  0  0  0  0
   25.8817  -20.6586  -10.4181 C   0  0  1  0  0  0  0  0  0  0  0  0
   26.6422  -19.6695   -9.6216 C   0  0  0  0  0  0  0  0  0  0  0  0
   26.6672  -20.0206   -8.1913 C   0  0  0  0  0  0  0  0  0  0  0  0
   26.0277  -20.9604   -7.6648 O   0  0  0  0  0  0  0  0  0  0  0  0
   25.4654  -20.1379  -11.7514 C   0  0  0  0  0  0  0  0  0  0  0  0
   24.8908  -19.0282  -11.8913 O   0  0  0  0  0  0  0  0  0  0  0  0
   27.4539  -19.2810   -7.2802 O   0  0  0  0  0  0  0  0  0  0  0  0
   27.8776  -19.1372  -14.7964 N   0  0  0  0  0  0  0  0  0  0  0  0
   27.5087  -20.3563  -15.4001 C   0  0  0  0  0  0  0  0  0  0  0  0
   28.3695  -20.9503  -16.1280 O   0  0  0  0  0  0  0  0  0  0  0  0
   26.2092  -21.0217  -15.2720 C   0  0  0  0  0  0  0  0  0  0  0  0
   25.3039  -20.3883  -14.2484 C   0  0  2  0  0  0  0  0  0  0  0  0
   25.7050  -20.8874  -12.9318 N   0  0  0  0  0  0  0  0  0  0  0  0
   23.9138  -20.9124  -14.5038 C   0  0  0  0  0  0  0  0  0  0  0  0
   23.7126  -22.0869  -14.9202 O   0  0  0  0  0  0  0  0  0  0  0  0
   18.8297  -20.3863  -11.4476 N   0  0  0  0  0  0  0  0  0  0  0  0
   19.6502  -20.8884  -12.4964 C   0  0  0  0  0  0  0  0  0  0  0  0
   19.2290  -21.8106  -13.2741 O   0  0  0  0  0  0  0  0  0  0  0  0
   20.9977  -20.3875  -12.7443 C   0  0  0  0  0  0  0  0  0  0  0  0
   21.4379  -20.7019  -14.1530 C   0  0  2  0  0  0  0  0  0  0  0  0
   22.7827  -20.0821  -14.2777 N   0  0  0  0  0  0  0  0  0  0  0  0
   20.5140  -19.9543  -15.0812 C   0  0  0  0  0  0  0  0  0  0  0  0
   20.5540  -18.5605  -15.1100 O   0  0  0  0  0  0  0  0  0  0  0  0
   19.6929  -20.4895  -15.8482 O   0  0  0  0  0  0  0  0  0  0  0  0
  2  3  1  0
  2  1  1  6
  3  4  1  0
  4  8  1  0
  4  5  2  0
  6  2  1  0
  7  6  2  0
  9 10  1  0
 10 12  1  0
 11 10  2  0
 13 12  1  6
 13 14  1  0
 14  6  1  0
 15 13  1  0
 15 22  1  0
 16 15  2  0
 18 17  1  0
 18 19  2  0
 20 18  1  0
 21 20  1  1
 21 22  1  0
 21 23  1  0
 23 24  1  0
 25 23  2  0
M  END
$$$$
