DNN.pdb
     RDKit          3D

 25 24  0  0  1  0  0  0  0  0999 V2000
   17.1040  -10.8020  -13.5084 N   0  0  0  0  0  0  0  0  0  0  0  0
   16.4931   -9.7745  -14.3142 C   0  0  1  0  0  0  0  0  0  0  0  0
   15.0190   -9.9077  -14.3032 C   0  0  0  0  0  0  0  0  0  0  0  0
   14.5791  -11.1781  -14.9051 C   0  0  0  0  0  0  0  0  0  0  0  0
   15.2240  -11.8406  -15.7505 O   0  0  0  0  0  0  0  0  0  0  0  0
   16.9628   -8.4487  -13.8203 C   0  0  0  0  0  0  0  0  0  0  0  0
   16.6478   -7.3700  -14.3845 O   0  0  0  0  0  0  0  0  0  0  0  0
   13.3404  -11.7556  -14.5475 O   0  0  0  0  0  0  0  0  0  0  0  0
   16.0649   -5.9786  -10.6498 N   0  0  0  0  0  0  0  0  0  0  0  0
   17.1448   -6.6348  -10.0254 C   0  0  0  0  0  0  0  0  0  0  0  0
   17.0846   -6.8255   -8.7670 O   0  0  0  0  0  0  0  0  0  0  0  0
   18.3530   -7.1292  -10.6914 C   0  0  0  0  0  0  0  0  0  0  0  0
   18.2863   -7.0598  -12.1945 C   0  0  2  0  0  0  0  0  0  0  0  0
   17.7972   -8.3527  -12.6771 N   0  0  0  0  0  0  0  0  0  0  0  0
   19.7018   -6.9199  -12.6934 C   0  0  0  0  0  0  0  0  0  0  0  0
   20.4490   -7.9232  -12.8619 O   0  0  0  0  0  0  0  0  0  0  0  0
   23.6032   -5.3674  -15.5411 N   0  0  0  0  0  0  0  0  0  0  0  0
   22.3920   -5.9855  -15.9609 C   0  0  0  0  0  0  0  0  0  0  0  0
   22.2588   -6.4240  -17.1537 O   0  0  0  0  0  0  0  0  0  0  0  0
   21.2499   -6.1551  -15.0695 C   0  0  0  0  0  0  0  0  0  0  0  0
   21.5216   -5.5318  -13.7223 C   0  0  2  0  0  0  0  0  0  0  0  0
   20.2332   -5.6355  -12.9892 N   0  0  0  0  0  0  0  0  0  0  0  0
   21.7837   -4.0658  -13.9593 C   0  0  0  0  0  0  0  0  0  0  0  0
   23.0871   -3.5793  -13.8620 O   0  0  0  0  0  0  0  0  0  0  0  0
   20.9107   -3.2254  -14.2431 O   0  0  0  0  0  0  0  0  0  0  0  0
  2  3  1  0
  2  1  1  1
  3  4  1  0
  4  8  1  0
  4  5  2  0
  6  2  1  0
  7  6  2  0
  9 10  1  0
 10 12  1  0
 11 10  2  0
 13 12  1  1
 13 14  1  0
 14  6  1  0
 15 13  1  0
 15 22  1  0
 16 15  2  0
 18 17  1  0
 18 19  2  0
 20 18  1  0
 21 20  1  6
 21 22  1  0
 21 23  1  0
 23 24  1  0
 25 23  2  0
M  END
$$$$
