DNN.pdb
     RDKit          3D

 25 24  0  0  1  0  0  0  0  0999 V2000
   18.6320  -12.0310  -17.2451 N   0  0  0  0  0  0  0  0  0  0  0  0
   18.6530  -11.2757  -16.0173 C   0  0  1  0  0  0  0  0  0  0  0  0
   18.2951  -12.1360  -14.8672 C   0  0  0  0  0  0  0  0  0  0  0  0
   16.8942  -12.5861  -14.9347 C   0  0  0  0  0  0  0  0  0  0  0  0
   16.0442  -12.1866  -15.7638 O   0  0  0  0  0  0  0  0  0  0  0  0
   19.9958  -10.6437  -15.8774 C   0  0  0  0  0  0  0  0  0  0  0  0
   20.3754  -10.0986  -14.8097 O   0  0  0  0  0  0  0  0  0  0  0  0
   16.3990  -13.5440  -14.0220 O   0  0  0  0  0  0  0  0  0  0  0  0
   24.8853   -8.8622  -17.1278 N   0  0  0  0  0  0  0  0  0  0  0  0
   24.3168   -9.6615  -18.1400 C   0  0  0  0  0  0  0  0  0  0  0  0
   25.0171   -9.9059  -19.1760 O   0  0  0  0  0  0  0  0  0  0  0  0
   22.9751  -10.2508  -18.1197 C   0  0  0  0  0  0  0  0  0  0  0  0
   22.1951   -9.9356  -16.8704 C   0  0  2  0  0  0  0  0  0  0  0  0
   20.9106  -10.6323  -16.9616 N   0  0  0  0  0  0  0  0  0  0  0  0
   21.8891   -8.4599  -16.9013 C   0  0  0  0  0  0  0  0  0  0  0  0
   20.7564   -8.0233  -17.2473 O   0  0  0  0  0  0  0  0  0  0  0  0
   21.3448   -4.1024  -13.6136 N   0  0  0  0  0  0  0  0  0  0  0  0
   21.1842   -4.6694  -14.9091 C   0  0  0  0  0  0  0  0  0  0  0  0
   20.6870   -3.9855  -15.8671 O   0  0  0  0  0  0  0  0  0  0  0  0
   21.5731   -6.0413  -15.2167 C   0  0  0  0  0  0  0  0  0  0  0  0
   22.5132   -6.0823  -16.3964 C   0  0  2  0  0  0  0  0  0  0  0  0
   22.8851   -7.5143  -16.5359 N   0  0  0  0  0  0  0  0  0  0  0  0
   23.7594   -5.3346  -15.9937 C   0  0  0  0  0  0  0  0  0  0  0  0
   24.7341   -5.9861  -15.2384 O   0  0  0  0  0  0  0  0  0  0  0  0
   24.0017   -4.1494  -16.2859 O   0  0  0  0  0  0  0  0  0  0  0  0
  2  3  1  0
  2  1  1  6
  3  4  1  0
  4  8  1  0
  4  5  2  0
  6  2  1  0
  7  6  2  0
  9 10  1  0
 10 12  1  0
 11 10  2  0
 13 12  1  6
 13 14  1  0
 14  6  1  0
 15 13  1  0
 15 22  1  0
 16 15  2  0
 18 17  1  0
 18 19  2  0
 20 18  1  0
 21 20  1  1
 21 22  1  0
 21 23  1  0
 23 24  1  0
 25 23  2  0
M  END
$$$$
