DEG.pdb
     RDKit          3D

 22 21  0  0  1  0  0  0  0  0999 V2000
    9.9626  -16.7168   14.9944 N   0  0  0  0  0  0  0  0  0  0  0  0
   10.7634  -17.5372   15.9638 C   0  0  1  0  0  0  0  0  0  0  0  0
   12.1798  -17.2869   15.5580 C   0  0  0  0  0  0  0  0  0  0  0  0
   12.4153  -16.7760   14.2115 C   0  0  0  0  0  0  0  0  0  0  0  0
   11.5895  -16.5704   13.3095 O   0  0  0  0  0  0  0  0  0  0  0  0
   10.3812  -16.9848   17.2766 C   0  0  0  0  0  0  0  0  0  0  0  0
    9.3639  -16.2018   17.3571 O   0  0  0  0  0  0  0  0  0  0  0  0
   13.7535  -16.4573   13.8380 O   0  0  0  0  0  0  0  0  0  0  0  0
   11.0179  -17.2205   18.5105 N   0  0  0  0  0  0  0  0  0  0  0  0
   10.4671  -16.7610   19.7843 C   0  0  1  0  0  0  0  0  0  0  0  0
    9.1790  -17.4351   20.1159 C   0  0  0  0  0  0  0  0  0  0  0  0
    9.0930  -18.8763   19.7565 C   0  0  0  0  0  0  0  0  0  0  0  0
    8.0154  -19.6086   20.4466 C   0  0  0  0  0  0  0  0  0  0  0  0
    7.2185  -19.0473   21.2405 O   0  0  0  0  0  0  0  0  0  0  0  0
   11.4628  -17.2051   20.8252 C   0  0  0  0  0  0  0  0  0  0  0  0
   12.1507  -18.2324   20.7276 O   0  0  0  0  0  0  0  0  0  0  0  0
    7.8255  -20.9693   20.2514 O   0  0  0  0  0  0  0  0  0  0  0  0
   11.5940  -16.3748   21.9693 N   0  0  0  0  0  0  0  0  0  0  0  0
   12.6305  -16.6149   22.9434 C   0  0  0  0  0  0  0  0  0  0  0  0
   12.1166  -16.5574   24.3274 C   0  0  0  0  0  0  0  0  0  0  0  0
   10.9145  -16.3833   24.6338 O   0  0  0  0  0  0  0  0  0  0  0  0
   13.0455  -16.7090   25.3556 O   0  0  0  0  0  0  0  0  0  0  0  0
  2  6  1  0
  2  1  1  6
  2  3  1  0
  3  4  1  0
  4  5  2  0
  4  8  1  0
  6  7  2  0
  9 10  1  0
  9  6  1  0
 10 15  1  0
 10 11  1  1
 12 11  1  0
 13 14  2  0
 13 12  1  0
 15 16  2  0
 15 18  1  0
 17 13  1  0
 18 19  1  0
 20 19  1  0
 20 22  1  0
 21 20  2  0
M  END
$$$$
