DEG.pdb
     RDKit          3D

 22 21  0  0  1  0  0  0  0  0999 V2000
    9.2066  -19.5078   15.9356 N   0  0  0  0  0  0  0  0  0  0  0  0
    9.4584  -20.7704   16.7079 C   0  0  1  0  0  0  0  0  0  0  0  0
   10.4652  -21.5006   15.8792 C   0  0  0  0  0  0  0  0  0  0  0  0
   10.0273  -22.0180   14.5870 C   0  0  0  0  0  0  0  0  0  0  0  0
   10.7136  -22.5222   13.6855 O   0  0  0  0  0  0  0  0  0  0  0  0
    9.9532  -20.2827   18.0087 C   0  0  0  0  0  0  0  0  0  0  0  0
   10.0614  -19.0162   18.2053 O   0  0  0  0  0  0  0  0  0  0  0  0
    8.6377  -21.9576   14.2747 O   0  0  0  0  0  0  0  0  0  0  0  0
   10.3368  -21.0659   19.1145 N   0  0  0  0  0  0  0  0  0  0  0  0
   10.7328  -20.4837   20.3958 C   0  0  1  0  0  0  0  0  0  0  0  0
    9.9816  -21.0769   21.5391 C   0  0  0  0  0  0  0  0  0  0  0  0
    9.6341  -20.1386   22.6402 C   0  0  0  0  0  0  0  0  0  0  0  0
    8.9326  -20.7689   23.7734 C   0  0  0  0  0  0  0  0  0  0  0  0
    9.5439  -21.3165   24.7258 O   0  0  0  0  0  0  0  0  0  0  0  0
   12.1750  -20.8822   20.5785 C   0  0  0  0  0  0  0  0  0  0  0  0
   12.6170  -22.0112   20.3179 O   0  0  0  0  0  0  0  0  0  0  0  0
    7.5469  -20.7887   23.8456 O   0  0  0  0  0  0  0  0  0  0  0  0
   13.0485  -19.8813   21.0795 N   0  0  0  0  0  0  0  0  0  0  0  0
   14.4361  -20.1743   21.3435 C   0  0  0  0  0  0  0  0  0  0  0  0
   15.3344  -19.5523   20.3491 C   0  0  0  0  0  0  0  0  0  0  0  0
   15.2090  -18.3869   19.9071 O   0  0  0  0  0  0  0  0  0  0  0  0
   16.3923  -20.3278   19.8775 O   0  0  0  0  0  0  0  0  0  0  0  0
  2  6  1  0
  2  1  1  6
  2  3  1  0
  3  4  1  0
  4  5  2  0
  4  8  1  0
  6  7  2  0
  9 10  1  0
  9  6  1  0
 10 15  1  0
 10 11  1  1
 12 11  1  0
 13 14  2  0
 13 12  1  0
 15 16  2  0
 15 18  1  0
 17 13  1  0
 18 19  1  0
 20 19  1  0
 20 22  1  0
 21 20  2  0
M  END
$$$$
