DEG.pdb
     RDKit          3D

 22 21  0  0  1  0  0  0  0  0999 V2000
    2.9467  -18.5829   21.6798 N   0  0  0  0  0  0  0  0  0  0  0  0
    4.1019  -19.3464   21.0997 C   0  0  1  0  0  0  0  0  0  0  0  0
    3.8281  -19.3456   19.6305 C   0  0  0  0  0  0  0  0  0  0  0  0
    2.6725  -20.1020   19.1594 C   0  0  0  0  0  0  0  0  0  0  0  0
    1.8439  -20.7392   19.8267 O   0  0  0  0  0  0  0  0  0  0  0  0
    5.2767  -18.5594   21.5183 C   0  0  0  0  0  0  0  0  0  0  0  0
    6.4550  -19.0358   21.3212 O   0  0  0  0  0  0  0  0  0  0  0  0
    2.4223  -20.1429   17.7567 O   0  0  0  0  0  0  0  0  0  0  0  0
    5.2697  -17.2920   22.1322 N   0  0  0  0  0  0  0  0  0  0  0  0
    6.4851  -16.6463   22.6254 C   0  0  1  0  0  0  0  0  0  0  0  0
    6.4783  -15.1751   22.3828 C   0  0  0  0  0  0  0  0  0  0  0  0
    6.5183  -14.7554   20.9560 C   0  0  0  0  0  0  0  0  0  0  0  0
    7.8657  -14.7721   20.3579 C   0  0  0  0  0  0  0  0  0  0  0  0
    8.8981  -15.0323   21.0266 O   0  0  0  0  0  0  0  0  0  0  0  0
    6.4496  -16.8337   24.1206 C   0  0  0  0  0  0  0  0  0  0  0  0
    5.4620  -16.5753   24.8248 O   0  0  0  0  0  0  0  0  0  0  0  0
    8.0631  -14.4986   19.0118 O   0  0  0  0  0  0  0  0  0  0  0  0
    7.6327  -17.3368   24.7228 N   0  0  0  0  0  0  0  0  0  0  0  0
    7.7039  -17.5538   26.1472 C   0  0  0  0  0  0  0  0  0  0  0  0
    8.9745  -18.1914   26.5495 C   0  0  0  0  0  0  0  0  0  0  0  0
    9.8757  -18.5463   25.7550 O   0  0  0  0  0  0  0  0  0  0  0  0
    9.1718  -18.4077   27.9123 O   0  0  0  0  0  0  0  0  0  0  0  0
  2  6  1  0
  2  1  1  1
  2  3  1  0
  3  4  1  0
  4  5  2  0
  4  8  1  0
  6  7  2  0
  9 10  1  0
  9  6  1  0
 10 15  1  0
 10 11  1  1
 12 11  1  0
 13 14  2  0
 13 12  1  0
 15 16  2  0
 15 18  1  0
 17 13  1  0
 18 19  1  0
 20 19  1  0
 20 22  1  0
 21 20  2  0
M  END
$$$$
