DEG.pdb
     RDKit          3D

 22 21  0  0  1  0  0  0  0  0999 V2000
   13.5056  -19.9959   19.9140 N   0  0  0  0  0  0  0  0  0  0  0  0
   13.2081  -18.5680   20.2701 C   0  0  1  0  0  0  0  0  0  0  0  0
   12.3737  -18.0823   19.1292 C   0  0  0  0  0  0  0  0  0  0  0  0
   13.0344  -17.8971   17.8414 C   0  0  0  0  0  0  0  0  0  0  0  0
   14.2491  -17.8912   17.5918 O   0  0  0  0  0  0  0  0  0  0  0  0
   12.5023  -18.6772   21.5602 C   0  0  0  0  0  0  0  0  0  0  0  0
   12.0567  -17.6110   22.1252 O   0  0  0  0  0  0  0  0  0  0  0  0
   12.2185  -17.6928   16.6905 O   0  0  0  0  0  0  0  0  0  0  0  0
   12.2403  -19.8572   22.2830 N   0  0  0  0  0  0  0  0  0  0  0  0
   11.4597  -19.8698   23.5190 C   0  0  1  0  0  0  0  0  0  0  0  0
   10.3649  -20.8814   23.4824 C   0  0  0  0  0  0  0  0  0  0  0  0
    9.8415  -21.2183   22.1311 C   0  0  0  0  0  0  0  0  0  0  0  0
    8.9265  -22.3741   22.1074 C   0  0  0  0  0  0  0  0  0  0  0  0
    8.6462  -23.0346   23.1398 O   0  0  0  0  0  0  0  0  0  0  0  0
   12.4234  -20.3205   24.5868 C   0  0  0  0  0  0  0  0  0  0  0  0
   13.3257  -21.1496   24.3961 O   0  0  0  0  0  0  0  0  0  0  0  0
    8.3225  -22.7946   20.9309 O   0  0  0  0  0  0  0  0  0  0  0  0
   12.2584  -19.7411   25.8724 N   0  0  0  0  0  0  0  0  0  0  0  0
   11.9828  -20.5632   27.0252 C   0  0  0  0  0  0  0  0  0  0  0  0
   11.9123  -19.7700   28.2696 C   0  0  0  0  0  0  0  0  0  0  0  0
   12.1577  -18.5440   28.3472 O   0  0  0  0  0  0  0  0  0  0  0  0
   11.5458  -20.4457   29.4324 O   0  0  0  0  0  0  0  0  0  0  0  0
  2  6  1  0
  2  1  1  6
  2  3  1  0
  3  4  1  0
  4  5  2  0
  4  8  1  0
  6  7  2  0
  9 10  1  0
  9  6  1  0
 10 15  1  0
 10 11  1  6
 12 11  1  0
 13 14  2  0
 13 12  1  0
 15 16  2  0
 15 18  1  0
 17 13  1  0
 18 19  1  0
 20 19  1  0
 20 22  1  0
 21 20  2  0
M  END
$$$$
