DEG.pdb
     RDKit          3D

 22 21  0  0  1  0  0  0  0  0999 V2000
   13.9260  -18.7320   20.2038 N   0  0  0  0  0  0  0  0  0  0  0  0
   13.5139  -17.5006   19.4502 C   0  0  1  0  0  0  0  0  0  0  0  0
   12.1760  -17.8576   18.8877 C   0  0  0  0  0  0  0  0  0  0  0  0
   12.1396  -18.8278   17.7984 C   0  0  0  0  0  0  0  0  0  0  0  0
   13.0830  -19.4509   17.2889 O   0  0  0  0  0  0  0  0  0  0  0  0
   13.4976  -16.4536   20.4886 C   0  0  0  0  0  0  0  0  0  0  0  0
   13.2317  -15.2405   20.1539 O   0  0  0  0  0  0  0  0  0  0  0  0
   10.8768  -19.1318   17.2110 O   0  0  0  0  0  0  0  0  0  0  0  0
   13.7449  -16.6240   21.8645 N   0  0  0  0  0  0  0  0  0  0  0  0
   13.5924  -15.5411   22.8347 C   0  0  1  0  0  0  0  0  0  0  0  0
   12.8628  -15.9811   24.0584 C   0  0  0  0  0  0  0  0  0  0  0  0
   12.4151  -17.3999   24.0685 C   0  0  0  0  0  0  0  0  0  0  0  0
   11.6999  -17.7999   25.2941 C   0  0  0  0  0  0  0  0  0  0  0  0
   11.2784  -18.9699   25.4785 O   0  0  0  0  0  0  0  0  0  0  0  0
   14.9956  -15.2049   23.2708 C   0  0  0  0  0  0  0  0  0  0  0  0
   15.2612  -14.4568   24.2236 O   0  0  0  0  0  0  0  0  0  0  0  0
   11.4541  -16.8942   26.3164 O   0  0  0  0  0  0  0  0  0  0  0  0
   16.0483  -15.7971   22.5246 N   0  0  0  0  0  0  0  0  0  0  0  0
   17.4273  -15.4979   22.8240 C   0  0  0  0  0  0  0  0  0  0  0  0
   18.3580  -16.1966   21.9139 C   0  0  0  0  0  0  0  0  0  0  0  0
   18.0173  -17.0607   21.0733 O   0  0  0  0  0  0  0  0  0  0  0  0
   19.7078  -15.8615   22.0074 O   0  0  0  0  0  0  0  0  0  0  0  0
  2  6  1  0
  2  1  1  1
  2  3  1  0
  3  4  1  0
  4  5  2  0
  4  8  1  0
  6  7  2  0
  9 10  1  0
  9  6  1  0
 10 15  1  0
 10 11  1  1
 12 11  1  0
 13 14  2  0
 13 12  1  0
 15 16  2  0
 15 18  1  0
 17 13  1  0
 18 19  1  0
 20 19  1  0
 20 22  1  0
 21 20  2  0
M  END
$$$$
