DEG.pdb
     RDKit          3D

 22 21  0  0  1  0  0  0  0  0999 V2000
   11.2658  -18.5837   22.2338 N   0  0  0  0  0  0  0  0  0  0  0  0
   10.8244  -17.1784   21.9433 C   0  0  1  0  0  0  0  0  0  0  0  0
   10.3320  -17.2434   20.5337 C   0  0  0  0  0  0  0  0  0  0  0  0
   11.3069  -17.0337   19.4684 C   0  0  0  0  0  0  0  0  0  0  0  0
   12.5313  -16.8630   19.5664 O   0  0  0  0  0  0  0  0  0  0  0  0
    9.7847  -16.9295   22.9590 C   0  0  0  0  0  0  0  0  0  0  0  0
    8.6463  -17.5183   22.8505 O   0  0  0  0  0  0  0  0  0  0  0  0
   10.8381  -17.0145   18.1224 O   0  0  0  0  0  0  0  0  0  0  0  0
    9.8879  -16.0919   24.0864 N   0  0  0  0  0  0  0  0  0  0  0  0
    8.8206  -15.9659   25.0775 C   0  0  1  0  0  0  0  0  0  0  0  0
    9.2766  -16.3433   26.4460 C   0  0  0  0  0  0  0  0  0  0  0  0
   10.1148  -17.5695   26.5325 C   0  0  0  0  0  0  0  0  0  0  0  0
   10.5336  -17.9208   27.9017 C   0  0  0  0  0  0  0  0  0  0  0  0
   10.0615  -18.9085   28.5197 O   0  0  0  0  0  0  0  0  0  0  0  0
    8.5005  -14.4936   25.1239 C   0  0  0  0  0  0  0  0  0  0  0  0
    9.3610  -13.6007   25.1357 O   0  0  0  0  0  0  0  0  0  0  0  0
   11.4808  -17.1699   28.5835 O   0  0  0  0  0  0  0  0  0  0  0  0
    7.1241  -14.1469   25.1547 N   0  0  0  0  0  0  0  0  0  0  0  0
    6.7099  -12.7696   25.2666 C   0  0  0  0  0  0  0  0  0  0  0  0
    6.7366  -12.2929   26.6647 C   0  0  0  0  0  0  0  0  0  0  0  0
    7.1050  -12.9810   27.6445 O   0  0  0  0  0  0  0  0  0  0  0  0
    6.3198  -10.9831   26.8962 O   0  0  0  0  0  0  0  0  0  0  0  0
  2  6  1  0
  2  1  1  1
  2  3  1  0
  3  4  1  0
  4  5  2  0
  4  8  1  0
  6  7  2  0
  9 10  1  0
  9  6  1  0
 10 15  1  0
 10 11  1  1
 12 11  1  0
 13 14  2  0
 13 12  1  0
 15 16  2  0
 15 18  1  0
 17 13  1  0
 18 19  1  0
 20 19  1  0
 20 22  1  0
 21 20  2  0
M  END
$$$$
