HGC.pdb
     RDKit          3D

 21 21  0  0  1  0  0  0  0  0999 V2000
   19.4047  -11.4198  -17.3307 N   0  0  0  0  0  0  0  0  0  0  0  0
   19.1872  -10.2426  -18.1269 C   0  0  1  0  0  0  0  0  0  0  0  0
   18.3936  -10.5665  -19.3784 C   0  0  0  0  0  0  0  0  0  0  0  0
   19.0343  -11.6387  -20.1482 C   0  0  0  0  0  0  0  0  0  0  0  0
   18.6346  -12.9420  -20.2232 C   0  0  0  0  0  0  0  0  0  0  0  0
   19.4829  -13.6029  -21.0288 N   0  0  0  0  0  0  0  0  0  0  0  0
   20.4137  -12.7349  -21.4643 C   0  0  0  0  0  0  0  0  0  0  0  0
   20.1318  -11.5318  -20.9198 N   0  0  0  0  0  0  0  0  0  0  0  0
   18.4836   -9.1749  -17.3836 C   0  0  0  0  0  0  0  0  0  0  0  0
   17.7080   -9.5007  -16.4486 O   0  0  0  0  0  0  0  0  0  0  0  0
   18.6351   -7.7908  -17.6679 N   0  0  0  0  0  0  0  0  0  0  0  0
   17.8617   -6.8010  -16.9234 C   0  0  0  0  0  0  0  0  0  0  0  0
   18.2778   -5.4295  -17.2399 C   0  0  0  0  0  0  0  0  0  0  0  0
   19.2310   -5.2531  -18.0393 O   0  0  0  0  0  0  0  0  0  0  0  0
   17.6448   -4.3161  -16.6782 N   0  0  0  0  0  0  0  0  0  0  0  0
   17.9596   -2.9432  -16.9653 C   0  0  1  0  0  0  0  0  0  0  0  0
   16.9106   -1.9739  -16.4903 C   0  0  0  0  0  0  0  0  0  0  0  0
   15.2359   -2.5376  -16.8955 S   0  0  0  0  0  0  0  0  0  0  0  0
   19.2728   -2.5418  -16.3896 C   0  0  0  0  0  0  0  0  0  0  0  0
   19.8950   -3.2890  -15.6241 O   0  0  0  0  0  0  0  0  0  0  0  0
   19.7982   -1.3010  -16.7271 O   0  0  0  0  0  0  0  0  0  0  0  0
  2  1  1  1
  3  2  1  0
  3  4  1  0
  4  5  2  0
  5  6  1  0
  7  6  1  0
  8  4  1  0
  8  7  2  0
  9  2  1  0
  9 10  2  0
 11  9  1  0
 12 11  1  0
 12 13  1  0
 13 15  1  0
 14 13  2  0
 15 16  1  0
 16 17  1  1
 17 18  1  0
 19 16  1  0
 19 21  1  0
 20 19  2  0
M  END
$$$$
