HGC.pdb
     RDKit          3D

 21 21  0  0  1  0  0  0  0  0999 V2000
   18.8861  -15.0618  -16.8188 N   0  0  0  0  0  0  0  0  0  0  0  0
   17.9660  -14.0005  -16.5121 C   0  0  1  0  0  0  0  0  0  0  0  0
   16.5324  -14.4960  -16.5299 C   0  0  0  0  0  0  0  0  0  0  0  0
   16.1783  -15.0435  -17.8443 C   0  0  0  0  0  0  0  0  0  0  0  0
   16.4319  -16.3055  -18.2992 C   0  0  0  0  0  0  0  0  0  0  0  0
   15.9504  -16.4134  -19.5490 N   0  0  0  0  0  0  0  0  0  0  0  0
   15.3957  -15.2365  -19.8904 C   0  0  0  0  0  0  0  0  0  0  0  0
   15.5394  -14.4009  -18.8394 N   0  0  0  0  0  0  0  0  0  0  0  0
   18.2347  -13.3764  -15.1984 C   0  0  0  0  0  0  0  0  0  0  0  0
   19.0328  -13.9465  -14.4111 O   0  0  0  0  0  0  0  0  0  0  0  0
   17.6376  -12.1595  -14.7716 N   0  0  0  0  0  0  0  0  0  0  0  0
   18.0763  -11.5233  -13.5327 C   0  0  0  0  0  0  0  0  0  0  0  0
   17.4115  -10.2331  -13.3140 C   0  0  0  0  0  0  0  0  0  0  0  0
   16.6540   -9.7808  -14.2086 O   0  0  0  0  0  0  0  0  0  0  0  0
   17.5970   -9.4946  -12.1409 N   0  0  0  0  0  0  0  0  0  0  0  0
   16.9086   -8.2793  -11.8014 C   0  0  1  0  0  0  0  0  0  0  0  0
   17.1600   -7.8201  -10.3902 C   0  0  0  0  0  0  0  0  0  0  0  0
   16.9784   -9.1724   -9.1966 S   0  0  0  0  0  0  0  0  0  0  0  0
   17.2516   -7.1677  -12.7308 C   0  0  0  0  0  0  0  0  0  0  0  0
   18.2538   -7.2208  -13.4550 O   0  0  0  0  0  0  0  0  0  0  0  0
   16.4214   -6.0551  -12.7757 O   0  0  0  0  0  0  0  0  0  0  0  0
  2  1  1  1
  3  2  1  0
  3  4  1  0
  4  5  2  0
  5  6  1  0
  7  6  1  0
  8  4  1  0
  8  7  2  0
  9  2  1  0
  9 10  2  0
 11  9  1  0
 12 11  1  0
 12 13  1  0
 13 15  1  0
 14 13  2  0
 15 16  1  0
 16 17  1  1
 17 18  1  0
 19 16  1  0
 19 21  1  0
 20 19  2  0
M  END
$$$$
