HGC.pdb
     RDKit          3D

 21 21  0  0  1  0  0  0  0  0999 V2000
   18.6207  -11.7160  -17.8800 N   0  0  0  0  0  0  0  0  0  0  0  0
   18.3245  -11.5982  -16.4781 C   0  0  1  0  0  0  0  0  0  0  0  0
   19.2792  -12.4317  -15.6445 C   0  0  0  0  0  0  0  0  0  0  0  0
   19.0644  -13.8655  -15.8697 C   0  0  0  0  0  0  0  0  0  0  0  0
   19.6328  -14.6338  -16.8447 C   0  0  0  0  0  0  0  0  0  0  0  0
   19.1813  -15.8925  -16.7136 N   0  0  0  0  0  0  0  0  0  0  0  0
   18.3350  -15.9305  -15.6688 C   0  0  0  0  0  0  0  0  0  0  0  0
   18.2684  -14.6831  -15.1560 N   0  0  0  0  0  0  0  0  0  0  0  0
   18.3773  -10.1993  -16.0009 C   0  0  0  0  0  0  0  0  0  0  0  0
   17.8668   -9.9224  -14.8853 O   0  0  0  0  0  0  0  0  0  0  0  0
   18.9767   -9.1417  -16.7369 N   0  0  0  0  0  0  0  0  0  0  0  0
   18.9258   -7.7741  -16.2278 C   0  0  0  0  0  0  0  0  0  0  0  0
   20.2091   -7.3561  -15.6508 C   0  0  0  0  0  0  0  0  0  0  0  0
   20.9059   -8.2050  -15.0405 O   0  0  0  0  0  0  0  0  0  0  0  0
   20.6770   -6.0428  -15.7610 N   0  0  0  0  0  0  0  0  0  0  0  0
   21.9280   -5.5560  -15.2468 C   0  0  1  0  0  0  0  0  0  0  0  0
   22.5586   -4.4935  -16.1064 C   0  0  0  0  0  0  0  0  0  0  0  0
   24.0723   -3.8307  -15.3606 S   0  0  0  0  0  0  0  0  0  0  0  0
   21.7918   -5.0274  -13.8615 C   0  0  0  0  0  0  0  0  0  0  0  0
   20.9892   -4.1243  -13.5936 O   0  0  0  0  0  0  0  0  0  0  0  0
   22.5879   -5.5679  -12.8597 O   0  0  0  0  0  0  0  0  0  0  0  0
  2  1  1  6
  3  2  1  0
  3  4  1  0
  4  5  2  0
  5  6  1  0
  7  6  1  0
  8  4  1  0
  8  7  2  0
  9  2  1  0
  9 10  2  0
 11  9  1  0
 12 11  1  0
 12 13  1  0
 13 15  1  0
 14 13  2  0
 15 16  1  0
 16 17  1  6
 17 18  1  0
 19 16  1  0
 19 21  1  0
 20 19  2  0
M  END
$$$$
