HGC.pdb
     RDKit          3D

 21 21  0  0  1  0  0  0  0  0999 V2000
   21.6235  -11.9887  -21.0764 N   0  0  0  0  0  0  0  0  0  0  0  0
   20.8860  -12.4261  -19.9224 C   0  0  1  0  0  0  0  0  0  0  0  0
   20.8932  -13.9387  -19.8085 C   0  0  0  0  0  0  0  0  0  0  0  0
   20.0544  -14.3891  -18.6921 C   0  0  0  0  0  0  0  0  0  0  0  0
   20.4685  -15.0606  -17.5778 C   0  0  0  0  0  0  0  0  0  0  0  0
   19.3998  -15.2904  -16.7964 N   0  0  0  0  0  0  0  0  0  0  0  0
   18.3156  -14.7733  -17.4016 C   0  0  0  0  0  0  0  0  0  0  0  0
   18.7251  -14.2219  -18.5643 N   0  0  0  0  0  0  0  0  0  0  0  0
   21.4087  -11.8542  -18.6626 C   0  0  0  0  0  0  0  0  0  0  0  0
   22.5345  -12.2329  -18.2491 O   0  0  0  0  0  0  0  0  0  0  0  0
   20.7058  -10.8935  -17.8864 N   0  0  0  0  0  0  0  0  0  0  0  0
   21.2916  -10.3785  -16.6520 C   0  0  0  0  0  0  0  0  0  0  0  0
   20.4315   -9.3744  -16.0145 C   0  0  0  0  0  0  0  0  0  0  0  0
   19.4053   -8.9795  -16.6225 O   0  0  0  0  0  0  0  0  0  0  0  0
   20.7211   -8.8461  -14.7524 N   0  0  0  0  0  0  0  0  0  0  0  0
   19.9466   -7.8477  -14.0671 C   0  0  1  0  0  0  0  0  0  0  0  0
   20.2437   -7.7628  -12.5940 C   0  0  0  0  0  0  0  0  0  0  0  0
   19.9773   -9.3491  -11.7579 S   0  0  0  0  0  0  0  0  0  0  0  0
   20.1261   -6.4966  -14.6666 C   0  0  0  0  0  0  0  0  0  0  0  0
   19.3411   -5.5728  -14.4174 O   0  0  0  0  0  0  0  0  0  0  0  0
   21.2004   -6.2828  -15.5207 O   0  0  0  0  0  0  0  0  0  0  0  0
  2  1  1  6
  3  2  1  0
  3  4  1  0
  4  5  2  0
  5  6  1  0
  7  6  1  0
  8  4  1  0
  8  7  2  0
  9  2  1  0
  9 10  2  0
 11  9  1  0
 12 11  1  0
 12 13  1  0
 13 15  1  0
 14 13  2  0
 15 16  1  0
 16 17  1  1
 17 18  1  0
 19 16  1  0
 19 21  1  0
 20 19  2  0
M  END
$$$$
