HGC.pdb
     RDKit          3D

 21 21  0  0  1  0  0  0  0  0999 V2000
   22.9912  -25.3538  -16.0770 N   0  0  0  0  0  0  0  0  0  0  0  0
   21.7601  -25.9899  -15.6938 C   0  0  1  0  0  0  0  0  0  0  0  0
   21.2983  -26.9728  -16.7529 C   0  0  0  0  0  0  0  0  0  0  0  0
   21.1042  -26.3054  -18.0451 C   0  0  0  0  0  0  0  0  0  0  0  0
   21.9771  -26.2871  -19.0947 C   0  0  0  0  0  0  0  0  0  0  0  0
   21.4308  -25.5707  -20.0916 N   0  0  0  0  0  0  0  0  0  0  0  0
   20.2242  -25.1358  -19.6864 C   0  0  0  0  0  0  0  0  0  0  0  0
   20.0307  -25.5906  -18.4298 N   0  0  0  0  0  0  0  0  0  0  0  0
   21.8655  -26.7017  -14.4016 C   0  0  0  0  0  0  0  0  0  0  0  0
   22.9867  -27.1493  -14.0487 O   0  0  0  0  0  0  0  0  0  0  0  0
   20.7634  -26.9104  -13.5290 N   0  0  0  0  0  0  0  0  0  0  0  0
   20.9830  -27.4343  -12.1839 C   0  0  0  0  0  0  0  0  0  0  0  0
   19.7279  -27.5613  -11.4336 C   0  0  0  0  0  0  0  0  0  0  0  0
   18.7551  -26.8312  -11.7492 O   0  0  0  0  0  0  0  0  0  0  0  0
   19.5843  -28.4697  -10.3800 N   0  0  0  0  0  0  0  0  0  0  0  0
   18.3862  -28.6770   -9.6134 C   0  0  1  0  0  0  0  0  0  0  0  0
   17.7617  -30.0296   -9.8280 C   0  0  0  0  0  0  0  0  0  0  0  0
   18.0468  -30.6471  -11.5085 S   0  0  0  0  0  0  0  0  0  0  0  0
   18.6194  -28.4875   -8.1551 C   0  0  0  0  0  0  0  0  0  0  0  0
   19.7629  -28.4841   -7.6816 O   0  0  0  0  0  0  0  0  0  0  0  0
   17.5227  -28.3122   -7.3210 O   0  0  0  0  0  0  0  0  0  0  0  0
  2  1  1  6
  3  2  1  0
  3  4  1  0
  4  5  2  0
  5  6  1  0
  7  6  1  0
  8  4  1  0
  8  7  2  0
  9  2  1  0
  9 10  2  0
 11  9  1  0
 12 11  1  0
 12 13  1  0
 13 15  1  0
 14 13  2  0
 15 16  1  0
 16 17  1  1
 17 18  1  0
 19 16  1  0
 19 21  1  0
 20 19  2  0
M  END
$$$$
