HGC.pdb
     RDKit          3D

 21 21  0  0  1  0  0  0  0  0999 V2000
   25.5806  -19.3686  -16.2265 N   0  0  0  0  0  0  0  0  0  0  0  0
   26.4543  -18.4902  -15.4971 C   0  0  1  0  0  0  0  0  0  0  0  0
   26.5251  -17.1224  -16.1492 C   0  0  0  0  0  0  0  0  0  0  0  0
   27.0010  -17.2204  -17.5336 C   0  0  0  0  0  0  0  0  0  0  0  0
   26.2482  -17.1051  -18.6667 C   0  0  0  0  0  0  0  0  0  0  0  0
   27.0539  -17.2558  -19.7314 N   0  0  0  0  0  0  0  0  0  0  0  0
   28.3060  -17.4648  -19.2868 C   0  0  0  0  0  0  0  0  0  0  0  0
   28.2657  -17.4418  -17.9373 N   0  0  0  0  0  0  0  0  0  0  0  0
   26.0431  -18.3211  -14.0865 C   0  0  0  0  0  0  0  0  0  0  0  0
   24.8213  -18.1730  -13.8274 O   0  0  0  0  0  0  0  0  0  0  0  0
   26.9572  -18.3165  -12.9983 N   0  0  0  0  0  0  0  0  0  0  0  0
   26.4692  -18.1497  -11.6323 C   0  0  0  0  0  0  0  0  0  0  0  0
   26.4472  -19.4211  -10.8992 C   0  0  0  0  0  0  0  0  0  0  0  0
   26.5824  -20.4938  -11.5393 O   0  0  0  0  0  0  0  0  0  0  0  0
   26.2805  -19.4722   -9.5116 N   0  0  0  0  0  0  0  0  0  0  0  0
   26.1277  -20.6704   -8.7323 C   0  0  1  0  0  0  0  0  0  0  0  0
   26.5060  -20.4989   -7.2856 C   0  0  0  0  0  0  0  0  0  0  0  0
   27.8433  -19.2932   -7.0746 S   0  0  0  0  0  0  0  0  0  0  0  0
   24.7395  -21.2045   -8.8002 C   0  0  0  0  0  0  0  0  0  0  0  0
   23.8261  -20.5571   -9.3278 O   0  0  0  0  0  0  0  0  0  0  0  0
   24.4785  -22.4558   -8.2564 O   0  0  0  0  0  0  0  0  0  0  0  0
  2  1  1  6
  3  2  1  0
  3  4  1  0
  4  5  2  0
  5  6  1  0
  7  6  1  0
  8  4  1  0
  8  7  2  0
  9  2  1  0
  9 10  2  0
 11  9  1  0
 12 11  1  0
 12 13  1  0
 13 15  1  0
 14 13  2  0
 15 16  1  0
 16 17  1  1
 17 18  1  0
 19 16  1  0
 19 21  1  0
 20 19  2  0
M  END
$$$$
