HGC.pdb
     RDKit          3D

 21 21  0  0  1  0  0  0  0  0999 V2000
   17.4856  -11.6607  -15.5824 N   0  0  0  0  0  0  0  0  0  0  0  0
   16.7343  -11.4727  -14.3711 C   0  0  1  0  0  0  0  0  0  0  0  0
   16.7042  -12.7428  -13.5423 C   0  0  0  0  0  0  0  0  0  0  0  0
   15.9929  -13.8164  -14.2452 C   0  0  0  0  0  0  0  0  0  0  0  0
   16.5529  -14.8443  -14.9479 C   0  0  0  0  0  0  0  0  0  0  0  0
   15.5663  -15.6125  -15.4395 N   0  0  0  0  0  0  0  0  0  0  0  0
   14.3899  -15.0843  -15.0571 C   0  0  0  0  0  0  0  0  0  0  0  0
   14.6597  -13.9824  -14.3247 N   0  0  0  0  0  0  0  0  0  0  0  0
   17.2673  -10.3749  -13.5355 C   0  0  0  0  0  0  0  0  0  0  0  0
   18.5135  -10.2194  -13.4662 O   0  0  0  0  0  0  0  0  0  0  0  0
   16.4451   -9.4786  -12.8005 N   0  0  0  0  0  0  0  0  0  0  0  0
   17.0423   -8.3497  -12.0926 C   0  0  0  0  0  0  0  0  0  0  0  0
   16.0404   -7.5784  -11.3472 C   0  0  0  0  0  0  0  0  0  0  0  0
   14.8511   -7.5756  -11.7525 O   0  0  0  0  0  0  0  0  0  0  0  0
   16.3713   -6.8482  -10.2012 N   0  0  0  0  0  0  0  0  0  0  0  0
   15.4532   -6.0774   -9.4080 C   0  0  1  0  0  0  0  0  0  0  0  0
   15.5340   -6.3759   -7.9349 C   0  0  0  0  0  0  0  0  0  0  0  0
   15.6412   -8.1564   -7.6107 S   0  0  0  0  0  0  0  0  0  0  0  0
   15.6397   -4.6136   -9.6069 C   0  0  0  0  0  0  0  0  0  0  0  0
   16.6463   -4.1639  -10.1694 O   0  0  0  0  0  0  0  0  0  0  0  0
   14.6565   -3.7469   -9.1471 O   0  0  0  0  0  0  0  0  0  0  0  0
  2  1  1  6
  3  2  1  0
  3  4  1  0
  4  5  2  0
  5  6  1  0
  7  6  1  0
  8  4  1  0
  8  7  2  0
  9  2  1  0
  9 10  2  0
 11  9  1  0
 12 11  1  0
 12 13  1  0
 13 15  1  0
 14 13  2  0
 15 16  1  0
 16 17  1  1
 17 18  1  0
 19 16  1  0
 19 21  1  0
 20 19  2  0
M  END
$$$$
