HGC.pdb
     RDKit          3D

 21 21  0  0  1  0  0  0  0  0999 V2000
   23.7823  -32.7798  -14.9178 N   0  0  0  0  0  0  0  0  0  0  0  0
   23.6870  -33.5665  -13.7182 C   0  0  1  0  0  0  0  0  0  0  0  0
   23.7016  -35.0503  -14.0334 C   0  0  0  0  0  0  0  0  0  0  0  0
   22.4948  -35.4470  -14.7675 C   0  0  0  0  0  0  0  0  0  0  0  0
   22.4011  -35.7128  -16.1034 C   0  0  0  0  0  0  0  0  0  0  0  0
   21.1288  -36.0406  -16.3850 N   0  0  0  0  0  0  0  0  0  0  0  0
   20.4168  -35.9857  -15.2452 C   0  0  0  0  0  0  0  0  0  0  0  0
   21.2616  -35.6208  -14.2570 N   0  0  0  0  0  0  0  0  0  0  0  0
   24.7746  -33.2758  -12.7590 C   0  0  0  0  0  0  0  0  0  0  0  0
   25.8179  -32.7146  -13.1814 O   0  0  0  0  0  0  0  0  0  0  0  0
   24.7075  -33.5970  -11.3763 N   0  0  0  0  0  0  0  0  0  0  0  0
   25.7922  -33.2068  -10.4801 C   0  0  0  0  0  0  0  0  0  0  0  0
   25.5373  -33.6255   -9.0966 C   0  0  0  0  0  0  0  0  0  0  0  0
   24.3984  -34.0613   -8.7939 O   0  0  0  0  0  0  0  0  0  0  0  0
   26.5239  -33.5532   -8.1080 N   0  0  0  0  0  0  0  0  0  0  0  0
   26.3672  -33.9655   -6.7399 C   0  0  1  0  0  0  0  0  0  0  0  0
   27.6563  -33.9732   -5.9629 C   0  0  0  0  0  0  0  0  0  0  0  0
   29.0071  -34.7354   -6.9015 S   0  0  0  0  0  0  0  0  0  0  0  0
   25.3801  -33.1195   -6.0140 C   0  0  0  0  0  0  0  0  0  0  0  0
   24.9717  -32.0535   -6.4920 O   0  0  0  0  0  0  0  0  0  0  0  0
   24.9167  -33.5476   -4.7765 O   0  0  0  0  0  0  0  0  0  0  0  0
  2  1  1  6
  3  2  1  0
  3  4  1  0
  4  5  2  0
  5  6  1  0
  7  6  1  0
  8  4  1  0
  8  7  2  0
  9  2  1  0
  9 10  2  0
 11  9  1  0
 12 11  1  0
 12 13  1  0
 13 15  1  0
 14 13  2  0
 15 16  1  0
 16 17  1  1
 17 18  1  0
 19 16  1  0
 19 21  1  0
 20 19  2  0
M  END
$$$$
