HGC.pdb
     RDKit          3D

 21 21  0  0  1  0  0  0  0  0999 V2000
   19.6684  -10.6320  -18.1293 N   0  0  0  0  0  0  0  0  0  0  0  0
   19.6399  -11.5820  -17.0505 C   0  0  1  0  0  0  0  0  0  0  0  0
   20.6405  -12.6992  -17.2776 C   0  0  0  0  0  0  0  0  0  0  0  0
   20.3304  -13.4463  -18.5017 C   0  0  0  0  0  0  0  0  0  0  0  0
   19.1778  -13.3791  -19.2303 C   0  0  0  0  0  0  0  0  0  0  0  0
   19.2851  -14.2149  -20.2768 N   0  0  0  0  0  0  0  0  0  0  0  0
   20.4902  -14.8098  -20.2198 C   0  0  0  0  0  0  0  0  0  0  0  0
   21.1258  -14.3332  -19.1279 N   0  0  0  0  0  0  0  0  0  0  0  0
   19.9150  -10.9600  -15.7371 C   0  0  0  0  0  0  0  0  0  0  0  0
   19.8617  -11.6783  -14.7060 O   0  0  0  0  0  0  0  0  0  0  0  0
   20.2388   -9.5862  -15.5725 N   0  0  0  0  0  0  0  0  0  0  0  0
   20.5624   -9.0634  -14.2481 C   0  0  0  0  0  0  0  0  0  0  0  0
   20.9277   -7.6425  -14.2940 C   0  0  0  0  0  0  0  0  0  0  0  0
   21.2294   -7.0580  -13.2235 O   0  0  0  0  0  0  0  0  0  0  0  0
   20.9494   -6.9226  -15.4928 N   0  0  0  0  0  0  0  0  0  0  0  0
   21.3086   -5.5374  -15.6287 C   0  0  1  0  0  0  0  0  0  0  0  0
   21.8641   -5.1906  -16.9840 C   0  0  0  0  0  0  0  0  0  0  0  0
   23.0697   -6.4182  -17.5550 S   0  0  0  0  0  0  0  0  0  0  0  0
   20.1603   -4.6343  -15.3408 C   0  0  0  0  0  0  0  0  0  0  0  0
   19.0083   -5.0733  -15.2318 O   0  0  0  0  0  0  0  0  0  0  0  0
   20.4013   -3.2743  -15.1939 O   0  0  0  0  0  0  0  0  0  0  0  0
  2  1  1  6
  3  2  1  0
  3  4  1  0
  4  5  2  0
  5  6  1  0
  7  6  1  0
  8  4  1  0
  8  7  2  0
  9  2  1  0
  9 10  2  0
 11  9  1  0
 12 11  1  0
 12 13  1  0
 13 15  1  0
 14 13  2  0
 15 16  1  0
 16 17  1  6
 17 18  1  0
 19 16  1  0
 19 21  1  0
 20 19  2  0
M  END
$$$$
