HGC.pdb
     RDKit          3D

 21 21  0  0  1  0  0  0  0  0999 V2000
   30.1166  -29.9047  -17.4165 N   0  0  0  0  0  0  0  0  0  0  0  0
   29.2274  -30.1419  -16.3119 C   0  0  1  0  0  0  0  0  0  0  0  0
   28.0466  -29.1902  -16.3450 C   0  0  0  0  0  0  0  0  0  0  0  0
   28.4920  -27.7929  -16.3034 C   0  0  0  0  0  0  0  0  0  0  0  0
   29.6641  -27.3239  -15.7837 C   0  0  0  0  0  0  0  0  0  0  0  0
   29.6960  -25.9896  -15.9387 N   0  0  0  0  0  0  0  0  0  0  0  0
   28.5598  -25.6086  -16.5495 C   0  0  0  0  0  0  0  0  0  0  0  0
   27.8261  -26.7205  -16.7701 N   0  0  0  0  0  0  0  0  0  0  0  0
   28.7162  -31.5294  -16.2806 C   0  0  0  0  0  0  0  0  0  0  0  0
   28.3987  -32.0804  -17.3657 O   0  0  0  0  0  0  0  0  0  0  0  0
   28.5620  -32.2815  -15.0848 N   0  0  0  0  0  0  0  0  0  0  0  0
   28.0552  -33.6498  -15.1401 C   0  0  0  0  0  0  0  0  0  0  0  0
   26.6841  -33.7475  -14.6253 C   0  0  0  0  0  0  0  0  0  0  0  0
   26.1002  -32.7002  -14.2498 O   0  0  0  0  0  0  0  0  0  0  0  0
   26.0108  -34.9704  -14.5412 N   0  0  0  0  0  0  0  0  0  0  0  0
   24.6789  -35.1573  -14.0339 C   0  0  1  0  0  0  0  0  0  0  0  0
   23.8394  -36.0812  -14.8749 C   0  0  0  0  0  0  0  0  0  0  0  0
   23.8593  -35.6081  -16.6248 S   0  0  0  0  0  0  0  0  0  0  0  0
   24.6832  -35.6623  -12.6332 C   0  0  0  0  0  0  0  0  0  0  0  0
   25.7101  -36.1236  -12.1189 O   0  0  0  0  0  0  0  0  0  0  0  0
   23.5042  -35.6087  -11.9007 O   0  0  0  0  0  0  0  0  0  0  0  0
  2  1  1  6
  3  2  1  0
  3  4  1  0
  4  5  2  0
  5  6  1  0
  7  6  1  0
  8  4  1  0
  8  7  2  0
  9  2  1  0
  9 10  2  0
 11  9  1  0
 12 11  1  0
 12 13  1  0
 13 15  1  0
 14 13  2  0
 15 16  1  0
 16 17  1  6
 17 18  1  0
 19 16  1  0
 19 21  1  0
 20 19  2  0
M  END
$$$$
