GQD.pdb
     RDKit          3D

 22 21  0  0  1  0  0  0  0  0999 V2000
    8.1337  -15.3950   14.4139 N   0  0  0  0  0  0  0  0  0  0  0  0
    7.7119  -15.4105   15.7777 C   0  0  0  0  0  0  0  0  0  0  0  0
    8.4888  -14.4041   16.5401 C   0  0  0  0  0  0  0  0  0  0  0  0
    9.3523  -13.6832   15.9682 O   0  0  0  0  0  0  0  0  0  0  0  0
    7.0787  -11.9785   22.2378 N   0  0  0  0  0  0  0  0  0  0  0  0
    7.1979  -13.3670   22.0058 C   0  0  0  0  0  0  0  0  0  0  0  0
    6.6967  -14.1288   22.8656 O   0  0  0  0  0  0  0  0  0  0  0  0
    7.8764  -13.9317   20.8139 C   0  0  0  0  0  0  0  0  0  0  0  0
    8.2811  -12.8133   19.9147 C   0  0  0  0  0  0  0  0  0  0  0  0
    8.9959  -13.2569   18.6581 C   0  0  2  0  0  0  0  0  0  0  0  0
    8.2520  -14.2559   17.9323 N   0  0  0  0  0  0  0  0  0  0  0  0
   10.3610  -13.7915   18.9820 C   0  0  0  0  0  0  0  0  0  0  0  0
   11.2485  -13.0340   19.4574 O   0  0  0  0  0  0  0  0  0  0  0  0
   10.7025  -15.1424   18.7714 N   0  0  0  0  0  0  0  0  0  0  0  0
   12.0272  -15.6988   19.1423 C   0  0  1  0  0  0  0  0  0  0  0  0
   12.9030  -14.4960   19.3691 C   0  0  0  0  0  0  0  0  0  0  0  0
   14.3313  -14.7716   19.3806 C   0  0  0  0  0  0  0  0  0  0  0  0
   15.1453  -14.3150   20.2045 O   0  0  0  0  0  0  0  0  0  0  0  0
   11.8809  -16.5558   20.3251 C   0  0  0  0  0  0  0  0  0  0  0  0
   11.0459  -16.2438   21.2177 O   0  0  0  0  0  0  0  0  0  0  0  0
   14.8831  -15.6160   18.4019 O   0  0  0  0  0  0  0  0  0  0  0  0
   12.6112  -17.6973   20.5200 O   0  0  0  0  0  0  0  0  0  0  0  0
  2  1  1  0
  2  3  1  0
  3 11  1  0
  4  3  2  0
  6  7  2  0
  6  5  1  0
  8  6  1  0
  9  8  1  0
 10 12  1  0
 10  9  1  1
 11 10  1  0
 12 14  1  0
 13 12  2  0
 14 15  1  0
 15 19  1  0
 15 16  1  1
 16 17  1  0
 17 18  2  0
 17 21  1  0
 19 20  2  0
 19 22  1  0
M  END
$$$$
