GQD.pdb
     RDKit          3D

 22 21  0  0  1  0  0  0  0  0999 V2000
   -5.2294  -26.1059   25.1048 N   0  0  0  0  0  0  0  0  0  0  0  0
   -5.0301  -26.6246   26.4199 C   0  0  0  0  0  0  0  0  0  0  0  0
   -4.7941  -25.5005   27.3571 C   0  0  0  0  0  0  0  0  0  0  0  0
   -3.6648  -24.9416   27.4270 O   0  0  0  0  0  0  0  0  0  0  0  0
   -9.0579  -21.8006   30.1951 N   0  0  0  0  0  0  0  0  0  0  0  0
   -8.8923  -22.1957   28.8488 C   0  0  0  0  0  0  0  0  0  0  0  0
   -9.8065  -21.8817   28.0510 O   0  0  0  0  0  0  0  0  0  0  0  0
   -7.7074  -22.9465   28.3671 C   0  0  0  0  0  0  0  0  0  0  0  0
   -6.8189  -23.2410   29.5277 C   0  0  0  0  0  0  0  0  0  0  0  0
   -5.5861  -24.0430   29.1757 C   0  0  2  0  0  0  0  0  0  0  0  0
   -5.8583  -25.0529   28.1836 N   0  0  0  0  0  0  0  0  0  0  0  0
   -5.0051  -24.6915   30.3989 C   0  0  0  0  0  0  0  0  0  0  0  0
   -4.5221  -23.9896   31.3269 O   0  0  0  0  0  0  0  0  0  0  0  0
   -4.9758  -26.0914   30.5584 N   0  0  0  0  0  0  0  0  0  0  0  0
   -4.2796  -26.7520   31.6902 C   0  0  1  0  0  0  0  0  0  0  0  0
   -5.3817  -27.2952   32.5592 C   0  0  0  0  0  0  0  0  0  0  0  0
   -4.9319  -28.0242   33.7350 C   0  0  0  0  0  0  0  0  0  0  0  0
   -3.7688  -28.0256   34.1790 O   0  0  0  0  0  0  0  0  0  0  0  0
   -3.3742  -27.7834   31.1690 C   0  0  0  0  0  0  0  0  0  0  0  0
   -3.3547  -28.0232   29.9308 O   0  0  0  0  0  0  0  0  0  0  0  0
   -5.8486  -28.8040   34.4609 O   0  0  0  0  0  0  0  0  0  0  0  0
   -2.5319  -28.5139   31.9635 O   0  0  0  0  0  0  0  0  0  0  0  0
  2  1  1  0
  2  3  1  0
  3 11  1  0
  4  3  2  0
  6  7  2  0
  6  5  1  0
  8  6  1  0
  9  8  1  0
 10 12  1  0
 10  9  1  1
 11 10  1  0
 12 14  1  0
 13 12  2  0
 14 15  1  0
 15 19  1  0
 15 16  1  1
 16 17  1  0
 17 18  2  0
 17 21  1  0
 19 20  2  0
 19 22  1  0
M  END
$$$$
