GQD.pdb
     RDKit          3D

 22 21  0  0  1  0  0  0  0  0999 V2000
    7.1711  -19.6745   18.3176 N   0  0  0  0  0  0  0  0  0  0  0  0
    6.5926  -18.6052   19.0660 C   0  0  0  0  0  0  0  0  0  0  0  0
    7.5148  -17.4445   19.0511 C   0  0  0  0  0  0  0  0  0  0  0  0
    8.6620  -17.5353   18.5334 O   0  0  0  0  0  0  0  0  0  0  0  0
   10.6523  -12.7897   18.6855 N   0  0  0  0  0  0  0  0  0  0  0  0
    9.2442  -12.7949   18.5701 C   0  0  0  0  0  0  0  0  0  0  0  0
    8.7721  -12.9384   17.4180 O   0  0  0  0  0  0  0  0  0  0  0  0
    8.3377  -12.6406   19.7337 C   0  0  0  0  0  0  0  0  0  0  0  0
    7.3843  -13.7867   19.7573 C   0  0  0  0  0  0  0  0  0  0  0  0
    8.0490  -15.1450   19.7482 C   0  0  2  0  0  0  0  0  0  0  0  0
    7.0935  -16.2180   19.6293 N   0  0  0  0  0  0  0  0  0  0  0  0
    8.8694  -15.3453   20.9896 C   0  0  0  0  0  0  0  0  0  0  0  0
    8.3101  -15.5223   22.1045 O   0  0  0  0  0  0  0  0  0  0  0  0
   10.2784  -15.3438   20.9609 N   0  0  0  0  0  0  0  0  0  0  0  0
   11.1018  -15.7183   22.1372 C   0  0  1  0  0  0  0  0  0  0  0  0
   10.6396  -17.1013   22.5093 C   0  0  0  0  0  0  0  0  0  0  0  0
   11.4016  -17.7364   23.5734 C   0  0  0  0  0  0  0  0  0  0  0  0
   11.7785  -17.1776   24.6202 O   0  0  0  0  0  0  0  0  0  0  0  0
   12.5235  -15.6459   21.7787 C   0  0  0  0  0  0  0  0  0  0  0  0
   13.3911  -16.0557   22.5975 O   0  0  0  0  0  0  0  0  0  0  0  0
   11.7652  -19.0888   23.4548 O   0  0  0  0  0  0  0  0  0  0  0  0
   12.9721  -15.1511   20.5836 O   0  0  0  0  0  0  0  0  0  0  0  0
  2  1  1  0
  2  3  1  0
  3 11  1  0
  4  3  2  0
  6  7  2  0
  6  5  1  0
  8  6  1  0
  9  8  1  0
 10 12  1  0
 10  9  1  1
 11 10  1  0
 12 14  1  0
 13 12  2  0
 14 15  1  0
 15 19  1  0
 15 16  1  6
 16 17  1  0
 17 18  2  0
 17 21  1  0
 19 20  2  0
 19 22  1  0
M  END
$$$$
