GQD.pdb
     RDKit          3D

 22 21  0  0  1  0  0  0  0  0999 V2000
   11.7642  -16.3421   14.0296 N   0  0  0  0  0  0  0  0  0  0  0  0
   10.8135  -16.4593   15.0882 C   0  0  0  0  0  0  0  0  0  0  0  0
   11.2852  -15.6777   16.2562 C   0  0  0  0  0  0  0  0  0  0  0  0
   12.4666  -15.2372   16.3066 O   0  0  0  0  0  0  0  0  0  0  0  0
    6.6135  -12.1578   19.5303 N   0  0  0  0  0  0  0  0  0  0  0  0
    7.4258  -13.2972   19.3356 C   0  0  0  0  0  0  0  0  0  0  0  0
    7.0076  -14.3778   19.8132 O   0  0  0  0  0  0  0  0  0  0  0  0
    8.7167  -13.2540   18.6066 C   0  0  0  0  0  0  0  0  0  0  0  0
    9.6914  -14.1447   19.2992 C   0  0  0  0  0  0  0  0  0  0  0  0
   10.8369  -14.6061   18.4265 C   0  0  2  0  0  0  0  0  0  0  0  0
   10.3891  -15.4260   17.3285 N   0  0  0  0  0  0  0  0  0  0  0  0
   11.8494  -15.3660   19.2337 C   0  0  0  0  0  0  0  0  0  0  0  0
   11.7444  -16.6127   19.3816 O   0  0  0  0  0  0  0  0  0  0  0  0
   12.9434  -14.7269   19.8507 N   0  0  0  0  0  0  0  0  0  0  0  0
   14.0009  -15.4747   20.5748 C   0  0  1  0  0  0  0  0  0  0  0  0
   15.2163  -14.5895   20.5083 C   0  0  0  0  0  0  0  0  0  0  0  0
   15.7773  -14.4183   19.1771 C   0  0  0  0  0  0  0  0  0  0  0  0
   15.8159  -15.2955   18.2945 O   0  0  0  0  0  0  0  0  0  0  0  0
   13.5479  -15.7560   21.9425 C   0  0  0  0  0  0  0  0  0  0  0  0
   14.2803  -16.4383   22.7104 O   0  0  0  0  0  0  0  0  0  0  0  0
   16.3325  -13.1798   18.8120 O   0  0  0  0  0  0  0  0  0  0  0  0
   12.3542  -15.3118   22.4443 O   0  0  0  0  0  0  0  0  0  0  0  0
  2  1  1  0
  2  3  1  0
  3 11  1  0
  4  3  2  0
  6  7  2  0
  6  5  1  0
  8  6  1  0
  9  8  1  0
 10 12  1  0
 10  9  1  1
 11 10  1  0
 12 14  1  0
 13 12  2  0
 14 15  1  0
 15 19  1  0
 15 16  1  1
 16 17  1  0
 17 18  2  0
 17 21  1  0
 19 20  2  0
 19 22  1  0
M  END
$$$$
