GQD.pdb
     RDKit          3D

 22 21  0  0  1  0  0  0  0  0999 V2000
   15.0668  -14.3356   18.4505 N   0  0  0  0  0  0  0  0  0  0  0  0
   13.8432  -15.0587   18.3155 C   0  0  0  0  0  0  0  0  0  0  0  0
   12.9979  -14.8141   19.5086 C   0  0  0  0  0  0  0  0  0  0  0  0
   13.4912  -14.3274   20.5632 O   0  0  0  0  0  0  0  0  0  0  0  0
    7.2645  -11.8210   19.1062 N   0  0  0  0  0  0  0  0  0  0  0  0
    7.9444  -13.0384   18.8785 C   0  0  0  0  0  0  0  0  0  0  0  0
    7.3008  -13.9459   18.3014 O   0  0  0  0  0  0  0  0  0  0  0  0
    9.3513  -13.2670   19.2887 C   0  0  0  0  0  0  0  0  0  0  0  0
    9.3980  -14.4264   20.2249 C   0  0  0  0  0  0  0  0  0  0  0  0
   10.7961  -14.8565   20.6083 C   0  0  2  0  0  0  0  0  0  0  0  0
   11.6157  -15.1347   19.4554 N   0  0  0  0  0  0  0  0  0  0  0  0
   10.7569  -16.0680   21.4944 C   0  0  0  0  0  0  0  0  0  0  0  0
   10.9829  -17.2138   21.0218 O   0  0  0  0  0  0  0  0  0  0  0  0
   10.4701  -15.9764   22.8711 N   0  0  0  0  0  0  0  0  0  0  0  0
   10.9145  -16.9997   23.8495 C   0  0  1  0  0  0  0  0  0  0  0  0
   12.4161  -17.0050   23.7498 C   0  0  0  0  0  0  0  0  0  0  0  0
   13.0151  -18.3214   23.5935 C   0  0  0  0  0  0  0  0  0  0  0  0
   12.5246  -19.2620   22.9417 O   0  0  0  0  0  0  0  0  0  0  0  0
   10.4112  -16.6485   25.1831 C   0  0  0  0  0  0  0  0  0  0  0  0
   10.4618  -17.5028   26.1098 O   0  0  0  0  0  0  0  0  0  0  0  0
   14.2468  -18.6012   24.2099 O   0  0  0  0  0  0  0  0  0  0  0  0
    9.8806  -15.4235   25.4866 O   0  0  0  0  0  0  0  0  0  0  0  0
  2  1  1  0
  2  3  1  0
  3 11  1  0
  4  3  2  0
  6  7  2  0
  6  5  1  0
  8  6  1  0
  9  8  1  0
 10 12  1  0
 10  9  1  6
 11 10  1  0
 12 14  1  0
 13 12  2  0
 14 15  1  0
 15 19  1  0
 15 16  1  1
 16 17  1  0
 17 18  2  0
 17 21  1  0
 19 20  2  0
 19 22  1  0
M  END
$$$$
