GQD.pdb
     RDKit          3D

 22 21  0  0  1  0  0  0  0  0999 V2000
    7.8465  -19.5033   20.9065 N   0  0  0  0  0  0  0  0  0  0  0  0
    8.4482  -18.3966   21.5782 C   0  0  0  0  0  0  0  0  0  0  0  0
    9.2836  -17.6379   20.6168 C   0  0  0  0  0  0  0  0  0  0  0  0
    9.5865  -18.1283   19.4942 O   0  0  0  0  0  0  0  0  0  0  0  0
    9.2300  -11.8996   18.8412 N   0  0  0  0  0  0  0  0  0  0  0  0
    8.3320  -12.9901   18.8615 C   0  0  0  0  0  0  0  0  0  0  0  0
    7.1371  -12.7438   18.5745 O   0  0  0  0  0  0  0  0  0  0  0  0
    8.7477  -14.3727   19.2011 C   0  0  0  0  0  0  0  0  0  0  0  0
   10.1848  -14.3601   19.5982 C   0  0  0  0  0  0  0  0  0  0  0  0
   10.6972  -15.6874   20.1105 C   0  0  2  0  0  0  0  0  0  0  0  0
    9.7451  -16.3429   20.9719 N   0  0  0  0  0  0  0  0  0  0  0  0
   11.9937  -15.5100   20.8466 C   0  0  0  0  0  0  0  0  0  0  0  0
   12.0082  -15.0244   22.0090 O   0  0  0  0  0  0  0  0  0  0  0  0
   13.2306  -15.8736   20.2774 N   0  0  0  0  0  0  0  0  0  0  0  0
   14.5243  -15.6525   20.9696 C   0  0  1  0  0  0  0  0  0  0  0  0
   15.2345  -16.9774   20.8963 C   0  0  0  0  0  0  0  0  0  0  0  0
   14.7187  -17.9995   21.7937 C   0  0  0  0  0  0  0  0  0  0  0  0
   14.4888  -17.8418   23.0071 O   0  0  0  0  0  0  0  0  0  0  0  0
   15.2467  -14.5567   20.3121 C   0  0  0  0  0  0  0  0  0  0  0  0
   14.8055  -14.0854   19.2284 O   0  0  0  0  0  0  0  0  0  0  0  0
   14.4427  -19.2847   21.2964 O   0  0  0  0  0  0  0  0  0  0  0  0
   16.3933  -14.0042   20.8165 O   0  0  0  0  0  0  0  0  0  0  0  0
  2  1  1  0
  2  3  1  0
  3 11  1  0
  4  3  2  0
  6  7  2  0
  6  5  1  0
  8  6  1  0
  9  8  1  0
 10 12  1  0
 10  9  1  1
 11 10  1  0
 12 14  1  0
 13 12  2  0
 14 15  1  0
 15 19  1  0
 15 16  1  6
 16 17  1  0
 17 18  2  0
 17 21  1  0
 19 20  2  0
 19 22  1  0
M  END
$$$$
