GQD.pdb
     RDKit          3D

 22 21  0  0  1  0  0  0  0  0999 V2000
    7.9636  -13.2360   19.0828 N   0  0  0  0  0  0  0  0  0  0  0  0
    7.2336  -13.9071   20.1099 C   0  0  0  0  0  0  0  0  0  0  0  0
    7.9982  -13.8360   21.3779 C   0  0  0  0  0  0  0  0  0  0  0  0
    9.2113  -13.4885   21.3842 O   0  0  0  0  0  0  0  0  0  0  0  0
    5.5829  -10.8242   26.5750 N   0  0  0  0  0  0  0  0  0  0  0  0
    6.0733  -12.1039   26.2318 C   0  0  0  0  0  0  0  0  0  0  0  0
    5.7423  -13.0549   26.9780 O   0  0  0  0  0  0  0  0  0  0  0  0
    6.9400  -12.3476   25.0532 C   0  0  0  0  0  0  0  0  0  0  0  0
    7.3142  -13.7905   25.0201 C   0  0  0  0  0  0  0  0  0  0  0  0
    8.1280  -14.1914   23.8102 C   0  0  2  0  0  0  0  0  0  0  0  0
    7.3493  -14.1652   22.5972 N   0  0  0  0  0  0  0  0  0  0  0  0
    8.7166  -15.5604   23.9936 C   0  0  0  0  0  0  0  0  0  0  0  0
    8.0323  -16.5892   23.7479 O   0  0  0  0  0  0  0  0  0  0  0  0
   10.0393  -15.7498   24.4415 N   0  0  0  0  0  0  0  0  0  0  0  0
   10.6295  -17.0963   24.6428 C   0  0  1  0  0  0  0  0  0  0  0  0
   12.0982  -16.9212   24.3654 C   0  0  0  0  0  0  0  0  0  0  0  0
   12.4329  -16.6703   22.9721 C   0  0  0  0  0  0  0  0  0  0  0  0
   11.7299  -16.9883   21.9950 O   0  0  0  0  0  0  0  0  0  0  0  0
   10.3354  -17.5576   26.0051 C   0  0  0  0  0  0  0  0  0  0  0  0
    9.8843  -16.7397   26.8529 O   0  0  0  0  0  0  0  0  0  0  0  0
   13.6372  -16.0194   22.6540 O   0  0  0  0  0  0  0  0  0  0  0  0
   10.5245  -18.8493   26.4175 O   0  0  0  0  0  0  0  0  0  0  0  0
  2  1  1  0
  2  3  1  0
  3 11  1  0
  4  3  2  0
  6  7  2  0
  6  5  1  0
  8  6  1  0
  9  8  1  0
 10 12  1  0
 10  9  1  1
 11 10  1  0
 12 14  1  0
 13 12  2  0
 14 15  1  0
 15 19  1  0
 15 16  1  1
 16 17  1  0
 17 18  2  0
 17 21  1  0
 19 20  2  0
 19 22  1  0
M  END
$$$$
