QFK.pdb
     RDKit          3D

 30 30  0  0  1  0  0  0  0  0999 V2000
   13.2468  -16.4904    4.5748 N   0  0  0  0  0  0  0  0  0  0  0  0
   12.4658  -17.5159    3.9560 C   0  0  0  0  0  0  0  0  0  0  0  0
   11.2607  -17.2683    3.7209 O   0  0  0  0  0  0  0  0  0  0  0  0
   13.0336  -18.8274    3.5955 C   0  0  0  0  0  0  0  0  0  0  0  0
   14.4832  -18.9849    3.9520 C   0  0  0  0  0  0  0  0  0  0  0  0
   15.4371  -18.6011    2.8503 C   0  0  2  0  0  0  0  0  0  0  0  0
   16.0475  -19.8336    2.3790 N   0  0  0  0  0  0  0  0  0  0  0  0
   16.4706  -17.7220    3.4940 C   0  0  0  0  0  0  0  0  0  0  0  0
   17.5160  -18.2766    3.9186 O   0  0  0  0  0  0  0  0  0  0  0  0
   16.2670  -16.3002    3.6172 N   0  0  0  0  0  0  0  0  0  0  0  0
   17.2848  -15.5489    4.2744 C   0  0  1  0  0  0  0  0  0  0  0  0
   17.2686  -14.0868    3.9613 C   0  0  0  0  0  0  0  0  0  0  0  0
   18.2405  -13.2797    4.6776 C   0  0  0  0  0  0  0  0  0  0  0  0
   17.9975  -12.6293    5.8628 C   0  0  0  0  0  0  0  0  0  0  0  0
   18.9778  -11.8935    6.4596 C   0  0  0  0  0  0  0  0  0  0  0  0
   20.2466  -11.7575    5.9253 C   0  0  0  0  0  0  0  0  0  0  0  0
   20.5046  -12.4062    4.7340 C   0  0  0  0  0  0  0  0  0  0  0  0
   19.5149  -13.1577    4.1174 C   0  0  0  0  0  0  0  0  0  0  0  0
   17.0140  -15.6621    5.7558 C   0  0  0  0  0  0  0  0  0  0  0  0
   15.8295  -15.6847    6.1888 O   0  0  0  0  0  0  0  0  0  0  0  0
   18.0603  -15.7459    6.7030 N   0  0  0  0  0  0  0  0  0  0  0  0
   17.8144  -15.8980    8.1347 C   0  0  1  0  0  0  0  0  0  0  0  0
   17.3855  -17.2883    8.4624 C   0  0  0  0  0  0  0  0  0  0  0  0
   18.5459  -18.0888    8.9705 C   0  0  0  0  0  0  0  0  0  0  0  0
   18.1757  -19.5110    9.3515 C   0  0  0  0  0  0  0  0  0  0  0  0
   19.3985  -20.2447    9.8373 C   0  0  0  0  0  0  0  0  0  0  0  0
   18.9028  -21.5600   10.2927 N   0  0  0  0  0  0  0  0  0  0  0  0
   19.0289  -15.4365    8.8326 C   0  0  0  0  0  0  0  0  0  0  0  0
   20.1211  -15.3012    8.1665 O   0  0  0  0  0  0  0  0  0  0  0  0
   19.1283  -15.1178   10.1752 O   0  0  0  0  0  0  0  0  0  0  0  0
  1  2  1  0
  2  4  1  0
  3  2  2  0
  4  5  1  0
  6  5  1  0
  6  7  1  1
  8  6  1  0
  8  9  2  0
 10  8  1  0
 11 10  1  0
 11 12  1  6
 13 12  1  0
 13 18  2  0
 14 13  1  0
 15 14  2  0
 15 16  1  0
 16 17  2  0
 17 18  1  0
 19 11  1  0
 20 19  2  0
 21 19  1  0
 22 28  1  0
 22 21  1  0
 22 23  1  6
 24 25  1  0
 24 23  1  0
 26 25  1  0
 26 27  1  0
 28 30  1  0
 29 28  2  0
M  END
$$$$
