QFK.pdb
     RDKit          3D

 30 30  0  0  1  0  0  0  0  0999 V2000
   27.3938  -16.4738  -14.3228 N   0  0  0  0  0  0  0  0  0  0  0  0
   28.0939  -16.8778  -15.5023 C   0  0  0  0  0  0  0  0  0  0  0  0
   28.8058  -16.0233  -16.0784 O   0  0  0  0  0  0  0  0  0  0  0  0
   28.0004  -18.2459  -16.0427 C   0  0  0  0  0  0  0  0  0  0  0  0
   27.1747  -19.1788  -15.2054 C   0  0  0  0  0  0  0  0  0  0  0  0
   27.8994  -19.7456  -14.0119 C   0  0  2  0  0  0  0  0  0  0  0  0
   28.9249  -20.6361  -14.5309 N   0  0  0  0  0  0  0  0  0  0  0  0
   26.8720  -20.5272  -13.2445 C   0  0  0  0  0  0  0  0  0  0  0  0
   26.4950  -21.6216  -13.7352 O   0  0  0  0  0  0  0  0  0  0  0  0
   26.3429  -20.0374  -11.9962 N   0  0  0  0  0  0  0  0  0  0  0  0
   25.3844  -20.8539  -11.3276 C   0  0  1  0  0  0  0  0  0  0  0  0
   25.2374  -20.5599   -9.8688 C   0  0  0  0  0  0  0  0  0  0  0  0
   26.4733  -20.5250   -9.1069 C   0  0  0  0  0  0  0  0  0  0  0  0
   26.7604  -19.6125   -8.1213 C   0  0  0  0  0  0  0  0  0  0  0  0
   27.9522  -19.6619   -7.4611 C   0  0  0  0  0  0  0  0  0  0  0  0
   28.9237  -20.6086   -7.7333 C   0  0  0  0  0  0  0  0  0  0  0  0
   28.6481  -21.5322   -8.7220 C   0  0  0  0  0  0  0  0  0  0  0  0
   27.4387  -21.4917   -9.4005 C   0  0  0  0  0  0  0  0  0  0  0  0
   24.0451  -20.5446  -11.9532 C   0  0  0  0  0  0  0  0  0  0  0  0
   23.7431  -19.3598  -12.2631 O   0  0  0  0  0  0  0  0  0  0  0  0
   23.0901  -21.5543  -12.2130 N   0  0  0  0  0  0  0  0  0  0  0  0
   21.8772  -21.3083  -12.9887 C   0  0  1  0  0  0  0  0  0  0  0  0
   21.4764  -22.5204  -13.7597 C   0  0  0  0  0  0  0  0  0  0  0  0
   20.1586  -22.2986  -14.4375 C   0  0  0  0  0  0  0  0  0  0  0  0
   19.5878  -23.5549  -15.0704 C   0  0  0  0  0  0  0  0  0  0  0  0
   18.3265  -23.2203  -15.8233 C   0  0  0  0  0  0  0  0  0  0  0  0
   17.8930  -24.4939  -16.4340 N   0  0  0  0  0  0  0  0  0  0  0  0
   20.8603  -20.7990  -12.0498 C   0  0  0  0  0  0  0  0  0  0  0  0
   20.8493  -21.2367  -10.8401 O   0  0  0  0  0  0  0  0  0  0  0  0
   19.8803  -19.8649  -12.3345 O   0  0  0  0  0  0  0  0  0  0  0  0
  1  2  1  0
  2  4  1  0
  3  2  2  0
  4  5  1  0
  6  5  1  0
  6  7  1  6
  8  6  1  0
  8  9  2  0
 10  8  1  0
 11 10  1  0
 11 12  1  1
 13 12  1  0
 13 18  2  0
 14 13  1  0
 15 14  2  0
 15 16  1  0
 16 17  2  0
 17 18  1  0
 19 11  1  0
 20 19  2  0
 21 19  1  0
 22 28  1  0
 22 21  1  0
 22 23  1  1
 24 25  1  0
 24 23  1  0
 26 25  1  0
 26 27  1  0
 28 30  1  0
 29 28  2  0
M  END
$$$$
