QFK.pdb
     RDKit          3D

 30 30  0  0  1  0  0  0  0  0999 V2000
   26.5970  -22.1191  -11.2931 N   0  0  0  0  0  0  0  0  0  0  0  0
   26.4241  -22.1156  -12.7125 C   0  0  0  0  0  0  0  0  0  0  0  0
   26.3116  -23.2224  -13.2882 O   0  0  0  0  0  0  0  0  0  0  0  0
   26.3752  -20.8681  -13.4958 C   0  0  0  0  0  0  0  0  0  0  0  0
   24.9894  -20.3287  -13.7006 C   0  0  0  0  0  0  0  0  0  0  0  0
   24.1028  -21.2047  -14.5477 C   0  0  2  0  0  0  0  0  0  0  0  0
   24.5479  -21.0433  -15.9225 N   0  0  0  0  0  0  0  0  0  0  0  0
   22.7135  -20.6586  -14.3835 C   0  0  0  0  0  0  0  0  0  0  0  0
   22.5590  -19.4201  -14.5350 O   0  0  0  0  0  0  0  0  0  0  0  0
   21.6057  -21.5242  -14.0650 N   0  0  0  0  0  0  0  0  0  0  0  0
   20.3041  -20.9428  -14.0548 C   0  0  1  0  0  0  0  0  0  0  0  0
   19.8151  -20.5068  -15.3991 C   0  0  0  0  0  0  0  0  0  0  0  0
   18.4605  -19.9845  -15.4362 C   0  0  0  0  0  0  0  0  0  0  0  0
   18.0748  -18.7702  -14.9228 C   0  0  0  0  0  0  0  0  0  0  0  0
   16.7752  -18.3671  -15.0065 C   0  0  0  0  0  0  0  0  0  0  0  0
   15.7869  -19.1337  -15.5978 C   0  0  0  0  0  0  0  0  0  0  0  0
   16.1608  -20.3568  -16.1181 C   0  0  0  0  0  0  0  0  0  0  0  0
   17.4804  -20.7775  -16.0388 C   0  0  0  0  0  0  0  0  0  0  0  0
   19.3543  -22.0230  -13.5948 C   0  0  0  0  0  0  0  0  0  0  0  0
   19.4305  -23.1873  -14.0739 O   0  0  0  0  0  0  0  0  0  0  0  0
   18.3565  -21.7775  -12.6236 N   0  0  0  0  0  0  0  0  0  0  0  0
   17.5224  -22.8397  -12.0675 C   0  0  1  0  0  0  0  0  0  0  0  0
   17.4843  -22.7701  -10.5782 C   0  0  0  0  0  0  0  0  0  0  0  0
   17.6119  -24.1407   -9.9859 C   0  0  0  0  0  0  0  0  0  0  0  0
   17.3420  -24.1788   -8.4924 C   0  0  0  0  0  0  0  0  0  0  0  0
   17.4725  -25.5914   -7.9853 C   0  0  0  0  0  0  0  0  0  0  0  0
   17.2117  -25.5051   -6.5335 N   0  0  0  0  0  0  0  0  0  0  0  0
   16.2090  -22.7498  -12.7322 C   0  0  0  0  0  0  0  0  0  0  0  0
   15.6531  -21.5976  -12.8680 O   0  0  0  0  0  0  0  0  0  0  0  0
   15.4806  -23.8065  -13.2487 O   0  0  0  0  0  0  0  0  0  0  0  0
  1  2  1  0
  2  4  1  0
  3  2  2  0
  4  5  1  0
  6  5  1  0
  6  7  1  6
  8  6  1  0
  8  9  2  0
 10  8  1  0
 11 10  1  0
 11 12  1  6
 13 12  1  0
 13 18  2  0
 14 13  1  0
 15 14  2  0
 15 16  1  0
 16 17  2  0
 17 18  1  0
 19 11  1  0
 20 19  2  0
 21 19  1  0
 22 28  1  0
 22 21  1  0
 22 23  1  1
 24 25  1  0
 24 23  1  0
 26 25  1  0
 26 27  1  0
 28 30  1  0
 29 28  2  0
M  END
$$$$
