QFK.pdb
     RDKit          3D

 30 30  0  0  1  0  0  0  0  0999 V2000
   27.9066  -20.2336  -19.8761 N   0  0  0  0  0  0  0  0  0  0  0  0
   26.7276  -21.0158  -20.0830 C   0  0  0  0  0  0  0  0  0  0  0  0
   26.4513  -21.3532  -21.2572 O   0  0  0  0  0  0  0  0  0  0  0  0
   25.8506  -21.4257  -18.9716 C   0  0  0  0  0  0  0  0  0  0  0  0
   26.2496  -20.8628  -17.6385 C   0  0  0  0  0  0  0  0  0  0  0  0
   27.0083  -21.8254  -16.7617 C   0  0  2  0  0  0  0  0  0  0  0  0
   27.0360  -23.0974  -17.4654 N   0  0  0  0  0  0  0  0  0  0  0  0
   26.2045  -21.9470  -15.4990 C   0  0  0  0  0  0  0  0  0  0  0  0
   25.4609  -22.9541  -15.3835 O   0  0  0  0  0  0  0  0  0  0  0  0
   26.2864  -20.9464  -14.4646 N   0  0  0  0  0  0  0  0  0  0  0  0
   25.4758  -21.1353  -13.3072 C   0  0  1  0  0  0  0  0  0  0  0  0
   25.8635  -20.2851  -12.1397 C   0  0  0  0  0  0  0  0  0  0  0  0
   25.0194  -20.4084  -10.9644 C   0  0  0  0  0  0  0  0  0  0  0  0
   23.7808  -19.8311  -10.8254 C   0  0  0  0  0  0  0  0  0  0  0  0
   23.0629  -20.0056   -9.6797 C   0  0  0  0  0  0  0  0  0  0  0  0
   23.5223  -20.7549   -8.6113 C   0  0  0  0  0  0  0  0  0  0  0  0
   24.7662  -21.3409   -8.7376 C   0  0  0  0  0  0  0  0  0  0  0  0
   25.5058  -21.1703   -9.8988 C   0  0  0  0  0  0  0  0  0  0  0  0
   24.0775  -20.7102  -13.6876 C   0  0  0  0  0  0  0  0  0  0  0  0
   23.8894  -19.6565  -14.3549 O   0  0  0  0  0  0  0  0  0  0  0  0
   22.9400  -21.4639  -13.3174 N   0  0  0  0  0  0  0  0  0  0  0  0
   21.5843  -21.0829  -13.7049 C   0  0  1  0  0  0  0  0  0  0  0  0
   21.0532  -21.9878  -14.7649 C   0  0  0  0  0  0  0  0  0  0  0  0
   19.6519  -21.6021  -15.1296 C   0  0  0  0  0  0  0  0  0  0  0  0
   19.0722  -22.4359  -16.2581 C   0  0  0  0  0  0  0  0  0  0  0  0
   17.6624  -21.9917  -16.5497 C   0  0  0  0  0  0  0  0  0  0  0  0
   17.2219  -22.8288  -17.6847 N   0  0  0  0  0  0  0  0  0  0  0  0
   20.7815  -21.0278  -12.4689 C   0  0  0  0  0  0  0  0  0  0  0  0
   20.8956  -21.9742  -11.6050 O   0  0  0  0  0  0  0  0  0  0  0  0
   19.8867  -20.0322  -12.1196 O   0  0  0  0  0  0  0  0  0  0  0  0
  1  2  1  0
  2  4  1  0
  3  2  2  0
  4  5  1  0
  6  5  1  0
  6  7  1  6
  8  6  1  0
  8  9  2  0
 10  8  1  0
 11 10  1  0
 11 12  1  1
 13 12  1  0
 13 18  2  0
 14 13  1  0
 15 14  2  0
 15 16  1  0
 16 17  2  0
 17 18  1  0
 19 11  1  0
 20 19  2  0
 21 19  1  0
 22 28  1  0
 22 21  1  0
 22 23  1  6
 24 25  1  0
 24 23  1  0
 26 25  1  0
 26 27  1  0
 28 30  1  0
 29 28  2  0
M  END
$$$$
