QFK.pdb
     RDKit          3D

 30 30  0  0  1  0  0  0  0  0999 V2000
   19.6546  -19.5644  -13.4869 N   0  0  0  0  0  0  0  0  0  0  0  0
   19.3234  -20.9222  -13.1848 C   0  0  0  0  0  0  0  0  0  0  0  0
   18.2634  -21.3841  -13.6665 O   0  0  0  0  0  0  0  0  0  0  0  0
   20.1816  -21.7719  -12.3399 C   0  0  0  0  0  0  0  0  0  0  0  0
   21.4550  -21.1095  -11.9008 C   0  0  0  0  0  0  0  0  0  0  0  0
   22.5199  -21.0476  -12.9653 C   0  0  2  0  0  0  0  0  0  0  0  0
   22.8284  -22.4217  -13.3270 N   0  0  0  0  0  0  0  0  0  0  0  0
   23.7094  -20.4016  -12.3150 C   0  0  0  0  0  0  0  0  0  0  0  0
   23.5701  -19.2234  -11.8988 O   0  0  0  0  0  0  0  0  0  0  0  0
   24.9580  -21.1086  -12.1761 N   0  0  0  0  0  0  0  0  0  0  0  0
   26.0745  -20.3722  -11.6826 C   0  0  1  0  0  0  0  0  0  0  0  0
   26.7940  -21.0323  -10.5500 C   0  0  0  0  0  0  0  0  0  0  0  0
   26.3591  -20.6469   -9.2191 C   0  0  0  0  0  0  0  0  0  0  0  0
   25.3051  -21.2135   -8.5447 C   0  0  0  0  0  0  0  0  0  0  0  0
   24.9733  -20.7814   -7.2950 C   0  0  0  0  0  0  0  0  0  0  0  0
   25.6576  -19.7717   -6.6422 C   0  0  0  0  0  0  0  0  0  0  0  0
   26.7196  -19.1932   -7.3088 C   0  0  0  0  0  0  0  0  0  0  0  0
   27.0664  -19.6247   -8.5808 C   0  0  0  0  0  0  0  0  0  0  0  0
   27.0684  -20.2873  -12.8163 C   0  0  0  0  0  0  0  0  0  0  0  0
   28.0765  -21.0450  -12.8403 O   0  0  0  0  0  0  0  0  0  0  0  0
   26.9124  -19.3695  -13.8804 N   0  0  0  0  0  0  0  0  0  0  0  0
   27.5262  -19.5725  -15.1902 C   0  0  1  0  0  0  0  0  0  0  0  0
   27.3084  -20.9656  -15.6764 C   0  0  0  0  0  0  0  0  0  0  0  0
   27.9817  -21.1703  -16.9993 C   0  0  0  0  0  0  0  0  0  0  0  0
   27.6915  -22.5254  -17.6194 C   0  0  0  0  0  0  0  0  0  0  0  0
   28.3623  -22.6261  -18.9646 C   0  0  0  0  0  0  0  0  0  0  0  0
   27.5092  -21.8408  -19.8802 N   0  0  0  0  0  0  0  0  0  0  0  0
   27.0117  -18.5124  -16.0770 C   0  0  0  0  0  0  0  0  0  0  0  0
   25.7654  -18.1983  -16.0204 O   0  0  0  0  0  0  0  0  0  0  0  0
   27.7484  -17.7876  -16.9967 O   0  0  0  0  0  0  0  0  0  0  0  0
  1  2  1  0
  2  4  1  0
  3  2  2  0
  4  5  1  0
  6  5  1  0
  6  7  1  1
  8  6  1  0
  8  9  2  0
 10  8  1  0
 11 10  1  0
 11 12  1  1
 13 12  1  0
 13 18  2  0
 14 13  1  0
 15 14  2  0
 15 16  1  0
 16 17  2  0
 17 18  1  0
 19 11  1  0
 20 19  2  0
 21 19  1  0
 22 28  1  0
 22 21  1  0
 22 23  1  6
 24 25  1  0
 24 23  1  0
 26 25  1  0
 26 27  1  0
 28 30  1  0
 29 28  2  0
M  END
$$$$
