QFK.pdb
     RDKit          3D

 30 30  0  0  1  0  0  0  0  0999 V2000
   25.5867  -28.7561  -18.1320 N   0  0  0  0  0  0  0  0  0  0  0  0
   25.8635  -27.8055  -19.1637 C   0  0  0  0  0  0  0  0  0  0  0  0
   25.8193  -28.2045  -20.3502 O   0  0  0  0  0  0  0  0  0  0  0  0
   26.1910  -26.3988  -18.8699 C   0  0  0  0  0  0  0  0  0  0  0  0
   26.2217  -26.0714  -17.4053 C   0  0  0  0  0  0  0  0  0  0  0  0
   27.5184  -25.4658  -16.9332 C   0  0  2  0  0  0  0  0  0  0  0  0
   28.1190  -26.4253  -16.0207 N   0  0  0  0  0  0  0  0  0  0  0  0
   27.1388  -24.2140  -16.1955 C   0  0  0  0  0  0  0  0  0  0  0  0
   26.7798  -24.3373  -14.9969 O   0  0  0  0  0  0  0  0  0  0  0  0
   27.1862  -22.9257  -16.8406 N   0  0  0  0  0  0  0  0  0  0  0  0
   26.9507  -21.7787  -16.0275 C   0  0  1  0  0  0  0  0  0  0  0  0
   27.6468  -20.5405  -16.4949 C   0  0  0  0  0  0  0  0  0  0  0  0
   27.4020  -19.3459  -15.7061 C   0  0  0  0  0  0  0  0  0  0  0  0
   27.8880  -19.1302  -14.4396 C   0  0  0  0  0  0  0  0  0  0  0  0
   27.6018  -17.9727  -13.7787 C   0  0  0  0  0  0  0  0  0  0  0  0
   26.8246  -16.9672  -14.3254 C   0  0  0  0  0  0  0  0  0  0  0  0
   26.3295  -17.1710  -15.5982 C   0  0  0  0  0  0  0  0  0  0  0  0
   26.6141  -18.3449  -16.2804 C   0  0  0  0  0  0  0  0  0  0  0  0
   25.4719  -21.4853  -16.1158 C   0  0  0  0  0  0  0  0  0  0  0  0
   24.8730  -21.5494  -17.2240 O   0  0  0  0  0  0  0  0  0  0  0  0
   24.7103  -21.1324  -14.9781 N   0  0  0  0  0  0  0  0  0  0  0  0
   23.2662  -20.9211  -15.0335 C   0  0  1  0  0  0  0  0  0  0  0  0
   22.6383  -21.1422  -13.6988 C   0  0  0  0  0  0  0  0  0  0  0  0
   21.1527  -20.9655  -13.7825 C   0  0  0  0  0  0  0  0  0  0  0  0
   20.3778  -22.2404  -13.5018 C   0  0  0  0  0  0  0  0  0  0  0  0
   18.9018  -21.9889  -13.6695 C   0  0  0  0  0  0  0  0  0  0  0  0
   18.2483  -23.2538  -13.2746 N   0  0  0  0  0  0  0  0  0  0  0  0
   23.0477  -19.5831  -15.6141 C   0  0  0  0  0  0  0  0  0  0  0  0
   23.6872  -18.5777  -15.1293 O   0  0  0  0  0  0  0  0  0  0  0  0
   22.2011  -19.2766  -16.6644 O   0  0  0  0  0  0  0  0  0  0  0  0
  1  2  1  0
  2  4  1  0
  3  2  2  0
  4  5  1  0
  6  5  1  0
  6  7  1  1
  8  6  1  0
  8  9  2  0
 10  8  1  0
 11 10  1  0
 11 12  1  6
 13 12  1  0
 13 18  2  0
 14 13  1  0
 15 14  2  0
 15 16  1  0
 16 17  2  0
 17 18  1  0
 19 11  1  0
 20 19  2  0
 21 19  1  0
 22 28  1  0
 22 21  1  0
 22 23  1  1
 24 25  1  0
 24 23  1  0
 26 25  1  0
 26 27  1  0
 28 30  1  0
 29 28  2  0
M  END
$$$$
