QFK.pdb
     RDKit          3D

 30 30  0  0  1  0  0  0  0  0999 V2000
   28.6277  -26.2910  -16.3755 N   0  0  0  0  0  0  0  0  0  0  0  0
   29.5700  -25.3661  -16.9244 C   0  0  0  0  0  0  0  0  0  0  0  0
   30.5078  -25.8299  -17.6131 O   0  0  0  0  0  0  0  0  0  0  0  0
   29.4649  -23.9125  -16.7044 C   0  0  0  0  0  0  0  0  0  0  0  0
   28.3160  -23.5085  -15.8268 C   0  0  0  0  0  0  0  0  0  0  0  0
   27.1946  -22.8139  -16.5554 C   0  0  2  0  0  0  0  0  0  0  0  0
   27.7136  -21.5273  -16.9902 N   0  0  0  0  0  0  0  0  0  0  0  0
   26.1069  -22.6191  -15.5384 C   0  0  0  0  0  0  0  0  0  0  0  0
   25.6135  -23.6510  -15.0167 O   0  0  0  0  0  0  0  0  0  0  0  0
   25.6509  -21.2996  -15.1789 N   0  0  0  0  0  0  0  0  0  0  0  0
   24.5406  -21.2119  -14.2891 C   0  0  1  0  0  0  0  0  0  0  0  0
   24.5603  -20.0112  -13.3980 C   0  0  0  0  0  0  0  0  0  0  0  0
   23.4078  -19.8548  -12.5283 C   0  0  0  0  0  0  0  0  0  0  0  0
   23.2328  -20.5106  -11.3341 C   0  0  0  0  0  0  0  0  0  0  0  0
   22.1129  -20.2962  -10.5869 C   0  0  0  0  0  0  0  0  0  0  0  0
   21.1070  -19.4279  -10.9719 C   0  0  0  0  0  0  0  0  0  0  0  0
   21.2701  -18.7619  -12.1705 C   0  0  0  0  0  0  0  0  0  0  0  0
   22.4055  -18.9721  -12.9393 C   0  0  0  0  0  0  0  0  0  0  0  0
   23.3087  -21.0721  -15.1514 C   0  0  0  0  0  0  0  0  0  0  0  0
   23.3095  -20.2957  -16.1455 O   0  0  0  0  0  0  0  0  0  0  0  0
   22.1229  -21.7942  -14.8841 N   0  0  0  0  0  0  0  0  0  0  0  0
   20.9442  -21.7158  -15.7431 C   0  0  1  0  0  0  0  0  0  0  0  0
   20.3433  -23.0640  -15.9567 C   0  0  0  0  0  0  0  0  0  0  0  0
   19.1394  -22.9668  -16.8436 C   0  0  0  0  0  0  0  0  0  0  0  0
   18.4227  -24.2916  -17.0333 C   0  0  0  0  0  0  0  0  0  0  0  0
   17.2123  -24.0972  -17.9091 C   0  0  0  0  0  0  0  0  0  0  0  0
   16.5791  -25.4295  -17.9924 N   0  0  0  0  0  0  0  0  0  0  0  0
   20.0405  -20.7151  -15.1456 C   0  0  0  0  0  0  0  0  0  0  0  0
   19.5813  -20.9141  -13.9605 O   0  0  0  0  0  0  0  0  0  0  0  0
   19.6169  -19.5392  -15.7388 O   0  0  0  0  0  0  0  0  0  0  0  0
  1  2  1  0
  2  4  1  0
  3  2  2  0
  4  5  1  0
  6  5  1  0
  6  7  1  1
  8  6  1  0
  8  9  2  0
 10  8  1  0
 11 10  1  0
 11 12  1  1
 13 12  1  0
 13 18  2  0
 14 13  1  0
 15 14  2  0
 15 16  1  0
 16 17  2  0
 17 18  1  0
 19 11  1  0
 20 19  2  0
 21 19  1  0
 22 28  1  0
 22 21  1  0
 22 23  1  1
 24 25  1  0
 24 23  1  0
 26 25  1  0
 26 27  1  0
 28 30  1  0
 29 28  2  0
M  END
$$$$
