QFK.pdb
     RDKit          3D

 30 30  0  0  1  0  0  0  0  0999 V2000
   25.9782  -23.8271  -19.9807 N   0  0  0  0  0  0  0  0  0  0  0  0
   26.1111  -22.4194  -19.7677 C   0  0  0  0  0  0  0  0  0  0  0  0
   26.6866  -21.7479  -20.6547 O   0  0  0  0  0  0  0  0  0  0  0  0
   25.5969  -21.7552  -18.5566 C   0  0  0  0  0  0  0  0  0  0  0  0
   26.6454  -21.0272  -17.7667 C   0  0  0  0  0  0  0  0  0  0  0  0
   27.5372  -21.9238  -16.9471 C   0  0  2  0  0  0  0  0  0  0  0  0
   27.4441  -23.2518  -17.5317 N   0  0  0  0  0  0  0  0  0  0  0  0
   26.9547  -21.9229  -15.5629 C   0  0  0  0  0  0  0  0  0  0  0  0
   26.0774  -22.7860  -15.3059 O   0  0  0  0  0  0  0  0  0  0  0  0
   27.3878  -20.9686  -14.5730 N   0  0  0  0  0  0  0  0  0  0  0  0
   26.8499  -21.1002  -13.2594 C   0  0  1  0  0  0  0  0  0  0  0  0
   27.5757  -20.3121  -12.2162 C   0  0  0  0  0  0  0  0  0  0  0  0
   27.0362  -20.4031  -10.8709 C   0  0  0  0  0  0  0  0  0  0  0  0
   26.0251  -19.6151  -10.3774 C   0  0  0  0  0  0  0  0  0  0  0  0
   25.5866  -19.7772   -9.0968 C   0  0  0  0  0  0  0  0  0  0  0  0
   26.1166  -20.7200   -8.2342 C   0  0  0  0  0  0  0  0  0  0  0  0
   27.1339  -21.5190   -8.7175 C   0  0  0  0  0  0  0  0  0  0  0  0
   27.5883  -21.3632  -10.0189 C   0  0  0  0  0  0  0  0  0  0  0  0
   25.4496  -20.5369  -13.3097 C   0  0  0  0  0  0  0  0  0  0  0  0
   25.2192  -19.4505  -13.9077 O   0  0  0  0  0  0  0  0  0  0  0  0
   24.3569  -21.1937  -12.6985 N   0  0  0  0  0  0  0  0  0  0  0  0
   22.9901  -20.6847  -12.7764 C   0  0  1  0  0  0  0  0  0  0  0  0
   22.1666  -21.4960  -13.7186 C   0  0  0  0  0  0  0  0  0  0  0  0
   20.7766  -20.9435  -13.8092 C   0  0  0  0  0  0  0  0  0  0  0  0
   19.8871  -21.7063  -14.7744 C   0  0  0  0  0  0  0  0  0  0  0  0
   18.5592  -21.0072  -14.9072 C   0  0  0  0  0  0  0  0  0  0  0  0
   17.8152  -21.7828  -15.9211 N   0  0  0  0  0  0  0  0  0  0  0  0
   22.4761  -20.6154  -11.3958 C   0  0  0  0  0  0  0  0  0  0  0  0
   21.4171  -19.9256  -11.1555 O   0  0  0  0  0  0  0  0  0  0  0  0
   23.0249  -21.2354  -10.2875 O   0  0  0  0  0  0  0  0  0  0  0  0
  1  2  1  0
  2  4  1  0
  3  2  2  0
  4  5  1  0
  6  5  1  0
  6  7  1  6
  8  6  1  0
  8  9  2  0
 10  8  1  0
 11 10  1  0
 11 12  1  1
 13 12  1  0
 13 18  2  0
 14 13  1  0
 15 14  2  0
 15 16  1  0
 16 17  2  0
 17 18  1  0
 19 11  1  0
 20 19  2  0
 21 19  1  0
 22 28  1  0
 22 21  1  0
 22 23  1  6
 24 25  1  0
 24 23  1  0
 26 25  1  0
 26 27  1  0
 28 30  1  0
 29 28  2  0
M  END
$$$$
