EIR.pdb
     RDKit          3D

 29 28  0  0  1  0  0  0  0  0999 V2000
   24.9880  -19.6334  -16.2148 N   0  0  0  0  0  0  0  0  0  0  0  0
   23.6409  -20.2183  -16.3379 C   0  0  1  0  0  0  0  0  0  0  0  0
   23.8691  -21.6311  -16.8021 C   0  0  0  0  0  0  0  0  0  0  0  0
   22.8702  -22.1512  -17.7771 C   0  0  0  0  0  0  0  0  0  0  0  0
   22.8562  -21.4264  -19.0645 C   0  0  0  0  0  0  0  0  0  0  0  0
   23.8761  -21.1348  -19.7268 O   0  0  0  0  0  0  0  0  0  0  0  0
   22.9800  -20.2409  -15.0178 C   0  0  0  0  0  0  0  0  0  0  0  0
   23.6559  -20.4315  -13.9789 O   0  0  0  0  0  0  0  0  0  0  0  0
   21.6200  -21.0263  -19.6019 O   0  0  0  0  0  0  0  0  0  0  0  0
   19.1294  -16.8228  -12.3373 C   0  0  0  0  0  0  0  0  0  0  0  0
   19.6088  -18.2822  -12.1958 C   0  0  0  0  0  0  0  0  0  0  0  0
   20.3389  -18.6435  -13.4346 C   0  0  2  0  0  0  0  0  0  0  0  0
   19.3876  -18.4088  -14.6188 C   0  0  0  0  0  0  0  0  0  0  0  0
   20.9615  -19.9947  -13.4990 C   0  0  2  0  0  0  0  0  0  0  0  0
   21.5813  -20.0538  -14.8475 N   0  0  0  0  0  0  0  0  0  0  0  0
   20.0700  -21.1412  -13.3436 C   0  0  0  0  0  0  0  0  0  0  0  0
   19.3633  -21.5196  -14.3481 O   0  0  0  0  0  0  0  0  0  0  0  0
   17.9251  -28.2943  -11.3243 N   0  0  0  0  0  0  0  0  0  0  0  0
   19.2931  -28.2027  -10.9169 C   0  0  0  0  0  0  0  0  0  0  0  0
   20.1431  -29.0981  -11.2657 N   0  0  0  0  0  0  0  0  0  0  0  0
   19.7078  -27.1124  -10.1225 N   0  0  0  0  0  0  0  0  0  0  0  0
   18.8199  -26.0437   -9.7297 C   0  0  0  0  0  0  0  0  0  0  0  0
   18.4566  -25.1396  -10.9082 C   0  0  0  0  0  0  0  0  0  0  0  0
   19.4062  -23.9838  -11.0161 C   0  0  0  0  0  0  0  0  0  0  0  0
   18.9967  -23.0605  -12.1083 C   0  0  2  0  0  0  0  0  0  0  0  0
   19.8925  -21.9044  -12.1873 N   0  0  0  0  0  0  0  0  0  0  0  0
   17.6424  -22.5390  -11.9410 C   0  0  0  0  0  0  0  0  0  0  0  0
   17.4182  -21.5325  -11.2353 O   0  0  0  0  0  0  0  0  0  0  0  0
   16.5481  -23.1248  -12.5483 O   0  0  0  0  0  0  0  0  0  0  0  0
  2  1  1  1
  2  3  1  0
  4  5  1  0
  4  3  1  0
  5  6  2  0
  7  2  1  0
  7  8  2  0
  9  5  1  0
 11 10  1  0
 12 11  1  0
 12 14  1  0
 12 13  1  6
 14 15  1  6
 15  7  1  0
 16 26  1  0
 16 14  1  0
 17 16  2  0
 18 19  1  0
 19 20  2  0
 21 19  1  0
 21 22  1  0
 22 23  1  0
 23 24  1  0
 25 24  1  1
 25 26  1  0
 25 27  1  0
 27 29  1  0
 28 27  2  0
M  END
$$$$
