EIR.pdb
     RDKit          3D

 29 28  0  0  1  0  0  0  0  0999 V2000
   28.8189  -20.7469  -15.3609 N   0  0  0  0  0  0  0  0  0  0  0  0
   27.9777  -19.8336  -14.5669 C   0  0  1  0  0  0  0  0  0  0  0  0
   27.1893  -19.0485  -15.5797 C   0  0  0  0  0  0  0  0  0  0  0  0
   27.9823  -18.0959  -16.4059 C   0  0  0  0  0  0  0  0  0  0  0  0
   28.7109  -18.7338  -17.5218 C   0  0  0  0  0  0  0  0  0  0  0  0
   28.1950  -19.5100  -18.3556 O   0  0  0  0  0  0  0  0  0  0  0  0
   27.0481  -20.6114  -13.7237 C   0  0  0  0  0  0  0  0  0  0  0  0
   26.6627  -21.7460  -14.0935 O   0  0  0  0  0  0  0  0  0  0  0  0
   30.0820  -18.4635  -17.6763 O   0  0  0  0  0  0  0  0  0  0  0  0
   27.0512  -19.7714   -8.2952 C   0  0  0  0  0  0  0  0  0  0  0  0
   27.0546  -20.6216   -9.5824 C   0  0  0  0  0  0  0  0  0  0  0  0
   25.7647  -20.3983  -10.2786 C   0  0  2  0  0  0  0  0  0  0  0  0
   24.6451  -20.8998   -9.3528 C   0  0  0  0  0  0  0  0  0  0  0  0
   25.6188  -20.9502  -11.6540 C   0  0  2  0  0  0  0  0  0  0  0  0
   26.5482  -20.1381  -12.4802 N   0  0  0  0  0  0  0  0  0  0  0  0
   24.2877  -20.8904  -12.2522 C   0  0  0  0  0  0  0  0  0  0  0  0
   23.8363  -19.7554  -12.6519 O   0  0  0  0  0  0  0  0  0  0  0  0
   19.7466  -27.2387  -15.9804 N   0  0  0  0  0  0  0  0  0  0  0  0
   20.9979  -26.5653  -16.1441 C   0  0  0  0  0  0  0  0  0  0  0  0
   21.9689  -27.1270  -16.7667 N   0  0  0  0  0  0  0  0  0  0  0  0
   21.1612  -25.2680  -15.6129 N   0  0  0  0  0  0  0  0  0  0  0  0
   20.0758  -24.5153  -15.0296 C   0  0  0  0  0  0  0  0  0  0  0  0
   20.5269  -23.1320  -14.5594 C   0  0  0  0  0  0  0  0  0  0  0  0
   21.8082  -23.2153  -13.7844 C   0  0  0  0  0  0  0  0  0  0  0  0
   22.1950  -21.8806  -13.2533 C   0  0  2  0  0  0  0  0  0  0  0  0
   23.4174  -21.9648  -12.4508 N   0  0  0  0  0  0  0  0  0  0  0  0
   21.1685  -21.2818  -12.4038 C   0  0  0  0  0  0  0  0  0  0  0  0
   21.1689  -21.4557  -11.1664 O   0  0  0  0  0  0  0  0  0  0  0  0
   20.1527  -20.4986  -12.9179 O   0  0  0  0  0  0  0  0  0  0  0  0
  2  1  1  6
  2  3  1  0
  4  5  1  0
  4  3  1  0
  5  6  2  0
  7  2  1  0
  7  8  2  0
  9  5  1  0
 11 10  1  0
 12 11  1  0
 12 14  1  0
 12 13  1  1
 14 15  1  6
 15  7  1  0
 16 26  1  0
 16 14  1  0
 17 16  2  0
 18 19  1  0
 19 20  2  0
 21 19  1  0
 21 22  1  0
 22 23  1  0
 23 24  1  0
 25 24  1  1
 25 26  1  0
 25 27  1  0
 27 29  1  0
 28 27  2  0
M  END
$$$$
