EIR.pdb
     RDKit          3D

 29 28  0  0  1  0  0  0  0  0999 V2000
   20.0589  -21.0131  -14.7741 N   0  0  0  0  0  0  0  0  0  0  0  0
   20.7638  -19.7207  -14.7055 C   0  0  1  0  0  0  0  0  0  0  0  0
   21.4877  -19.7398  -13.3867 C   0  0  0  0  0  0  0  0  0  0  0  0
   20.9466  -20.6909  -12.3759 C   0  0  0  0  0  0  0  0  0  0  0  0
   19.7866  -20.1696  -11.6238 C   0  0  0  0  0  0  0  0  0  0  0  0
   19.2197  -19.0798  -11.8577 O   0  0  0  0  0  0  0  0  0  0  0  0
   21.7500  -19.6270  -15.8003 C   0  0  0  0  0  0  0  0  0  0  0  0
   22.1425  -20.6652  -16.3841 O   0  0  0  0  0  0  0  0  0  0  0  0
   19.2666  -20.9364  -10.5661 O   0  0  0  0  0  0  0  0  0  0  0  0
   21.2728  -15.4995  -19.1663 C   0  0  0  0  0  0  0  0  0  0  0  0
   21.5395  -16.9745  -18.8016 C   0  0  0  0  0  0  0  0  0  0  0  0
   22.8393  -17.0397  -18.0912 C   0  0  2  0  0  0  0  0  0  0  0  0
   23.9304  -16.5971  -19.0789 C   0  0  0  0  0  0  0  0  0  0  0  0
   23.1982  -18.3230  -17.4263 C   0  0  2  0  0  0  0  0  0  0  0  0
   22.2983  -18.3940  -16.2467 N   0  0  0  0  0  0  0  0  0  0  0  0
   24.5783  -18.4678  -16.9708 C   0  0  0  0  0  0  0  0  0  0  0  0
   25.0348  -17.6420  -16.0984 O   0  0  0  0  0  0  0  0  0  0  0  0
   29.6665  -25.1904  -15.7404 N   0  0  0  0  0  0  0  0  0  0  0  0
   28.3903  -24.6926  -16.1517 C   0  0  0  0  0  0  0  0  0  0  0  0
   27.4292  -25.4973  -16.4251 N   0  0  0  0  0  0  0  0  0  0  0  0
   28.1909  -23.2994  -16.2562 N   0  0  0  0  0  0  0  0  0  0  0  0
   29.2181  -22.3331  -15.9464 C   0  0  0  0  0  0  0  0  0  0  0  0
   28.7402  -20.8982  -16.1719 C   0  0  0  0  0  0  0  0  0  0  0  0
   27.3461  -20.8729  -16.7242 C   0  0  0  0  0  0  0  0  0  0  0  0
   26.8906  -19.4750  -16.9519 C   0  0  2  0  0  0  0  0  0  0  0  0
   25.4925  -19.4386  -17.3867 N   0  0  0  0  0  0  0  0  0  0  0  0
   27.6714  -18.7759  -17.9695 C   0  0  0  0  0  0  0  0  0  0  0  0
   28.8063  -18.3190  -17.7150 O   0  0  0  0  0  0  0  0  0  0  0  0
   27.2017  -18.5847  -19.2549 O   0  0  0  0  0  0  0  0  0  0  0  0
  2  1  1  6
  2  3  1  0
  4  5  1  0
  4  3  1  0
  5  6  2  0
  7  2  1  0
  7  8  2  0
  9  5  1  0
 11 10  1  0
 12 11  1  0
 12 14  1  0
 12 13  1  6
 14 15  1  1
 15  7  1  0
 16 26  1  0
 16 14  1  0
 17 16  2  0
 18 19  1  0
 19 20  2  0
 21 19  1  0
 21 22  1  0
 22 23  1  0
 23 24  1  0
 25 24  1  6
 25 26  1  0
 25 27  1  0
 27 29  1  0
 28 27  2  0
M  END
$$$$
