EIR.pdb
     RDKit          3D

 29 28  0  0  1  0  0  0  0  0999 V2000
   27.6998  -18.3696  -18.4774 N   0  0  0  0  0  0  0  0  0  0  0  0
   26.9818  -19.1875  -17.4837 C   0  0  1  0  0  0  0  0  0  0  0  0
   27.9566  -19.3737  -16.3529 C   0  0  0  0  0  0  0  0  0  0  0  0
   29.0341  -20.3727  -16.5979 C   0  0  0  0  0  0  0  0  0  0  0  0
   28.5649  -21.7736  -16.5909 C   0  0  0  0  0  0  0  0  0  0  0  0
   27.3823  -22.1258  -16.3877 O   0  0  0  0  0  0  0  0  0  0  0  0
   25.7985  -18.4551  -16.9901 C   0  0  0  0  0  0  0  0  0  0  0  0
   25.6862  -17.2244  -17.2033 O   0  0  0  0  0  0  0  0  0  0  0  0
   29.4965  -22.8000  -16.8271 O   0  0  0  0  0  0  0  0  0  0  0  0
   22.7768  -16.5317  -19.2408 C   0  0  0  0  0  0  0  0  0  0  0  0
   23.5232  -16.7561  -17.9095 C   0  0  0  0  0  0  0  0  0  0  0  0
   22.9367  -17.9501  -17.2547 C   0  0  2  0  0  0  0  0  0  0  0  0
   21.4162  -17.7383  -17.1803 C   0  0  0  0  0  0  0  0  0  0  0  0
   23.4928  -18.3554  -15.9340 C   0  0  2  0  0  0  0  0  0  0  0  0
   24.7467  -19.0791  -16.2658 N   0  0  0  0  0  0  0  0  0  0  0  0
   22.6593  -19.2207  -15.1035 C   0  0  0  0  0  0  0  0  0  0  0  0
   22.0387  -20.2015  -15.6553 O   0  0  0  0  0  0  0  0  0  0  0  0
   21.6235  -20.8975   -6.3044 N   0  0  0  0  0  0  0  0  0  0  0  0
   20.8006  -21.8294   -7.0118 C   0  0  0  0  0  0  0  0  0  0  0  0
   20.0937  -22.6929   -6.3787 N   0  0  0  0  0  0  0  0  0  0  0  0
   20.7691  -21.7944   -8.4222 N   0  0  0  0  0  0  0  0  0  0  0  0
   21.4658  -20.7965   -9.1993 C   0  0  0  0  0  0  0  0  0  0  0  0
   21.1941  -20.9453  -10.6967 C   0  0  0  0  0  0  0  0  0  0  0  0
   21.9571  -19.9257  -11.4888 C   0  0  0  0  0  0  0  0  0  0  0  0
   21.6615  -20.0521  -12.9414 C   0  0  2  0  0  0  0  0  0  0  0  0
   22.4540  -19.1033  -13.7269 N   0  0  0  0  0  0  0  0  0  0  0  0
   20.2585  -19.8054  -13.2648 C   0  0  0  0  0  0  0  0  0  0  0  0
   19.8292  -18.6457  -13.4441 O   0  0  0  0  0  0  0  0  0  0  0  0
   19.3406  -20.8308  -13.3890 O   0  0  0  0  0  0  0  0  0  0  0  0
  2  1  1  6
  2  3  1  0
  4  5  1  0
  4  3  1  0
  5  6  2  0
  7  2  1  0
  7  8  2  0
  9  5  1  0
 11 10  1  0
 12 11  1  0
 12 14  1  0
 12 13  1  1
 14 15  1  6
 15  7  1  0
 16 26  1  0
 16 14  1  0
 17 16  2  0
 18 19  1  0
 19 20  2  0
 21 19  1  0
 21 22  1  0
 22 23  1  0
 23 24  1  0
 25 24  1  1
 25 26  1  0
 25 27  1  0
 27 29  1  0
 28 27  2  0
M  END
$$$$
