EIR.pdb
     RDKit          3D

 29 28  0  0  1  0  0  0  0  0999 V2000
   27.7134  -21.7300  -15.5476 N   0  0  0  0  0  0  0  0  0  0  0  0
   26.5749  -20.8513  -15.2258 C   0  0  1  0  0  0  0  0  0  0  0  0
   25.8519  -20.6545  -16.5305 C   0  0  0  0  0  0  0  0  0  0  0  0
   26.5998  -19.8859  -17.5644 C   0  0  0  0  0  0  0  0  0  0  0  0
   26.6027  -18.4256  -17.3395 C   0  0  0  0  0  0  0  0  0  0  0  0
   25.7656  -17.8126  -16.6415 O   0  0  0  0  0  0  0  0  0  0  0  0
   25.6752  -21.5244  -14.2679 C   0  0  0  0  0  0  0  0  0  0  0  0
   25.4956  -22.7636  -14.3376 O   0  0  0  0  0  0  0  0  0  0  0  0
   27.6085  -17.6505  -17.9433 O   0  0  0  0  0  0  0  0  0  0  0  0
   26.2020  -20.4435   -9.1975 C   0  0  0  0  0  0  0  0  0  0  0  0
   25.9530  -21.2589  -10.4831 C   0  0  0  0  0  0  0  0  0  0  0  0
   24.5653  -20.9902  -10.9308 C   0  0  2  0  0  0  0  0  0  0  0  0
   23.6200  -21.4345   -9.8033 C   0  0  0  0  0  0  0  0  0  0  0  0
   24.1436  -21.5511  -12.2443 C   0  0  2  0  0  0  0  0  0  0  0  0
   24.9790  -20.8323  -13.2401 N   0  0  0  0  0  0  0  0  0  0  0  0
   22.7387  -21.3917  -12.6105 C   0  0  0  0  0  0  0  0  0  0  0  0
   22.3318  -20.2472  -13.0304 O   0  0  0  0  0  0  0  0  0  0  0  0
   15.4864  -23.8312  -10.6395 N   0  0  0  0  0  0  0  0  0  0  0  0
   14.9980  -23.8260  -11.9839 C   0  0  0  0  0  0  0  0  0  0  0  0
   13.7824  -23.5051  -12.2392 N   0  0  0  0  0  0  0  0  0  0  0  0
   15.8675  -24.1783  -13.0381 N   0  0  0  0  0  0  0  0  0  0  0  0
   17.2801  -24.4094  -12.8479 C   0  0  0  0  0  0  0  0  0  0  0  0
   18.0966  -23.1270  -13.0121 C   0  0  0  0  0  0  0  0  0  0  0  0
   19.5660  -23.4022  -12.8919 C   0  0  0  0  0  0  0  0  0  0  0  0
   20.3454  -22.1350  -12.8959 C   0  0  2  0  0  0  0  0  0  0  0  0
   21.7500  -22.3770  -12.5586 N   0  0  0  0  0  0  0  0  0  0  0  0
   19.8424  -21.1491  -11.9425 C   0  0  0  0  0  0  0  0  0  0  0  0
   20.1295  -21.2168  -10.7283 O   0  0  0  0  0  0  0  0  0  0  0  0
   19.0308  -20.0995  -12.3286 O   0  0  0  0  0  0  0  0  0  0  0  0
  2  1  1  6
  2  3  1  0
  4  5  1  0
  4  3  1  0
  5  6  2  0
  7  2  1  0
  7  8  2  0
  9  5  1  0
 11 10  1  0
 12 11  1  0
 12 14  1  0
 12 13  1  1
 14 15  1  6
 15  7  1  0
 16 26  1  0
 16 14  1  0
 17 16  2  0
 18 19  1  0
 19 20  2  0
 21 19  1  0
 21 22  1  0
 22 23  1  0
 23 24  1  0
 25 24  1  1
 25 26  1  0
 25 27  1  0
 27 29  1  0
 28 27  2  0
M  END
$$$$
