EIR.pdb
     RDKit          3D

 29 28  0  0  1  0  0  0  0  0999 V2000
   20.4033  -20.6541   -7.7868 N   0  0  0  0  0  0  0  0  0  0  0  0
   21.4755  -21.6320   -8.0443 C   0  0  1  0  0  0  0  0  0  0  0  0
   20.8844  -22.6121   -9.0209 C   0  0  0  0  0  0  0  0  0  0  0  0
   19.7278  -23.4007   -8.5120 C   0  0  0  0  0  0  0  0  0  0  0  0
   20.1090  -24.5173   -7.6227 C   0  0  0  0  0  0  0  0  0  0  0  0
   19.2982  -25.2656   -7.0342 O   0  0  0  0  0  0  0  0  0  0  0  0
   22.6307  -20.9584   -8.6700 C   0  0  0  0  0  0  0  0  0  0  0  0
   22.4511  -19.9774   -9.4303 O   0  0  0  0  0  0  0  0  0  0  0  0
   21.4746  -24.7751   -7.4086 O   0  0  0  0  0  0  0  0  0  0  0  0
   26.7501  -19.7377   -5.6914 C   0  0  0  0  0  0  0  0  0  0  0  0
   25.6588  -19.6331   -6.7766 C   0  0  0  0  0  0  0  0  0  0  0  0
   26.0818  -20.4646   -7.9290 C   0  0  2  0  0  0  0  0  0  0  0  0
   27.4308  -19.9192   -8.4240 C   0  0  0  0  0  0  0  0  0  0  0  0
   25.1179  -20.6278   -9.0524 C   0  0  2  0  0  0  0  0  0  0  0  0
   23.9754  -21.3666   -8.4566 N   0  0  0  0  0  0  0  0  0  0  0  0
   25.5879  -21.3605  -10.2252 C   0  0  0  0  0  0  0  0  0  0  0  0
   25.5070  -22.6431  -10.2303 O   0  0  0  0  0  0  0  0  0  0  0  0
   20.2986  -22.4228  -15.5329 N   0  0  0  0  0  0  0  0  0  0  0  0
   20.9961  -21.2084  -15.2419 C   0  0  0  0  0  0  0  0  0  0  0  0
   20.3932  -20.0771  -15.2926 N   0  0  0  0  0  0  0  0  0  0  0  0
   22.3631  -21.2607  -14.8952 N   0  0  0  0  0  0  0  0  0  0  0  0
   23.1372  -22.4790  -14.9321 C   0  0  0  0  0  0  0  0  0  0  0  0
   24.5857  -22.2497  -14.4990 C   0  0  0  0  0  0  0  0  0  0  0  0
   24.6520  -21.6749  -13.1153 C   0  0  0  0  0  0  0  0  0  0  0  0
   26.0630  -21.4509  -12.7006 C   0  0  2  0  0  0  0  0  0  0  0  0
   26.1323  -20.8076  -11.3867 N   0  0  0  0  0  0  0  0  0  0  0  0
   26.8062  -20.6031  -13.6295 C   0  0  0  0  0  0  0  0  0  0  0  0
   26.9893  -19.3896  -13.3944 O   0  0  0  0  0  0  0  0  0  0  0  0
   27.3412  -21.0928  -14.8057 O   0  0  0  0  0  0  0  0  0  0  0  0
  2  1  1  6
  2  3  1  0
  4  5  1  0
  4  3  1  0
  5  6  2  0
  7  2  1  0
  7  8  2  0
  9  5  1  0
 11 10  1  0
 12 11  1  0
 12 14  1  0
 12 13  1  6
 14 15  1  1
 15  7  1  0
 16 26  1  0
 16 14  1  0
 17 16  2  0
 18 19  1  0
 19 20  2  0
 21 19  1  0
 21 22  1  0
 22 23  1  0
 23 24  1  0
 25 24  1  6
 25 26  1  0
 25 27  1  0
 27 29  1  0
 28 27  2  0
M  END
$$$$
