VFG.pdb
     RDKit          3D

 23 23  0  0  1  0  0  0  0  0999 V2000
   18.9797   -7.4253  -19.1239 C   0  0  0  0  0  0  0  0  0  0  0  0
   20.4336   -7.4189  -19.6023 C   0  0  2  0  0  0  0  0  0  0  0  0
   20.4953   -8.2142  -20.8798 C   0  0  0  0  0  0  0  0  0  0  0  0
   21.2432   -8.0568  -18.4945 C   0  0  2  0  0  0  0  0  0  0  0  0
   20.7787   -9.4291  -18.3605 N   0  0  0  0  0  0  0  0  0  0  0  0
   21.1163   -7.3285  -17.2128 C   0  0  0  0  0  0  0  0  0  0  0  0
   20.3033   -7.7202  -16.3577 O   0  0  0  0  0  0  0  0  0  0  0  0
   21.9065   -6.2109  -16.9721 N   0  0  0  0  0  0  0  0  0  0  0  0
   21.8349   -5.3807  -15.7797 C   0  0  1  0  0  0  0  0  0  0  0  0
   23.1084   -5.5752  -15.0370 C   0  0  0  0  0  0  0  0  0  0  0  0
   23.3699   -6.9998  -14.7021 C   0  0  0  0  0  0  0  0  0  0  0  0
   22.7325   -7.6846  -13.6992 C   0  0  0  0  0  0  0  0  0  0  0  0
   23.0128   -9.0081  -13.4295 C   0  0  0  0  0  0  0  0  0  0  0  0
   23.9533   -9.6962  -14.1662 C   0  0  0  0  0  0  0  0  0  0  0  0
   24.6071   -9.0382  -15.1754 C   0  0  0  0  0  0  0  0  0  0  0  0
   24.3180   -7.7294  -15.4291 C   0  0  0  0  0  0  0  0  0  0  0  0
   21.4399   -4.0108  -16.0530 C   0  0  0  0  0  0  0  0  0  0  0  0
   22.2795   -3.2147  -16.5520 O   0  0  0  0  0  0  0  0  0  0  0  0
   20.1459   -3.4741  -15.7975 N   0  0  0  0  0  0  0  0  0  0  0  0
   19.8147   -2.1011  -16.0594 C   0  0  0  0  0  0  0  0  0  0  0  0
   18.3946   -1.8362  -15.7401 C   0  0  0  0  0  0  0  0  0  0  0  0
   18.0150   -0.6334  -15.1627 O   0  0  0  0  0  0  0  0  0  0  0  0
   17.4939   -2.6803  -15.9776 O   0  0  0  0  0  0  0  0  0  0  0  0
  2  1  1  1
  2  3  1  0
  4  6  1  0
  4  2  1  0
  4  5  1  1
  6  7  2  0
  8  6  1  0
  8  9  1  0
  9 17  1  0
 10 11  1  0
  9 10  1  6
 11 16  2  0
 11 12  1  0
 12 13  2  0
 13 14  1  0
 15 14  2  0
 16 15  1  0
 17 18  2  0
 17 19  1  0
 19 20  1  0
 20 21  1  0
 21 22  1  0
 23 21  2  0
M  END
$$$$
