VFG.pdb
     RDKit          3D

 23 23  0  0  1  0  0  0  0  0999 V2000
   28.8050  -18.2404  -15.2809 C   0  0  0  0  0  0  0  0  0  0  0  0
   27.6595  -19.1652  -14.8623 C   0  0  2  0  0  0  0  0  0  0  0  0
   26.4432  -18.3070  -14.6328 C   0  0  0  0  0  0  0  0  0  0  0  0
   28.1174  -19.8546  -13.5956 C   0  0  2  0  0  0  0  0  0  0  0  0
   29.2573  -20.6868  -13.9492 N   0  0  0  0  0  0  0  0  0  0  0  0
   27.0449  -20.6634  -12.9751 C   0  0  0  0  0  0  0  0  0  0  0  0
   26.7692  -21.7835  -13.4390 O   0  0  0  0  0  0  0  0  0  0  0  0
   26.3520  -20.1666  -11.8777 N   0  0  0  0  0  0  0  0  0  0  0  0
   25.2737  -20.8594  -11.1896 C   0  0  1  0  0  0  0  0  0  0  0  0
   25.2472  -20.3458   -9.7943 C   0  0  0  0  0  0  0  0  0  0  0  0
   26.5726  -20.4223   -9.1254 C   0  0  0  0  0  0  0  0  0  0  0  0
   27.5872  -21.2567   -9.5197 C   0  0  0  0  0  0  0  0  0  0  0  0
   28.8000  -21.2884   -8.8632 C   0  0  0  0  0  0  0  0  0  0  0  0
   29.0374  -20.4742   -7.7764 C   0  0  0  0  0  0  0  0  0  0  0  0
   28.0422  -19.6293   -7.3587 C   0  0  0  0  0  0  0  0  0  0  0  0
   26.8486  -19.6102   -8.0190 C   0  0  0  0  0  0  0  0  0  0  0  0
   24.0179  -20.8400  -11.9175 C   0  0  0  0  0  0  0  0  0  0  0  0
   23.6098  -19.7564  -12.4144 O   0  0  0  0  0  0  0  0  0  0  0  0
   23.1832  -21.9751  -12.1240 N   0  0  0  0  0  0  0  0  0  0  0  0
   22.0050  -21.9272  -12.9444 C   0  0  0  0  0  0  0  0  0  0  0  0
   20.8490  -21.4252  -12.1697 C   0  0  0  0  0  0  0  0  0  0  0  0
   19.5890  -21.3609  -12.7463 O   0  0  0  0  0  0  0  0  0  0  0  0
   20.9661  -21.0442  -10.9774 O   0  0  0  0  0  0  0  0  0  0  0  0
  2  1  1  1
  2  3  1  0
  4  6  1  0
  4  2  1  0
  4  5  1  6
  6  7  2  0
  8  6  1  0
  8  9  1  0
  9 17  1  0
 10 11  1  0
  9 10  1  1
 11 16  2  0
 11 12  1  0
 12 13  2  0
 13 14  1  0
 15 14  2  0
 16 15  1  0
 17 18  2  0
 17 19  1  0
 19 20  1  0
 20 21  1  0
 21 22  1  0
 23 21  2  0
M  END
$$$$
