VFG.pdb
     RDKit          3D

 23 23  0  0  1  0  0  0  0  0999 V2000
   21.7112  -10.2688  -17.2519 C   0  0  0  0  0  0  0  0  0  0  0  0
   20.1866  -10.4024  -17.2344 C   0  0  2  0  0  0  0  0  0  0  0  0
   19.7916  -11.2574  -18.4098 C   0  0  0  0  0  0  0  0  0  0  0  0
   19.6401   -8.9957  -17.3444 C   0  0  2  0  0  0  0  0  0  0  0  0
   20.1696   -8.4256  -18.5739 N   0  0  0  0  0  0  0  0  0  0  0  0
   19.9980   -8.1595  -16.1773 C   0  0  0  0  0  0  0  0  0  0  0  0
   19.5883   -8.4709  -15.0455 O   0  0  0  0  0  0  0  0  0  0  0  0
   20.7899   -7.0311  -16.3527 N   0  0  0  0  0  0  0  0  0  0  0  0
   21.1315   -6.0814  -15.3050 C   0  0  1  0  0  0  0  0  0  0  0  0
   22.6087   -6.1268  -15.1413 C   0  0  0  0  0  0  0  0  0  0  0  0
   23.1142   -7.4905  -14.8337 C   0  0  0  0  0  0  0  0  0  0  0  0
   22.6480   -8.2711  -13.8068 C   0  0  0  0  0  0  0  0  0  0  0  0
   23.1523   -9.5320  -13.5643 C   0  0  0  0  0  0  0  0  0  0  0  0
   24.1530  -10.0573  -14.3536 C   0  0  0  0  0  0  0  0  0  0  0  0
   24.6395   -9.3006  -15.3878 C   0  0  0  0  0  0  0  0  0  0  0  0
   24.1297   -8.0556  -15.6141 C   0  0  0  0  0  0  0  0  0  0  0  0
   20.5345   -4.7721  -15.4958 C   0  0  0  0  0  0  0  0  0  0  0  0
   20.2711   -4.3785  -16.6635 O   0  0  0  0  0  0  0  0  0  0  0  0
   20.2116   -3.8675  -14.4444 N   0  0  0  0  0  0  0  0  0  0  0  0
   19.7607   -2.5263  -14.6919 C   0  0  0  0  0  0  0  0  0  0  0  0
   18.3166   -2.5115  -15.0133 C   0  0  0  0  0  0  0  0  0  0  0  0
   17.8861   -2.2760  -16.3107 O   0  0  0  0  0  0  0  0  0  0  0  0
   17.4405   -2.7093  -14.1337 O   0  0  0  0  0  0  0  0  0  0  0  0
  2  1  1  6
  2  3  1  0
  4  6  1  0
  4  2  1  0
  4  5  1  6
  6  7  2  0
  8  6  1  0
  8  9  1  0
  9 17  1  0
 10 11  1  0
  9 10  1  6
 11 16  2  0
 11 12  1  0
 12 13  2  0
 13 14  1  0
 15 14  2  0
 16 15  1  0
 17 18  2  0
 17 19  1  0
 19 20  1  0
 20 21  1  0
 21 22  1  0
 23 21  2  0
M  END
$$$$
