VFG.pdb
     RDKit          3D

 23 23  0  0  1  0  0  0  0  0999 V2000
   19.8729  -12.9750  -17.5244 C   0  0  0  0  0  0  0  0  0  0  0  0
   18.7746  -12.6842  -16.4988 C   0  0  2  0  0  0  0  0  0  0  0  0
   17.5040  -13.3180  -17.0013 C   0  0  0  0  0  0  0  0  0  0  0  0
   18.6654  -11.1773  -16.4159 C   0  0  2  0  0  0  0  0  0  0  0  0
   18.4746  -10.6867  -17.7723 N   0  0  0  0  0  0  0  0  0  0  0  0
   19.8569  -10.5595  -15.7932 C   0  0  0  0  0  0  0  0  0  0  0  0
   20.1335  -10.8093  -14.6071 O   0  0  0  0  0  0  0  0  0  0  0  0
   20.6601   -9.7037  -16.5375 N   0  0  0  0  0  0  0  0  0  0  0  0
   21.8068   -8.9748  -16.0182 C   0  0  1  0  0  0  0  0  0  0  0  0
   22.9898   -9.4026  -16.8112 C   0  0  0  0  0  0  0  0  0  0  0  0
   23.2639  -10.8594  -16.6998 C   0  0  0  0  0  0  0  0  0  0  0  0
   22.9931  -11.7717  -17.6875 C   0  0  0  0  0  0  0  0  0  0  0  0
   23.2677  -13.1147  -17.5329 C   0  0  0  0  0  0  0  0  0  0  0  0
   23.8298  -13.5921  -16.3681 C   0  0  0  0  0  0  0  0  0  0  0  0
   24.1118  -12.7042  -15.3628 C   0  0  0  0  0  0  0  0  0  0  0  0
   23.8340  -11.3793  -15.5318 C   0  0  0  0  0  0  0  0  0  0  0  0
   21.5787   -7.5459  -15.9031 C   0  0  0  0  0  0  0  0  0  0  0  0
   21.1872   -6.9006  -16.9120 O   0  0  0  0  0  0  0  0  0  0  0  0
   21.7651   -6.7888  -14.7115 N   0  0  0  0  0  0  0  0  0  0  0  0
   21.6179   -5.3603  -14.6741 C   0  0  0  0  0  0  0  0  0  0  0  0
   21.7175   -4.8611  -13.2850 C   0  0  0  0  0  0  0  0  0  0  0  0
   21.7008   -3.4990  -13.0232 O   0  0  0  0  0  0  0  0  0  0  0  0
   21.8194   -5.6431  -12.3060 O   0  0  0  0  0  0  0  0  0  0  0  0
  2  1  1  6
  2  3  1  0
  4  6  1  0
  4  2  1  0
  4  5  1  6
  6  7  2  0
  8  6  1  0
  8  9  1  0
  9 17  1  0
 10 11  1  0
  9 10  1  6
 11 16  2  0
 11 12  1  0
 12 13  2  0
 13 14  1  0
 15 14  2  0
 16 15  1  0
 17 18  2  0
 17 19  1  0
 19 20  1  0
 20 21  1  0
 21 22  1  0
 23 21  2  0
M  END
$$$$
