VFG.pdb
     RDKit          3D

 23 23  0  0  1  0  0  0  0  0999 V2000
   25.6815  -20.2547  -13.4264 C   0  0  0  0  0  0  0  0  0  0  0  0
   26.7941  -19.2489  -13.1217 C   0  0  2  0  0  0  0  0  0  0  0  0
   27.1327  -18.5420  -14.4079 C   0  0  0  0  0  0  0  0  0  0  0  0
   27.9585  -20.0577  -12.5928 C   0  0  2  0  0  0  0  0  0  0  0  0
   28.2147  -21.1188  -13.5548 N   0  0  0  0  0  0  0  0  0  0  0  0
   27.6923  -20.6160  -11.2487 C   0  0  0  0  0  0  0  0  0  0  0  0
   27.4192  -21.8225  -11.1240 O   0  0  0  0  0  0  0  0  0  0  0  0
   27.7488  -19.7888  -10.1334 N   0  0  0  0  0  0  0  0  0  0  0  0
   27.5448  -20.2253   -8.7608 C   0  0  1  0  0  0  0  0  0  0  0  0
   28.3673  -19.3388   -7.8955 C   0  0  0  0  0  0  0  0  0  0  0  0
   28.2721  -19.6888   -6.4538 C   0  0  0  0  0  0  0  0  0  0  0  0
   29.0822  -20.6017   -5.8279 C   0  0  0  0  0  0  0  0  0  0  0  0
   28.9519  -20.8901   -4.4852 C   0  0  0  0  0  0  0  0  0  0  0  0
   27.9930  -20.2645   -3.7173 C   0  0  0  0  0  0  0  0  0  0  0  0
   27.1684  -19.3471   -4.3149 C   0  0  0  0  0  0  0  0  0  0  0  0
   27.3105  -19.0733   -5.6438 C   0  0  0  0  0  0  0  0  0  0  0  0
   26.1455  -20.3724   -8.4038 C   0  0  0  0  0  0  0  0  0  0  0  0
   25.8431  -20.8132   -7.2627 O   0  0  0  0  0  0  0  0  0  0  0  0
   25.0528  -20.0516   -9.2587 N   0  0  0  0  0  0  0  0  0  0  0  0
   23.6838  -20.2195   -8.8571 C   0  0  0  0  0  0  0  0  0  0  0  0
   22.8415  -20.5911  -10.0153 C   0  0  0  0  0  0  0  0  0  0  0  0
   21.4581  -20.5629   -9.9179 O   0  0  0  0  0  0  0  0  0  0  0  0
   23.3430  -20.9408  -11.1137 O   0  0  0  0  0  0  0  0  0  0  0  0
  2  1  1  6
  2  3  1  0
  4  6  1  0
  4  2  1  0
  4  5  1  6
  6  7  2  0
  8  6  1  0
  8  9  1  0
  9 17  1  0
 10 11  1  0
  9 10  1  1
 11 16  2  0
 11 12  1  0
 12 13  2  0
 13 14  1  0
 15 14  2  0
 16 15  1  0
 17 18  2  0
 17 19  1  0
 19 20  1  0
 20 21  1  0
 21 22  1  0
 23 21  2  0
M  END
$$$$
