VFG.pdb
     RDKit          3D

 23 23  0  0  1  0  0  0  0  0999 V2000
   25.0632  -22.2997  -17.7119 C   0  0  0  0  0  0  0  0  0  0  0  0
   24.7086  -22.2687  -16.2233 C   0  0  2  0  0  0  0  0  0  0  0  0
   24.1836  -20.8922  -15.9096 C   0  0  0  0  0  0  0  0  0  0  0  0
   25.9908  -22.5724  -15.4794 C   0  0  2  0  0  0  0  0  0  0  0  0
   26.4412  -23.8838  -15.9204 N   0  0  0  0  0  0  0  0  0  0  0  0
   25.8111  -22.5416  -14.0111 C   0  0  0  0  0  0  0  0  0  0  0  0
   25.2213  -23.4761  -13.4413 O   0  0  0  0  0  0  0  0  0  0  0  0
   26.3024  -21.4686  -13.2773 N   0  0  0  0  0  0  0  0  0  0  0  0
   26.1969  -21.3283  -11.8332 C   0  0  1  0  0  0  0  0  0  0  0  0
   27.3802  -20.5477  -11.3842 C   0  0  0  0  0  0  0  0  0  0  0  0
   27.3961  -20.3161   -9.9159 C   0  0  0  0  0  0  0  0  0  0  0  0
   28.2014  -20.9956   -9.0378 C   0  0  0  0  0  0  0  0  0  0  0  0
   28.1772  -20.7415   -7.6821 C   0  0  0  0  0  0  0  0  0  0  0  0
   27.3341  -19.7857   -7.1567 C   0  0  0  0  0  0  0  0  0  0  0  0
   26.5172  -19.0900   -8.0096 C   0  0  0  0  0  0  0  0  0  0  0  0
   26.5534  -19.3535   -9.3476 C   0  0  0  0  0  0  0  0  0  0  0  0
   24.8967  -20.8567  -11.3925 C   0  0  0  0  0  0  0  0  0  0  0  0
   24.5753  -20.9773  -10.1801 O   0  0  0  0  0  0  0  0  0  0  0  0
   23.9245  -20.2514  -12.2388 N   0  0  0  0  0  0  0  0  0  0  0  0
   22.6866  -19.7230  -11.7370 C   0  0  0  0  0  0  0  0  0  0  0  0
   21.5376  -20.4859  -12.2723 C   0  0  0  0  0  0  0  0  0  0  0  0
   20.2386  -20.1210  -11.9508 O   0  0  0  0  0  0  0  0  0  0  0  0
   21.6959  -21.4785  -13.0273 O   0  0  0  0  0  0  0  0  0  0  0  0
  2  1  1  6
  2  3  1  0
  4  6  1  0
  4  2  1  0
  4  5  1  6
  6  7  2  0
  8  6  1  0
  8  9  1  0
  9 17  1  0
 10 11  1  0
  9 10  1  6
 11 16  2  0
 11 12  1  0
 12 13  2  0
 13 14  1  0
 15 14  2  0
 16 15  1  0
 17 18  2  0
 17 19  1  0
 19 20  1  0
 20 21  1  0
 21 22  1  0
 23 21  2  0
M  END
$$$$
