VFG.pdb
     RDKit          3D

 23 23  0  0  1  0  0  0  0  0999 V2000
   20.4345  -12.3762  -17.1800 C   0  0  0  0  0  0  0  0  0  0  0  0
   21.4190  -12.3224  -18.3507 C   0  0  2  0  0  0  0  0  0  0  0  0
   21.0212  -13.3964  -19.3290 C   0  0  0  0  0  0  0  0  0  0  0  0
   22.7894  -12.5704  -17.7590 C   0  0  2  0  0  0  0  0  0  0  0  0
   22.7909  -13.9284  -17.2367 N   0  0  0  0  0  0  0  0  0  0  0  0
   23.1299  -11.5961  -16.6987 C   0  0  0  0  0  0  0  0  0  0  0  0
   23.0115  -11.9174  -15.5035 O   0  0  0  0  0  0  0  0  0  0  0  0
   23.5801  -10.3277  -17.0447 N   0  0  0  0  0  0  0  0  0  0  0  0
   23.9659   -9.2931  -16.0976 C   0  0  1  0  0  0  0  0  0  0  0  0
   25.3704   -8.9183  -16.4108 C   0  0  0  0  0  0  0  0  0  0  0  0
   26.3200  -10.0507  -16.2500 C   0  0  0  0  0  0  0  0  0  0  0  0
   26.8304  -10.4625  -15.0454 C   0  0  0  0  0  0  0  0  0  0  0  0
   27.7099  -11.5211  -14.9513 C   0  0  0  0  0  0  0  0  0  0  0  0
   28.1108  -12.2096  -16.0764 C   0  0  0  0  0  0  0  0  0  0  0  0
   27.6176  -11.8211  -17.2948 C   0  0  0  0  0  0  0  0  0  0  0  0
   26.7487  -10.7721  -17.3704 C   0  0  0  0  0  0  0  0  0  0  0  0
   23.0051   -8.2090  -16.0039 C   0  0  0  0  0  0  0  0  0  0  0  0
   22.5470   -7.6978  -17.0605 O   0  0  0  0  0  0  0  0  0  0  0  0
   22.5219   -7.6575  -14.7831 N   0  0  0  0  0  0  0  0  0  0  0  0
   21.6138   -6.5452  -14.7452 C   0  0  0  0  0  0  0  0  0  0  0  0
   20.2193   -7.0143  -14.5903 C   0  0  0  0  0  0  0  0  0  0  0  0
   19.1987   -6.1136  -14.3231 O   0  0  0  0  0  0  0  0  0  0  0  0
   19.9140   -8.2294  -14.6939 O   0  0  0  0  0  0  0  0  0  0  0  0
  2  1  1  1
  2  3  1  0
  4  6  1  0
  4  2  1  0
  4  5  1  1
  6  7  2  0
  8  6  1  0
  8  9  1  0
  9 17  1  0
 10 11  1  0
  9 10  1  6
 11 16  2  0
 11 12  1  0
 12 13  2  0
 13 14  1  0
 15 14  2  0
 16 15  1  0
 17 18  2  0
 17 19  1  0
 19 20  1  0
 20 21  1  0
 21 22  1  0
 23 21  2  0
M  END
$$$$
