FGY.pdb
     RDKit          3D

 28 29  0  0  1  0  0  0  0  0999 V2000
   25.3142  -21.7801  -11.6902 N   0  0  0  0  0  0  0  0  0  0  0  0
   26.1668  -20.6598  -11.9419 C   0  0  1  0  0  0  0  0  0  0  0  0
   27.4700  -20.7158  -11.2138 C   0  0  0  0  0  0  0  0  0  0  0  0
   27.2162  -20.5872   -9.7639 C   0  0  0  0  0  0  0  0  0  0  0  0
   27.8630  -21.3859   -8.8562 C   0  0  0  0  0  0  0  0  0  0  0  0
   27.6335  -21.2745   -7.4978 C   0  0  0  0  0  0  0  0  0  0  0  0
   26.7147  -20.3151   -7.0726 C   0  0  0  0  0  0  0  0  0  0  0  0
   26.0495  -19.4989   -7.9543 C   0  0  0  0  0  0  0  0  0  0  0  0
   26.3208  -19.6584   -9.2901 C   0  0  0  0  0  0  0  0  0  0  0  0
   26.3533  -20.4614  -13.3999 C   0  0  0  0  0  0  0  0  0  0  0  0
   27.4911  -20.4902  -13.9388 O   0  0  0  0  0  0  0  0  0  0  0  0
   25.2260  -20.2298  -14.2345 N   0  0  0  0  0  0  0  0  0  0  0  0
   24.3305  -21.2626  -14.6453 C   0  0  0  0  0  0  0  0  0  0  0  0
   22.9181  -20.9854  -14.2780 C   0  0  0  0  0  0  0  0  0  0  0  0
   22.5856  -19.8212  -13.9415 O   0  0  0  0  0  0  0  0  0  0  0  0
   22.1550  -28.0789  -15.4779 O   0  0  0  0  0  0  0  0  0  0  0  0
   21.9549  -26.9292  -14.7218 C   0  0  0  0  0  0  0  0  0  0  0  0
   22.9977  -26.1209  -14.3256 C   0  0  0  0  0  0  0  0  0  0  0  0
   22.8399  -24.9835  -13.5823 C   0  0  0  0  0  0  0  0  0  0  0  0
   21.5492  -24.6034  -13.1923 C   0  0  0  0  0  0  0  0  0  0  0  0
   21.3703  -23.3891  -12.3682 C   0  0  0  0  0  0  0  0  0  0  0  0
   20.9877  -22.2133  -13.1927 C   0  0  2  0  0  0  0  0  0  0  0  0
   21.9115  -21.9716  -14.2856 N   0  0  0  0  0  0  0  0  0  0  0  0
   20.9450  -21.0001  -12.3622 C   0  0  0  0  0  0  0  0  0  0  0  0
   20.0438  -20.9403  -11.3085 O   0  0  0  0  0  0  0  0  0  0  0  0
   20.4753  -25.4066  -13.5812 C   0  0  0  0  0  0  0  0  0  0  0  0
   20.6806  -26.5440  -14.3302 C   0  0  0  0  0  0  0  0  0  0  0  0
   21.6685  -19.9789  -12.5188 O   0  0  0  0  0  0  0  0  0  0  0  0
  2  1  1  6
  2 10  1  0
  2  3  1  0
  3  4  1  0
  4  5  2  0
  4  9  1  0
  5  6  1  0
  6  7  2  0
  8  7  1  0
  9  8  2  0
 10 11  2  0
 12 13  1  0
 12 10  1  0
 14 15  2  0
 14 13  1  0
 16 17  1  0
 17 27  2  0
 18 17  1  0
 18 19  2  0
 19 20  1  0
 20 26  2  0
 20 21  1  0
 22 21  1  1
 22 23  1  0
 22 24  1  0
 23 14  1  0
 24 25  1  0
 27 26  1  0
 28 24  2  0
M  END
$$$$
