FGY.pdb
     RDKit          3D

 28 29  0  0  1  0  0  0  0  0999 V2000
   20.8454  -12.0866  -19.2107 N   0  0  0  0  0  0  0  0  0  0  0  0
   20.3623  -11.0130  -18.3987 C   0  0  1  0  0  0  0  0  0  0  0  0
   20.1153  -11.3947  -16.9757 C   0  0  0  0  0  0  0  0  0  0  0  0
   19.1847  -12.5418  -16.9405 C   0  0  0  0  0  0  0  0  0  0  0  0
   19.6249  -13.8042  -16.6362 C   0  0  0  0  0  0  0  0  0  0  0  0
   18.7636  -14.8846  -16.6003 C   0  0  0  0  0  0  0  0  0  0  0  0
   17.4186  -14.6505  -16.8860 C   0  0  0  0  0  0  0  0  0  0  0  0
   16.9440  -13.3993  -17.1945 C   0  0  0  0  0  0  0  0  0  0  0  0
   17.8490  -12.3678  -17.2138 C   0  0  0  0  0  0  0  0  0  0  0  0
   21.2517   -9.8314  -18.5104 C   0  0  0  0  0  0  0  0  0  0  0  0
   22.3260   -9.8624  -19.1667 O   0  0  0  0  0  0  0  0  0  0  0  0
   20.9000   -8.6149  -17.8644 N   0  0  0  0  0  0  0  0  0  0  0  0
   21.6294   -7.3996  -18.0325 C   0  0  0  0  0  0  0  0  0  0  0  0
   21.1277   -6.2982  -17.1712 C   0  0  0  0  0  0  0  0  0  0  0  0
   19.9241   -6.2972  -16.8102 O   0  0  0  0  0  0  0  0  0  0  0  0
   20.1818   -9.0290  -11.9024 O   0  0  0  0  0  0  0  0  0  0  0  0
   20.6561   -7.8804  -12.5265 C   0  0  0  0  0  0  0  0  0  0  0  0
   19.9742   -6.6845  -12.4783 C   0  0  0  0  0  0  0  0  0  0  0  0
   20.4090   -5.5351  -13.0790 C   0  0  0  0  0  0  0  0  0  0  0  0
   21.6165   -5.5573  -13.7889 C   0  0  0  0  0  0  0  0  0  0  0  0
   22.0830   -4.3265  -14.4622 C   0  0  0  0  0  0  0  0  0  0  0  0
   21.5026   -4.1876  -15.8233 C   0  0  2  0  0  0  0  0  0  0  0  0
   21.9395   -5.2351  -16.7278 N   0  0  0  0  0  0  0  0  0  0  0  0
   21.8860   -2.8953  -16.4118 C   0  0  0  0  0  0  0  0  0  0  0  0
   22.6266   -2.8865  -17.5856 O   0  0  0  0  0  0  0  0  0  0  0  0
   22.3264   -6.7579  -13.8526 C   0  0  0  0  0  0  0  0  0  0  0  0
   21.8509   -7.8919  -13.2322 C   0  0  0  0  0  0  0  0  0  0  0  0
   21.5992   -1.7612  -15.9402 O   0  0  0  0  0  0  0  0  0  0  0  0
  2  1  1  6
  2 10  1  0
  2  3  1  0
  3  4  1  0
  4  5  2  0
  4  9  1  0
  5  6  1  0
  6  7  2  0
  8  7  1  0
  9  8  2  0
 10 11  2  0
 12 13  1  0
 12 10  1  0
 14 15  2  0
 14 13  1  0
 16 17  1  0
 17 27  2  0
 18 17  1  0
 18 19  2  0
 19 20  1  0
 20 26  2  0
 20 21  1  0
 22 21  1  1
 22 23  1  0
 22 24  1  0
 23 14  1  0
 24 25  1  0
 27 26  1  0
 28 24  2  0
M  END
$$$$
