FGY.pdb
     RDKit          3D

 28 29  0  0  1  0  0  0  0  0999 V2000
   27.3668  -15.8981  -22.1694 N   0  0  0  0  0  0  0  0  0  0  0  0
   28.2940  -15.2276  -21.3116 C   0  0  1  0  0  0  0  0  0  0  0  0
   27.6540  -14.2710  -20.3591 C   0  0  0  0  0  0  0  0  0  0  0  0
   26.9305  -13.2382  -21.1291 C   0  0  0  0  0  0  0  0  0  0  0  0
   25.5706  -13.2984  -21.2946 C   0  0  0  0  0  0  0  0  0  0  0  0
   24.8833  -12.3380  -22.0127 C   0  0  0  0  0  0  0  0  0  0  0  0
   25.6216  -11.2942  -22.5703 C   0  0  0  0  0  0  0  0  0  0  0  0
   26.9841  -11.2033  -22.4241 C   0  0  0  0  0  0  0  0  0  0  0  0
   27.6085  -12.1878  -21.7000 C   0  0  0  0  0  0  0  0  0  0  0  0
   29.1643  -16.2060  -20.6152 C   0  0  0  0  0  0  0  0  0  0  0  0
   30.0672  -15.8468  -19.8141 O   0  0  0  0  0  0  0  0  0  0  0  0
   28.9915  -17.5983  -20.8441 N   0  0  0  0  0  0  0  0  0  0  0  0
   29.7301  -18.6036  -20.1504 C   0  0  0  0  0  0  0  0  0  0  0  0
   28.8663  -19.5095  -19.3504 C   0  0  0  0  0  0  0  0  0  0  0  0
   29.3905  -20.4560  -18.7113 O   0  0  0  0  0  0  0  0  0  0  0  0
   23.0008  -14.9922  -19.1821 O   0  0  0  0  0  0  0  0  0  0  0  0
   23.7233  -16.0879  -18.7230 C   0  0  0  0  0  0  0  0  0  0  0  0
   25.0177  -15.9738  -18.2655 C   0  0  0  0  0  0  0  0  0  0  0  0
   25.7591  -17.0278  -17.8066 C   0  0  0  0  0  0  0  0  0  0  0  0
   25.1841  -18.3052  -17.7941 C   0  0  0  0  0  0  0  0  0  0  0  0
   25.9853  -19.4549  -17.3230 C   0  0  0  0  0  0  0  0  0  0  0  0
   26.6013  -20.1989  -18.4525 C   0  0  2  0  0  0  0  0  0  0  0  0
   27.4671  -19.3653  -19.2660 N   0  0  0  0  0  0  0  0  0  0  0  0
   25.5572  -20.7531  -19.3279 C   0  0  0  0  0  0  0  0  0  0  0  0
   24.7313  -21.7541  -18.8357 O   0  0  0  0  0  0  0  0  0  0  0  0
   23.8732  -18.4471  -18.2532 C   0  0  0  0  0  0  0  0  0  0  0  0
   23.1632  -17.3575  -18.7066 C   0  0  0  0  0  0  0  0  0  0  0  0
   25.3326  -20.3972  -20.5169 O   0  0  0  0  0  0  0  0  0  0  0  0
  2  1  1  1
  2 10  1  0
  2  3  1  0
  3  4  1  0
  4  5  2  0
  4  9  1  0
  5  6  1  0
  6  7  2  0
  8  7  1  0
  9  8  2  0
 10 11  2  0
 12 13  1  0
 12 10  1  0
 14 15  2  0
 14 13  1  0
 16 17  1  0
 17 27  2  0
 18 17  1  0
 18 19  2  0
 19 20  1  0
 20 26  2  0
 20 21  1  0
 22 21  1  1
 22 23  1  0
 22 24  1  0
 23 14  1  0
 24 25  1  0
 27 26  1  0
 28 24  2  0
M  END
$$$$
