FGY.pdb
     RDKit          3D

 28 29  0  0  1  0  0  0  0  0999 V2000
   20.5240  -20.3887  -15.1615 N   0  0  0  0  0  0  0  0  0  0  0  0
   21.5561  -19.4291  -15.4049 C   0  0  1  0  0  0  0  0  0  0  0  0
   21.0793  -18.1871  -16.0845 C   0  0  0  0  0  0  0  0  0  0  0  0
   20.5046  -18.5481  -17.3970 C   0  0  0  0  0  0  0  0  0  0  0  0
   19.1518  -18.6982  -17.5627 C   0  0  0  0  0  0  0  0  0  0  0  0
   18.6031  -19.0356  -18.7857 C   0  0  0  0  0  0  0  0  0  0  0  0
   19.4755  -19.2209  -19.8581 C   0  0  0  0  0  0  0  0  0  0  0  0
   20.8352  -19.0786  -19.7272 C   0  0  0  0  0  0  0  0  0  0  0  0
   21.3183  -18.7425  -18.4874 C   0  0  0  0  0  0  0  0  0  0  0  0
   22.2967  -19.1290  -14.1554 C   0  0  0  0  0  0  0  0  0  0  0  0
   21.7270  -18.6540  -13.1377 O   0  0  0  0  0  0  0  0  0  0  0  0
   23.6945  -19.3774  -14.0819 N   0  0  0  0  0  0  0  0  0  0  0  0
   24.6326  -18.4297  -13.5729 C   0  0  0  0  0  0  0  0  0  0  0  0
   26.0295  -18.9349  -13.5809 C   0  0  0  0  0  0  0  0  0  0  0  0
   26.9597  -18.1818  -13.1980 O   0  0  0  0  0  0  0  0  0  0  0  0
   26.1890  -19.9895   -7.7574 O   0  0  0  0  0  0  0  0  0  0  0  0
   26.5972  -20.4358   -9.0095 C   0  0  0  0  0  0  0  0  0  0  0  0
   25.7121  -20.9583   -9.9266 C   0  0  0  0  0  0  0  0  0  0  0  0
   26.0762  -21.4067  -11.1665 C   0  0  0  0  0  0  0  0  0  0  0  0
   27.4240  -21.3380  -11.5423 C   0  0  0  0  0  0  0  0  0  0  0  0
   27.8315  -21.8426  -12.8709 C   0  0  0  0  0  0  0  0  0  0  0  0
   27.7129  -20.7959  -13.9194 C   0  0  2  0  0  0  0  0  0  0  0  0
   26.3772  -20.2343  -14.0011 N   0  0  0  0  0  0  0  0  0  0  0  0
   28.0481  -21.3547  -15.2381 C   0  0  0  0  0  0  0  0  0  0  0  0
   27.0940  -21.3151  -16.2452 O   0  0  0  0  0  0  0  0  0  0  0  0
   28.3410  -20.8126  -10.6299 C   0  0  0  0  0  0  0  0  0  0  0  0
   27.9298  -20.3724   -9.3914 C   0  0  0  0  0  0  0  0  0  0  0  0
   29.1500  -21.8819  -15.5522 O   0  0  0  0  0  0  0  0  0  0  0  0
  2  1  1  1
  2 10  1  0
  2  3  1  0
  3  4  1  0
  4  5  2  0
  4  9  1  0
  5  6  1  0
  6  7  2  0
  8  7  1  0
  9  8  2  0
 10 11  2  0
 12 13  1  0
 12 10  1  0
 14 15  2  0
 14 13  1  0
 16 17  1  0
 17 27  2  0
 18 17  1  0
 18 19  2  0
 19 20  1  0
 20 26  2  0
 20 21  1  0
 22 21  1  1
 22 23  1  0
 22 24  1  0
 23 14  1  0
 24 25  1  0
 27 26  1  0
 28 24  2  0
M  END
$$$$
