FGY.pdb
     RDKit          3D

 28 29  0  0  1  0  0  0  0  0999 V2000
   20.7665  -18.2075  -18.9158 N   0  0  0  0  0  0  0  0  0  0  0  0
   20.9374  -16.9241  -18.3084 C   0  0  1  0  0  0  0  0  0  0  0  0
   19.9257  -15.9122  -18.7377 C   0  0  0  0  0  0  0  0  0  0  0  0
   20.1186  -15.6190  -20.1729 C   0  0  0  0  0  0  0  0  0  0  0  0
   21.1997  -14.8985  -20.6114 C   0  0  0  0  0  0  0  0  0  0  0  0
   21.3904  -14.6182  -21.9514 C   0  0  0  0  0  0  0  0  0  0  0  0
   20.4403  -15.0950  -22.8545 C   0  0  0  0  0  0  0  0  0  0  0  0
   19.3461  -15.8194  -22.4497 C   0  0  0  0  0  0  0  0  0  0  0  0
   19.2131  -16.0646  -21.1059 C   0  0  0  0  0  0  0  0  0  0  0  0
   21.0062  -17.0489  -16.8321 C   0  0  0  0  0  0  0  0  0  0  0  0
   21.0672  -16.0423  -16.0778 O   0  0  0  0  0  0  0  0  0  0  0  0
   21.0045  -18.3356  -16.2278 N   0  0  0  0  0  0  0  0  0  0  0  0
   21.1204  -18.5398  -14.8199 C   0  0  0  0  0  0  0  0  0  0  0  0
   22.3410  -19.2978  -14.4425 C   0  0  0  0  0  0  0  0  0  0  0  0
   22.8184  -20.1375  -15.2462 O   0  0  0  0  0  0  0  0  0  0  0  0
   29.8616  -21.7888  -10.5452 O   0  0  0  0  0  0  0  0  0  0  0  0
   28.6867  -21.1243  -10.8794 C   0  0  0  0  0  0  0  0  0  0  0  0
   28.5860  -20.3315  -12.0015 C   0  0  0  0  0  0  0  0  0  0  0  0
   27.4483  -19.6633  -12.3623 C   0  0  0  0  0  0  0  0  0  0  0  0
   26.3094  -19.7808  -11.5550 C   0  0  0  0  0  0  0  0  0  0  0  0
   25.0822  -19.0431  -11.9231 C   0  0  0  0  0  0  0  0  0  0  0  0
   24.2038  -19.8430  -12.8163 C   0  0  2  0  0  0  0  0  0  0  0  0
   23.0059  -19.1256  -13.2120 N   0  0  0  0  0  0  0  0  0  0  0  0
   23.7853  -21.0823  -12.1437 C   0  0  0  0  0  0  0  0  0  0  0  0
   24.5188  -22.2411  -12.3565 O   0  0  0  0  0  0  0  0  0  0  0  0
   26.3863  -20.5785  -10.4117 C   0  0  0  0  0  0  0  0  0  0  0  0
   27.5532  -21.2339  -10.0865 C   0  0  0  0  0  0  0  0  0  0  0  0
   22.7961  -21.1982  -11.3699 O   0  0  0  0  0  0  0  0  0  0  0  0
  2  1  1  6
  2 10  1  0
  2  3  1  0
  3  4  1  0
  4  5  2  0
  4  9  1  0
  5  6  1  0
  6  7  2  0
  8  7  1  0
  9  8  2  0
 10 11  2  0
 12 13  1  0
 12 10  1  0
 14 15  2  0
 14 13  1  0
 16 17  1  0
 17 27  2  0
 18 17  1  0
 18 19  2  0
 19 20  1  0
 20 26  2  0
 20 21  1  0
 22 21  1  1
 22 23  1  0
 22 24  1  0
 23 14  1  0
 24 25  1  0
 27 26  1  0
 28 24  2  0
M  END
$$$$
