FGY.pdb
     RDKit          3D

 28 29  0  0  1  0  0  0  0  0999 V2000
   27.6383  -18.9219  -12.7456 N   0  0  0  0  0  0  0  0  0  0  0  0
   27.8377  -20.2955  -13.0903 C   0  0  1  0  0  0  0  0  0  0  0  0
   27.2553  -21.2568  -12.1061 C   0  0  0  0  0  0  0  0  0  0  0  0
   27.8337  -20.9890  -10.7731 C   0  0  0  0  0  0  0  0  0  0  0  0
   29.1168  -21.3635  -10.4675 C   0  0  0  0  0  0  0  0  0  0  0  0
   29.6682  -21.1182   -9.2240 C   0  0  0  0  0  0  0  0  0  0  0  0
   28.8724  -20.4713   -8.2787 C   0  0  0  0  0  0  0  0  0  0  0  0
   27.5837  -20.0826   -8.5513 C   0  0  0  0  0  0  0  0  0  0  0  0
   27.0938  -20.3546   -9.8040 C   0  0  0  0  0  0  0  0  0  0  0  0
   27.3677  -20.5620  -14.4715 C   0  0  0  0  0  0  0  0  0  0  0  0
   27.5282  -21.6798  -15.0289 O   0  0  0  0  0  0  0  0  0  0  0  0
   26.7128  -19.5377  -15.2083 N   0  0  0  0  0  0  0  0  0  0  0  0
   26.1776  -19.7342  -16.5169 C   0  0  0  0  0  0  0  0  0  0  0  0
   24.7969  -20.2820  -16.5024 C   0  0  0  0  0  0  0  0  0  0  0  0
   24.1249  -20.2880  -17.5642 O   0  0  0  0  0  0  0  0  0  0  0  0
   24.1418  -20.9107   -9.0763 O   0  0  0  0  0  0  0  0  0  0  0  0
   23.7846  -21.2990  -10.3628 C   0  0  0  0  0  0  0  0  0  0  0  0
   24.6952  -21.8347  -11.2469 C   0  0  0  0  0  0  0  0  0  0  0  0
   24.3812  -22.2279  -12.5188 C   0  0  0  0  0  0  0  0  0  0  0  0
   23.0610  -22.0848  -12.9651 C   0  0  0  0  0  0  0  0  0  0  0  0
   22.7166  -22.4842  -14.3463 C   0  0  0  0  0  0  0  0  0  0  0  0
   22.8422  -21.3488  -15.2971 C   0  0  2  0  0  0  0  0  0  0  0  0
   24.1868  -20.8047  -15.3447 N   0  0  0  0  0  0  0  0  0  0  0  0
   21.9290  -20.2607  -14.9158 C   0  0  0  0  0  0  0  0  0  0  0  0
   20.5602  -20.4832  -14.9727 O   0  0  0  0  0  0  0  0  0  0  0  0
   22.1192  -21.5439  -12.0876 C   0  0  0  0  0  0  0  0  0  0  0  0
   22.4798  -21.1613  -10.8146 C   0  0  0  0  0  0  0  0  0  0  0  0
   22.2785  -19.1116  -14.5309 O   0  0  0  0  0  0  0  0  0  0  0  0
  2  1  1  1
  2 10  1  0
  2  3  1  0
  3  4  1  0
  4  5  2  0
  4  9  1  0
  5  6  1  0
  6  7  2  0
  8  7  1  0
  9  8  2  0
 10 11  2  0
 12 13  1  0
 12 10  1  0
 14 15  2  0
 14 13  1  0
 16 17  1  0
 17 27  2  0
 18 17  1  0
 18 19  2  0
 19 20  1  0
 20 26  2  0
 20 21  1  0
 22 21  1  1
 22 23  1  0
 22 24  1  0
 23 14  1  0
 24 25  1  0
 27 26  1  0
 28 24  2  0
M  END
$$$$
