FGY.pdb
     RDKit          3D

 28 29  0  0  1  0  0  0  0  0999 V2000
   24.9301   -1.7346  -20.3472 N   0  0  0  0  0  0  0  0  0  0  0  0
   23.9684   -1.7886  -19.2901 C   0  0  1  0  0  0  0  0  0  0  0  0
   22.9174   -0.7303  -19.3739 C   0  0  0  0  0  0  0  0  0  0  0  0
   23.5688    0.5959  -19.3585 C   0  0  0  0  0  0  0  0  0  0  0  0
   23.7976    1.2610  -18.1815 C   0  0  0  0  0  0  0  0  0  0  0  0
   24.4060    2.5018  -18.1551 C   0  0  0  0  0  0  0  0  0  0  0  0
   24.7846    3.0637  -19.3742 C   0  0  0  0  0  0  0  0  0  0  0  0
   24.5705    2.4252  -20.5711 C   0  0  0  0  0  0  0  0  0  0  0  0
   23.9621    1.1958  -20.5309 C   0  0  0  0  0  0  0  0  0  0  0  0
   23.3817   -3.1468  -19.1853 C   0  0  0  0  0  0  0  0  0  0  0  0
   23.6379   -4.0525  -20.0219 O   0  0  0  0  0  0  0  0  0  0  0  0
   22.4997   -3.4581  -18.1148 N   0  0  0  0  0  0  0  0  0  0  0  0
   21.9099   -4.7454  -17.9352 C   0  0  0  0  0  0  0  0  0  0  0  0
   21.0822   -4.8376  -16.7052 C   0  0  0  0  0  0  0  0  0  0  0  0
   20.0119   -4.1832  -16.6317 O   0  0  0  0  0  0  0  0  0  0  0  0
   19.9368  -11.8593  -16.6994 O   0  0  0  0  0  0  0  0  0  0  0  0
   19.7830  -10.5505  -16.2555 C   0  0  0  0  0  0  0  0  0  0  0  0
   19.5356  -10.2481  -14.9345 C   0  0  0  0  0  0  0  0  0  0  0  0
   19.3790   -8.9744  -14.4611 C   0  0  0  0  0  0  0  0  0  0  0  0
   19.4725   -7.9026  -15.3583 C   0  0  0  0  0  0  0  0  0  0  0  0
   19.2805   -6.5236  -14.8610 C   0  0  0  0  0  0  0  0  0  0  0  0
   20.5674   -5.8957  -14.4630 C   0  0  2  0  0  0  0  0  0  0  0  0
   21.4353   -5.6316  -15.5958 N   0  0  0  0  0  0  0  0  0  0  0  0
   21.2956   -6.7711  -13.5319 C   0  0  0  0  0  0  0  0  0  0  0  0
   20.7670   -6.9931  -12.2680 O   0  0  0  0  0  0  0  0  0  0  0  0
   19.7224   -8.1831  -16.7031 C   0  0  0  0  0  0  0  0  0  0  0  0
   19.8736   -9.4818  -17.1360 C   0  0  0  0  0  0  0  0  0  0  0  0
   22.3854   -7.3568  -13.7771 O   0  0  0  0  0  0  0  0  0  0  0  0
  2  1  1  6
  2 10  1  0
  2  3  1  0
  3  4  1  0
  4  5  2  0
  4  9  1  0
  5  6  1  0
  6  7  2  0
  8  7  1  0
  9  8  2  0
 10 11  2  0
 12 13  1  0
 12 10  1  0
 14 15  2  0
 14 13  1  0
 16 17  1  0
 17 27  2  0
 18 17  1  0
 18 19  2  0
 19 20  1  0
 20 26  2  0
 20 21  1  0
 22 21  1  6
 22 23  1  0
 22 24  1  0
 23 14  1  0
 24 25  1  0
 27 26  1  0
 28 24  2  0
M  END
$$$$
