FGY.pdb
     RDKit          3D

 28 29  0  0  1  0  0  0  0  0999 V2000
   16.0943  -10.2833    9.8316 N   0  0  0  0  0  0  0  0  0  0  0  0
   16.8528  -10.7995    8.7346 C   0  0  1  0  0  0  0  0  0  0  0  0
   18.0034   -9.9346    8.3347 C   0  0  0  0  0  0  0  0  0  0  0  0
   18.7541  -10.6038    7.2523 C   0  0  0  0  0  0  0  0  0  0  0  0
   19.9954  -11.1415    7.4764 C   0  0  0  0  0  0  0  0  0  0  0  0
   20.7068  -11.7699    6.4716 C   0  0  0  0  0  0  0  0  0  0  0  0
   20.1184  -11.8417    5.2089 C   0  0  0  0  0  0  0  0  0  0  0  0
   18.8773  -11.3140    4.9499 C   0  0  0  0  0  0  0  0  0  0  0  0
   18.2216  -10.7029    5.9891 C   0  0  0  0  0  0  0  0  0  0  0  0
   17.2745  -12.1962    9.0012 C   0  0  0  0  0  0  0  0  0  0  0  0
   17.9040  -12.5176   10.0434 O   0  0  0  0  0  0  0  0  0  0  0  0
   16.9689  -13.2208    8.0643 N   0  0  0  0  0  0  0  0  0  0  0  0
   17.2853  -14.5963    8.2772 C   0  0  0  0  0  0  0  0  0  0  0  0
   16.8073  -15.4776    7.1811 C   0  0  0  0  0  0  0  0  0  0  0  0
   16.2059  -14.9714    6.2007 O   0  0  0  0  0  0  0  0  0  0  0  0
   14.6593  -20.6639    0.7781 O   0  0  0  0  0  0  0  0  0  0  0  0
   15.2716  -19.9052    1.7696 C   0  0  0  0  0  0  0  0  0  0  0  0
   16.4299  -20.3119    2.3945 C   0  0  0  0  0  0  0  0  0  0  0  0
   17.0604  -19.5932    3.3728 C   0  0  0  0  0  0  0  0  0  0  0  0
   16.5096  -18.3695    3.7751 C   0  0  0  0  0  0  0  0  0  0  0  0
   17.1699  -17.5967    4.8486 C   0  0  0  0  0  0  0  0  0  0  0  0
   16.4845  -17.7704    6.1559 C   0  0  2  0  0  0  0  0  0  0  0  0
   16.9933  -16.8745    7.1781 N   0  0  0  0  0  0  0  0  0  0  0  0
   16.6525  -19.1489    6.6408 C   0  0  0  0  0  0  0  0  0  0  0  0
   15.7027  -20.1008    6.2975 O   0  0  0  0  0  0  0  0  0  0  0  0
   15.3353  -17.9354    3.1569 C   0  0  0  0  0  0  0  0  0  0  0  0
   14.7341  -18.6919    2.1755 C   0  0  0  0  0  0  0  0  0  0  0  0
   17.6032  -19.5623    7.3591 O   0  0  0  0  0  0  0  0  0  0  0  0
  2  1  1  1
  2 10  1  0
  2  3  1  0
  3  4  1  0
  4  5  2  0
  4  9  1  0
  5  6  1  0
  6  7  2  0
  8  7  1  0
  9  8  2  0
 10 11  2  0
 12 13  1  0
 12 10  1  0
 14 15  2  0
 14 13  1  0
 16 17  1  0
 17 27  2  0
 18 17  1  0
 18 19  2  0
 19 20  1  0
 20 26  2  0
 20 21  1  0
 22 21  1  6
 22 23  1  0
 22 24  1  0
 23 14  1  0
 24 25  1  0
 27 26  1  0
 28 24  2  0
M  END
$$$$
