FGY.pdb
     RDKit          3D

 28 29  0  0  1  0  0  0  0  0999 V2000
   27.7585   -8.4232  -20.1302 N   0  0  0  0  0  0  0  0  0  0  0  0
   27.5185   -9.5656  -19.3041 C   0  0  1  0  0  0  0  0  0  0  0  0
   27.8859   -9.3632  -17.8703 C   0  0  0  0  0  0  0  0  0  0  0  0
   29.3534   -9.2281  -17.7649 C   0  0  0  0  0  0  0  0  0  0  0  0
   29.9438   -8.0011  -17.6035 C   0  0  0  0  0  0  0  0  0  0  0  0
   31.3154   -7.8627  -17.5037 C   0  0  0  0  0  0  0  0  0  0  0  0
   32.0900   -9.0206  -17.5728 C   0  0  0  0  0  0  0  0  0  0  0  0
   31.5317  -10.2649  -17.7340 C   0  0  0  0  0  0  0  0  0  0  0  0
   30.1643  -10.3361  -17.8267 C   0  0  0  0  0  0  0  0  0  0  0  0
   26.1211  -10.0382  -19.4580 C   0  0  0  0  0  0  0  0  0  0  0  0
   25.7166  -11.1111  -18.9372 O   0  0  0  0  0  0  0  0  0  0  0  0
   25.1918   -9.2718  -20.2129 N   0  0  0  0  0  0  0  0  0  0  0  0
   23.8133   -9.6186  -20.3427 C   0  0  0  0  0  0  0  0  0  0  0  0
   23.5514  -10.5394  -21.4786 C   0  0  0  0  0  0  0  0  0  0  0  0
   23.7938  -10.1570  -22.6508 O   0  0  0  0  0  0  0  0  0  0  0  0
   23.4507  -18.3061  -19.3246 O   0  0  0  0  0  0  0  0  0  0  0  0
   23.5274  -17.1809  -20.1380 C   0  0  0  0  0  0  0  0  0  0  0  0
   23.2114  -17.2214  -21.4782 C   0  0  0  0  0  0  0  0  0  0  0  0
   23.2746  -16.1364  -22.3088 C   0  0  0  0  0  0  0  0  0  0  0  0
   23.6825  -14.9039  -21.7825 C   0  0  0  0  0  0  0  0  0  0  0  0
   23.7775  -13.7308  -22.6772 C   0  0  0  0  0  0  0  0  0  0  0  0
   22.7047  -12.7392  -22.4037 C   0  0  2  0  0  0  0  0  0  0  0  0
   23.0374  -11.8410  -21.3133 N   0  0  0  0  0  0  0  0  0  0  0  0
   21.4518  -13.4263  -22.0551 C   0  0  0  0  0  0  0  0  0  0  0  0
   20.8502  -14.2445  -23.0012 O   0  0  0  0  0  0  0  0  0  0  0  0
   24.0086  -14.8370  -20.4266 C   0  0  0  0  0  0  0  0  0  0  0  0
   23.9305  -15.9554  -19.6266 C   0  0  0  0  0  0  0  0  0  0  0  0
   20.8532  -13.3422  -20.9482 O   0  0  0  0  0  0  0  0  0  0  0  0
  2  1  1  6
  2 10  1  0
  2  3  1  0
  3  4  1  0
  4  5  2  0
  4  9  1  0
  5  6  1  0
  6  7  2  0
  8  7  1  0
  9  8  2  0
 10 11  2  0
 12 13  1  0
 12 10  1  0
 14 15  2  0
 14 13  1  0
 16 17  1  0
 17 27  2  0
 18 17  1  0
 18 19  2  0
 19 20  1  0
 20 26  2  0
 20 21  1  0
 22 21  1  1
 22 23  1  0
 22 24  1  0
 23 14  1  0
 24 25  1  0
 27 26  1  0
 28 24  2  0
M  END
$$$$
