FGY.pdb
     RDKit          3D

 28 29  0  0  1  0  0  0  0  0999 V2000
   26.0732  -20.9976   -7.5110 N   0  0  0  0  0  0  0  0  0  0  0  0
   26.8957  -20.1399   -8.3066 C   0  0  1  0  0  0  0  0  0  0  0  0
   28.3469  -20.1986   -7.9569 C   0  0  0  0  0  0  0  0  0  0  0  0
   28.5201  -19.7750   -6.5520 C   0  0  0  0  0  0  0  0  0  0  0  0
   28.4224  -18.4559   -6.1909 C   0  0  0  0  0  0  0  0  0  0  0  0
   28.5825  -18.0481   -4.8800 C   0  0  0  0  0  0  0  0  0  0  0  0
   28.8493  -19.0286   -3.9246 C   0  0  0  0  0  0  0  0  0  0  0  0
   28.9536  -20.3584   -4.2515 C   0  0  0  0  0  0  0  0  0  0  0  0
   28.7845  -20.6995   -5.5700 C   0  0  0  0  0  0  0  0  0  0  0  0
   26.6622  -20.3833   -9.7509 C   0  0  0  0  0  0  0  0  0  0  0  0
   26.9352  -19.5211  -10.6273 O   0  0  0  0  0  0  0  0  0  0  0  0
   26.1139  -21.6219  -10.1823 N   0  0  0  0  0  0  0  0  0  0  0  0
   25.8982  -21.9470  -11.5553 C   0  0  0  0  0  0  0  0  0  0  0  0
   24.5830  -21.4784  -12.0625 C   0  0  0  0  0  0  0  0  0  0  0  0
   23.6901  -21.1439  -11.2440 O   0  0  0  0  0  0  0  0  0  0  0  0
   18.2041  -16.9826  -15.5790 O   0  0  0  0  0  0  0  0  0  0  0  0
   19.3714  -17.5505  -15.0807 C   0  0  0  0  0  0  0  0  0  0  0  0
   20.5677  -17.4844  -15.7604 C   0  0  0  0  0  0  0  0  0  0  0  0
   21.7352  -18.0304  -15.3023 C   0  0  0  0  0  0  0  0  0  0  0  0
   21.7324  -18.6996  -14.0715 C   0  0  0  0  0  0  0  0  0  0  0  0
   22.9836  -19.3142  -13.5790 C   0  0  0  0  0  0  0  0  0  0  0  0
   23.0873  -20.7445  -13.9694 C   0  0  2  0  0  0  0  0  0  0  0  0
   24.2741  -21.3860  -13.4343 N   0  0  0  0  0  0  0  0  0  0  0  0
   23.1279  -20.8718  -15.4342 C   0  0  0  0  0  0  0  0  0  0  0  0
   24.2951  -20.5333  -16.1044 O   0  0  0  0  0  0  0  0  0  0  0  0
   20.5318  -18.7805  -13.3633 C   0  0  0  0  0  0  0  0  0  0  0  0
   19.3793  -18.2157  -13.8628 C   0  0  0  0  0  0  0  0  0  0  0  0
   22.1779  -21.2701  -16.1619 O   0  0  0  0  0  0  0  0  0  0  0  0
  2  1  1  1
  2 10  1  0
  2  3  1  0
  3  4  1  0
  4  5  2  0
  4  9  1  0
  5  6  1  0
  6  7  2  0
  8  7  1  0
  9  8  2  0
 10 11  2  0
 12 13  1  0
 12 10  1  0
 14 15  2  0
 14 13  1  0
 16 17  1  0
 17 27  2  0
 18 17  1  0
 18 19  2  0
 19 20  1  0
 20 26  2  0
 20 21  1  0
 22 21  1  6
 22 23  1  0
 22 24  1  0
 23 14  1  0
 24 25  1  0
 27 26  1  0
 28 24  2  0
M  END
$$$$
