CCW.pdb
     RDKit          3D

 27 28  0  0  1  0  0  0  0  0999 V2000
    9.6920  -14.8867   16.8004 N   0  0  0  0  0  0  0  0  0  0  0  0
    8.7098  -14.4173   17.7925 C   0  0  1  0  0  0  0  0  0  0  0  0
    7.4210  -14.1528   17.0644 C   0  0  0  0  0  0  0  0  0  0  0  0
    7.6500  -12.6629   16.0504 S   0  0  0  0  0  0  0  0  0  0  0  0
    8.6084  -15.3753   18.8784 C   0  0  0  0  0  0  0  0  0  0  0  0
    7.8003  -15.1204   19.8307 O   0  0  0  0  0  0  0  0  0  0  0  0
    9.3589  -16.6087   18.9671 N   0  0  0  0  0  0  0  0  0  0  0  0
    9.1806  -17.4215   20.1508 C   0  0  1  0  0  0  0  0  0  0  0  0
    9.9071  -18.7374   19.8614 C   0  0  0  0  0  0  0  0  0  0  0  0
    8.8420  -19.7292   18.7797 S   0  0  0  0  0  0  0  0  0  0  0  0
    9.6616  -16.7922   21.3808 C   0  0  0  0  0  0  0  0  0  0  0  0
   10.8603  -16.3688   21.4669 O   0  0  0  0  0  0  0  0  0  0  0  0
    8.8749  -16.5997   22.5415 N   0  0  0  0  0  0  0  0  0  0  0  0
    9.3788  -15.9395   23.7668 C   0  0  1  0  0  0  0  0  0  0  0  0
    8.1742  -15.1121   24.2064 C   0  0  0  0  0  0  0  0  0  0  0  0
    8.2513  -14.5828   25.5611 C   0  0  0  0  0  0  0  0  0  0  0  0
    8.9319  -14.9290   26.6797 C   0  0  0  0  0  0  0  0  0  0  0  0
    8.6369  -14.0673   27.6667 N   0  0  0  0  0  0  0  0  0  0  0  0
    7.7783  -13.1611   27.2242 C   0  0  0  0  0  0  0  0  0  0  0  0
    7.1825  -12.0682   27.8420 C   0  0  0  0  0  0  0  0  0  0  0  0
    6.3056  -11.2311   27.1719 C   0  0  0  0  0  0  0  0  0  0  0  0
    6.0407  -11.5246   25.8496 C   0  0  0  0  0  0  0  0  0  0  0  0
    6.6352  -12.6141   25.2379 C   0  0  0  0  0  0  0  0  0  0  0  0
    7.5094  -13.4424   25.9210 C   0  0  0  0  0  0  0  0  0  0  0  0
    9.8141  -16.9336   24.7310 C   0  0  0  0  0  0  0  0  0  0  0  0
   10.7405  -16.6080   25.5537 O   0  0  0  0  0  0  0  0  0  0  0  0
    9.3216  -18.1859   24.8379 O   0  0  0  0  0  0  0  0  0  0  0  0
  2  1  1  6
  2  5  1  0
  2  3  1  0
  3  4  1  0
  5  6  2  0
  7  8  1  0
  7  5  1  0
  8  9  1  6
 10  9  1  0
 11 12  2  0
 11  8  1  0
 13 11  1  0
 14 25  1  0
 14 13  1  0
 14 15  1  1
 16 15  1  0
 17 16  2  0
 18 17  1  0
 19 18  1  0
 19 24  2  0
 20 19  1  0
 21 20  2  0
 21 22  1  0
 22 23  2  0
 23 24  1  0
 24 16  1  0
 25 27  1  0
 26 25  2  0
M  END
$$$$
