CCW.pdb
     RDKit          3D

 27 28  0  0  1  0  0  0  0  0999 V2000
    7.2856  -15.2571   18.2814 N   0  0  0  0  0  0  0  0  0  0  0  0
    8.1137  -14.6739   19.3507 C   0  0  1  0  0  0  0  0  0  0  0  0
    7.4240  -13.4259   19.8284 C   0  0  0  0  0  0  0  0  0  0  0  0
    8.4786  -12.0093   19.4026 S   0  0  0  0  0  0  0  0  0  0  0  0
    8.3583  -15.6654   20.3823 C   0  0  0  0  0  0  0  0  0  0  0  0
    7.3622  -16.3188   20.8357 O   0  0  0  0  0  0  0  0  0  0  0  0
    9.6557  -15.9741   20.9428 N   0  0  0  0  0  0  0  0  0  0  0  0
    9.7131  -16.9500   22.0094 C   0  0  1  0  0  0  0  0  0  0  0  0
   10.7553  -17.9814   21.5698 C   0  0  0  0  0  0  0  0  0  0  0  0
   10.7831  -19.3017   22.8125 S   0  0  0  0  0  0  0  0  0  0  0  0
   10.0289  -16.3799   23.3192 C   0  0  0  0  0  0  0  0  0  0  0  0
   10.8279  -15.3924   23.4212 O   0  0  0  0  0  0  0  0  0  0  0  0
    9.4984  -16.8485   24.5447 N   0  0  0  0  0  0  0  0  0  0  0  0
    9.9387  -16.3492   25.8669 C   0  0  1  0  0  0  0  0  0  0  0  0
    8.6511  -16.4184   26.6832 C   0  0  0  0  0  0  0  0  0  0  0  0
    7.5484  -15.6212   26.1638 C   0  0  0  0  0  0  0  0  0  0  0  0
    6.4342  -15.8945   25.4439 C   0  0  0  0  0  0  0  0  0  0  0  0
    5.7382  -14.7622   25.2510 N   0  0  0  0  0  0  0  0  0  0  0  0
    6.3675  -13.7495   25.8276 C   0  0  0  0  0  0  0  0  0  0  0  0
    6.0586  -12.3979   25.9215 C   0  0  0  0  0  0  0  0  0  0  0  0
    6.8712  -11.5019   26.5965 C   0  0  0  0  0  0  0  0  0  0  0  0
    8.0152  -12.0060   27.1814 C   0  0  0  0  0  0  0  0  0  0  0  0
    8.3199  -13.3523   27.0851 C   0  0  0  0  0  0  0  0  0  0  0  0
    7.4981  -14.2358   26.4064 C   0  0  0  0  0  0  0  0  0  0  0  0
   11.0233  -17.1675   26.3778 C   0  0  0  0  0  0  0  0  0  0  0  0
   11.3036  -18.2515   25.7552 O   0  0  0  0  0  0  0  0  0  0  0  0
   11.7718  -16.8824   27.4645 O   0  0  0  0  0  0  0  0  0  0  0  0
  2  1  1  6
  2  5  1  0
  2  3  1  0
  3  4  1  0
  5  6  2  0
  7  8  1  0
  7  5  1  0
  8  9  1  6
 10  9  1  0
 11 12  2  0
 11  8  1  0
 13 11  1  0
 14 25  1  0
 14 13  1  0
 14 15  1  1
 16 15  1  0
 17 16  2  0
 18 17  1  0
 19 18  1  0
 19 24  2  0
 20 19  1  0
 21 20  2  0
 21 22  1  0
 22 23  2  0
 23 24  1  0
 24 16  1  0
 25 27  1  0
 26 25  2  0
M  END
$$$$
