CCW.pdb
     RDKit          3D

 27 28  0  0  1  0  0  0  0  0999 V2000
    5.8257  -20.3146   21.7587 N   0  0  0  0  0  0  0  0  0  0  0  0
    5.5575  -18.8680   21.8271 C   0  0  1  0  0  0  0  0  0  0  0  0
    4.8362  -18.6013   23.1193 C   0  0  0  0  0  0  0  0  0  0  0  0
    4.3830  -20.2039   23.8450 S   0  0  0  0  0  0  0  0  0  0  0  0
    6.7948  -18.1278   21.6582 C   0  0  0  0  0  0  0  0  0  0  0  0
    7.8947  -18.7589   21.7879 O   0  0  0  0  0  0  0  0  0  0  0  0
    6.8800  -16.7167   21.3516 N   0  0  0  0  0  0  0  0  0  0  0  0
    8.1927  -16.1083   21.3415 C   0  0  1  0  0  0  0  0  0  0  0  0
    8.0958  -14.9335   20.3649 C   0  0  0  0  0  0  0  0  0  0  0  0
    9.7670  -14.2688   20.1339 S   0  0  0  0  0  0  0  0  0  0  0  0
    8.6601  -15.6832   22.6610 C   0  0  0  0  0  0  0  0  0  0  0  0
    8.5303  -14.4724   23.0361 O   0  0  0  0  0  0  0  0  0  0  0  0
    9.2722  -16.5396   23.6070 N   0  0  0  0  0  0  0  0  0  0  0  0
   10.1576  -16.0562   24.6903 C   0  0  1  0  0  0  0  0  0  0  0  0
    9.3097  -16.3034   25.9349 C   0  0  0  0  0  0  0  0  0  0  0  0
    7.9910  -15.6854   25.9150 C   0  0  0  0  0  0  0  0  0  0  0  0
    6.7292  -16.1434   25.7349 C   0  0  0  0  0  0  0  0  0  0  0  0
    5.8644  -15.1207   25.8349 N   0  0  0  0  0  0  0  0  0  0  0  0
    6.5271  -13.9999   26.0773 C   0  0  0  0  0  0  0  0  0  0  0  0
    6.0984  -12.6923   26.2712 C   0  0  0  0  0  0  0  0  0  0  0  0
    6.9830  -11.6577   26.5276 C   0  0  0  0  0  0  0  0  0  0  0  0
    8.3249  -11.9757   26.5848 C   0  0  0  0  0  0  0  0  0  0  0  0
    8.7480  -13.2787   26.3906 C   0  0  0  0  0  0  0  0  0  0  0  0
    7.8518  -14.3023   26.1345 C   0  0  0  0  0  0  0  0  0  0  0  0
   11.4195  -16.7733   24.6660 C   0  0  0  0  0  0  0  0  0  0  0  0
   12.3239  -16.4276   25.5049 O   0  0  0  0  0  0  0  0  0  0  0  0
   11.7267  -17.7853   23.8270 O   0  0  0  0  0  0  0  0  0  0  0  0
  2  1  1  1
  2  5  1  0
  2  3  1  0
  3  4  1  0
  5  6  2  0
  7  8  1  0
  7  5  1  0
  8  9  1  6
 10  9  1  0
 11 12  2  0
 11  8  1  0
 13 11  1  0
 14 25  1  0
 14 13  1  0
 14 15  1  1
 16 15  1  0
 17 16  2  0
 18 17  1  0
 19 18  1  0
 19 24  2  0
 20 19  1  0
 21 20  2  0
 21 22  1  0
 22 23  2  0
 23 24  1  0
 24 16  1  0
 25 27  1  0
 26 25  2  0
M  END
$$$$
