CCW.pdb
     RDKit          3D

 27 28  0  0  1  0  0  0  0  0999 V2000
    6.9721  -15.7637   19.4446 N   0  0  0  0  0  0  0  0  0  0  0  0
    8.0697  -15.1271   20.1926 C   0  0  1  0  0  0  0  0  0  0  0  0
    7.5957  -13.7663   20.6226 C   0  0  0  0  0  0  0  0  0  0  0  0
    6.3268  -13.9974   21.9019 S   0  0  0  0  0  0  0  0  0  0  0  0
    8.4953  -15.9928   21.2772 C   0  0  0  0  0  0  0  0  0  0  0  0
    7.7025  -16.9169   21.6547 O   0  0  0  0  0  0  0  0  0  0  0  0
    9.7602  -15.8894   21.9714 N   0  0  0  0  0  0  0  0  0  0  0  0
   10.0612  -16.8878   22.9744 C   0  0  1  0  0  0  0  0  0  0  0  0
   11.2844  -17.6442   22.4501 C   0  0  0  0  0  0  0  0  0  0  0  0
   12.4843  -16.4161   21.8671 S   0  0  0  0  0  0  0  0  0  0  0  0
   10.2920  -16.3368   24.3098 C   0  0  0  0  0  0  0  0  0  0  0  0
   10.9502  -15.2562   24.4608 O   0  0  0  0  0  0  0  0  0  0  0  0
    9.8244  -16.9244   25.5095 N   0  0  0  0  0  0  0  0  0  0  0  0
   10.2492  -16.4771   26.8551 C   0  0  1  0  0  0  0  0  0  0  0  0
    8.9238  -16.4195   27.6095 C   0  0  0  0  0  0  0  0  0  0  0  0
    7.8471  -15.7298   26.9121 C   0  0  0  0  0  0  0  0  0  0  0  0
    6.7923  -16.1279   26.1616 C   0  0  0  0  0  0  0  0  0  0  0  0
    6.0919  -15.0513   25.7689 N   0  0  0  0  0  0  0  0  0  0  0  0
    6.6603  -13.9534   26.2438 C   0  0  0  0  0  0  0  0  0  0  0  0
    6.3216  -12.6104   26.1313 C   0  0  0  0  0  0  0  0  0  0  0  0
    7.0678  -11.6098   26.7318 C   0  0  0  0  0  0  0  0  0  0  0  0
    8.1758  -11.9992   27.4569 C   0  0  0  0  0  0  0  0  0  0  0  0
    8.5105  -13.3373   27.5661 C   0  0  0  0  0  0  0  0  0  0  0  0
    7.7551  -14.3263   26.9595 C   0  0  0  0  0  0  0  0  0  0  0  0
   11.2207  -17.4026   27.4093 C   0  0  0  0  0  0  0  0  0  0  0  0
   11.7398  -17.1202   28.5459 O   0  0  0  0  0  0  0  0  0  0  0  0
   11.6294  -18.5487   26.8247 O   0  0  0  0  0  0  0  0  0  0  0  0
  2  1  1  1
  2  5  1  0
  2  3  1  0
  3  4  1  0
  5  6  2  0
  7  8  1  0
  7  5  1  0
  8  9  1  6
 10  9  1  0
 11 12  2  0
 11  8  1  0
 13 11  1  0
 14 25  1  0
 14 13  1  0
 14 15  1  1
 16 15  1  0
 17 16  2  0
 18 17  1  0
 19 18  1  0
 19 24  2  0
 20 19  1  0
 21 20  2  0
 21 22  1  0
 22 23  2  0
 23 24  1  0
 24 16  1  0
 25 27  1  0
 26 25  2  0
M  END
$$$$
