CCW.pdb
     RDKit          3D

 27 28  0  0  1  0  0  0  0  0999 V2000
    7.8995  -15.9610   17.9246 N   0  0  0  0  0  0  0  0  0  0  0  0
    8.7241  -15.3457   18.9784 C   0  0  1  0  0  0  0  0  0  0  0  0
    8.2064  -13.9519   19.2032 C   0  0  0  0  0  0  0  0  0  0  0  0
    6.7737  -14.0627   20.3147 S   0  0  0  0  0  0  0  0  0  0  0  0
    8.7274  -16.1901   20.1591 C   0  0  0  0  0  0  0  0  0  0  0  0
    8.0900  -17.2929   20.1106 O   0  0  0  0  0  0  0  0  0  0  0  0
    9.4030  -15.8767   21.3993 N   0  0  0  0  0  0  0  0  0  0  0  0
    9.6335  -16.9583   22.3322 C   0  0  1  0  0  0  0  0  0  0  0  0
   10.5600  -17.9381   21.6077 C   0  0  0  0  0  0  0  0  0  0  0  0
   10.8375  -19.3518   22.7088 S   0  0  0  0  0  0  0  0  0  0  0  0
   10.1908  -16.5277   23.6144 C   0  0  0  0  0  0  0  0  0  0  0  0
   11.3048  -15.9109   23.6631 O   0  0  0  0  0  0  0  0  0  0  0  0
    9.5716  -16.7432   24.8687 N   0  0  0  0  0  0  0  0  0  0  0  0
   10.1269  -16.2456   26.1474 C   0  0  1  0  0  0  0  0  0  0  0  0
    8.8963  -16.2311   27.0500 C   0  0  0  0  0  0  0  0  0  0  0  0
    7.7030  -15.6446   26.4556 C   0  0  0  0  0  0  0  0  0  0  0  0
    6.5661  -16.1446   25.9154 C   0  0  0  0  0  0  0  0  0  0  0  0
    5.7741  -15.1324   25.5256 N   0  0  0  0  0  0  0  0  0  0  0  0
    6.3625  -13.9773   25.7970 C   0  0  0  0  0  0  0  0  0  0  0  0
    5.9586  -12.6621   25.6017 C   0  0  0  0  0  0  0  0  0  0  0  0
    6.7448  -11.5863   25.9799 C   0  0  0  0  0  0  0  0  0  0  0  0
    7.9615  -11.8705   26.5664 C   0  0  0  0  0  0  0  0  0  0  0  0
    8.3607  -13.1814   26.7586 C   0  0  0  0  0  0  0  0  0  0  0  0
    7.5639  -14.2465   26.3747 C   0  0  0  0  0  0  0  0  0  0  0  0
   11.1994  -17.1123   26.6011 C   0  0  0  0  0  0  0  0  0  0  0  0
   11.8715  -16.7494   27.6296 O   0  0  0  0  0  0  0  0  0  0  0  0
   11.5543  -18.2816   26.0274 O   0  0  0  0  0  0  0  0  0  0  0  0
  2  1  1  6
  2  5  1  0
  2  3  1  0
  3  4  1  0
  5  6  2  0
  7  8  1  0
  7  5  1  0
  8  9  1  6
 10  9  1  0
 11 12  2  0
 11  8  1  0
 13 11  1  0
 14 25  1  0
 14 13  1  0
 14 15  1  1
 16 15  1  0
 17 16  2  0
 18 17  1  0
 19 18  1  0
 19 24  2  0
 20 19  1  0
 21 20  2  0
 21 22  1  0
 22 23  2  0
 23 24  1  0
 24 16  1  0
 25 27  1  0
 26 25  2  0
M  END
$$$$
