CCW.pdb
     RDKit          3D

 27 28  0  0  1  0  0  0  0  0999 V2000
    6.0243  -20.1142   20.5389 N   0  0  0  0  0  0  0  0  0  0  0  0
    5.7366  -19.0409   21.5056 C   0  0  1  0  0  0  0  0  0  0  0  0
    5.6996  -19.6619   22.8747 C   0  0  0  0  0  0  0  0  0  0  0  0
    5.3245  -18.3480   24.0720 S   0  0  0  0  0  0  0  0  0  0  0  0
    6.7005  -17.9665   21.3519 C   0  0  0  0  0  0  0  0  0  0  0  0
    7.9307  -18.2763   21.2281 O   0  0  0  0  0  0  0  0  0  0  0  0
    6.3730  -16.5576   21.3281 N   0  0  0  0  0  0  0  0  0  0  0  0
    7.4681  -15.6127   21.2900 C   0  0  1  0  0  0  0  0  0  0  0  0
    6.9149  -14.3675   20.5923 C   0  0  0  0  0  0  0  0  0  0  0  0
    8.2853  -13.1989   20.3812 S   0  0  0  0  0  0  0  0  0  0  0  0
    8.0265  -15.2980   22.6051 C   0  0  0  0  0  0  0  0  0  0  0  0
    7.5458  -14.3464   23.3031 O   0  0  0  0  0  0  0  0  0  0  0  0
    9.1053  -15.9919   23.2030 N   0  0  0  0  0  0  0  0  0  0  0  0
   10.0029  -15.3874   24.2131 C   0  0  1  0  0  0  0  0  0  0  0  0
    9.3884  -15.8730   25.5229 C   0  0  0  0  0  0  0  0  0  0  0  0
    8.0504  -15.3688   25.8003 C   0  0  0  0  0  0  0  0  0  0  0  0
    6.8086  -15.9090   25.7837 C   0  0  0  0  0  0  0  0  0  0  0  0
    5.9118  -14.9785   26.1494 N   0  0  0  0  0  0  0  0  0  0  0  0
    6.5340  -13.8381   26.4069 C   0  0  0  0  0  0  0  0  0  0  0  0
    6.0640  -12.5986   26.8242 C   0  0  0  0  0  0  0  0  0  0  0  0
    6.9121  -11.5266   27.0476 C   0  0  0  0  0  0  0  0  0  0  0  0
    8.2603  -11.7355   26.8385 C   0  0  0  0  0  0  0  0  0  0  0  0
    8.7246  -12.9708   26.4223 C   0  0  0  0  0  0  0  0  0  0  0  0
    7.8643  -14.0330   26.2024 C   0  0  0  0  0  0  0  0  0  0  0  0
   11.3715  -15.8174   23.9912 C   0  0  0  0  0  0  0  0  0  0  0  0
   11.5773  -16.7545   23.1423 O   0  0  0  0  0  0  0  0  0  0  0  0
   12.4594  -15.3095   24.6084 O   0  0  0  0  0  0  0  0  0  0  0  0
  2  1  1  6
  2  5  1  0
  2  3  1  0
  3  4  1  0
  5  6  2  0
  7  8  1  0
  7  5  1  0
  8  9  1  1
 10  9  1  0
 11 12  2  0
 11  8  1  0
 13 11  1  0
 14 25  1  0
 14 13  1  0
 14 15  1  1
 16 15  1  0
 17 16  2  0
 18 17  1  0
 19 18  1  0
 19 24  2  0
 20 19  1  0
 21 20  2  0
 21 22  1  0
 22 23  2  0
 23 24  1  0
 24 16  1  0
 25 27  1  0
 26 25  2  0
M  END
$$$$
