MDW.pdb
     RDKit          3D

 31 32  0  0  1  0  0  0  0  0999 V2000
    8.0494  -11.1401   20.2527 C   0  0  0  0  0  0  0  0  0  0  0  0
    7.0873  -12.4690   19.5009 S   0  0  0  0  0  0  0  0  0  0  0  0
    7.9301  -14.0772   19.5976 C   0  0  0  0  0  0  0  0  0  0  0  0
    8.2563  -14.4312   21.0297 C   0  0  0  0  0  0  0  0  0  0  0  0
    9.6304  -15.0321   21.1854 C   0  0  2  0  0  0  0  0  0  0  0  0
    9.9943  -15.6594   19.9391 N   0  0  0  0  0  0  0  0  0  0  0  0
    9.6216  -16.0590   22.2802 C   0  0  0  0  0  0  0  0  0  0  0  0
    8.6288  -15.9989   23.0716 O   0  0  0  0  0  0  0  0  0  0  0  0
   10.6446  -17.0160   22.4129 N   0  0  0  0  0  0  0  0  0  0  0  0
   10.6716  -17.9315   23.5211 C   0  0  1  0  0  0  0  0  0  0  0  0
   11.7672  -18.9368   23.3786 C   0  0  0  0  0  0  0  0  0  0  0  0
   11.7560  -19.7122   22.1240 C   0  0  0  0  0  0  0  0  0  0  0  0
   10.8899  -20.5740   21.8239 O   0  0  0  0  0  0  0  0  0  0  0  0
   10.7959  -17.2112   24.8161 C   0  0  0  0  0  0  0  0  0  0  0  0
   11.6816  -16.3506   24.9388 O   0  0  0  0  0  0  0  0  0  0  0  0
   12.7537  -19.5217   21.1583 O   0  0  0  0  0  0  0  0  0  0  0  0
    9.9503  -17.4599   25.9201 N   0  0  0  0  0  0  0  0  0  0  0  0
   10.1151  -16.7386   27.2051 C   0  0  1  0  0  0  0  0  0  0  0  0
    8.7868  -16.3801   27.7610 C   0  0  0  0  0  0  0  0  0  0  0  0
    7.8142  -15.7634   26.8569 C   0  0  0  0  0  0  0  0  0  0  0  0
    6.8095  -16.4226   26.1380 C   0  0  0  0  0  0  0  0  0  0  0  0
    6.1227  -15.5567   25.3824 N   0  0  0  0  0  0  0  0  0  0  0  0
    6.6547  -14.3338   25.5888 C   0  0  0  0  0  0  0  0  0  0  0  0
    6.3305  -13.0738   25.0826 C   0  0  0  0  0  0  0  0  0  0  0  0
    7.0235  -11.9510   25.4676 C   0  0  0  0  0  0  0  0  0  0  0  0
    8.0593  -12.0705   26.3713 C   0  0  0  0  0  0  0  0  0  0  0  0
    8.3974  -13.2933   26.8815 C   0  0  0  0  0  0  0  0  0  0  0  0
    7.7005  -14.4382   26.4962 C   0  0  0  0  0  0  0  0  0  0  0  0
   10.9837  -17.5390   28.0654 C   0  0  0  0  0  0  0  0  0  0  0  0
   11.5065  -17.0442   29.2782 O   0  0  0  0  0  0  0  0  0  0  0  0
   11.3211  -18.7220   27.7784 O   0  0  0  0  0  0  0  0  0  0  0  0
  1  2  1  0
  3  4  1  0
  3  2  1  0
  5  4  1  0
  5  6  1  6
  7  8  2  0
  7  5  1  0
  9  7  1  0
 10  9  1  0
 10 11  1  6
 12 16  1  0
 12 11  1  0
 13 12  2  0
 14 17  1  0
 14 10  1  0
 15 14  2  0
 18 29  1  0
 18 17  1  0
 18 19  1  1
 19 20  1  0
 20 21  2  0
 20 28  1  0
 21 22  1  0
 22 23  1  0
 23 24  2  0
 25 24  1  0
 26 25  2  0
 27 28  2  0
 27 26  1  0
 28 23  1  0
 29 30  1  0
 31 29  2  0
M  END
$$$$
