MDW.pdb
     RDKit          3D

 31 32  0  0  1  0  0  0  0  0999 V2000
    7.7742  -11.8948   20.8442 C   0  0  0  0  0  0  0  0  0  0  0  0
    6.8328  -13.4331   20.9111 S   0  0  0  0  0  0  0  0  0  0  0  0
    7.7431  -14.8361   20.1978 C   0  0  0  0  0  0  0  0  0  0  0  0
    8.3967  -15.6629   21.2803 C   0  0  0  0  0  0  0  0  0  0  0  0
    9.2877  -16.7479   20.7302 C   0  0  2  0  0  0  0  0  0  0  0  0
    8.6025  -17.3832   19.6320 N   0  0  0  0  0  0  0  0  0  0  0  0
    9.5781  -17.7643   21.7958 C   0  0  0  0  0  0  0  0  0  0  0  0
    9.5004  -18.9771   21.4236 O   0  0  0  0  0  0  0  0  0  0  0  0
    9.9114  -17.3911   23.1110 N   0  0  0  0  0  0  0  0  0  0  0  0
   11.2809  -17.3184   23.5422 C   0  0  1  0  0  0  0  0  0  0  0  0
   12.1617  -16.7391   22.4839 C   0  0  0  0  0  0  0  0  0  0  0  0
   13.6056  -16.7513   22.7850 C   0  0  0  0  0  0  0  0  0  0  0  0
   14.2623  -15.7527   23.1781 O   0  0  0  0  0  0  0  0  0  0  0  0
   11.4112  -16.5434   24.8046 C   0  0  0  0  0  0  0  0  0  0  0  0
   12.5324  -16.4329   25.3251 O   0  0  0  0  0  0  0  0  0  0  0  0
   14.3546  -17.9272   22.6422 O   0  0  0  0  0  0  0  0  0  0  0  0
   10.3150  -15.9230   25.4442 N   0  0  0  0  0  0  0  0  0  0  0  0
    9.9930  -16.1864   26.8675 C   0  0  1  0  0  0  0  0  0  0  0  0
    8.5289  -16.3619   27.0335 C   0  0  0  0  0  0  0  0  0  0  0  0
    7.6466  -15.4526   26.2998 C   0  0  0  0  0  0  0  0  0  0  0  0
    6.6516  -15.8150   25.3836 C   0  0  0  0  0  0  0  0  0  0  0  0
    6.0590  -14.7279   24.8741 N   0  0  0  0  0  0  0  0  0  0  0  0
    6.6440  -13.6504   25.4379 C   0  0  0  0  0  0  0  0  0  0  0  0
    6.4196  -12.2801   25.2933 C   0  0  0  0  0  0  0  0  0  0  0  0
    7.1490  -11.3592   26.0068 C   0  0  0  0  0  0  0  0  0  0  0  0
    8.1215  -11.7963   26.8825 C   0  0  0  0  0  0  0  0  0  0  0  0
    8.3615  -13.1331   27.0419 C   0  0  0  0  0  0  0  0  0  0  0  0
    7.6271  -14.0748   26.3218 C   0  0  0  0  0  0  0  0  0  0  0  0
   10.8346  -17.2897   27.3253 C   0  0  0  0  0  0  0  0  0  0  0  0
   11.6966  -17.9909   26.4568 O   0  0  0  0  0  0  0  0  0  0  0  0
   10.8437  -17.6849   28.5250 O   0  0  0  0  0  0  0  0  0  0  0  0
  1  2  1  0
  3  4  1  0
  3  2  1  0
  5  4  1  0
  5  6  1  6
  7  8  2  0
  7  5  1  0
  9  7  1  0
 10  9  1  0
 10 11  1  6
 12 16  1  0
 12 11  1  0
 13 12  2  0
 14 17  1  0
 14 10  1  0
 15 14  2  0
 18 29  1  0
 18 17  1  0
 18 19  1  6
 19 20  1  0
 20 21  2  0
 20 28  1  0
 21 22  1  0
 22 23  1  0
 23 24  2  0
 25 24  1  0
 26 25  2  0
 27 28  2  0
 27 26  1  0
 28 23  1  0
 29 30  1  0
 31 29  2  0
M  END
$$$$
