MDW.pdb
     RDKit          3D

 31 32  0  0  1  0  0  0  0  0999 V2000
    7.9865  -12.5069   18.5039 C   0  0  0  0  0  0  0  0  0  0  0  0
    7.3953  -13.2832   20.0221 S   0  0  0  0  0  0  0  0  0  0  0  0
    7.8284  -15.0467   20.1146 C   0  0  0  0  0  0  0  0  0  0  0  0
    8.8836  -15.3985   19.0922 C   0  0  0  0  0  0  0  0  0  0  0  0
    9.2397  -16.8637   19.0994 C   0  0  2  0  0  0  0  0  0  0  0  0
    8.0256  -17.6258   18.9440 N   0  0  0  0  0  0  0  0  0  0  0  0
    9.8970  -17.2266   20.3992 C   0  0  0  0  0  0  0  0  0  0  0  0
    9.1780  -17.9029   21.1999 O   0  0  0  0  0  0  0  0  0  0  0  0
   11.2161  -16.8405   20.7009 N   0  0  0  0  0  0  0  0  0  0  0  0
   11.8060  -17.1330   21.9789 C   0  0  1  0  0  0  0  0  0  0  0  0
   13.2725  -16.8487   21.9868 C   0  0  0  0  0  0  0  0  0  0  0  0
   14.1436  -18.0073   21.7139 C   0  0  0  0  0  0  0  0  0  0  0  0
   13.8252  -19.2063   21.9241 O   0  0  0  0  0  0  0  0  0  0  0  0
   11.1287  -16.3862   23.0721 C   0  0  0  0  0  0  0  0  0  0  0  0
   10.8825  -15.1808   22.9091 O   0  0  0  0  0  0  0  0  0  0  0  0
   15.4280  -17.8253   21.1836 O   0  0  0  0  0  0  0  0  0  0  0  0
   10.7496  -16.9850   24.2941 N   0  0  0  0  0  0  0  0  0  0  0  0
    9.8081  -16.3209   25.2275 C   0  0  1  0  0  0  0  0  0  0  0  0
    8.5862  -15.8960   24.5006 C   0  0  0  0  0  0  0  0  0  0  0  0
    7.5689  -15.1582   25.2519 C   0  0  0  0  0  0  0  0  0  0  0  0
    6.3054  -15.6297   25.6285 C   0  0  0  0  0  0  0  0  0  0  0  0
    5.6195  -14.6794   26.2758 N   0  0  0  0  0  0  0  0  0  0  0  0
    6.4075  -13.5856   26.3354 C   0  0  0  0  0  0  0  0  0  0  0  0
    6.2165  -12.3234   26.9004 C   0  0  0  0  0  0  0  0  0  0  0  0
    7.1976  -11.3622   26.8464 C   0  0  0  0  0  0  0  0  0  0  0  0
    8.3941  -11.6495   26.2222 C   0  0  0  0  0  0  0  0  0  0  0  0
    8.6062  -12.8780   25.6603 C   0  0  0  0  0  0  0  0  0  0  0  0
    7.6164  -13.8591   25.7094 C   0  0  0  0  0  0  0  0  0  0  0  0
    9.6067  -17.2055   26.3730 C   0  0  0  0  0  0  0  0  0  0  0  0
   10.1996  -18.4828   26.4524 O   0  0  0  0  0  0  0  0  0  0  0  0
    8.8906  -16.8837   27.3625 O   0  0  0  0  0  0  0  0  0  0  0  0
  1  2  1  0
  3  4  1  0
  3  2  1  0
  5  4  1  0
  5  6  1  1
  7  8  2  0
  7  5  1  0
  9  7  1  0
 10  9  1  0
 10 11  1  6
 12 16  1  0
 12 11  1  0
 13 12  2  0
 14 17  1  0
 14 10  1  0
 15 14  2  0
 18 29  1  0
 18 17  1  0
 18 19  1  6
 19 20  1  0
 20 21  2  0
 20 28  1  0
 21 22  1  0
 22 23  1  0
 23 24  2  0
 25 24  1  0
 26 25  2  0
 27 28  2  0
 27 26  1  0
 28 23  1  0
 29 30  1  0
 31 29  2  0
M  END
$$$$
