MDW.pdb
     RDKit          3D

 31 32  0  0  1  0  0  0  0  0999 V2000
    8.8929  -11.6614   20.0585 C   0  0  0  0  0  0  0  0  0  0  0  0
    7.2813  -12.3653   19.6529 S   0  0  0  0  0  0  0  0  0  0  0  0
    7.3477  -14.1684   19.4282 C   0  0  0  0  0  0  0  0  0  0  0  0
    7.9488  -14.8423   20.6394 C   0  0  0  0  0  0  0  0  0  0  0  0
    8.0889  -16.3340   20.4696 C   0  0  2  0  0  0  0  0  0  0  0  0
    6.7776  -16.8893   20.2433 N   0  0  0  0  0  0  0  0  0  0  0  0
    8.6831  -16.9389   21.7082 C   0  0  0  0  0  0  0  0  0  0  0  0
    7.8472  -17.4602   22.5114 O   0  0  0  0  0  0  0  0  0  0  0  0
   10.0685  -16.9247   21.9540 N   0  0  0  0  0  0  0  0  0  0  0  0
   10.6345  -17.6185   23.0788 C   0  0  1  0  0  0  0  0  0  0  0  0
   12.0352  -18.0599   22.8058 C   0  0  0  0  0  0  0  0  0  0  0  0
   12.8696  -17.0963   22.0636 C   0  0  0  0  0  0  0  0  0  0  0  0
   14.0665  -16.8251   22.3405 O   0  0  0  0  0  0  0  0  0  0  0  0
   10.5855  -16.7857   24.3098 C   0  0  0  0  0  0  0  0  0  0  0  0
   11.0881  -15.6512   24.2844 O   0  0  0  0  0  0  0  0  0  0  0  0
   12.3498  -16.4015   20.9630 O   0  0  0  0  0  0  0  0  0  0  0  0
    9.9915  -17.2250   25.5139 N   0  0  0  0  0  0  0  0  0  0  0  0
   10.1589  -16.4766   26.7830 C   0  0  1  0  0  0  0  0  0  0  0  0
    8.8451  -16.3111   27.4528 C   0  0  0  0  0  0  0  0  0  0  0  0
    7.7919  -15.6050   26.7209 C   0  0  0  0  0  0  0  0  0  0  0  0
    6.7413  -16.1884   26.0021 C   0  0  0  0  0  0  0  0  0  0  0  0
    5.9814  -15.2476   25.4277 N   0  0  0  0  0  0  0  0  0  0  0  0
    6.5100  -14.0498   25.7543 C   0  0  0  0  0  0  0  0  0  0  0  0
    6.1260  -12.7424   25.4504 C   0  0  0  0  0  0  0  0  0  0  0  0
    6.8314  -11.6633   25.9269 C   0  0  0  0  0  0  0  0  0  0  0  0
    7.9400  -11.8751   26.7205 C   0  0  0  0  0  0  0  0  0  0  0  0
    8.3376  -13.1458   27.0323 C   0  0  0  0  0  0  0  0  0  0  0  0
    7.6288  -14.2469   26.5528 C   0  0  0  0  0  0  0  0  0  0  0  0
   11.2057  -17.1346   27.5618 C   0  0  0  0  0  0  0  0  0  0  0  0
   11.7905  -16.5350   28.6966 O   0  0  0  0  0  0  0  0  0  0  0  0
   11.6526  -18.2793   27.2692 O   0  0  0  0  0  0  0  0  0  0  0  0
  1  2  1  0
  3  4  1  0
  3  2  1  0
  5  4  1  0
  5  6  1  1
  7  8  2  0
  7  5  1  0
  9  7  1  0
 10  9  1  0
 10 11  1  6
 12 16  1  0
 12 11  1  0
 13 12  2  0
 14 17  1  0
 14 10  1  0
 15 14  2  0
 18 29  1  0
 18 17  1  0
 18 19  1  1
 19 20  1  0
 20 21  2  0
 20 28  1  0
 21 22  1  0
 22 23  1  0
 23 24  2  0
 25 24  1  0
 26 25  2  0
 27 28  2  0
 27 26  1  0
 28 23  1  0
 29 30  1  0
 31 29  2  0
M  END
$$$$
