MDW.pdb
     RDKit          3D

 31 32  0  0  1  0  0  0  0  0999 V2000
    6.0727  -12.5384   18.8593 C   0  0  0  0  0  0  0  0  0  0  0  0
    7.7075  -12.5924   19.6220 S   0  0  0  0  0  0  0  0  0  0  0  0
    8.4706  -14.2392   19.5134 C   0  0  0  0  0  0  0  0  0  0  0  0
    9.8686  -14.2259   20.0861 C   0  0  0  0  0  0  0  0  0  0  0  0
   10.5429  -15.5727   20.0145 C   0  0  2  0  0  0  0  0  0  0  0  0
   10.0408  -16.2697   18.8564 N   0  0  0  0  0  0  0  0  0  0  0  0
   10.2364  -16.3675   21.2504 C   0  0  0  0  0  0  0  0  0  0  0  0
    9.0375  -16.2852   21.6643 O   0  0  0  0  0  0  0  0  0  0  0  0
   11.2140  -17.1454   21.8980 N   0  0  0  0  0  0  0  0  0  0  0  0
   10.8958  -17.9275   23.0615 C   0  0  1  0  0  0  0  0  0  0  0  0
   11.7127  -19.1765   23.1261 C   0  0  0  0  0  0  0  0  0  0  0  0
   11.3897  -20.0876   24.2402 C   0  0  0  0  0  0  0  0  0  0  0  0
   12.2380  -20.5899   25.0219 O   0  0  0  0  0  0  0  0  0  0  0  0
   11.0625  -17.1355   24.3091 C   0  0  0  0  0  0  0  0  0  0  0  0
   12.2103  -16.8935   24.7144 O   0  0  0  0  0  0  0  0  0  0  0  0
   10.0628  -20.4582   24.4972 O   0  0  0  0  0  0  0  0  0  0  0  0
    9.9723  -16.6423   25.0598 N   0  0  0  0  0  0  0  0  0  0  0  0
   10.0776  -16.4006   26.5190 C   0  0  1  0  0  0  0  0  0  0  0  0
    8.7232  -16.3006   27.1170 C   0  0  0  0  0  0  0  0  0  0  0  0
    7.7513  -15.4254   26.4589 C   0  0  0  0  0  0  0  0  0  0  0  0
    6.6387  -15.8289   25.7107 C   0  0  0  0  0  0  0  0  0  0  0  0
    5.9852  -14.7664   25.2242 N   0  0  0  0  0  0  0  0  0  0  0  0
    6.6456  -13.6648   25.6381 C   0  0  0  0  0  0  0  0  0  0  0  0
    6.4079  -12.3027   25.4453 C   0  0  0  0  0  0  0  0  0  0  0  0
    7.2315  -11.3504   25.9966 C   0  0  0  0  0  0  0  0  0  0  0  0
    8.3137  -11.7471   26.7550 C   0  0  0  0  0  0  0  0  0  0  0  0
    8.5690  -13.0750   26.9584 C   0  0  0  0  0  0  0  0  0  0  0  0
    7.7395  -14.0484   26.4024 C   0  0  0  0  0  0  0  0  0  0  0  0
   10.9624  -17.4173   27.0836 C   0  0  0  0  0  0  0  0  0  0  0  0
   11.4825  -17.3221   28.3911 O   0  0  0  0  0  0  0  0  0  0  0  0
   11.3172  -18.4436   26.4383 O   0  0  0  0  0  0  0  0  0  0  0  0
  1  2  1  0
  3  4  1  0
  3  2  1  0
  5  4  1  0
  5  6  1  6
  7  8  2  0
  7  5  1  0
  9  7  1  0
 10  9  1  0
 10 11  1  1
 12 16  1  0
 12 11  1  0
 13 12  2  0
 14 17  1  0
 14 10  1  0
 15 14  2  0
 18 29  1  0
 18 17  1  0
 18 19  1  1
 19 20  1  0
 20 21  2  0
 20 28  1  0
 21 22  1  0
 22 23  1  0
 23 24  2  0
 25 24  1  0
 26 25  2  0
 27 28  2  0
 27 26  1  0
 28 23  1  0
 29 30  1  0
 31 29  2  0
M  END
$$$$
