MDW.pdb
     RDKit          3D

 31 32  0  0  1  0  0  0  0  0999 V2000
    8.8691  -12.1074   20.7497 C   0  0  0  0  0  0  0  0  0  0  0  0
    7.3798  -12.6678   21.6010 S   0  0  0  0  0  0  0  0  0  0  0  0
    7.3332  -14.4742   21.8028 C   0  0  0  0  0  0  0  0  0  0  0  0
    7.6383  -15.1719   20.4978 C   0  0  0  0  0  0  0  0  0  0  0  0
    7.7125  -16.6712   20.6395 C   0  0  2  0  0  0  0  0  0  0  0  0
    6.3815  -17.1697   20.8820 N   0  0  0  0  0  0  0  0  0  0  0  0
    8.6025  -17.0353   21.7921 C   0  0  0  0  0  0  0  0  0  0  0  0
    8.0386  -17.6843   22.7283 O   0  0  0  0  0  0  0  0  0  0  0  0
    9.9633  -16.6787   21.8250 N   0  0  0  0  0  0  0  0  0  0  0  0
   10.8436  -17.1849   22.8426 C   0  0  1  0  0  0  0  0  0  0  0  0
   12.2779  -16.9517   22.4962 C   0  0  0  0  0  0  0  0  0  0  0  0
   12.7066  -17.4774   21.1865 C   0  0  0  0  0  0  0  0  0  0  0  0
   12.4743  -18.6428   20.7732 O   0  0  0  0  0  0  0  0  0  0  0  0
   10.5304  -16.5964   24.1719 C   0  0  0  0  0  0  0  0  0  0  0  0
   10.3393  -15.3729   24.2538 O   0  0  0  0  0  0  0  0  0  0  0  0
   13.4275  -16.6712   20.2951 O   0  0  0  0  0  0  0  0  0  0  0  0
   10.4391  -17.3661   25.3529 N   0  0  0  0  0  0  0  0  0  0  0  0
   10.2284  -16.7360   26.6785 C   0  0  1  0  0  0  0  0  0  0  0  0
    8.8407  -16.9813   27.1433 C   0  0  0  0  0  0  0  0  0  0  0  0
    7.7701  -16.1843   26.5412 C   0  0  0  0  0  0  0  0  0  0  0  0
    6.7155  -16.6637   25.7548 C   0  0  0  0  0  0  0  0  0  0  0  0
    5.9380  -15.6555   25.3405 N   0  0  0  0  0  0  0  0  0  0  0  0
    6.4592  -14.5153   25.8398 C   0  0  0  0  0  0  0  0  0  0  0  0
    6.0579  -13.1816   25.7443 C   0  0  0  0  0  0  0  0  0  0  0  0
    6.7590  -12.1795   26.3715 C   0  0  0  0  0  0  0  0  0  0  0  0
    7.8809  -12.4967   27.1095 C   0  0  0  0  0  0  0  0  0  0  0  0
    8.2956  -13.7952   27.2182 C   0  0  0  0  0  0  0  0  0  0  0  0
    7.5910  -14.8186   26.5848 C   0  0  0  0  0  0  0  0  0  0  0  0
   11.2987  -17.1829   27.5674 C   0  0  0  0  0  0  0  0  0  0  0  0
   12.2912  -18.0951   27.1529 O   0  0  0  0  0  0  0  0  0  0  0  0
   11.4029  -16.7820   28.7607 O   0  0  0  0  0  0  0  0  0  0  0  0
  1  2  1  0
  3  4  1  0
  3  2  1  0
  5  4  1  0
  5  6  1  1
  7  8  2  0
  7  5  1  0
  9  7  1  0
 10  9  1  0
 10 11  1  6
 12 16  1  0
 12 11  1  0
 13 12  2  0
 14 17  1  0
 14 10  1  0
 15 14  2  0
 18 29  1  0
 18 17  1  0
 18 19  1  1
 19 20  1  0
 20 21  2  0
 20 28  1  0
 21 22  1  0
 22 23  1  0
 23 24  2  0
 25 24  1  0
 26 25  2  0
 27 28  2  0
 27 26  1  0
 28 23  1  0
 29 30  1  0
 31 29  2  0
M  END
$$$$
