MDW.pdb
     RDKit          3D

 31 32  0  0  1  0  0  0  0  0999 V2000
   13.9829  -21.3639   22.9660 C   0  0  0  0  0  0  0  0  0  0  0  0
   13.9077  -22.1118   21.3252 S   0  0  0  0  0  0  0  0  0  0  0  0
   12.8542  -21.1707   20.1805 C   0  0  0  0  0  0  0  0  0  0  0  0
   12.3751  -19.8874   20.8179 C   0  0  0  0  0  0  0  0  0  0  0  0
   11.4036  -19.1296   19.9487 C   0  0  2  0  0  0  0  0  0  0  0  0
   12.0991  -18.6987   18.7614 N   0  0  0  0  0  0  0  0  0  0  0  0
   10.8802  -17.9316   20.6862 C   0  0  0  0  0  0  0  0  0  0  0  0
   11.6659  -16.9332   20.7252 O   0  0  0  0  0  0  0  0  0  0  0  0
    9.6086  -17.9240   21.2888 N   0  0  0  0  0  0  0  0  0  0  0  0
    9.1515  -16.7961   22.0540 C   0  0  1  0  0  0  0  0  0  0  0  0
    7.6706  -16.6270   21.9553 C   0  0  0  0  0  0  0  0  0  0  0  0
    7.1307  -16.5610   20.5843 C   0  0  0  0  0  0  0  0  0  0  0  0
    7.1893  -15.5476   19.8410 O   0  0  0  0  0  0  0  0  0  0  0  0
    9.5659  -16.9037   23.4781 C   0  0  0  0  0  0  0  0  0  0  0  0
    9.1969  -17.8898   24.1351 O   0  0  0  0  0  0  0  0  0  0  0  0
    6.4958  -17.6721   20.0130 O   0  0  0  0  0  0  0  0  0  0  0  0
   10.3636  -15.9329   24.1237 N   0  0  0  0  0  0  0  0  0  0  0  0
   10.6071  -15.9723   25.5859 C   0  0  1  0  0  0  0  0  0  0  0  0
    9.9747  -14.7992   26.2385 C   0  0  0  0  0  0  0  0  0  0  0  0
    8.5162  -14.6882   26.1738 C   0  0  0  0  0  0  0  0  0  0  0  0
    7.6117  -15.7258   25.9172 C   0  0  0  0  0  0  0  0  0  0  0  0
    6.3552  -15.2640   25.8974 N   0  0  0  0  0  0  0  0  0  0  0  0
    6.4113  -13.9372   26.1375 C   0  0  0  0  0  0  0  0  0  0  0  0
    5.4179  -12.9623   26.2460 C   0  0  0  0  0  0  0  0  0  0  0  0
    5.7315  -11.6526   26.5208 C   0  0  0  0  0  0  0  0  0  0  0  0
    7.0526  -11.2937   26.6927 C   0  0  0  0  0  0  0  0  0  0  0  0
    8.0447  -12.2293   26.5908 C   0  0  0  0  0  0  0  0  0  0  0  0
    7.7363  -13.5603   26.3115 C   0  0  0  0  0  0  0  0  0  0  0  0
   10.1988  -17.2864   26.0775 C   0  0  0  0  0  0  0  0  0  0  0  0
    9.9647  -18.3755   25.2125 O   0  0  0  0  0  0  0  0  0  0  0  0
   10.0297  -17.5302   27.3053 O   0  0  0  0  0  0  0  0  0  0  0  0
  1  2  1  0
  3  4  1  0
  3  2  1  0
  5  4  1  0
  5  6  1  6
  7  8  2  0
  7  5  1  0
  9  7  1  0
 10  9  1  0
 10 11  1  1
 12 16  1  0
 12 11  1  0
 13 12  2  0
 14 17  1  0
 14 10  1  0
 15 14  2  0
 18 29  1  0
 18 17  1  0
 18 19  1  1
 19 20  1  0
 20 21  2  0
 20 28  1  0
 21 22  1  0
 22 23  1  0
 23 24  2  0
 25 24  1  0
 26 25  2  0
 27 28  2  0
 27 26  1  0
 28 23  1  0
 29 30  1  0
 31 29  2  0
M  END
$$$$
