MDW.pdb
     RDKit          3D

 31 32  0  0  1  0  0  0  0  0999 V2000
    8.0478  -11.5908   21.5421 C   0  0  0  0  0  0  0  0  0  0  0  0
    8.1109  -12.1268   19.8199 S   0  0  0  0  0  0  0  0  0  0  0  0
    7.8100  -13.9105   19.6362 C   0  0  0  0  0  0  0  0  0  0  0  0
    8.3312  -14.6726   20.8320 C   0  0  0  0  0  0  0  0  0  0  0  0
    8.2007  -16.1666   20.6758 C   0  0  2  0  0  0  0  0  0  0  0  0
    6.8031  -16.4855   20.5207 N   0  0  0  0  0  0  0  0  0  0  0  0
    8.7415  -16.8600   21.8923 C   0  0  0  0  0  0  0  0  0  0  0  0
    7.8672  -17.2424   22.7318 O   0  0  0  0  0  0  0  0  0  0  0  0
   10.1205  -17.0670   22.0812 N   0  0  0  0  0  0  0  0  0  0  0  0
   10.6248  -17.7001   23.2693 C   0  0  1  0  0  0  0  0  0  0  0  0
   12.0443  -18.1344   23.1021 C   0  0  0  0  0  0  0  0  0  0  0  0
   12.8850  -17.2468   22.2769 C   0  0  0  0  0  0  0  0  0  0  0  0
   13.6826  -16.3883   22.7351 O   0  0  0  0  0  0  0  0  0  0  0  0
   10.4920  -16.8120   24.4546 C   0  0  0  0  0  0  0  0  0  0  0  0
   10.8729  -15.6343   24.3647 O   0  0  0  0  0  0  0  0  0  0  0  0
   12.8368  -17.3157   20.8779 O   0  0  0  0  0  0  0  0  0  0  0  0
    9.9502  -17.2456   25.6851 N   0  0  0  0  0  0  0  0  0  0  0  0
   10.1559  -16.4810   26.9389 C   0  0  1  0  0  0  0  0  0  0  0  0
    8.8483  -16.1893   27.5769 C   0  0  0  0  0  0  0  0  0  0  0  0
    7.7813  -15.6541   26.7291 C   0  0  0  0  0  0  0  0  0  0  0  0
    6.8529  -16.3964   25.9892 C   0  0  0  0  0  0  0  0  0  0  0  0
    6.0406  -15.5857   25.2997 N   0  0  0  0  0  0  0  0  0  0  0  0
    6.4145  -14.3177   25.5707 C   0  0  0  0  0  0  0  0  0  0  0  0
    5.9168  -13.0839   25.1477 C   0  0  0  0  0  0  0  0  0  0  0  0
    6.4678  -11.9041   25.5880 C   0  0  0  0  0  0  0  0  0  0  0  0
    7.5328  -11.9390   26.4645 C   0  0  0  0  0  0  0  0  0  0  0  0
    8.0395  -13.1344   26.8935 C   0  0  0  0  0  0  0  0  0  0  0  0
    7.4876  -14.3365   26.4516 C   0  0  0  0  0  0  0  0  0  0  0  0
   11.1291  -17.2034   27.7552 C   0  0  0  0  0  0  0  0  0  0  0  0
   11.6736  -18.4425   27.3588 O   0  0  0  0  0  0  0  0  0  0  0  0
   11.5437  -16.7654   28.8651 O   0  0  0  0  0  0  0  0  0  0  0  0
  1  2  1  0
  3  4  1  0
  3  2  1  0
  5  4  1  0
  5  6  1  1
  7  8  2  0
  7  5  1  0
  9  7  1  0
 10  9  1  0
 10 11  1  6
 12 16  1  0
 12 11  1  0
 13 12  2  0
 14 17  1  0
 14 10  1  0
 15 14  2  0
 18 29  1  0
 18 17  1  0
 18 19  1  1
 19 20  1  0
 20 21  2  0
 20 28  1  0
 21 22  1  0
 22 23  1  0
 23 24  2  0
 25 24  1  0
 26 25  2  0
 27 28  2  0
 27 26  1  0
 28 23  1  0
 29 30  1  0
 31 29  2  0
M  END
$$$$
