WQC.pdb
     RDKit          3D

 30 31  0  0  1  0  0  0  0  0999 V2000
    6.6889  -18.2580   24.6582 N   0  0  0  0  0  0  0  0  0  0  0  0
    7.0026  -16.9412   24.2035 C   0  0  1  0  0  0  0  0  0  0  0  0
    7.7735  -16.1006   25.1912 C   0  0  0  0  0  0  0  0  0  0  0  0
    6.9820  -15.0619   25.8557 C   0  0  0  0  0  0  0  0  0  0  0  0
    5.7585  -15.2290   26.4408 C   0  0  0  0  0  0  0  0  0  0  0  0
    5.3859  -14.0294   26.9548 N   0  0  0  0  0  0  0  0  0  0  0  0
    6.3319  -13.1095   26.7144 C   0  0  0  0  0  0  0  0  0  0  0  0
    6.4158  -11.7722   27.0249 C   0  0  0  0  0  0  0  0  0  0  0  0
    7.5242  -11.0334   26.6459 C   0  0  0  0  0  0  0  0  0  0  0  0
    8.5445  -11.6514   25.9532 C   0  0  0  0  0  0  0  0  0  0  0  0
    8.4449  -12.9927   25.6498 C   0  0  0  0  0  0  0  0  0  0  0  0
    7.3484  -13.7498   26.0186 C   0  0  0  0  0  0  0  0  0  0  0  0
    7.7711  -16.9497   22.9285 C   0  0  0  0  0  0  0  0  0  0  0  0
    8.5268  -17.9457   22.6556 O   0  0  0  0  0  0  0  0  0  0  0  0
    7.0351  -12.9404   18.0421 N   0  0  0  0  0  0  0  0  0  0  0  0
    8.1974  -13.7031   17.7597 C   0  0  0  0  0  0  0  0  0  0  0  0
    8.5039  -13.7992   16.5224 O   0  0  0  0  0  0  0  0  0  0  0  0
    9.0252  -14.3601   18.8193 C   0  0  0  0  0  0  0  0  0  0  0  0
    8.1715  -14.5141   20.0341 C   0  0  0  0  0  0  0  0  0  0  0  0
    8.5081  -15.7071   20.8720 C   0  0  2  0  0  0  0  0  0  0  0  0
    7.6597  -15.8603   22.0315 N   0  0  0  0  0  0  0  0  0  0  0  0
    9.9309  -15.7847   21.2496 C   0  0  0  0  0  0  0  0  0  0  0  0
   10.4400  -14.7813   21.8120 O   0  0  0  0  0  0  0  0  0  0  0  0
   10.7570  -16.9034   21.0242 N   0  0  0  0  0  0  0  0  0  0  0  0
   12.1716  -16.8009   21.3029 C   0  0  1  0  0  0  0  0  0  0  0  0
   12.5062  -17.7935   22.4008 C   0  0  0  0  0  0  0  0  0  0  0  0
   11.2256  -19.0991   22.3080 S   0  0  0  0  0  0  0  0  0  0  0  0
   13.0152  -16.9962   20.1070 C   0  0  0  0  0  0  0  0  0  0  0  0
   14.3768  -16.8484   20.2003 O   0  0  0  0  0  0  0  0  0  0  0  0
   12.4984  -17.2945   19.0143 O   0  0  0  0  0  0  0  0  0  0  0  0
  2  1  1  1
  2  3  1  0
  3  4  1  0
  4  5  2  0
  5  6  1  0
  7  6  1  0
  8  7  2  0
  9  8  1  0
 10 11  1  0
 10  9  2  0
 11 12  2  0
 12  4  1  0
 12  7  1  0
 13  2  1  0
 13 21  1  0
 14 13  2  0
 16 17  2  0
 16 15  1  0
 18 16  1  0
 20 19  1  1
 19 18  1  0
 21 20  1  0
 22 20  1  0
 23 22  2  0
 24 22  1  0
 25 28  1  0
 25 24  1  0
 25 26  1  1
 27 26  1  0
 28 29  1  0
 30 28  2  0
M  END
$$$$
