WQC.pdb
     RDKit          3D

 30 31  0  0  1  0  0  0  0  0999 V2000
    7.3303  -17.1452   23.4221 N   0  0  0  0  0  0  0  0  0  0  0  0
    8.3513  -16.1470   23.4342 C   0  0  1  0  0  0  0  0  0  0  0  0
    8.7243  -15.6440   24.8069 C   0  0  0  0  0  0  0  0  0  0  0  0
    7.6268  -15.0110   25.5428 C   0  0  0  0  0  0  0  0  0  0  0  0
    6.6390  -15.6558   26.2326 C   0  0  0  0  0  0  0  0  0  0  0  0
    5.8402  -14.7062   26.7824 N   0  0  0  0  0  0  0  0  0  0  0  0
    6.2890  -13.4832   26.4638 C   0  0  0  0  0  0  0  0  0  0  0  0
    5.8284  -12.2243   26.7715 C   0  0  0  0  0  0  0  0  0  0  0  0
    6.4889  -11.1021   26.2997 C   0  0  0  0  0  0  0  0  0  0  0  0
    7.6141  -11.2584   25.5173 C   0  0  0  0  0  0  0  0  0  0  0  0
    8.0628  -12.5273   25.2181 C   0  0  0  0  0  0  0  0  0  0  0  0
    7.4200  -13.6615   25.6785 C   0  0  0  0  0  0  0  0  0  0  0  0
    9.6026  -16.6078   22.7720 C   0  0  0  0  0  0  0  0  0  0  0  0
    9.8519  -17.8609   22.7000 O   0  0  0  0  0  0  0  0  0  0  0  0
   12.5547  -13.5634   18.1814 N   0  0  0  0  0  0  0  0  0  0  0  0
   13.5857  -14.4093   18.6654 C   0  0  0  0  0  0  0  0  0  0  0  0
   14.7220  -14.2709   18.0963 O   0  0  0  0  0  0  0  0  0  0  0  0
   13.3827  -15.4035   19.7653 C   0  0  0  0  0  0  0  0  0  0  0  0
   12.1103  -15.0560   20.4643 C   0  0  0  0  0  0  0  0  0  0  0  0
   11.7061  -16.0335   21.5224 C   0  0  2  0  0  0  0  0  0  0  0  0
   10.5025  -15.6597   22.2290 N   0  0  0  0  0  0  0  0  0  0  0  0
   12.7873  -16.3656   22.4678 C   0  0  0  0  0  0  0  0  0  0  0  0
   12.6589  -17.4107   23.1559 O   0  0  0  0  0  0  0  0  0  0  0  0
   13.9515  -15.5941   22.6524 N   0  0  0  0  0  0  0  0  0  0  0  0
   14.7209  -15.7606   23.8646 C   0  0  1  0  0  0  0  0  0  0  0  0
   13.7840  -16.2575   24.9500 C   0  0  0  0  0  0  0  0  0  0  0  0
   14.3231  -17.9634   25.3397 S   0  0  0  0  0  0  0  0  0  0  0  0
   15.8882  -16.6487   23.6947 C   0  0  0  0  0  0  0  0  0  0  0  0
   16.8163  -16.7564   24.7003 O   0  0  0  0  0  0  0  0  0  0  0  0
   16.0352  -17.3006   22.6443 O   0  0  0  0  0  0  0  0  0  0  0  0
  2  1  1  1
  2  3  1  0
  3  4  1  0
  4  5  2  0
  5  6  1  0
  7  6  1  0
  8  7  2  0
  9  8  1  0
 10 11  1  0
 10  9  2  0
 11 12  2  0
 12  4  1  0
 12  7  1  0
 13  2  1  0
 13 21  1  0
 14 13  2  0
 16 17  2  0
 16 15  1  0
 18 16  1  0
 20 19  1  6
 19 18  1  0
 21 20  1  0
 22 20  1  0
 23 22  2  0
 24 22  1  0
 25 28  1  0
 25 24  1  0
 25 26  1  1
 27 26  1  0
 28 29  1  0
 30 28  2  0
M  END
$$$$
