WQC.pdb
     RDKit          3D

 30 31  0  0  1  0  0  0  0  0999 V2000
    6.8304  -16.8362   23.4385 N   0  0  0  0  0  0  0  0  0  0  0  0
    7.9971  -16.1317   23.8646 C   0  0  1  0  0  0  0  0  0  0  0  0
    7.9947  -15.7305   25.3191 C   0  0  0  0  0  0  0  0  0  0  0  0
    6.9086  -14.8234   25.6991 C   0  0  0  0  0  0  0  0  0  0  0  0
    5.7288  -15.1787   26.2899 C   0  0  0  0  0  0  0  0  0  0  0  0
    5.0156  -14.0416   26.4907 N   0  0  0  0  0  0  0  0  0  0  0  0
    5.7039  -12.9795   26.0468 C   0  0  0  0  0  0  0  0  0  0  0  0
    5.4100  -11.6362   26.0232 C   0  0  0  0  0  0  0  0  0  0  0  0
    6.3130  -10.7308   25.4914 C   0  0  0  0  0  0  0  0  0  0  0  0
    7.5114  -11.1890   24.9846 C   0  0  0  0  0  0  0  0  0  0  0  0
    7.7907  -12.5388   25.0159 C   0  0  0  0  0  0  0  0  0  0  0  0
    6.9047  -13.4603   25.5425 C   0  0  0  0  0  0  0  0  0  0  0  0
    9.2469  -16.9014   23.6156 C   0  0  0  0  0  0  0  0  0  0  0  0
    9.2781  -17.7619   22.6688 O   0  0  0  0  0  0  0  0  0  0  0  0
   12.9782  -17.2272   20.1652 N   0  0  0  0  0  0  0  0  0  0  0  0
   12.9074  -15.9965   20.8671 C   0  0  0  0  0  0  0  0  0  0  0  0
   13.2511  -14.9625   20.1986 O   0  0  0  0  0  0  0  0  0  0  0  0
   12.4643  -15.8891   22.2925 C   0  0  0  0  0  0  0  0  0  0  0  0
   12.1072  -17.2599   22.7630 C   0  0  0  0  0  0  0  0  0  0  0  0
   11.6577  -17.3204   24.1888 C   0  0  2  0  0  0  0  0  0  0  0  0
   10.3862  -16.6758   24.4246 N   0  0  0  0  0  0  0  0  0  0  0  0
   12.6706  -16.8496   25.1508 C   0  0  0  0  0  0  0  0  0  0  0  0
   13.8641  -17.1963   24.9566 O   0  0  0  0  0  0  0  0  0  0  0  0
   12.3935  -16.0397   26.2697 N   0  0  0  0  0  0  0  0  0  0  0  0
   12.3840  -16.6374   27.5857 C   0  0  1  0  0  0  0  0  0  0  0  0
   11.1302  -16.1722   28.3028 C   0  0  0  0  0  0  0  0  0  0  0  0
   11.1876  -14.3421   28.2834 S   0  0  0  0  0  0  0  0  0  0  0  0
   12.4880  -18.1099   27.5559 C   0  0  0  0  0  0  0  0  0  0  0  0
   13.5579  -18.7310   28.1508 O   0  0  0  0  0  0  0  0  0  0  0  0
   11.6105  -18.7915   26.9943 O   0  0  0  0  0  0  0  0  0  0  0  0
  2  1  1  1
  2  3  1  0
  3  4  1  0
  4  5  2  0
  5  6  1  0
  7  6  1  0
  8  7  2  0
  9  8  1  0
 10 11  1  0
 10  9  2  0
 11 12  2  0
 12  4  1  0
 12  7  1  0
 13  2  1  0
 13 21  1  0
 14 13  2  0
 16 17  2  0
 16 15  1  0
 18 16  1  0
 20 19  1  6
 19 18  1  0
 21 20  1  0
 22 20  1  0
 23 22  2  0
 24 22  1  0
 25 28  1  0
 25 24  1  0
 25 26  1  6
 27 26  1  0
 28 29  1  0
 30 28  2  0
M  END
$$$$
