WQC.pdb
     RDKit          3D

 30 31  0  0  1  0  0  0  0  0999 V2000
    6.9582  -17.6696   23.7435 N   0  0  0  0  0  0  0  0  0  0  0  0
    7.8883  -16.6059   23.5372 C   0  0  1  0  0  0  0  0  0  0  0  0
    8.3504  -15.9194   24.7988 C   0  0  0  0  0  0  0  0  0  0  0  0
    7.3277  -15.1029   25.4578 C   0  0  0  0  0  0  0  0  0  0  0  0
    6.2114  -15.5662   26.0953 C   0  0  0  0  0  0  0  0  0  0  0  0
    5.5444  -14.4891   26.5823 N   0  0  0  0  0  0  0  0  0  0  0  0
    6.2007  -13.3607   26.2743 C   0  0  0  0  0  0  0  0  0  0  0  0
    5.9305  -12.0377   26.5357 C   0  0  0  0  0  0  0  0  0  0  0  0
    6.7881  -11.0462   26.0892 C   0  0  0  0  0  0  0  0  0  0  0  0
    7.9171  -11.3977   25.3788 C   0  0  0  0  0  0  0  0  0  0  0  0
    8.1735  -12.7284   25.1253 C   0  0  0  0  0  0  0  0  0  0  0  0
    7.3320  -13.7349   25.5617 C   0  0  0  0  0  0  0  0  0  0  0  0
    9.1029  -17.0498   22.7996 C   0  0  0  0  0  0  0  0  0  0  0  0
    9.6090  -18.1975   23.0533 O   0  0  0  0  0  0  0  0  0  0  0  0
   12.3146  -13.4860   18.3492 N   0  0  0  0  0  0  0  0  0  0  0  0
   12.9931  -14.7081   18.5912 C   0  0  0  0  0  0  0  0  0  0  0  0
   13.7427  -15.1177   17.6401 O   0  0  0  0  0  0  0  0  0  0  0  0
   12.8577  -15.4839   19.8637 C   0  0  0  0  0  0  0  0  0  0  0  0
   11.4458  -15.3517   20.3297 C   0  0  0  0  0  0  0  0  0  0  0  0
   11.0460  -16.3552   21.3650 C   0  0  2  0  0  0  0  0  0  0  0  0
    9.6855  -16.2023   21.8270 N   0  0  0  0  0  0  0  0  0  0  0  0
   11.9797  -16.4382   22.5027 C   0  0  0  0  0  0  0  0  0  0  0  0
   12.2846  -15.3660   23.0855 O   0  0  0  0  0  0  0  0  0  0  0  0
   12.5520  -17.6336   22.9803 N   0  0  0  0  0  0  0  0  0  0  0  0
   13.5631  -17.5667   24.0111 C   0  0  1  0  0  0  0  0  0  0  0  0
   13.2506  -18.6332   25.0443 C   0  0  0  0  0  0  0  0  0  0  0  0
   11.7559  -18.0549   25.9300 S   0  0  0  0  0  0  0  0  0  0  0  0
   14.9373  -17.6933   23.4862 C   0  0  0  0  0  0  0  0  0  0  0  0
   16.0077  -17.5568   24.3348 O   0  0  0  0  0  0  0  0  0  0  0  0
   15.1307  -17.9233   22.2781 O   0  0  0  0  0  0  0  0  0  0  0  0
  2  1  1  1
  2  3  1  0
  3  4  1  0
  4  5  2  0
  5  6  1  0
  7  6  1  0
  8  7  2  0
  9  8  1  0
 10 11  1  0
 10  9  2  0
 11 12  2  0
 12  4  1  0
 12  7  1  0
 13  2  1  0
 13 21  1  0
 14 13  2  0
 16 17  2  0
 16 15  1  0
 18 16  1  0
 20 19  1  6
 19 18  1  0
 21 20  1  0
 22 20  1  0
 23 22  2  0
 24 22  1  0
 25 28  1  0
 25 24  1  0
 25 26  1  1
 27 26  1  0
 28 29  1  0
 30 28  2  0
M  END
$$$$
