WQC.pdb
     RDKit          3D

 30 31  0  0  1  0  0  0  0  0999 V2000
    6.4951  -18.1442   24.0984 N   0  0  0  0  0  0  0  0  0  0  0  0
    7.0037  -16.8459   23.7904 C   0  0  1  0  0  0  0  0  0  0  0  0
    7.7749  -16.1897   24.9089 C   0  0  0  0  0  0  0  0  0  0  0  0
    6.9989  -15.2365   25.7066 C   0  0  0  0  0  0  0  0  0  0  0  0
    5.8415  -15.5027   26.3825 C   0  0  0  0  0  0  0  0  0  0  0  0
    5.4616  -14.3582   27.0052 N   0  0  0  0  0  0  0  0  0  0  0  0
    6.3390  -13.3775   26.7460 C   0  0  0  0  0  0  0  0  0  0  0  0
    6.3888  -12.0596   27.1364 C   0  0  0  0  0  0  0  0  0  0  0  0
    7.4239  -11.2425   26.7134 C   0  0  0  0  0  0  0  0  0  0  0  0
    8.4057  -11.7626   25.8959 C   0  0  0  0  0  0  0  0  0  0  0  0
    8.3411  -13.0858   25.5137 C   0  0  0  0  0  0  0  0  0  0  0  0
    7.3178  -13.9200   25.9243 C   0  0  0  0  0  0  0  0  0  0  0  0
    7.8798  -16.8510   22.5867 C   0  0  0  0  0  0  0  0  0  0  0  0
    8.3268  -17.9631   22.1382 O   0  0  0  0  0  0  0  0  0  0  0  0
    8.2941  -12.6886   16.8976 N   0  0  0  0  0  0  0  0  0  0  0  0
    8.0899  -14.0158   17.3551 C   0  0  0  0  0  0  0  0  0  0  0  0
    7.0790  -14.6190   16.8566 O   0  0  0  0  0  0  0  0  0  0  0  0
    8.9819  -14.6865   18.3521 C   0  0  0  0  0  0  0  0  0  0  0  0
    8.2443  -14.7575   19.6479 C   0  0  0  0  0  0  0  0  0  0  0  0
    8.9336  -15.5658   20.7015 C   0  0  2  0  0  0  0  0  0  0  0  0
    8.2096  -15.6304   21.9503 N   0  0  0  0  0  0  0  0  0  0  0  0
   10.3360  -15.1724   20.9285 C   0  0  0  0  0  0  0  0  0  0  0  0
   10.5650  -13.9680   21.2098 O   0  0  0  0  0  0  0  0  0  0  0  0
   11.4343  -16.0514   20.8522 N   0  0  0  0  0  0  0  0  0  0  0  0
   12.1883  -16.3409   22.0509 C   0  0  1  0  0  0  0  0  0  0  0  0
   11.2084  -16.7570   23.1321 C   0  0  0  0  0  0  0  0  0  0  0  0
   11.8556  -16.0579   24.6958 S   0  0  0  0  0  0  0  0  0  0  0  0
   13.2433  -17.3529   21.8436 C   0  0  0  0  0  0  0  0  0  0  0  0
   14.5057  -17.1339   22.3362 O   0  0  0  0  0  0  0  0  0  0  0  0
   12.9941  -18.4040   21.2247 O   0  0  0  0  0  0  0  0  0  0  0  0
  2  1  1  1
  2  3  1  0
  3  4  1  0
  4  5  2  0
  5  6  1  0
  7  6  1  0
  8  7  2  0
  9  8  1  0
 10 11  1  0
 10  9  2  0
 11 12  2  0
 12  4  1  0
 12  7  1  0
 13  2  1  0
 13 21  1  0
 14 13  2  0
 16 17  2  0
 16 15  1  0
 18 16  1  0
 20 19  1  6
 19 18  1  0
 21 20  1  0
 22 20  1  0
 23 22  2  0
 24 22  1  0
 25 28  1  0
 25 24  1  0
 25 26  1  1
 27 26  1  0
 28 29  1  0
 30 28  2  0
M  END
$$$$
