WQC.pdb
     RDKit          3D

 30 31  0  0  1  0  0  0  0  0999 V2000
    6.1683  -18.3888   24.3306 N   0  0  0  0  0  0  0  0  0  0  0  0
    6.6512  -17.0793   24.0287 C   0  0  1  0  0  0  0  0  0  0  0  0
    7.5003  -16.4563   25.1093 C   0  0  0  0  0  0  0  0  0  0  0  0
    6.9188  -15.2626   25.7288 C   0  0  0  0  0  0  0  0  0  0  0  0
    5.7737  -15.2151   26.4730 C   0  0  0  0  0  0  0  0  0  0  0  0
    5.6019  -13.9298   26.8737 N   0  0  0  0  0  0  0  0  0  0  0  0
    6.5990  -13.1631   26.4082 C   0  0  0  0  0  0  0  0  0  0  0  0
    6.8644  -11.8196   26.5364 C   0  0  0  0  0  0  0  0  0  0  0  0
    7.9839  -11.2665   25.9375 C   0  0  0  0  0  0  0  0  0  0  0  0
    8.8315  -12.0759   25.2100 C   0  0  0  0  0  0  0  0  0  0  0  0
    8.5512  -13.4206   25.0912 C   0  0  0  0  0  0  0  0  0  0  0  0
    7.4401  -13.9944   25.6809 C   0  0  0  0  0  0  0  0  0  0  0  0
    7.4380  -17.0424   22.7654 C   0  0  0  0  0  0  0  0  0  0  0  0
    8.1067  -18.0740   22.4100 O   0  0  0  0  0  0  0  0  0  0  0  0
    8.0115  -12.1693   17.7407 N   0  0  0  0  0  0  0  0  0  0  0  0
    8.0302  -13.5875   17.7096 C   0  0  0  0  0  0  0  0  0  0  0  0
    7.3755  -14.1244   16.7518 O   0  0  0  0  0  0  0  0  0  0  0  0
    8.7587  -14.4209   18.7167 C   0  0  0  0  0  0  0  0  0  0  0  0
    7.8381  -14.6512   19.8689 C   0  0  0  0  0  0  0  0  0  0  0  0
    8.3091  -15.6969   20.8297 C   0  0  2  0  0  0  0  0  0  0  0  0
    7.4395  -15.8712   21.9705 N   0  0  0  0  0  0  0  0  0  0  0  0
    9.7083  -15.5211   21.2591 C   0  0  0  0  0  0  0  0  0  0  0  0
   10.1267  -14.3450   21.4141 O   0  0  0  0  0  0  0  0  0  0  0  0
   10.6062  -16.5779   21.5073 N   0  0  0  0  0  0  0  0  0  0  0  0
   11.5608  -16.4515   22.5852 C   0  0  1  0  0  0  0  0  0  0  0  0
   10.7870  -16.2711   23.8780 C   0  0  0  0  0  0  0  0  0  0  0  0
   12.0424  -16.1651   25.2068 S   0  0  0  0  0  0  0  0  0  0  0  0
   12.5049  -17.5841   22.6612 C   0  0  0  0  0  0  0  0  0  0  0  0
   13.7944  -17.3712   23.0810 O   0  0  0  0  0  0  0  0  0  0  0  0
   12.1379  -18.7314   22.3466 O   0  0  0  0  0  0  0  0  0  0  0  0
  2  1  1  1
  2  3  1  0
  3  4  1  0
  4  5  2  0
  5  6  1  0
  7  6  1  0
  8  7  2  0
  9  8  1  0
 10 11  1  0
 10  9  2  0
 11 12  2  0
 12  4  1  0
 12  7  1  0
 13  2  1  0
 13 21  1  0
 14 13  2  0
 16 17  2  0
 16 15  1  0
 18 16  1  0
 20 19  1  1
 19 18  1  0
 21 20  1  0
 22 20  1  0
 23 22  2  0
 24 22  1  0
 25 28  1  0
 25 24  1  0
 25 26  1  1
 27 26  1  0
 28 29  1  0
 30 28  2  0
M  END
$$$$
