CSI.pdb
     RDKit          3D

 21 20  0  0  1  0  0  0  0  0999 V2000
   28.1584  -21.6676  -15.7421 N   0  0  0  0  0  0  0  0  0  0  0  0
   27.7156  -20.5969  -14.8739 C   0  0  1  0  0  0  0  0  0  0  0  0
   27.2277  -19.4756  -15.7891 C   0  0  0  0  0  0  0  0  0  0  0  0
   28.6276  -18.4413  -16.2987 S   0  0  0  0  0  0  0  0  0  0  0  0
   26.5671  -21.0499  -14.0845 C   0  0  0  0  0  0  0  0  0  0  0  0
   25.6279  -21.6757  -14.6706 O   0  0  0  0  0  0  0  0  0  0  0  0
   26.3947  -21.5544  -10.0395 O   0  0  0  0  0  0  0  0  0  0  0  0
   25.2729  -20.9067  -10.5333 C   0  0  0  0  0  0  0  0  0  0  0  0
   25.2147  -21.2041  -12.0326 C   0  0  2  0  0  0  0  0  0  0  0  0
   26.4187  -20.8399  -12.6877 N   0  0  0  0  0  0  0  0  0  0  0  0
   24.0066  -20.5071  -12.5404 C   0  0  0  0  0  0  0  0  0  0  0  0
   24.1869  -19.3499  -12.9611 O   0  0  0  0  0  0  0  0  0  0  0  0
   21.0859  -21.7336  -16.7083 C   0  0  0  0  0  0  0  0  0  0  0  0
   21.2043  -21.7634  -15.1933 C   0  0  0  0  0  0  0  0  0  0  0  0
   21.6175  -20.4386  -14.6348 C   0  0  2  0  0  0  0  0  0  0  0  0
   22.8826  -19.9077  -15.2449 C   0  0  0  0  0  0  0  0  0  0  0  0
   21.5608  -20.4321  -13.1542 C   0  0  2  0  0  0  0  0  0  0  0  0
   22.7226  -21.0810  -12.5627 N   0  0  0  0  0  0  0  0  0  0  0  0
   20.2923  -20.8561  -12.5393 C   0  0  0  0  0  0  0  0  0  0  0  0
   19.1275  -20.1555  -12.7360 O   0  0  0  0  0  0  0  0  0  0  0  0
   20.2367  -21.8734  -11.8196 O   0  0  0  0  0  0  0  0  0  0  0  0
  2  3  1  0
  2  1  1  6
  4  3  1  0
  5  2  1  0
  5  6  2  0
  8  7  1  0
  9  8  1  1
  9 11  1  0
  9 10  1  0
 10  5  1  0
 11 12  2  0
 13 14  1  0
 14 15  1  0
 15 16  1  1
 17 15  1  0
 17 18  1  1
 18 11  1  0
 19 17  1  0
 20 19  1  0
 21 19  2  0
M  END
$$$$
