CSI.pdb
     RDKit          3D

 21 20  0  0  1  0  0  0  0  0999 V2000
   19.1755  -14.1332  -15.6425 N   0  0  0  0  0  0  0  0  0  0  0  0
   18.7475  -13.0137  -16.4549 C   0  0  1  0  0  0  0  0  0  0  0  0
   17.2584  -12.8232  -16.1738 C   0  0  0  0  0  0  0  0  0  0  0  0
   16.3168  -14.2097  -16.8670 S   0  0  0  0  0  0  0  0  0  0  0  0
   19.4362  -11.7976  -16.0143 C   0  0  0  0  0  0  0  0  0  0  0  0
   19.3589  -11.4572  -14.7914 O   0  0  0  0  0  0  0  0  0  0  0  0
   22.5288   -8.2345  -16.4514 O   0  0  0  0  0  0  0  0  0  0  0  0
   21.9964   -9.3225  -17.1256 C   0  0  0  0  0  0  0  0  0  0  0  0
   20.7304   -9.7336  -16.3721 C   0  0  2  0  0  0  0  0  0  0  0  0
   20.1985  -10.9528  -16.8642 N   0  0  0  0  0  0  0  0  0  0  0  0
   19.8039   -8.5781  -16.4696 C   0  0  0  0  0  0  0  0  0  0  0  0
   19.1385   -8.5058  -17.5188 O   0  0  0  0  0  0  0  0  0  0  0  0
   15.1656   -5.6095  -15.0369 C   0  0  0  0  0  0  0  0  0  0  0  0
   16.6194   -5.3893  -15.4217 C   0  0  0  0  0  0  0  0  0  0  0  0
   17.4588   -6.6011  -15.1671 C   0  0  2  0  0  0  0  0  0  0  0  0
   17.2941   -7.1548  -13.7812 C   0  0  0  0  0  0  0  0  0  0  0  0
   18.8546   -6.3999  -15.6219 C   0  0  2  0  0  0  0  0  0  0  0  0
   19.6568   -7.6051  -15.4646 N   0  0  0  0  0  0  0  0  0  0  0  0
   19.5389   -5.1888  -15.1402 C   0  0  0  0  0  0  0  0  0  0  0  0
   19.1302   -3.9330  -15.5175 O   0  0  0  0  0  0  0  0  0  0  0  0
   20.5143   -5.2678  -14.3668 O   0  0  0  0  0  0  0  0  0  0  0  0
  2  3  1  0
  2  1  1  1
  4  3  1  0
  5  2  1  0
  5  6  2  0
  8  7  1  0
  9  8  1  6
  9 11  1  0
  9 10  1  0
 10  5  1  0
 11 12  2  0
 13 14  1  0
 14 15  1  0
 15 16  1  1
 17 15  1  0
 17 18  1  1
 18 11  1  0
 19 17  1  0
 20 19  1  0
 21 19  2  0
M  END
$$$$
