CSI.pdb
     RDKit          3D

 21 20  0  0  1  0  0  0  0  0999 V2000
   26.0898  -21.5531  -13.5831 N   0  0  0  0  0  0  0  0  0  0  0  0
   25.2511  -20.4415  -13.1865 C   0  0  1  0  0  0  0  0  0  0  0  0
   25.9653  -19.7584  -12.0220 C   0  0  0  0  0  0  0  0  0  0  0  0
   25.7909  -20.7581  -10.5188 S   0  0  0  0  0  0  0  0  0  0  0  0
   25.1727  -19.4720  -14.2824 C   0  0  0  0  0  0  0  0  0  0  0  0
   26.2183  -19.2314  -14.9652 O   0  0  0  0  0  0  0  0  0  0  0  0
   21.6783  -17.5888  -15.5853 O   0  0  0  0  0  0  0  0  0  0  0  0
   22.6261  -17.9897  -16.5140 C   0  0  0  0  0  0  0  0  0  0  0  0
   23.9823  -17.9488  -15.8077 C   0  0  2  0  0  0  0  0  0  0  0  0
   23.9959  -18.7660  -14.6485 N   0  0  0  0  0  0  0  0  0  0  0  0
   24.2648  -16.5148  -15.5489 C   0  0  0  0  0  0  0  0  0  0  0  0
   23.9116  -16.0867  -14.4350 O   0  0  0  0  0  0  0  0  0  0  0  0
   28.5220  -12.5039  -16.2512 C   0  0  0  0  0  0  0  0  0  0  0  0
   27.0884  -12.8205  -16.6444 C   0  0  0  0  0  0  0  0  0  0  0  0
   26.5318  -13.9696  -15.8649 C   0  0  2  0  0  0  0  0  0  0  0  0
   27.4446  -15.1614  -15.8339 C   0  0  0  0  0  0  0  0  0  0  0  0
   25.1227  -14.2431  -16.2328 C   0  0  2  0  0  0  0  0  0  0  0  0
   24.8892  -15.6600  -16.4751 N   0  0  0  0  0  0  0  0  0  0  0  0
   24.5297  -13.3793  -17.2668 C   0  0  0  0  0  0  0  0  0  0  0  0
   24.1805  -12.0773  -17.0035 O   0  0  0  0  0  0  0  0  0  0  0  0
   24.3289  -13.8061  -18.4215 O   0  0  0  0  0  0  0  0  0  0  0  0
  2  3  1  0
  2  1  1  6
  4  3  1  0
  5  2  1  0
  5  6  2  0
  8  7  1  0
  9  8  1  1
  9 11  1  0
  9 10  1  0
 10  5  1  0
 11 12  2  0
 13 14  1  0
 14 15  1  0
 15 16  1  6
 17 15  1  0
 17 18  1  6
 18 11  1  0
 19 17  1  0
 20 19  1  0
 21 19  2  0
M  END
$$$$
