CSI.pdb
     RDKit          3D

 21 20  0  0  1  0  0  0  0  0999 V2000
   18.3894  -11.2557  -14.8399 N   0  0  0  0  0  0  0  0  0  0  0  0
   17.2395  -10.4257  -14.5482 C   0  0  1  0  0  0  0  0  0  0  0  0
   16.0719  -11.3795  -14.3042 C   0  0  0  0  0  0  0  0  0  0  0  0
   14.5659  -10.4337  -13.9482 S   0  0  0  0  0  0  0  0  0  0  0  0
   17.4711   -9.6883  -13.3032 C   0  0  0  0  0  0  0  0  0  0  0  0
   17.9795  -10.3017  -12.3120 O   0  0  0  0  0  0  0  0  0  0  0  0
   17.8438   -5.6923  -13.0672 O   0  0  0  0  0  0  0  0  0  0  0  0
   18.4005   -6.4832  -12.0741 C   0  0  0  0  0  0  0  0  0  0  0  0
   17.4638   -7.6772  -11.8825 C   0  0  2  0  0  0  0  0  0  0  0  0
   17.1657   -8.3142  -13.1141 N   0  0  0  0  0  0  0  0  0  0  0  0
   16.2769   -7.1532  -11.1614 C   0  0  0  0  0  0  0  0  0  0  0  0
   15.3238   -6.7956  -11.8773 O   0  0  0  0  0  0  0  0  0  0  0  0
   13.1442   -9.3168   -7.8511 C   0  0  0  0  0  0  0  0  0  0  0  0
   13.7781   -8.3379   -8.8258 C   0  0  0  0  0  0  0  0  0  0  0  0
   14.3921   -7.1662   -8.1272 C   0  0  2  0  0  0  0  0  0  0  0  0
   13.4362   -6.4537   -7.2146 C   0  0  0  0  0  0  0  0  0  0  0  0
   15.1490   -6.3084   -9.0689 C   0  0  2  0  0  0  0  0  0  0  0  0
   16.1935   -7.0506   -9.7611 N   0  0  0  0  0  0  0  0  0  0  0  0
   15.6138   -5.0103   -8.5533 C   0  0  0  0  0  0  0  0  0  0  0  0
   16.9177   -4.8136   -8.1692 O   0  0  0  0  0  0  0  0  0  0  0  0
   14.8327   -4.0430   -8.4529 O   0  0  0  0  0  0  0  0  0  0  0  0
  2  3  1  0
  2  1  1  1
  4  3  1  0
  5  2  1  0
  5  6  2  0
  8  7  1  0
  9  8  1  6
  9 11  1  0
  9 10  1  0
 10  5  1  0
 11 12  2  0
 13 14  1  0
 14 15  1  0
 15 16  1  6
 17 15  1  0
 17 18  1  1
 18 11  1  0
 19 17  1  0
 20 19  1  0
 21 19  2  0
M  END
$$$$
