CSI.pdb
     RDKit          3D

 21 20  0  0  1  0  0  0  0  0999 V2000
   16.3243  -12.8700  -13.3077 N   0  0  0  0  0  0  0  0  0  0  0  0
   16.1766  -11.5304  -13.8369 C   0  0  1  0  0  0  0  0  0  0  0  0
   14.6964  -11.3623  -14.1737 C   0  0  0  0  0  0  0  0  0  0  0  0
   14.3446  -12.0965  -15.7943 S   0  0  0  0  0  0  0  0  0  0  0  0
   16.5030  -10.5536  -12.7945 C   0  0  0  0  0  0  0  0  0  0  0  0
   16.1253  -10.7797  -11.6014 O   0  0  0  0  0  0  0  0  0  0  0  0
   18.2005   -6.8344  -13.4496 O   0  0  0  0  0  0  0  0  0  0  0  0
   18.6315   -7.4879  -12.3055 C   0  0  0  0  0  0  0  0  0  0  0  0
   17.5407   -8.4934  -11.9330 C   0  0  2  0  0  0  0  0  0  0  0  0
   17.2229   -9.3498  -13.0180 N   0  0  0  0  0  0  0  0  0  0  0  0
   16.3978   -7.6893  -11.4328 C   0  0  0  0  0  0  0  0  0  0  0  0
   15.4614   -7.5230  -12.2355 O   0  0  0  0  0  0  0  0  0  0  0  0
   12.3603   -6.8991   -7.2334 C   0  0  0  0  0  0  0  0  0  0  0  0
   13.2522   -6.1659   -8.2218 C   0  0  0  0  0  0  0  0  0  0  0  0
   14.4327   -6.9881   -8.6321 C   0  0  2  0  0  0  0  0  0  0  0  0
   15.2037   -7.5392   -7.4675 C   0  0  0  0  0  0  0  0  0  0  0  0
   15.2345   -6.3047   -9.6739 C   0  0  2  0  0  0  0  0  0  0  0  0
   16.3368   -7.1331  -10.1423 N   0  0  0  0  0  0  0  0  0  0  0  0
   15.6391   -4.9174   -9.3928 C   0  0  0  0  0  0  0  0  0  0  0  0
   14.7352   -3.8839   -9.4234 O   0  0  0  0  0  0  0  0  0  0  0  0
   16.8222   -4.6385   -9.1130 O   0  0  0  0  0  0  0  0  0  0  0  0
  2  3  1  0
  2  1  1  1
  4  3  1  0
  5  2  1  0
  5  6  2  0
  8  7  1  0
  9  8  1  6
  9 11  1  0
  9 10  1  0
 10  5  1  0
 11 12  2  0
 13 14  1  0
 14 15  1  0
 15 16  1  1
 17 15  1  0
 17 18  1  1
 18 11  1  0
 19 17  1  0
 20 19  1  0
 21 19  2  0
M  END
$$$$
