IAY.pdb
     RDKit          3D

 26 26  0  0  1  0  0  0  0  0999 V2000
    8.2115  -11.7333   22.1769 C   0  0  0  0  0  0  0  0  0  0  0  0
    7.7005  -13.1406   22.2355 C   0  0  0  0  0  0  0  0  0  0  0  0
    8.2106  -13.9675   21.0837 C   0  0  2  0  0  0  0  0  0  0  0  0
    7.9147  -13.2592   19.7955 C   0  0  0  0  0  0  0  0  0  0  0  0
    7.7382  -15.4031   21.1222 C   0  0  2  0  0  0  0  0  0  0  0  0
    6.2664  -15.4318   21.0281 N   0  0  0  0  0  0  0  0  0  0  0  0
    8.0846  -16.1052   22.3764 C   0  0  0  0  0  0  0  0  0  0  0  0
    7.2505  -16.1850   23.3260 O   0  0  0  0  0  0  0  0  0  0  0  0
   10.8265  -18.3598   23.4554 C   0  0  0  0  0  0  0  0  0  0  0  0
    9.6705  -17.4194   23.8249 C   0  0  2  0  0  0  0  0  0  0  0  0
    9.3259  -16.7205   22.6033 N   0  0  0  0  0  0  0  0  0  0  0  0
   10.2124  -16.4987   24.8568 C   0  0  0  0  0  0  0  0  0  0  0  0
   11.0397  -15.6107   24.5458 O   0  0  0  0  0  0  0  0  0  0  0  0
    5.9615  -11.6324   25.0696 O   0  0  0  0  0  0  0  0  0  0  0  0
    6.7308  -12.5294   25.7986 C   0  0  0  0  0  0  0  0  0  0  0  0
    6.3108  -13.8417   25.9013 C   0  0  0  0  0  0  0  0  0  0  0  0
    7.1023  -14.7047   26.6346 C   0  0  0  0  0  0  0  0  0  0  0  0
    8.2675  -14.3075   27.2507 C   0  0  0  0  0  0  0  0  0  0  0  0
    9.1087  -15.2258   28.0334 C   0  0  0  0  0  0  0  0  0  0  0  0
   10.2887  -15.7720   27.2715 C   0  0  2  0  0  0  0  0  0  0  0  0
    9.8049  -16.6105   26.1960 N   0  0  0  0  0  0  0  0  0  0  0  0
   11.2381  -16.5354   28.0832 C   0  0  0  0  0  0  0  0  0  0  0  0
   11.3414  -17.9044   27.9019 O   0  0  0  0  0  0  0  0  0  0  0  0
    8.6577  -12.9928   27.1288 C   0  0  0  0  0  0  0  0  0  0  0  0
    7.8891  -12.0822   26.3965 C   0  0  0  0  0  0  0  0  0  0  0  0
   11.9903  -16.0324   28.9585 O   0  0  0  0  0  0  0  0  0  0  0  0
  1  2  1  0
  3  5  1  0
  3  2  1  0
  3  4  1  6
  5  6  1  1
  7  5  1  0
  7  8  2  0
 10  9  1  6
 11 10  1  0
 11  7  1  0
 12 10  1  0
 13 12  2  0
 15 25  2  0
 15 14  1  0
 16 15  1  0
 17 18  1  0
 17 16  2  0
 18 24  2  0
 19 18  1  0
 20 21  1  0
 20 19  1  1
 21 12  1  0
 22 20  1  0
 23 22  1  0
 24 25  1  0
 26 22  2  0
M  END
$$$$
