IAY.pdb
     RDKit          3D

 26 26  0  0  1  0  0  0  0  0999 V2000
    8.5507  -11.5862   18.8364 C   0  0  0  0  0  0  0  0  0  0  0  0
    7.9613  -12.7993   18.1836 C   0  0  0  0  0  0  0  0  0  0  0  0
    7.7783  -13.9275   19.1655 C   0  0  2  0  0  0  0  0  0  0  0  0
    6.8094  -13.5064   20.2298 C   0  0  0  0  0  0  0  0  0  0  0  0
    9.0831  -14.4742   19.6988 C   0  0  2  0  0  0  0  0  0  0  0  0
    9.8164  -15.1342   18.6022 N   0  0  0  0  0  0  0  0  0  0  0  0
    8.9082  -15.4971   20.7519 C   0  0  0  0  0  0  0  0  0  0  0  0
    8.3539  -15.2057   21.8527 O   0  0  0  0  0  0  0  0  0  0  0  0
    9.9760  -19.0610   21.1324 C   0  0  0  0  0  0  0  0  0  0  0  0
    9.3083  -17.7977   21.6940 C   0  0  2  0  0  0  0  0  0  0  0  0
    9.3280  -16.8297   20.6159 N   0  0  0  0  0  0  0  0  0  0  0  0
   10.1517  -17.3697   22.8392 C   0  0  0  0  0  0  0  0  0  0  0  0
   11.3874  -17.2188   22.6980 O   0  0  0  0  0  0  0  0  0  0  0  0
   11.3934  -14.4934   31.1678 O   0  0  0  0  0  0  0  0  0  0  0  0
   11.0024  -14.7576   29.8621 C   0  0  0  0  0  0  0  0  0  0  0  0
   11.8738  -15.4280   29.0253 C   0  0  0  0  0  0  0  0  0  0  0  0
   11.4496  -15.6728   27.7333 C   0  0  0  0  0  0  0  0  0  0  0  0
   10.2163  -15.2791   27.2655 C   0  0  0  0  0  0  0  0  0  0  0  0
    9.7658  -15.5376   25.8893 C   0  0  0  0  0  0  0  0  0  0  0  0
   10.3250  -16.8028   25.2915 C   0  0  2  0  0  0  0  0  0  0  0  0
    9.5758  -17.1280   24.0970 N   0  0  0  0  0  0  0  0  0  0  0  0
   10.3162  -17.9579   26.1908 C   0  0  0  0  0  0  0  0  0  0  0  0
   11.4583  -18.2694   26.9094 O   0  0  0  0  0  0  0  0  0  0  0  0
    9.3718  -14.6130   28.1249 C   0  0  0  0  0  0  0  0  0  0  0  0
    9.7572  -14.3426   29.4420 C   0  0  0  0  0  0  0  0  0  0  0  0
    9.3245  -18.7128   26.3686 O   0  0  0  0  0  0  0  0  0  0  0  0
  1  2  1  0
  3  5  1  0
  3  2  1  0
  3  4  1  1
  5  6  1  6
  7  5  1  0
  7  8  2  0
 10  9  1  6
 11 10  1  0
 11  7  1  0
 12 10  1  0
 13 12  2  0
 15 25  2  0
 15 14  1  0
 16 15  1  0
 17 18  1  0
 17 16  2  0
 18 24  2  0
 19 18  1  0
 20 21  1  0
 20 19  1  1
 21 12  1  0
 22 20  1  0
 23 22  1  0
 24 25  1  0
 26 22  2  0
M  END
$$$$
