IAY.pdb
     RDKit          3D

 26 26  0  0  1  0  0  0  0  0999 V2000
    8.6628  -22.0508   21.0173 C   0  0  0  0  0  0  0  0  0  0  0  0
    8.0484  -20.8860   20.3025 C   0  0  0  0  0  0  0  0  0  0  0  0
    8.5410  -19.5720   20.8513 C   0  0  2  0  0  0  0  0  0  0  0  0
    8.3523  -19.5539   22.3388 C   0  0  0  0  0  0  0  0  0  0  0  0
    7.9602  -18.3710   20.1400 C   0  0  2  0  0  0  0  0  0  0  0  0
    8.1302  -18.5406   18.6846 N   0  0  0  0  0  0  0  0  0  0  0  0
    8.6285  -17.0989   20.4875 C   0  0  0  0  0  0  0  0  0  0  0  0
    9.8714  -16.9468   20.2974 O   0  0  0  0  0  0  0  0  0  0  0  0
    7.4606  -13.6765   21.2472 C   0  0  0  0  0  0  0  0  0  0  0  0
    8.5871  -14.7180   21.3063 C   0  0  2  0  0  0  0  0  0  0  0  0
    7.9572  -15.9947   21.0360 N   0  0  0  0  0  0  0  0  0  0  0  0
    9.1300  -14.6486   22.6870 C   0  0  0  0  0  0  0  0  0  0  0  0
    9.8027  -13.6586   23.0571 O   0  0  0  0  0  0  0  0  0  0  0  0
    5.9852  -10.5079   26.5490 O   0  0  0  0  0  0  0  0  0  0  0  0
    6.5052  -11.7838   26.3773 C   0  0  0  0  0  0  0  0  0  0  0  0
    5.7093  -12.7596   25.8084 C   0  0  0  0  0  0  0  0  0  0  0  0
    6.2612  -14.0168   25.6537 C   0  0  0  0  0  0  0  0  0  0  0  0
    7.5476  -14.3198   26.0392 C   0  0  0  0  0  0  0  0  0  0  0  0
    8.1342  -15.6588   25.8767 C   0  0  0  0  0  0  0  0  0  0  0  0
    9.3410  -15.6912   24.9747 C   0  0  2  0  0  0  0  0  0  0  0  0
    8.8969  -15.6921   23.5975 N   0  0  0  0  0  0  0  0  0  0  0  0
   10.2330  -16.8317   25.1904 C   0  0  0  0  0  0  0  0  0  0  0  0
   10.7737  -17.0444   26.4474 O   0  0  0  0  0  0  0  0  0  0  0  0
    8.3141  -13.3246   26.6029 C   0  0  0  0  0  0  0  0  0  0  0  0
    7.7987  -12.0365   26.7798 C   0  0  0  0  0  0  0  0  0  0  0  0
   10.5576  -17.6589   24.2986 O   0  0  0  0  0  0  0  0  0  0  0  0
  1  2  1  0
  3  5  1  0
  3  2  1  0
  3  4  1  1
  5  6  1  6
  7  5  1  0
  7  8  2  0
 10  9  1  1
 11 10  1  0
 11  7  1  0
 12 10  1  0
 13 12  2  0
 15 25  2  0
 15 14  1  0
 16 15  1  0
 17 18  1  0
 17 16  2  0
 18 24  2  0
 19 18  1  0
 20 21  1  0
 20 19  1  1
 21 12  1  0
 22 20  1  0
 23 22  1  0
 24 25  1  0
 26 22  2  0
M  END
$$$$
