IAY.pdb
     RDKit          3D

 26 26  0  0  1  0  0  0  0  0999 V2000
    7.1883  -20.1408   25.1817 C   0  0  0  0  0  0  0  0  0  0  0  0
    7.3380  -19.6992   23.7576 C   0  0  0  0  0  0  0  0  0  0  0  0
    6.0734  -19.0701   23.2330 C   0  0  2  0  0  0  0  0  0  0  0  0
    4.9297  -20.0206   23.4258 C   0  0  0  0  0  0  0  0  0  0  0  0
    6.2078  -18.5430   21.8224 C   0  0  2  0  0  0  0  0  0  0  0  0
    6.5938  -19.6494   20.9263 N   0  0  0  0  0  0  0  0  0  0  0  0
    7.2547  -17.5094   21.6755 C   0  0  0  0  0  0  0  0  0  0  0  0
    8.4385  -17.8269   21.3567 O   0  0  0  0  0  0  0  0  0  0  0  0
    7.2883  -13.8117   21.4443 C   0  0  0  0  0  0  0  0  0  0  0  0
    8.0429  -15.1185   21.7272 C   0  0  2  0  0  0  0  0  0  0  0  0
    7.0236  -16.1385   21.8700 N   0  0  0  0  0  0  0  0  0  0  0  0
    8.7825  -14.8920   22.9951 C   0  0  0  0  0  0  0  0  0  0  0  0
    9.0939  -13.7320   23.3515 O   0  0  0  0  0  0  0  0  0  0  0  0
    5.5787  -10.9868   26.3021 O   0  0  0  0  0  0  0  0  0  0  0  0
    6.2369  -12.2077   26.2388 C   0  0  0  0  0  0  0  0  0  0  0  0
    5.5052  -13.3494   25.9741 C   0  0  0  0  0  0  0  0  0  0  0  0
    6.1947  -14.5454   25.9188 C   0  0  0  0  0  0  0  0  0  0  0  0
    7.5546  -14.6326   26.1145 C   0  0  0  0  0  0  0  0  0  0  0  0
    8.2882  -15.9063   26.0581 C   0  0  0  0  0  0  0  0  0  0  0  0
    9.5281  -15.8591   25.2027 C   0  0  2  0  0  0  0  0  0  0  0  0
    9.1434  -15.9753   23.8127 N   0  0  0  0  0  0  0  0  0  0  0  0
   10.5215  -16.8890   25.5118 C   0  0  0  0  0  0  0  0  0  0  0  0
   10.8944  -17.7912   24.5296 O   0  0  0  0  0  0  0  0  0  0  0  0
    8.2542  -13.4761   26.3763 C   0  0  0  0  0  0  0  0  0  0  0  0
    7.5996  -12.2419   26.4420 C   0  0  0  0  0  0  0  0  0  0  0  0
   11.0804  -17.0242   26.6318 O   0  0  0  0  0  0  0  0  0  0  0  0
  1  2  1  0
  3  5  1  0
  3  2  1  0
  3  4  1  6
  5  6  1  6
  7  5  1  0
  7  8  2  0
 10  9  1  1
 11 10  1  0
 11  7  1  0
 12 10  1  0
 13 12  2  0
 15 25  2  0
 15 14  1  0
 16 15  1  0
 17 18  1  0
 17 16  2  0
 18 24  2  0
 19 18  1  0
 20 21  1  0
 20 19  1  1
 21 12  1  0
 22 20  1  0
 23 22  1  0
 24 25  1  0
 26 22  2  0
M  END
$$$$
