KEW.pdb
     RDKit          3D

 33 34  0  0  1  0  0  0  0  0999 V2000
    8.6471  -17.0472   19.1617 N   0  0  0  0  0  0  0  0  0  0  0  0
    8.6309  -16.3400   20.4028 C   0  0  1  0  0  0  0  0  0  0  0  0
    7.2863  -16.4487   21.0426 C   0  0  0  0  0  0  0  0  0  0  0  0
    6.6087  -17.7646   20.8782 C   0  0  0  0  0  0  0  0  0  0  0  0
    5.2239  -17.8219   21.4577 C   0  0  0  0  0  0  0  0  0  0  0  0
    4.8313  -19.2404   21.8248 C   0  0  0  0  0  0  0  0  0  0  0  0
    3.4563  -19.2192   22.2776 N   0  0  0  0  0  0  0  0  0  0  0  0
    9.6171  -16.8566   21.3871 C   0  0  0  0  0  0  0  0  0  0  0  0
    9.4691  -18.0621   21.7573 O   0  0  0  0  0  0  0  0  0  0  0  0
   10.6810  -16.1297   21.9305 N   0  0  0  0  0  0  0  0  0  0  0  0
   11.6409  -16.7034   22.8794 C   0  0  1  0  0  0  0  0  0  0  0  0
   12.9928  -16.2857   22.4165 C   0  0  0  0  0  0  0  0  0  0  0  0
   14.1270  -16.6910   23.3118 C   0  0  0  0  0  0  0  0  0  0  0  0
   15.4124  -16.2521   22.7636 C   0  0  0  0  0  0  0  0  0  0  0  0
   15.8657  -16.6242   21.6840 O   0  0  0  0  0  0  0  0  0  0  0  0
   11.3452  -16.2384   24.2643 C   0  0  0  0  0  0  0  0  0  0  0  0
   11.6413  -15.0668   24.5924 O   0  0  0  0  0  0  0  0  0  0  0  0
   16.1785  -15.3541   23.5084 O   0  0  0  0  0  0  0  0  0  0  0  0
   10.7366  -17.0760   25.2346 N   0  0  0  0  0  0  0  0  0  0  0  0
   10.5492  -16.8053   26.6142 C   0  0  1  0  0  0  0  0  0  0  0  0
    9.8301  -15.5708   26.9858 C   0  0  0  0  0  0  0  0  0  0  0  0
    8.4849  -15.3916   26.4401 C   0  0  0  0  0  0  0  0  0  0  0  0
    7.5957  -16.2773   25.8921 C   0  0  0  0  0  0  0  0  0  0  0  0
    6.4740  -15.6139   25.5279 N   0  0  0  0  0  0  0  0  0  0  0  0
    6.6411  -14.3134   25.8387 C   0  0  0  0  0  0  0  0  0  0  0  0
    5.8076  -13.2149   25.6780 C   0  0  0  0  0  0  0  0  0  0  0  0
    6.2192  -11.9711   26.0833 C   0  0  0  0  0  0  0  0  0  0  0  0
    7.4577  -11.7813   26.6546 C   0  0  0  0  0  0  0  0  0  0  0  0
    8.2819  -12.8670   26.8138 C   0  0  0  0  0  0  0  0  0  0  0  0
    7.8791  -14.1281   26.4091 C   0  0  0  0  0  0  0  0  0  0  0  0
    9.8649  -17.9392   27.3625 C   0  0  0  0  0  0  0  0  0  0  0  0
    9.3291  -18.8609   26.7440 O   0  0  0  0  0  0  0  0  0  0  0  0
    9.8631  -17.9019   28.7493 O   0  0  0  0  0  0  0  0  0  0  0  0
  2  1  1  6
  3  2  1  0
  4  3  1  0
  5  4  1  0
  6  5  1  0
  7  6  1  0
  8  2  1  0
  8  9  2  0
 10  8  1  0
 11 10  1  0
 11 12  1  6
 13 12  1  0
 13 14  1  0
 14 18  1  0
 14 15  2  0
 16 11  1  0
 17 16  2  0
 19 16  1  0
 20 21  1  6
 20 19  1  0
 21 22  1  0
 22 23  2  0
 23 24  1  0
 25 24  1  0
 26 25  2  0
 27 26  1  0
 28 29  1  0
 28 27  2  0
 29 30  2  0
 30 22  1  0
 30 25  1  0
 31 33  1  0
 31 20  1  0
 32 31  2  0
M  END
$$$$
