KEW.pdb
     RDKit          3D

 33 34  0  0  1  0  0  0  0  0999 V2000
    6.3510  -20.2302   20.7357 N   0  0  0  0  0  0  0  0  0  0  0  0
    6.0117  -19.1228   21.5720 C   0  0  1  0  0  0  0  0  0  0  0  0
    6.1117  -19.5110   23.0102 C   0  0  0  0  0  0  0  0  0  0  0  0
    5.8733  -20.9528   23.2974 C   0  0  0  0  0  0  0  0  0  0  0  0
    5.8996  -21.3032   24.7579 C   0  0  0  0  0  0  0  0  0  0  0  0
    5.8098  -22.8020   24.9735 C   0  0  0  0  0  0  0  0  0  0  0  0
    6.0284  -23.0637   26.3806 N   0  0  0  0  0  0  0  0  0  0  0  0
    6.9016  -17.9479   21.3821 C   0  0  0  0  0  0  0  0  0  0  0  0
    8.1496  -18.1617   21.4783 O   0  0  0  0  0  0  0  0  0  0  0  0
    6.4789  -16.6432   21.1096 N   0  0  0  0  0  0  0  0  0  0  0  0
    7.3847  -15.4898   21.1175 C   0  0  1  0  0  0  0  0  0  0  0  0
    6.6288  -14.3554   20.5190 C   0  0  0  0  0  0  0  0  0  0  0  0
    7.4189  -13.0943   20.3246 C   0  0  0  0  0  0  0  0  0  0  0  0
    8.3942  -13.2463   19.2423 C   0  0  0  0  0  0  0  0  0  0  0  0
    8.1739  -13.8479   18.1940 O   0  0  0  0  0  0  0  0  0  0  0  0
    7.8439  -15.1979   22.5052 C   0  0  0  0  0  0  0  0  0  0  0  0
    7.3133  -14.2581   23.1400 O   0  0  0  0  0  0  0  0  0  0  0  0
    9.6572  -12.6747   19.4035 O   0  0  0  0  0  0  0  0  0  0  0  0
    8.8663  -15.9480   23.1420 N   0  0  0  0  0  0  0  0  0  0  0  0
    9.6246  -15.5802   24.2828 C   0  0  1  0  0  0  0  0  0  0  0  0
    9.0362  -15.8271   25.6140 C   0  0  0  0  0  0  0  0  0  0  0  0
    7.7395  -15.2117   25.8956 C   0  0  0  0  0  0  0  0  0  0  0  0
    6.4691  -15.7228   25.9082 C   0  0  0  0  0  0  0  0  0  0  0  0
    5.5968  -14.7390   26.2276 N   0  0  0  0  0  0  0  0  0  0  0  0
    6.3004  -13.6057   26.4181 C   0  0  0  0  0  0  0  0  0  0  0  0
    5.8998  -12.3205   26.7575 C   0  0  0  0  0  0  0  0  0  0  0  0
    6.8292  -11.3210   26.8924 C   0  0  0  0  0  0  0  0  0  0  0  0
    8.1704  -11.5637   26.6968 C   0  0  0  0  0  0  0  0  0  0  0  0
    8.5668  -12.8341   26.3614 C   0  0  0  0  0  0  0  0  0  0  0  0
    7.6393  -13.8524   26.2219 C   0  0  0  0  0  0  0  0  0  0  0  0
   11.0131  -16.2011   24.3083 C   0  0  0  0  0  0  0  0  0  0  0  0
   11.3498  -17.0120   23.4434 O   0  0  0  0  0  0  0  0  0  0  0  0
   11.8785  -15.8292   25.3270 O   0  0  0  0  0  0  0  0  0  0  0  0
  2  1  1  6
  3  2  1  0
  4  3  1  0
  5  4  1  0
  6  5  1  0
  7  6  1  0
  8  2  1  0
  8  9  2  0
 10  8  1  0
 11 10  1  0
 11 12  1  1
 13 12  1  0
 13 14  1  0
 14 18  1  0
 14 15  2  0
 16 11  1  0
 17 16  2  0
 19 16  1  0
 20 21  1  1
 20 19  1  0
 21 22  1  0
 22 23  2  0
 23 24  1  0
 25 24  1  0
 26 25  2  0
 27 26  1  0
 28 29  1  0
 28 27  2  0
 29 30  2  0
 30 22  1  0
 30 25  1  0
 31 33  1  0
 31 20  1  0
 32 31  2  0
M  END
$$$$
