KEW.pdb
     RDKit          3D

 33 34  0  0  1  0  0  0  0  0999 V2000
   12.7414  -18.7701   20.9283 N   0  0  0  0  0  0  0  0  0  0  0  0
   12.4186  -17.3800   20.8630 C   0  0  1  0  0  0  0  0  0  0  0  0
   12.4210  -16.9144   19.4445 C   0  0  0  0  0  0  0  0  0  0  0  0
   12.7676  -17.9532   18.4352 C   0  0  0  0  0  0  0  0  0  0  0  0
   11.6957  -18.2011   17.4123 C   0  0  0  0  0  0  0  0  0  0  0  0
   12.1136  -19.2628   16.4127 C   0  0  0  0  0  0  0  0  0  0  0  0
   11.0022  -19.4898   15.5131 N   0  0  0  0  0  0  0  0  0  0  0  0
   11.0770  -17.0611   21.4168 C   0  0  0  0  0  0  0  0  0  0  0  0
   10.6769  -15.8641   21.2770 O   0  0  0  0  0  0  0  0  0  0  0  0
   10.2317  -17.9629   22.0707 N   0  0  0  0  0  0  0  0  0  0  0  0
    8.9356  -17.5777   22.6388 C   0  0  1  0  0  0  0  0  0  0  0  0
    8.2115  -18.8444   22.9349 C   0  0  0  0  0  0  0  0  0  0  0  0
    6.8308  -18.6734   23.4978 C   0  0  0  0  0  0  0  0  0  0  0  0
    6.1741  -19.9694   23.6830 C   0  0  0  0  0  0  0  0  0  0  0  0
    6.6904  -21.0503   23.4097 O   0  0  0  0  0  0  0  0  0  0  0  0
    9.1290  -16.7360   23.8536 C   0  0  0  0  0  0  0  0  0  0  0  0
    8.7079  -15.5567   23.8539 O   0  0  0  0  0  0  0  0  0  0  0  0
    4.8787  -19.9877   24.2023 O   0  0  0  0  0  0  0  0  0  0  0  0
    9.7760  -17.2203   25.0199 N   0  0  0  0  0  0  0  0  0  0  0  0
   10.1005  -16.4925   26.1932 C   0  0  1  0  0  0  0  0  0  0  0  0
    8.9965  -16.0967   27.0897 C   0  0  0  0  0  0  0  0  0  0  0  0
    7.8410  -15.4416   26.4772 C   0  0  0  0  0  0  0  0  0  0  0  0
    6.7218  -15.9443   25.8690 C   0  0  0  0  0  0  0  0  0  0  0  0
    5.9405  -14.9191   25.4573 N   0  0  0  0  0  0  0  0  0  0  0  0
    6.5525  -13.7679   25.7977 C   0  0  0  0  0  0  0  0  0  0  0  0
    6.1864  -12.4417   25.6114 C   0  0  0  0  0  0  0  0  0  0  0  0
    6.9999  -11.4319   26.0580 C   0  0  0  0  0  0  0  0  0  0  0  0
    8.1891  -11.7044   26.6965 C   0  0  0  0  0  0  0  0  0  0  0  0
    8.5513  -13.0152   26.8810 C   0  0  0  0  0  0  0  0  0  0  0  0
    7.7396  -14.0443   26.4352 C   0  0  0  0  0  0  0  0  0  0  0  0
   11.1313  -17.1896   27.0681 C   0  0  0  0  0  0  0  0  0  0  0  0
   11.5915  -18.2843   26.7382 O   0  0  0  0  0  0  0  0  0  0  0  0
   11.5316  -16.5597   28.2376 O   0  0  0  0  0  0  0  0  0  0  0  0
  2  1  1  6
  3  2  1  0
  4  3  1  0
  5  4  1  0
  6  5  1  0
  7  6  1  0
  8  2  1  0
  8  9  2  0
 10  8  1  0
 11 10  1  0
 11 12  1  1
 13 12  1  0
 13 14  1  0
 14 18  1  0
 14 15  2  0
 16 11  1  0
 17 16  2  0
 19 16  1  0
 20 21  1  1
 20 19  1  0
 21 22  1  0
 22 23  2  0
 23 24  1  0
 25 24  1  0
 26 25  2  0
 27 26  1  0
 28 29  1  0
 28 27  2  0
 29 30  2  0
 30 22  1  0
 30 25  1  0
 31 33  1  0
 31 20  1  0
 32 31  2  0
M  END
$$$$
