KEW.pdb
     RDKit          3D

 33 34  0  0  1  0  0  0  0  0999 V2000
    6.0051  -17.1478   21.3704 N   0  0  0  0  0  0  0  0  0  0  0  0
    7.1487  -16.2927   21.4094 C   0  0  1  0  0  0  0  0  0  0  0  0
    6.7777  -14.9576   21.9652 C   0  0  0  0  0  0  0  0  0  0  0  0
    7.5609  -13.8079   21.4336 C   0  0  0  0  0  0  0  0  0  0  0  0
    7.7098  -13.8016   19.9388 C   0  0  0  0  0  0  0  0  0  0  0  0
    8.5579  -12.6355   19.4678 C   0  0  0  0  0  0  0  0  0  0  0  0
    8.5716  -12.6506   18.0201 N   0  0  0  0  0  0  0  0  0  0  0  0
    8.2488  -16.8199   22.2581 C   0  0  0  0  0  0  0  0  0  0  0  0
    7.9045  -17.4171   23.3244 O   0  0  0  0  0  0  0  0  0  0  0  0
    9.6147  -16.7116   21.9789 N   0  0  0  0  0  0  0  0  0  0  0  0
   10.6577  -17.2311   22.8695 C   0  0  1  0  0  0  0  0  0  0  0  0
   11.9282  -17.2010   22.0940 C   0  0  0  0  0  0  0  0  0  0  0  0
   13.1531  -17.6069   22.8604 C   0  0  0  0  0  0  0  0  0  0  0  0
   14.3417  -17.5799   22.0048 C   0  0  0  0  0  0  0  0  0  0  0  0
   14.7650  -18.5496   21.3805 O   0  0  0  0  0  0  0  0  0  0  0  0
   10.7324  -16.4158   24.1150 C   0  0  0  0  0  0  0  0  0  0  0  0
   11.3012  -15.3008   24.0830 O   0  0  0  0  0  0  0  0  0  0  0  0
   15.0449  -16.3803   21.8853 O   0  0  0  0  0  0  0  0  0  0  0  0
   10.1802  -16.8549   25.3462 N   0  0  0  0  0  0  0  0  0  0  0  0
   10.4477  -16.3467   26.6431 C   0  0  1  0  0  0  0  0  0  0  0  0
    9.6464  -15.2008   27.1162 C   0  0  0  0  0  0  0  0  0  0  0  0
    8.3241  -15.0181   26.5182 C   0  0  0  0  0  0  0  0  0  0  0  0
    7.3649  -15.9153   26.1306 C   0  0  0  0  0  0  0  0  0  0  0  0
    6.3059  -15.2431   25.6231 N   0  0  0  0  0  0  0  0  0  0  0  0
    6.5825  -13.9256   25.6837 C   0  0  0  0  0  0  0  0  0  0  0  0
    5.8469  -12.8128   25.2989 C   0  0  0  0  0  0  0  0  0  0  0  0
    6.3618  -11.5530   25.4682 C   0  0  0  0  0  0  0  0  0  0  0  0
    7.6093  -11.3609   26.0188 C   0  0  0  0  0  0  0  0  0  0  0  0
    8.3365  -12.4607   26.3993 C   0  0  0  0  0  0  0  0  0  0  0  0
    7.8290  -13.7381   26.2342 C   0  0  0  0  0  0  0  0  0  0  0  0
   10.3640  -17.4046   27.7330 C   0  0  0  0  0  0  0  0  0  0  0  0
   10.7175  -17.1433   28.8844 O   0  0  0  0  0  0  0  0  0  0  0  0
    9.8825  -18.6602   27.3918 O   0  0  0  0  0  0  0  0  0  0  0  0
  2  1  1  1
  3  2  1  0
  4  3  1  0
  5  4  1  0
  6  5  1  0
  7  6  1  0
  8  2  1  0
  8  9  2  0
 10  8  1  0
 11 10  1  0
 11 12  1  6
 13 12  1  0
 13 14  1  0
 14 18  1  0
 14 15  2  0
 16 11  1  0
 17 16  2  0
 19 16  1  0
 20 21  1  1
 20 19  1  0
 21 22  1  0
 22 23  2  0
 23 24  1  0
 25 24  1  0
 26 25  2  0
 27 26  1  0
 28 29  1  0
 28 27  2  0
 29 30  2  0
 30 22  1  0
 30 25  1  0
 31 33  1  0
 31 20  1  0
 32 31  2  0
M  END
$$$$
