KEW.pdb
     RDKit          3D

 33 34  0  0  1  0  0  0  0  0999 V2000
    9.8345  -13.7365   19.2693 N   0  0  0  0  0  0  0  0  0  0  0  0
    8.7385  -14.0147   20.1423 C   0  0  1  0  0  0  0  0  0  0  0  0
    7.5375  -14.4182   19.3524 C   0  0  0  0  0  0  0  0  0  0  0  0
    7.3675  -13.7153   18.0505 C   0  0  0  0  0  0  0  0  0  0  0  0
    7.6435  -14.5709   16.8470 C   0  0  0  0  0  0  0  0  0  0  0  0
    7.4289  -13.8037   15.5562 C   0  0  0  0  0  0  0  0  0  0  0  0
    7.7249  -14.6945   14.4539 N   0  0  0  0  0  0  0  0  0  0  0  0
    9.0136  -15.1187   21.0983 C   0  0  0  0  0  0  0  0  0  0  0  0
    8.0197  -15.5613   21.7531 O   0  0  0  0  0  0  0  0  0  0  0  0
   10.2637  -15.7008   21.3306 N   0  0  0  0  0  0  0  0  0  0  0  0
   10.4817  -16.7618   22.3193 C   0  0  1  0  0  0  0  0  0  0  0  0
   11.8071  -17.3637   22.0071 C   0  0  0  0  0  0  0  0  0  0  0  0
   11.8271  -18.2811   20.8195 C   0  0  0  0  0  0  0  0  0  0  0  0
   13.1820  -18.7717   20.5567 C   0  0  0  0  0  0  0  0  0  0  0  0
   13.9365  -18.2965   19.7115 O   0  0  0  0  0  0  0  0  0  0  0  0
   10.4207  -16.2064   23.7011 C   0  0  0  0  0  0  0  0  0  0  0  0
   10.9222  -15.0824   23.9312 O   0  0  0  0  0  0  0  0  0  0  0  0
   13.6547  -19.8476   21.3095 O   0  0  0  0  0  0  0  0  0  0  0  0
    9.8123  -16.9050   24.7760 N   0  0  0  0  0  0  0  0  0  0  0  0
    9.7818  -16.5295   26.1433 C   0  0  1  0  0  0  0  0  0  0  0  0
    8.4833  -16.1341   26.7237 C   0  0  0  0  0  0  0  0  0  0  0  0
    7.5748  -15.3699   25.8692 C   0  0  0  0  0  0  0  0  0  0  0  0
    6.8365  -15.7257   24.7721 C   0  0  0  0  0  0  0  0  0  0  0  0
    6.1517  -14.6467   24.3276 N   0  0  0  0  0  0  0  0  0  0  0  0
    6.4477  -13.6067   25.1317 C   0  0  0  0  0  0  0  0  0  0  0  0
    6.0232  -12.2849   25.1197 C   0  0  0  0  0  0  0  0  0  0  0  0
    6.4812  -11.4044   26.0662 C   0  0  0  0  0  0  0  0  0  0  0  0
    7.3650  -11.8044   27.0434 C   0  0  0  0  0  0  0  0  0  0  0  0
    7.7848  -13.1110   27.0556 C   0  0  0  0  0  0  0  0  0  0  0  0
    7.3306  -14.0104   26.1062 C   0  0  0  0  0  0  0  0  0  0  0  0
   10.3591  -17.5878   27.0711 C   0  0  0  0  0  0  0  0  0  0  0  0
   10.7249  -18.6766   26.6243 O   0  0  0  0  0  0  0  0  0  0  0  0
   10.4586  -17.2904   28.4226 O   0  0  0  0  0  0  0  0  0  0  0  0
  2  1  1  6
  3  2  1  0
  4  3  1  0
  5  4  1  0
  6  5  1  0
  7  6  1  0
  8  2  1  0
  8  9  2  0
 10  8  1  0
 11 10  1  0
 11 12  1  6
 13 12  1  0
 13 14  1  0
 14 18  1  0
 14 15  2  0
 16 11  1  0
 17 16  2  0
 19 16  1  0
 20 21  1  1
 20 19  1  0
 21 22  1  0
 22 23  2  0
 23 24  1  0
 25 24  1  0
 26 25  2  0
 27 26  1  0
 28 29  1  0
 28 27  2  0
 29 30  2  0
 30 22  1  0
 30 25  1  0
 31 33  1  0
 31 20  1  0
 32 31  2  0
M  END
$$$$
