DWN.pdb
     RDKit          3D

 31 32  0  0  1  0  0  0  0  0999 V2000
    9.8117  -19.2403   18.3361 N   0  0  0  0  0  0  0  0  0  0  0  0
   10.9517  -18.3602   18.4608 C   0  0  1  0  0  0  0  0  0  0  0  0
   10.9107  -17.4124   17.2903 C   0  0  0  0  0  0  0  0  0  0  0  0
   11.2084  -18.1553   16.0324 C   0  0  0  0  0  0  0  0  0  0  0  0
   11.7700  -19.2913   16.0649 O   0  0  0  0  0  0  0  0  0  0  0  0
   10.8694  -17.5502   19.6972 C   0  0  0  0  0  0  0  0  0  0  0  0
   11.6947  -16.6381   19.9219 O   0  0  0  0  0  0  0  0  0  0  0  0
   10.8816  -17.6223   14.8115 O   0  0  0  0  0  0  0  0  0  0  0  0
    9.8464  -17.7987   20.6453 N   0  0  0  0  0  0  0  0  0  0  0  0
    9.7078  -17.0554   21.8548 C   0  0  1  0  0  0  0  0  0  0  0  0
    8.3250  -16.7602   22.2904 C   0  0  0  0  0  0  0  0  0  0  0  0
    7.5607  -15.8918   21.3980 C   0  0  0  0  0  0  0  0  0  0  0  0
    6.5311  -16.2557   20.5715 C   0  0  0  0  0  0  0  0  0  0  0  0
    6.0633  -15.1847   19.8959 N   0  0  0  0  0  0  0  0  0  0  0  0
    6.7906  -14.1350   20.2874 C   0  0  0  0  0  0  0  0  0  0  0  0
    6.6860  -12.8175   19.8729 C   0  0  0  0  0  0  0  0  0  0  0  0
    7.5711  -11.9106   20.4378 C   0  0  0  0  0  0  0  0  0  0  0  0
    8.5220  -12.2876   21.3755 C   0  0  0  0  0  0  0  0  0  0  0  0
    8.6041  -13.6081   21.7700 C   0  0  0  0  0  0  0  0  0  0  0  0
    7.7399  -14.5355   21.2274 C   0  0  0  0  0  0  0  0  0  0  0  0
   10.3572  -17.8979   22.9331 C   0  0  0  0  0  0  0  0  0  0  0  0
    9.9820  -19.0642   23.1889 O   0  0  0  0  0  0  0  0  0  0  0  0
   13.3334  -19.5968   22.6779 N   0  0  0  0  0  0  0  0  0  0  0  0
   14.1625  -18.7939   23.5071 C   0  0  0  0  0  0  0  0  0  0  0  0
   15.3902  -18.7494   23.2906 O   0  0  0  0  0  0  0  0  0  0  0  0
   13.5687  -18.0138   24.6133 C   0  0  0  0  0  0  0  0  0  0  0  0
   12.0562  -18.2360   24.7346 C   0  0  2  0  0  0  0  0  0  0  0  0
   11.4378  -17.4023   23.7174 N   0  0  0  0  0  0  0  0  0  0  0  0
   11.5637  -17.8170   26.0755 C   0  0  0  0  0  0  0  0  0  0  0  0
   11.5735  -18.6586   27.1705 O   0  0  0  0  0  0  0  0  0  0  0  0
   11.0948  -16.6457   26.2985 O   0  0  0  0  0  0  0  0  0  0  0  0
  2  1  1  6
  3  4  1  0
  3  2  1  0
  4  5  2  0
  4  8  1  0
  6  2  1  0
  6  7  2  0
  9  6  1  0
 10  9  1  0
 10 11  1  1
 12 11  1  0
 12 13  2  0
 14 13  1  0
 15 14  1  0
 16 15  2  0
 17 16  1  0
 18 17  2  0
 18 19  1  0
 19 20  2  0
 20 15  1  0
 20 12  1  0
 21 10  1  0
 22 21  2  0
 23 24  1  0
 24 25  2  0
 26 24  1  0
 27 26  1  1
 27 28  1  0
 27 29  1  0
 28 21  1  0
 29 30  1  0
 31 29  2  0
M  END
$$$$
