DWN.pdb
     RDKit          3D

 31 32  0  0  1  0  0  0  0  0999 V2000
    9.8568  -16.4264   20.4273 N   0  0  0  0  0  0  0  0  0  0  0  0
   10.5938  -17.3230   21.2892 C   0  0  1  0  0  0  0  0  0  0  0  0
   12.0397  -17.2511   20.8718 C   0  0  0  0  0  0  0  0  0  0  0  0
   12.1554  -17.5339   19.4125 C   0  0  0  0  0  0  0  0  0  0  0  0
   13.1440  -17.1077   18.7434 O   0  0  0  0  0  0  0  0  0  0  0  0
   10.5130  -16.8924   22.7033 C   0  0  0  0  0  0  0  0  0  0  0  0
   11.3948  -16.1589   23.2012 O   0  0  0  0  0  0  0  0  0  0  0  0
   11.1908  -18.2612   18.7627 O   0  0  0  0  0  0  0  0  0  0  0  0
    9.4273  -17.3068   23.5137 N   0  0  0  0  0  0  0  0  0  0  0  0
    9.2323  -16.8470   24.8498 C   0  0  1  0  0  0  0  0  0  0  0  0
    7.8494  -16.4758   25.2222 C   0  0  0  0  0  0  0  0  0  0  0  0
    7.4125  -15.1575   24.7682 C   0  0  0  0  0  0  0  0  0  0  0  0
    6.9633  -14.8197   23.5194 C   0  0  0  0  0  0  0  0  0  0  0  0
    6.6456  -13.5087   23.4676 N   0  0  0  0  0  0  0  0  0  0  0  0
    6.8901  -13.0053   24.6804 C   0  0  0  0  0  0  0  0  0  0  0  0
    6.7208  -11.7018   25.1172 C   0  0  0  0  0  0  0  0  0  0  0  0
    7.0529  -11.4351   26.4376 C   0  0  0  0  0  0  0  0  0  0  0  0
    7.5328  -12.4156   27.2945 C   0  0  0  0  0  0  0  0  0  0  0  0
    7.6921  -13.7066   26.8320 C   0  0  0  0  0  0  0  0  0  0  0  0
    7.3722  -14.0055   25.5245 C   0  0  0  0  0  0  0  0  0  0  0  0
    9.6557  -17.9925   25.7458 C   0  0  0  0  0  0  0  0  0  0  0  0
    9.2936  -19.1728   25.5406 O   0  0  0  0  0  0  0  0  0  0  0  0
   12.9452  -21.5954   27.3524 N   0  0  0  0  0  0  0  0  0  0  0  0
   13.1947  -20.2302   27.6581 C   0  0  0  0  0  0  0  0  0  0  0  0
   14.0528  -19.9387   28.5153 O   0  0  0  0  0  0  0  0  0  0  0  0
   12.4445  -19.1663   26.9580 C   0  0  0  0  0  0  0  0  0  0  0  0
   11.0703  -18.9123   27.5895 C   0  0  2  0  0  0  0  0  0  0  0  0
   10.4955  -17.7835   26.8771 N   0  0  0  0  0  0  0  0  0  0  0  0
   11.2043  -18.5636   29.0305 C   0  0  0  0  0  0  0  0  0  0  0  0
   11.3312  -19.5182   30.0206 O   0  0  0  0  0  0  0  0  0  0  0  0
   11.2070  -17.3513   29.4452 O   0  0  0  0  0  0  0  0  0  0  0  0
  2  1  1  6
  3  4  1  0
  3  2  1  0
  4  5  2  0
  4  8  1  0
  6  2  1  0
  6  7  2  0
  9  6  1  0
 10  9  1  0
 10 11  1  6
 12 11  1  0
 12 13  2  0
 14 13  1  0
 15 14  1  0
 16 15  2  0
 17 16  1  0
 18 17  2  0
 18 19  1  0
 19 20  2  0
 20 15  1  0
 20 12  1  0
 21 10  1  0
 22 21  2  0
 23 24  1  0
 24 25  2  0
 26 24  1  0
 27 26  1  6
 27 28  1  0
 27 29  1  0
 28 21  1  0
 29 30  1  0
 31 29  2  0
M  END
$$$$
