DWN.pdb
     RDKit          3D

 31 32  0  0  1  0  0  0  0  0999 V2000
    7.7268  -16.3305   21.0104 N   0  0  0  0  0  0  0  0  0  0  0  0
    9.0839  -16.7455   21.2858 C   0  0  1  0  0  0  0  0  0  0  0  0
    9.9285  -16.3037   20.1190 C   0  0  0  0  0  0  0  0  0  0  0  0
    9.5453  -17.0747   18.9018 C   0  0  0  0  0  0  0  0  0  0  0  0
    9.3217  -18.3208   18.9644 O   0  0  0  0  0  0  0  0  0  0  0  0
    9.6110  -16.0801   22.4987 C   0  0  0  0  0  0  0  0  0  0  0  0
   10.1777  -14.9680   22.4245 O   0  0  0  0  0  0  0  0  0  0  0  0
    9.4287  -16.4499   17.6863 O   0  0  0  0  0  0  0  0  0  0  0  0
    9.4764  -16.6983   23.7664 N   0  0  0  0  0  0  0  0  0  0  0  0
    9.9406  -16.1032   24.9767 C   0  0  1  0  0  0  0  0  0  0  0  0
    9.0038  -16.1250   26.1217 C   0  0  0  0  0  0  0  0  0  0  0  0
    7.7705  -15.3644   25.9345 C   0  0  0  0  0  0  0  0  0  0  0  0
    6.5315  -15.8601   25.6266 C   0  0  0  0  0  0  0  0  0  0  0  0
    5.6295  -14.8601   25.5341 N   0  0  0  0  0  0  0  0  0  0  0  0
    6.2873  -13.7243   25.7822 C   0  0  0  0  0  0  0  0  0  0  0  0
    5.7890  -12.4322   25.8014 C   0  0  0  0  0  0  0  0  0  0  0  0
    6.6902  -11.4170   26.0877 C   0  0  0  0  0  0  0  0  0  0  0  0
    8.0308  -11.6660   26.3458 C   0  0  0  0  0  0  0  0  0  0  0  0
    8.5003  -12.9640   26.3196 C   0  0  0  0  0  0  0  0  0  0  0  0
    7.6311  -13.9967   26.0373 C   0  0  0  0  0  0  0  0  0  0  0  0
   11.1713  -16.8899   25.3774 C   0  0  0  0  0  0  0  0  0  0  0  0
   11.7579  -16.7071   26.4678 O   0  0  0  0  0  0  0  0  0  0  0  0
   10.3182  -21.1314   25.4033 N   0  0  0  0  0  0  0  0  0  0  0  0
   11.5894  -20.6209   25.7816 C   0  0  0  0  0  0  0  0  0  0  0  0
   11.9079  -20.5955   26.9875 O   0  0  0  0  0  0  0  0  0  0  0  0
   12.5266  -20.1304   24.7494 C   0  0  0  0  0  0  0  0  0  0  0  0
   12.8893  -18.6537   24.9484 C   0  0  2  0  0  0  0  0  0  0  0  0
   11.7286  -17.8873   24.5269 N   0  0  0  0  0  0  0  0  0  0  0  0
   14.0567  -18.2753   24.1057 C   0  0  0  0  0  0  0  0  0  0  0  0
   15.2553  -17.8456   24.6409 O   0  0  0  0  0  0  0  0  0  0  0  0
   14.0222  -18.3215   22.8258 O   0  0  0  0  0  0  0  0  0  0  0  0
  2  1  1  6
  3  4  1  0
  3  2  1  0
  4  5  2  0
  4  8  1  0
  6  2  1  0
  6  7  2  0
  9  6  1  0
 10  9  1  0
 10 11  1  1
 12 11  1  0
 12 13  2  0
 14 13  1  0
 15 14  1  0
 16 15  2  0
 17 16  1  0
 18 17  2  0
 18 19  1  0
 19 20  2  0
 20 15  1  0
 20 12  1  0
 21 10  1  0
 22 21  2  0
 23 24  1  0
 24 25  2  0
 26 24  1  0
 27 26  1  6
 27 28  1  0
 27 29  1  0
 28 21  1  0
 29 30  1  0
 31 29  2  0
M  END
$$$$
