DWN.pdb
     RDKit          3D

 31 32  0  0  1  0  0  0  0  0999 V2000
    9.6304  -17.5888   20.7190 N   0  0  0  0  0  0  0  0  0  0  0  0
   10.9657  -17.4276   21.2491 C   0  0  1  0  0  0  0  0  0  0  0  0
   11.6530  -16.3820   20.4098 C   0  0  0  0  0  0  0  0  0  0  0  0
   11.8343  -16.8929   19.0210 C   0  0  0  0  0  0  0  0  0  0  0  0
   12.6694  -17.8129   18.7699 O   0  0  0  0  0  0  0  0  0  0  0  0
   10.9313  -16.9322   22.6437 C   0  0  0  0  0  0  0  0  0  0  0  0
   11.9292  -16.3748   23.1506 O   0  0  0  0  0  0  0  0  0  0  0  0
   11.1008  -16.3750   17.9842 O   0  0  0  0  0  0  0  0  0  0  0  0
    9.7588  -17.0824   23.4248 N   0  0  0  0  0  0  0  0  0  0  0  0
    9.6890  -16.7208   24.8028 C   0  0  1  0  0  0  0  0  0  0  0  0
    8.3452  -16.3966   25.3303 C   0  0  0  0  0  0  0  0  0  0  0  0
    7.7529  -15.1640   24.8161 C   0  0  0  0  0  0  0  0  0  0  0  0
    7.3233  -14.9229   23.5382 C   0  0  0  0  0  0  0  0  0  0  0  0
    6.8300  -13.6710   23.4313 N   0  0  0  0  0  0  0  0  0  0  0  0
    6.9422  -13.1087   24.6377 C   0  0  0  0  0  0  0  0  0  0  0  0
    6.5726  -11.8315   25.0256 C   0  0  0  0  0  0  0  0  0  0  0  0
    6.7990  -11.4887   26.3508 C   0  0  0  0  0  0  0  0  0  0  0  0
    7.3672  -12.3711   27.2587 C   0  0  0  0  0  0  0  0  0  0  0  0
    7.7265  -13.6381   26.8444 C   0  0  0  0  0  0  0  0  0  0  0  0
    7.5160  -14.0107   25.5335 C   0  0  0  0  0  0  0  0  0  0  0  0
   10.2046  -17.9205   25.5704 C   0  0  0  0  0  0  0  0  0  0  0  0
    9.8436  -19.0897   25.3078 O   0  0  0  0  0  0  0  0  0  0  0  0
   14.0022  -21.2754   27.2162 N   0  0  0  0  0  0  0  0  0  0  0  0
   13.8163  -20.0419   27.8971 C   0  0  0  0  0  0  0  0  0  0  0  0
   14.2113  -19.9236   29.0744 O   0  0  0  0  0  0  0  0  0  0  0  0
   13.1645  -18.9079   27.2087 C   0  0  0  0  0  0  0  0  0  0  0  0
   11.6373  -18.9470   27.3424 C   0  0  2  0  0  0  0  0  0  0  0  0
   11.1355  -17.7784   26.6391 N   0  0  0  0  0  0  0  0  0  0  0  0
   11.2272  -18.8706   28.7714 C   0  0  0  0  0  0  0  0  0  0  0  0
   10.9865  -17.6728   29.4157 O   0  0  0  0  0  0  0  0  0  0  0  0
   11.0740  -19.9150   29.4976 O   0  0  0  0  0  0  0  0  0  0  0  0
  2  1  1  6
  3  4  1  0
  3  2  1  0
  4  5  2  0
  4  8  1  0
  6  2  1  0
  6  7  2  0
  9  6  1  0
 10  9  1  0
 10 11  1  1
 12 11  1  0
 12 13  2  0
 14 13  1  0
 15 14  1  0
 16 15  2  0
 17 16  1  0
 18 17  2  0
 18 19  1  0
 19 20  2  0
 20 15  1  0
 20 12  1  0
 21 10  1  0
 22 21  2  0
 23 24  1  0
 24 25  2  0
 26 24  1  0
 27 26  1  1
 27 28  1  0
 27 29  1  0
 28 21  1  0
 29 30  1  0
 31 29  2  0
M  END
$$$$
