DWN.pdb
     RDKit          3D

 31 32  0  0  1  0  0  0  0  0999 V2000
    7.3867  -17.3503   20.4652 N   0  0  0  0  0  0  0  0  0  0  0  0
    8.5737  -16.6150   20.0909 C   0  0  1  0  0  0  0  0  0  0  0  0
    8.1308  -15.4775   19.2076 C   0  0  0  0  0  0  0  0  0  0  0  0
    7.7980  -15.9966   17.8502 C   0  0  0  0  0  0  0  0  0  0  0  0
    7.9102  -17.2298   17.5794 O   0  0  0  0  0  0  0  0  0  0  0  0
    9.2367  -16.0295   21.2780 C   0  0  0  0  0  0  0  0  0  0  0  0
   10.1251  -15.1587   21.1514 O   0  0  0  0  0  0  0  0  0  0  0  0
    7.3646  -15.1475   16.8639 O   0  0  0  0  0  0  0  0  0  0  0  0
    8.8683  -16.4496   22.5799 N   0  0  0  0  0  0  0  0  0  0  0  0
    9.5324  -16.0019   23.7601 C   0  0  1  0  0  0  0  0  0  0  0  0
    8.8422  -16.2634   25.0424 C   0  0  0  0  0  0  0  0  0  0  0  0
    7.6690  -15.4320   25.3014 C   0  0  0  0  0  0  0  0  0  0  0  0
    6.3547  -15.8100   25.2280 C   0  0  0  0  0  0  0  0  0  0  0  0
    5.5450  -14.7751   25.5370 N   0  0  0  0  0  0  0  0  0  0  0  0
    6.3371  -13.7344   25.8083 C   0  0  0  0  0  0  0  0  0  0  0  0
    5.9694  -12.4502   26.1747 C   0  0  0  0  0  0  0  0  0  0  0  0
    6.9960  -11.5449   26.4014 C   0  0  0  0  0  0  0  0  0  0  0  0
    8.3334  -11.8921   26.2725 C   0  0  0  0  0  0  0  0  0  0  0  0
    8.6710  -13.1795   25.9055 C   0  0  0  0  0  0  0  0  0  0  0  0
    7.6750  -14.1040   25.6718 C   0  0  0  0  0  0  0  0  0  0  0  0
   10.8551  -16.7392   23.7938 C   0  0  0  0  0  0  0  0  0  0  0  0
   10.9822  -17.9074   23.3630 O   0  0  0  0  0  0  0  0  0  0  0  0
   16.3050  -16.6449   22.6211 N   0  0  0  0  0  0  0  0  0  0  0  0
   15.7288  -16.3059   23.8752 C   0  0  0  0  0  0  0  0  0  0  0  0
   16.3875  -16.4758   24.9208 O   0  0  0  0  0  0  0  0  0  0  0  0
   14.3604  -15.7504   23.9345 C   0  0  0  0  0  0  0  0  0  0  0  0
   13.3109  -16.8230   24.2504 C   0  0  2  0  0  0  0  0  0  0  0  0
   12.0324  -16.1355   24.3212 N   0  0  0  0  0  0  0  0  0  0  0  0
   13.5908  -17.4701   25.5616 C   0  0  0  0  0  0  0  0  0  0  0  0
   14.3495  -18.6181   25.6802 O   0  0  0  0  0  0  0  0  0  0  0  0
   13.1413  -17.0029   26.6666 O   0  0  0  0  0  0  0  0  0  0  0  0
  2  1  1  1
  3  4  1  0
  3  2  1  0
  4  5  2  0
  4  8  1  0
  6  2  1  0
  6  7  2  0
  9  6  1  0
 10  9  1  0
 10 11  1  1
 12 11  1  0
 12 13  2  0
 14 13  1  0
 15 14  1  0
 16 15  2  0
 17 16  1  0
 18 17  2  0
 18 19  1  0
 19 20  2  0
 20 15  1  0
 20 12  1  0
 21 10  1  0
 22 21  2  0
 23 24  1  0
 24 25  2  0
 26 24  1  0
 27 26  1  1
 27 28  1  0
 27 29  1  0
 28 21  1  0
 29 30  1  0
 31 29  2  0
M  END
$$$$
