DWN.pdb
     RDKit          3D

 31 32  0  0  1  0  0  0  0  0999 V2000
    9.6615  -16.3351   18.1340 N   0  0  0  0  0  0  0  0  0  0  0  0
    9.7266  -17.3033   19.2055 C   0  0  1  0  0  0  0  0  0  0  0  0
   11.0509  -18.0115   19.0838 C   0  0  0  0  0  0  0  0  0  0  0  0
   11.1535  -18.6566   17.7436 C   0  0  0  0  0  0  0  0  0  0  0  0
   10.3459  -19.5702   17.3976 O   0  0  0  0  0  0  0  0  0  0  0  0
    9.6925  -16.6399   20.5286 C   0  0  0  0  0  0  0  0  0  0  0  0
   10.6557  -15.9471   20.9231 O   0  0  0  0  0  0  0  0  0  0  0  0
   12.1277  -18.2748   16.8567 O   0  0  0  0  0  0  0  0  0  0  0  0
    8.5596  -16.7810   21.3677 N   0  0  0  0  0  0  0  0  0  0  0  0
    8.4337  -16.1185   22.6246 C   0  0  1  0  0  0  0  0  0  0  0  0
    7.0590  -15.9523   23.1456 C   0  0  0  0  0  0  0  0  0  0  0  0
    6.9642  -15.3879   24.4898 C   0  0  0  0  0  0  0  0  0  0  0  0
    6.6060  -16.0422   25.6384 C   0  0  0  0  0  0  0  0  0  0  0  0
    6.6314  -15.1995   26.6926 N   0  0  0  0  0  0  0  0  0  0  0  0
    7.0051  -14.0063   26.2226 C   0  0  0  0  0  0  0  0  0  0  0  0
    7.1734  -12.8236   26.9235 C   0  0  0  0  0  0  0  0  0  0  0  0
    7.5706  -11.7130   26.1929 C   0  0  0  0  0  0  0  0  0  0  0  0
    7.7939  -11.7664   24.8243 C   0  0  0  0  0  0  0  0  0  0  0  0
    7.6181  -12.9588   24.1510 C   0  0  0  0  0  0  0  0  0  0  0  0
    7.2229  -14.0817   24.8470 C   0  0  0  0  0  0  0  0  0  0  0  0
    9.1995  -16.9687   23.6171 C   0  0  0  0  0  0  0  0  0  0  0  0
    9.0702  -18.2123   23.6743 O   0  0  0  0  0  0  0  0  0  0  0  0
   12.7377  -18.5727   27.0231 N   0  0  0  0  0  0  0  0  0  0  0  0
   13.2433  -17.5019   26.2375 C   0  0  0  0  0  0  0  0  0  0  0  0
   14.4642  -17.2465   26.2588 O   0  0  0  0  0  0  0  0  0  0  0  0
   12.3260  -16.7030   25.3979 C   0  0  0  0  0  0  0  0  0  0  0  0
   10.8880  -17.2341   25.4406 C   0  0  2  0  0  0  0  0  0  0  0  0
   10.1145  -16.3918   24.5437 N   0  0  0  0  0  0  0  0  0  0  0  0
   10.3245  -17.1315   26.8146 C   0  0  0  0  0  0  0  0  0  0  0  0
   10.2578  -18.2089   27.6762 O   0  0  0  0  0  0  0  0  0  0  0  0
    9.8610  -16.0337   27.2854 O   0  0  0  0  0  0  0  0  0  0  0  0
  2  1  1  6
  3  4  1  0
  3  2  1  0
  4  5  2  0
  4  8  1  0
  6  2  1  0
  6  7  2  0
  9  6  1  0
 10  9  1  0
 10 11  1  1
 12 11  1  0
 12 13  2  0
 14 13  1  0
 15 14  1  0
 16 15  2  0
 17 16  1  0
 18 17  2  0
 18 19  1  0
 19 20  2  0
 20 15  1  0
 20 12  1  0
 21 10  1  0
 22 21  2  0
 23 24  1  0
 24 25  2  0
 26 24  1  0
 27 26  1  1
 27 28  1  0
 27 29  1  0
 28 21  1  0
 29 30  1  0
 31 29  2  0
M  END
$$$$
