DWN.pdb
     RDKit          3D

 31 32  0  0  1  0  0  0  0  0999 V2000
    7.2476  -16.2726   19.9887 N   0  0  0  0  0  0  0  0  0  0  0  0
    8.5534  -15.6622   19.8786 C   0  0  1  0  0  0  0  0  0  0  0  0
    8.3720  -14.3538   19.1539 C   0  0  0  0  0  0  0  0  0  0  0  0
    8.0093  -14.6142   17.7314 C   0  0  0  0  0  0  0  0  0  0  0  0
    7.7366  -13.6590   16.9440 O   0  0  0  0  0  0  0  0  0  0  0  0
    9.1174  -15.3611   21.2139 C   0  0  0  0  0  0  0  0  0  0  0  0
   10.0897  -14.5849   21.3387 O   0  0  0  0  0  0  0  0  0  0  0  0
    7.9615  -15.8960   17.2455 O   0  0  0  0  0  0  0  0  0  0  0  0
    8.5570  -15.9508   22.3738 N   0  0  0  0  0  0  0  0  0  0  0  0
    9.1290  -15.8109   23.6729 C   0  0  1  0  0  0  0  0  0  0  0  0
    8.2758  -16.2107   24.8137 C   0  0  0  0  0  0  0  0  0  0  0  0
    7.2400  -15.2500   25.1861 C   0  0  0  0  0  0  0  0  0  0  0  0
    5.8849  -15.4473   25.1713 C   0  0  0  0  0  0  0  0  0  0  0  0
    5.2387  -14.3358   25.5827 N   0  0  0  0  0  0  0  0  0  0  0  0
    6.1764  -13.4263   25.8612 C   0  0  0  0  0  0  0  0  0  0  0  0
    6.0041  -12.1296   26.3166 C   0  0  0  0  0  0  0  0  0  0  0  0
    7.1534  -11.3821   26.5294 C   0  0  0  0  0  0  0  0  0  0  0  0
    8.4235  -11.8932   26.3026 C   0  0  0  0  0  0  0  0  0  0  0  0
    8.5656  -13.1891   25.8482 C   0  0  0  0  0  0  0  0  0  0  0  0
    7.4436  -13.9592   25.6255 C   0  0  0  0  0  0  0  0  0  0  0  0
   10.3532  -16.7029   23.6825 C   0  0  0  0  0  0  0  0  0  0  0  0
   10.4134  -17.7651   23.0234 O   0  0  0  0  0  0  0  0  0  0  0  0
   16.2722  -16.7998   24.7586 N   0  0  0  0  0  0  0  0  0  0  0  0
   15.1142  -17.2368   24.0603 C   0  0  0  0  0  0  0  0  0  0  0  0
   15.1513  -18.3034   23.4144 O   0  0  0  0  0  0  0  0  0  0  0  0
   13.8748  -16.4328   24.1070 C   0  0  0  0  0  0  0  0  0  0  0  0
   12.6500  -17.2745   24.4853 C   0  0  2  0  0  0  0  0  0  0  0  0
   11.5088  -16.3753   24.4480 N   0  0  0  0  0  0  0  0  0  0  0  0
   12.7904  -17.8288   25.8598 C   0  0  0  0  0  0  0  0  0  0  0  0
   12.0630  -17.3541   26.9337 O   0  0  0  0  0  0  0  0  0  0  0  0
   13.6003  -18.7826   26.1351 O   0  0  0  0  0  0  0  0  0  0  0  0
  2  1  1  1
  3  4  1  0
  3  2  1  0
  4  5  2  0
  4  8  1  0
  6  2  1  0
  6  7  2  0
  9  6  1  0
 10  9  1  0
 10 11  1  1
 12 11  1  0
 12 13  2  0
 14 13  1  0
 15 14  1  0
 16 15  2  0
 17 16  1  0
 18 17  2  0
 18 19  1  0
 19 20  2  0
 20 15  1  0
 20 12  1  0
 21 10  1  0
 22 21  2  0
 23 24  1  0
 24 25  2  0
 26 24  1  0
 27 26  1  1
 27 28  1  0
 27 29  1  0
 28 21  1  0
 29 30  1  0
 31 29  2  0
M  END
$$$$
