DWN.pdb
     RDKit          3D

 31 32  0  0  1  0  0  0  0  0999 V2000
    7.1118  -16.3664   20.8692 N   0  0  0  0  0  0  0  0  0  0  0  0
    8.5322  -16.6274   20.8034 C   0  0  1  0  0  0  0  0  0  0  0  0
    9.0587  -15.9130   19.5859 C   0  0  0  0  0  0  0  0  0  0  0  0
    8.7517  -16.7106   18.3642 C   0  0  0  0  0  0  0  0  0  0  0  0
    8.7852  -16.1785   17.2142 O   0  0  0  0  0  0  0  0  0  0  0  0
    9.2326  -16.0758   21.9853 C   0  0  0  0  0  0  0  0  0  0  0  0
   10.0410  -15.1292   21.8671 O   0  0  0  0  0  0  0  0  0  0  0  0
    8.4240  -18.0390   18.4607 O   0  0  0  0  0  0  0  0  0  0  0  0
    8.9918  -16.6156   23.2728 N   0  0  0  0  0  0  0  0  0  0  0  0
    9.6808  -16.1780   24.4425 C   0  0  1  0  0  0  0  0  0  0  0  0
    8.9196  -16.2247   25.7104 C   0  0  0  0  0  0  0  0  0  0  0  0
    7.7293  -15.3786   25.7560 C   0  0  0  0  0  0  0  0  0  0  0  0
    6.4312  -15.7654   25.5535 C   0  0  0  0  0  0  0  0  0  0  0  0
    5.5970  -14.7112   25.6766 N   0  0  0  0  0  0  0  0  0  0  0  0
    6.3573  -13.6495   25.9576 C   0  0  0  0  0  0  0  0  0  0  0  0
    5.9566  -12.3410   26.1712 C   0  0  0  0  0  0  0  0  0  0  0  0
    6.9541  -11.4172   26.4476 C   0  0  0  0  0  0  0  0  0  0  0  0
    8.2948  -11.7697   26.5116 C   0  0  0  0  0  0  0  0  0  0  0  0
    8.6657  -13.0815   26.2939 C   0  0  0  0  0  0  0  0  0  0  0  0
    7.6993  -14.0250   26.0158 C   0  0  0  0  0  0  0  0  0  0  0  0
   10.8717  -17.1023   24.5896 C   0  0  0  0  0  0  0  0  0  0  0  0
   10.7763  -18.3436   24.4611 O   0  0  0  0  0  0  0  0  0  0  0  0
   14.5660  -15.1633   22.7153 N   0  0  0  0  0  0  0  0  0  0  0  0
   14.4076  -16.5060   23.1529 C   0  0  0  0  0  0  0  0  0  0  0  0
   14.1674  -17.4009   22.3176 O   0  0  0  0  0  0  0  0  0  0  0  0
   14.5338  -16.8361   24.5880 C   0  0  0  0  0  0  0  0  0  0  0  0
   13.2744  -17.5139   25.1413 C   0  0  2  0  0  0  0  0  0  0  0  0
   12.1725  -16.6020   24.8833 N   0  0  0  0  0  0  0  0  0  0  0  0
   13.3916  -17.7356   26.6087 C   0  0  0  0  0  0  0  0  0  0  0  0
   12.4876  -17.2185   27.5161 O   0  0  0  0  0  0  0  0  0  0  0  0
   14.3438  -18.4199   27.1249 O   0  0  0  0  0  0  0  0  0  0  0  0
  2  1  1  1
  3  4  1  0
  3  2  1  0
  4  5  2  0
  4  8  1  0
  6  2  1  0
  6  7  2  0
  9  6  1  0
 10  9  1  0
 10 11  1  1
 12 11  1  0
 12 13  2  0
 14 13  1  0
 15 14  1  0
 16 15  2  0
 17 16  1  0
 18 17  2  0
 18 19  1  0
 19 20  2  0
 20 15  1  0
 20 12  1  0
 21 10  1  0
 22 21  2  0
 23 24  1  0
 24 25  2  0
 26 24  1  0
 27 26  1  1
 27 28  1  0
 27 29  1  0
 28 21  1  0
 29 30  1  0
 31 29  2  0
M  END
$$$$
