NLW.pdb
     RDKit          3D

 31 32  0  0  1  0  0  0  0  0999 V2000
    9.3871  -19.8294   16.9483 N   0  0  0  0  0  0  0  0  0  0  0  0
   10.3208  -19.3228   17.8798 C   0  0  0  0  0  0  0  0  0  0  0  0
   11.3381  -19.9894   18.2449 O   0  0  0  0  0  0  0  0  0  0  0  0
   10.1729  -17.9757   18.4930 C   0  0  0  0  0  0  0  0  0  0  0  0
   10.0830  -18.1077   20.0062 C   0  0  2  0  0  0  0  0  0  0  0  0
    8.8788  -18.7826   20.4058 N   0  0  0  0  0  0  0  0  0  0  0  0
   10.2264  -16.7767   20.6396 C   0  0  0  0  0  0  0  0  0  0  0  0
   11.2995  -16.1271   20.5374 O   0  0  0  0  0  0  0  0  0  0  0  0
    8.5867  -13.0423   19.5253 C   0  0  0  0  0  0  0  0  0  0  0  0
    7.7488  -14.0489   20.3090 C   0  0  2  0  0  0  0  0  0  0  0  0
    6.2979  -13.7100   20.0998 C   0  0  0  0  0  0  0  0  0  0  0  0
    8.1117  -14.0326   21.7683 C   0  0  0  0  0  0  0  0  0  0  0  0
    9.3079  -14.8649   22.0205 C   0  0  2  0  0  0  0  0  0  0  0  0
    9.1858  -16.1835   21.3750 N   0  0  0  0  0  0  0  0  0  0  0  0
    9.6791  -15.1253   23.4059 C   0  0  0  0  0  0  0  0  0  0  0  0
   10.1794  -14.2175   24.1028 O   0  0  0  0  0  0  0  0  0  0  0  0
    9.5083  -16.3857   24.0512 N   0  0  0  0  0  0  0  0  0  0  0  0
    9.9827  -16.6176   25.4325 C   0  0  1  0  0  0  0  0  0  0  0  0
    8.7802  -16.8631   26.2750 C   0  0  0  0  0  0  0  0  0  0  0  0
    7.6957  -15.8775   26.1940 C   0  0  0  0  0  0  0  0  0  0  0  0
    6.4641  -16.1073   25.5909 C   0  0  0  0  0  0  0  0  0  0  0  0
    5.7078  -15.0006   25.6605 N   0  0  0  0  0  0  0  0  0  0  0  0
    6.4376  -14.0520   26.3051 C   0  0  0  0  0  0  0  0  0  0  0  0
    6.1027  -12.7475   26.6384 C   0  0  0  0  0  0  0  0  0  0  0  0
    7.0066  -11.9664   27.3142 C   0  0  0  0  0  0  0  0  0  0  0  0
    8.2397  -12.5044   27.6487 C   0  0  0  0  0  0  0  0  0  0  0  0
    8.5784  -13.7803   27.3267 C   0  0  0  0  0  0  0  0  0  0  0  0
    7.6598  -14.5742   26.6393 C   0  0  0  0  0  0  0  0  0  0  0  0
   11.0527  -17.5986   25.4734 C   0  0  0  0  0  0  0  0  0  0  0  0
   11.4496  -18.3258   24.3652 O   0  0  0  0  0  0  0  0  0  0  0  0
   11.7064  -17.8665   26.5433 O   0  0  0  0  0  0  0  0  0  0  0  0
  1  2  1  0
  2  4  1  0
  2  3  2  0
  4  5  1  0
  5  6  1  6
  7  8  2  0
  7  5  1  0
 10  9  1  6
 10 12  1  0
 11 10  1  0
 13 12  1  1
 13 14  1  0
 14  7  1  0
 15 13  1  0
 16 15  2  0
 17 15  1  0
 18 29  1  0
 18 17  1  0
 18 19  1  1
 20 19  1  0
 21 20  2  0
 22 21  1  0
 23 22  1  0
 23 28  2  0
 24 25  2  0
 24 23  1  0
 25 26  1  0
 26 27  2  0
 28 27  1  0
 28 20  1  0
 29 30  1  0
 31 29  2  0
M  END
$$$$
