NLW.pdb
     RDKit          3D

 31 32  0  0  1  0  0  0  0  0999 V2000
    7.0518  -21.5096   19.9162 N   0  0  0  0  0  0  0  0  0  0  0  0
    7.5619  -21.3272   21.2210 C   0  0  0  0  0  0  0  0  0  0  0  0
    7.3455  -22.1631   22.1521 O   0  0  0  0  0  0  0  0  0  0  0  0
    8.3856  -20.1445   21.5885 C   0  0  0  0  0  0  0  0  0  0  0  0
    8.3626  -19.1305   20.4543 C   0  0  2  0  0  0  0  0  0  0  0  0
    8.6045  -19.7558   19.1832 N   0  0  0  0  0  0  0  0  0  0  0  0
    9.3143  -18.0319   20.7384 C   0  0  0  0  0  0  0  0  0  0  0  0
   10.5211  -18.1195   20.3920 O   0  0  0  0  0  0  0  0  0  0  0  0
    6.7115  -14.5317   20.7870 C   0  0  0  0  0  0  0  0  0  0  0  0
    7.8890  -14.1686   21.6875 C   0  0  2  0  0  0  0  0  0  0  0  0
    7.7725  -12.7108   22.0411 C   0  0  0  0  0  0  0  0  0  0  0  0
    9.1981  -14.4665   21.0101 C   0  0  0  0  0  0  0  0  0  0  0  0
    9.8098  -15.6924   21.5671 C   0  0  2  0  0  0  0  0  0  0  0  0
    8.9211  -16.8552   21.3992 N   0  0  0  0  0  0  0  0  0  0  0  0
   10.2027  -15.6826   22.9708 C   0  0  0  0  0  0  0  0  0  0  0  0
   10.9418  -14.7762   23.4093 O   0  0  0  0  0  0  0  0  0  0  0  0
    9.7922  -16.6666   23.9180 N   0  0  0  0  0  0  0  0  0  0  0  0
   10.3408  -16.6943   25.2911 C   0  0  1  0  0  0  0  0  0  0  0  0
   10.0359  -15.3766   25.9130 C   0  0  0  0  0  0  0  0  0  0  0  0
    8.6211  -15.0027   26.0252 C   0  0  0  0  0  0  0  0  0  0  0  0
    7.5568  -15.8805   25.8515 C   0  0  0  0  0  0  0  0  0  0  0  0
    6.3950  -15.2233   25.9924 N   0  0  0  0  0  0  0  0  0  0  0  0
    6.6947  -13.9241   26.2573 C   0  0  0  0  0  0  0  0  0  0  0  0
    5.8516  -12.8485   26.4957 C   0  0  0  0  0  0  0  0  0  0  0  0
    6.3866  -11.6126   26.7610 C   0  0  0  0  0  0  0  0  0  0  0  0
    7.7654  -11.4697   26.7840 C   0  0  0  0  0  0  0  0  0  0  0  0
    8.6005  -12.5161   26.5513 C   0  0  0  0  0  0  0  0  0  0  0  0
    8.0566  -13.7722   26.2811 C   0  0  0  0  0  0  0  0  0  0  0  0
    9.9363  -17.8925   26.0051 C   0  0  0  0  0  0  0  0  0  0  0  0
   10.4315  -18.2282   27.2527 O   0  0  0  0  0  0  0  0  0  0  0  0
    9.0922  -18.7313   25.5280 O   0  0  0  0  0  0  0  0  0  0  0  0
  1  2  1  0
  2  4  1  0
  2  3  2  0
  4  5  1  0
  5  6  1  6
  7  8  2  0
  7  5  1  0
 10  9  1  6
 10 12  1  0
 11 10  1  0
 13 12  1  1
 13 14  1  0
 14  7  1  0
 15 13  1  0
 16 15  2  0
 17 15  1  0
 18 29  1  0
 18 17  1  0
 18 19  1  1
 20 19  1  0
 21 20  2  0
 22 21  1  0
 23 22  1  0
 23 28  2  0
 24 25  2  0
 24 23  1  0
 25 26  1  0
 26 27  2  0
 28 27  1  0
 28 20  1  0
 29 30  1  0
 31 29  2  0
M  END
$$$$
