NLW.pdb
     RDKit          3D

 31 32  0  0  1  0  0  0  0  0999 V2000
    8.0764  -20.8551   18.9925 N   0  0  0  0  0  0  0  0  0  0  0  0
    8.2871  -20.7610   20.3864 C   0  0  0  0  0  0  0  0  0  0  0  0
    8.0142  -21.7179   21.1753 O   0  0  0  0  0  0  0  0  0  0  0  0
    8.8424  -19.5353   21.0201 C   0  0  0  0  0  0  0  0  0  0  0  0
    9.1145  -18.4845   19.9538 C   0  0  2  0  0  0  0  0  0  0  0  0
    9.9607  -18.9977   18.9117 N   0  0  0  0  0  0  0  0  0  0  0  0
    9.6619  -17.2587   20.5793 C   0  0  0  0  0  0  0  0  0  0  0  0
   10.9020  -17.0453   20.6009 O   0  0  0  0  0  0  0  0  0  0  0  0
    8.9367  -13.0260   19.4325 C   0  0  0  0  0  0  0  0  0  0  0  0
    7.8519  -13.7233   20.2488 C   0  0  2  0  0  0  0  0  0  0  0  0
    6.6156  -12.8668   20.2080 C   0  0  0  0  0  0  0  0  0  0  0  0
    8.3089  -13.9611   21.6616 C   0  0  0  0  0  0  0  0  0  0  0  0
    9.3452  -15.0152   21.7072 C   0  0  2  0  0  0  0  0  0  0  0  0
    8.8344  -16.2886   21.1708 N   0  0  0  0  0  0  0  0  0  0  0  0
    9.9424  -15.3307   22.9990 C   0  0  0  0  0  0  0  0  0  0  0  0
   10.8151  -14.5819   23.4866 O   0  0  0  0  0  0  0  0  0  0  0  0
    9.5930  -16.4727   23.7786 N   0  0  0  0  0  0  0  0  0  0  0  0
   10.1296  -16.6715   25.1422 C   0  0  1  0  0  0  0  0  0  0  0  0
    9.7703  -15.4648   25.9363 C   0  0  0  0  0  0  0  0  0  0  0  0
    8.3524  -15.0875   25.9729 C   0  0  0  0  0  0  0  0  0  0  0  0
    7.2992  -15.9480   25.6835 C   0  0  0  0  0  0  0  0  0  0  0  0
    6.1328  -15.2910   25.7802 N   0  0  0  0  0  0  0  0  0  0  0  0
    6.4185  -14.0091   26.1312 C   0  0  0  0  0  0  0  0  0  0  0  0
    5.5649  -12.9414   26.3680 C   0  0  0  0  0  0  0  0  0  0  0  0
    6.0851  -11.7244   26.7318 C   0  0  0  0  0  0  0  0  0  0  0  0
    7.4597  -11.5923   26.8542 C   0  0  0  0  0  0  0  0  0  0  0  0
    8.3050  -12.6310   26.6240 C   0  0  0  0  0  0  0  0  0  0  0  0
    7.7762  -13.8679   26.2537 C   0  0  0  0  0  0  0  0  0  0  0  0
    9.7634  -17.9710   25.6774 C   0  0  0  0  0  0  0  0  0  0  0  0
   10.3139  -18.4901   26.8358 O   0  0  0  0  0  0  0  0  0  0  0  0
    8.9043  -18.7360   25.1113 O   0  0  0  0  0  0  0  0  0  0  0  0
  1  2  1  0
  2  4  1  0
  2  3  2  0
  4  5  1  0
  5  6  1  6
  7  8  2  0
  7  5  1  0
 10  9  1  6
 10 12  1  0
 11 10  1  0
 13 12  1  1
 13 14  1  0
 14  7  1  0
 15 13  1  0
 16 15  2  0
 17 15  1  0
 18 29  1  0
 18 17  1  0
 18 19  1  1
 20 19  1  0
 21 20  2  0
 22 21  1  0
 23 22  1  0
 23 28  2  0
 24 25  2  0
 24 23  1  0
 25 26  1  0
 26 27  2  0
 28 27  1  0
 28 20  1  0
 29 30  1  0
 31 29  2  0
M  END
$$$$
