NLW.pdb
     RDKit          3D

 31 32  0  0  1  0  0  0  0  0999 V2000
   11.8048  -21.2762   19.2400 N   0  0  0  0  0  0  0  0  0  0  0  0
   11.2256  -20.4424   18.2574 C   0  0  0  0  0  0  0  0  0  0  0  0
   11.4446  -20.6092   17.0177 O   0  0  0  0  0  0  0  0  0  0  0  0
   10.3215  -19.3156   18.6112 C   0  0  0  0  0  0  0  0  0  0  0  0
   10.2641  -19.1589   20.1236 C   0  0  2  0  0  0  0  0  0  0  0  0
    9.1417  -19.8598   20.6840 N   0  0  0  0  0  0  0  0  0  0  0  0
   10.2760  -17.7226   20.4844 C   0  0  0  0  0  0  0  0  0  0  0  0
   11.2511  -16.9891   20.1759 O   0  0  0  0  0  0  0  0  0  0  0  0
    8.2079  -12.8941   22.1420 C   0  0  0  0  0  0  0  0  0  0  0  0
    7.9396  -13.6267   20.8302 C   0  0  2  0  0  0  0  0  0  0  0  0
    6.6720  -13.0729   20.2384 C   0  0  0  0  0  0  0  0  0  0  0  0
    7.8396  -15.1107   21.0519 C   0  0  0  0  0  0  0  0  0  0  0  0
    9.1496  -15.6712   21.4481 C   0  0  2  0  0  0  0  0  0  0  0  0
    9.2139  -17.1181   21.1789 N   0  0  0  0  0  0  0  0  0  0  0  0
    9.5769  -15.4974   22.8309 C   0  0  0  0  0  0  0  0  0  0  0  0
    9.9898  -14.3865   23.2253 O   0  0  0  0  0  0  0  0  0  0  0  0
    9.5591  -16.5387   23.8052 N   0  0  0  0  0  0  0  0  0  0  0  0
   10.1289  -16.3436   25.1559 C   0  0  1  0  0  0  0  0  0  0  0  0
    9.0014  -16.4231   26.1245 C   0  0  0  0  0  0  0  0  0  0  0  0
    7.9042  -15.4636   25.9521 C   0  0  0  0  0  0  0  0  0  0  0  0
    6.5915  -15.8114   25.6533 C   0  0  0  0  0  0  0  0  0  0  0  0
    5.8416  -14.7046   25.5341 N   0  0  0  0  0  0  0  0  0  0  0  0
    6.6560  -13.6386   25.7538 C   0  0  0  0  0  0  0  0  0  0  0  0
    6.3631  -12.2825   25.7575 C   0  0  0  0  0  0  0  0  0  0  0  0
    7.3569  -11.3743   26.0247 C   0  0  0  0  0  0  0  0  0  0  0  0
    8.6370  -11.8384   26.2857 C   0  0  0  0  0  0  0  0  0  0  0  0
    8.9351  -13.1641   26.2841 C   0  0  0  0  0  0  0  0  0  0  0  0
    7.9250  -14.0872   26.0119 C   0  0  0  0  0  0  0  0  0  0  0  0
   11.2793  -17.2010   25.3804 C   0  0  0  0  0  0  0  0  0  0  0  0
   11.9867  -17.2150   26.5695 O   0  0  0  0  0  0  0  0  0  0  0  0
   11.7275  -18.0063   24.4892 O   0  0  0  0  0  0  0  0  0  0  0  0
  1  2  1  0
  2  4  1  0
  2  3  2  0
  4  5  1  0
  5  6  1  6
  7  8  2  0
  7  5  1  0
 10  9  1  1
 10 12  1  0
 11 10  1  0
 13 12  1  1
 13 14  1  0
 14  7  1  0
 15 13  1  0
 16 15  2  0
 17 15  1  0
 18 29  1  0
 18 17  1  0
 18 19  1  1
 20 19  1  0
 21 20  2  0
 22 21  1  0
 23 22  1  0
 23 28  2  0
 24 25  2  0
 24 23  1  0
 25 26  1  0
 26 27  2  0
 28 27  1  0
 28 20  1  0
 29 30  1  0
 31 29  2  0
M  END
$$$$
