NLW.pdb
     RDKit          3D

 31 32  0  0  1  0  0  0  0  0999 V2000
   11.7453  -18.5761   15.9973 N   0  0  0  0  0  0  0  0  0  0  0  0
   11.9438  -19.0636   17.3084 C   0  0  0  0  0  0  0  0  0  0  0  0
   11.7882  -20.2891   17.6025 O   0  0  0  0  0  0  0  0  0  0  0  0
   12.3481  -18.1732   18.4291 C   0  0  0  0  0  0  0  0  0  0  0  0
   11.4802  -18.4544   19.6469 C   0  0  2  0  0  0  0  0  0  0  0  0
   10.3772  -19.3159   19.3204 N   0  0  0  0  0  0  0  0  0  0  0  0
   11.0441  -17.1800   20.2626 C   0  0  0  0  0  0  0  0  0  0  0  0
   11.8647  -16.2468   20.4615 O   0  0  0  0  0  0  0  0  0  0  0  0
    6.1793  -13.5779   21.1377 C   0  0  0  0  0  0  0  0  0  0  0  0
    7.6545  -13.8838   21.3821 C   0  0  2  0  0  0  0  0  0  0  0  0
    8.4617  -12.7198   20.8746 C   0  0  0  0  0  0  0  0  0  0  0  0
    8.0580  -15.1667   20.7094 C   0  0  0  0  0  0  0  0  0  0  0  0
    9.2711  -15.7306   21.3402 C   0  0  2  0  0  0  0  0  0  0  0  0
    9.7115  -16.9547   20.6491 N   0  0  0  0  0  0  0  0  0  0  0  0
    9.2111  -16.0654   22.7577 C   0  0  0  0  0  0  0  0  0  0  0  0
    8.4965  -17.0120   23.1493 O   0  0  0  0  0  0  0  0  0  0  0  0
    9.9336  -15.3679   23.7704 N   0  0  0  0  0  0  0  0  0  0  0  0
   10.0385  -15.8957   25.1479 C   0  0  1  0  0  0  0  0  0  0  0  0
    8.6878  -16.3880   25.5341 C   0  0  0  0  0  0  0  0  0  0  0  0
    7.6342  -15.3809   25.7064 C   0  0  0  0  0  0  0  0  0  0  0  0
    6.2780  -15.6163   25.5096 C   0  0  0  0  0  0  0  0  0  0  0  0
    5.5831  -14.4875   25.7205 N   0  0  0  0  0  0  0  0  0  0  0  0
    6.4767  -13.5188   26.0539 C   0  0  0  0  0  0  0  0  0  0  0  0
    6.2635  -12.1869   26.3785 C   0  0  0  0  0  0  0  0  0  0  0  0
    7.3316  -11.3880   26.7022 C   0  0  0  0  0  0  0  0  0  0  0  0
    8.6050  -11.9360   26.6965 C   0  0  0  0  0  0  0  0  0  0  0  0
    8.8254  -13.2389   26.3796 C   0  0  0  0  0  0  0  0  0  0  0  0
    7.7398  -14.0509   26.0500 C   0  0  0  0  0  0  0  0  0  0  0  0
   11.1598  -16.8079   25.2876 C   0  0  0  0  0  0  0  0  0  0  0  0
   11.6392  -17.2286   26.5154 O   0  0  0  0  0  0  0  0  0  0  0  0
   11.7922  -17.2874   24.2806 O   0  0  0  0  0  0  0  0  0  0  0  0
  1  2  1  0
  2  4  1  0
  2  3  2  0
  4  5  1  0
  5  6  1  6
  7  8  2  0
  7  5  1  0
 10  9  1  6
 10 12  1  0
 11 10  1  0
 13 12  1  6
 13 14  1  0
 14  7  1  0
 15 13  1  0
 16 15  2  0
 17 15  1  0
 18 29  1  0
 18 17  1  0
 18 19  1  6
 20 19  1  0
 21 20  2  0
 22 21  1  0
 23 22  1  0
 23 28  2  0
 24 25  2  0
 24 23  1  0
 25 26  1  0
 26 27  2  0
 28 27  1  0
 28 20  1  0
 29 30  1  0
 31 29  2  0
M  END
$$$$
