QPR.pdb
     RDKit          3D

 28 28  0  0  1  0  0  0  0  0999 V2000
   26.4032  -16.4971  -15.3221 N   0  0  0  0  0  0  0  0  0  0  0  0
   27.0244  -17.6334  -15.8844 C   0  0  0  0  0  0  0  0  0  0  0  0
   26.7177  -18.0247  -17.0351 O   0  0  0  0  0  0  0  0  0  0  0  0
   28.0566  -18.3396  -15.0455 C   0  0  0  0  0  0  0  0  0  0  0  0
   27.4456  -18.8811  -13.7964 C   0  0  0  0  0  0  0  0  0  0  0  0
   27.4920  -20.3991  -13.7929 C   0  0  2  0  0  0  0  0  0  0  0  0
   27.8791  -20.8477  -15.1092 N   0  0  0  0  0  0  0  0  0  0  0  0
   26.2015  -20.9748  -13.3720 C   0  0  0  0  0  0  0  0  0  0  0  0
   25.5949  -21.7000  -14.2429 O   0  0  0  0  0  0  0  0  0  0  0  0
   25.6080  -20.7893  -12.1218 N   0  0  0  0  0  0  0  0  0  0  0  0
   26.2362  -20.0659  -11.0100 C   0  0  0  0  0  0  0  0  0  0  0  0
   25.8754  -20.9387   -9.8392 C   0  0  0  0  0  0  0  0  0  0  0  0
   24.4200  -21.2235  -10.1191 C   0  0  0  0  0  0  0  0  0  0  0  0
   24.3503  -21.2247  -11.6391 C   0  0  1  0  0  0  0  0  0  0  0  0
   23.2464  -20.2989  -12.0147 C   0  0  0  0  0  0  0  0  0  0  0  0
   23.4091  -19.0795  -12.2265 O   0  0  0  0  0  0  0  0  0  0  0  0
   22.9629  -20.8733  -19.3070 N   0  0  0  0  0  0  0  0  0  0  0  0
   22.6446  -22.1329  -18.7287 C   0  0  0  0  0  0  0  0  0  0  0  0
   22.7825  -23.2142  -19.4155 N   0  0  0  0  0  0  0  0  0  0  0  0
   22.1707  -22.2594  -17.3988 N   0  0  0  0  0  0  0  0  0  0  0  0
   22.0317  -21.1227  -16.5670 C   0  0  0  0  0  0  0  0  0  0  0  0
   21.4911  -21.3432  -15.1956 C   0  0  0  0  0  0  0  0  0  0  0  0
   21.4664  -20.0528  -14.4244 C   0  0  0  0  0  0  0  0  0  0  0  0
   20.9399  -20.1980  -13.0303 C   0  0  2  0  0  0  0  0  0  0  0  0
   21.9206  -20.7978  -12.1483 N   0  0  0  0  0  0  0  0  0  0  0  0
   19.6343  -20.8907  -12.9626 C   0  0  0  0  0  0  0  0  0  0  0  0
   18.5550  -20.3938  -13.3905 O   0  0  0  0  0  0  0  0  0  0  0  0
   19.5402  -22.1589  -12.4064 O   0  0  0  0  0  0  0  0  0  0  0  0
  2  1  1  0
  3  2  2  0
  4  2  1  0
  5  4  1  0
  6  8  1  0
  6  5  1  0
  6  7  1  6
  8  9  2  0
 10 11  1  0
 10  8  1  0
 12 11  1  0
 13 14  1  0
 13 12  1  0
 14 10  1  0
 15 25  1  0
 14 15  1  1
 16 15  2  0
 18 17  1  0
 19 18  2  0
 20 18  1  0
 21 20  1  0
 22 21  1  0
 23 22  1  0
 24 23  1  6
 24 25  1  0
 26 24  1  0
 26 28  1  0
 27 26  2  0
M  END
$$$$
