QPR.pdb
     RDKit          3D

 28 28  0  0  1  0  0  0  0  0999 V2000
   22.0413  -18.2324  -14.6253 N   0  0  0  0  0  0  0  0  0  0  0  0
   22.6265  -18.3215  -15.9069 C   0  0  0  0  0  0  0  0  0  0  0  0
   22.1115  -17.7323  -16.8862 O   0  0  0  0  0  0  0  0  0  0  0  0
   23.8796  -19.1470  -16.0357 C   0  0  0  0  0  0  0  0  0  0  0  0
   24.2957  -19.6909  -14.7098 C   0  0  0  0  0  0  0  0  0  0  0  0
   25.4090  -20.7104  -14.8757 C   0  0  2  0  0  0  0  0  0  0  0  0
   24.9341  -21.7707  -15.7323 N   0  0  0  0  0  0  0  0  0  0  0  0
   25.8688  -21.2204  -13.5708 C   0  0  0  0  0  0  0  0  0  0  0  0
   25.0864  -22.0527  -12.9814 O   0  0  0  0  0  0  0  0  0  0  0  0
   27.0674  -20.8683  -12.9471 N   0  0  0  0  0  0  0  0  0  0  0  0
   28.1495  -20.1232  -13.6014 C   0  0  0  0  0  0  0  0  0  0  0  0
   29.3655  -20.8509  -13.0970 C   0  0  0  0  0  0  0  0  0  0  0  0
   29.0333  -21.0040  -11.6328 C   0  0  0  0  0  0  0  0  0  0  0  0
   27.5167  -21.1268  -11.6296 C   0  0  1  0  0  0  0  0  0  0  0  0
   27.0111  -20.1254  -10.6507 C   0  0  0  0  0  0  0  0  0  0  0  0
   26.2769  -19.1648  -10.9613 O   0  0  0  0  0  0  0  0  0  0  0  0
   20.5440  -21.2460   -8.9518 N   0  0  0  0  0  0  0  0  0  0  0  0
   20.8298  -21.7731   -7.6622 C   0  0  0  0  0  0  0  0  0  0  0  0
   20.0164  -22.6039   -7.1074 N   0  0  0  0  0  0  0  0  0  0  0  0
   21.9965  -21.4192   -6.9392 N   0  0  0  0  0  0  0  0  0  0  0  0
   23.1493  -20.9446   -7.6094 C   0  0  0  0  0  0  0  0  0  0  0  0
   24.4470  -21.6004   -7.2819 C   0  0  0  0  0  0  0  0  0  0  0  0
   25.4232  -21.4330   -8.4131 C   0  0  0  0  0  0  0  0  0  0  0  0
   26.3819  -20.3001   -8.2144 C   0  0  2  0  0  0  0  0  0  0  0  0
   27.3650  -20.2392   -9.2772 N   0  0  0  0  0  0  0  0  0  0  0  0
   27.0101  -20.2878   -6.8750 C   0  0  0  0  0  0  0  0  0  0  0  0
   26.7106  -19.4607   -5.9688 O   0  0  0  0  0  0  0  0  0  0  0  0
   27.9882  -21.2172   -6.5495 O   0  0  0  0  0  0  0  0  0  0  0  0
  2  1  1  0
  3  2  2  0
  4  2  1  0
  5  4  1  0
  6  8  1  0
  6  5  1  0
  6  7  1  6
  8  9  2  0
 10 11  1  0
 10  8  1  0
 12 11  1  0
 13 14  1  0
 13 12  1  0
 14 10  1  0
 15 25  1  0
 14 15  1  1
 16 15  2  0
 18 17  1  0
 19 18  2  0
 20 18  1  0
 21 20  1  0
 22 21  1  0
 23 22  1  0
 24 23  1  6
 24 25  1  0
 26 24  1  0
 26 28  1  0
 27 26  2  0
M  END
$$$$
