QPR.pdb
     RDKit          3D

 28 28  0  0  1  0  0  0  0  0999 V2000
   25.4853  -16.0812  -17.5157 N   0  0  0  0  0  0  0  0  0  0  0  0
   24.6917  -17.1065  -16.9570 C   0  0  0  0  0  0  0  0  0  0  0  0
   23.5147  -16.8759  -16.5928 O   0  0  0  0  0  0  0  0  0  0  0  0
   25.3209  -18.4682  -16.8227 C   0  0  0  0  0  0  0  0  0  0  0  0
   26.7385  -18.4464  -17.2883 C   0  0  0  0  0  0  0  0  0  0  0  0
   27.3841  -19.8080  -17.0998 C   0  0  2  0  0  0  0  0  0  0  0  0
   26.9863  -20.6584  -18.1962 N   0  0  0  0  0  0  0  0  0  0  0  0
   27.0319  -20.3929  -15.7929 C   0  0  0  0  0  0  0  0  0  0  0  0
   25.9680  -21.1137  -15.7642 O   0  0  0  0  0  0  0  0  0  0  0  0
   27.7582  -20.2203  -14.6129 N   0  0  0  0  0  0  0  0  0  0  0  0
   28.9779  -19.4109  -14.5063 C   0  0  0  0  0  0  0  0  0  0  0  0
   29.8377  -20.2745  -13.6245 C   0  0  0  0  0  0  0  0  0  0  0  0
   28.8487  -20.6925  -12.5639 C   0  0  0  0  0  0  0  0  0  0  0  0
   27.5289  -20.7474  -13.3191 C   0  0  1  0  0  0  0  0  0  0  0  0
   26.5580  -19.9326  -12.5379 C   0  0  0  0  0  0  0  0  0  0  0  0
   26.1518  -18.8085  -12.8981 O   0  0  0  0  0  0  0  0  0  0  0  0
   18.7552  -21.3483  -13.6435 N   0  0  0  0  0  0  0  0  0  0  0  0
   19.9100  -20.8962  -14.3394 C   0  0  0  0  0  0  0  0  0  0  0  0
   19.7910  -20.3167  -15.4839 N   0  0  0  0  0  0  0  0  0  0  0  0
   21.2196  -21.0566  -13.8213 N   0  0  0  0  0  0  0  0  0  0  0  0
   21.4250  -21.5028  -12.4939 C   0  0  0  0  0  0  0  0  0  0  0  0
   22.2741  -20.6523  -11.6122 C   0  0  0  0  0  0  0  0  0  0  0  0
   23.7274  -20.8190  -11.9592 C   0  0  0  0  0  0  0  0  0  0  0  0
   24.6578  -20.2815  -10.9164 C   0  0  2  0  0  0  0  0  0  0  0  0
   26.0446  -20.4321  -11.3085 N   0  0  0  0  0  0  0  0  0  0  0  0
   24.4013  -20.8214   -9.5630 C   0  0  0  0  0  0  0  0  0  0  0  0
   24.9144  -21.8896   -9.1264 O   0  0  0  0  0  0  0  0  0  0  0  0
   23.5566  -20.1520   -8.6884 O   0  0  0  0  0  0  0  0  0  0  0  0
  2  1  1  0
  3  2  2  0
  4  2  1  0
  5  4  1  0
  6  8  1  0
  6  5  1  0
  6  7  1  6
  8  9  2  0
 10 11  1  0
 10  8  1  0
 12 11  1  0
 13 14  1  0
 13 12  1  0
 14 10  1  0
 15 25  1  0
 14 15  1  1
 16 15  2  0
 18 17  1  0
 19 18  2  0
 20 18  1  0
 21 20  1  0
 22 21  1  0
 23 22  1  0
 24 23  1  6
 24 25  1  0
 26 24  1  0
 26 28  1  0
 27 26  2  0
M  END
$$$$
