QPR.pdb
     RDKit          3D

 28 28  0  0  1  0  0  0  0  0999 V2000
   26.6394  -22.6159  -20.6248 N   0  0  0  0  0  0  0  0  0  0  0  0
   26.0530  -23.3675  -19.5834 C   0  0  0  0  0  0  0  0  0  0  0  0
   25.0383  -24.0716  -19.7976 O   0  0  0  0  0  0  0  0  0  0  0  0
   26.6976  -23.2815  -18.2250 C   0  0  0  0  0  0  0  0  0  0  0  0
   27.9339  -22.4473  -18.2758 C   0  0  0  0  0  0  0  0  0  0  0  0
   28.5418  -22.3077  -16.8911 C   0  0  2  0  0  0  0  0  0  0  0  0
   29.1381  -23.5700  -16.5241 N   0  0  0  0  0  0  0  0  0  0  0  0
   27.5378  -21.8654  -15.9060 C   0  0  0  0  0  0  0  0  0  0  0  0
   27.1574  -22.7471  -15.0515 O   0  0  0  0  0  0  0  0  0  0  0  0
   26.9853  -20.5847  -15.8408 N   0  0  0  0  0  0  0  0  0  0  0  0
   27.1839  -19.5481  -16.8607 C   0  0  0  0  0  0  0  0  0  0  0  0
   27.3816  -18.3224  -16.0114 C   0  0  0  0  0  0  0  0  0  0  0  0
   26.2824  -18.4886  -14.9907 C   0  0  0  0  0  0  0  0  0  0  0  0
   26.1635  -19.9987  -14.8479 C   0  0  1  0  0  0  0  0  0  0  0  0
   24.7242  -20.3313  -15.0334 C   0  0  0  0  0  0  0  0  0  0  0  0
   24.2087  -20.5751  -16.1439 O   0  0  0  0  0  0  0  0  0  0  0  0
   18.9426  -23.3483   -8.9827 N   0  0  0  0  0  0  0  0  0  0  0  0
   18.3531  -23.6113  -10.2499 C   0  0  0  0  0  0  0  0  0  0  0  0
   17.3493  -24.4134  -10.3432 N   0  0  0  0  0  0  0  0  0  0  0  0
   18.8290  -23.0181  -11.4460 N   0  0  0  0  0  0  0  0  0  0  0  0
   20.1131  -22.4252  -11.5008 C   0  0  0  0  0  0  0  0  0  0  0  0
   20.5460  -21.8556  -12.8084 C   0  0  0  0  0  0  0  0  0  0  0  0
   21.9694  -21.3780  -12.7304 C   0  0  0  0  0  0  0  0  0  0  0  0
   22.4629  -20.7556  -13.9998 C   0  0  2  0  0  0  0  0  0  0  0  0
   23.8598  -20.3825  -13.9043 N   0  0  0  0  0  0  0  0  0  0  0  0
   21.6198  -19.6361  -14.4738 C   0  0  0  0  0  0  0  0  0  0  0  0
   21.8355  -18.4258  -14.1845 O   0  0  0  0  0  0  0  0  0  0  0  0
   20.5194  -19.8798  -15.2838 O   0  0  0  0  0  0  0  0  0  0  0  0
  2  1  1  0
  3  2  2  0
  4  2  1  0
  5  4  1  0
  6  8  1  0
  6  5  1  0
  6  7  1  1
  8  9  2  0
 10 11  1  0
 10  8  1  0
 12 11  1  0
 13 14  1  0
 13 12  1  0
 14 10  1  0
 15 25  1  0
 14 15  1  6
 16 15  2  0
 18 17  1  0
 19 18  2  0
 20 18  1  0
 21 20  1  0
 22 21  1  0
 23 22  1  0
 24 23  1  1
 24 25  1  0
 26 24  1  0
 26 28  1  0
 27 26  2  0
M  END
$$$$
