QPR.pdb
     RDKit          3D

 28 28  0  0  1  0  0  0  0  0999 V2000
   16.0516  -11.8738  -10.5527 N   0  0  0  0  0  0  0  0  0  0  0  0
   14.6828  -11.8432  -10.2082 C   0  0  0  0  0  0  0  0  0  0  0  0
   14.1060  -12.8754   -9.7923 O   0  0  0  0  0  0  0  0  0  0  0  0
   13.9630  -10.5294  -10.3636 C   0  0  0  0  0  0  0  0  0  0  0  0
   14.9254   -9.4288  -10.6627 C   0  0  0  0  0  0  0  0  0  0  0  0
   14.1891   -8.1174  -10.8733 C   0  0  2  0  0  0  0  0  0  0  0  0
   13.3799   -8.2332  -12.0630 N   0  0  0  0  0  0  0  0  0  0  0  0
   15.1265   -6.9821  -10.9529 C   0  0  0  0  0  0  0  0  0  0  0  0
   15.4916   -6.6320  -12.1346 O   0  0  0  0  0  0  0  0  0  0  0  0
   15.6326   -6.2791   -9.8578 N   0  0  0  0  0  0  0  0  0  0  0  0
   15.1947   -6.4847   -8.4720 C   0  0  0  0  0  0  0  0  0  0  0  0
   15.1260   -5.0707   -7.9638 C   0  0  0  0  0  0  0  0  0  0  0  0
   16.4132   -4.4981   -8.5051 C   0  0  0  0  0  0  0  0  0  0  0  0
   16.6146   -5.2605   -9.8064 C   0  0  1  0  0  0  0  0  0  0  0  0
   17.9988   -5.8076   -9.7687 C   0  0  0  0  0  0  0  0  0  0  0  0
   18.3695   -6.6956   -8.9736 O   0  0  0  0  0  0  0  0  0  0  0  0
   18.9825  -11.1886  -14.9569 N   0  0  0  0  0  0  0  0  0  0  0  0
   18.9574   -9.9626  -15.6772 C   0  0  0  0  0  0  0  0  0  0  0  0
   18.7111   -9.9594  -16.9418 N   0  0  0  0  0  0  0  0  0  0  0  0
   19.1966   -8.7118  -15.0549 N   0  0  0  0  0  0  0  0  0  0  0  0
   19.4202   -8.6265  -13.6599 C   0  0  0  0  0  0  0  0  0  0  0  0
   19.6163   -7.2664  -13.0826 C   0  0  0  0  0  0  0  0  0  0  0  0
   19.9220   -7.3560  -11.6132 C   0  0  0  0  0  0  0  0  0  0  0  0
   20.2014   -6.0295  -10.9774 C   0  0  2  0  0  0  0  0  0  0  0  0
   18.9786   -5.3136  -10.6746 N   0  0  0  0  0  0  0  0  0  0  0  0
   21.1567   -5.1986  -11.7429 C   0  0  0  0  0  0  0  0  0  0  0  0
   22.3762   -5.4914  -11.8921 O   0  0  0  0  0  0  0  0  0  0  0  0
   20.7362   -4.0228  -12.3487 O   0  0  0  0  0  0  0  0  0  0  0  0
  2  1  1  0
  3  2  2  0
  4  2  1  0
  5  4  1  0
  6  8  1  0
  6  5  1  0
  6  7  1  6
  8  9  2  0
 10 11  1  0
 10  8  1  0
 12 11  1  0
 13 14  1  0
 13 12  1  0
 14 10  1  0
 15 25  1  0
 14 15  1  1
 16 15  2  0
 18 17  1  0
 19 18  2  0
 20 18  1  0
 21 20  1  0
 22 21  1  0
 23 22  1  0
 24 23  1  6
 24 25  1  0
 26 24  1  0
 26 28  1  0
 27 26  2  0
M  END
$$$$
