QPR.pdb
     RDKit          3D

 28 28  0  0  1  0  0  0  0  0999 V2000
   24.9086  -16.2482  -14.5510 N   0  0  0  0  0  0  0  0  0  0  0  0
   24.1630  -17.2485  -15.2118 C   0  0  0  0  0  0  0  0  0  0  0  0
   22.9316  -17.3658  -15.0087 O   0  0  0  0  0  0  0  0  0  0  0  0
   24.9098  -18.1525  -16.1569 C   0  0  0  0  0  0  0  0  0  0  0  0
   24.4933  -19.5736  -15.9728 C   0  0  0  0  0  0  0  0  0  0  0  0
   25.5609  -20.3508  -15.2228 C   0  0  2  0  0  0  0  0  0  0  0  0
   26.3198  -21.1231  -16.1775 N   0  0  0  0  0  0  0  0  0  0  0  0
   24.9688  -21.2004  -14.1732 C   0  0  0  0  0  0  0  0  0  0  0  0
   24.4007  -22.2815  -14.5742 O   0  0  0  0  0  0  0  0  0  0  0  0
   24.9826  -20.9164  -12.8062 N   0  0  0  0  0  0  0  0  0  0  0  0
   25.6715  -19.7656  -12.2100 C   0  0  0  0  0  0  0  0  0  0  0  0
   26.2790  -20.3813  -10.9793 C   0  0  0  0  0  0  0  0  0  0  0  0
   25.1257  -21.2042  -10.4594 C   0  0  0  0  0  0  0  0  0  0  0  0
   24.3903  -21.6149  -11.7265 C   0  0  1  0  0  0  0  0  0  0  0  0
   22.9616  -21.2464  -11.5273 C   0  0  0  0  0  0  0  0  0  0  0  0
   22.4695  -20.1610  -11.8990 O   0  0  0  0  0  0  0  0  0  0  0  0
   14.9690  -23.8968  -11.5572 N   0  0  0  0  0  0  0  0  0  0  0  0
   15.3100  -22.9349  -10.5668 C   0  0  0  0  0  0  0  0  0  0  0  0
   14.4979  -22.6871   -9.5979 N   0  0  0  0  0  0  0  0  0  0  0  0
   16.5318  -22.2169  -10.5952 N   0  0  0  0  0  0  0  0  0  0  0  0
   17.4653  -22.4143  -11.6406 C   0  0  0  0  0  0  0  0  0  0  0  0
   18.6273  -23.3039  -11.3583 C   0  0  0  0  0  0  0  0  0  0  0  0
   19.9032  -22.6764  -11.8471 C   0  0  0  0  0  0  0  0  0  0  0  0
   20.6520  -21.9350  -10.7833 C   0  0  2  0  0  0  0  0  0  0  0  0
   22.0804  -22.1578  -10.8812 N   0  0  0  0  0  0  0  0  0  0  0  0
   20.1422  -22.1889   -9.4179 C   0  0  0  0  0  0  0  0  0  0  0  0
   20.6109  -23.0743   -8.6489 O   0  0  0  0  0  0  0  0  0  0  0  0
   19.0914  -21.4379   -8.9097 O   0  0  0  0  0  0  0  0  0  0  0  0
  2  1  1  0
  3  2  2  0
  4  2  1  0
  5  4  1  0
  6  8  1  0
  6  5  1  0
  6  7  1  6
  8  9  2  0
 10 11  1  0
 10  8  1  0
 12 11  1  0
 13 14  1  0
 13 12  1  0
 14 10  1  0
 15 25  1  0
 14 15  1  1
 16 15  2  0
 18 17  1  0
 19 18  2  0
 20 18  1  0
 21 20  1  0
 22 21  1  0
 23 22  1  0
 24 23  1  6
 24 25  1  0
 26 24  1  0
 26 28  1  0
 27 26  2  0
M  END
$$$$
