QPR.pdb
     RDKit          3D

 28 28  0  0  1  0  0  0  0  0999 V2000
   22.8909  -19.4311  -16.0553 N   0  0  0  0  0  0  0  0  0  0  0  0
   23.6306  -18.5337  -16.8557 C   0  0  0  0  0  0  0  0  0  0  0  0
   23.4597  -17.2962  -16.7522 O   0  0  0  0  0  0  0  0  0  0  0  0
   24.6186  -19.1288  -17.8242 C   0  0  0  0  0  0  0  0  0  0  0  0
   24.6034  -20.6192  -17.7495 C   0  0  0  0  0  0  0  0  0  0  0  0
   26.0070  -21.1580  -17.5348 C   0  0  2  0  0  0  0  0  0  0  0  0
   26.1382  -22.3961  -18.2652 N   0  0  0  0  0  0  0  0  0  0  0  0
   26.3023  -21.3305  -16.1005 C   0  0  0  0  0  0  0  0  0  0  0  0
   25.8707  -22.4143  -15.5606 O   0  0  0  0  0  0  0  0  0  0  0  0
   27.0015  -20.4178  -15.3082 N   0  0  0  0  0  0  0  0  0  0  0  0
   27.6691  -19.2178  -15.8265 C   0  0  0  0  0  0  0  0  0  0  0  0
   28.9514  -19.2219  -15.0402 C   0  0  0  0  0  0  0  0  0  0  0  0
   28.4474  -19.5351  -13.6526 C   0  0  0  0  0  0  0  0  0  0  0  0
   27.2364  -20.4191  -13.9120 C   0  0  1  0  0  0  0  0  0  0  0  0
   26.1058  -19.8269  -13.1455 C   0  0  0  0  0  0  0  0  0  0  0  0
   25.1886  -19.1618  -13.6698 O   0  0  0  0  0  0  0  0  0  0  0  0
   19.3837  -22.8276  -13.5543 N   0  0  0  0  0  0  0  0  0  0  0  0
   19.8238  -21.7162  -14.3249 C   0  0  0  0  0  0  0  0  0  0  0  0
   19.0581  -21.2119  -15.2299 N   0  0  0  0  0  0  0  0  0  0  0  0
   21.0971  -21.1214  -14.1404 N   0  0  0  0  0  0  0  0  0  0  0  0
   21.9066  -21.4690  -13.0325 C   0  0  0  0  0  0  0  0  0  0  0  0
   23.2570  -20.8433  -12.9517 C   0  0  0  0  0  0  0  0  0  0  0  0
   24.0091  -21.3640  -11.7585 C   0  0  0  0  0  0  0  0  0  0  0  0
   24.7997  -20.3126  -11.0432 C   0  0  2  0  0  0  0  0  0  0  0  0
   26.0355  -20.0092  -11.7361 N   0  0  0  0  0  0  0  0  0  0  0  0
   25.0247  -20.6158   -9.6126 C   0  0  0  0  0  0  0  0  0  0  0  0
   25.9209  -21.4020   -9.1961 O   0  0  0  0  0  0  0  0  0  0  0  0
   24.2318  -20.0277   -8.6370 O   0  0  0  0  0  0  0  0  0  0  0  0
  2  1  1  0
  3  2  2  0
  4  2  1  0
  5  4  1  0
  6  8  1  0
  6  5  1  0
  6  7  1  6
  8  9  2  0
 10 11  1  0
 10  8  1  0
 12 11  1  0
 13 14  1  0
 13 12  1  0
 14 10  1  0
 15 25  1  0
 14 15  1  1
 16 15  2  0
 18 17  1  0
 19 18  2  0
 20 18  1  0
 21 20  1  0
 22 21  1  0
 23 22  1  0
 24 23  1  6
 24 25  1  0
 26 24  1  0
 26 28  1  0
 27 26  2  0
M  END
$$$$
