QPR.pdb
     RDKit          3D

 28 28  0  0  1  0  0  0  0  0999 V2000
   13.7832  -12.2128    9.2057 N   0  0  0  0  0  0  0  0  0  0  0  0
   13.3207  -11.0925    8.4816 C   0  0  0  0  0  0  0  0  0  0  0  0
   12.9055  -10.0725    9.0803 O   0  0  0  0  0  0  0  0  0  0  0  0
   13.3507  -11.1840    6.9786 C   0  0  0  0  0  0  0  0  0  0  0  0
   13.9165  -12.4925    6.5375 C   0  0  0  0  0  0  0  0  0  0  0  0
   14.0051  -12.5532    5.0227 C   0  0  2  0  0  0  0  0  0  0  0  0
   12.6652  -12.6003    4.4878 N   0  0  0  0  0  0  0  0  0  0  0  0
   14.8165  -13.7012    4.5778 C   0  0  0  0  0  0  0  0  0  0  0  0
   14.1832  -14.6389    3.9680 O   0  0  0  0  0  0  0  0  0  0  0  0
   16.1929  -13.8355    4.7703 N   0  0  0  0  0  0  0  0  0  0  0  0
   17.0408  -12.8164    5.4003 C   0  0  0  0  0  0  0  0  0  0  0  0
   18.2613  -12.8535    4.5220 C   0  0  0  0  0  0  0  0  0  0  0  0
   18.4724  -14.3401    4.3704 C   0  0  0  0  0  0  0  0  0  0  0  0
   17.0592  -14.9012    4.4263 C   0  0  1  0  0  0  0  0  0  0  0  0
   17.0699  -15.9785    5.4539 C   0  0  0  0  0  0  0  0  0  0  0  0
   16.9170  -15.7702    6.6752 O   0  0  0  0  0  0  0  0  0  0  0  0
   14.3933  -22.8818    1.0642 N   0  0  0  0  0  0  0  0  0  0  0  0
   15.1521  -21.6916    1.2378 C   0  0  0  0  0  0  0  0  0  0  0  0
   15.9889  -21.3191    0.3318 N   0  0  0  0  0  0  0  0  0  0  0  0
   15.0292  -20.8744    2.3895 N   0  0  0  0  0  0  0  0  0  0  0  0
   16.1340  -20.6591    3.2476 C   0  0  0  0  0  0  0  0  0  0  0  0
   15.8770  -19.9252    4.5192 C   0  0  0  0  0  0  0  0  0  0  0  0
   17.1523  -19.7546    5.2969 C   0  0  0  0  0  0  0  0  0  0  0  0
   17.2555  -18.4347    5.9964 C   0  0  2  0  0  0  0  0  0  0  0  0
   17.2629  -17.3313    5.0573 N   0  0  0  0  0  0  0  0  0  0  0  0
   18.3837  -18.3600    6.9505 C   0  0  0  0  0  0  0  0  0  0  0  0
   18.3878  -18.9324    8.0762 O   0  0  0  0  0  0  0  0  0  0  0  0
   19.5228  -17.6321    6.6355 O   0  0  0  0  0  0  0  0  0  0  0  0
  2  1  1  0
  3  2  2  0
  4  2  1  0
  5  4  1  0
  6  8  1  0
  6  5  1  0
  6  7  1  6
  8  9  2  0
 10 11  1  0
 10  8  1  0
 12 11  1  0
 13 14  1  0
 13 12  1  0
 14 10  1  0
 15 25  1  0
 14 15  1  1
 16 15  2  0
 18 17  1  0
 19 18  2  0
 20 18  1  0
 21 20  1  0
 22 21  1  0
 23 22  1  0
 24 23  1  6
 24 25  1  0
 26 24  1  0
 26 28  1  0
 27 26  2  0
M  END
$$$$
