QPR.pdb
     RDKit          3D

 28 28  0  0  1  0  0  0  0  0999 V2000
   23.3405  -27.4634  -15.7980 N   0  0  0  0  0  0  0  0  0  0  0  0
   23.7949  -26.9347  -17.0257 C   0  0  0  0  0  0  0  0  0  0  0  0
   23.7330  -27.6160  -18.0761 O   0  0  0  0  0  0  0  0  0  0  0  0
   24.3488  -25.5343  -17.0093 C   0  0  0  0  0  0  0  0  0  0  0  0
   24.2892  -24.9558  -15.6350 C   0  0  0  0  0  0  0  0  0  0  0  0
   24.7604  -23.5121  -15.6418 C   0  0  2  0  0  0  0  0  0  0  0  0
   25.7816  -23.3597  -14.6331 N   0  0  0  0  0  0  0  0  0  0  0  0
   23.6372  -22.5797  -15.4340 C   0  0  0  0  0  0  0  0  0  0  0  0
   23.2263  -22.4503  -14.2229 O   0  0  0  0  0  0  0  0  0  0  0  0
   23.0047  -21.8462  -16.4397 N   0  0  0  0  0  0  0  0  0  0  0  0
   23.4453  -21.8157  -17.8394 C   0  0  0  0  0  0  0  0  0  0  0  0
   23.2755  -20.3600  -18.1781 C   0  0  0  0  0  0  0  0  0  0  0  0
   21.9225  -20.0712  -17.5750 C   0  0  0  0  0  0  0  0  0  0  0  0
   21.8702  -21.0019  -16.3724 C   0  0  1  0  0  0  0  0  0  0  0  0
   20.5922  -21.7587  -16.4759 C   0  0  0  0  0  0  0  0  0  0  0  0
   20.4986  -22.8890  -16.9974 O   0  0  0  0  0  0  0  0  0  0  0  0
   19.5200  -24.4915   -9.0884 N   0  0  0  0  0  0  0  0  0  0  0  0
   18.9627  -25.4024  -10.0276 C   0  0  0  0  0  0  0  0  0  0  0  0
   18.7990  -26.6403   -9.7105 N   0  0  0  0  0  0  0  0  0  0  0  0
   18.5687  -25.0038  -11.3295 N   0  0  0  0  0  0  0  0  0  0  0  0
   18.8112  -23.6874  -11.7897 C   0  0  0  0  0  0  0  0  0  0  0  0
   18.1390  -23.2722  -13.0535 C   0  0  0  0  0  0  0  0  0  0  0  0
   19.0839  -22.4871  -13.9203 C   0  0  0  0  0  0  0  0  0  0  0  0
   18.4471  -21.9444  -15.1621 C   0  0  2  0  0  0  0  0  0  0  0  0
   19.3921  -21.1922  -15.9625 N   0  0  0  0  0  0  0  0  0  0  0  0
   17.2067  -21.1808  -14.9030 C   0  0  0  0  0  0  0  0  0  0  0  0
   17.1634  -19.9210  -14.8255 O   0  0  0  0  0  0  0  0  0  0  0  0
   15.9988  -21.8416  -14.7284 O   0  0  0  0  0  0  0  0  0  0  0  0
  2  1  1  0
  3  2  2  0
  4  2  1  0
  5  4  1  0
  6  8  1  0
  6  5  1  0
  6  7  1  1
  8  9  2  0
 10 11  1  0
 10  8  1  0
 12 11  1  0
 13 14  1  0
 13 12  1  0
 14 10  1  0
 15 25  1  0
 14 15  1  6
 16 15  2  0
 18 17  1  0
 19 18  2  0
 20 18  1  0
 21 20  1  0
 22 21  1  0
 23 22  1  0
 24 23  1  1
 24 25  1  0
 26 24  1  0
 26 28  1  0
 27 26  2  0
M  END
$$$$
