RKT.pdb
     RDKit          3D

 28 27  0  0  1  0  0  0  0  0999 V2000
    8.4812  -15.2692   14.6529 N   0  0  0  0  0  0  0  0  0  0  0  0
    8.3211  -13.9183   15.0113 C   0  0  0  0  0  0  0  0  0  0  0  0
    7.8561  -13.0653   14.1737 N   0  0  0  0  0  0  0  0  0  0  0  0
    8.6892  -13.5268   16.3268 N   0  0  0  0  0  0  0  0  0  0  0  0
    9.4970  -14.4192   17.1318 C   0  0  0  0  0  0  0  0  0  0  0  0
    8.9858  -14.4999   18.5422 C   0  0  0  0  0  0  0  0  0  0  0  0
    9.8182  -15.3749   19.4059 C   0  0  0  0  0  0  0  0  0  0  0  0
    9.1130  -16.2330   20.3886 C   0  0  2  0  0  0  0  0  0  0  0  0
    7.7028  -16.3340   20.1211 N   0  0  0  0  0  0  0  0  0  0  0  0
    9.3048  -15.7780   21.7940 C   0  0  0  0  0  0  0  0  0  0  0  0
   10.4521  -15.7107   22.3140 O   0  0  0  0  0  0  0  0  0  0  0  0
    7.7221  -12.0637   14.3598 N   0  0  0  0  0  0  0  0  0  0  0  0
    8.2136  -15.3988   22.6165 C   0  0  1  0  0  0  0  0  0  0  0  0
    8.4110  -14.8754   23.9802 C   0  0  0  0  0  0  0  0  0  0  0  0
    7.2126  -14.0569   24.3652 C   0  0  0  0  0  0  0  0  0  0  0  0
    7.3977  -13.4055   25.6899 C   0  0  0  0  0  0  0  0  0  0  0  0
    6.1909  -12.5010   26.0295 C   0  0  0  0  0  0  0  0  0  0  0  0
    6.3672  -11.8930   27.3972 N   0  0  0  0  0  0  0  0  0  0  0  0
    5.2214  -11.0014   27.6395 C   0  0  0  0  0  0  0  0  0  0  0  0
    8.5731  -16.0443   24.8609 O   0  0  0  0  0  0  0  0  0  0  0  0
    7.9628  -17.1329   24.5675 C   0  0  0  0  0  0  0  0  0  0  0  0
    9.7088  -18.3512   24.4395 C   0  0  2  0  0  0  0  0  0  0  0  0
   10.4334  -18.2323   25.7431 O   0  0  0  0  0  0  0  0  0  0  0  0
   11.6586  -17.5729   25.5032 C   0  0  2  0  0  0  0  0  0  0  0  0
    9.6688  -17.3535   26.7095 N   0  0  0  0  0  0  0  0  0  0  0  0
    9.3568  -16.1075   26.0318 C   0  0  0  0  0  0  0  0  0  0  0  0
   10.3810  -17.1470   27.9722 O   0  0  0  0  0  0  0  0  0  0  0  0
   10.9289  -16.0448   28.2272 O   0  0  0  0  0  0  0  0  0  0  0  0
  2  4  1  0
  2  1  1  0
  3  2  2  0
  5  4  1  0
  6  5  1  0
  7  6  1  0
  7  8  1  0
  8  9  1  6
 10 11  2  0
 10  8  1  0
 12 10  1  0
 13 12  1  0
 14 15  1  0
 13 14  1  1
 15 16  1  0
 16 17  1  0
 17 18  1  0
 19 25  1  0
 19 13  1  0
 20 19  2  0
 22 21  1  6
 22 23  1  0
 22 24  1  0
 24 25  1  1
 24 26  1  0
 26 28  1  0
 27 26  2  0
M  END
$$$$
