RKT.pdb
     RDKit          3D

 28 27  0  0  1  0  0  0  0  0999 V2000
    8.3743  -15.6988   16.4819 N   0  0  0  0  0  0  0  0  0  0  0  0
    8.1701  -14.3401   16.1799 C   0  0  0  0  0  0  0  0  0  0  0  0
    7.6699  -13.9835   15.0539 N   0  0  0  0  0  0  0  0  0  0  0  0
    8.5339  -13.3753   17.1578 N   0  0  0  0  0  0  0  0  0  0  0  0
    8.7363  -13.7968   18.5283 C   0  0  0  0  0  0  0  0  0  0  0  0
    7.4378  -13.8563   19.2813 C   0  0  0  0  0  0  0  0  0  0  0  0
    7.6104  -14.2899   20.6908 C   0  0  0  0  0  0  0  0  0  0  0  0
    8.0996  -15.6702   20.9246 C   0  0  2  0  0  0  0  0  0  0  0  0
    7.3382  -16.6552   20.2031 N   0  0  0  0  0  0  0  0  0  0  0  0
    8.1184  -16.0388   22.3679 C   0  0  0  0  0  0  0  0  0  0  0  0
    7.0539  -16.2798   23.0003 O   0  0  0  0  0  0  0  0  0  0  0  0
    7.5822  -13.0143   14.7240 N   0  0  0  0  0  0  0  0  0  0  0  0
    9.3275  -16.1376   23.1024 C   0  0  1  0  0  0  0  0  0  0  0  0
    9.3485  -16.5563   24.5154 C   0  0  0  0  0  0  0  0  0  0  0  0
   10.4589  -17.5474   24.7124 C   0  0  0  0  0  0  0  0  0  0  0  0
   10.5622  -17.9782   26.1328 C   0  0  0  0  0  0  0  0  0  0  0  0
   11.6509  -19.0629   26.2990 C   0  0  0  0  0  0  0  0  0  0  0  0
   11.7641  -19.4666   27.7466 N   0  0  0  0  0  0  0  0  0  0  0  0
   12.7989  -20.5092   27.8389 C   0  0  0  0  0  0  0  0  0  0  0  0
    9.5636  -15.3374   25.3131 O   0  0  0  0  0  0  0  0  0  0  0  0
   10.5477  -14.5693   25.0212 C   0  0  0  0  0  0  0  0  0  0  0  0
    7.5374  -12.3056   25.7782 C   0  0  2  0  0  0  0  0  0  0  0  0
    7.8260  -12.8283   27.1500 O   0  0  0  0  0  0  0  0  0  0  0  0
    6.7631  -13.6782   27.5262 C   0  0  2  0  0  0  0  0  0  0  0  0
    9.0700  -13.6905   27.1505 N   0  0  0  0  0  0  0  0  0  0  0  0
    8.7782  -14.8988   26.3994 C   0  0  0  0  0  0  0  0  0  0  0  0
    9.5651  -13.9697   28.4999 O   0  0  0  0  0  0  0  0  0  0  0  0
    9.6340  -15.1500   28.9268 O   0  0  0  0  0  0  0  0  0  0  0  0
  2  4  1  0
  2  1  1  0
  3  2  2  0
  5  4  1  0
  6  5  1  0
  7  6  1  0
  7  8  1  0
  8  9  1  6
 10 11  2  0
 10  8  1  0
 12 10  1  0
 13 12  1  0
 14 15  1  0
 13 14  1  6
 15 16  1  0
 16 17  1  0
 17 18  1  0
 19 25  1  0
 19 13  1  0
 20 19  2  0
 22 21  1  1
 22 23  1  0
 22 24  1  0
 24 25  1  1
 24 26  1  0
 26 28  1  0
 27 26  2  0
M  END
$$$$
