RKT.pdb
     RDKit          3D

 28 27  0  0  1  0  0  0  0  0999 V2000
    9.7163  -13.3133   19.2524 N   0  0  0  0  0  0  0  0  0  0  0  0
    9.4038  -12.2682   18.3642 C   0  0  0  0  0  0  0  0  0  0  0  0
   10.0649  -11.1691   18.3817 N   0  0  0  0  0  0  0  0  0  0  0  0
    8.3354  -12.4654   17.4481 N   0  0  0  0  0  0  0  0  0  0  0  0
    7.5768  -13.6978   17.4988 C   0  0  0  0  0  0  0  0  0  0  0  0
    8.4774  -14.8902   17.6543 C   0  0  0  0  0  0  0  0  0  0  0  0
    7.9954  -16.0761   16.9022 C   0  0  0  0  0  0  0  0  0  0  0  0
    8.7482  -17.3427   17.0707 C   0  0  2  0  0  0  0  0  0  0  0  0
    8.1602  -18.4352   16.3419 N   0  0  0  0  0  0  0  0  0  0  0  0
    8.8955  -17.7406   18.4986 C   0  0  0  0  0  0  0  0  0  0  0  0
    7.9008  -18.0892   19.1915 O   0  0  0  0  0  0  0  0  0  0  0  0
    9.8521  -10.3397   17.8136 N   0  0  0  0  0  0  0  0  0  0  0  0
   10.1550  -17.7481   19.1503 C   0  0  2  0  0  0  0  0  0  0  0  0
   10.3143  -18.2360   20.5320 C   0  0  0  0  0  0  0  0  0  0  0  0
   11.6605  -18.8870   20.6658 C   0  0  0  0  0  0  0  0  0  0  0  0
   11.8791  -19.4143   22.0397 C   0  0  0  0  0  0  0  0  0  0  0  0
   13.2585  -20.1034   22.1495 C   0  0  0  0  0  0  0  0  0  0  0  0
   13.4471  -20.6688   23.5337 N   0  0  0  0  0  0  0  0  0  0  0  0
   14.7266  -21.3963   23.5474 C   0  0  0  0  0  0  0  0  0  0  0  0
   10.1921  -17.0607   21.4107 O   0  0  0  0  0  0  0  0  0  0  0  0
   10.8370  -15.9931   21.1140 C   0  0  0  0  0  0  0  0  0  0  0  0
    7.6839  -14.6110   22.2184 C   0  0  2  0  0  0  0  0  0  0  0  0
    8.0573  -15.2304   23.5282 O   0  0  0  0  0  0  0  0  0  0  0  0
    7.1841  -16.3147   23.7633 C   0  0  2  0  0  0  0  0  0  0  0  0
    9.4497  -15.8208   23.4707 N   0  0  0  0  0  0  0  0  0  0  0  0
    9.4133  -16.9697   22.5830 C   0  0  0  0  0  0  0  0  0  0  0  0
    9.9818  -16.1469   24.7953 O   0  0  0  0  0  0  0  0  0  0  0  0
   10.2077  -17.3399   25.1204 O   0  0  0  0  0  0  0  0  0  0  0  0
  2  4  1  0
  2  1  1  0
  3  2  2  0
  5  4  1  0
  6  5  1  0
  7  6  1  0
  7  8  1  0
  8  9  1  6
 10 11  2  0
 10  8  1  0
 12 10  1  0
 13 12  1  0
 14 15  1  0
 13 14  1  6
 15 16  1  0
 16 17  1  0
 17 18  1  0
 19 25  1  0
 19 13  1  0
 20 19  2  0
 22 21  1  1
 22 23  1  0
 22 24  1  0
 24 25  1  1
 24 26  1  0
 26 28  1  0
 27 26  2  0
M  END
$$$$
