RKT.pdb
     RDKit          3D

 28 27  0  0  1  0  0  0  0  0999 V2000
    9.1176  -13.5155   17.0253 N   0  0  0  0  0  0  0  0  0  0  0  0
    8.6331  -13.2176   18.3119 C   0  0  0  0  0  0  0  0  0  0  0  0
    9.2578  -12.4002   19.0780 N   0  0  0  0  0  0  0  0  0  0  0  0
    7.4327  -13.8480   18.7375 N   0  0  0  0  0  0  0  0  0  0  0  0
    6.8778  -13.5142   20.0327 C   0  0  0  0  0  0  0  0  0  0  0  0
    6.4372  -14.7443   20.7742 C   0  0  0  0  0  0  0  0  0  0  0  0
    7.4655  -15.8153   20.7724 C   0  0  0  0  0  0  0  0  0  0  0  0
    7.0992  -17.1134   21.3890 C   0  0  2  0  0  0  0  0  0  0  0  0
    5.7938  -17.5662   20.9875 N   0  0  0  0  0  0  0  0  0  0  0  0
    7.1616  -17.0831   22.8771 C   0  0  0  0  0  0  0  0  0  0  0  0
    6.1625  -16.7512   23.5718 O   0  0  0  0  0  0  0  0  0  0  0  0
    8.9604  -12.1278   20.0231 N   0  0  0  0  0  0  0  0  0  0  0  0
    8.3412  -17.4239   23.5866 C   0  0  2  0  0  0  0  0  0  0  0  0
    8.4015  -17.3911   25.0590 C   0  0  0  0  0  0  0  0  0  0  0  0
    9.4000  -18.4097   25.5277 C   0  0  0  0  0  0  0  0  0  0  0  0
    9.5301  -18.4065   27.0098 C   0  0  0  0  0  0  0  0  0  0  0  0
   10.6309  -19.3915   27.4656 C   0  0  0  0  0  0  0  0  0  0  0  0
   10.7004  -19.4313   28.9705 N   0  0  0  0  0  0  0  0  0  0  0  0
   11.7538  -20.3896   29.3428 C   0  0  0  0  0  0  0  0  0  0  0  0
    8.8053  -16.0255   25.4339 O   0  0  0  0  0  0  0  0  0  0  0  0
    9.7633  -15.4630   24.7941 C   0  0  0  0  0  0  0  0  0  0  0  0
    7.2657  -12.6675   25.3255 C   0  0  2  0  0  0  0  0  0  0  0  0
    7.6406  -12.9278   26.7503 O   0  0  0  0  0  0  0  0  0  0  0  0
    6.5319  -13.5212   27.3923 C   0  0  2  0  0  0  0  0  0  0  0  0
    8.7641  -13.9382   26.8387 N   0  0  0  0  0  0  0  0  0  0  0  0
    8.2336  -15.2336   26.4514 C   0  0  0  0  0  0  0  0  0  0  0  0
    9.4035  -13.9604   28.1558 O   0  0  0  0  0  0  0  0  0  0  0  0
    9.4023  -15.0069   28.8523 O   0  0  0  0  0  0  0  0  0  0  0  0
  2  4  1  0
  2  1  1  0
  3  2  2  0
  5  4  1  0
  6  5  1  0
  7  6  1  0
  7  8  1  0
  8  9  1  1
 10 11  2  0
 10  8  1  0
 12 10  1  0
 13 12  1  0
 14 15  1  0
 13 14  1  6
 15 16  1  0
 16 17  1  0
 17 18  1  0
 19 25  1  0
 19 13  1  0
 20 19  2  0
 22 21  1  1
 22 23  1  0
 22 24  1  0
 24 25  1  1
 24 26  1  0
 26 28  1  0
 27 26  2  0
M  END
$$$$
