RKT.pdb
     RDKit          3D

 28 27  0  0  1  0  0  0  0  0999 V2000
    7.2261  -13.2420   17.0053 N   0  0  0  0  0  0  0  0  0  0  0  0
    8.2553  -13.6635   16.1438 C   0  0  0  0  0  0  0  0  0  0  0  0
    8.4350  -13.0983   15.0064 N   0  0  0  0  0  0  0  0  0  0  0  0
    9.0889  -14.7325   16.5700 N   0  0  0  0  0  0  0  0  0  0  0  0
    8.7066  -15.5101   17.7302 C   0  0  0  0  0  0  0  0  0  0  0  0
    8.3805  -14.6257   18.9001 C   0  0  0  0  0  0  0  0  0  0  0  0
    9.2924  -14.8379   20.0524 C   0  0  0  0  0  0  0  0  0  0  0  0
    8.9590  -15.9349   20.9929 C   0  0  2  0  0  0  0  0  0  0  0  0
    7.5966  -16.3788   20.8623 N   0  0  0  0  0  0  0  0  0  0  0  0
    9.2128  -15.5723   22.4153 C   0  0  0  0  0  0  0  0  0  0  0  0
   10.3564  -15.2159   22.8105 O   0  0  0  0  0  0  0  0  0  0  0  0
    9.1536  -13.3609   14.3205 N   0  0  0  0  0  0  0  0  0  0  0  0
    8.1875  -15.6088   23.3943 C   0  0  1  0  0  0  0  0  0  0  0  0
    8.4412  -15.2518   24.8017 C   0  0  0  0  0  0  0  0  0  0  0  0
    7.2174  -14.5875   25.3632 C   0  0  0  0  0  0  0  0  0  0  0  0
    7.5182  -13.2184   25.8616 C   0  0  0  0  0  0  0  0  0  0  0  0
    6.2661  -12.5830   26.5084 C   0  0  0  0  0  0  0  0  0  0  0  0
    6.5872  -11.1983   27.0092 N   0  0  0  0  0  0  0  0  0  0  0  0
    5.3456  -10.6206   27.5489 C   0  0  0  0  0  0  0  0  0  0  0  0
    8.7462  -16.5081   25.5068 O   0  0  0  0  0  0  0  0  0  0  0  0
    7.8143  -17.3743   25.6646 C   0  0  0  0  0  0  0  0  0  0  0  0
   10.3044  -19.3428   24.6302 C   0  0  2  0  0  0  0  0  0  0  0  0
   11.0131  -19.0530   25.9156 O   0  0  0  0  0  0  0  0  0  0  0  0
   12.2062  -18.3625   25.6105 C   0  0  2  0  0  0  0  0  0  0  0  0
   10.1996  -18.1173   26.7835 N   0  0  0  0  0  0  0  0  0  0  0  0
    9.9948  -16.8842   26.0441 C   0  0  0  0  0  0  0  0  0  0  0  0
   10.8050  -17.8940   28.0979 O   0  0  0  0  0  0  0  0  0  0  0  0
   11.2818  -16.7716   28.4027 O   0  0  0  0  0  0  0  0  0  0  0  0
  2  4  1  0
  2  1  1  0
  3  2  2  0
  5  4  1  0
  6  5  1  0
  7  6  1  0
  7  8  1  0
  8  9  1  1
 10 11  2  0
 10  8  1  0
 12 10  1  0
 13 12  1  0
 14 15  1  0
 13 14  1  1
 15 16  1  0
 16 17  1  0
 17 18  1  0
 19 25  1  0
 19 13  1  0
 20 19  2  0
 22 21  1  6
 22 23  1  0
 22 24  1  0
 24 25  1  1
 24 26  1  0
 26 28  1  0
 27 26  2  0
M  END
$$$$
