RKT.pdb
     RDKit          3D

 28 27  0  0  1  0  0  0  0  0999 V2000
    8.6890  -24.8814   20.5046 N   0  0  0  0  0  0  0  0  0  0  0  0
    9.8112  -24.3406   21.1581 C   0  0  0  0  0  0  0  0  0  0  0  0
   10.9400  -24.9497   21.1416 N   0  0  0  0  0  0  0  0  0  0  0  0
    9.6579  -23.1013   21.8363 N   0  0  0  0  0  0  0  0  0  0  0  0
    8.3375  -22.5198   21.9600 C   0  0  0  0  0  0  0  0  0  0  0  0
    8.1609  -21.3562   21.0262 C   0  0  0  0  0  0  0  0  0  0  0  0
    6.8252  -20.7193   21.1482 C   0  0  0  0  0  0  0  0  0  0  0  0
    6.4619  -19.6978   20.1364 C   0  0  2  0  0  0  0  0  0  0  0  0
    6.4980  -20.2138   18.7937 N   0  0  0  0  0  0  0  0  0  0  0  0
    7.3213  -18.4832   20.2085 C   0  0  0  0  0  0  0  0  0  0  0  0
    8.4390  -18.4313   19.6261 O   0  0  0  0  0  0  0  0  0  0  0  0
   11.7837  -24.6491   21.6453 N   0  0  0  0  0  0  0  0  0  0  0  0
    6.9301  -17.3280   20.9320 C   0  0  1  0  0  0  0  0  0  0  0  0
    7.7933  -16.1368   21.0236 C   0  0  0  0  0  0  0  0  0  0  0  0
    6.9576  -14.9615   21.4411 C   0  0  0  0  0  0  0  0  0  0  0  0
    7.7069  -13.6829   21.3093 C   0  0  0  0  0  0  0  0  0  0  0  0
    7.9824  -13.3596   19.8230 C   0  0  0  0  0  0  0  0  0  0  0  0
    8.6359  -12.0072   19.6990 N   0  0  0  0  0  0  0  0  0  0  0  0
    9.0014  -11.8168   18.2859 C   0  0  0  0  0  0  0  0  0  0  0  0
    8.8313  -16.4442   22.0219 O   0  0  0  0  0  0  0  0  0  0  0  0
    8.5371  -17.2069   23.0095 C   0  0  0  0  0  0  0  0  0  0  0  0
    9.9033  -18.5889   23.0011 C   0  0  2  0  0  0  0  0  0  0  0  0
   11.2507  -17.9662   22.8135 O   0  0  0  0  0  0  0  0  0  0  0  0
   11.6706  -18.2238   21.4904 C   0  0  2  0  0  0  0  0  0  0  0  0
   11.1736  -16.4600   22.9411 N   0  0  0  0  0  0  0  0  0  0  0  0
   10.1639  -15.9825   22.0129 C   0  0  0  0  0  0  0  0  0  0  0  0
   12.4708  -15.8083   22.7493 O   0  0  0  0  0  0  0  0  0  0  0  0
   12.7546  -15.2522   21.6583 O   0  0  0  0  0  0  0  0  0  0  0  0
  2  4  1  0
  2  1  1  0
  3  2  2  0
  5  4  1  0
  6  5  1  0
  7  6  1  0
  7  8  1  0
  8  9  1  6
 10 11  2  0
 10  8  1  0
 12 10  1  0
 13 12  1  0
 14 15  1  0
 13 14  1  1
 15 16  1  0
 16 17  1  0
 17 18  1  0
 19 25  1  0
 19 13  1  0
 20 19  2  0
 22 21  1  1
 22 23  1  0
 22 24  1  0
 24 25  1  1
 24 26  1  0
 26 28  1  0
 27 26  2  0
M  END
$$$$
