RKT.pdb
     RDKit          3D

 28 27  0  0  1  0  0  0  0  0999 V2000
    7.5206  -17.7692   15.4104 N   0  0  0  0  0  0  0  0  0  0  0  0
    8.8268  -17.2534   15.3294 C   0  0  0  0  0  0  0  0  0  0  0  0
    9.7990  -17.9832   14.9199 N   0  0  0  0  0  0  0  0  0  0  0  0
    9.0376  -15.9017   15.7143 N   0  0  0  0  0  0  0  0  0  0  0  0
    7.8941  -15.0546   15.9822 C   0  0  0  0  0  0  0  0  0  0  0  0
    7.1520  -15.5063   17.2079 C   0  0  0  0  0  0  0  0  0  0  0  0
    7.8798  -15.2005   18.4654 C   0  0  0  0  0  0  0  0  0  0  0  0
    7.5379  -13.9360   19.1608 C   0  0  2  0  0  0  0  0  0  0  0  0
    7.9473  -12.7715   18.4215 N   0  0  0  0  0  0  0  0  0  0  0  0
    8.1103  -13.8601   20.5340 C   0  0  0  0  0  0  0  0  0  0  0  0
    9.3409  -13.6594   20.7248 O   0  0  0  0  0  0  0  0  0  0  0  0
   10.7658  -17.6623   14.7853 N   0  0  0  0  0  0  0  0  0  0  0  0
    7.3059  -14.0087   21.6925 C   0  0  2  0  0  0  0  0  0  0  0  0
    7.8652  -13.8838   23.0505 C   0  0  0  0  0  0  0  0  0  0  0  0
    6.7570  -13.5395   24.0031 C   0  0  0  0  0  0  0  0  0  0  0  0
    7.2426  -13.4780   25.4081 C   0  0  0  0  0  0  0  0  0  0  0  0
    6.3744  -12.5121   26.2465 C   0  0  0  0  0  0  0  0  0  0  0  0
    6.8726  -12.4685   27.6682 N   0  0  0  0  0  0  0  0  0  0  0  0
    5.9444  -11.6262   28.4400 C   0  0  0  0  0  0  0  0  0  0  0  0
    8.4744  -15.1841   23.3767 O   0  0  0  0  0  0  0  0  0  0  0  0
    7.7859  -16.2525   23.2087 C   0  0  0  0  0  0  0  0  0  0  0  0
   12.2059  -18.2200   24.1748 C   0  0  2  0  0  0  0  0  0  0  0  0
   11.6140  -16.9341   23.6905 O   0  0  0  0  0  0  0  0  0  0  0  0
   11.3900  -17.0522   22.3015 C   0  0  1  0  0  0  0  0  0  0  0  0
   10.2556  -16.6946   24.3134 N   0  0  0  0  0  0  0  0  0  0  0  0
    9.7797  -15.3973   23.8663 C   0  0  0  0  0  0  0  0  0  0  0  0
   10.2718  -16.8183   25.7724 O   0  0  0  0  0  0  0  0  0  0  0  0
    9.7241  -17.7972   26.3397 O   0  0  0  0  0  0  0  0  0  0  0  0
  2  4  1  0
  2  1  1  0
  3  2  2  0
  5  4  1  0
  6  5  1  0
  7  6  1  0
  7  8  1  0
  8  9  1  6
 10 11  2  0
 10  8  1  0
 12 10  1  0
 13 12  1  0
 14 15  1  0
 13 14  1  1
 15 16  1  0
 16 17  1  0
 17 18  1  0
 19 25  1  0
 19 13  1  0
 20 19  2  0
 22 21  1  6
 22 23  1  0
 22 24  1  0
 24 25  1  1
 24 26  1  0
 26 28  1  0
 27 26  2  0
M  END
$$$$
