RKT.pdb
     RDKit          3D

 28 27  0  0  1  0  0  0  0  0999 V2000
    7.8445  -14.6360   17.9633 N   0  0  0  0  0  0  0  0  0  0  0  0
    7.7632  -13.3153   18.4408 C   0  0  0  0  0  0  0  0  0  0  0  0
    6.7178  -12.6023   18.2311 N   0  0  0  0  0  0  0  0  0  0  0  0
    8.8720  -12.7947   19.1614 N   0  0  0  0  0  0  0  0  0  0  0  0
    9.3571  -13.5055   20.3260 C   0  0  0  0  0  0  0  0  0  0  0  0
    9.9713  -14.8233   19.9480 C   0  0  0  0  0  0  0  0  0  0  0  0
   11.3731  -14.9597   20.4181 C   0  0  0  0  0  0  0  0  0  0  0  0
   11.6600  -16.0275   21.4064 C   0  0  2  0  0  0  0  0  0  0  0  0
   11.6926  -17.3368   20.8104 N   0  0  0  0  0  0  0  0  0  0  0  0
   10.6939  -16.0388   22.5402 C   0  0  0  0  0  0  0  0  0  0  0  0
   10.3157  -14.9706   23.0942 O   0  0  0  0  0  0  0  0  0  0  0  0
    6.5823  -11.6375   18.5580 N   0  0  0  0  0  0  0  0  0  0  0  0
   10.1519  -17.2446   23.0534 C   0  0  1  0  0  0  0  0  0  0  0  0
    9.1617  -17.2510   24.1452 C   0  0  0  0  0  0  0  0  0  0  0  0
    8.6774  -18.6567   24.3543 C   0  0  0  0  0  0  0  0  0  0  0  0
    7.7761  -18.7550   25.5339 C   0  0  0  0  0  0  0  0  0  0  0  0
    7.3811  -20.2255   25.8010 C   0  0  0  0  0  0  0  0  0  0  0  0
    6.3508  -20.2945   26.8988 N   0  0  0  0  0  0  0  0  0  0  0  0
    5.9308  -21.6993   27.0281 C   0  0  0  0  0  0  0  0  0  0  0  0
    9.8483  -16.7321   25.3400 O   0  0  0  0  0  0  0  0  0  0  0  0
   11.0101  -17.1864   25.6356 C   0  0  0  0  0  0  0  0  0  0  0  0
    8.1380  -13.9582   28.1317 C   0  0  2  0  0  0  0  0  0  0  0  0
    9.5937  -13.9434   27.7867 O   0  0  0  0  0  0  0  0  0  0  0  0
   10.3134  -13.5769   28.9448 C   0  0  1  0  0  0  0  0  0  0  0  0
   10.0766  -15.3292   27.4164 N   0  0  0  0  0  0  0  0  0  0  0  0
    9.3578  -15.7516   26.2273 C   0  0  0  0  0  0  0  0  0  0  0  0
    9.9552  -16.2848   28.5193 O   0  0  0  0  0  0  0  0  0  0  0  0
   10.8509  -16.3689   29.3972 O   0  0  0  0  0  0  0  0  0  0  0  0
  2  4  1  0
  2  1  1  0
  3  2  2  0
  5  4  1  0
  6  5  1  0
  7  6  1  0
  7  8  1  0
  8  9  1  6
 10 11  2  0
 10  8  1  0
 12 10  1  0
 13 12  1  0
 14 15  1  0
 13 14  1  1
 15 16  1  0
 16 17  1  0
 17 18  1  0
 19 25  1  0
 19 13  1  0
 20 19  2  0
 22 21  1  6
 22 23  1  0
 22 24  1  0
 24 25  1  6
 24 26  1  0
 26 28  1  0
 27 26  2  0
M  END
$$$$
