HRL.pdb
     RDKit          3D

 30 30  0  0  1  0  0  0  0  0999 V2000
   13.8871  -17.4619   21.1880 N   0  0  0  0  0  0  0  0  0  0  0  0
   12.5650  -17.9555   21.4662 C   0  0  1  0  0  0  0  0  0  0  0  0
   12.6871  -19.1657   22.4185 C   0  0  0  0  0  0  0  0  0  0  0  0
   13.1702  -20.3494   21.6441 C   0  0  0  0  0  0  0  0  0  0  0  0
   13.5017  -20.3617   20.3092 C   0  0  0  0  0  0  0  0  0  0  0  0
   13.8822  -21.6029   19.9691 N   0  0  0  0  0  0  0  0  0  0  0  0
   13.8003  -22.3785   21.0544 C   0  0  0  0  0  0  0  0  0  0  0  0
   13.3605  -21.5948   22.0797 N   0  0  0  0  0  0  0  0  0  0  0  0
   11.8072  -16.8999   22.2017 C   0  0  0  0  0  0  0  0  0  0  0  0
   12.3045  -16.1998   23.1193 O   0  0  0  0  0  0  0  0  0  0  0  0
    7.6389  -12.4050   19.4698 N   0  0  0  0  0  0  0  0  0  0  0  0
    7.6354  -13.3436   18.4260 C   0  0  0  0  0  0  0  0  0  0  0  0
    8.1203  -13.0304   17.2771 N   0  0  0  0  0  0  0  0  0  0  0  0
    7.0879  -14.6404   18.6636 N   0  0  0  0  0  0  0  0  0  0  0  0
    6.9977  -15.1067   20.0289 C   0  0  0  0  0  0  0  0  0  0  0  0
    8.3094  -14.9896   20.7440 C   0  0  0  0  0  0  0  0  0  0  0  0
    8.1772  -15.6857   22.0922 C   0  0  0  0  0  0  0  0  0  0  0  0
    9.5612  -15.8716   22.7291 C   0  0  2  0  0  0  0  0  0  0  0  0
   10.4275  -16.6246   21.8833 N   0  0  0  0  0  0  0  0  0  0  0  0
    9.2828  -16.5496   24.0298 C   0  0  0  0  0  0  0  0  0  0  0  0
   10.1967  -17.2317   24.5893 O   0  0  0  0  0  0  0  0  0  0  0  0
    8.1483  -13.7514   16.5279 C   0  0  0  0  0  0  0  0  0  0  0  0
    7.7960  -12.4164   27.4759 C   0  0  1  0  0  0  0  0  0  0  0  0
    8.2852  -13.8089   27.3850 C   0  0  0  0  0  0  0  0  0  0  0  0
    9.7189  -13.9380   27.9501 C   0  0  0  0  0  0  0  0  0  0  0  0
    8.1907  -14.5321   26.1006 C   0  0  2  0  0  0  0  0  0  0  0  0
    8.0085  -16.0003   26.0992 N   0  0  0  0  0  0  0  0  0  0  0  0
    8.0363  -16.4685   24.6814 C   0  0  0  0  0  0  0  0  0  0  0  0
    6.8217  -16.5686   26.7458 O   0  0  0  0  0  0  0  0  0  0  0  0
    6.7993  -17.2978   27.9069 O   0  0  0  0  0  0  0  0  0  0  0  0
  2  1  1  1
  2  3  1  0
  2  9  1  0
  3  4  1  0
  4  8  1  0
  4  5  2  0
  5  6  1  0
  7  6  1  0
  8  7  2  0
  9 10  2  0
 12 11  1  0
 12 14  1  0
 13 12  2  0
 15 14  1  0
 15 16  1  0
 17 16  1  0
 18 17  1  6
 18 20  1  0
 19 18  1  0
 19  9  1  0
 20 21  2  0
 23 22  1  1
 23 25  1  0
 24 23  1  0
 26 25  1  1
 26 28  1  0
 27 26  1  0
 27 20  1  0
 28 30  2  0
 28 29  1  0
M  END
$$$$
