HRL.pdb
     RDKit          3D

 30 30  0  0  1  0  0  0  0  0999 V2000
    6.5163  -16.6456   19.4219 N   0  0  0  0  0  0  0  0  0  0  0  0
    7.4283  -15.9440   20.2850 C   0  0  1  0  0  0  0  0  0  0  0  0
    7.0464  -14.4471   20.2836 C   0  0  0  0  0  0  0  0  0  0  0  0
    7.8053  -13.7508   19.2002 C   0  0  0  0  0  0  0  0  0  0  0  0
    8.6858  -14.3398   18.3230 C   0  0  0  0  0  0  0  0  0  0  0  0
    9.1764  -13.3969   17.5036 N   0  0  0  0  0  0  0  0  0  0  0  0
    8.6295  -12.2245   17.8390 C   0  0  0  0  0  0  0  0  0  0  0  0
    7.7868  -12.4556   18.8855 N   0  0  0  0  0  0  0  0  0  0  0  0
    7.2389  -16.4383   21.6812 C   0  0  0  0  0  0  0  0  0  0  0  0
    6.1457  -16.3753   22.2980 O   0  0  0  0  0  0  0  0  0  0  0  0
   11.3934  -18.9677   27.5878 N   0  0  0  0  0  0  0  0  0  0  0  0
   10.8521  -20.2237   27.9036 C   0  0  0  0  0  0  0  0  0  0  0  0
   11.2607  -20.8573   28.9451 N   0  0  0  0  0  0  0  0  0  0  0  0
    9.8484  -20.7781   27.0532 N   0  0  0  0  0  0  0  0  0  0  0  0
    9.8166  -20.3622   25.6691 C   0  0  0  0  0  0  0  0  0  0  0  0
    9.0644  -19.0784   25.4917 C   0  0  0  0  0  0  0  0  0  0  0  0
    9.0347  -18.7488   24.0050 C   0  0  0  0  0  0  0  0  0  0  0  0
    8.2349  -17.4611   23.7649 C   0  0  2  0  0  0  0  0  0  0  0  0
    8.3342  -17.0306   22.4093 N   0  0  0  0  0  0  0  0  0  0  0  0
    8.8121  -16.4804   24.7314 C   0  0  0  0  0  0  0  0  0  0  0  0
   10.0416  -16.1712   24.6517 O   0  0  0  0  0  0  0  0  0  0  0  0
   10.8789  -21.8048   29.1412 C   0  0  0  0  0  0  0  0  0  0  0  0
    5.5780  -12.7033   26.6826 C   0  0  1  0  0  0  0  0  0  0  0  0
    7.0447  -12.8886   26.6498 C   0  0  0  0  0  0  0  0  0  0  0  0
    7.5964  -12.7455   25.2122 C   0  0  0  0  0  0  0  0  0  0  0  0
    7.6442  -14.0739   27.2960 C   0  0  2  0  0  0  0  0  0  0  0  0
    8.7051  -14.8309   26.5958 N   0  0  0  0  0  0  0  0  0  0  0  0
    8.0486  -15.8674   25.7445 C   0  0  0  0  0  0  0  0  0  0  0  0
    9.7512  -15.4845   27.3882 O   0  0  0  0  0  0  0  0  0  0  0  0
   10.8093  -14.8672   28.0044 O   0  0  0  0  0  0  0  0  0  0  0  0
  2  1  1  6
  2  3  1  0
  2  9  1  0
  3  4  1  0
  4  8  1  0
  4  5  2  0
  5  6  1  0
  7  6  1  0
  8  7  2  0
  9 10  2  0
 12 11  1  0
 12 14  1  0
 13 12  2  0
 15 14  1  0
 15 16  1  0
 17 16  1  0
 18 17  1  6
 18 20  1  0
 19 18  1  0
 19  9  1  0
 20 21  2  0
 23 22  1  1
 23 25  1  0
 24 23  1  0
 26 25  1  6
 26 28  1  0
 27 26  1  0
 27 20  1  0
 28 30  2  0
 28 29  1  0
M  END
$$$$
