HRL.pdb
     RDKit          3D

 30 30  0  0  1  0  0  0  0  0999 V2000
    8.4859  -16.7587   19.1238 N   0  0  0  0  0  0  0  0  0  0  0  0
    8.8823  -15.7476   20.0671 C   0  0  1  0  0  0  0  0  0  0  0  0
    7.8203  -14.6257   20.0538 C   0  0  0  0  0  0  0  0  0  0  0  0
    7.8468  -13.9442   18.7237 C   0  0  0  0  0  0  0  0  0  0  0  0
    8.5520  -12.8048   18.4131 C   0  0  0  0  0  0  0  0  0  0  0  0
    8.3213  -12.4894   17.1291 N   0  0  0  0  0  0  0  0  0  0  0  0
    7.4874  -13.3999   16.6174 C   0  0  0  0  0  0  0  0  0  0  0  0
    7.2024  -14.2907   17.6095 N   0  0  0  0  0  0  0  0  0  0  0  0
    8.8680  -16.3418   21.4368 C   0  0  0  0  0  0  0  0  0  0  0  0
    7.8670  -16.9162   21.9343 O   0  0  0  0  0  0  0  0  0  0  0  0
   15.2155  -18.2783   25.6010 N   0  0  0  0  0  0  0  0  0  0  0  0
   14.4939  -18.9937   26.5695 C   0  0  0  0  0  0  0  0  0  0  0  0
   14.9497  -19.0944   27.7676 N   0  0  0  0  0  0  0  0  0  0  0  0
   13.2558  -19.6011   26.2009 N   0  0  0  0  0  0  0  0  0  0  0  0
   12.7718  -19.4075   24.8526 C   0  0  0  0  0  0  0  0  0  0  0  0
   11.4753  -18.6565   24.8300 C   0  0  0  0  0  0  0  0  0  0  0  0
   11.4854  -17.7311   23.6203 C   0  0  0  0  0  0  0  0  0  0  0  0
   10.1500  -16.9816   23.5170 C   0  0  2  0  0  0  0  0  0  0  0  0
   10.0380  -16.2841   22.2785 N   0  0  0  0  0  0  0  0  0  0  0  0
   10.1429  -16.0719   24.7007 C   0  0  0  0  0  0  0  0  0  0  0  0
   11.1359  -15.3078   24.9102 O   0  0  0  0  0  0  0  0  0  0  0  0
   14.4238  -19.6641   28.4609 C   0  0  0  0  0  0  0  0  0  0  0  0
    8.4988  -12.0783   25.9686 C   0  0  1  0  0  0  0  0  0  0  0  0
    7.6152  -13.2631   26.0135 C   0  0  0  0  0  0  0  0  0  0  0  0
    6.1328  -12.8519   26.1716 C   0  0  0  0  0  0  0  0  0  0  0  0
    7.9255  -14.3689   26.9424 C   0  0  2  0  0  0  0  0  0  0  0  0
    9.1962  -15.1124   26.7963 N   0  0  0  0  0  0  0  0  0  0  0  0
    9.0707  -16.0146   25.6130 C   0  0  0  0  0  0  0  0  0  0  0  0
    9.6880  -15.9058   27.9269 O   0  0  0  0  0  0  0  0  0  0  0  0
    9.8836  -17.2629   27.9436 O   0  0  0  0  0  0  0  0  0  0  0  0
  2  1  1  6
  2  3  1  0
  2  9  1  0
  3  4  1  0
  4  8  1  0
  4  5  2  0
  5  6  1  0
  7  6  1  0
  8  7  2  0
  9 10  2  0
 12 11  1  0
 12 14  1  0
 13 12  2  0
 15 14  1  0
 15 16  1  0
 17 16  1  0
 18 17  1  6
 18 20  1  0
 19 18  1  0
 19  9  1  0
 20 21  2  0
 23 22  1  6
 23 25  1  0
 24 23  1  0
 26 25  1  6
 26 28  1  0
 27 26  1  0
 27 20  1  0
 28 30  2  0
 28 29  1  0
M  END
$$$$
