HRL.pdb
     RDKit          3D

 30 30  0  0  1  0  0  0  0  0999 V2000
    8.1741  -17.1894   18.4592 N   0  0  0  0  0  0  0  0  0  0  0  0
    8.1903  -16.0028   19.2722 C   0  0  1  0  0  0  0  0  0  0  0  0
    7.1409  -15.0158   18.7146 C   0  0  0  0  0  0  0  0  0  0  0  0
    7.6612  -14.4134   17.4493 C   0  0  0  0  0  0  0  0  0  0  0  0
    8.8691  -14.6971   16.8558 C   0  0  0  0  0  0  0  0  0  0  0  0
    8.9894  -13.9564   15.7432 N   0  0  0  0  0  0  0  0  0  0  0  0
    7.8883  -13.2098   15.6159 C   0  0  0  0  0  0  0  0  0  0  0  0
    7.0778  -13.5003   16.6730 N   0  0  0  0  0  0  0  0  0  0  0  0
    7.7536  -16.3653   20.6532 C   0  0  0  0  0  0  0  0  0  0  0  0
    6.5970  -16.7704   20.9321 O   0  0  0  0  0  0  0  0  0  0  0  0
   12.3156  -21.8126   23.8936 N   0  0  0  0  0  0  0  0  0  0  0  0
   13.0616  -20.7286   23.4047 C   0  0  0  0  0  0  0  0  0  0  0  0
   14.3293  -20.8481   23.2261 N   0  0  0  0  0  0  0  0  0  0  0  0
   12.3908  -19.5029   23.1126 N   0  0  0  0  0  0  0  0  0  0  0  0
   10.9734  -19.4158   23.3832 C   0  0  0  0  0  0  0  0  0  0  0  0
   10.4300  -18.0554   23.0676 C   0  0  0  0  0  0  0  0  0  0  0  0
    8.9494  -18.0427   23.4249 C   0  0  0  0  0  0  0  0  0  0  0  0
    8.3369  -16.6756   23.0912 C   0  0  2  0  0  0  0  0  0  0  0  0
    8.6663  -16.2661   21.7658 N   0  0  0  0  0  0  0  0  0  0  0  0
    8.8824  -15.7598   24.1365 C   0  0  0  0  0  0  0  0  0  0  0  0
   10.0530  -15.2844   24.0045 O   0  0  0  0  0  0  0  0  0  0  0  0
   14.8665  -20.0343   22.8641 C   0  0  0  0  0  0  0  0  0  0  0  0
    7.3038  -11.8322   24.9936 C   0  0  1  0  0  0  0  0  0  0  0  0
    6.7412  -12.8237   25.9355 C   0  0  0  0  0  0  0  0  0  0  0  0
    5.6032  -12.2091   26.7834 C   0  0  0  0  0  0  0  0  0  0  0  0
    7.6485  -13.5967   26.8078 C   0  0  2  0  0  0  0  0  0  0  0  0
    8.7506  -14.3796   26.2067 N   0  0  0  0  0  0  0  0  0  0  0  0
    8.1513  -15.3872   25.2818 C   0  0  0  0  0  0  0  0  0  0  0  0
    9.6929  -15.0727   27.0907 O   0  0  0  0  0  0  0  0  0  0  0  0
   10.7188  -14.4979   27.7959 O   0  0  0  0  0  0  0  0  0  0  0  0
  2  1  1  6
  2  3  1  0
  2  9  1  0
  3  4  1  0
  4  8  1  0
  4  5  2  0
  5  6  1  0
  7  6  1  0
  8  7  2  0
  9 10  2  0
 12 11  1  0
 12 14  1  0
 13 12  2  0
 15 14  1  0
 15 16  1  0
 17 16  1  0
 18 17  1  1
 18 20  1  0
 19 18  1  0
 19  9  1  0
 20 21  2  0
 23 22  1  6
 23 25  1  0
 24 23  1  0
 26 25  1  6
 26 28  1  0
 27 26  1  0
 27 20  1  0
 28 30  2  0
 28 29  1  0
M  END
$$$$
