HRL.pdb
     RDKit          3D

 30 30  0  0  1  0  0  0  0  0999 V2000
    9.7572  -15.6727   18.6717 N   0  0  0  0  0  0  0  0  0  0  0  0
    8.8576  -14.8226   19.4046 C   0  0  1  0  0  0  0  0  0  0  0  0
    7.4762  -14.8648   18.7143 C   0  0  0  0  0  0  0  0  0  0  0  0
    7.6543  -14.6189   17.2506 C   0  0  0  0  0  0  0  0  0  0  0  0
    8.0919  -13.4489   16.6748 C   0  0  0  0  0  0  0  0  0  0  0  0
    8.1141  -13.6043   15.3419 N   0  0  0  0  0  0  0  0  0  0  0  0
    7.7015  -14.8432   15.0576 C   0  0  0  0  0  0  0  0  0  0  0  0
    7.4211  -15.4582   16.2417 N   0  0  0  0  0  0  0  0  0  0  0  0
    8.6754  -15.3895   20.7739 C   0  0  0  0  0  0  0  0  0  0  0  0
    7.6400  -15.2168   21.4650 O   0  0  0  0  0  0  0  0  0  0  0  0
   11.2529  -19.6553   27.4167 N   0  0  0  0  0  0  0  0  0  0  0  0
   10.8535  -20.6562   26.5172 C   0  0  0  0  0  0  0  0  0  0  0  0
   10.4692  -21.8014   26.9577 N   0  0  0  0  0  0  0  0  0  0  0  0
   10.8821  -20.3795   25.1171 N   0  0  0  0  0  0  0  0  0  0  0  0
   10.0373  -19.3217   24.6099 C   0  0  0  0  0  0  0  0  0  0  0  0
   10.7767  -18.0226   24.5038 C   0  0  0  0  0  0  0  0  0  0  0  0
   10.8141  -17.6179   23.0359 C   0  0  0  0  0  0  0  0  0  0  0  0
    9.6120  -16.7236   22.7034 C   0  0  2  0  0  0  0  0  0  0  0  0
    9.7096  -16.1874   21.3859 N   0  0  0  0  0  0  0  0  0  0  0  0
    9.6279  -15.6719   23.7631 C   0  0  0  0  0  0  0  0  0  0  0  0
   10.5697  -14.8197   23.7864 O   0  0  0  0  0  0  0  0  0  0  0  0
   10.1584  -22.5248   26.2780 C   0  0  0  0  0  0  0  0  0  0  0  0
    5.9052  -12.3415   27.2608 C   0  0  1  0  0  0  0  0  0  0  0  0
    7.2587  -12.6400   26.7452 C   0  0  0  0  0  0  0  0  0  0  0  0
    7.9412  -11.3678   26.1909 C   0  0  0  0  0  0  0  0  0  0  0  0
    7.4476  -13.7576   25.7981 C   0  0  2  0  0  0  0  0  0  0  0  0
    8.7419  -14.4733   25.7597 N   0  0  0  0  0  0  0  0  0  0  0  0
    8.6327  -15.5730   24.7554 C   0  0  0  0  0  0  0  0  0  0  0  0
    9.2771  -15.0391   27.0019 O   0  0  0  0  0  0  0  0  0  0  0  0
   10.0980  -14.4029   27.8973 O   0  0  0  0  0  0  0  0  0  0  0  0
  2  1  1  6
  2  3  1  0
  2  9  1  0
  3  4  1  0
  4  8  1  0
  4  5  2  0
  5  6  1  0
  7  6  1  0
  8  7  2  0
  9 10  2  0
 12 11  1  0
 12 14  1  0
 13 12  2  0
 15 14  1  0
 15 16  1  0
 17 16  1  0
 18 17  1  1
 18 20  1  0
 19 18  1  0
 19  9  1  0
 20 21  2  0
 23 22  1  1
 23 25  1  0
 24 23  1  0
 26 25  1  6
 26 28  1  0
 27 26  1  0
 27 20  1  0
 28 30  2  0
 28 29  1  0
M  END
$$$$
