HRL.pdb
     RDKit          3D

 30 30  0  0  1  0  0  0  0  0999 V2000
    9.4619  -18.2977   19.0844 N   0  0  0  0  0  0  0  0  0  0  0  0
    8.9206  -16.9764   19.2592 C   0  0  1  0  0  0  0  0  0  0  0  0
    7.9111  -16.7089   18.1208 C   0  0  0  0  0  0  0  0  0  0  0  0
    8.6426  -16.6758   16.8176 C   0  0  0  0  0  0  0  0  0  0  0  0
    9.5068  -15.6904   16.4004 C   0  0  0  0  0  0  0  0  0  0  0  0
    9.9600  -16.0020   15.1762 N   0  0  0  0  0  0  0  0  0  0  0  0
    9.4049  -17.1600   14.8061 C   0  0  0  0  0  0  0  0  0  0  0  0
    8.5953  -17.5649   15.8256 N   0  0  0  0  0  0  0  0  0  0  0  0
    8.1508  -16.9422   20.5381 C   0  0  0  0  0  0  0  0  0  0  0  0
    6.9427  -16.6038   20.6128 O   0  0  0  0  0  0  0  0  0  0  0  0
    7.9162  -23.6477   24.5711 N   0  0  0  0  0  0  0  0  0  0  0  0
    8.5000  -23.2461   23.3593 C   0  0  0  0  0  0  0  0  0  0  0  0
    9.2593  -24.0562   22.7110 N   0  0  0  0  0  0  0  0  0  0  0  0
    8.2360  -21.9327   22.8661 N   0  0  0  0  0  0  0  0  0  0  0  0
    7.4394  -21.0422   23.6798 C   0  0  0  0  0  0  0  0  0  0  0  0
    7.2562  -19.7064   23.0258 C   0  0  0  0  0  0  0  0  0  0  0  0
    8.1955  -18.7159   23.7015 C   0  0  0  0  0  0  0  0  0  0  0  0
    8.0832  -17.3397   23.0316 C   0  0  2  0  0  0  0  0  0  0  0  0
    8.7756  -17.3082   21.7856 N   0  0  0  0  0  0  0  0  0  0  0  0
    8.6484  -16.3910   24.0364 C   0  0  0  0  0  0  0  0  0  0  0  0
    9.9077  -16.2513   24.1276 O   0  0  0  0  0  0  0  0  0  0  0  0
    9.6454  -23.7593   21.7919 C   0  0  0  0  0  0  0  0  0  0  0  0
    7.9694  -11.7868   24.7140 C   0  0  2  0  0  0  0  0  0  0  0  0
    7.0032  -12.6623   25.4116 C   0  0  0  0  0  0  0  0  0  0  0  0
    5.9072  -11.8343   26.1220 C   0  0  0  0  0  0  0  0  0  0  0  0
    7.4986  -13.7148   26.3217 C   0  0  2  0  0  0  0  0  0  0  0  0
    8.5128  -14.6793   25.8419 N   0  0  0  0  0  0  0  0  0  0  0  0
    7.8419  -15.6272   24.9031 C   0  0  0  0  0  0  0  0  0  0  0  0
    9.2663  -15.4643   26.8245 O   0  0  0  0  0  0  0  0  0  0  0  0
   10.5090  -15.1669   27.3219 O   0  0  0  0  0  0  0  0  0  0  0  0
  2  1  1  6
  2  3  1  0
  2  9  1  0
  3  4  1  0
  4  8  1  0
  4  5  2  0
  5  6  1  0
  7  6  1  0
  8  7  2  0
  9 10  2  0
 12 11  1  0
 12 14  1  0
 13 12  2  0
 15 14  1  0
 15 16  1  0
 17 16  1  0
 18 17  1  1
 18 20  1  0
 19 18  1  0
 19  9  1  0
 20 21  2  0
 23 22  1  6
 23 25  1  0
 24 23  1  0
 26 25  1  6
 26 28  1  0
 27 26  1  0
 27 20  1  0
 28 30  2  0
 28 29  1  0
M  END
$$$$
