HRL.pdb
     RDKit          3D

 30 30  0  0  1  0  0  0  0  0999 V2000
    5.0976  -19.5208   22.2054 N   0  0  0  0  0  0  0  0  0  0  0  0
    5.8302  -19.8489   23.3991 C   0  0  1  0  0  0  0  0  0  0  0  0
    6.3316  -21.3050   23.2782 C   0  0  0  0  0  0  0  0  0  0  0  0
    5.1545  -22.2181   23.1552 C   0  0  0  0  0  0  0  0  0  0  0  0
    3.8325  -21.8496   23.2476 C   0  0  0  0  0  0  0  0  0  0  0  0
    3.0672  -22.9414   23.0947 N   0  0  0  0  0  0  0  0  0  0  0  0
    3.8703  -23.9932   22.9079 C   0  0  0  0  0  0  0  0  0  0  0  0
    5.1536  -23.5347   22.9473 N   0  0  0  0  0  0  0  0  0  0  0  0
    7.0410  -18.9779   23.4697 C   0  0  0  0  0  0  0  0  0  0  0  0
    7.9685  -19.1441   24.3012 O   0  0  0  0  0  0  0  0  0  0  0  0
    8.0077  -12.6312   18.7620 N   0  0  0  0  0  0  0  0  0  0  0  0
    8.2250  -13.8868   18.1732 C   0  0  0  0  0  0  0  0  0  0  0  0
    8.7205  -13.9655   16.9893 N   0  0  0  0  0  0  0  0  0  0  0  0
    7.8881  -15.0632   18.9083 N   0  0  0  0  0  0  0  0  0  0  0  0
    6.8526  -14.9708   19.9127 C   0  0  0  0  0  0  0  0  0  0  0  0
    7.4214  -14.9718   21.2991 C   0  0  0  0  0  0  0  0  0  0  0  0
    8.4357  -16.1041   21.3936 C   0  0  0  0  0  0  0  0  0  0  0  0
    8.2320  -16.8889   22.6967 C   0  0  2  0  0  0  0  0  0  0  0  0
    7.2089  -17.8723   22.5585 N   0  0  0  0  0  0  0  0  0  0  0  0
    7.9027  -15.8442   23.7111 C   0  0  0  0  0  0  0  0  0  0  0  0
    7.0588  -14.9383   23.4269 O   0  0  0  0  0  0  0  0  0  0  0  0
    8.7147  -14.8834   16.5002 C   0  0  0  0  0  0  0  0  0  0  0  0
    8.1483  -12.2574   27.5350 C   0  0  2  0  0  0  0  0  0  0  0  0
    7.1334  -12.6181   26.5218 C   0  0  0  0  0  0  0  0  0  0  0  0
    5.7115  -12.6255   27.1298 C   0  0  0  0  0  0  0  0  0  0  0  0
    7.3263  -13.8271   25.6954 C   0  0  1  0  0  0  0  0  0  0  0  0
    8.6496  -14.4880   25.6633 N   0  0  0  0  0  0  0  0  0  0  0  0
    8.4891  -15.8121   24.9918 C   0  0  0  0  0  0  0  0  0  0  0  0
    9.3686  -14.6980   26.9237 O   0  0  0  0  0  0  0  0  0  0  0  0
    9.0463  -15.6027   27.9024 O   0  0  0  0  0  0  0  0  0  0  0  0
  2  1  1  6
  2  3  1  0
  2  9  1  0
  3  4  1  0
  4  8  1  0
  4  5  2  0
  5  6  1  0
  7  6  1  0
  8  7  2  0
  9 10  2  0
 12 11  1  0
 12 14  1  0
 13 12  2  0
 15 14  1  0
 15 16  1  0
 17 16  1  0
 18 17  1  6
 18 20  1  0
 19 18  1  0
 19  9  1  0
 20 21  2  0
 23 22  1  6
 23 25  1  0
 24 23  1  0
 26 25  1  6
 26 28  1  0
 27 26  1  0
 27 20  1  0
 28 30  2  0
 28 29  1  0
M  END
$$$$
