HRL.pdb
     RDKit          3D

 30 30  0  0  1  0  0  0  0  0999 V2000
    8.5942  -18.9908   21.4064 N   0  0  0  0  0  0  0  0  0  0  0  0
    9.8443  -18.8909   22.1109 C   0  0  1  0  0  0  0  0  0  0  0  0
   10.9341  -19.5942   21.2716 C   0  0  0  0  0  0  0  0  0  0  0  0
   10.3373  -20.7882   20.5988 C   0  0  0  0  0  0  0  0  0  0  0  0
    8.9981  -21.0012   20.3684 C   0  0  0  0  0  0  0  0  0  0  0  0
    8.8476  -22.1839   19.7521 N   0  0  0  0  0  0  0  0  0  0  0  0
   10.0575  -22.7267   19.5859 C   0  0  0  0  0  0  0  0  0  0  0  0
   10.9669  -21.8574   20.1116 N   0  0  0  0  0  0  0  0  0  0  0  0
   10.2276  -17.4505   22.1994 C   0  0  0  0  0  0  0  0  0  0  0  0
   11.3455  -17.0536   22.6143 O   0  0  0  0  0  0  0  0  0  0  0  0
    9.2222  -15.3057   16.8089 N   0  0  0  0  0  0  0  0  0  0  0  0
    8.2455  -14.3005   16.7305 C   0  0  0  0  0  0  0  0  0  0  0  0
    8.3451  -13.3739   15.8447 N   0  0  0  0  0  0  0  0  0  0  0  0
    7.1499  -14.3277   17.6452 N   0  0  0  0  0  0  0  0  0  0  0  0
    7.3775  -13.8802   19.0008 C   0  0  0  0  0  0  0  0  0  0  0  0
    8.4221  -14.7044   19.6901 C   0  0  0  0  0  0  0  0  0  0  0  0
    8.5724  -14.1839   21.1136 C   0  0  0  0  0  0  0  0  0  0  0  0
    9.6053  -15.0238   21.8772 C   0  0  2  0  0  0  0  0  0  0  0  0
    9.3057  -16.4156   21.7997 N   0  0  0  0  0  0  0  0  0  0  0  0
    9.5557  -14.4940   23.2722 C   0  0  0  0  0  0  0  0  0  0  0  0
    9.8553  -13.2793   23.4924 O   0  0  0  0  0  0  0  0  0  0  0  0
    7.6637  -12.5881   15.8580 C   0  0  0  0  0  0  0  0  0  0  0  0
    6.2113  -12.9082   26.9821 C   0  0  1  0  0  0  0  0  0  0  0  0
    7.6732  -13.1296   27.0084 C   0  0  0  0  0  0  0  0  0  0  0  0
    8.4063  -11.9550   27.6972 C   0  0  0  0  0  0  0  0  0  0  0  0
    8.3778  -13.4923   25.7620 C   0  0  2  0  0  0  0  0  0  0  0  0
    9.2604  -14.6795   25.7393 N   0  0  0  0  0  0  0  0  0  0  0  0
    9.1849  -15.2860   24.3768 C   0  0  0  0  0  0  0  0  0  0  0  0
    9.0457  -15.7423   26.7262 O   0  0  0  0  0  0  0  0  0  0  0  0
    9.4276  -15.7180   28.0429 O   0  0  0  0  0  0  0  0  0  0  0  0
  2  1  1  6
  2  3  1  0
  2  9  1  0
  3  4  1  0
  4  8  1  0
  4  5  2  0
  5  6  1  0
  7  6  1  0
  8  7  2  0
  9 10  2  0
 12 11  1  0
 12 14  1  0
 13 12  2  0
 15 14  1  0
 15 16  1  0
 17 16  1  0
 18 17  1  6
 18 20  1  0
 19 18  1  0
 19  9  1  0
 20 21  2  0
 23 22  1  1
 23 25  1  0
 24 23  1  0
 26 25  1  6
 26 28  1  0
 27 26  1  0
 27 20  1  0
 28 30  2  0
 28 29  1  0
M  END
$$$$
