HRL.pdb
     RDKit          3D

 30 30  0  0  1  0  0  0  0  0999 V2000
    7.6699  -17.0081   18.4629 N   0  0  0  0  0  0  0  0  0  0  0  0
    8.0256  -15.9204   19.3344 C   0  0  1  0  0  0  0  0  0  0  0  0
    7.2944  -14.6487   18.8499 C   0  0  0  0  0  0  0  0  0  0  0  0
    7.8708  -14.2244   17.5377 C   0  0  0  0  0  0  0  0  0  0  0  0
    8.8032  -13.2311   17.3475 C   0  0  0  0  0  0  0  0  0  0  0  0
    9.0695  -13.1329   16.0358 N   0  0  0  0  0  0  0  0  0  0  0  0
    8.3295  -14.0385   15.3890 C   0  0  0  0  0  0  0  0  0  0  0  0
    7.5954  -14.7045   16.3251 N   0  0  0  0  0  0  0  0  0  0  0  0
    7.5125  -16.2201   20.7043 C   0  0  0  0  0  0  0  0  0  0  0  0
    6.3630  -15.9021   21.1004 O   0  0  0  0  0  0  0  0  0  0  0  0
    9.6885  -21.4699   28.0230 N   0  0  0  0  0  0  0  0  0  0  0  0
    8.4831  -20.8104   27.7358 C   0  0  0  0  0  0  0  0  0  0  0  0
    7.7889  -20.2948   28.6873 N   0  0  0  0  0  0  0  0  0  0  0  0
    8.0478  -20.7247   26.3789 N   0  0  0  0  0  0  0  0  0  0  0  0
    8.8565  -19.9731   25.4458 C   0  0  0  0  0  0  0  0  0  0  0  0
    8.1491  -18.7437   24.9622 C   0  0  0  0  0  0  0  0  0  0  0  0
    8.5811  -18.4836   23.5249 C   0  0  0  0  0  0  0  0  0  0  0  0
    7.9114  -17.2088   22.9941 C   0  0  2  0  0  0  0  0  0  0  0  0
    8.3362  -16.9108   21.6661 N   0  0  0  0  0  0  0  0  0  0  0  0
    8.2919  -16.1527   23.9784 C   0  0  0  0  0  0  0  0  0  0  0  0
    9.4765  -15.6939   23.9791 O   0  0  0  0  0  0  0  0  0  0  0  0
    6.9170  -19.7783   28.4528 C   0  0  0  0  0  0  0  0  0  0  0  0
    7.3649  -12.5982   28.2655 C   0  0  1  0  0  0  0  0  0  0  0  0
    6.8723  -12.4125   26.8836 C   0  0  0  0  0  0  0  0  0  0  0  0
    5.5805  -11.5626   26.8580 C   0  0  0  0  0  0  0  0  0  0  0  0
    6.7111  -13.5875   26.0033 C   0  0  2  0  0  0  0  0  0  0  0  0
    7.8493  -14.5105   25.7993 N   0  0  0  0  0  0  0  0  0  0  0  0
    7.3874  -15.6275   24.9224 C   0  0  0  0  0  0  0  0  0  0  0  0
    8.5102  -15.0920   26.9717 O   0  0  0  0  0  0  0  0  0  0  0  0
    9.6134  -14.5918   27.6143 O   0  0  0  0  0  0  0  0  0  0  0  0
  2  1  1  6
  2  3  1  0
  2  9  1  0
  3  4  1  0
  4  8  1  0
  4  5  2  0
  5  6  1  0
  7  6  1  0
  8  7  2  0
  9 10  2  0
 12 11  1  0
 12 14  1  0
 13 12  2  0
 15 14  1  0
 15 16  1  0
 17 16  1  0
 18 17  1  1
 18 20  1  0
 19 18  1  0
 19  9  1  0
 20 21  2  0
 23 22  1  6
 23 25  1  0
 24 23  1  0
 26 25  1  6
 26 28  1  0
 27 26  1  0
 27 20  1  0
 28 30  2  0
 28 29  1  0
M  END
$$$$
