PLH.pdb
     RDKit          3D

 26 27  0  0  1  0  0  0  0  0999 V2000
    7.3929  -15.1837   20.9541 N   0  0  0  0  0  0  0  0  0  0  0  0
    7.1368  -14.9265   19.5300 C   0  0  0  0  0  0  0  0  0  0  0  0
    7.5128  -13.4969   19.2883 C   0  0  0  0  0  0  0  0  0  0  0  0
    8.0442  -13.0161   20.6319 C   0  0  0  0  0  0  0  0  0  0  0  0
    8.5234  -14.3476   21.2039 C   0  0  1  0  0  0  0  0  0  0  0  0
    8.8943  -14.2386   22.6190 C   0  0  0  0  0  0  0  0  0  0  0  0
   10.0377  -13.8115   22.9138 O   0  0  0  0  0  0  0  0  0  0  0  0
    5.3197  -12.3007   26.1847 C   0  0  0  0  0  0  0  0  0  0  0  0
    6.6419  -12.6177   25.5955 C   0  0  1  0  0  0  0  0  0  0  0  0
    7.6256  -11.4556   25.8581 C   0  0  0  0  0  0  0  0  0  0  0  0
    7.2713  -13.9166   25.8518 C   0  0  0  0  0  0  0  0  0  0  0  0
    8.4250  -14.4204   25.0985 C   0  0  2  0  0  0  0  0  0  0  0  0
    8.0220  -14.5930   23.6648 N   0  0  0  0  0  0  0  0  0  0  0  0
    8.9718  -15.6972   25.5837 C   0  0  0  0  0  0  0  0  0  0  0  0
    9.2269  -15.9698   26.7841 O   0  0  0  0  0  0  0  0  0  0  0  0
    9.2542  -16.7550   24.6290 N   0  0  0  0  0  0  0  0  0  0  0  0
    9.7323  -18.0538   25.1028 C   0  0  1  0  0  0  0  0  0  0  0  0
    9.2608  -19.1657   24.2112 C   0  0  0  0  0  0  0  0  0  0  0  0
    7.7945  -19.1305   24.0489 C   0  0  0  0  0  0  0  0  0  0  0  0
    6.8354  -18.8481   25.0131 C   0  0  0  0  0  0  0  0  0  0  0  0
    5.6519  -18.9317   24.4203 N   0  0  0  0  0  0  0  0  0  0  0  0
    5.7955  -19.2502   23.1359 C   0  0  0  0  0  0  0  0  0  0  0  0
    7.1059  -19.3681   22.9239 N   0  0  0  0  0  0  0  0  0  0  0  0
   11.2121  -17.9625   25.1634 C   0  0  0  0  0  0  0  0  0  0  0  0
   11.9228  -16.8567   24.6822 O   0  0  0  0  0  0  0  0  0  0  0  0
   11.9323  -18.8855   25.6572 O   0  0  0  0  0  0  0  0  0  0  0  0
  1  2  1  0
  3  2  1  0
  4  5  1  0
  4  3  1  0
  5  6  1  1
  5  1  1  0
  6  7  2  0
  9  8  1  1
 10  9  1  0
 11  9  1  0
 12 11  1  1
 13  6  1  0
 13 12  1  0
 14 12  1  0
 14 15  2  0
 16 14  1  0
 17 16  1  0
 17 24  1  0
 17 18  1  6
 19 18  1  0
 20 19  2  0
 21 22  1  0
 21 20  1  0
 22 23  2  0
 23 19  1  0
 24 25  1  0
 26 24  2  0
M  END
$$$$
