PLH.pdb
     RDKit          3D

 26 27  0  0  1  0  0  0  0  0999 V2000
    7.0770  -14.5958   20.8162 N   0  0  0  0  0  0  0  0  0  0  0  0
    6.8895  -14.1626   19.4244 C   0  0  0  0  0  0  0  0  0  0  0  0
    7.6225  -12.8636   19.2876 C   0  0  0  0  0  0  0  0  0  0  0  0
    8.2671  -12.6508   20.6506 C   0  0  0  0  0  0  0  0  0  0  0  0
    8.3870  -14.1041   21.1017 C   0  0  1  0  0  0  0  0  0  0  0  0
    8.7805  -14.2137   22.5107 C   0  0  0  0  0  0  0  0  0  0  0  0
    9.9940  -14.0963   22.8111 O   0  0  0  0  0  0  0  0  0  0  0  0
    5.3917  -12.3213   26.5585 C   0  0  0  0  0  0  0  0  0  0  0  0
    6.6668  -12.6353   25.8718 C   0  0  1  0  0  0  0  0  0  0  0  0
    7.7753  -11.6758   26.3590 C   0  0  0  0  0  0  0  0  0  0  0  0
    7.1492  -14.0181   25.8082 C   0  0  0  0  0  0  0  0  0  0  0  0
    8.2839  -14.4429   24.9809 C   0  0  2  0  0  0  0  0  0  0  0  0
    7.8544  -14.4456   23.5446 N   0  0  0  0  0  0  0  0  0  0  0  0
    8.8240  -15.7723   25.3062 C   0  0  0  0  0  0  0  0  0  0  0  0
    9.0941  -16.1845   26.4626 O   0  0  0  0  0  0  0  0  0  0  0  0
    9.0807  -16.7148   24.2310 N   0  0  0  0  0  0  0  0  0  0  0  0
    9.6295  -18.0357   24.5373 C   0  0  1  0  0  0  0  0  0  0  0  0
    9.5981  -18.9309   23.3326 C   0  0  0  0  0  0  0  0  0  0  0  0
   10.2721  -20.2145   23.6073 C   0  0  0  0  0  0  0  0  0  0  0  0
   11.1186  -20.5253   24.6638 C   0  0  0  0  0  0  0  0  0  0  0  0
   11.4877  -21.7895   24.5071 N   0  0  0  0  0  0  0  0  0  0  0  0
   10.9290  -22.3063   23.4152 C   0  0  0  0  0  0  0  0  0  0  0  0
   10.1913  -21.3355   22.8772 N   0  0  0  0  0  0  0  0  0  0  0  0
   11.0061  -17.8137   25.0447 C   0  0  0  0  0  0  0  0  0  0  0  0
   11.8621  -16.8428   24.5117 O   0  0  0  0  0  0  0  0  0  0  0  0
   11.4988  -18.4930   25.9986 O   0  0  0  0  0  0  0  0  0  0  0  0
  1  2  1  0
  3  2  1  0
  4  5  1  0
  4  3  1  0
  5  6  1  1
  5  1  1  0
  6  7  2  0
  9  8  1  1
 10  9  1  0
 11  9  1  0
 12 11  1  1
 13  6  1  0
 13 12  1  0
 14 12  1  0
 14 15  2  0
 16 14  1  0
 17 16  1  0
 17 24  1  0
 17 18  1  6
 19 18  1  0
 20 19  2  0
 21 22  1  0
 21 20  1  0
 22 23  2  0
 23 19  1  0
 24 25  1  0
 26 24  2  0
M  END
$$$$
