PLH.pdb
     RDKit          3D

 26 27  0  0  1  0  0  0  0  0999 V2000
    7.1366  -15.9298   21.7099 N   0  0  0  0  0  0  0  0  0  0  0  0
    7.0018  -15.9127   20.2465 C   0  0  0  0  0  0  0  0  0  0  0  0
    7.6952  -14.6710   19.7765 C   0  0  0  0  0  0  0  0  0  0  0  0
    8.2654  -14.0554   21.0472 C   0  0  0  0  0  0  0  0  0  0  0  0
    8.4135  -15.3171   21.8933 C   0  0  1  0  0  0  0  0  0  0  0  0
    8.7418  -15.0095   23.2896 C   0  0  0  0  0  0  0  0  0  0  0  0
    9.9363  -14.7669   23.5912 O   0  0  0  0  0  0  0  0  0  0  0  0
    5.4562  -11.7747   26.1720 C   0  0  0  0  0  0  0  0  0  0  0  0
    6.6987  -12.4449   25.7216 C   0  0  1  0  0  0  0  0  0  0  0  0
    7.8828  -11.4548   25.7886 C   0  0  0  0  0  0  0  0  0  0  0  0
    7.0685  -13.7552   26.2648 C   0  0  0  0  0  0  0  0  0  0  0  0
    8.1418  -14.5881   25.7111 C   0  0  2  0  0  0  0  0  0  0  0  0
    7.7734  -14.9742   24.3101 N   0  0  0  0  0  0  0  0  0  0  0  0
    8.4278  -15.8153   26.4706 C   0  0  0  0  0  0  0  0  0  0  0  0
    8.7999  -15.8578   27.6706 O   0  0  0  0  0  0  0  0  0  0  0  0
    8.2807  -17.1037   25.8160 N   0  0  0  0  0  0  0  0  0  0  0  0
    8.5065  -18.3345   26.5736 C   0  0  1  0  0  0  0  0  0  0  0  0
    7.8953  -19.5189   25.8827 C   0  0  0  0  0  0  0  0  0  0  0  0
    8.1700  -20.7654   26.6231 C   0  0  0  0  0  0  0  0  0  0  0  0
    8.7786  -20.9049   27.8638 C   0  0  0  0  0  0  0  0  0  0  0  0
    8.8153  -22.2027   28.1350 N   0  0  0  0  0  0  0  0  0  0  0  0
    8.2674  -22.9017   27.1436 C   0  0  0  0  0  0  0  0  0  0  0  0
    7.8787  -22.0130   26.2296 N   0  0  0  0  0  0  0  0  0  0  0  0
    9.9755  -18.4669   26.7359 C   0  0  0  0  0  0  0  0  0  0  0  0
   10.5594  -19.1968   27.7780 O   0  0  0  0  0  0  0  0  0  0  0  0
   10.8012  -17.9241   25.9373 O   0  0  0  0  0  0  0  0  0  0  0  0
  1  2  1  0
  3  2  1  0
  4  5  1  0
  4  3  1  0
  5  6  1  1
  5  1  1  0
  6  7  2  0
  9  8  1  1
 10  9  1  0
 11  9  1  0
 12 11  1  1
 13  6  1  0
 13 12  1  0
 14 12  1  0
 14 15  2  0
 16 14  1  0
 17 16  1  0
 17 24  1  0
 17 18  1  6
 19 18  1  0
 20 19  2  0
 21 22  1  0
 21 20  1  0
 22 23  2  0
 23 19  1  0
 24 25  1  0
 26 24  2  0
M  END
$$$$
