PLH.pdb
     RDKit          3D

 26 27  0  0  1  0  0  0  0  0999 V2000
    7.2756  -16.6756   21.0160 N   0  0  0  0  0  0  0  0  0  0  0  0
    6.7986  -16.8891   19.6424 C   0  0  0  0  0  0  0  0  0  0  0  0
    6.6497  -15.5284   19.0345 C   0  0  0  0  0  0  0  0  0  0  0  0
    7.1309  -14.5767   20.1215 C   0  0  0  0  0  0  0  0  0  0  0  0
    8.0836  -15.5075   20.8670 C   0  0  1  0  0  0  0  0  0  0  0  0
    8.5455  -14.9260   22.1321 C   0  0  0  0  0  0  0  0  0  0  0  0
    9.6215  -14.2789   22.1436 O   0  0  0  0  0  0  0  0  0  0  0  0
    7.7505  -11.7448   26.5269 C   0  0  0  0  0  0  0  0  0  0  0  0
    7.1300  -13.0905   26.5305 C   0  0  1  0  0  0  0  0  0  0  0  0
    5.7478  -13.0291   27.2180 C   0  0  0  0  0  0  0  0  0  0  0  0
    7.0770  -13.8815   25.2974 C   0  0  0  0  0  0  0  0  0  0  0  0
    8.2701  -14.3415   24.5782 C   0  0  2  0  0  0  0  0  0  0  0  0
    7.8333  -15.0619   23.3382 N   0  0  0  0  0  0  0  0  0  0  0  0
    9.1511  -15.2343   25.3474 C   0  0  0  0  0  0  0  0  0  0  0  0
    9.6456  -14.9746   26.4736 O   0  0  0  0  0  0  0  0  0  0  0  0
    9.5025  -16.5308   24.7946 N   0  0  0  0  0  0  0  0  0  0  0  0
   10.3618  -17.4374   25.5559 C   0  0  1  0  0  0  0  0  0  0  0  0
    9.8355  -18.8429   25.5222 C   0  0  0  0  0  0  0  0  0  0  0  0
    8.6307  -18.9790   26.3633 C   0  0  0  0  0  0  0  0  0  0  0  0
    8.5188  -18.7781   27.7331 C   0  0  0  0  0  0  0  0  0  0  0  0
    7.2546  -19.0130   28.0583 N   0  0  0  0  0  0  0  0  0  0  0  0
    6.5512  -19.3518   26.9803 C   0  0  0  0  0  0  0  0  0  0  0  0
    7.4025  -19.3268   25.9551 N   0  0  0  0  0  0  0  0  0  0  0  0
   11.7198  -17.3247   24.9684 C   0  0  0  0  0  0  0  0  0  0  0  0
   12.8826  -17.6307   25.6852 O   0  0  0  0  0  0  0  0  0  0  0  0
   11.9157  -16.9415   23.7730 O   0  0  0  0  0  0  0  0  0  0  0  0
  1  2  1  0
  3  2  1  0
  4  5  1  0
  4  3  1  0
  5  6  1  1
  5  1  1  0
  6  7  2  0
  9  8  1  6
 10  9  1  0
 11  9  1  0
 12 11  1  1
 13  6  1  0
 13 12  1  0
 14 12  1  0
 14 15  2  0
 16 14  1  0
 17 16  1  0
 17 24  1  0
 17 18  1  6
 19 18  1  0
 20 19  2  0
 21 22  1  0
 21 20  1  0
 22 23  2  0
 23 19  1  0
 24 25  1  0
 26 24  2  0
M  END
$$$$
