DNS.pdb
     RDKit          3D

 23 22  0  0  1  0  0  0  0  0999 V2000
    8.9753  -17.9435   17.3339 N   0  0  0  0  0  0  0  0  0  0  0  0
   10.3655  -17.5720   17.4710 C   0  0  1  0  0  0  0  0  0  0  0  0
   10.8661  -16.8758   16.2019 C   0  0  0  0  0  0  0  0  0  0  0  0
   11.0816  -17.8958   15.1495 C   0  0  0  0  0  0  0  0  0  0  0  0
   10.4813  -19.0087   15.1672 O   0  0  0  0  0  0  0  0  0  0  0  0
   10.4900  -16.5696   18.5636 C   0  0  0  0  0  0  0  0  0  0  0  0
   11.6303  -16.1709   18.8780 O   0  0  0  0  0  0  0  0  0  0  0  0
   11.9489  -17.6697   14.1056 O   0  0  0  0  0  0  0  0  0  0  0  0
    8.0396  -12.2231   19.6716 N   0  0  0  0  0  0  0  0  0  0  0  0
    7.8578  -13.6092   19.4311 C   0  0  0  0  0  0  0  0  0  0  0  0
    7.5642  -14.0122   18.2621 O   0  0  0  0  0  0  0  0  0  0  0  0
    8.0009  -14.5960   20.5036 C   0  0  0  0  0  0  0  0  0  0  0  0
    9.3341  -15.3423   20.3713 C   0  0  2  0  0  0  0  0  0  0  0  0
    9.3007  -16.1321   19.1775 N   0  0  0  0  0  0  0  0  0  0  0  0
    9.6248  -16.1158   21.5916 C   0  0  0  0  0  0  0  0  0  0  0  0
    8.9425  -17.1548   21.7956 O   0  0  0  0  0  0  0  0  0  0  0  0
   13.1751  -16.4019   23.2749 O   0  0  0  0  0  0  0  0  0  0  0  0
   12.2245  -16.4807   24.2617 C   0  0  0  0  0  0  0  0  0  0  0  0
   10.8408  -16.6272   23.6729 C   0  0  2  0  0  0  0  0  0  0  0  0
   10.6047  -15.7860   22.5482 N   0  0  0  0  0  0  0  0  0  0  0  0
    9.8709  -16.4255   24.7810 C   0  0  0  0  0  0  0  0  0  0  0  0
    9.9846  -17.2422   25.8858 O   0  0  0  0  0  0  0  0  0  0  0  0
    8.9676  -15.5568   24.7532 O   0  0  0  0  0  0  0  0  0  0  0  0
  2  1  1  6
  2  3  1  0
  3  4  1  0
  4  8  1  0
  5  4  2  0
  6  2  1  0
  7  6  2  0
 10  9  1  0
 11 10  2  0
 12 10  1  0
 13 12  1  1
 13 14  1  0
 13 15  1  0
 14  6  1  0
 15 20  1  0
 16 15  2  0
 18 17  1  0
 19 18  1  1
 19 21  1  0
 20 19  1  0
 21 23  2  0
 21 22  1  0
M  END
$$$$
