DNS.pdb
     RDKit          3D

 23 22  0  0  1  0  0  0  0  0999 V2000
    9.4662  -18.8772   18.4682 N   0  0  0  0  0  0  0  0  0  0  0  0
    8.8321  -17.6033   18.2139 C   0  0  1  0  0  0  0  0  0  0  0  0
    7.7946  -17.7305   17.0943 C   0  0  0  0  0  0  0  0  0  0  0  0
    8.5013  -17.9071   15.8045 C   0  0  0  0  0  0  0  0  0  0  0  0
    9.6575  -18.4157   15.7423 O   0  0  0  0  0  0  0  0  0  0  0  0
    8.0758  -17.1918   19.4275 C   0  0  0  0  0  0  0  0  0  0  0  0
    7.5806  -16.0464   19.4599 O   0  0  0  0  0  0  0  0  0  0  0  0
    7.9229  -17.5220   14.6171 O   0  0  0  0  0  0  0  0  0  0  0  0
    4.6583  -18.0128   23.5363 N   0  0  0  0  0  0  0  0  0  0  0  0
    5.7941  -18.8475   23.3770 C   0  0  0  0  0  0  0  0  0  0  0  0
    6.2913  -19.4342   24.3889 O   0  0  0  0  0  0  0  0  0  0  0  0
    6.4138  -19.0526   22.0661 C   0  0  0  0  0  0  0  0  0  0  0  0
    7.2421  -17.8253   21.6667 C   0  0  2  0  0  0  0  0  0  0  0  0
    7.9672  -18.1314   20.4706 N   0  0  0  0  0  0  0  0  0  0  0  0
    8.0936  -17.3816   22.7847 C   0  0  0  0  0  0  0  0  0  0  0  0
    9.2097  -17.9487   22.9238 O   0  0  0  0  0  0  0  0  0  0  0  0
    7.0669  -14.5307   25.6973 O   0  0  0  0  0  0  0  0  0  0  0  0
    8.3753  -14.5923   25.2877 C   0  0  0  0  0  0  0  0  0  0  0  0
    8.6957  -15.9438   24.6932 C   0  0  2  0  0  0  0  0  0  0  0  0
    7.7591  -16.3739   23.7103 N   0  0  0  0  0  0  0  0  0  0  0  0
    8.8485  -16.8941   25.8257 C   0  0  0  0  0  0  0  0  0  0  0  0
    9.8924  -16.6822   26.7009 O   0  0  0  0  0  0  0  0  0  0  0  0
    8.0794  -17.8657   26.0153 O   0  0  0  0  0  0  0  0  0  0  0  0
  2  1  1  1
  2  3  1  0
  3  4  1  0
  4  8  1  0
  5  4  2  0
  6  2  1  0
  7  6  2  0
 10  9  1  0
 11 10  2  0
 12 10  1  0
 13 12  1  1
 13 14  1  0
 13 15  1  0
 14  6  1  0
 15 20  1  0
 16 15  2  0
 18 17  1  0
 19 18  1  1
 19 21  1  0
 20 19  1  0
 21 23  2  0
 21 22  1  0
M  END
$$$$
