DNS.pdb
     RDKit          3D

 23 22  0  0  1  0  0  0  0  0999 V2000
    9.8535  -15.9306   13.1218 N   0  0  0  0  0  0  0  0  0  0  0  0
    9.0298  -16.2763   14.2582 C   0  0  1  0  0  0  0  0  0  0  0  0
    9.0914  -17.7821   14.5317 C   0  0  0  0  0  0  0  0  0  0  0  0
    8.4543  -18.5000   13.4034 C   0  0  0  0  0  0  0  0  0  0  0  0
    7.9855  -17.8858   12.4023 O   0  0  0  0  0  0  0  0  0  0  0  0
    9.5836  -15.6172   15.4719 C   0  0  0  0  0  0  0  0  0  0  0  0
   10.8051  -15.3620   15.5052 O   0  0  0  0  0  0  0  0  0  0  0  0
    8.3476  -19.8717   13.4016 O   0  0  0  0  0  0  0  0  0  0  0  0
    8.2805  -11.9784   19.7166 N   0  0  0  0  0  0  0  0  0  0  0  0
    8.2068  -13.3926   19.6347 C   0  0  0  0  0  0  0  0  0  0  0  0
    8.4667  -14.0971   20.6601 O   0  0  0  0  0  0  0  0  0  0  0  0
    7.8361  -14.0676   18.3891 C   0  0  0  0  0  0  0  0  0  0  0  0
    9.0895  -14.5307   17.6366 C   0  0  2  0  0  0  0  0  0  0  0  0
    8.6840  -15.3216   16.5140 N   0  0  0  0  0  0  0  0  0  0  0  0
   10.0225  -15.2189   18.5465 C   0  0  0  0  0  0  0  0  0  0  0  0
    9.7594  -16.4122   18.8526 O   0  0  0  0  0  0  0  0  0  0  0  0
   13.8989  -13.9164   19.5775 O   0  0  0  0  0  0  0  0  0  0  0  0
   13.5406  -15.2379   19.4837 C   0  0  0  0  0  0  0  0  0  0  0  0
   12.0923  -15.4367   19.8657 C   0  0  2  0  0  0  0  0  0  0  0  0
   11.1849  -14.6489   19.1014 N   0  0  0  0  0  0  0  0  0  0  0  0
   11.9916  -15.2074   21.3308 C   0  0  0  0  0  0  0  0  0  0  0  0
   12.8639  -15.8959   22.1465 O   0  0  0  0  0  0  0  0  0  0  0  0
   11.1589  -14.4258   21.8477 O   0  0  0  0  0  0  0  0  0  0  0  0
  2  1  1  6
  2  3  1  0
  3  4  1  0
  4  8  1  0
  5  4  2  0
  6  2  1  0
  7  6  2  0
 10  9  1  0
 11 10  2  0
 12 10  1  0
 13 12  1  1
 13 14  1  0
 13 15  1  0
 14  6  1  0
 15 20  1  0
 16 15  2  0
 18 17  1  0
 19 18  1  6
 19 21  1  0
 20 19  1  0
 21 23  2  0
 21 22  1  0
M  END
$$$$
