DNS.pdb
     RDKit          3D

 23 22  0  0  1  0  0  0  0  0999 V2000
    9.5668  -12.9305   18.4071 N   0  0  0  0  0  0  0  0  0  0  0  0
    8.2858  -13.1346   19.0451 C   0  0  1  0  0  0  0  0  0  0  0  0
    7.1796  -13.2911   17.9974 C   0  0  0  0  0  0  0  0  0  0  0  0
    7.7546  -13.9159   16.7837 C   0  0  0  0  0  0  0  0  0  0  0  0
    8.1719  -13.2232   15.8114 O   0  0  0  0  0  0  0  0  0  0  0  0
    8.3219  -14.4183   19.7966 C   0  0  0  0  0  0  0  0  0  0  0  0
    7.2945  -14.7796   20.4067 O   0  0  0  0  0  0  0  0  0  0  0  0
    7.8573  -15.2830   16.6670 O   0  0  0  0  0  0  0  0  0  0  0  0
   10.0094  -17.7029   17.1968 N   0  0  0  0  0  0  0  0  0  0  0  0
    9.5778  -17.8261   18.5424 C   0  0  0  0  0  0  0  0  0  0  0  0
    8.4385  -18.3296   18.7946 O   0  0  0  0  0  0  0  0  0  0  0  0
   10.4178  -17.3846   19.6577 C   0  0  0  0  0  0  0  0  0  0  0  0
    9.6698  -16.3602   20.5196 C   0  0  2  0  0  0  0  0  0  0  0  0
    9.5254  -15.1489   19.7700 N   0  0  0  0  0  0  0  0  0  0  0  0
   10.3391  -16.1817   21.8205 C   0  0  0  0  0  0  0  0  0  0  0  0
   11.2425  -15.3068   21.8923 O   0  0  0  0  0  0  0  0  0  0  0  0
   10.6107  -16.2094   26.5275 O   0  0  0  0  0  0  0  0  0  0  0  0
    9.8695  -16.4266   25.3930 C   0  0  0  0  0  0  0  0  0  0  0  0
   10.7625  -16.6689   24.1986 C   0  0  2  0  0  0  0  0  0  0  0  0
   10.0494  -16.9115   22.9899 N   0  0  0  0  0  0  0  0  0  0  0  0
   11.6982  -17.7632   24.5675 C   0  0  0  0  0  0  0  0  0  0  0  0
   12.5945  -17.5208   25.5866 O   0  0  0  0  0  0  0  0  0  0  0  0
   11.7062  -18.8805   23.9992 O   0  0  0  0  0  0  0  0  0  0  0  0
  2  1  1  6
  2  3  1  0
  3  4  1  0
  4  8  1  0
  5  4  2  0
  6  2  1  0
  7  6  2  0
 10  9  1  0
 11 10  2  0
 12 10  1  0
 13 12  1  6
 13 14  1  0
 13 15  1  0
 14  6  1  0
 15 20  1  0
 16 15  2  0
 18 17  1  0
 19 18  1  1
 19 21  1  0
 20 19  1  0
 21 23  2  0
 21 22  1  0
M  END
$$$$
