DNS.pdb
     RDKit          3D

 23 22  0  0  1  0  0  0  0  0999 V2000
   11.7639  -16.6847   16.7017 N   0  0  0  0  0  0  0  0  0  0  0  0
   12.8285  -15.8332   17.1825 C   0  0  1  0  0  0  0  0  0  0  0  0
   13.1986  -14.7845   16.1292 C   0  0  0  0  0  0  0  0  0  0  0  0
   13.8593  -15.4627   14.9900 C   0  0  0  0  0  0  0  0  0  0  0  0
   14.2776  -14.8207   13.9839 O   0  0  0  0  0  0  0  0  0  0  0  0
   12.3391  -15.0717   18.3634 C   0  0  0  0  0  0  0  0  0  0  0  0
   13.1129  -14.2582   18.9090 O   0  0  0  0  0  0  0  0  0  0  0  0
   14.0443  -16.8260   14.9829 O   0  0  0  0  0  0  0  0  0  0  0  0
    8.5167  -12.3861   18.5309 N   0  0  0  0  0  0  0  0  0  0  0  0
    8.6120  -13.8013   18.5287 C   0  0  0  0  0  0  0  0  0  0  0  0
    8.4032  -14.4449   17.4529 O   0  0  0  0  0  0  0  0  0  0  0  0
    8.9475  -14.5464   19.7440 C   0  0  0  0  0  0  0  0  0  0  0  0
   10.4687  -14.6309   19.9184 C   0  0  2  0  0  0  0  0  0  0  0  0
   11.0214  -15.3215   18.7925 N   0  0  0  0  0  0  0  0  0  0  0  0
   10.8144  -15.2341   21.2179 C   0  0  0  0  0  0  0  0  0  0  0  0
   11.7179  -16.1117   21.2276 O   0  0  0  0  0  0  0  0  0  0  0  0
   10.2438  -15.8007   25.9889 O   0  0  0  0  0  0  0  0  0  0  0  0
    9.8671  -15.0905   24.8766 C   0  0  0  0  0  0  0  0  0  0  0  0
   10.5433  -15.6251   23.6357 C   0  0  2  0  0  0  0  0  0  0  0  0
   10.2150  -14.9076   22.4501 N   0  0  0  0  0  0  0  0  0  0  0  0
   10.2312  -17.0762   23.5589 C   0  0  0  0  0  0  0  0  0  0  0  0
    9.3348  -17.4867   22.5953 O   0  0  0  0  0  0  0  0  0  0  0  0
   10.7415  -17.9296   24.3224 O   0  0  0  0  0  0  0  0  0  0  0  0
  2  1  1  6
  2  3  1  0
  3  4  1  0
  4  8  1  0
  5  4  2  0
  6  2  1  0
  7  6  2  0
 10  9  1  0
 11 10  2  0
 12 10  1  0
 13 12  1  6
 13 14  1  0
 13 15  1  0
 14  6  1  0
 15 20  1  0
 16 15  2  0
 18 17  1  0
 19 18  1  1
 19 21  1  0
 20 19  1  0
 21 23  2  0
 21 22  1  0
M  END
$$$$
