DNS.pdb
     RDKit          3D

 23 22  0  0  1  0  0  0  0  0999 V2000
    9.1538  -18.6053   20.9609 N   0  0  0  0  0  0  0  0  0  0  0  0
   10.4752  -18.7316   21.5333 C   0  0  1  0  0  0  0  0  0  0  0  0
   11.4878  -17.8971   20.7433 C   0  0  0  0  0  0  0  0  0  0  0  0
   11.5869  -18.4399   19.3686 C   0  0  0  0  0  0  0  0  0  0  0  0
   10.6694  -18.2661   18.5158 O   0  0  0  0  0  0  0  0  0  0  0  0
   10.4602  -18.1627   22.9081 C   0  0  0  0  0  0  0  0  0  0  0  0
   11.4432  -17.4919   23.2851 O   0  0  0  0  0  0  0  0  0  0  0  0
   12.6883  -19.1586   18.9644 O   0  0  0  0  0  0  0  0  0  0  0  0
    7.0003  -19.1551   24.0344 N   0  0  0  0  0  0  0  0  0  0  0  0
    6.8363  -17.9253   24.7220 C   0  0  0  0  0  0  0  0  0  0  0  0
    5.6748  -17.4258   24.8506 O   0  0  0  0  0  0  0  0  0  0  0  0
    7.9800  -17.2104   25.2924 C   0  0  0  0  0  0  0  0  0  0  0  0
    9.2733  -18.0042   25.0706 C   0  0  2  0  0  0  0  0  0  0  0  0
    9.3262  -18.4210   23.7019 N   0  0  0  0  0  0  0  0  0  0  0  0
    9.3805  -19.1116   26.0371 C   0  0  0  0  0  0  0  0  0  0  0  0
    8.5337  -20.0401   25.9510 O   0  0  0  0  0  0  0  0  0  0  0  0
   12.7330  -20.5346   27.6052 O   0  0  0  0  0  0  0  0  0  0  0  0
   11.5666  -21.2517   27.6998 C   0  0  0  0  0  0  0  0  0  0  0  0
   10.3839  -20.3386   27.9238 C   0  0  2  0  0  0  0  0  0  0  0  0
   10.3542  -19.2146   27.0497 N   0  0  0  0  0  0  0  0  0  0  0  0
   10.3813  -19.9726   29.3644 C   0  0  0  0  0  0  0  0  0  0  0  0
   10.4058  -20.9991   30.2842 O   0  0  0  0  0  0  0  0  0  0  0  0
   10.3581  -18.7872   29.7715 O   0  0  0  0  0  0  0  0  0  0  0  0
  2  1  1  6
  2  3  1  0
  3  4  1  0
  4  8  1  0
  5  4  2  0
  6  2  1  0
  7  6  2  0
 10  9  1  0
 11 10  2  0
 12 10  1  0
 13 12  1  6
 13 14  1  0
 13 15  1  0
 14  6  1  0
 15 20  1  0
 16 15  2  0
 18 17  1  0
 19 18  1  6
 19 21  1  0
 20 19  1  0
 21 23  2  0
 21 22  1  0
M  END
$$$$
