DNS.pdb
     RDKit          3D

 23 22  0  0  1  0  0  0  0  0999 V2000
   12.2662  -16.0140   18.1002 N   0  0  0  0  0  0  0  0  0  0  0  0
   12.9571  -15.2139   19.0861 C   0  0  1  0  0  0  0  0  0  0  0  0
   13.7153  -14.0651   18.4142 C   0  0  0  0  0  0  0  0  0  0  0  0
   14.9370  -14.6068   17.7752 C   0  0  0  0  0  0  0  0  0  0  0  0
   15.7088  -13.8779   17.0880 O   0  0  0  0  0  0  0  0  0  0  0  0
   11.9514  -14.5744   19.9770 C   0  0  0  0  0  0  0  0  0  0  0  0
   12.3521  -13.7806   20.8531 O   0  0  0  0  0  0  0  0  0  0  0  0
   15.2810  -15.9325   17.9061 O   0  0  0  0  0  0  0  0  0  0  0  0
    8.0735  -12.4016   18.7660 N   0  0  0  0  0  0  0  0  0  0  0  0
    8.1579  -13.8172   18.7349 C   0  0  0  0  0  0  0  0  0  0  0  0
    8.1834  -14.4221   17.6174 O   0  0  0  0  0  0  0  0  0  0  0  0
    8.2169  -14.6064   19.9670 C   0  0  0  0  0  0  0  0  0  0  0  0
    9.5777  -14.4304   20.6519 C   0  0  2  0  0  0  0  0  0  0  0  0
   10.5995  -14.9101   19.7710 N   0  0  0  0  0  0  0  0  0  0  0  0
    9.5833  -15.0717   21.9788 C   0  0  0  0  0  0  0  0  0  0  0  0
   10.1032  -16.2156   22.0675 O   0  0  0  0  0  0  0  0  0  0  0  0
    7.4289  -13.8422   25.3388 O   0  0  0  0  0  0  0  0  0  0  0  0
    8.6695  -14.3771   25.5802 C   0  0  0  0  0  0  0  0  0  0  0  0
    9.1489  -15.1916   24.4013 C   0  0  2  0  0  0  0  0  0  0  0  0
    9.0535  -14.5077   23.1558 N   0  0  0  0  0  0  0  0  0  0  0  0
    8.4090  -16.4803   24.4310 C   0  0  0  0  0  0  0  0  0  0  0  0
    7.6054  -16.7804   23.3519 O   0  0  0  0  0  0  0  0  0  0  0  0
    8.4842  -17.2934   25.3821 O   0  0  0  0  0  0  0  0  0  0  0  0
  2  1  1  6
  2  3  1  0
  3  4  1  0
  4  8  1  0
  5  4  2  0
  6  2  1  0
  7  6  2  0
 10  9  1  0
 11 10  2  0
 12 10  1  0
 13 12  1  6
 13 14  1  0
 13 15  1  0
 14  6  1  0
 15 20  1  0
 16 15  2  0
 18 17  1  0
 19 18  1  1
 19 21  1  0
 20 19  1  0
 21 23  2  0
 21 22  1  0
M  END
$$$$
