DNS.pdb
     RDKit          3D

 23 22  0  0  1  0  0  0  0  0999 V2000
    9.9006  -19.5754   20.1063 N   0  0  0  0  0  0  0  0  0  0  0  0
   10.1208  -18.1699   20.3625 C   0  0  1  0  0  0  0  0  0  0  0  0
    9.4545  -17.3131   19.2818 C   0  0  0  0  0  0  0  0  0  0  0  0
   10.2336  -17.4333   18.0277 C   0  0  0  0  0  0  0  0  0  0  0  0
   11.3264  -18.0679   17.9802 O   0  0  0  0  0  0  0  0  0  0  0  0
    9.4554  -17.8043   21.6422 C   0  0  0  0  0  0  0  0  0  0  0  0
    9.5348  -16.6230   22.0378 O   0  0  0  0  0  0  0  0  0  0  0  0
    9.7950  -16.8552   16.8588 O   0  0  0  0  0  0  0  0  0  0  0  0
    5.9914  -17.8554   25.0823 N   0  0  0  0  0  0  0  0  0  0  0  0
    6.0925  -19.2241   24.7237 C   0  0  0  0  0  0  0  0  0  0  0  0
    5.1865  -20.0384   25.0859 O   0  0  0  0  0  0  0  0  0  0  0  0
    7.2230  -19.7273   23.9406 C   0  0  0  0  0  0  0  0  0  0  0  0
    8.2031  -18.5914   23.6228 C   0  0  2  0  0  0  0  0  0  0  0  0
    8.7726  -18.8257   22.3302 N   0  0  0  0  0  0  0  0  0  0  0  0
    9.2007  -18.4442   24.6976 C   0  0  0  0  0  0  0  0  0  0  0  0
   10.1035  -17.5807   24.5363 O   0  0  0  0  0  0  0  0  0  0  0  0
    8.6575  -17.5323   28.4526 O   0  0  0  0  0  0  0  0  0  0  0  0
    9.6863  -17.4372   27.5492 C   0  0  0  0  0  0  0  0  0  0  0  0
   10.0428  -18.7935   26.9869 C   0  0  2  0  0  0  0  0  0  0  0  0
    9.2254  -19.1922   25.8909 N   0  0  0  0  0  0  0  0  0  0  0  0
   10.0280  -19.7542   28.1209 C   0  0  0  0  0  0  0  0  0  0  0  0
   10.9431  -19.5610   29.1337 O   0  0  0  0  0  0  0  0  0  0  0  0
    9.2301  -20.7183   28.1936 O   0  0  0  0  0  0  0  0  0  0  0  0
  2  1  1  6
  2  3  1  0
  3  4  1  0
  4  8  1  0
  5  4  2  0
  6  2  1  0
  7  6  2  0
 10  9  1  0
 11 10  2  0
 12 10  1  0
 13 12  1  1
 13 14  1  0
 13 15  1  0
 14  6  1  0
 15 20  1  0
 16 15  2  0
 18 17  1  0
 19 18  1  1
 19 21  1  0
 20 19  1  0
 21 23  2  0
 21 22  1  0
M  END
$$$$
