REP.pdb
     RDKit          3D

 28 28  0  0  1  0  0  0  0  0999 V2000
    8.1891  -13.9793   15.8871 N   0  0  0  0  0  0  0  0  0  0  0  0
    8.6916  -13.7881   17.2033 C   0  0  0  0  0  0  0  0  0  0  0  0
    9.9222  -13.4282   17.4157 N   0  0  0  0  0  0  0  0  0  0  0  0
    7.8347  -13.9958   18.3013 N   0  0  0  0  0  0  0  0  0  0  0  0
    8.1641  -13.6783   19.6670 C   0  0  0  0  0  0  0  0  0  0  0  0
    7.0171  -14.0148   20.5788 C   0  0  0  0  0  0  0  0  0  0  0  0
    6.3404  -15.3021   20.1491 C   0  0  0  0  0  0  0  0  0  0  0  0
    6.9431  -16.4488   20.9293 C   0  0  2  0  0  0  0  0  0  0  0  0
    6.3025  -17.6877   20.5356 N   0  0  0  0  0  0  0  0  0  0  0  0
    6.7596  -16.2772   22.3872 C   0  0  0  0  0  0  0  0  0  0  0  0
    5.6677  -15.9123   22.8409 O   0  0  0  0  0  0  0  0  0  0  0  0
   10.6051  -13.3003   16.6382 N   0  0  0  0  0  0  0  0  0  0  0  0
    7.8127  -16.5210   23.3285 C   0  0  2  0  0  0  0  0  0  0  0  0
    7.7209  -16.3841   24.7380 C   0  0  0  0  0  0  0  0  0  0  0  0
    7.8552  -17.6090   25.5643 C   0  0  0  0  0  0  0  0  0  0  0  0
    6.9948  -18.7694   25.3312 C   0  0  0  0  0  0  0  0  0  0  0  0
    7.1635  -19.9565   26.1669 O   0  0  0  0  0  0  0  0  0  0  0  0
    6.8649  -19.9469   27.3721 C   0  0  0  0  0  0  0  0  0  0  0  0
    8.2794  -15.1764   25.3579 O   0  0  0  0  0  0  0  0  0  0  0  0
    9.4235  -14.7883   24.8592 O   0  0  0  0  0  0  0  0  0  0  0  0
    7.6639  -21.1243   25.6255 N   0  0  0  0  0  0  0  0  0  0  0  0
    7.8106  -14.3652   26.3911 C   0  0  0  0  0  0  0  0  0  0  0  0
    6.5642  -14.4044   27.0842 C   0  0  0  0  0  0  0  0  0  0  0  0
    6.3142  -12.9599   27.4799 C   0  0  0  0  0  0  0  0  0  0  0  0
    7.5287  -12.1825   27.0695 C   0  0  1  0  0  0  0  0  0  0  0  0
    8.5772  -13.2668   27.0085 C   0  0  0  0  0  0  0  0  0  0  0  0
    8.9562  -13.6125   28.3961 O   0  0  0  0  0  0  0  0  0  0  0  0
    8.5764  -14.6567   28.9918 O   0  0  0  0  0  0  0  0  0  0  0  0
  1  2  1  0
  2  3  2  0
  4  5  1  0
  4  2  1  0
  6  5  1  0
  7  6  1  0
  8  7  1  0
  8  9  1  6
 10  8  1  0
 11 10  2  0
 12 10  1  0
 13 12  1  0
 14 15  1  0
 13 14  1  6
 16 15  1  0
 16 20  1  0
 17 16  2  0
 18 21  1  0
 18 13  1  0
 19 18  2  0
 21 22  1  0
 22 23  1  0
 24 23  1  0
 25 21  1  0
 25 24  1  0
 25 26  1  1
 27 26  2  0
 28 26  1  0
M  END
$$$$
