REP.pdb
     RDKit          3D

 28 28  0  0  1  0  0  0  0  0999 V2000
    9.5074  -12.6941   18.3187 N   0  0  0  0  0  0  0  0  0  0  0  0
    8.6583  -12.2800   19.3812 C   0  0  0  0  0  0  0  0  0  0  0  0
    8.9527  -11.2578   20.1280 N   0  0  0  0  0  0  0  0  0  0  0  0
    7.4719  -12.9966   19.6300 N   0  0  0  0  0  0  0  0  0  0  0  0
    7.0449  -14.1543   18.8871 C   0  0  0  0  0  0  0  0  0  0  0  0
    6.5452  -15.2241   19.8176 C   0  0  0  0  0  0  0  0  0  0  0  0
    7.5774  -16.3219   19.9884 C   0  0  0  0  0  0  0  0  0  0  0  0
    6.9791  -17.4197   20.8392 C   0  0  2  0  0  0  0  0  0  0  0  0
    5.6800  -17.7842   20.3103 N   0  0  0  0  0  0  0  0  0  0  0  0
    6.8020  -16.9907   22.2439 C   0  0  0  0  0  0  0  0  0  0  0  0
    5.8397  -16.2816   22.5640 O   0  0  0  0  0  0  0  0  0  0  0  0
    8.3583  -10.9706   20.9350 N   0  0  0  0  0  0  0  0  0  0  0  0
    7.7140  -17.3674   23.2835 C   0  0  2  0  0  0  0  0  0  0  0  0
    7.6230  -16.9941   24.6496 C   0  0  0  0  0  0  0  0  0  0  0  0
    7.6952  -18.0695   25.6691 C   0  0  0  0  0  0  0  0  0  0  0  0
    7.6377  -17.7549   27.0970 C   0  0  0  0  0  0  0  0  0  0  0  0
    7.7602  -18.8405   28.0678 O   0  0  0  0  0  0  0  0  0  0  0  0
    8.7903  -18.9896   28.7449 C   0  0  0  0  0  0  0  0  0  0  0  0
    8.2361  -15.7275   25.0674 O   0  0  0  0  0  0  0  0  0  0  0  0
    9.3771  -15.4586   24.4893 O   0  0  0  0  0  0  0  0  0  0  0  0
    6.7208  -19.7308   28.2522 N   0  0  0  0  0  0  0  0  0  0  0  0
    7.8223  -14.7548   25.9774 C   0  0  0  0  0  0  0  0  0  0  0  0
    6.5847  -14.6312   26.6766 C   0  0  0  0  0  0  0  0  0  0  0  0
    6.4126  -13.1343   26.8640 C   0  0  0  0  0  0  0  0  0  0  0  0
    7.6589  -12.4864   26.3398 C   0  0  1  0  0  0  0  0  0  0  0  0
    8.6510  -13.6208   26.4275 C   0  0  0  0  0  0  0  0  0  0  0  0
    9.0307  -13.7852   27.8479 O   0  0  0  0  0  0  0  0  0  0  0  0
    8.6306  -14.7302   28.5802 O   0  0  0  0  0  0  0  0  0  0  0  0
  1  2  1  0
  2  3  2  0
  4  5  1  0
  4  2  1  0
  6  5  1  0
  7  6  1  0
  8  7  1  0
  8  9  1  6
 10  8  1  0
 11 10  2  0
 12 10  1  0
 13 12  1  0
 14 15  1  0
 13 14  1  6
 16 15  1  0
 16 20  1  0
 17 16  2  0
 18 21  1  0
 18 13  1  0
 19 18  2  0
 21 22  1  0
 22 23  1  0
 24 23  1  0
 25 21  1  0
 25 24  1  0
 25 26  1  1
 27 26  2  0
 28 26  1  0
M  END
$$$$
