REP.pdb
     RDKit          3D

 28 28  0  0  1  0  0  0  0  0999 V2000
    8.5505  -13.3393   13.8080 N   0  0  0  0  0  0  0  0  0  0  0  0
    8.5635  -13.6300   15.1997 C   0  0  0  0  0  0  0  0  0  0  0  0
    9.3911  -13.0400   16.0098 N   0  0  0  0  0  0  0  0  0  0  0  0
    7.6592  -14.5811   15.7101 N   0  0  0  0  0  0  0  0  0  0  0  0
    7.6470  -15.0491   17.0721 C   0  0  0  0  0  0  0  0  0  0  0  0
    6.9923  -14.0383   17.9720 C   0  0  0  0  0  0  0  0  0  0  0  0
    6.8124  -14.5925   19.3721 C   0  0  0  0  0  0  0  0  0  0  0  0
    8.0791  -14.3395   20.1585 C   0  0  2  0  0  0  0  0  0  0  0  0
    9.1372  -15.1911   19.6531 N   0  0  0  0  0  0  0  0  0  0  0  0
    7.8992  -14.6314   21.5976 C   0  0  0  0  0  0  0  0  0  0  0  0
    7.0333  -14.0371   22.2523 O   0  0  0  0  0  0  0  0  0  0  0  0
    9.4001  -13.2362   17.0337 N   0  0  0  0  0  0  0  0  0  0  0  0
    8.6989  -15.5972   22.2919 C   0  0  2  0  0  0  0  0  0  0  0  0
    8.6073  -15.9210   23.6706 C   0  0  0  0  0  0  0  0  0  0  0  0
    8.9204  -17.3126   24.0787 C   0  0  0  0  0  0  0  0  0  0  0  0
    8.9198  -18.3999   23.0994 C   0  0  0  0  0  0  0  0  0  0  0  0
   10.0981  -19.2577   22.9916 O   0  0  0  0  0  0  0  0  0  0  0  0
   11.0934  -19.0833   23.7133 C   0  0  0  0  0  0  0  0  0  0  0  0
    9.0016  -14.9034   24.6523 O   0  0  0  0  0  0  0  0  0  0  0  0
   10.2121  -14.4362   24.4954 O   0  0  0  0  0  0  0  0  0  0  0  0
   10.1269  -20.2899   22.0746 N   0  0  0  0  0  0  0  0  0  0  0  0
    8.3169  -14.3438   25.7310 C   0  0  0  0  0  0  0  0  0  0  0  0
    6.9768  -14.5619   26.1695 C   0  0  0  0  0  0  0  0  0  0  0  0
    6.5749  -13.2420   26.8037 C   0  0  0  0  0  0  0  0  0  0  0  0
    7.7902  -12.3645   26.7838 C   0  0  1  0  0  0  0  0  0  0  0  0
    8.8995  -13.3838   26.6871 C   0  0  0  0  0  0  0  0  0  0  0  0
    9.0615  -14.0084   28.0183 O   0  0  0  0  0  0  0  0  0  0  0  0
    8.6618  -15.1689   28.3064 O   0  0  0  0  0  0  0  0  0  0  0  0
  1  2  1  0
  2  3  2  0
  4  5  1  0
  4  2  1  0
  6  5  1  0
  7  6  1  0
  8  7  1  0
  8  9  1  6
 10  8  1  0
 11 10  2  0
 12 10  1  0
 13 12  1  0
 14 15  1  0
 13 14  1  6
 16 15  1  0
 16 20  1  0
 17 16  2  0
 18 21  1  0
 18 13  1  0
 19 18  2  0
 21 22  1  0
 22 23  1  0
 24 23  1  0
 25 21  1  0
 25 24  1  0
 25 26  1  1
 27 26  2  0
 28 26  1  0
M  END
$$$$
