REP.pdb
     RDKit          3D

 28 28  0  0  1  0  0  0  0  0999 V2000
    9.1320  -15.9170   15.6001 N   0  0  0  0  0  0  0  0  0  0  0  0
    9.0369  -14.6961   16.3226 C   0  0  0  0  0  0  0  0  0  0  0  0
    8.8036  -13.5672   15.7223 N   0  0  0  0  0  0  0  0  0  0  0  0
    9.2016  -14.7123   17.7211 N   0  0  0  0  0  0  0  0  0  0  0  0
    8.9962  -13.5758   18.5817 C   0  0  0  0  0  0  0  0  0  0  0  0
    7.5296  -13.2742   18.7172 C   0  0  0  0  0  0  0  0  0  0  0  0
    7.0222  -13.6508   20.0958 C   0  0  0  0  0  0  0  0  0  0  0  0
    7.7561  -14.8893   20.5593 C   0  0  2  0  0  0  0  0  0  0  0  0
    7.2422  -16.0456   19.8528 N   0  0  0  0  0  0  0  0  0  0  0  0
    7.5819  -15.1197   22.0102 C   0  0  0  0  0  0  0  0  0  0  0  0
    6.6112  -14.6376   22.6074 O   0  0  0  0  0  0  0  0  0  0  0  0
    8.7358  -12.6660   16.2421 N   0  0  0  0  0  0  0  0  0  0  0  0
    8.5065  -15.8973   22.7815 C   0  0  2  0  0  0  0  0  0  0  0  0
    8.4325  -16.1392   24.1779 C   0  0  0  0  0  0  0  0  0  0  0  0
    8.7866  -17.4944   24.6670 C   0  0  0  0  0  0  0  0  0  0  0  0
    8.7777  -17.8018   26.0976 C   0  0  0  0  0  0  0  0  0  0  0  0
    9.2025  -19.1282   26.5405 O   0  0  0  0  0  0  0  0  0  0  0  0
   10.3979  -19.3863   26.7555 C   0  0  0  0  0  0  0  0  0  0  0  0
    8.8045  -15.0535   25.0931 O   0  0  0  0  0  0  0  0  0  0  0  0
   10.0174  -14.5951   24.9290 O   0  0  0  0  0  0  0  0  0  0  0  0
    8.2717  -20.1306   26.7302 N   0  0  0  0  0  0  0  0  0  0  0  0
    8.0963  -14.4209   26.1147 C   0  0  0  0  0  0  0  0  0  0  0  0
    6.7611  -14.6407   26.5669 C   0  0  0  0  0  0  0  0  0  0  0  0
    6.3145  -13.2824   27.0783 C   0  0  0  0  0  0  0  0  0  0  0  0
    7.5021  -12.3724   26.9830 C   0  0  1  0  0  0  0  0  0  0  0  0
    8.6430  -13.3607   26.9821 C   0  0  0  0  0  0  0  0  0  0  0  0
    8.8165  -13.8575   28.3648 O   0  0  0  0  0  0  0  0  0  0  0  0
    9.3177  -13.1777   29.3009 O   0  0  0  0  0  0  0  0  0  0  0  0
  1  2  1  0
  2  3  2  0
  4  5  1  0
  4  2  1  0
  6  5  1  0
  7  6  1  0
  8  7  1  0
  8  9  1  6
 10  8  1  0
 11 10  2  0
 12 10  1  0
 13 12  1  0
 14 15  1  0
 13 14  1  6
 16 15  1  0
 16 20  1  0
 17 16  2  0
 18 21  1  0
 18 13  1  0
 19 18  2  0
 21 22  1  0
 22 23  1  0
 24 23  1  0
 25 21  1  0
 25 24  1  0
 25 26  1  1
 27 26  2  0
 28 26  1  0
M  END
$$$$
