REP.pdb
     RDKit          3D

 28 28  0  0  1  0  0  0  0  0999 V2000
    7.4200  -13.0675   16.4171 N   0  0  0  0  0  0  0  0  0  0  0  0
    8.1639  -14.1615   15.8964 C   0  0  0  0  0  0  0  0  0  0  0  0
    7.8958  -14.6732   14.7321 N   0  0  0  0  0  0  0  0  0  0  0  0
    9.2142  -14.7031   16.6623 N   0  0  0  0  0  0  0  0  0  0  0  0
    9.2586  -14.7069   18.1019 C   0  0  0  0  0  0  0  0  0  0  0  0
    8.2594  -13.7343   18.6636 C   0  0  0  0  0  0  0  0  0  0  0  0
    8.3383  -13.6871   20.1774 C   0  0  0  0  0  0  0  0  0  0  0  0
    8.1230  -15.0835   20.7165 C   0  0  2  0  0  0  0  0  0  0  0  0
    7.1003  -15.7487   19.9342 N   0  0  0  0  0  0  0  0  0  0  0  0
    7.6844  -15.0649   22.1292 C   0  0  0  0  0  0  0  0  0  0  0  0
    6.9013  -14.1940   22.5290 O   0  0  0  0  0  0  0  0  0  0  0  0
    8.4601  -15.4491   14.3238 N   0  0  0  0  0  0  0  0  0  0  0  0
    8.1321  -16.0337   23.0860 C   0  0  1  0  0  0  0  0  0  0  0  0
    7.8464  -16.0283   24.4760 C   0  0  0  0  0  0  0  0  0  0  0  0
    6.9580  -17.0917   25.0059 C   0  0  0  0  0  0  0  0  0  0  0  0
    6.3601  -18.0843   24.1122 C   0  0  0  0  0  0  0  0  0  0  0  0
    6.5134  -19.5037   24.4250 O   0  0  0  0  0  0  0  0  0  0  0  0
    7.1179  -19.8802   25.4422 C   0  0  0  0  0  0  0  0  0  0  0  0
    8.9063  -15.6132   25.4029 O   0  0  0  0  0  0  0  0  0  0  0  0
   10.1188  -15.8950   25.0043 O   0  0  0  0  0  0  0  0  0  0  0  0
    5.9829  -20.4634   23.5857 N   0  0  0  0  0  0  0  0  0  0  0  0
    8.8546  -14.9725   26.6407 C   0  0  0  0  0  0  0  0  0  0  0  0
    7.7232  -14.5345   27.3915 C   0  0  0  0  0  0  0  0  0  0  0  0
    8.2327  -13.3280   28.1600 C   0  0  0  0  0  0  0  0  0  0  0  0
    9.7002  -13.2200   27.8725 C   0  0  1  0  0  0  0  0  0  0  0  0
   10.0336  -14.6330   27.4592 C   0  0  0  0  0  0  0  0  0  0  0  0
   10.0768  -15.4668   28.6805 O   0  0  0  0  0  0  0  0  0  0  0  0
   10.9269  -15.3262   29.6010 O   0  0  0  0  0  0  0  0  0  0  0  0
  1  2  1  0
  2  3  2  0
  4  5  1  0
  4  2  1  0
  6  5  1  0
  7  6  1  0
  8  7  1  0
  8  9  1  6
 10  8  1  0
 11 10  2  0
 12 10  1  0
 13 12  1  0
 14 15  1  0
 13 14  1  6
 16 15  1  0
 16 20  1  0
 17 16  2  0
 18 21  1  0
 18 13  1  0
 19 18  2  0
 21 22  1  0
 22 23  1  0
 24 23  1  0
 25 21  1  0
 25 24  1  0
 25 26  1  1
 27 26  2  0
 28 26  1  0
M  END
$$$$
