REP.pdb
     RDKit          3D

 28 28  0  0  1  0  0  0  0  0999 V2000
    9.1345  -13.7742   16.9732 N   0  0  0  0  0  0  0  0  0  0  0  0
    8.7974  -13.0643   18.1579 C   0  0  0  0  0  0  0  0  0  0  0  0
    9.0208  -11.7892   18.2734 N   0  0  0  0  0  0  0  0  0  0  0  0
    8.2093  -13.7612   19.2311 N   0  0  0  0  0  0  0  0  0  0  0  0
    6.8102  -13.7124   19.5690 C   0  0  0  0  0  0  0  0  0  0  0  0
    6.5415  -14.4998   20.8212 C   0  0  0  0  0  0  0  0  0  0  0  0
    6.3320  -15.9682   20.5057 C   0  0  0  0  0  0  0  0  0  0  0  0
    7.4137  -16.7697   21.1945 C   0  0  2  0  0  0  0  0  0  0  0  0
    7.2622  -18.1711   20.8577 N   0  0  0  0  0  0  0  0  0  0  0  0
    7.3414  -16.6382   22.6662 C   0  0  0  0  0  0  0  0  0  0  0  0
    6.2501  -16.4741   23.2261 O   0  0  0  0  0  0  0  0  0  0  0  0
    8.7626  -11.2560   19.1314 N   0  0  0  0  0  0  0  0  0  0  0  0
    8.5051  -16.6947   23.5011 C   0  0  2  0  0  0  0  0  0  0  0  0
    8.5271  -16.5554   24.9132 C   0  0  0  0  0  0  0  0  0  0  0  0
    9.2114  -17.6080   25.7036 C   0  0  0  0  0  0  0  0  0  0  0  0
    9.4143  -18.9481   25.1518 C   0  0  0  0  0  0  0  0  0  0  0  0
   10.7425  -19.5529   25.2284 O   0  0  0  0  0  0  0  0  0  0  0  0
   11.6866  -18.9716   25.7875 C   0  0  0  0  0  0  0  0  0  0  0  0
    8.6477  -15.2058   25.4778 O   0  0  0  0  0  0  0  0  0  0  0  0
    9.4718  -14.4195   24.8368 O   0  0  0  0  0  0  0  0  0  0  0  0
   10.9750  -20.7961   24.6741 N   0  0  0  0  0  0  0  0  0  0  0  0
    8.0422  -14.6074   26.5826 C   0  0  0  0  0  0  0  0  0  0  0  0
    6.9410  -15.0567   27.3707 C   0  0  0  0  0  0  0  0  0  0  0  0
    6.2834  -13.7760   27.8534 C   0  0  0  0  0  0  0  0  0  0  0  0
    7.1463  -12.6432   27.3845 C   0  0  1  0  0  0  0  0  0  0  0  0
    8.4741  -13.3338   27.1882 C   0  0  0  0  0  0  0  0  0  0  0  0
    9.0679  -13.5672   28.5229 O   0  0  0  0  0  0  0  0  0  0  0  0
    9.1010  -14.6909   29.0937 O   0  0  0  0  0  0  0  0  0  0  0  0
  1  2  1  0
  2  3  2  0
  4  5  1  0
  4  2  1  0
  6  5  1  0
  7  6  1  0
  8  7  1  0
  8  9  1  1
 10  8  1  0
 11 10  2  0
 12 10  1  0
 13 12  1  0
 14 15  1  0
 13 14  1  6
 16 15  1  0
 16 20  1  0
 17 16  2  0
 18 21  1  0
 18 13  1  0
 19 18  2  0
 21 22  1  0
 22 23  1  0
 24 23  1  0
 25 21  1  0
 25 24  1  0
 25 26  1  1
 27 26  2  0
 28 26  1  0
M  END
$$$$
