REP.pdb
     RDKit          3D

 28 28  0  0  1  0  0  0  0  0999 V2000
    8.3966  -12.6992   16.3648 N   0  0  0  0  0  0  0  0  0  0  0  0
    8.6236  -14.1008   16.4384 C   0  0  0  0  0  0  0  0  0  0  0  0
    8.4505  -14.8727   15.4072 N   0  0  0  0  0  0  0  0  0  0  0  0
    9.0438  -14.6643   17.6587 N   0  0  0  0  0  0  0  0  0  0  0  0
    8.2445  -15.5453   18.4707 C   0  0  0  0  0  0  0  0  0  0  0  0
    6.8793  -14.9589   18.6996 C   0  0  0  0  0  0  0  0  0  0  0  0
    6.4825  -15.0589   20.1599 C   0  0  0  0  0  0  0  0  0  0  0  0
    7.6635  -15.5810   20.9471 C   0  0  2  0  0  0  0  0  0  0  0  0
    7.8186  -17.0000   20.6972 N   0  0  0  0  0  0  0  0  0  0  0  0
    7.4829  -15.3854   22.4023 C   0  0  0  0  0  0  0  0  0  0  0  0
    6.7440  -14.4873   22.8251 O   0  0  0  0  0  0  0  0  0  0  0  0
    8.5368  -15.9098   15.4697 N   0  0  0  0  0  0  0  0  0  0  0  0
    8.1380  -16.2087   23.3757 C   0  0  1  0  0  0  0  0  0  0  0  0
    7.8626  -16.2355   24.7676 C   0  0  0  0  0  0  0  0  0  0  0  0
    7.5586  -17.5477   25.3895 C   0  0  0  0  0  0  0  0  0  0  0  0
    6.7902  -18.5611   24.6657 C   0  0  0  0  0  0  0  0  0  0  0  0
    6.6760  -19.9033   25.2325 O   0  0  0  0  0  0  0  0  0  0  0  0
    5.5688  -20.4265   25.4382 C   0  0  0  0  0  0  0  0  0  0  0  0
    8.5978  -15.3124   25.6406 O   0  0  0  0  0  0  0  0  0  0  0  0
    9.8670  -15.1873   25.3543 O   0  0  0  0  0  0  0  0  0  0  0  0
    7.8101  -20.6228   25.5537 N   0  0  0  0  0  0  0  0  0  0  0  0
    8.1870  -14.5428   26.7289 C   0  0  0  0  0  0  0  0  0  0  0  0
    6.8987  -14.4359   27.3326 C   0  0  0  0  0  0  0  0  0  0  0  0
    6.8603  -13.0185   27.8759 C   0  0  0  0  0  0  0  0  0  0  0  0
    8.2164  -12.4262   27.6358 C   0  0  1  0  0  0  0  0  0  0  0  0
    9.0719  -13.6641   27.5163 C   0  0  0  0  0  0  0  0  0  0  0  0
    9.2732  -14.2117   28.8758 O   0  0  0  0  0  0  0  0  0  0  0  0
    9.9864  -13.6629   29.7589 O   0  0  0  0  0  0  0  0  0  0  0  0
  1  2  1  0
  2  3  2  0
  4  5  1  0
  4  2  1  0
  6  5  1  0
  7  6  1  0
  8  7  1  0
  8  9  1  1
 10  8  1  0
 11 10  2  0
 12 10  1  0
 13 12  1  0
 14 15  1  0
 13 14  1  6
 16 15  1  0
 16 20  1  0
 17 16  2  0
 18 21  1  0
 18 13  1  0
 19 18  2  0
 21 22  1  0
 22 23  1  0
 24 23  1  0
 25 21  1  0
 25 24  1  0
 25 26  1  1
 27 26  2  0
 28 26  1  0
M  END
$$$$
