REP.pdb
     RDKit          3D

 28 28  0  0  1  0  0  0  0  0999 V2000
    7.8937  -13.9975   15.4749 N   0  0  0  0  0  0  0  0  0  0  0  0
    8.9483  -14.6154   16.2011 C   0  0  0  0  0  0  0  0  0  0  0  0
    9.6409  -15.5920   15.6955 N   0  0  0  0  0  0  0  0  0  0  0  0
    9.2465  -14.1584   17.4994 N   0  0  0  0  0  0  0  0  0  0  0  0
    8.4161  -13.2617   18.2614 C   0  0  0  0  0  0  0  0  0  0  0  0
    7.0555  -13.8616   18.4828 C   0  0  0  0  0  0  0  0  0  0  0  0
    6.7389  -13.9600   19.9626 C   0  0  0  0  0  0  0  0  0  0  0  0
    7.8024  -14.8034   20.6294 C   0  0  2  0  0  0  0  0  0  0  0  0
    7.7243  -16.1608   20.1279 N   0  0  0  0  0  0  0  0  0  0  0  0
    7.6303  -14.8433   22.0982 C   0  0  0  0  0  0  0  0  0  0  0  0
    7.6059  -13.7937   22.7532 O   0  0  0  0  0  0  0  0  0  0  0  0
   10.4227  -16.0453   16.2156 N   0  0  0  0  0  0  0  0  0  0  0  0
    7.4842  -16.0718   22.8220 C   0  0  2  0  0  0  0  0  0  0  0  0
    7.4191  -16.2067   24.2332 C   0  0  0  0  0  0  0  0  0  0  0  0
    7.2852  -17.5737   24.7940 C   0  0  0  0  0  0  0  0  0  0  0  0
    7.1903  -17.7860   26.2388 C   0  0  0  0  0  0  0  0  0  0  0  0
    7.0497  -19.1489   26.7475 O   0  0  0  0  0  0  0  0  0  0  0  0
    6.2402  -19.9460   26.2464 C   0  0  0  0  0  0  0  0  0  0  0  0
    8.2214  -15.2947   25.0574 O   0  0  0  0  0  0  0  0  0  0  0  0
    9.4789  -15.2120   24.7109 O   0  0  0  0  0  0  0  0  0  0  0  0
    7.8232  -19.5804   27.8070 N   0  0  0  0  0  0  0  0  0  0  0  0
    7.8849  -14.4985   26.1521 C   0  0  0  0  0  0  0  0  0  0  0  0
    6.6576  -14.4183   26.8753 C   0  0  0  0  0  0  0  0  0  0  0  0
    6.6106  -12.9827   27.3677 C   0  0  0  0  0  0  0  0  0  0  0  0
    7.9101  -12.3473   26.9738 C   0  0  2  0  0  0  0  0  0  0  0  0
    8.8029  -13.5543   26.8160 C   0  0  0  0  0  0  0  0  0  0  0  0
    9.1585  -14.0379   28.1682 O   0  0  0  0  0  0  0  0  0  0  0  0
    9.9092  -13.4137   28.9659 O   0  0  0  0  0  0  0  0  0  0  0  0
  1  2  1  0
  2  3  2  0
  4  5  1  0
  4  2  1  0
  6  5  1  0
  7  6  1  0
  8  7  1  0
  8  9  1  6
 10  8  1  0
 11 10  2  0
 12 10  1  0
 13 12  1  0
 14 15  1  0
 13 14  1  6
 16 15  1  0
 16 20  1  0
 17 16  2  0
 18 21  1  0
 18 13  1  0
 19 18  2  0
 21 22  1  0
 22 23  1  0
 24 23  1  0
 25 21  1  0
 25 24  1  0
 25 26  1  1
 27 26  2  0
 28 26  1  0
M  END
$$$$
