SWK.pdb
     RDKit          3D

 30 31  0  0  1  0  0  0  0  0999 V2000
    8.0111  -16.6722   19.1849 O   0  0  0  0  0  0  0  0  0  0  0  0
    6.8171  -16.3754   19.8004 C   0  0  0  0  0  0  0  0  0  0  0  0
    6.8510  -15.0932   20.5998 C   0  0  2  0  0  0  0  0  0  0  0  0
    7.1611  -13.9991   19.6898 N   0  0  0  0  0  0  0  0  0  0  0  0
    7.9329  -15.2006   21.5999 C   0  0  0  0  0  0  0  0  0  0  0  0
    9.0260  -14.6260   21.3760 O   0  0  0  0  0  0  0  0  0  0  0  0
    7.8050  -15.9142   22.7957 N   0  0  0  0  0  0  0  0  0  0  0  0
    8.8240  -15.9051   23.8261 C   0  0  1  0  0  0  0  0  0  0  0  0
    8.0955  -15.9656   25.1448 C   0  0  0  0  0  0  0  0  0  0  0  0
    7.1744  -14.8514   25.3723 C   0  0  0  0  0  0  0  0  0  0  0  0
    5.8256  -14.7574   25.0786 C   0  0  0  0  0  0  0  0  0  0  0  0
    5.3816  -13.5639   25.4565 N   0  0  0  0  0  0  0  0  0  0  0  0
    6.3741  -12.8162   26.0061 C   0  0  0  0  0  0  0  0  0  0  0  0
    6.4321  -11.5537   26.5353 C   0  0  0  0  0  0  0  0  0  0  0  0
    7.6147  -11.0693   27.0238 C   0  0  0  0  0  0  0  0  0  0  0  0
    8.7391  -11.8648   26.9759 C   0  0  0  0  0  0  0  0  0  0  0  0
    8.6758  -13.1299   26.4444 C   0  0  0  0  0  0  0  0  0  0  0  0
    7.4956  -13.6285   25.9507 C   0  0  0  0  0  0  0  0  0  0  0  0
    9.8193  -16.9591   23.6611 C   0  0  0  0  0  0  0  0  0  0  0  0
    9.4247  -18.1328   23.4412 O   0  0  0  0  0  0  0  0  0  0  0  0
   11.2391  -16.7684   23.7292 N   0  0  0  0  0  0  0  0  0  0  0  0
   12.1635  -17.8705   23.5669 C   0  0  1  0  0  0  0  0  0  0  0  0
   13.5544  -17.3578   23.2090 C   0  0  0  0  0  0  0  0  0  0  0  0
   14.4884  -18.5280   23.1403 C   0  0  0  0  0  0  0  0  0  0  0  0
   15.8936  -18.1725   22.8147 C   0  0  0  0  0  0  0  0  0  0  0  0
   16.8495  -19.3081   22.6929 C   0  0  0  0  0  0  0  0  0  0  0  0
   18.1816  -18.9673   22.3175 N   0  0  0  0  0  0  0  0  0  0  0  0
   12.2022  -18.6273   24.8323 C   0  0  0  0  0  0  0  0  0  0  0  0
   11.9716  -18.0534   25.9211 O   0  0  0  0  0  0  0  0  0  0  0  0
   12.4926  -19.9775   24.8366 O   0  0  0  0  0  0  0  0  0  0  0  0
  1  2  1  0
  2  3  1  0
  3  5  1  0
  3  4  1  6
  5  6  2  0
  7  8  1  0
  7  5  1  0
  9 10  1  0
  8  9  1  1
 10 11  2  0
 12 11  1  0
 13 12  1  0
 14 13  2  0
 15 14  1  0
 16 15  2  0
 16 17  1  0
 17 18  2  0
 18 13  1  0
 18 10  1  0
 19 20  2  0
 19  8  1  0
 21 19  1  0
 22 21  1  0
 22 28  1  0
 22 23  1  1
 24 23  1  0
 25 24  1  0
 26 25  1  0
 27 26  1  0
 28 29  2  0
 28 30  1  0
M  END
$$$$
