SWK.pdb
     RDKit          3D

 30 31  0  0  1  0  0  0  0  0999 V2000
    7.8998  -15.7816   18.5392 O   0  0  0  0  0  0  0  0  0  0  0  0
    7.0506  -15.8756   19.6173 C   0  0  0  0  0  0  0  0  0  0  0  0
    7.0274  -14.6341   20.4792 C   0  0  2  0  0  0  0  0  0  0  0  0
    7.3945  -13.4968   19.6467 N   0  0  0  0  0  0  0  0  0  0  0  0
    8.0407  -14.7911   21.5427 C   0  0  0  0  0  0  0  0  0  0  0  0
    9.1696  -14.2652   21.3883 O   0  0  0  0  0  0  0  0  0  0  0  0
    7.8087  -15.5004   22.7254 N   0  0  0  0  0  0  0  0  0  0  0  0
    8.8283  -15.6904   23.7375 C   0  0  1  0  0  0  0  0  0  0  0  0
    8.1010  -16.0148   25.0179 C   0  0  0  0  0  0  0  0  0  0  0  0
    7.2120  -14.9516   25.4879 C   0  0  0  0  0  0  0  0  0  0  0  0
    5.8373  -14.9661   25.6448 C   0  0  0  0  0  0  0  0  0  0  0  0
    5.4402  -13.7828   26.0989 N   0  0  0  0  0  0  0  0  0  0  0  0
    6.4905  -12.9372   26.2663 C   0  0  0  0  0  0  0  0  0  0  0  0
    6.6096  -11.6422   26.6976 C   0  0  0  0  0  0  0  0  0  0  0  0
    7.8416  -11.0501   26.7559 C   0  0  0  0  0  0  0  0  0  0  0  0
    8.9535  -11.7709   26.3769 C   0  0  0  0  0  0  0  0  0  0  0  0
    8.8288  -13.0691   25.9452 C   0  0  0  0  0  0  0  0  0  0  0  0
    7.5986  -13.6754   25.8818 C   0  0  0  0  0  0  0  0  0  0  0  0
    9.8289  -16.6857   23.3673 C   0  0  0  0  0  0  0  0  0  0  0  0
    9.4600  -17.7026   22.7257 O   0  0  0  0  0  0  0  0  0  0  0  0
   11.2264  -16.6030   23.6782 N   0  0  0  0  0  0  0  0  0  0  0  0
   12.1623  -17.6217   23.2518 C   0  0  1  0  0  0  0  0  0  0  0  0
   13.2340  -17.0230   22.3470 C   0  0  0  0  0  0  0  0  0  0  0  0
   14.1033  -18.1343   21.8413 C   0  0  0  0  0  0  0  0  0  0  0  0
   15.2324  -17.6883   20.9851 C   0  0  0  0  0  0  0  0  0  0  0  0
   14.9557  -17.5959   19.5247 C   0  0  0  0  0  0  0  0  0  0  0  0
   16.0374  -17.1520   18.7096 N   0  0  0  0  0  0  0  0  0  0  0  0
   12.7754  -18.2144   24.4554 C   0  0  0  0  0  0  0  0  0  0  0  0
   12.5138  -17.7559   25.5909 O   0  0  0  0  0  0  0  0  0  0  0  0
   13.6454  -19.2817   24.3495 O   0  0  0  0  0  0  0  0  0  0  0  0
  1  2  1  0
  2  3  1  0
  3  5  1  0
  3  4  1  6
  5  6  2  0
  7  8  1  0
  7  5  1  0
  9 10  1  0
  8  9  1  1
 10 11  2  0
 12 11  1  0
 13 12  1  0
 14 13  2  0
 15 14  1  0
 16 15  2  0
 16 17  1  0
 17 18  2  0
 18 13  1  0
 18 10  1  0
 19 20  2  0
 19  8  1  0
 21 19  1  0
 22 21  1  0
 22 28  1  0
 22 23  1  6
 24 23  1  0
 25 24  1  0
 26 25  1  0
 27 26  1  0
 28 29  2  0
 28 30  1  0
M  END
$$$$
