SWK.pdb
     RDKit          3D

 30 31  0  0  1  0  0  0  0  0999 V2000
   10.8517  -18.6402   19.9887 O   0  0  0  0  0  0  0  0  0  0  0  0
    9.9837  -17.9344   19.1883 C   0  0  0  0  0  0  0  0  0  0  0  0
   10.1432  -16.4353   19.2976 C   0  0  2  0  0  0  0  0  0  0  0  0
   11.4806  -16.0866   18.8381 N   0  0  0  0  0  0  0  0  0  0  0  0
   10.0168  -16.0598   20.7207 C   0  0  0  0  0  0  0  0  0  0  0  0
   11.0542  -15.9822   21.4227 O   0  0  0  0  0  0  0  0  0  0  0  0
    8.7918  -15.7821   21.3355 N   0  0  0  0  0  0  0  0  0  0  0  0
    8.6704  -15.5165   22.7550 C   0  0  1  0  0  0  0  0  0  0  0  0
    7.2466  -15.0764   22.9847 C   0  0  0  0  0  0  0  0  0  0  0  0
    6.9142  -14.8314   24.3886 C   0  0  0  0  0  0  0  0  0  0  0  0
    6.4251  -15.7109   25.3383 C   0  0  0  0  0  0  0  0  0  0  0  0
    6.2664  -15.0640   26.4874 N   0  0  0  0  0  0  0  0  0  0  0  0
    6.6279  -13.7589   26.3766 C   0  0  0  0  0  0  0  0  0  0  0  0
    6.6509  -12.7011   27.2471 C   0  0  0  0  0  0  0  0  0  0  0  0
    7.0804  -11.4735   26.8224 C   0  0  0  0  0  0  0  0  0  0  0  0
    7.4867  -11.3180   25.5146 C   0  0  0  0  0  0  0  0  0  0  0  0
    7.4617  -12.3817   24.6457 C   0  0  0  0  0  0  0  0  0  0  0  0
    7.0331  -13.6190   25.0587 C   0  0  0  0  0  0  0  0  0  0  0  0
    9.0737  -16.6440   23.5885 C   0  0  0  0  0  0  0  0  0  0  0  0
    8.7536  -17.8057   23.2284 O   0  0  0  0  0  0  0  0  0  0  0  0
    9.8197  -16.5401   24.8089 N   0  0  0  0  0  0  0  0  0  0  0  0
   10.2240  -17.7123   25.5557 C   0  0  1  0  0  0  0  0  0  0  0  0
   11.2760  -18.5041   24.7862 C   0  0  0  0  0  0  0  0  0  0  0  0
   12.5699  -17.7496   24.8380 C   0  0  0  0  0  0  0  0  0  0  0  0
   13.6492  -18.3247   23.9945 C   0  0  0  0  0  0  0  0  0  0  0  0
   14.9580  -17.6147   24.0241 C   0  0  0  0  0  0  0  0  0  0  0  0
   16.0390  -18.2670   23.3627 N   0  0  0  0  0  0  0  0  0  0  0  0
   10.7620  -17.2660   26.8546 C   0  0  0  0  0  0  0  0  0  0  0  0
   11.1699  -18.1024   27.6924 O   0  0  0  0  0  0  0  0  0  0  0  0
   10.8242  -15.9222   27.1667 O   0  0  0  0  0  0  0  0  0  0  0  0
  1  2  1  0
  2  3  1  0
  3  5  1  0
  3  4  1  1
  5  6  2  0
  7  8  1  0
  7  5  1  0
  9 10  1  0
  8  9  1  6
 10 11  2  0
 12 11  1  0
 13 12  1  0
 14 13  2  0
 15 14  1  0
 16 15  2  0
 16 17  1  0
 17 18  2  0
 18 13  1  0
 18 10  1  0
 19 20  2  0
 19  8  1  0
 21 19  1  0
 22 21  1  0
 22 28  1  0
 22 23  1  6
 24 23  1  0
 25 24  1  0
 26 25  1  0
 27 26  1  0
 28 29  2  0
 28 30  1  0
M  END
$$$$
