SWK.pdb
     RDKit          3D

 30 31  0  0  1  0  0  0  0  0999 V2000
    8.2526  -18.3542   20.2620 O   0  0  0  0  0  0  0  0  0  0  0  0
    7.0141  -18.1309   20.8174 C   0  0  0  0  0  0  0  0  0  0  0  0
    6.7643  -16.6843   21.1772 C   0  0  2  0  0  0  0  0  0  0  0  0
    6.6979  -15.9145   19.9425 N   0  0  0  0  0  0  0  0  0  0  0  0
    7.9096  -16.2025   21.9763 C   0  0  0  0  0  0  0  0  0  0  0  0
    8.7707  -15.4742   21.4257 O   0  0  0  0  0  0  0  0  0  0  0  0
    8.0890  -16.5158   23.3273 N   0  0  0  0  0  0  0  0  0  0  0  0
    9.1870  -15.9908   24.1140 C   0  0  1  0  0  0  0  0  0  0  0  0
    8.7022  -15.9418   25.5409 C   0  0  0  0  0  0  0  0  0  0  0  0
    7.5895  -15.0181   25.7644 C   0  0  0  0  0  0  0  0  0  0  0  0
    6.2326  -15.2815   25.8264 C   0  0  0  0  0  0  0  0  0  0  0  0
    5.5800  -14.1460   26.0480 N   0  0  0  0  0  0  0  0  0  0  0  0
    6.4337  -13.0933   26.1437 C   0  0  0  0  0  0  0  0  0  0  0  0
    6.2675  -11.7506   26.3597 C   0  0  0  0  0  0  0  0  0  0  0  0
    7.3566  -10.9237   26.4030 C   0  0  0  0  0  0  0  0  0  0  0  0
    8.6149  -11.4580   26.2272 C   0  0  0  0  0  0  0  0  0  0  0  0
    8.7763  -12.8049   26.0109 C   0  0  0  0  0  0  0  0  0  0  0  0
    7.6920  -13.6460   25.9651 C   0  0  0  0  0  0  0  0  0  0  0  0
   10.4269  -16.7411   23.9450 C   0  0  0  0  0  0  0  0  0  0  0  0
   10.3884  -17.9958   24.0224 O   0  0  0  0  0  0  0  0  0  0  0  0
   11.7132  -16.1593   23.6927 N   0  0  0  0  0  0  0  0  0  0  0  0
   12.8710  -16.9742   23.3914 C   0  0  1  0  0  0  0  0  0  0  0  0
   13.9124  -16.1666   22.6239 C   0  0  0  0  0  0  0  0  0  0  0  0
   15.1154  -17.0325   22.4019 C   0  0  0  0  0  0  0  0  0  0  0  0
   15.7159  -16.9124   21.0485 C   0  0  0  0  0  0  0  0  0  0  0  0
   16.9321  -16.0597   20.9402 C   0  0  0  0  0  0  0  0  0  0  0  0
   17.5485  -16.0088   19.6561 N   0  0  0  0  0  0  0  0  0  0  0  0
   13.4326  -17.4625   24.6650 C   0  0  0  0  0  0  0  0  0  0  0  0
   14.3611  -18.3025   24.6672 O   0  0  0  0  0  0  0  0  0  0  0  0
   12.9446  -17.0022   25.8721 O   0  0  0  0  0  0  0  0  0  0  0  0
  1  2  1  0
  2  3  1  0
  3  5  1  0
  3  4  1  6
  5  6  2  0
  7  8  1  0
  7  5  1  0
  9 10  1  0
  8  9  1  1
 10 11  2  0
 12 11  1  0
 13 12  1  0
 14 13  2  0
 15 14  1  0
 16 15  2  0
 16 17  1  0
 17 18  2  0
 18 13  1  0
 18 10  1  0
 19 20  2  0
 19  8  1  0
 21 19  1  0
 22 21  1  0
 22 28  1  0
 22 23  1  1
 24 23  1  0
 25 24  1  0
 26 25  1  0
 27 26  1  0
 28 29  2  0
 28 30  1  0
M  END
$$$$
