SWK.pdb
     RDKit          3D

 30 31  0  0  1  0  0  0  0  0999 V2000
    9.3006  -15.4607   17.7507 O   0  0  0  0  0  0  0  0  0  0  0  0
    7.9653  -15.1301   17.7494 C   0  0  0  0  0  0  0  0  0  0  0  0
    7.6426  -13.9125   18.5848 C   0  0  2  0  0  0  0  0  0  0  0  0
    8.3327  -12.7685   18.0049 N   0  0  0  0  0  0  0  0  0  0  0  0
    8.1609  -14.1381   19.9497 C   0  0  0  0  0  0  0  0  0  0  0  0
    9.3116  -13.7283   20.2377 O   0  0  0  0  0  0  0  0  0  0  0  0
    7.4320  -14.7893   20.9498 N   0  0  0  0  0  0  0  0  0  0  0  0
    7.8730  -14.8467   22.3290 C   0  0  1  0  0  0  0  0  0  0  0  0
    6.6306  -15.0193   23.1657 C   0  0  0  0  0  0  0  0  0  0  0  0
    6.8519  -14.8723   24.6048 C   0  0  0  0  0  0  0  0  0  0  0  0
    7.0115  -15.8508   25.5699 C   0  0  0  0  0  0  0  0  0  0  0  0
    7.1891  -15.2699   26.7512 N   0  0  0  0  0  0  0  0  0  0  0  0
    7.1595  -13.9154   26.6478 C   0  0  0  0  0  0  0  0  0  0  0  0
    7.2884  -12.8899   27.5472 C   0  0  0  0  0  0  0  0  0  0  0  0
    7.2091  -11.5919   27.1222 C   0  0  0  0  0  0  0  0  0  0  0  0
    6.9990  -11.3331   25.7849 C   0  0  0  0  0  0  0  0  0  0  0  0
    6.8704  -12.3648   24.8870 C   0  0  0  0  0  0  0  0  0  0  0  0
    6.9479  -13.6720   25.3000 C   0  0  0  0  0  0  0  0  0  0  0  0
    8.8839  -15.8712   22.5683 C   0  0  0  0  0  0  0  0  0  0  0  0
    8.7021  -17.0212   22.0925 O   0  0  0  0  0  0  0  0  0  0  0  0
   10.0928  -15.6763   23.3148 N   0  0  0  0  0  0  0  0  0  0  0  0
   11.0629  -16.7375   23.4825 C   0  0  1  0  0  0  0  0  0  0  0  0
   12.4778  -16.1704   23.5302 C   0  0  0  0  0  0  0  0  0  0  0  0
   13.4381  -17.3058   23.7178 C   0  0  0  0  0  0  0  0  0  0  0  0
   14.4608  -17.4270   22.6472 C   0  0  0  0  0  0  0  0  0  0  0  0
   15.4387  -18.5408   22.7929 C   0  0  0  0  0  0  0  0  0  0  0  0
   16.4456  -18.6250   21.7876 N   0  0  0  0  0  0  0  0  0  0  0  0
   10.7505  -17.4512   24.7351 C   0  0  0  0  0  0  0  0  0  0  0  0
   11.2755  -18.5614   24.9795 O   0  0  0  0  0  0  0  0  0  0  0  0
    9.8764  -16.9078   25.6558 O   0  0  0  0  0  0  0  0  0  0  0  0
  1  2  1  0
  2  3  1  0
  3  5  1  0
  3  4  1  6
  5  6  2  0
  7  8  1  0
  7  5  1  0
  9 10  1  0
  8  9  1  1
 10 11  2  0
 12 11  1  0
 13 12  1  0
 14 13  2  0
 15 14  1  0
 16 15  2  0
 16 17  1  0
 17 18  2  0
 18 13  1  0
 18 10  1  0
 19 20  2  0
 19  8  1  0
 21 19  1  0
 22 21  1  0
 22 28  1  0
 22 23  1  1
 24 23  1  0
 25 24  1  0
 26 25  1  0
 27 26  1  0
 28 29  2  0
 28 30  1  0
M  END
$$$$
