SWK.pdb
     RDKit          3D

 30 31  0  0  1  0  0  0  0  0999 V2000
    8.5472  -17.7259   20.1291 O   0  0  0  0  0  0  0  0  0  0  0  0
    7.2795  -17.3067   20.4599 C   0  0  0  0  0  0  0  0  0  0  0  0
    7.2306  -15.8964   21.0013 C   0  0  2  0  0  0  0  0  0  0  0  0
    7.6858  -14.9923   19.9540 N   0  0  0  0  0  0  0  0  0  0  0  0
    8.1627  -15.8076   22.1439 C   0  0  0  0  0  0  0  0  0  0  0  0
    9.3058  -15.3236   21.9589 O   0  0  0  0  0  0  0  0  0  0  0  0
    7.8381  -16.2368   23.4346 N   0  0  0  0  0  0  0  0  0  0  0  0
    8.7957  -16.2420   24.5223 C   0  0  1  0  0  0  0  0  0  0  0  0
    7.9908  -16.2404   25.7973 C   0  0  0  0  0  0  0  0  0  0  0  0
    7.0542  -15.1220   25.9133 C   0  0  0  0  0  0  0  0  0  0  0  0
    5.6724  -15.1269   25.8421 C   0  0  0  0  0  0  0  0  0  0  0  0
    5.2255  -13.8863   26.0016 N   0  0  0  0  0  0  0  0  0  0  0  0
    6.2478  -13.0097   26.1824 C   0  0  0  0  0  0  0  0  0  0  0  0
    6.3158  -11.6562   26.3843 C   0  0  0  0  0  0  0  0  0  0  0  0
    7.5310  -11.0462   26.5354 C   0  0  0  0  0  0  0  0  0  0  0  0
    8.6781  -11.8084   26.4819 C   0  0  0  0  0  0  0  0  0  0  0  0
    8.6047  -13.1651   26.2794 C   0  0  0  0  0  0  0  0  0  0  0  0
    7.3918  -13.7900   26.1262 C   0  0  0  0  0  0  0  0  0  0  0  0
    9.7549  -17.3383   24.4399 C   0  0  0  0  0  0  0  0  0  0  0  0
    9.7112  -18.1049   23.4438 O   0  0  0  0  0  0  0  0  0  0  0  0
   10.7650  -17.6235   25.4172 N   0  0  0  0  0  0  0  0  0  0  0  0
   11.7722  -18.6394   25.1963 C   0  0  1  0  0  0  0  0  0  0  0  0
   12.5799  -18.3322   23.9398 C   0  0  0  0  0  0  0  0  0  0  0  0
   13.6116  -19.4051   23.7646 C   0  0  0  0  0  0  0  0  0  0  0  0
   14.8177  -18.9785   23.0094 C   0  0  0  0  0  0  0  0  0  0  0  0
   15.7167  -20.0664   22.5339 C   0  0  0  0  0  0  0  0  0  0  0  0
   16.9441  -19.6498   21.9411 N   0  0  0  0  0  0  0  0  0  0  0  0
   12.6526  -18.6777   26.3792 C   0  0  0  0  0  0  0  0  0  0  0  0
   13.6288  -19.4609   26.4172 O   0  0  0  0  0  0  0  0  0  0  0  0
   12.4150  -17.8525   27.4608 O   0  0  0  0  0  0  0  0  0  0  0  0
  1  2  1  0
  2  3  1  0
  3  5  1  0
  3  4  1  6
  5  6  2  0
  7  8  1  0
  7  5  1  0
  9 10  1  0
  8  9  1  1
 10 11  2  0
 12 11  1  0
 13 12  1  0
 14 13  2  0
 15 14  1  0
 16 15  2  0
 16 17  1  0
 17 18  2  0
 18 13  1  0
 18 10  1  0
 19 20  2  0
 19  8  1  0
 21 19  1  0
 22 21  1  0
 22 28  1  0
 22 23  1  6
 24 23  1  0
 25 24  1  0
 26 25  1  0
 27 26  1  0
 28 29  2  0
 28 30  1  0
M  END
$$$$
