SWK.pdb
     RDKit          3D

 30 31  0  0  1  0  0  0  0  0999 V2000
    8.0014  -18.5852   20.2448 O   0  0  0  0  0  0  0  0  0  0  0  0
    6.7573  -18.4627   20.8189 C   0  0  0  0  0  0  0  0  0  0  0  0
    6.4267  -17.0527   21.2513 C   0  0  2  0  0  0  0  0  0  0  0  0
    6.1363  -16.2686   20.0587 N   0  0  0  0  0  0  0  0  0  0  0  0
    7.6161  -16.4826   21.9167 C   0  0  0  0  0  0  0  0  0  0  0  0
    8.3972  -15.7609   21.2504 O   0  0  0  0  0  0  0  0  0  0  0  0
    7.9228  -16.7044   23.2629 N   0  0  0  0  0  0  0  0  0  0  0  0
    9.0860  -16.1276   23.9066 C   0  0  1  0  0  0  0  0  0  0  0  0
    8.7297  -15.9661   25.3628 C   0  0  0  0  0  0  0  0  0  0  0  0
    7.6101  -15.0563   25.6085 C   0  0  0  0  0  0  0  0  0  0  0  0
    6.2584  -15.3371   25.6996 C   0  0  0  0  0  0  0  0  0  0  0  0
    5.5961  -14.2097   25.9334 N   0  0  0  0  0  0  0  0  0  0  0  0
    6.4380  -13.1460   26.0094 C   0  0  0  0  0  0  0  0  0  0  0  0
    6.2592  -11.8051   26.2270 C   0  0  0  0  0  0  0  0  0  0  0  0
    7.3382  -10.9642   26.2460 C   0  0  0  0  0  0  0  0  0  0  0  0
    8.5992  -11.4826   26.0444 C   0  0  0  0  0  0  0  0  0  0  0  0
    8.7733  -12.8277   25.8267 C   0  0  0  0  0  0  0  0  0  0  0  0
    7.6992  -13.6828   25.8050 C   0  0  0  0  0  0  0  0  0  0  0  0
   10.3063  -16.8966   23.6868 C   0  0  0  0  0  0  0  0  0  0  0  0
   10.3447  -18.0920   24.0758 O   0  0  0  0  0  0  0  0  0  0  0  0
   11.4911  -16.3967   23.0519 N   0  0  0  0  0  0  0  0  0  0  0  0
   12.6288  -17.2507   22.7838 C   0  0  1  0  0  0  0  0  0  0  0  0
   13.1206  -17.0583   21.3531 C   0  0  0  0  0  0  0  0  0  0  0  0
   13.5186  -15.6242   21.1768 C   0  0  0  0  0  0  0  0  0  0  0  0
   14.0924  -15.3066   19.8438 C   0  0  0  0  0  0  0  0  0  0  0  0
   14.4396  -13.8792   19.5987 C   0  0  0  0  0  0  0  0  0  0  0  0
   14.9251  -13.5681   18.2952 N   0  0  0  0  0  0  0  0  0  0  0  0
   13.6942  -16.9114   23.7458 C   0  0  0  0  0  0  0  0  0  0  0  0
   13.5563  -15.9442   24.5289 O   0  0  0  0  0  0  0  0  0  0  0  0
   14.8580  -17.6532   23.7980 O   0  0  0  0  0  0  0  0  0  0  0  0
  1  2  1  0
  2  3  1  0
  3  5  1  0
  3  4  1  6
  5  6  2  0
  7  8  1  0
  7  5  1  0
  9 10  1  0
  8  9  1  1
 10 11  2  0
 12 11  1  0
 13 12  1  0
 14 13  2  0
 15 14  1  0
 16 15  2  0
 16 17  1  0
 17 18  2  0
 18 13  1  0
 18 10  1  0
 19 20  2  0
 19  8  1  0
 21 19  1  0
 22 21  1  0
 22 28  1  0
 22 23  1  6
 24 23  1  0
 25 24  1  0
 26 25  1  0
 27 26  1  0
 28 29  2  0
 28 30  1  0
M  END
$$$$
