SWK.pdb
     RDKit          3D

 30 31  0  0  1  0  0  0  0  0999 V2000
    7.7627  -18.4775   20.6880 O   0  0  0  0  0  0  0  0  0  0  0  0
    7.1162  -17.3953   20.1373 C   0  0  0  0  0  0  0  0  0  0  0  0
    6.5780  -16.4254   21.1640 C   0  0  2  0  0  0  0  0  0  0  0  0
    6.0022  -15.2895   20.4571 N   0  0  0  0  0  0  0  0  0  0  0  0
    7.7086  -15.9493   21.9871 C   0  0  0  0  0  0  0  0  0  0  0  0
    8.4403  -15.0322   21.5414 O   0  0  0  0  0  0  0  0  0  0  0  0
    8.0114  -16.4690   23.2495 N   0  0  0  0  0  0  0  0  0  0  0  0
    9.1545  -16.0289   24.0241 C   0  0  1  0  0  0  0  0  0  0  0  0
    8.7444  -16.1136   25.4726 C   0  0  0  0  0  0  0  0  0  0  0  0
    7.5813  -15.2942   25.8150 C   0  0  0  0  0  0  0  0  0  0  0  0
    6.2503  -15.6603   25.9093 C   0  0  0  0  0  0  0  0  0  0  0  0
    5.5310  -14.5966   26.2488 N   0  0  0  0  0  0  0  0  0  0  0  0
    6.3127  -13.4951   26.3963 C   0  0  0  0  0  0  0  0  0  0  0  0
    6.0633  -12.1893   26.7280 C   0  0  0  0  0  0  0  0  0  0  0  0
    7.0930  -11.2909   26.7955 C   0  0  0  0  0  0  0  0  0  0  0  0
    8.3761  -11.7162   26.5266 C   0  0  0  0  0  0  0  0  0  0  0  0
    8.6209  -13.0265   26.1945 C   0  0  0  0  0  0  0  0  0  0  0  0
    7.5970  -13.9385   26.1232 C   0  0  0  0  0  0  0  0  0  0  0  0
   10.3753  -16.7677   23.7196 C   0  0  0  0  0  0  0  0  0  0  0  0
   10.3068  -18.0159   23.5814 O   0  0  0  0  0  0  0  0  0  0  0  0
   11.6743  -16.1812   23.5609 N   0  0  0  0  0  0  0  0  0  0  0  0
   12.8395  -16.9840   23.2556 C   0  0  1  0  0  0  0  0  0  0  0  0
   13.1553  -16.9290   21.7647 C   0  0  0  0  0  0  0  0  0  0  0  0
   13.2007  -15.4919   21.3418 C   0  0  0  0  0  0  0  0  0  0  0  0
   13.4347  -15.2874   19.8891 C   0  0  0  0  0  0  0  0  0  0  0  0
   14.5011  -14.3140   19.5239 C   0  0  0  0  0  0  0  0  0  0  0  0
   14.6851  -14.0811   18.1298 N   0  0  0  0  0  0  0  0  0  0  0  0
   13.9737  -16.4648   24.0429 C   0  0  0  0  0  0  0  0  0  0  0  0
   15.1066  -16.9886   23.9431 O   0  0  0  0  0  0  0  0  0  0  0  0
   13.8047  -15.3956   24.9005 O   0  0  0  0  0  0  0  0  0  0  0  0
  1  2  1  0
  2  3  1  0
  3  5  1  0
  3  4  1  6
  5  6  2  0
  7  8  1  0
  7  5  1  0
  9 10  1  0
  8  9  1  1
 10 11  2  0
 12 11  1  0
 13 12  1  0
 14 13  2  0
 15 14  1  0
 16 15  2  0
 16 17  1  0
 17 18  2  0
 18 13  1  0
 18 10  1  0
 19 20  2  0
 19  8  1  0
 21 19  1  0
 22 21  1  0
 22 28  1  0
 22 23  1  6
 24 23  1  0
 25 24  1  0
 26 25  1  0
 27 26  1  0
 28 29  2  0
 28 30  1  0
M  END
$$$$
