SWK.pdb
     RDKit          3D

 30 31  0  0  1  0  0  0  0  0999 V2000
    8.6934  -18.1106   19.6649 O   0  0  0  0  0  0  0  0  0  0  0  0
    7.4563  -18.0848   20.2660 C   0  0  0  0  0  0  0  0  0  0  0  0
    7.0498  -16.7136   20.7549 C   0  0  2  0  0  0  0  0  0  0  0  0
    7.0300  -15.8117   19.6114 N   0  0  0  0  0  0  0  0  0  0  0  0
    8.0707  -16.2433   21.7134 C   0  0  0  0  0  0  0  0  0  0  0  0
    8.9270  -15.4104   21.3286 O   0  0  0  0  0  0  0  0  0  0  0  0
    8.1362  -16.6789   23.0406 N   0  0  0  0  0  0  0  0  0  0  0  0
    9.2029  -16.2897   23.9410 C   0  0  1  0  0  0  0  0  0  0  0  0
    8.6319  -16.3660   25.3345 C   0  0  0  0  0  0  0  0  0  0  0  0
    7.5094  -15.4579   25.5727 C   0  0  0  0  0  0  0  0  0  0  0  0
    6.1506  -15.7078   25.4972 C   0  0  0  0  0  0  0  0  0  0  0  0
    5.4880  -14.5955   25.7938 N   0  0  0  0  0  0  0  0  0  0  0  0
    6.3364  -13.5722   26.0752 C   0  0  0  0  0  0  0  0  0  0  0  0
    6.1601  -12.2601   26.4281 C   0  0  0  0  0  0  0  0  0  0  0  0
    7.2462  -11.4585   26.6506 C   0  0  0  0  0  0  0  0  0  0  0  0
    8.5119  -11.9871   26.5152 C   0  0  0  0  0  0  0  0  0  0  0  0
    8.6834  -13.3032   26.1612 C   0  0  0  0  0  0  0  0  0  0  0  0
    7.6023  -14.1187   25.9350 C   0  0  0  0  0  0  0  0  0  0  0  0
   10.4198  -17.0754   23.7658 C   0  0  0  0  0  0  0  0  0  0  0  0
   10.3148  -18.2896   23.4553 O   0  0  0  0  0  0  0  0  0  0  0  0
   11.7538  -16.5722   23.9202 N   0  0  0  0  0  0  0  0  0  0  0  0
   12.9135  -17.3935   23.6445 C   0  0  1  0  0  0  0  0  0  0  0  0
   13.8880  -16.6589   22.7300 C   0  0  0  0  0  0  0  0  0  0  0  0
   15.0301  -17.5777   22.4175 C   0  0  0  0  0  0  0  0  0  0  0  0
   16.0777  -16.9804   21.5499 C   0  0  0  0  0  0  0  0  0  0  0  0
   17.1894  -17.8835   21.1418 C   0  0  0  0  0  0  0  0  0  0  0  0
   18.0500  -17.3931   20.1169 N   0  0  0  0  0  0  0  0  0  0  0  0
   13.5593  -17.7219   24.9294 C   0  0  0  0  0  0  0  0  0  0  0  0
   13.2795  -17.0732   25.9632 O   0  0  0  0  0  0  0  0  0  0  0  0
   14.4804  -18.7475   25.0125 O   0  0  0  0  0  0  0  0  0  0  0  0
  1  2  1  0
  2  3  1  0
  3  5  1  0
  3  4  1  6
  5  6  2  0
  7  8  1  0
  7  5  1  0
  9 10  1  0
  8  9  1  1
 10 11  2  0
 12 11  1  0
 13 12  1  0
 14 13  2  0
 15 14  1  0
 16 15  2  0
 16 17  1  0
 17 18  2  0
 18 13  1  0
 18 10  1  0
 19 20  2  0
 19  8  1  0
 21 19  1  0
 22 21  1  0
 22 28  1  0
 22 23  1  6
 24 23  1  0
 25 24  1  0
 26 25  1  0
 27 26  1  0
 28 29  2  0
 28 30  1  0
M  END
$$$$
