CDN.pdb
     RDKit          3D

 23 22  0  0  1  0  0  0  0  0999 V2000
   16.6516  -11.9171  -16.3739 N   0  0  0  0  0  0  0  0  0  0  0  0
   17.5674  -12.2545  -15.3161 C   0  0  1  0  0  0  0  0  0  0  0  0
   17.7378  -13.7322  -15.1332 C   0  0  0  0  0  0  0  0  0  0  0  0
   16.1655  -14.6233  -15.2906 S   0  0  0  0  0  0  0  0  0  0  0  0
   18.8955  -11.6259  -15.5637 C   0  0  0  0  0  0  0  0  0  0  0  0
   19.8331  -11.8224  -14.7197 O   0  0  0  0  0  0  0  0  0  0  0  0
   19.0962  -10.8330  -16.7128 N   0  0  0  0  0  0  0  0  0  0  0  0
   20.4196  -10.2235  -16.9189 C   0  0  1  0  0  0  0  0  0  0  0  0
   20.7565  -10.2899  -18.3982 C   0  0  0  0  0  0  0  0  0  0  0  0
   22.0154   -9.6237  -18.7573 C   0  0  0  0  0  0  0  0  0  0  0  0
   22.0840   -8.9855  -19.8459 O   0  0  0  0  0  0  0  0  0  0  0  0
   20.3303   -8.8627  -16.3835 C   0  0  0  0  0  0  0  0  0  0  0  0
   19.2757   -8.1406  -16.4951 O   0  0  0  0  0  0  0  0  0  0  0  0
   23.1213   -9.6856  -17.9249 O   0  0  0  0  0  0  0  0  0  0  0  0
   22.9239   -4.5773  -13.2311 N   0  0  0  0  0  0  0  0  0  0  0  0
   21.8106   -5.4719  -13.1966 C   0  0  0  0  0  0  0  0  0  0  0  0
   20.7733   -5.0567  -12.6316 O   0  0  0  0  0  0  0  0  0  0  0  0
   21.8834   -6.8137  -13.7927 C   0  0  0  0  0  0  0  0  0  0  0  0
   21.2891   -6.8461  -15.1987 C   0  0  2  0  0  0  0  0  0  0  0  0
   21.3784   -8.1779  -15.6820 N   0  0  0  0  0  0  0  0  0  0  0  0
   21.7955   -5.8031  -16.0565 C   0  0  0  0  0  0  0  0  0  0  0  0
   22.7519   -5.9906  -16.8247 O   0  0  0  0  0  0  0  0  0  0  0  0
   21.2248   -4.5527  -16.0473 O   0  0  0  0  0  0  0  0  0  0  0  0
  2  1  1  6
  2  5  1  0
  3  2  1  0
  4  3  1  0
  5  6  2  0
  7  8  1  0
  7  5  1  0
  8 12  1  0
  8  9  1  6
 10  9  1  0
 11 10  2  0
 12 20  1  0
 12 13  2  0
 14 10  1  0
 15 16  1  0
 16 17  2  0
 16 18  1  0
 19 18  1  1
 19 21  1  0
 20 19  1  0
 21 22  2  0
 21 23  1  0
M  END
$$$$
