CDN.pdb
     RDKit          3D

 23 22  0  0  1  0  0  0  0  0999 V2000
   18.5735  -14.9410  -16.6849 N   0  0  0  0  0  0  0  0  0  0  0  0
   18.5286  -13.8167  -17.5823 C   0  0  1  0  0  0  0  0  0  0  0  0
   17.1715  -13.1873  -17.6709 C   0  0  0  0  0  0  0  0  0  0  0  0
   15.9045  -14.3729  -18.2000 S   0  0  0  0  0  0  0  0  0  0  0  0
   19.5289  -12.7906  -17.1738 C   0  0  0  0  0  0  0  0  0  0  0  0
   19.7292  -12.5921  -15.9285 O   0  0  0  0  0  0  0  0  0  0  0  0
   20.2322  -12.0625  -18.1559 N   0  0  0  0  0  0  0  0  0  0  0  0
   21.2719  -11.1188  -17.7154 C   0  0  1  0  0  0  0  0  0  0  0  0
   22.3872  -11.1137  -18.7460 C   0  0  0  0  0  0  0  0  0  0  0  0
   23.4636  -10.1559  -18.4605 C   0  0  0  0  0  0  0  0  0  0  0  0
   23.4712   -9.5534  -17.3497 O   0  0  0  0  0  0  0  0  0  0  0  0
   20.6043   -9.8257  -17.5461 C   0  0  0  0  0  0  0  0  0  0  0  0
   19.8002   -9.3398  -18.4198 O   0  0  0  0  0  0  0  0  0  0  0  0
   24.4635   -9.9052  -19.3862 O   0  0  0  0  0  0  0  0  0  0  0  0
   18.7137   -5.3307  -15.8049 N   0  0  0  0  0  0  0  0  0  0  0  0
   18.4043   -6.4731  -15.0048 C   0  0  0  0  0  0  0  0  0  0  0  0
   17.4810   -6.3410  -14.1697 O   0  0  0  0  0  0  0  0  0  0  0  0
   19.1377   -7.7384  -15.1547 C   0  0  0  0  0  0  0  0  0  0  0  0
   20.1537   -7.6772  -16.2927 C   0  0  2  0  0  0  0  0  0  0  0  0
   20.7548   -8.9577  -16.4131 N   0  0  0  0  0  0  0  0  0  0  0  0
   21.0405   -6.5434  -16.2057 C   0  0  0  0  0  0  0  0  0  0  0  0
   21.9624   -6.4922  -15.3765 O   0  0  0  0  0  0  0  0  0  0  0  0
   20.8878   -5.4706  -17.0514 O   0  0  0  0  0  0  0  0  0  0  0  0
  2  1  1  1
  2  5  1  0
  3  2  1  0
  4  3  1  0
  5  6  2  0
  7  8  1  0
  7  5  1  0
  8 12  1  0
  8  9  1  6
 10  9  1  0
 11 10  2  0
 12 20  1  0
 12 13  2  0
 14 10  1  0
 15 16  1  0
 16 17  2  0
 16 18  1  0
 19 18  1  1
 19 21  1  0
 20 19  1  0
 21 22  2  0
 21 23  1  0
M  END
$$$$
