CDN.pdb
     RDKit          3D

 23 22  0  0  1  0  0  0  0  0999 V2000
   20.2440  -15.4294  -16.5252 N   0  0  0  0  0  0  0  0  0  0  0  0
   19.6642  -14.1123  -16.5059 C   0  0  1  0  0  0  0  0  0  0  0  0
   18.8843  -13.8300  -15.2577 C   0  0  0  0  0  0  0  0  0  0  0  0
   17.4233  -14.8956  -15.1124 S   0  0  0  0  0  0  0  0  0  0  0  0
   20.7246  -13.0794  -16.6760 C   0  0  0  0  0  0  0  0  0  0  0  0
   21.8995  -13.3308  -16.2438 O   0  0  0  0  0  0  0  0  0  0  0  0
   20.4201  -11.8541  -17.3046 N   0  0  0  0  0  0  0  0  0  0  0  0
   21.5021  -10.8731  -17.4847 C   0  0  1  0  0  0  0  0  0  0  0  0
   21.7394  -10.6839  -18.9727 C   0  0  0  0  0  0  0  0  0  0  0  0
   22.7477   -9.6655  -19.2946 C   0  0  0  0  0  0  0  0  0  0  0  0
   23.6903   -9.4549  -18.4798 O   0  0  0  0  0  0  0  0  0  0  0  0
   21.0730   -9.6592  -16.7856 C   0  0  0  0  0  0  0  0  0  0  0  0
   19.8769   -9.2009  -16.8605 O   0  0  0  0  0  0  0  0  0  0  0  0
   22.6796   -8.9370  -20.4712 O   0  0  0  0  0  0  0  0  0  0  0  0
   20.9251   -5.3722  -13.7916 N   0  0  0  0  0  0  0  0  0  0  0  0
   22.1579   -6.0489  -13.5401 C   0  0  0  0  0  0  0  0  0  0  0  0
   22.9149   -5.5381  -12.6837 O   0  0  0  0  0  0  0  0  0  0  0  0
   22.5183   -7.2817  -14.2553 C   0  0  0  0  0  0  0  0  0  0  0  0
   21.4996   -7.6318  -15.3373 C   0  0  2  0  0  0  0  0  0  0  0  0
   21.9080   -8.8469  -15.9473 N   0  0  0  0  0  0  0  0  0  0  0  0
   21.1973   -6.5281  -16.2150 C   0  0  0  0  0  0  0  0  0  0  0  0
   20.1550   -5.8643  -16.1010 O   0  0  0  0  0  0  0  0  0  0  0  0
   22.0680   -6.1746  -17.2181 O   0  0  0  0  0  0  0  0  0  0  0  0
  2  1  1  1
  2  5  1  0
  3  2  1  0
  4  3  1  0
  5  6  2  0
  7  8  1  0
  7  5  1  0
  8 12  1  0
  8  9  1  6
 10  9  1  0
 11 10  2  0
 12 20  1  0
 12 13  2  0
 14 10  1  0
 15 16  1  0
 16 17  2  0
 16 18  1  0
 19 18  1  1
 19 21  1  0
 20 19  1  0
 21 22  2  0
 21 23  1  0
M  END
$$$$
