CDN.pdb
     RDKit          3D

 23 22  0  0  1  0  0  0  0  0999 V2000
   27.3554  -20.9590  -11.9568 N   0  0  0  0  0  0  0  0  0  0  0  0
   25.9876  -21.1565  -11.5551 C   0  0  1  0  0  0  0  0  0  0  0  0
   25.6912  -20.6177  -10.1884 C   0  0  0  0  0  0  0  0  0  0  0  0
   27.0253  -20.9747   -9.0120 S   0  0  0  0  0  0  0  0  0  0  0  0
   25.0642  -20.5367  -12.5468 C   0  0  0  0  0  0  0  0  0  0  0  0
   24.5814  -19.3817  -12.2958 O   0  0  0  0  0  0  0  0  0  0  0  0
   24.7407  -21.2256  -13.7343 N   0  0  0  0  0  0  0  0  0  0  0  0
   23.9078  -20.5400  -14.7352 C   0  0  1  0  0  0  0  0  0  0  0  0
   24.7079  -20.4061  -16.0190 C   0  0  0  0  0  0  0  0  0  0  0  0
   25.9012  -19.5583  -15.8966 C   0  0  0  0  0  0  0  0  0  0  0  0
   25.7595  -18.3361  -15.6085 O   0  0  0  0  0  0  0  0  0  0  0  0
   22.6878  -21.3401  -14.8683 C   0  0  0  0  0  0  0  0  0  0  0  0
   22.6438  -22.5911  -14.5867 O   0  0  0  0  0  0  0  0  0  0  0  0
   27.1711  -20.0766  -16.0918 O   0  0  0  0  0  0  0  0  0  0  0  0
   18.0249  -22.8997  -13.9537 N   0  0  0  0  0  0  0  0  0  0  0  0
   18.9550  -22.3570  -13.0149 C   0  0  0  0  0  0  0  0  0  0  0  0
   18.7220  -22.5730  -11.8039 O   0  0  0  0  0  0  0  0  0  0  0  0
   20.1247  -21.5812  -13.4520 C   0  0  0  0  0  0  0  0  0  0  0  0
   20.1630  -21.4131  -14.9690 C   0  0  2  0  0  0  0  0  0  0  0  0
   21.4171  -20.8452  -15.3157 N   0  0  0  0  0  0  0  0  0  0  0  0
   18.9853  -20.7740  -15.5022 C   0  0  0  0  0  0  0  0  0  0  0  0
   18.6153  -19.6532  -15.1191 O   0  0  0  0  0  0  0  0  0  0  0  0
   18.2274  -21.3976  -16.4645 O   0  0  0  0  0  0  0  0  0  0  0  0
  2  1  1  6
  2  5  1  0
  3  2  1  0
  4  3  1  0
  5  6  2  0
  7  8  1  0
  7  5  1  0
  8 12  1  0
  8  9  1  6
 10  9  1  0
 11 10  2  0
 12 20  1  0
 12 13  2  0
 14 10  1  0
 15 16  1  0
 16 17  2  0
 16 18  1  0
 19 18  1  1
 19 21  1  0
 20 19  1  0
 21 22  2  0
 21 23  1  0
M  END
$$$$
