CDN.pdb
     RDKit          3D

 23 22  0  0  1  0  0  0  0  0999 V2000
   19.2522  -12.8958  -14.7664 N   0  0  0  0  0  0  0  0  0  0  0  0
   19.1421  -12.4698  -16.1367 C   0  0  1  0  0  0  0  0  0  0  0  0
   18.3684  -13.4276  -16.9911 C   0  0  0  0  0  0  0  0  0  0  0  0
   18.8420  -15.1512  -16.6817 S   0  0  0  0  0  0  0  0  0  0  0  0
   18.5162  -11.1195  -16.2082 C   0  0  0  0  0  0  0  0  0  0  0  0
   18.4515  -10.5336  -17.3408 O   0  0  0  0  0  0  0  0  0  0  0  0
   18.0098  -10.5150  -15.0389 N   0  0  0  0  0  0  0  0  0  0  0  0
   17.4224   -9.1699  -15.1455 C   0  0  1  0  0  0  0  0  0  0  0  0
   16.0395   -9.1960  -14.5186 C   0  0  0  0  0  0  0  0  0  0  0  0
   15.0719  -10.0376  -15.2348 C   0  0  0  0  0  0  0  0  0  0  0  0
   14.9311   -9.8870  -16.4816 O   0  0  0  0  0  0  0  0  0  0  0  0
   18.3635   -8.2602  -14.4874 C   0  0  0  0  0  0  0  0  0  0  0  0
   18.7089   -8.3885  -13.2585 O   0  0  0  0  0  0  0  0  0  0  0  0
   14.3161  -10.9874  -14.5667 O   0  0  0  0  0  0  0  0  0  0  0  0
   22.5201   -5.6081  -12.6619 N   0  0  0  0  0  0  0  0  0  0  0  0
   22.1899   -5.5840  -14.0517 C   0  0  0  0  0  0  0  0  0  0  0  0
   22.7170   -4.6800  -14.7389 O   0  0  0  0  0  0  0  0  0  0  0  0
   21.2739   -6.5708  -14.6417 C   0  0  0  0  0  0  0  0  0  0  0  0
   19.8109   -6.1886  -14.4306 C   0  0  2  0  0  0  0  0  0  0  0  0
   19.0065   -7.1394  -15.1119 N   0  0  0  0  0  0  0  0  0  0  0  0
   19.5415   -4.7961  -14.6918 C   0  0  0  0  0  0  0  0  0  0  0  0
   19.0303   -4.4141  -15.7562 O   0  0  0  0  0  0  0  0  0  0  0  0
   19.8479   -3.8377  -13.7554 O   0  0  0  0  0  0  0  0  0  0  0  0
  2  1  1  1
  2  5  1  0
  3  2  1  0
  4  3  1  0
  5  6  2  0
  7  8  1  0
  7  5  1  0
  8 12  1  0
  8  9  1  1
 10  9  1  0
 11 10  2  0
 12 20  1  0
 12 13  2  0
 14 10  1  0
 15 16  1  0
 16 17  2  0
 16 18  1  0
 19 18  1  6
 19 21  1  0
 20 19  1  0
 21 22  2  0
 21 23  1  0
M  END
$$$$
