CDN.pdb
     RDKit          3D

 23 22  0  0  1  0  0  0  0  0999 V2000
   14.3586  -14.2837  -11.7170 N   0  0  0  0  0  0  0  0  0  0  0  0
   13.8414  -12.9490  -11.8666 C   0  0  1  0  0  0  0  0  0  0  0  0
   12.6902  -12.6572  -10.9526 C   0  0  0  0  0  0  0  0  0  0  0  0
   11.2687  -13.7347  -11.2832 S   0  0  0  0  0  0  0  0  0  0  0  0
   14.9228  -11.9488  -11.6420 C   0  0  0  0  0  0  0  0  0  0  0  0
   15.7449  -12.1402  -10.6840 O   0  0  0  0  0  0  0  0  0  0  0  0
   15.0225  -10.8190  -12.4804 N   0  0  0  0  0  0  0  0  0  0  0  0
   16.1655   -9.9106  -12.2962 C   0  0  1  0  0  0  0  0  0  0  0  0
   16.7313   -9.5635  -13.6621 C   0  0  0  0  0  0  0  0  0  0  0  0
   17.8184   -8.5763  -13.6280 C   0  0  0  0  0  0  0  0  0  0  0  0
   18.6595   -8.6208  -12.6859 O   0  0  0  0  0  0  0  0  0  0  0  0
   15.6556   -8.7595  -11.5469 C   0  0  0  0  0  0  0  0  0  0  0  0
   14.5559   -8.1694  -11.8444 O   0  0  0  0  0  0  0  0  0  0  0  0
   17.9332   -7.6031  -14.6075 O   0  0  0  0  0  0  0  0  0  0  0  0
   14.9677   -4.8010   -8.2589 N   0  0  0  0  0  0  0  0  0  0  0  0
   15.2213   -6.0336   -7.5825 C   0  0  0  0  0  0  0  0  0  0  0  0
   15.0377   -6.0432   -6.3441 O   0  0  0  0  0  0  0  0  0  0  0  0
   15.6782   -7.2284   -8.3068 C   0  0  0  0  0  0  0  0  0  0  0  0
   15.8790   -6.9512   -9.7948 C   0  0  2  0  0  0  0  0  0  0  0  0
   16.2981   -8.1585  -10.4131 N   0  0  0  0  0  0  0  0  0  0  0  0
   16.6704   -5.7739  -10.0542 C   0  0  0  0  0  0  0  0  0  0  0  0
   16.3055   -4.6441   -9.6931 O   0  0  0  0  0  0  0  0  0  0  0  0
   17.8695   -5.8709  -10.7191 O   0  0  0  0  0  0  0  0  0  0  0  0
  2  1  1  1
  2  5  1  0
  3  2  1  0
  4  3  1  0
  5  6  2  0
  7  8  1  0
  7  5  1  0
  8 12  1  0
  8  9  1  6
 10  9  1  0
 11 10  2  0
 12 20  1  0
 12 13  2  0
 14 10  1  0
 15 16  1  0
 16 17  2  0
 16 18  1  0
 19 18  1  1
 19 21  1  0
 20 19  1  0
 21 22  2  0
 21 23  1  0
M  END
$$$$
