TDA.pdb
     RDKit          3D

 21 20  0  0  1  0  0  0  0  0999 V2000
    7.9975  -11.6976   19.0648 C   0  0  0  0  0  0  0  0  0  0  0  0
    8.8772  -12.7948   19.6306 C   0  0  1  0  0  0  0  0  0  0  0  0
    8.1616  -13.3697   20.6931 O   0  0  0  0  0  0  0  0  0  0  0  0
    9.0828  -13.8145   18.5592 C   0  0  2  0  0  0  0  0  0  0  0  0
    7.7900  -14.2418   18.0940 N   0  0  0  0  0  0  0  0  0  0  0  0
    9.8901  -14.9739   18.9533 C   0  0  0  0  0  0  0  0  0  0  0  0
    9.2661  -16.0173   19.2564 O   0  0  0  0  0  0  0  0  0  0  0  0
   11.2959  -15.0069   19.0172 N   0  0  0  0  0  0  0  0  0  0  0  0
   12.1041  -16.0530   19.5301 C   0  0  1  0  0  0  0  0  0  0  0  0
   13.4215  -16.2766   18.8897 C   0  0  0  0  0  0  0  0  0  0  0  0
   13.3075  -16.7465   17.4854 C   0  0  0  0  0  0  0  0  0  0  0  0
   12.4752  -17.6340   17.1677 O   0  0  0  0  0  0  0  0  0  0  0  0
   12.2309  -15.9488   21.0293 C   0  0  0  0  0  0  0  0  0  0  0  0
   12.8660  -15.0056   21.5677 O   0  0  0  0  0  0  0  0  0  0  0  0
   14.0955  -16.2451   16.4614 O   0  0  0  0  0  0  0  0  0  0  0  0
   10.2961  -17.1542   23.9288 C   0  0  0  0  0  0  0  0  0  0  0  0
   11.6056  -16.6868   23.3170 C   0  0  2  0  0  0  0  0  0  0  0  0
   11.6429  -16.9048   21.8991 N   0  0  0  0  0  0  0  0  0  0  0  0
   12.6930  -17.4378   23.9985 C   0  0  0  0  0  0  0  0  0  0  0  0
   13.0679  -17.2085   25.2967 O   0  0  0  0  0  0  0  0  0  0  0  0
   13.3073  -18.3415   23.3392 O   0  0  0  0  0  0  0  0  0  0  0  0
  2  1  1  6
  2  4  1  0
  2  3  1  0
  4  5  1  1
  6  4  1  0
  7  6  2  0
  8  6  1  0
  9 13  1  0
  9  8  1  0
  9 10  1  6
 11 15  1  0
 11 10  1  0
 12 11  2  0
 13 18  1  0
 14 13  2  0
 17 16  1  1
 17 19  1  0
 18 17  1  0
 19 21  2  0
 19 20  1  0
M  END
$$$$
