TDA.pdb
     RDKit          3D

 21 20  0  0  1  0  0  0  0  0999 V2000
    7.4331  -11.9852   18.9231 C   0  0  0  0  0  0  0  0  0  0  0  0
    8.5744  -12.8314   19.4515 C   0  0  1  0  0  0  0  0  0  0  0  0
    8.0257  -13.6687   20.4361 O   0  0  0  0  0  0  0  0  0  0  0  0
    9.0894  -13.6616   18.3222 C   0  0  2  0  0  0  0  0  0  0  0  0
    7.9944  -14.4353   17.7999 N   0  0  0  0  0  0  0  0  0  0  0  0
   10.2157  -14.5382   18.6603 C   0  0  0  0  0  0  0  0  0  0  0  0
    9.9828  -15.7692   18.6858 O   0  0  0  0  0  0  0  0  0  0  0  0
   11.5239  -14.1107   18.9552 N   0  0  0  0  0  0  0  0  0  0  0  0
   12.6370  -14.9265   19.2813 C   0  0  1  0  0  0  0  0  0  0  0  0
   13.9639  -14.5094   18.7706 C   0  0  0  0  0  0  0  0  0  0  0  0
   15.0134  -15.5383   18.9844 C   0  0  0  0  0  0  0  0  0  0  0  0
   14.7054  -16.7334   19.2256 O   0  0  0  0  0  0  0  0  0  0  0  0
   12.6807  -15.2098   20.7619 C   0  0  0  0  0  0  0  0  0  0  0  0
   13.3367  -14.4790   21.5483 O   0  0  0  0  0  0  0  0  0  0  0  0
   16.3678  -15.2490   18.9322 O   0  0  0  0  0  0  0  0  0  0  0  0
   10.8302  -17.4090   23.1914 C   0  0  0  0  0  0  0  0  0  0  0  0
   11.9776  -16.5140   22.7554 C   0  0  2  0  0  0  0  0  0  0  0  0
   11.9874  -16.3084   21.3352 N   0  0  0  0  0  0  0  0  0  0  0  0
   13.2332  -17.1713   23.2055 C   0  0  0  0  0  0  0  0  0  0  0  0
   13.5440  -17.3789   24.5241 O   0  0  0  0  0  0  0  0  0  0  0  0
   14.0622  -17.5612   22.3170 O   0  0  0  0  0  0  0  0  0  0  0  0
  2  1  1  6
  2  4  1  0
  2  3  1  0
  4  5  1  1
  6  4  1  0
  7  6  2  0
  8  6  1  0
  9 13  1  0
  9  8  1  0
  9 10  1  1
 11 15  1  0
 11 10  1  0
 12 11  2  0
 13 18  1  0
 14 13  2  0
 17 16  1  6
 17 19  1  0
 18 17  1  0
 19 21  2  0
 19 20  1  0
M  END
$$$$
