TDA.pdb
     RDKit          3D

 21 20  0  0  1  0  0  0  0  0999 V2000
   10.4853  -13.7690   20.5686 C   0  0  0  0  0  0  0  0  0  0  0  0
    9.3766  -13.1077   19.7739 C   0  0  1  0  0  0  0  0  0  0  0  0
    9.8523  -12.9789   18.4591 O   0  0  0  0  0  0  0  0  0  0  0  0
    8.1954  -14.0212   19.7889 C   0  0  2  0  0  0  0  0  0  0  0  0
    7.1467  -13.4094   19.0167 N   0  0  0  0  0  0  0  0  0  0  0  0
    7.7030  -14.3763   21.1240 C   0  0  0  0  0  0  0  0  0  0  0  0
    6.9176  -13.5656   21.6681 O   0  0  0  0  0  0  0  0  0  0  0  0
    8.0392  -15.5436   21.8352 N   0  0  0  0  0  0  0  0  0  0  0  0
    7.5558  -15.9382   23.1085 C   0  0  1  0  0  0  0  0  0  0  0  0
    7.5103  -17.3895   23.4034 C   0  0  0  0  0  0  0  0  0  0  0  0
    7.0336  -17.6836   24.7789 C   0  0  0  0  0  0  0  0  0  0  0  0
    7.8095  -18.1710   25.6401 O   0  0  0  0  0  0  0  0  0  0  0  0
    8.2502  -15.1740   24.2077 C   0  0  0  0  0  0  0  0  0  0  0  0
    9.5053  -15.1362   24.2855 O   0  0  0  0  0  0  0  0  0  0  0  0
    5.7313  -17.4434   25.1878 O   0  0  0  0  0  0  0  0  0  0  0  0
    7.3107  -12.6926   26.8770 C   0  0  0  0  0  0  0  0  0  0  0  0
    8.2059  -13.7378   26.2336 C   0  0  2  0  0  0  0  0  0  0  0  0
    7.5244  -14.4652   25.2013 N   0  0  0  0  0  0  0  0  0  0  0  0
    8.6537  -14.6500   27.3191 C   0  0  0  0  0  0  0  0  0  0  0  0
    8.4437  -16.0043   27.2997 O   0  0  0  0  0  0  0  0  0  0  0  0
    9.2645  -14.1440   28.3189 O   0  0  0  0  0  0  0  0  0  0  0  0
  2  1  1  1
  2  4  1  0
  2  3  1  0
  4  5  1  6
  6  4  1  0
  7  6  2  0
  8  6  1  0
  9 13  1  0
  9  8  1  0
  9 10  1  1
 11 15  1  0
 11 10  1  0
 12 11  2  0
 13 18  1  0
 14 13  2  0
 17 16  1  1
 17 19  1  0
 18 17  1  0
 19 21  2  0
 19 20  1  0
M  END
$$$$
