TDA.pdb
     RDKit          3D

 21 20  0  0  1  0  0  0  0  0999 V2000
    8.2876  -13.3335   18.5802 C   0  0  0  0  0  0  0  0  0  0  0  0
    8.5280  -13.7432   20.0197 C   0  0  1  0  0  0  0  0  0  0  0  0
    8.6329  -12.5542   20.7592 O   0  0  0  0  0  0  0  0  0  0  0  0
    7.3348  -14.5133   20.4816 C   0  0  2  0  0  0  0  0  0  0  0  0
    6.1644  -13.7114   20.2419 N   0  0  0  0  0  0  0  0  0  0  0  0
    7.3785  -14.9429   21.8833 C   0  0  0  0  0  0  0  0  0  0  0  0
    6.5734  -14.3886   22.6672 O   0  0  0  0  0  0  0  0  0  0  0  0
    8.2444  -15.9185   22.4122 N   0  0  0  0  0  0  0  0  0  0  0  0
    8.2768  -16.4007   23.7453 C   0  0  1  0  0  0  0  0  0  0  0  0
    9.0399  -17.6440   24.0048 C   0  0  0  0  0  0  0  0  0  0  0  0
    8.9916  -18.0634   25.4287 C   0  0  0  0  0  0  0  0  0  0  0  0
    7.9200  -18.0006   26.0837 O   0  0  0  0  0  0  0  0  0  0  0  0
    8.6673  -15.3043   24.7043 C   0  0  0  0  0  0  0  0  0  0  0  0
    9.8452  -14.8645   24.7501 O   0  0  0  0  0  0  0  0  0  0  0  0
   10.1023  -18.5397   26.1075 O   0  0  0  0  0  0  0  0  0  0  0  0
    6.8601  -12.8908   26.9727 C   0  0  0  0  0  0  0  0  0  0  0  0
    8.0837  -13.5835   26.3977 C   0  0  2  0  0  0  0  0  0  0  0  0
    7.7294  -14.7196   25.5958 N   0  0  0  0  0  0  0  0  0  0  0  0
    8.9311  -13.9902   27.5499 C   0  0  0  0  0  0  0  0  0  0  0  0
    9.2853  -15.2897   27.8030 O   0  0  0  0  0  0  0  0  0  0  0  0
    9.3489  -13.0811   28.3422 O   0  0  0  0  0  0  0  0  0  0  0  0
  2  1  1  6
  2  4  1  0
  2  3  1  0
  4  5  1  1
  6  4  1  0
  7  6  2  0
  8  6  1  0
  9 13  1  0
  9  8  1  0
  9 10  1  6
 11 15  1  0
 11 10  1  0
 12 11  2  0
 13 18  1  0
 14 13  2  0
 17 16  1  1
 17 19  1  0
 18 17  1  0
 19 21  2  0
 19 20  1  0
M  END
$$$$
