TDA.pdb
     RDKit          3D

 21 20  0  0  1  0  0  0  0  0999 V2000
    7.7958  -12.3770   19.6496 C   0  0  0  0  0  0  0  0  0  0  0  0
    8.2516  -13.3416   20.7265 C   0  0  1  0  0  0  0  0  0  0  0  0
    7.2973  -13.2703   21.7539 O   0  0  0  0  0  0  0  0  0  0  0  0
    8.2509  -14.7151   20.1405 C   0  0  2  0  0  0  0  0  0  0  0  0
    6.9554  -14.9540   19.5616 N   0  0  0  0  0  0  0  0  0  0  0  0
    8.5949  -15.7895   21.0778 C   0  0  0  0  0  0  0  0  0  0  0  0
    7.6395  -16.3714   21.6421 O   0  0  0  0  0  0  0  0  0  0  0  0
    9.9000  -16.2142   21.3904 N   0  0  0  0  0  0  0  0  0  0  0  0
   10.2782  -17.1591   22.3778 C   0  0  1  0  0  0  0  0  0  0  0  0
   11.6470  -17.7209   22.2985 C   0  0  0  0  0  0  0  0  0  0  0  0
   12.5660  -16.8870   21.4825 C   0  0  0  0  0  0  0  0  0  0  0  0
   12.2874  -16.5970   20.2910 O   0  0  0  0  0  0  0  0  0  0  0  0
    9.9742  -16.6418   23.7614 C   0  0  0  0  0  0  0  0  0  0  0  0
   10.5122  -15.5924   24.1999 O   0  0  0  0  0  0  0  0  0  0  0  0
   13.7618  -16.3885   21.9751 O   0  0  0  0  0  0  0  0  0  0  0  0
    7.3375  -16.5999   26.2057 C   0  0  0  0  0  0  0  0  0  0  0  0
    8.8197  -16.8174   25.9535 C   0  0  2  0  0  0  0  0  0  0  0  0
    9.0716  -17.3108   24.6298 N   0  0  0  0  0  0  0  0  0  0  0  0
    9.2953  -17.7828   26.9796 C   0  0  0  0  0  0  0  0  0  0  0  0
    9.8849  -18.9809   26.6709 O   0  0  0  0  0  0  0  0  0  0  0  0
    9.1457  -17.4782   28.2099 O   0  0  0  0  0  0  0  0  0  0  0  0
  2  1  1  6
  2  4  1  0
  2  3  1  0
  4  5  1  1
  6  4  1  0
  7  6  2  0
  8  6  1  0
  9 13  1  0
  9  8  1  0
  9 10  1  1
 11 15  1  0
 11 10  1  0
 12 11  2  0
 13 18  1  0
 14 13  2  0
 17 16  1  6
 17 19  1  0
 18 17  1  0
 19 21  2  0
 19 20  1  0
M  END
$$$$
