TDA.pdb
     RDKit          3D

 21 20  0  0  1  0  0  0  0  0999 V2000
    8.9798  -12.5929   19.5500 C   0  0  0  0  0  0  0  0  0  0  0  0
    8.0904  -13.2472   18.5114 C   0  0  1  0  0  0  0  0  0  0  0  0
    7.9880  -12.3381   17.4462 O   0  0  0  0  0  0  0  0  0  0  0  0
    8.7729  -14.4896   18.0418 C   0  0  2  0  0  0  0  0  0  0  0  0
    7.9675  -15.0780   17.0048 N   0  0  0  0  0  0  0  0  0  0  0  0
    9.0535  -15.4768   19.0896 C   0  0  0  0  0  0  0  0  0  0  0  0
    8.0678  -16.0825   19.5708 O   0  0  0  0  0  0  0  0  0  0  0  0
   10.3294  -15.7945   19.5924 N   0  0  0  0  0  0  0  0  0  0  0  0
   10.6332  -16.6882   20.6505 C   0  0  1  0  0  0  0  0  0  0  0  0
   11.8675  -17.4989   20.5282 C   0  0  0  0  0  0  0  0  0  0  0  0
   12.0751  -18.4105   21.6821 C   0  0  0  0  0  0  0  0  0  0  0  0
   11.2347  -19.3046   21.9573 O   0  0  0  0  0  0  0  0  0  0  0  0
   10.5649  -15.9863   21.9835 C   0  0  0  0  0  0  0  0  0  0  0  0
   11.4412  -15.1523   22.3290 O   0  0  0  0  0  0  0  0  0  0  0  0
   13.1851  -18.3323   22.5084 O   0  0  0  0  0  0  0  0  0  0  0  0
    8.0258  -15.3146   24.6208 C   0  0  0  0  0  0  0  0  0  0  0  0
    9.4563  -15.5358   24.1601 C   0  0  2  0  0  0  0  0  0  0  0  0
    9.5143  -16.2321   22.9067 N   0  0  0  0  0  0  0  0  0  0  0  0
   10.1397  -16.3101   25.2299 C   0  0  0  0  0  0  0  0  0  0  0  0
   10.3741  -15.8146   26.4860 O   0  0  0  0  0  0  0  0  0  0  0  0
   10.5270  -17.4964   24.9625 O   0  0  0  0  0  0  0  0  0  0  0  0
  2  1  1  1
  2  4  1  0
  2  3  1  0
  4  5  1  6
  6  4  1  0
  7  6  2  0
  8  6  1  0
  9 13  1  0
  9  8  1  0
  9 10  1  6
 11 15  1  0
 11 10  1  0
 12 11  2  0
 13 18  1  0
 14 13  2  0
 17 16  1  1
 17 19  1  0
 18 17  1  0
 19 21  2  0
 19 20  1  0
M  END
$$$$
