TDA.pdb
     RDKit          3D

 21 20  0  0  1  0  0  0  0  0999 V2000
    8.2627  -15.1457   18.4221 C   0  0  0  0  0  0  0  0  0  0  0  0
    8.2007  -14.9864   19.9284 C   0  0  1  0  0  0  0  0  0  0  0  0
    7.5365  -13.7737   20.1729 O   0  0  0  0  0  0  0  0  0  0  0  0
    7.3918  -16.1163   20.4750 C   0  0  2  0  0  0  0  0  0  0  0  0
    6.0919  -16.0749   19.8596 N   0  0  0  0  0  0  0  0  0  0  0  0
    7.2624  -16.1365   21.9359 C   0  0  0  0  0  0  0  0  0  0  0  0
    6.1429  -15.8268   22.4060 O   0  0  0  0  0  0  0  0  0  0  0  0
    8.2856  -16.4726   22.8423 N   0  0  0  0  0  0  0  0  0  0  0  0
    8.1817  -16.5642   24.2535 C   0  0  1  0  0  0  0  0  0  0  0  0
    8.9815  -17.6109   24.9319 C   0  0  0  0  0  0  0  0  0  0  0  0
    8.8414  -17.5760   26.4100 C   0  0  0  0  0  0  0  0  0  0  0  0
    9.6573  -16.9349   27.1204 O   0  0  0  0  0  0  0  0  0  0  0  0
    8.3819  -15.2147   24.8961 C   0  0  0  0  0  0  0  0  0  0  0  0
    9.4713  -14.5946   24.7888 O   0  0  0  0  0  0  0  0  0  0  0  0
    7.8235  -18.2345   27.0818 O   0  0  0  0  0  0  0  0  0  0  0  0
    6.2778  -12.5925   26.5805 C   0  0  0  0  0  0  0  0  0  0  0  0
    7.5801  -13.3150   26.2808 C   0  0  2  0  0  0  0  0  0  0  0  0
    7.3562  -14.5835   25.6484 N   0  0  0  0  0  0  0  0  0  0  0  0
    8.2876  -13.4855   27.5775 C   0  0  0  0  0  0  0  0  0  0  0  0
    8.6428  -14.7072   28.0870 O   0  0  0  0  0  0  0  0  0  0  0  0
    8.5779  -12.4395   28.2486 O   0  0  0  0  0  0  0  0  0  0  0  0
  2  1  1  6
  2  4  1  0
  2  3  1  0
  4  5  1  6
  6  4  1  0
  7  6  2  0
  8  6  1  0
  9 13  1  0
  9  8  1  0
  9 10  1  1
 11 15  1  0
 11 10  1  0
 12 11  2  0
 13 18  1  0
 14 13  2  0
 17 16  1  1
 17 19  1  0
 18 17  1  0
 19 21  2  0
 19 20  1  0
M  END
$$$$
