FHV.pdb
     RDKit          3D

 29 30  0  0  1  0  0  0  0  0999 V2000
    7.5374  -18.0864   19.0766 N   0  0  0  0  0  0  0  0  0  0  0  0
    7.8761  -16.8505   19.7023 C   0  0  1  0  0  0  0  0  0  0  0  0
    7.2174  -15.6762   18.9827 C   0  0  0  0  0  0  0  0  0  0  0  0
    7.4569  -14.3912   19.6757 C   0  0  0  0  0  0  0  0  0  0  0  0
    6.6327  -14.0512   20.7228 C   0  0  0  0  0  0  0  0  0  0  0  0
    6.7916  -12.8614   21.4246 C   0  0  0  0  0  0  0  0  0  0  0  0
    7.8146  -12.0274   21.0291 C   0  0  0  0  0  0  0  0  0  0  0  0
    8.6488  -12.3572   19.9796 C   0  0  0  0  0  0  0  0  0  0  0  0
    8.4695  -13.5534   19.2931 C   0  0  0  0  0  0  0  0  0  0  0  0
    7.4911  -16.7825   21.1270 C   0  0  0  0  0  0  0  0  0  0  0  0
    6.3186  -17.1341   21.4624 O   0  0  0  0  0  0  0  0  0  0  0  0
    8.3383  -16.3502   22.1632 N   0  0  0  0  0  0  0  0  0  0  0  0
    8.1214  -16.7568   23.5850 C   0  0  1  0  0  0  0  0  0  0  0  0
    8.7372  -18.0899   23.8067 C   0  0  0  0  0  0  0  0  0  0  0  0
    8.5834  -18.6119   25.1702 C   0  0  0  0  0  0  0  0  0  0  0  0
    7.9196  -17.9423   26.2127 C   0  0  0  0  0  0  0  0  0  0  0  0
    7.9496  -18.6777   27.3331 N   0  0  0  0  0  0  0  0  0  0  0  0
    8.6167  -19.8042   27.0361 C   0  0  0  0  0  0  0  0  0  0  0  0
    8.9854  -19.7534   25.7571 N   0  0  0  0  0  0  0  0  0  0  0  0
    8.5475  -15.6476   24.4170 C   0  0  0  0  0  0  0  0  0  0  0  0
    9.6851  -15.1043   24.1717 O   0  0  0  0  0  0  0  0  0  0  0  0
    6.2602  -13.4931   27.3241 C   0  0  0  0  0  0  0  0  0  0  0  0
    7.3913  -12.8612   26.5370 C   0  0  2  0  0  0  0  0  0  0  0  0
    6.7890  -12.2594   25.2893 C   0  0  0  0  0  0  0  0  0  0  0  0
    8.3902  -13.9426   26.2358 C   0  0  2  0  0  0  0  0  0  0  0  0
    7.8756  -15.0407   25.4991 N   0  0  0  0  0  0  0  0  0  0  0  0
    9.0677  -14.3945   27.4502 C   0  0  0  0  0  0  0  0  0  0  0  0
    9.8434  -13.5680   28.2593 O   0  0  0  0  0  0  0  0  0  0  0  0
    8.9755  -15.5856   27.8267 O   0  0  0  0  0  0  0  0  0  0  0  0
  2  1  1  6
  2  3  1  0
  2 10  1  0
  3  4  1  0
  4  9  1  0
  5  4  2  0
  5  6  1  0
  6  7  2  0
  7  8  1  0
  9  8  2  0
 10 12  1  0
 10 11  2  0
 12 13  1  0
 13 20  1  0
 13 14  1  1
 14 15  1  0
 15 19  1  0
 15 16  2  0
 16 17  1  0
 18 17  1  0
 19 18  2  0
 20 21  2  0
 23 22  1  1
 23 24  1  0
 23 25  1  0
 25 27  1  0
 26 20  1  0
 25 26  1  1
 27 28  1  0
 29 27  2  0
M  END
$$$$
