FHV.pdb
     RDKit          3D

 29 30  0  0  1  0  0  0  0  0999 V2000
    5.5297  -17.9015   20.6983 N   0  0  0  0  0  0  0  0  0  0  0  0
    6.3695  -16.9179   21.2992 C   0  0  1  0  0  0  0  0  0  0  0  0
    5.8332  -15.5119   21.0418 C   0  0  0  0  0  0  0  0  0  0  0  0
    6.9125  -14.5534   20.7169 C   0  0  0  0  0  0  0  0  0  0  0  0
    6.5608  -13.2804   20.3335 C   0  0  0  0  0  0  0  0  0  0  0  0
    7.5150  -12.3218   20.0111 C   0  0  0  0  0  0  0  0  0  0  0  0
    8.8383  -12.6972   20.0907 C   0  0  0  0  0  0  0  0  0  0  0  0
    9.2044  -13.9719   20.4743 C   0  0  0  0  0  0  0  0  0  0  0  0
    8.2310  -14.9132   20.7918 C   0  0  0  0  0  0  0  0  0  0  0  0
    6.5251  -17.0835   22.7590 C   0  0  0  0  0  0  0  0  0  0  0  0
    5.4997  -16.9817   23.5000 O   0  0  0  0  0  0  0  0  0  0  0  0
    7.7448  -17.3504   23.4066 N   0  0  0  0  0  0  0  0  0  0  0  0
    7.8200  -17.6137   24.8760 C   0  0  1  0  0  0  0  0  0  0  0  0
    8.0450  -19.0649   25.0969 C   0  0  0  0  0  0  0  0  0  0  0  0
    8.1863  -19.4511   26.5062 C   0  0  0  0  0  0  0  0  0  0  0  0
    7.9498  -18.5966   27.5971 C   0  0  0  0  0  0  0  0  0  0  0  0
    8.1644  -19.2434   28.7514 N   0  0  0  0  0  0  0  0  0  0  0  0
    8.5331  -20.4934   28.4291 C   0  0  0  0  0  0  0  0  0  0  0  0
    8.5422  -20.6034   27.1017 N   0  0  0  0  0  0  0  0  0  0  0  0
    8.7718  -16.6706   25.4315 C   0  0  0  0  0  0  0  0  0  0  0  0
    9.9346  -16.5899   24.8921 O   0  0  0  0  0  0  0  0  0  0  0  0
    8.1038  -13.3525   28.0368 C   0  0  0  0  0  0  0  0  0  0  0  0
    9.2715  -13.4790   27.0782 C   0  0  2  0  0  0  0  0  0  0  0  0
    8.8229  -12.9220   25.7478 C   0  0  0  0  0  0  0  0  0  0  0  0
    9.6386  -14.9342   27.0042 C   0  0  2  0  0  0  0  0  0  0  0  0
    8.6118  -15.7837   26.5171 N   0  0  0  0  0  0  0  0  0  0  0  0
   10.1596  -15.4173   28.2821 C   0  0  0  0  0  0  0  0  0  0  0  0
    9.6079  -16.4801   28.9932 O   0  0  0  0  0  0  0  0  0  0  0  0
   11.1590  -14.8765   28.8092 O   0  0  0  0  0  0  0  0  0  0  0  0
  2  1  1  1
  2  3  1  0
  2 10  1  0
  3  4  1  0
  4  9  1  0
  5  4  2  0
  5  6  1  0
  6  7  2  0
  7  8  1  0
  9  8  2  0
 10 12  1  0
 10 11  2  0
 12 13  1  0
 13 20  1  0
 13 14  1  6
 14 15  1  0
 15 19  1  0
 15 16  2  0
 16 17  1  0
 18 17  1  0
 19 18  2  0
 20 21  2  0
 23 22  1  1
 23 24  1  0
 23 25  1  0
 25 27  1  0
 26 20  1  0
 25 26  1  1
 27 28  1  0
 29 27  2  0
M  END
$$$$
