FHV.pdb
     RDKit          3D

 29 30  0  0  1  0  0  0  0  0999 V2000
    5.5257  -17.9774   23.9307 N   0  0  0  0  0  0  0  0  0  0  0  0
    6.2276  -16.7642   24.1938 C   0  0  1  0  0  0  0  0  0  0  0  0
    5.7587  -16.1356   25.5036 C   0  0  0  0  0  0  0  0  0  0  0  0
    6.3794  -14.8140   25.7425 C   0  0  0  0  0  0  0  0  0  0  0  0
    7.0077  -14.5964   26.9463 C   0  0  0  0  0  0  0  0  0  0  0  0
    7.6142  -13.3821   27.2478 C   0  0  0  0  0  0  0  0  0  0  0  0
    7.5625  -12.3954   26.2876 C   0  0  0  0  0  0  0  0  0  0  0  0
    6.9349  -12.6014   25.0752 C   0  0  0  0  0  0  0  0  0  0  0  0
    6.3352  -13.8251   24.7972 C   0  0  0  0  0  0  0  0  0  0  0  0
    7.6934  -16.9324   24.2710 C   0  0  0  0  0  0  0  0  0  0  0  0
    8.1651  -17.8877   24.9607 O   0  0  0  0  0  0  0  0  0  0  0  0
    8.6273  -16.1007   23.6275 N   0  0  0  0  0  0  0  0  0  0  0  0
   10.0972  -16.3653   23.6880 C   0  0  1  0  0  0  0  0  0  0  0  0
   10.7236  -15.9101   22.4208 C   0  0  0  0  0  0  0  0  0  0  0  0
   12.1634  -16.1797   22.3228 C   0  0  0  0  0  0  0  0  0  0  0  0
   12.9180  -16.8581   23.2955 C   0  0  0  0  0  0  0  0  0  0  0  0
   14.2004  -16.9445   22.9147 N   0  0  0  0  0  0  0  0  0  0  0  0
   14.2886  -16.3379   21.7204 C   0  0  0  0  0  0  0  0  0  0  0  0
   13.0803  -15.8909   21.3820 N   0  0  0  0  0  0  0  0  0  0  0  0
   10.5802  -15.8133   24.9394 C   0  0  0  0  0  0  0  0  0  0  0  0
   11.0445  -14.6159   24.9377 O   0  0  0  0  0  0  0  0  0  0  0  0
    9.3323  -15.4787   28.7525 C   0  0  0  0  0  0  0  0  0  0  0  0
   10.4954  -14.7894   28.0666 C   0  0  2  0  0  0  0  0  0  0  0  0
    9.9163  -13.7473   27.1391 C   0  0  0  0  0  0  0  0  0  0  0  0
   11.2784  -15.8445   27.3375 C   0  0  2  0  0  0  0  0  0  0  0  0
   10.6165  -16.4103   26.2172 N   0  0  0  0  0  0  0  0  0  0  0  0
   11.7494  -16.8843   28.2513 C   0  0  0  0  0  0  0  0  0  0  0  0
   12.5482  -16.6354   29.3646 O   0  0  0  0  0  0  0  0  0  0  0  0
   11.4435  -18.0845   28.0643 O   0  0  0  0  0  0  0  0  0  0  0  0
  2  1  1  1
  2  3  1  0
  2 10  1  0
  3  4  1  0
  4  9  1  0
  5  4  2  0
  5  6  1  0
  6  7  2  0
  7  8  1  0
  9  8  2  0
 10 12  1  0
 10 11  2  0
 12 13  1  0
 13 20  1  0
 13 14  1  6
 14 15  1  0
 15 19  1  0
 15 16  2  0
 16 17  1  0
 18 17  1  0
 19 18  2  0
 20 21  2  0
 23 22  1  6
 23 24  1  0
 23 25  1  0
 25 27  1  0
 26 20  1  0
 25 26  1  6
 27 28  1  0
 29 27  2  0
M  END
$$$$
