FHV.pdb
     RDKit          3D

 29 30  0  0  1  0  0  0  0  0999 V2000
    5.9078  -17.6328   19.9636 N   0  0  0  0  0  0  0  0  0  0  0  0
    6.5228  -16.6019   20.7336 C   0  0  1  0  0  0  0  0  0  0  0  0
    5.8693  -15.2503   20.4564 C   0  0  0  0  0  0  0  0  0  0  0  0
    6.8541  -14.2299   20.0347 C   0  0  0  0  0  0  0  0  0  0  0  0
    7.0858  -14.0637   18.6894 C   0  0  0  0  0  0  0  0  0  0  0  0
    7.9959  -13.1268   18.2124 C   0  0  0  0  0  0  0  0  0  0  0  0
    8.6635  -12.3639   19.1455 C   0  0  0  0  0  0  0  0  0  0  0  0
    8.4399  -12.5212   20.4987 C   0  0  0  0  0  0  0  0  0  0  0  0
    7.5243  -13.4653   20.9511 C   0  0  0  0  0  0  0  0  0  0  0  0
    6.4714  -16.8398   22.1908 C   0  0  0  0  0  0  0  0  0  0  0  0
    5.3398  -16.8993   22.7625 O   0  0  0  0  0  0  0  0  0  0  0  0
    7.6004  -17.0093   23.0123 N   0  0  0  0  0  0  0  0  0  0  0  0
    7.4810  -17.2427   24.4839 C   0  0  1  0  0  0  0  0  0  0  0  0
    7.9594  -18.6133   24.7970 C   0  0  0  0  0  0  0  0  0  0  0  0
    8.0298  -18.9204   26.2309 C   0  0  0  0  0  0  0  0  0  0  0  0
    7.5776  -18.0692   27.2541 C   0  0  0  0  0  0  0  0  0  0  0  0
    7.7802  -18.6328   28.4534 N   0  0  0  0  0  0  0  0  0  0  0  0
    8.3519  -19.8259   28.2260 C   0  0  0  0  0  0  0  0  0  0  0  0
    8.4938  -19.9839   26.9110 N   0  0  0  0  0  0  0  0  0  0  0  0
    8.1117  -16.1180   25.1481 C   0  0  0  0  0  0  0  0  0  0  0  0
    9.3126  -15.8088   24.8140 O   0  0  0  0  0  0  0  0  0  0  0  0
    6.3533  -13.2795   27.8779 C   0  0  0  0  0  0  0  0  0  0  0  0
    7.4506  -12.9266   26.8932 C   0  0  2  0  0  0  0  0  0  0  0  0
    6.7807  -12.4576   25.6232 C   0  0  0  0  0  0  0  0  0  0  0  0
    8.2857  -14.1589   26.6880 C   0  0  2  0  0  0  0  0  0  0  0  0
    7.5873  -15.2683   26.1449 N   0  0  0  0  0  0  0  0  0  0  0  0
    8.9951  -14.5307   27.9112 C   0  0  0  0  0  0  0  0  0  0  0  0
    9.9575  -13.7317   28.5235 O   0  0  0  0  0  0  0  0  0  0  0  0
    8.7587  -15.6217   28.4794 O   0  0  0  0  0  0  0  0  0  0  0  0
  2  1  1  6
  2  3  1  0
  2 10  1  0
  3  4  1  0
  4  9  1  0
  5  4  2  0
  5  6  1  0
  6  7  2  0
  7  8  1  0
  9  8  2  0
 10 12  1  0
 10 11  2  0
 12 13  1  0
 13 20  1  0
 13 14  1  6
 14 15  1  0
 15 19  1  0
 15 16  2  0
 16 17  1  0
 18 17  1  0
 19 18  2  0
 20 21  2  0
 23 22  1  1
 23 24  1  0
 23 25  1  0
 25 27  1  0
 26 20  1  0
 25 26  1  1
 27 28  1  0
 29 27  2  0
M  END
$$$$
