FHV.pdb
     RDKit          3D

 29 30  0  0  1  0  0  0  0  0999 V2000
    6.0467  -16.6754   23.6950 N   0  0  0  0  0  0  0  0  0  0  0  0
    7.2383  -15.9969   24.0871 C   0  0  1  0  0  0  0  0  0  0  0  0
    7.1970  -15.6344   25.5695 C   0  0  0  0  0  0  0  0  0  0  0  0
    6.8731  -14.2072   25.7865 C   0  0  0  0  0  0  0  0  0  0  0  0
    7.7305  -13.2592   25.2789 C   0  0  0  0  0  0  0  0  0  0  0  0
    7.4973  -11.8980   25.4407 C   0  0  0  0  0  0  0  0  0  0  0  0
    6.3653  -11.5300   26.1346 C   0  0  0  0  0  0  0  0  0  0  0  0
    5.4968  -12.4718   26.6490 C   0  0  0  0  0  0  0  0  0  0  0  0
    5.7520  -13.8278   26.4739 C   0  0  0  0  0  0  0  0  0  0  0  0
    8.4704  -16.7754   23.8450 C   0  0  0  0  0  0  0  0  0  0  0  0
    8.4771  -18.0140   24.1223 O   0  0  0  0  0  0  0  0  0  0  0  0
    9.6616  -16.2421   23.3207 N   0  0  0  0  0  0  0  0  0  0  0  0
   10.9887  -16.8890   23.5537 C   0  0  1  0  0  0  0  0  0  0  0  0
   11.8812  -16.5903   22.4049 C   0  0  0  0  0  0  0  0  0  0  0  0
   11.3135  -16.9195   21.0917 C   0  0  0  0  0  0  0  0  0  0  0  0
   10.7503  -18.1620   20.7527 C   0  0  0  0  0  0  0  0  0  0  0  0
   10.3205  -18.1485   19.4830 N   0  0  0  0  0  0  0  0  0  0  0  0
   10.5938  -16.9272   18.9974 C   0  0  0  0  0  0  0  0  0  0  0  0
   11.1796  -16.2115   19.9560 N   0  0  0  0  0  0  0  0  0  0  0  0
   11.4208  -16.5114   24.8858 C   0  0  0  0  0  0  0  0  0  0  0  0
   12.6106  -16.0507   25.0323 O   0  0  0  0  0  0  0  0  0  0  0  0
   11.5222  -14.4171   29.0497 C   0  0  0  0  0  0  0  0  0  0  0  0
   10.8592  -14.7205   27.7205 C   0  0  2  0  0  0  0  0  0  0  0  0
    9.3722  -14.5315   27.9067 C   0  0  0  0  0  0  0  0  0  0  0  0
   11.2228  -16.1297   27.3465 C   0  0  2  0  0  0  0  0  0  0  0  0
   10.7049  -16.5680   26.1003 N   0  0  0  0  0  0  0  0  0  0  0  0
   10.8857  -17.0680   28.4161 C   0  0  0  0  0  0  0  0  0  0  0  0
   11.4765  -17.0521   29.6771 O   0  0  0  0  0  0  0  0  0  0  0  0
   10.0212  -17.9565   28.2365 O   0  0  0  0  0  0  0  0  0  0  0  0
  2  1  1  1
  2  3  1  0
  2 10  1  0
  3  4  1  0
  4  9  1  0
  5  4  2  0
  5  6  1  0
  6  7  2  0
  7  8  1  0
  9  8  2  0
 10 12  1  0
 10 11  2  0
 12 13  1  0
 13 20  1  0
 13 14  1  6
 14 15  1  0
 15 19  1  0
 15 16  2  0
 16 17  1  0
 18 17  1  0
 19 18  2  0
 20 21  2  0
 23 22  1  1
 23 24  1  0
 23 25  1  0
 25 27  1  0
 26 20  1  0
 25 26  1  6
 27 28  1  0
 29 27  2  0
M  END
$$$$
