FHV.pdb
     RDKit          3D

 29 30  0  0  1  0  0  0  0  0999 V2000
    7.2893  -15.6471   20.5636 N   0  0  0  0  0  0  0  0  0  0  0  0
    7.6733  -14.9925   21.7711 C   0  0  1  0  0  0  0  0  0  0  0  0
    6.4575  -14.4059   22.4840 C   0  0  0  0  0  0  0  0  0  0  0  0
    6.8410  -13.4670   23.5613 C   0  0  0  0  0  0  0  0  0  0  0  0
    6.4513  -13.7563   24.8480 C   0  0  0  0  0  0  0  0  0  0  0  0
    6.7712  -12.9247   25.9155 C   0  0  0  0  0  0  0  0  0  0  0  0
    7.4998  -11.7895   25.6345 C   0  0  0  0  0  0  0  0  0  0  0  0
    7.8969  -11.4878   24.3471 C   0  0  0  0  0  0  0  0  0  0  0  0
    7.5644  -12.3358   23.2960 C   0  0  0  0  0  0  0  0  0  0  0  0
    8.3765  -15.8743   22.7254 C   0  0  0  0  0  0  0  0  0  0  0  0
    7.7242  -16.7987   23.3005 O   0  0  0  0  0  0  0  0  0  0  0  0
    9.7399  -15.7687   23.0542 N   0  0  0  0  0  0  0  0  0  0  0  0
   10.4318  -16.7885   23.9000 C   0  0  1  0  0  0  0  0  0  0  0  0
   11.5395  -17.3948   23.1183 C   0  0  0  0  0  0  0  0  0  0  0  0
   12.2569  -18.4706   23.8135 C   0  0  0  0  0  0  0  0  0  0  0  0
   11.9122  -18.9732   25.0802 C   0  0  0  0  0  0  0  0  0  0  0  0
   12.7575  -19.9491   25.4408 N   0  0  0  0  0  0  0  0  0  0  0  0
   13.6376  -20.0862   24.4364 C   0  0  0  0  0  0  0  0  0  0  0  0
   13.3316  -19.2083   23.4823 N   0  0  0  0  0  0  0  0  0  0  0  0
   10.7415  -16.1545   25.1673 C   0  0  0  0  0  0  0  0  0  0  0  0
   11.5794  -15.1812   25.1725 O   0  0  0  0  0  0  0  0  0  0  0  0
    8.7753  -15.4789   28.7840 C   0  0  0  0  0  0  0  0  0  0  0  0
   10.1398  -14.9428   28.3979 C   0  0  2  0  0  0  0  0  0  0  0  0
    9.9157  -13.7138   27.5487 C   0  0  0  0  0  0  0  0  0  0  0  0
   10.8610  -16.0348   27.6595 C   0  0  2  0  0  0  0  0  0  0  0  0
   10.2399  -16.4489   26.4527 N   0  0  0  0  0  0  0  0  0  0  0  0
   11.1322  -17.1772   28.5309 C   0  0  0  0  0  0  0  0  0  0  0  0
   11.9238  -17.1099   29.6748 O   0  0  0  0  0  0  0  0  0  0  0  0
   10.6470  -18.3035   28.2761 O   0  0  0  0  0  0  0  0  0  0  0  0
  2  1  1  6
  2  3  1  0
  2 10  1  0
  3  4  1  0
  4  9  1  0
  5  4  2  0
  5  6  1  0
  6  7  2  0
  7  8  1  0
  9  8  2  0
 10 12  1  0
 10 11  2  0
 12 13  1  0
 13 20  1  0
 13 14  1  6
 14 15  1  0
 15 19  1  0
 15 16  2  0
 16 17  1  0
 18 17  1  0
 19 18  2  0
 20 21  2  0
 23 22  1  6
 23 24  1  0
 23 25  1  0
 25 27  1  0
 26 20  1  0
 25 26  1  6
 27 28  1  0
 29 27  2  0
M  END
$$$$
