CTF.pdb
     RDKit          3D

 25 25  0  0  1  0  0  0  0  0999 V2000
   19.3918  -12.9859  -18.7853 N   0  0  0  0  0  0  0  0  0  0  0  0
   18.7241  -11.8277  -18.2791 C   0  0  1  0  0  0  0  0  0  0  0  0
   17.8752  -12.1202  -17.0624 C   0  0  0  0  0  0  0  0  0  0  0  0
   16.6182  -13.3612  -17.3707 S   0  0  0  0  0  0  0  0  0  0  0  0
   19.7587  -10.8273  -17.8382 C   0  0  0  0  0  0  0  0  0  0  0  0
   20.9096  -11.2044  -17.4965 O   0  0  0  0  0  0  0  0  0  0  0  0
   20.9207   -7.9126  -19.7389 C   0  0  0  0  0  0  0  0  0  0  0  0
   20.5329   -7.3714  -18.3934 C   0  0  1  0  0  0  0  0  0  0  0  0
   19.2638   -6.8076  -18.5074 O   0  0  0  0  0  0  0  0  0  0  0  0
   20.5232   -8.5198  -17.3791 C   0  0  2  0  0  0  0  0  0  0  0  0
   19.4816   -9.4408  -17.7911 N   0  0  0  0  0  0  0  0  0  0  0  0
   20.2210   -7.9796  -16.0240 C   0  0  0  0  0  0  0  0  0  0  0  0
   19.0526   -8.0681  -15.5804 O   0  0  0  0  0  0  0  0  0  0  0  0
   21.2009   -7.3715  -15.2202 N   0  0  0  0  0  0  0  0  0  0  0  0
   20.8925   -6.7620  -13.9387 C   0  0  1  0  0  0  0  0  0  0  0  0
   21.7437   -7.4347  -12.9115 C   0  0  0  0  0  0  0  0  0  0  0  0
   21.5394   -6.8807  -11.5534 C   0  0  0  0  0  0  0  0  0  0  0  0
   20.6444   -7.5183  -10.7082 C   0  0  0  0  0  0  0  0  0  0  0  0
   20.3996   -7.0713   -9.4296 C   0  0  0  0  0  0  0  0  0  0  0  0
   21.0709   -5.9535   -8.9853 C   0  0  0  0  0  0  0  0  0  0  0  0
   21.9666   -5.3023   -9.8089 C   0  0  0  0  0  0  0  0  0  0  0  0
   22.1943   -5.7702  -11.0861 C   0  0  0  0  0  0  0  0  0  0  0  0
   21.0188   -5.3035  -13.9683 C   0  0  0  0  0  0  0  0  0  0  0  0
   20.1357   -4.4915  -13.2329 O   0  0  0  0  0  0  0  0  0  0  0  0
   21.8987   -4.7110  -14.6337 O   0  0  0  0  0  0  0  0  0  0  0  0
  2  1  1  1
  3  2  1  0
  4  3  1  0
  5  2  1  0
  5  6  2  0
  8  7  1  6
  8  9  1  0
  8 10  1  0
 10 11  1  6
 11  5  1  0
 12 10  1  0
 13 12  2  0
 14 12  1  0
 15 14  1  0
 15 16  1  1
 16 17  1  0
 17 22  2  0
 18 19  2  0
 18 17  1  0
 19 20  1  0
 20 21  2  0
 22 21  1  0
 23 15  1  0
 24 23  1  0
 25 23  2  0
M  END
$$$$
