CTF.pdb
     RDKit          3D

 25 25  0  0  1  0  0  0  0  0999 V2000
   18.6542  -14.4192  -16.7193 N   0  0  0  0  0  0  0  0  0  0  0  0
   18.1055  -13.1577  -16.3307 C   0  0  1  0  0  0  0  0  0  0  0  0
   17.6376  -13.1353  -14.8929 C   0  0  0  0  0  0  0  0  0  0  0  0
   16.3643  -14.3517  -14.5545 S   0  0  0  0  0  0  0  0  0  0  0  0
   19.1801  -12.1093  -16.4386 C   0  0  0  0  0  0  0  0  0  0  0  0
   20.3782  -12.3907  -16.1761 O   0  0  0  0  0  0  0  0  0  0  0  0
   19.4808   -9.9418  -19.5133 C   0  0  0  0  0  0  0  0  0  0  0  0
   19.5806   -9.0336  -18.3222 C   0  0  1  0  0  0  0  0  0  0  0  0
   18.3344   -8.4411  -18.1290 O   0  0  0  0  0  0  0  0  0  0  0  0
   19.9789   -9.8624  -17.0966 C   0  0  2  0  0  0  0  0  0  0  0  0
   18.8893  -10.7827  -16.8344 N   0  0  0  0  0  0  0  0  0  0  0  0
   20.1746   -8.9566  -15.9300 C   0  0  0  0  0  0  0  0  0  0  0  0
   19.3195   -8.9505  -15.0143 O   0  0  0  0  0  0  0  0  0  0  0  0
   21.2870   -8.1046  -15.8168 N   0  0  0  0  0  0  0  0  0  0  0  0
   21.4597   -7.1888  -14.7031 C   0  0  1  0  0  0  0  0  0  0  0  0
   22.3598   -7.8568  -13.7152 C   0  0  0  0  0  0  0  0  0  0  0  0
   23.5871   -8.3995  -14.3416 C   0  0  0  0  0  0  0  0  0  0  0  0
   23.9655   -9.6977  -14.0359 C   0  0  0  0  0  0  0  0  0  0  0  0
   25.0891  -10.2794  -14.5778 C   0  0  0  0  0  0  0  0  0  0  0  0
   25.8554   -9.5391  -15.4508 C   0  0  0  0  0  0  0  0  0  0  0  0
   25.4984   -8.2447  -15.7700 C   0  0  0  0  0  0  0  0  0  0  0  0
   24.3676   -7.6846  -15.2134 C   0  0  0  0  0  0  0  0  0  0  0  0
   21.9108   -5.8640  -15.1333 C   0  0  0  0  0  0  0  0  0  0  0  0
   22.2279   -5.6165  -16.4818 O   0  0  0  0  0  0  0  0  0  0  0  0
   22.0368   -4.8996  -14.3445 O   0  0  0  0  0  0  0  0  0  0  0  0
  2  1  1  1
  3  2  1  0
  4  3  1  0
  5  2  1  0
  5  6  2  0
  8  7  1  6
  8  9  1  0
  8 10  1  0
 10 11  1  1
 11  5  1  0
 12 10  1  0
 13 12  2  0
 14 12  1  0
 15 14  1  0
 15 16  1  1
 16 17  1  0
 17 22  2  0
 18 19  2  0
 18 17  1  0
 19 20  1  0
 20 21  2  0
 22 21  1  0
 23 15  1  0
 24 23  1  0
 25 23  2  0
M  END
$$$$
