CTF.pdb
     RDKit          3D

 25 25  0  0  1  0  0  0  0  0999 V2000
   26.9081  -20.5794  -16.3488 N   0  0  0  0  0  0  0  0  0  0  0  0
   27.2496  -21.2639  -15.1412 C   0  0  1  0  0  0  0  0  0  0  0  0
   28.7300  -21.2205  -14.8366 C   0  0  0  0  0  0  0  0  0  0  0  0
   29.5942  -22.7014  -15.3615 S   0  0  0  0  0  0  0  0  0  0  0  0
   26.5637  -20.5814  -13.9882 C   0  0  0  0  0  0  0  0  0  0  0  0
   26.3634  -19.3392  -14.0065 O   0  0  0  0  0  0  0  0  0  0  0  0
   23.1171  -20.5380  -10.8046 C   0  0  0  0  0  0  0  0  0  0  0  0
   23.9064  -21.0645  -11.9680 C   0  0  1  0  0  0  0  0  0  0  0  0
   23.3461  -20.5488  -13.1349 O   0  0  0  0  0  0  0  0  0  0  0  0
   25.3638  -20.6139  -11.8252 C   0  0  2  0  0  0  0  0  0  0  0  0
   26.1227  -21.3005  -12.8526 N   0  0  0  0  0  0  0  0  0  0  0  0
   25.8688  -20.9950  -10.4763 C   0  0  0  0  0  0  0  0  0  0  0  0
   26.1241  -22.1986  -10.2399 O   0  0  0  0  0  0  0  0  0  0  0  0
   26.0708  -20.0516   -9.4540 N   0  0  0  0  0  0  0  0  0  0  0  0
   26.5070  -20.4258   -8.1203 C   0  0  1  0  0  0  0  0  0  0  0  0
   26.9448  -19.1753   -7.4298 C   0  0  0  0  0  0  0  0  0  0  0  0
   27.8703  -19.4421   -6.3049 C   0  0  0  0  0  0  0  0  0  0  0  0
   28.0065  -20.7472   -5.8577 C   0  0  0  0  0  0  0  0  0  0  0  0
   28.8481  -21.0817   -4.8212 C   0  0  0  0  0  0  0  0  0  0  0  0
   29.5739  -20.0797   -4.2156 C   0  0  0  0  0  0  0  0  0  0  0  0
   29.4547  -18.7731   -4.6438 C   0  0  0  0  0  0  0  0  0  0  0  0
   28.6043  -18.4639   -5.6847 C   0  0  0  0  0  0  0  0  0  0  0  0
   25.4930  -21.1941   -7.3954 C   0  0  0  0  0  0  0  0  0  0  0  0
   24.1725  -21.2722   -7.8753 O   0  0  0  0  0  0  0  0  0  0  0  0
   25.7380  -21.8101   -6.3330 O   0  0  0  0  0  0  0  0  0  0  0  0
  2  1  1  6
  3  2  1  0
  4  3  1  0
  5  2  1  0
  5  6  2  0
  8  7  1  1
  8  9  1  0
  8 10  1  0
 10 11  1  6
 11  5  1  0
 12 10  1  0
 13 12  2  0
 14 12  1  0
 15 14  1  0
 15 16  1  1
 16 17  1  0
 17 22  2  0
 18 19  2  0
 18 17  1  0
 19 20  1  0
 20 21  2  0
 22 21  1  0
 23 15  1  0
 24 23  1  0
 25 23  2  0
M  END
$$$$
