CTF.pdb
     RDKit          3D

 25 25  0  0  1  0  0  0  0  0999 V2000
   16.3575  -12.9509  -17.9151 N   0  0  0  0  0  0  0  0  0  0  0  0
   16.3432  -12.3489  -16.6186 C   0  0  1  0  0  0  0  0  0  0  0  0
   16.7473  -13.3052  -15.5192 C   0  0  0  0  0  0  0  0  0  0  0  0
   15.5000  -14.5487  -15.1828 S   0  0  0  0  0  0  0  0  0  0  0  0
   17.3508  -11.2310  -16.5936 C   0  0  0  0  0  0  0  0  0  0  0  0
   18.5126  -11.4056  -17.0445 O   0  0  0  0  0  0  0  0  0  0  0  0
   17.1843   -7.9915  -18.1808 C   0  0  0  0  0  0  0  0  0  0  0  0
   17.4323   -7.6856  -16.7321 C   0  0  1  0  0  0  0  0  0  0  0  0
   16.2089   -7.3688  -16.1452 O   0  0  0  0  0  0  0  0  0  0  0  0
   18.0484   -8.9179  -16.0618 C   0  0  2  0  0  0  0  0  0  0  0  0
   17.0356   -9.9557  -16.0688 N   0  0  0  0  0  0  0  0  0  0  0  0
   18.4254   -8.5813  -14.6602 C   0  0  0  0  0  0  0  0  0  0  0  0
   17.6358   -8.8709  -13.7316 O   0  0  0  0  0  0  0  0  0  0  0  0
   19.6385   -7.9483  -14.3383 N   0  0  0  0  0  0  0  0  0  0  0  0
   19.9760   -7.5486  -12.9836 C   0  0  1  0  0  0  0  0  0  0  0  0
   21.3046   -8.1514  -12.6614 C   0  0  0  0  0  0  0  0  0  0  0  0
   21.7564   -7.8290  -11.2885 C   0  0  0  0  0  0  0  0  0  0  0  0
   22.4318   -6.6366  -11.0789 C   0  0  0  0  0  0  0  0  0  0  0  0
   22.8815   -6.2591   -9.8340 C   0  0  0  0  0  0  0  0  0  0  0  0
   22.6478   -7.1006   -8.7687 C   0  0  0  0  0  0  0  0  0  0  0  0
   21.9775   -8.2929   -8.9533 C   0  0  0  0  0  0  0  0  0  0  0  0
   21.5369   -8.6482  -10.2110 C   0  0  0  0  0  0  0  0  0  0  0  0
   19.9079   -6.0982  -12.7952 C   0  0  0  0  0  0  0  0  0  0  0  0
   19.3867   -5.5523  -11.6076 O   0  0  0  0  0  0  0  0  0  0  0  0
   20.3003   -5.2815  -13.6596 O   0  0  0  0  0  0  0  0  0  0  0  0
  2  1  1  6
  3  2  1  0
  4  3  1  0
  5  2  1  0
  5  6  2  0
  8  7  1  6
  8  9  1  0
  8 10  1  0
 10 11  1  1
 11  5  1  0
 12 10  1  0
 13 12  2  0
 14 12  1  0
 15 14  1  0
 15 16  1  6
 16 17  1  0
 17 22  2  0
 18 19  2  0
 18 17  1  0
 19 20  1  0
 20 21  2  0
 22 21  1  0
 23 15  1  0
 24 23  1  0
 25 23  2  0
M  END
$$$$
