CTF.pdb
     RDKit          3D

 25 25  0  0  1  0  0  0  0  0999 V2000
   28.0681  -22.4234  -16.5858 N   0  0  0  0  0  0  0  0  0  0  0  0
   26.9146  -22.7905  -15.8255 C   0  0  1  0  0  0  0  0  0  0  0  0
   27.0429  -24.1509  -15.1780 C   0  0  0  0  0  0  0  0  0  0  0  0
   26.8306  -25.4997  -16.3403 S   0  0  0  0  0  0  0  0  0  0  0  0
   26.7431  -21.8049  -14.7008 C   0  0  0  0  0  0  0  0  0  0  0  0
   27.6552  -20.9829  -14.4249 O   0  0  0  0  0  0  0  0  0  0  0  0
   23.6789  -19.3171  -11.8518 C   0  0  0  0  0  0  0  0  0  0  0  0
   23.9378  -20.2749  -12.9785 C   0  0  1  0  0  0  0  0  0  0  0  0
   23.6674  -19.6132  -14.1745 O   0  0  0  0  0  0  0  0  0  0  0  0
   25.4034  -20.7186  -12.9276 C   0  0  2  0  0  0  0  0  0  0  0  0
   25.5648  -21.7643  -13.9192 N   0  0  0  0  0  0  0  0  0  0  0  0
   25.7119  -21.2496  -11.5701 C   0  0  0  0  0  0  0  0  0  0  0  0
   25.4032  -22.4322  -11.2949 O   0  0  0  0  0  0  0  0  0  0  0  0
   26.3390  -20.4711  -10.5819 N   0  0  0  0  0  0  0  0  0  0  0  0
   26.5460  -20.9480   -9.2259 C   0  0  1  0  0  0  0  0  0  0  0  0
   27.8873  -20.4600   -8.7841 C   0  0  0  0  0  0  0  0  0  0  0  0
   27.8979  -20.0351   -7.3656 C   0  0  0  0  0  0  0  0  0  0  0  0
   28.4826  -20.8742   -6.4296 C   0  0  0  0  0  0  0  0  0  0  0  0
   28.5386  -20.5529   -5.0924 C   0  0  0  0  0  0  0  0  0  0  0  0
   27.9932  -19.3567   -4.6813 C   0  0  0  0  0  0  0  0  0  0  0  0
   27.4058  -18.5053   -5.5950 C   0  0  0  0  0  0  0  0  0  0  0  0
   27.3625  -18.8504   -6.9297 C   0  0  0  0  0  0  0  0  0  0  0  0
   25.4452  -20.5849   -8.3313 C   0  0  0  0  0  0  0  0  0  0  0  0
   24.6525  -19.4518   -8.5917 O   0  0  0  0  0  0  0  0  0  0  0  0
   25.1542  -21.2464   -7.3087 O   0  0  0  0  0  0  0  0  0  0  0  0
  2  1  1  1
  3  2  1  0
  4  3  1  0
  5  2  1  0
  5  6  2  0
  8  7  1  1
  8  9  1  0
  8 10  1  0
 10 11  1  6
 11  5  1  0
 12 10  1  0
 13 12  2  0
 14 12  1  0
 15 14  1  0
 15 16  1  1
 16 17  1  0
 17 22  2  0
 18 19  2  0
 18 17  1  0
 19 20  1  0
 20 21  2  0
 22 21  1  0
 23 15  1  0
 24 23  1  0
 25 23  2  0
M  END
$$$$
