CTF.pdb
     RDKit          3D

 25 25  0  0  1  0  0  0  0  0999 V2000
   28.6631  -22.4678  -17.5816 N   0  0  0  0  0  0  0  0  0  0  0  0
   27.4274  -22.6751  -16.8933 C   0  0  1  0  0  0  0  0  0  0  0  0
   27.3375  -24.0352  -16.2386 C   0  0  0  0  0  0  0  0  0  0  0  0
   27.4125  -25.3837  -17.4180 S   0  0  0  0  0  0  0  0  0  0  0  0
   27.3180  -21.6662  -15.7817 C   0  0  0  0  0  0  0  0  0  0  0  0
   27.9705  -20.5911  -15.8260 O   0  0  0  0  0  0  0  0  0  0  0  0
   24.4304  -19.0782  -13.3564 C   0  0  0  0  0  0  0  0  0  0  0  0
   24.9300  -20.0869  -14.3497 C   0  0  1  0  0  0  0  0  0  0  0  0
   25.2415  -19.4109  -15.5276 O   0  0  0  0  0  0  0  0  0  0  0  0
   26.1741  -20.7744  -13.7778 C   0  0  2  0  0  0  0  0  0  0  0  0
   26.4876  -21.8839  -14.6573 N   0  0  0  0  0  0  0  0  0  0  0  0
   25.8748  -21.2773  -12.4077 C   0  0  0  0  0  0  0  0  0  0  0  0
   25.0837  -22.2394  -12.2720 O   0  0  0  0  0  0  0  0  0  0  0  0
   26.4485  -20.7112  -11.2560 N   0  0  0  0  0  0  0  0  0  0  0  0
   26.2803  -21.2890   -9.9343 C   0  0  1  0  0  0  0  0  0  0  0  0
   27.6085  -21.2306   -9.2525 C   0  0  0  0  0  0  0  0  0  0  0  0
   27.5885  -20.3772   -8.0424 C   0  0  0  0  0  0  0  0  0  0  0  0
   28.2157  -20.8419   -6.8967 C   0  0  0  0  0  0  0  0  0  0  0  0
   28.2472  -20.1099   -5.7314 C   0  0  0  0  0  0  0  0  0  0  0  0
   27.6328  -18.8772   -5.7138 C   0  0  0  0  0  0  0  0  0  0  0  0
   27.0021  -18.3940   -6.8423 C   0  0  0  0  0  0  0  0  0  0  0  0
   26.9846  -19.1469   -7.9977 C   0  0  0  0  0  0  0  0  0  0  0  0
   25.1879  -20.6642   -9.1859 C   0  0  0  0  0  0  0  0  0  0  0  0
   24.6281  -19.4465   -9.6151 O   0  0  0  0  0  0  0  0  0  0  0  0
   24.7020  -21.1661   -8.1466 O   0  0  0  0  0  0  0  0  0  0  0  0
  2  1  1  1
  3  2  1  0
  4  3  1  0
  5  2  1  0
  5  6  2  0
  8  7  1  1
  8  9  1  0
  8 10  1  0
 10 11  1  6
 11  5  1  0
 12 10  1  0
 13 12  2  0
 14 12  1  0
 15 14  1  0
 15 16  1  1
 16 17  1  0
 17 22  2  0
 18 19  2  0
 18 17  1  0
 19 20  1  0
 20 21  2  0
 22 21  1  0
 23 15  1  0
 24 23  1  0
 25 23  2  0
M  END
$$$$
