CTF.pdb
     RDKit          3D

 25 25  0  0  1  0  0  0  0  0999 V2000
   14.3226  -21.8640    2.9531 N   0  0  0  0  0  0  0  0  0  0  0  0
   15.4696  -21.5986    3.7638 C   0  0  1  0  0  0  0  0  0  0  0  0
   16.7473  -21.4923    2.9621 C   0  0  0  0  0  0  0  0  0  0  0  0
   17.3491  -23.0831    2.3944 S   0  0  0  0  0  0  0  0  0  0  0  0
   15.2862  -20.2661    4.4395 C   0  0  0  0  0  0  0  0  0  0  0  0
   14.6035  -19.3602    3.8946 O   0  0  0  0  0  0  0  0  0  0  0  0
   14.1755  -20.0380    8.0705 C   0  0  0  0  0  0  0  0  0  0  0  0
   15.3637  -19.1393    7.8857 C   0  0  1  0  0  0  0  0  0  0  0  0
   16.4950  -19.8304    8.3148 O   0  0  0  0  0  0  0  0  0  0  0  0
   15.4856  -18.7742    6.4027 C   0  0  2  0  0  0  0  0  0  0  0  0
   15.8667  -19.9830    5.6981 N   0  0  0  0  0  0  0  0  0  0  0  0
   16.5372  -17.7321    6.2352 C   0  0  0  0  0  0  0  0  0  0  0  0
   17.6969  -18.0837    5.9171 O   0  0  0  0  0  0  0  0  0  0  0  0
   16.2769  -16.3634    6.4214 N   0  0  0  0  0  0  0  0  0  0  0  0
   17.3217  -15.3558    6.3748 C   0  0  1  0  0  0  0  0  0  0  0  0
   16.8085  -14.2228    5.5470 C   0  0  0  0  0  0  0  0  0  0  0  0
   17.7863  -13.1168    5.4297 C   0  0  0  0  0  0  0  0  0  0  0  0
   18.5779  -13.0534    4.2932 C   0  0  0  0  0  0  0  0  0  0  0  0
   19.5076  -12.0564    4.1036 C   0  0  0  0  0  0  0  0  0  0  0  0
   19.6482  -11.0955    5.0805 C   0  0  0  0  0  0  0  0  0  0  0  0
   18.8712  -11.1381    6.2203 C   0  0  0  0  0  0  0  0  0  0  0  0
   17.9465  -12.1478    6.3866 C   0  0  0  0  0  0  0  0  0  0  0  0
   17.7855  -14.9691    7.7086 C   0  0  0  0  0  0  0  0  0  0  0  0
   19.1398  -14.6621    7.9367 O   0  0  0  0  0  0  0  0  0  0  0  0
   17.0215  -14.8917    8.6978 O   0  0  0  0  0  0  0  0  0  0  0  0
  2  1  1  6
  3  2  1  0
  4  3  1  0
  5  2  1  0
  5  6  2  0
  8  7  1  6
  8  9  1  0
  8 10  1  0
 10 11  1  6
 11  5  1  0
 12 10  1  0
 13 12  2  0
 14 12  1  0
 15 14  1  0
 15 16  1  1
 16 17  1  0
 17 22  2  0
 18 19  2  0
 18 17  1  0
 19 20  1  0
 20 21  2  0
 22 21  1  0
 23 15  1  0
 24 23  1  0
 25 23  2  0
M  END
$$$$
