CTF.pdb
     RDKit          3D

 25 25  0  0  1  0  0  0  0  0999 V2000
   18.7320  -14.2428  -16.0317 N   0  0  0  0  0  0  0  0  0  0  0  0
   18.4427  -12.9122  -16.4666 C   0  0  1  0  0  0  0  0  0  0  0  0
   17.4033  -12.2243  -15.6104 C   0  0  0  0  0  0  0  0  0  0  0  0
   15.8049  -13.0350  -15.6671 S   0  0  0  0  0  0  0  0  0  0  0  0
   19.6943  -12.0838  -16.3537 C   0  0  0  0  0  0  0  0  0  0  0  0
   20.5257  -12.3013  -15.4343 O   0  0  0  0  0  0  0  0  0  0  0  0
   22.3242  -11.8404  -18.8271 C   0  0  0  0  0  0  0  0  0  0  0  0
   21.9017  -10.4242  -18.5633 C   0  0  1  0  0  0  0  0  0  0  0  0
   20.9904  -10.0573  -19.5515 O   0  0  0  0  0  0  0  0  0  0  0  0
   21.2531  -10.3484  -17.1773 C   0  0  2  0  0  0  0  0  0  0  0  0
   19.9821  -11.0410  -17.2652 N   0  0  0  0  0  0  0  0  0  0  0  0
   21.0329   -8.9208  -16.8123 C   0  0  0  0  0  0  0  0  0  0  0  0
   19.9132   -8.4028  -17.0305 O   0  0  0  0  0  0  0  0  0  0  0  0
   22.0379   -8.1291  -16.2298 N   0  0  0  0  0  0  0  0  0  0  0  0
   21.8650   -6.7101  -15.9742 C   0  0  1  0  0  0  0  0  0  0  0  0
   22.7625   -6.3522  -14.8346 C   0  0  0  0  0  0  0  0  0  0  0  0
   22.7240   -4.9070  -14.5136 C   0  0  0  0  0  0  0  0  0  0  0  0
   23.6541   -4.0725  -15.1141 C   0  0  0  0  0  0  0  0  0  0  0  0
   23.6845   -2.7176  -14.8740 C   0  0  0  0  0  0  0  0  0  0  0  0
   22.7564   -2.1836  -14.0073 C   0  0  0  0  0  0  0  0  0  0  0  0
   21.8208   -2.9948  -13.3978 C   0  0  0  0  0  0  0  0  0  0  0  0
   21.8114   -4.3497  -13.6552 C   0  0  0  0  0  0  0  0  0  0  0  0
   22.0602   -5.8975  -17.1765 C   0  0  0  0  0  0  0  0  0  0  0  0
   21.2408   -4.7819  -17.4297 O   0  0  0  0  0  0  0  0  0  0  0  0
   22.9461   -6.1436  -18.0266 O   0  0  0  0  0  0  0  0  0  0  0  0
  2  1  1  1
  3  2  1  0
  4  3  1  0
  5  2  1  0
  5  6  2  0
  8  7  1  6
  8  9  1  0
  8 10  1  0
 10 11  1  6
 11  5  1  0
 12 10  1  0
 13 12  2  0
 14 12  1  0
 15 14  1  0
 15 16  1  1
 16 17  1  0
 17 22  2  0
 18 19  2  0
 18 17  1  0
 19 20  1  0
 20 21  2  0
 22 21  1  0
 23 15  1  0
 24 23  1  0
 25 23  2  0
M  END
$$$$
