CTF.pdb
     RDKit          3D

 25 25  0  0  1  0  0  0  0  0999 V2000
   26.3445  -18.3589  -15.9694 N   0  0  0  0  0  0  0  0  0  0  0  0
   27.1007  -18.2998  -14.7577 C   0  0  1  0  0  0  0  0  0  0  0  0
   27.5498  -16.8984  -14.4100 C   0  0  0  0  0  0  0  0  0  0  0  0
   28.9119  -16.3294  -15.4281 S   0  0  0  0  0  0  0  0  0  0  0  0
   26.2269  -18.7548  -13.6198 C   0  0  0  0  0  0  0  0  0  0  0  0
   25.0773  -18.2682  -13.4608 O   0  0  0  0  0  0  0  0  0  0  0  0
   24.3976  -21.3177  -13.4504 C   0  0  0  0  0  0  0  0  0  0  0  0
   25.1822  -21.5573  -12.1932 C   0  0  1  0  0  0  0  0  0  0  0  0
   26.2224  -22.4332  -12.4972 O   0  0  0  0  0  0  0  0  0  0  0  0
   25.7340  -20.2200  -11.6885 C   0  0  2  0  0  0  0  0  0  0  0  0
   26.6579  -19.7352  -12.6956 N   0  0  0  0  0  0  0  0  0  0  0  0
   26.4499  -20.4357  -10.3998 C   0  0  0  0  0  0  0  0  0  0  0  0
   27.7011  -20.5000  -10.4023 O   0  0  0  0  0  0  0  0  0  0  0  0
   25.7722  -20.5705   -9.1757 N   0  0  0  0  0  0  0  0  0  0  0  0
   26.4636  -20.8173   -7.9227 C   0  0  1  0  0  0  0  0  0  0  0  0
   27.4726  -19.7287   -7.7512 C   0  0  0  0  0  0  0  0  0  0  0  0
   28.0912  -19.7348   -6.4057 C   0  0  0  0  0  0  0  0  0  0  0  0
   28.9511  -20.7721   -6.0794 C   0  0  0  0  0  0  0  0  0  0  0  0
   29.5708  -20.8508   -4.8529 C   0  0  0  0  0  0  0  0  0  0  0  0
   29.3218  -19.8617   -3.9270 C   0  0  0  0  0  0  0  0  0  0  0  0
   28.4695  -18.8192   -4.2295 C   0  0  0  0  0  0  0  0  0  0  0  0
   27.8607  -18.7633   -5.4658 C   0  0  0  0  0  0  0  0  0  0  0  0
   25.5413  -20.9705   -6.7959 C   0  0  0  0  0  0  0  0  0  0  0  0
   24.1652  -20.7239   -6.9559 O   0  0  0  0  0  0  0  0  0  0  0  0
   25.9162  -21.3213   -5.6537 O   0  0  0  0  0  0  0  0  0  0  0  0
  2  1  1  6
  3  2  1  0
  4  3  1  0
  5  2  1  0
  5  6  2  0
  8  7  1  6
  8  9  1  0
  8 10  1  0
 10 11  1  6
 11  5  1  0
 12 10  1  0
 13 12  2  0
 14 12  1  0
 15 14  1  0
 15 16  1  1
 16 17  1  0
 17 22  2  0
 18 19  2  0
 18 17  1  0
 19 20  1  0
 20 21  2  0
 22 21  1  0
 23 15  1  0
 24 23  1  0
 25 23  2  0
M  END
$$$$
