CHT.pdb
     RDKit          3D

 24 24  0  0  1  0  0  0  0  0999 V2000
    6.2122  -19.7140   19.9557 N   0  0  0  0  0  0  0  0  0  0  0  0
    5.8825  -18.7458   20.9797 C   0  0  1  0  0  0  0  0  0  0  0  0
    5.4519  -19.4890   22.2122 C   0  0  0  0  0  0  0  0  0  0  0  0
    4.9254  -18.2256   23.4322 S   0  0  0  0  0  0  0  0  0  0  0  0
    6.9933  -17.8169   21.2098 C   0  0  0  0  0  0  0  0  0  0  0  0
    8.1646  -18.2834   21.2724 O   0  0  0  0  0  0  0  0  0  0  0  0
    6.8596  -16.4214   21.3698 N   0  0  0  0  0  0  0  0  0  0  0  0
    7.9426  -15.5205   21.6203 C   0  0  1  0  0  0  0  0  0  0  0  0
    7.5830  -14.1029   21.1543 C   0  0  0  0  0  0  0  0  0  0  0  0
    7.7788  -13.9524   19.6925 C   0  0  0  0  0  0  0  0  0  0  0  0
    8.3472  -14.9059   18.8423 C   0  0  0  0  0  0  0  0  0  0  0  0
    8.3615  -14.4240   17.5868 N   0  0  0  0  0  0  0  0  0  0  0  0
    7.8117  -13.1771   17.6174 C   0  0  0  0  0  0  0  0  0  0  0  0
    7.4713  -12.9193   18.8906 N   0  0  0  0  0  0  0  0  0  0  0  0
    8.2880  -15.4130   23.0581 C   0  0  0  0  0  0  0  0  0  0  0  0
    7.3446  -15.1010   23.8417 O   0  0  0  0  0  0  0  0  0  0  0  0
    7.4768  -16.9690   25.2355 C   0  0  0  0  0  0  0  0  0  0  0  0
    8.9510  -17.1206   25.4415 C   0  0  1  0  0  0  0  0  0  0  0  0
    9.4559  -18.3006   24.8993 O   0  0  0  0  0  0  0  0  0  0  0  0
    9.7275  -15.9036   24.9910 C   0  0  2  0  0  0  0  0  0  0  0  0
    9.5658  -15.6308   23.5894 N   0  0  0  0  0  0  0  0  0  0  0  0
   11.1604  -16.0837   25.3488 C   0  0  0  0  0  0  0  0  0  0  0  0
   12.1061  -16.1290   24.3156 O   0  0  0  0  0  0  0  0  0  0  0  0
   11.4785  -16.1891   26.5550 O   0  0  0  0  0  0  0  0  0  0  0  0
  2  5  1  0
  2  1  1  6
  3  2  1  0
  4  3  1  0
  5  6  2  0
  7  8  1  0
  7  5  1  0
  9 10  1  0
  8  9  1  1
 10 14  1  0
 11 12  1  0
 11 10  2  0
 12 13  1  0
 13 14  2  0
 15  8  1  0
 15 21  1  0
 16 15  2  0
 18 17  1  6
 19 18  1  0
 20 21  1  6
 20 18  1  0
 22 20  1  0
 23 22  1  0
 24 22  2  0
M  END
$$$$
