CHT.pdb
     RDKit          3D

 24 24  0  0  1  0  0  0  0  0999 V2000
    4.7716  -20.0066   20.6533 N   0  0  0  0  0  0  0  0  0  0  0  0
    5.0283  -18.6355   21.0393 C   0  0  1  0  0  0  0  0  0  0  0  0
    4.4217  -18.4042   22.3940 C   0  0  0  0  0  0  0  0  0  0  0  0
    2.6142  -18.2314   22.1393 S   0  0  0  0  0  0  0  0  0  0  0  0
    6.4596  -18.3243   20.9736 C   0  0  0  0  0  0  0  0  0  0  0  0
    7.2869  -19.2351   21.2554 O   0  0  0  0  0  0  0  0  0  0  0  0
    6.9981  -17.0702   20.6156 N   0  0  0  0  0  0  0  0  0  0  0  0
    8.3932  -16.7529   20.6068 C   0  0  1  0  0  0  0  0  0  0  0  0
    8.6537  -15.4919   19.7713 C   0  0  0  0  0  0  0  0  0  0  0  0
   10.1048  -15.2066   19.6676 C   0  0  0  0  0  0  0  0  0  0  0  0
   10.9968  -15.1111   20.7401 C   0  0  0  0  0  0  0  0  0  0  0  0
   12.2269  -14.8423   20.2675 N   0  0  0  0  0  0  0  0  0  0  0  0
   12.1388  -14.7638   18.9095 C   0  0  0  0  0  0  0  0  0  0  0  0
   10.8569  -14.9859   18.5766 N   0  0  0  0  0  0  0  0  0  0  0  0
    8.9350  -16.4778   21.9592 C   0  0  0  0  0  0  0  0  0  0  0  0
    8.3106  -15.6227   22.6523 O   0  0  0  0  0  0  0  0  0  0  0  0
   10.8125  -19.2305   24.2734 C   0  0  0  0  0  0  0  0  0  0  0  0
   10.2649  -17.9412   24.7990 C   0  0  1  0  0  0  0  0  0  0  0  0
   10.7040  -17.6513   26.0892 O   0  0  0  0  0  0  0  0  0  0  0  0
   10.4820  -16.7875   23.8459 C   0  0  2  0  0  0  0  0  0  0  0  0
   10.0699  -17.0927   22.5034 N   0  0  0  0  0  0  0  0  0  0  0  0
   11.9120  -16.3797   23.8970 C   0  0  0  0  0  0  0  0  0  0  0  0
   12.4516  -15.9902   25.1303 O   0  0  0  0  0  0  0  0  0  0  0  0
   12.5881  -16.3961   22.8437 O   0  0  0  0  0  0  0  0  0  0  0  0
  2  5  1  0
  2  1  1  1
  3  2  1  0
  4  3  1  0
  5  6  2  0
  7  8  1  0
  7  5  1  0
  9 10  1  0
  8  9  1  6
 10 14  1  0
 11 12  1  0
 11 10  2  0
 12 13  1  0
 13 14  2  0
 15  8  1  0
 15 21  1  0
 16 15  2  0
 18 17  1  6
 19 18  1  0
 20 21  1  6
 20 18  1  0
 22 20  1  0
 23 22  1  0
 24 22  2  0
M  END
$$$$
