CHT.pdb
     RDKit          3D

 24 24  0  0  1  0  0  0  0  0999 V2000
    9.5509  -16.7796   17.6641 N   0  0  0  0  0  0  0  0  0  0  0  0
    8.5519  -17.2002   18.6232 C   0  0  1  0  0  0  0  0  0  0  0  0
    8.5197  -18.7019   18.6446 C   0  0  0  0  0  0  0  0  0  0  0  0
    7.2577  -19.1842   19.8843 S   0  0  0  0  0  0  0  0  0  0  0  0
    8.7910  -16.5973   19.9381 C   0  0  0  0  0  0  0  0  0  0  0  0
    9.9765  -16.5421   20.3682 O   0  0  0  0  0  0  0  0  0  0  0  0
    7.7891  -16.0646   20.7768 N   0  0  0  0  0  0  0  0  0  0  0  0
    8.0233  -15.4924   22.0671 C   0  0  1  0  0  0  0  0  0  0  0  0
    6.7373  -14.8606   22.6178 C   0  0  0  0  0  0  0  0  0  0  0  0
    6.9884  -14.1644   23.9023 C   0  0  0  0  0  0  0  0  0  0  0  0
    8.1950  -14.1645   24.6089 C   0  0  0  0  0  0  0  0  0  0  0  0
    8.0515  -13.4294   25.7260 N   0  0  0  0  0  0  0  0  0  0  0  0
    6.7729  -12.9577   25.7477 C   0  0  0  0  0  0  0  0  0  0  0  0
    6.1579  -13.4127   24.6440 N   0  0  0  0  0  0  0  0  0  0  0  0
    8.4637  -16.4886   23.0731 C   0  0  0  0  0  0  0  0  0  0  0  0
    7.7424  -17.5211   23.1957 O   0  0  0  0  0  0  0  0  0  0  0  0
   11.5016  -18.5699   22.9747 C   0  0  0  0  0  0  0  0  0  0  0  0
   11.4414  -17.9243   24.3231 C   0  0  1  0  0  0  0  0  0  0  0  0
   12.3901  -16.9168   24.4848 O   0  0  0  0  0  0  0  0  0  0  0  0
   10.0470  -17.4629   24.6833 C   0  0  2  0  0  0  0  0  0  0  0  0
    9.6033  -16.3589   23.8774 N   0  0  0  0  0  0  0  0  0  0  0  0
   10.0065  -17.1298   26.1327 C   0  0  0  0  0  0  0  0  0  0  0  0
   10.1894  -18.1637   27.0609 O   0  0  0  0  0  0  0  0  0  0  0  0
    9.8114  -15.9430   26.4799 O   0  0  0  0  0  0  0  0  0  0  0  0
  2  5  1  0
  2  1  1  6
  3  2  1  0
  4  3  1  0
  5  6  2  0
  7  8  1  0
  7  5  1  0
  9 10  1  0
  8  9  1  1
 10 14  1  0
 11 12  1  0
 11 10  2  0
 12 13  1  0
 13 14  2  0
 15  8  1  0
 15 21  1  0
 16 15  2  0
 18 17  1  6
 19 18  1  0
 20 21  1  6
 20 18  1  0
 22 20  1  0
 23 22  1  0
 24 22  2  0
M  END
$$$$
