CHT.pdb
     RDKit          3D

 24 24  0  0  1  0  0  0  0  0999 V2000
    7.7702  -15.5089   18.3293 N   0  0  0  0  0  0  0  0  0  0  0  0
    8.3245  -14.6671   19.3679 C   0  0  1  0  0  0  0  0  0  0  0  0
    7.7713  -13.2808   19.1984 C   0  0  0  0  0  0  0  0  0  0  0  0
    8.7230  -12.4960   17.8418 S   0  0  0  0  0  0  0  0  0  0  0  0
    8.0869  -15.2377   20.6974 C   0  0  0  0  0  0  0  0  0  0  0  0
    6.9135  -15.5918   20.9993 O   0  0  0  0  0  0  0  0  0  0  0  0
    9.0777  -15.4272   21.6840 N   0  0  0  0  0  0  0  0  0  0  0  0
    8.8483  -16.0101   22.9704 C   0  0  1  0  0  0  0  0  0  0  0  0
    9.9140  -17.0709   23.2790 C   0  0  0  0  0  0  0  0  0  0  0  0
    9.5678  -18.3747   22.6642 C   0  0  0  0  0  0  0  0  0  0  0  0
    8.4078  -18.6507   21.9340 C   0  0  0  0  0  0  0  0  0  0  0  0
    8.4350  -19.9339   21.5320 N   0  0  0  0  0  0  0  0  0  0  0  0
    9.5934  -20.4856   21.9923 C   0  0  0  0  0  0  0  0  0  0  0  0
   10.2531  -19.5302   22.6670 N   0  0  0  0  0  0  0  0  0  0  0  0
    8.9090  -15.0228   24.0748 C   0  0  0  0  0  0  0  0  0  0  0  0
    9.8941  -14.2286   24.0661 O   0  0  0  0  0  0  0  0  0  0  0  0
    6.9559  -12.1793   27.5074 C   0  0  0  0  0  0  0  0  0  0  0  0
    6.7929  -13.2713   26.4977 C   0  0  1  0  0  0  0  0  0  0  0  0
    6.0567  -12.8743   25.3834 O   0  0  0  0  0  0  0  0  0  0  0  0
    8.1096  -13.9107   26.1177 C   0  0  2  0  0  0  0  0  0  0  0  0
    7.9638  -14.9183   25.1034 N   0  0  0  0  0  0  0  0  0  0  0  0
    8.7526  -14.4596   27.3419 C   0  0  0  0  0  0  0  0  0  0  0  0
    9.2282  -13.5611   28.3065 O   0  0  0  0  0  0  0  0  0  0  0  0
    8.8500  -15.7005   27.4748 O   0  0  0  0  0  0  0  0  0  0  0  0
  2  5  1  0
  2  1  1  6
  3  2  1  0
  4  3  1  0
  5  6  2  0
  7  8  1  0
  7  5  1  0
  9 10  1  0
  8  9  1  1
 10 14  1  0
 11 12  1  0
 11 10  2  0
 12 13  1  0
 13 14  2  0
 15  8  1  0
 15 21  1  0
 16 15  2  0
 18 17  1  1
 19 18  1  0
 20 21  1  6
 20 18  1  0
 22 20  1  0
 23 22  1  0
 24 22  2  0
M  END
$$$$
