CHT.pdb
     RDKit          3D

 24 24  0  0  1  0  0  0  0  0999 V2000
    7.4911  -13.2677   17.1615 N   0  0  0  0  0  0  0  0  0  0  0  0
    8.0371  -13.1936   18.4998 C   0  0  1  0  0  0  0  0  0  0  0  0
    6.9304  -13.4678   19.4779 C   0  0  0  0  0  0  0  0  0  0  0  0
    7.6851  -13.4406   21.1487 S   0  0  0  0  0  0  0  0  0  0  0  0
    9.1921  -14.0839   18.6523 C   0  0  0  0  0  0  0  0  0  0  0  0
    9.1457  -15.2265   18.1179 O   0  0  0  0  0  0  0  0  0  0  0  0
   10.3709  -13.7641   19.3587 N   0  0  0  0  0  0  0  0  0  0  0  0
   11.4939  -14.6375   19.5114 C   0  0  1  0  0  0  0  0  0  0  0  0
   12.8063  -13.8441   19.4463 C   0  0  0  0  0  0  0  0  0  0  0  0
   13.9698  -14.7448   19.2652 C   0  0  0  0  0  0  0  0  0  0  0  0
   13.9263  -16.1423   19.2517 C   0  0  0  0  0  0  0  0  0  0  0  0
   15.1696  -16.6200   19.0650 N   0  0  0  0  0  0  0  0  0  0  0  0
   16.0100  -15.5521   18.9586 C   0  0  0  0  0  0  0  0  0  0  0  0
   15.2656  -14.4412   19.0821 N   0  0  0  0  0  0  0  0  0  0  0  0
   11.5013  -15.3523   20.8103 C   0  0  0  0  0  0  0  0  0  0  0  0
   11.1010  -14.6965   21.8159 O   0  0  0  0  0  0  0  0  0  0  0  0
   11.0646  -19.3359   23.5404 C   0  0  0  0  0  0  0  0  0  0  0  0
   11.1532  -18.6714   22.2029 C   0  0  1  0  0  0  0  0  0  0  0  0
    9.9344  -18.6462   21.5281 O   0  0  0  0  0  0  0  0  0  0  0  0
   11.7974  -17.3052   22.2757 C   0  0  2  0  0  0  0  0  0  0  0  0
   11.9151  -16.6789   20.9877 N   0  0  0  0  0  0  0  0  0  0  0  0
   13.1209  -17.4290   22.9440 C   0  0  0  0  0  0  0  0  0  0  0  0
   13.1863  -17.2563   24.3332 O   0  0  0  0  0  0  0  0  0  0  0  0
   14.1321  -17.6821   22.2508 O   0  0  0  0  0  0  0  0  0  0  0  0
  2  5  1  0
  2  1  1  6
  3  2  1  0
  4  3  1  0
  5  6  2  0
  7  8  1  0
  7  5  1  0
  9 10  1  0
  8  9  1  1
 10 14  1  0
 11 12  1  0
 11 10  2  0
 12 13  1  0
 13 14  2  0
 15  8  1  0
 15 21  1  0
 16 15  2  0
 18 17  1  1
 19 18  1  0
 20 21  1  6
 20 18  1  0
 22 20  1  0
 23 22  1  0
 24 22  2  0
M  END
$$$$
