CHT.pdb
     RDKit          3D

 24 24  0  0  1  0  0  0  0  0999 V2000
    8.0574  -14.5031   16.6408 N   0  0  0  0  0  0  0  0  0  0  0  0
    8.8237  -13.8506   17.6809 C   0  0  1  0  0  0  0  0  0  0  0  0
    7.8942  -13.5131   18.8118 C   0  0  0  0  0  0  0  0  0  0  0  0
    6.8637  -12.1065   18.2448 S   0  0  0  0  0  0  0  0  0  0  0  0
    9.9723  -14.6668   18.0859 C   0  0  0  0  0  0  0  0  0  0  0  0
    9.8530  -15.9234   18.0699 O   0  0  0  0  0  0  0  0  0  0  0  0
   11.2210  -14.1558   18.4989 N   0  0  0  0  0  0  0  0  0  0  0  0
   12.3498  -14.9551   18.8652 C   0  0  1  0  0  0  0  0  0  0  0  0
   13.6524  -14.2997   18.3859 C   0  0  0  0  0  0  0  0  0  0  0  0
   14.8332  -15.1127   18.7637 C   0  0  0  0  0  0  0  0  0  0  0  0
   15.9991  -14.6289   19.3650 C   0  0  0  0  0  0  0  0  0  0  0  0
   16.8510  -15.6511   19.5602 N   0  0  0  0  0  0  0  0  0  0  0  0
   16.2509  -16.7827   19.0940 C   0  0  0  0  0  0  0  0  0  0  0  0
   15.0434  -16.4320   18.6224 N   0  0  0  0  0  0  0  0  0  0  0  0
   12.4853  -15.1317   20.3311 C   0  0  0  0  0  0  0  0  0  0  0  0
   12.6064  -14.0748   21.0164 O   0  0  0  0  0  0  0  0  0  0  0  0
   10.1770  -16.3640   23.1157 C   0  0  0  0  0  0  0  0  0  0  0  0
   11.4301  -17.1788   23.0506 C   0  0  1  0  0  0  0  0  0  0  0  0
   11.2346  -18.4288   22.4670 O   0  0  0  0  0  0  0  0  0  0  0  0
   12.5799  -16.4248   22.4211 C   0  0  2  0  0  0  0  0  0  0  0  0
   12.4873  -16.3690   20.9880 N   0  0  0  0  0  0  0  0  0  0  0  0
   13.8611  -17.0407   22.8602 C   0  0  0  0  0  0  0  0  0  0  0  0
   14.1985  -16.9829   24.2192 O   0  0  0  0  0  0  0  0  0  0  0  0
   14.5966  -17.5894   22.0088 O   0  0  0  0  0  0  0  0  0  0  0  0
  2  5  1  0
  2  1  1  6
  3  2  1  0
  4  3  1  0
  5  6  2  0
  7  8  1  0
  7  5  1  0
  9 10  1  0
  8  9  1  1
 10 14  1  0
 11 12  1  0
 11 10  2  0
 12 13  1  0
 13 14  2  0
 15  8  1  0
 15 21  1  0
 16 15  2  0
 18 17  1  6
 19 18  1  0
 20 21  1  6
 20 18  1  0
 22 20  1  0
 23 22  1  0
 24 22  2  0
M  END
$$$$
