CHT.pdb
     RDKit          3D

 24 24  0  0  1  0  0  0  0  0999 V2000
    3.8232  -19.0571   20.3606 N   0  0  0  0  0  0  0  0  0  0  0  0
    4.2195  -18.4182   21.5974 C   0  0  1  0  0  0  0  0  0  0  0  0
    3.9480  -19.3686   22.7287 C   0  0  0  0  0  0  0  0  0  0  0  0
    2.1885  -19.1449   23.1937 S   0  0  0  0  0  0  0  0  0  0  0  0
    5.6101  -17.9579   21.5356 C   0  0  0  0  0  0  0  0  0  0  0  0
    6.4488  -18.6597   20.9051 O   0  0  0  0  0  0  0  0  0  0  0  0
    6.0971  -16.7756   22.1323 N   0  0  0  0  0  0  0  0  0  0  0  0
    7.4724  -16.3821   22.1617 C   0  0  1  0  0  0  0  0  0  0  0  0
    7.5940  -14.8538   22.2367 C   0  0  0  0  0  0  0  0  0  0  0  0
    7.6623  -14.2535   20.8829 C   0  0  0  0  0  0  0  0  0  0  0  0
    7.6928  -14.9603   19.6768 C   0  0  0  0  0  0  0  0  0  0  0  0
    7.7545  -14.0871   18.6558 N   0  0  0  0  0  0  0  0  0  0  0  0
    7.7640  -12.8317   19.1869 C   0  0  0  0  0  0  0  0  0  0  0  0
    7.7080  -12.9601   20.5225 N   0  0  0  0  0  0  0  0  0  0  0  0
    8.2050  -16.9179   23.3341 C   0  0  0  0  0  0  0  0  0  0  0  0
    7.6081  -16.8536   24.4481 O   0  0  0  0  0  0  0  0  0  0  0  0
   11.5541  -19.8471   25.3865 C   0  0  0  0  0  0  0  0  0  0  0  0
   10.9761  -19.2264   24.1539 C   0  0  1  0  0  0  0  0  0  0  0  0
   10.3710  -20.1563   23.3110 O   0  0  0  0  0  0  0  0  0  0  0  0
   10.0686  -18.0573   24.4644 C   0  0  2  0  0  0  0  0  0  0  0  0
    9.4880  -17.4779   23.2843 N   0  0  0  0  0  0  0  0  0  0  0  0
   10.8303  -17.0478   25.2482 C   0  0  0  0  0  0  0  0  0  0  0  0
   11.1678  -17.3483   26.5748 O   0  0  0  0  0  0  0  0  0  0  0  0
   11.1461  -15.9656   24.7040 O   0  0  0  0  0  0  0  0  0  0  0  0
  2  5  1  0
  2  1  1  6
  3  2  1  0
  4  3  1  0
  5  6  2  0
  7  8  1  0
  7  5  1  0
  9 10  1  0
  8  9  1  1
 10 14  1  0
 11 12  1  0
 11 10  2  0
 12 13  1  0
 13 14  2  0
 15  8  1  0
 15 21  1  0
 16 15  2  0
 18 17  1  1
 19 18  1  0
 20 21  1  6
 20 18  1  0
 22 20  1  0
 23 22  1  0
 24 22  2  0
M  END
$$$$
