CHT.pdb
     RDKit          3D

 24 24  0  0  1  0  0  0  0  0999 V2000
    6.6123  -19.3881   19.5898 N   0  0  0  0  0  0  0  0  0  0  0  0
    5.9893  -18.5493   20.5913 C   0  0  1  0  0  0  0  0  0  0  0  0
    5.2048  -19.4286   21.5230 C   0  0  0  0  0  0  0  0  0  0  0  0
    4.3058  -18.3135   22.6677 S   0  0  0  0  0  0  0  0  0  0  0  0
    6.9795  -17.7073   21.2697 C   0  0  0  0  0  0  0  0  0  0  0  0
    8.0348  -18.2487   21.7017 O   0  0  0  0  0  0  0  0  0  0  0  0
    6.8486  -16.3187   21.4833 N   0  0  0  0  0  0  0  0  0  0  0  0
    7.7869  -15.5107   22.2003 C   0  0  1  0  0  0  0  0  0  0  0  0
    7.5026  -14.0203   21.9678 C   0  0  0  0  0  0  0  0  0  0  0  0
    7.9440  -13.5935   20.6185 C   0  0  0  0  0  0  0  0  0  0  0  0
    8.6027  -14.3970   19.6827 C   0  0  0  0  0  0  0  0  0  0  0  0
    8.8457  -13.6743   18.5748 N   0  0  0  0  0  0  0  0  0  0  0  0
    8.3538  -12.4204   18.7843 C   0  0  0  0  0  0  0  0  0  0  0  0
    7.8192  -12.3993   20.0160 N   0  0  0  0  0  0  0  0  0  0  0  0
    7.7346  -15.7226   23.6668 C   0  0  0  0  0  0  0  0  0  0  0  0
    6.7081  -15.2836   24.2626 O   0  0  0  0  0  0  0  0  0  0  0  0
    6.4489  -18.0762   25.4027 C   0  0  0  0  0  0  0  0  0  0  0  0
    7.8330  -18.0400   25.9697 C   0  0  1  0  0  0  0  0  0  0  0  0
    8.6330  -19.0860   25.5146 O   0  0  0  0  0  0  0  0  0  0  0  0
    8.4961  -16.6922   25.7949 C   0  0  2  0  0  0  0  0  0  0  0  0
    8.7297  -16.3644   24.4153 N   0  0  0  0  0  0  0  0  0  0  0  0
    9.7588  -16.6681   26.5815 C   0  0  0  0  0  0  0  0  0  0  0  0
    9.6783  -16.7708   27.9769 O   0  0  0  0  0  0  0  0  0  0  0  0
   10.8502  -16.5575   25.9785 O   0  0  0  0  0  0  0  0  0  0  0  0
  2  5  1  0
  2  1  1  6
  3  2  1  0
  4  3  1  0
  5  6  2  0
  7  8  1  0
  7  5  1  0
  9 10  1  0
  8  9  1  1
 10 14  1  0
 11 12  1  0
 11 10  2  0
 12 13  1  0
 13 14  2  0
 15  8  1  0
 15 21  1  0
 16 15  2  0
 18 17  1  6
 19 18  1  0
 20 21  1  6
 20 18  1  0
 22 20  1  0
 23 22  1  0
 24 22  2  0
M  END
$$$$
