ASG.pdb
     RDKit          3D

 16 15  0  0  1  0  0  0  0  0999 V2000
   11.6898  -20.4376   20.2061 C   0  0  0  0  0  0  0  0  0  0  0  0
   10.6935  -19.4948   20.8439 C   0  0  2  0  0  0  0  0  0  0  0  0
    9.5982  -19.1804   19.9835 N   0  0  0  0  0  0  0  0  0  0  0  0
   11.4449  -18.2749   21.2640 C   0  0  0  0  0  0  0  0  0  0  0  0
   12.4082  -17.8438   20.5790 O   0  0  0  0  0  0  0  0  0  0  0  0
   10.2243  -15.9860   24.5399 O   0  0  0  0  0  0  0  0  0  0  0  0
   10.9021  -15.3977   23.4812 C   0  0  0  0  0  0  0  0  0  0  0  0
   11.8720  -16.3728   22.8418 C   0  0  2  0  0  0  0  0  0  0  0  0
   11.1169  -17.5443   22.4449 N   0  0  0  0  0  0  0  0  0  0  0  0
   12.8900  -16.7191   23.8784 C   0  0  0  0  0  0  0  0  0  0  0  0
   12.5974  -17.4439   24.8618 O   0  0  0  0  0  0  0  0  0  0  0  0
   14.2052  -16.2092   23.7299 N   0  0  0  0  0  0  0  0  0  0  0  0
   15.2229  -16.5934   24.6919 C   0  0  0  0  0  0  0  0  0  0  0  0
   16.4964  -15.9006   24.3550 C   0  0  0  0  0  0  0  0  0  0  0  0
   17.0762  -16.0741   23.2649 O   0  0  0  0  0  0  0  0  0  0  0  0
   17.0902  -15.0242   25.2586 O   0  0  0  0  0  0  0  0  0  0  0  0
  2  1  1  6
  2  3  1  0
  4  2  1  0
  4  5  2  0
  6  7  1  0
  8  7  1  1
  8  9  1  0
  9  4  1  0
 10  8  1  0
 11 10  2  0
 12 10  1  0
 13 12  1  0
 14 13  1  0
 14 16  1  0
 15 14  2  0
M  END
$$$$
