ASG.pdb
     RDKit          3D

 16 15  0  0  1  0  0  0  0  0999 V2000
   -5.5997  -26.4938   23.4181 C   0  0  0  0  0  0  0  0  0  0  0  0
   -5.5438  -25.0993   24.0017 C   0  0  2  0  0  0  0  0  0  0  0  0
   -4.2405  -24.7433   24.4637 N   0  0  0  0  0  0  0  0  0  0  0  0
   -6.5622  -25.0346   25.0916 C   0  0  0  0  0  0  0  0  0  0  0  0
   -7.7785  -25.2479   24.8503 O   0  0  0  0  0  0  0  0  0  0  0  0
   -5.4433  -25.3602   28.9707 O   0  0  0  0  0  0  0  0  0  0  0  0
   -6.7449  -25.6529   28.5881 C   0  0  0  0  0  0  0  0  0  0  0  0
   -7.2173  -24.7174   27.4916 C   0  0  2  0  0  0  0  0  0  0  0  0
   -6.2175  -24.7324   26.4428 N   0  0  0  0  0  0  0  0  0  0  0  0
   -7.3351  -23.3578   28.0984 C   0  0  0  0  0  0  0  0  0  0  0  0
   -6.4712  -22.4717   27.8831 O   0  0  0  0  0  0  0  0  0  0  0  0
   -8.4511  -23.0839   28.9299 N   0  0  0  0  0  0  0  0  0  0  0  0
   -8.5952  -21.7569   29.5018 C   0  0  0  0  0  0  0  0  0  0  0  0
   -7.6829  -21.6298   30.6709 C   0  0  0  0  0  0  0  0  0  0  0  0
   -7.7020  -22.4416   31.6170 O   0  0  0  0  0  0  0  0  0  0  0  0
   -6.7657  -20.5857   30.7475 O   0  0  0  0  0  0  0  0  0  0  0  0
  2  1  1  1
  2  3  1  0
  4  2  1  0
  4  5  2  0
  6  7  1  0
  8  7  1  1
  8  9  1  0
  9  4  1  0
 10  8  1  0
 11 10  2  0
 12 10  1  0
 13 12  1  0
 14 13  1  0
 14 16  1  0
 15 14  2  0
M  END
$$$$
