ASG.pdb
     RDKit          3D

 16 15  0  0  1  0  0  0  0  0999 V2000
    8.6186  -17.1432   15.7730 C   0  0  0  0  0  0  0  0  0  0  0  0
    8.9494  -15.7162   15.3953 C   0  0  2  0  0  0  0  0  0  0  0  0
    9.9146  -15.6296   14.3468 N   0  0  0  0  0  0  0  0  0  0  0  0
    9.4064  -15.0244   16.6370 C   0  0  0  0  0  0  0  0  0  0  0  0
   10.6309  -14.9379   16.9128 O   0  0  0  0  0  0  0  0  0  0  0  0
    6.6713  -13.4008   19.3724 O   0  0  0  0  0  0  0  0  0  0  0  0
    7.9078  -12.7934   19.2032 C   0  0  0  0  0  0  0  0  0  0  0  0
    8.9599  -13.8007   18.7801 C   0  0  2  0  0  0  0  0  0  0  0  0
    8.4949  -14.4338   17.5624 N   0  0  0  0  0  0  0  0  0  0  0  0
    9.0816  -14.7959   19.8872 C   0  0  0  0  0  0  0  0  0  0  0  0
    8.4711  -15.8930   19.8464 O   0  0  0  0  0  0  0  0  0  0  0  0
    9.9072  -14.4757   20.9952 N   0  0  0  0  0  0  0  0  0  0  0  0
   10.0027  -15.4156   22.0980 C   0  0  0  0  0  0  0  0  0  0  0  0
   11.3870  -15.9595   22.1546 C   0  0  0  0  0  0  0  0  0  0  0  0
   12.2043  -15.7876   21.2288 O   0  0  0  0  0  0  0  0  0  0  0  0
   11.8205  -16.6881   23.2584 O   0  0  0  0  0  0  0  0  0  0  0  0
  2  1  1  1
  2  3  1  0
  4  2  1  0
  4  5  2  0
  6  7  1  0
  8  7  1  1
  8  9  1  0
  9  4  1  0
 10  8  1  0
 11 10  2  0
 12 10  1  0
 13 12  1  0
 14 13  1  0
 14 16  1  0
 15 14  2  0
M  END
$$$$
