ASG.pdb
     RDKit          3D

 16 15  0  0  1  0  0  0  0  0999 V2000
    8.3598  -17.8689   11.0548 C   0  0  0  0  0  0  0  0  0  0  0  0
    6.9376  -17.3767   10.9026 C   0  0  2  0  0  0  0  0  0  0  0  0
    6.8468  -16.1684   10.1472 N   0  0  0  0  0  0  0  0  0  0  0  0
    6.3730  -17.2231   12.2762 C   0  0  0  0  0  0  0  0  0  0  0  0
    6.3428  -16.0979   12.8383 O   0  0  0  0  0  0  0  0  0  0  0  0
    4.7112  -20.4671   14.5540 O   0  0  0  0  0  0  0  0  0  0  0  0
    4.1628  -19.1945   14.4760 C   0  0  0  0  0  0  0  0  0  0  0  0
    5.2426  -18.1412   14.3181 C   0  0  2  0  0  0  0  0  0  0  0  0
    5.8459  -18.3252   13.0135 N   0  0  0  0  0  0  0  0  0  0  0  0
    6.2400  -18.3720   15.4055 C   0  0  0  0  0  0  0  0  0  0  0  0
    7.3103  -18.9920   15.1865 O   0  0  0  0  0  0  0  0  0  0  0  0
    5.9530  -17.8731   16.7019 N   0  0  0  0  0  0  0  0  0  0  0  0
    6.9438  -18.0283   17.7521 C   0  0  0  0  0  0  0  0  0  0  0  0
    6.6900  -19.3042   18.4753 C   0  0  0  0  0  0  0  0  0  0  0  0
    6.8186  -20.4148   17.9235 O   0  0  0  0  0  0  0  0  0  0  0  0
    6.2953  -19.2992   19.8100 O   0  0  0  0  0  0  0  0  0  0  0  0
  2  1  1  1
  2  3  1  0
  4  2  1  0
  4  5  2  0
  6  7  1  0
  8  7  1  1
  8  9  1  0
  9  4  1  0
 10  8  1  0
 11 10  2  0
 12 10  1  0
 13 12  1  0
 14 13  1  0
 14 16  1  0
 15 14  2  0
M  END
$$$$
