ASG.pdb
     RDKit          3D

 16 15  0  0  1  0  0  0  0  0999 V2000
    7.7486  -13.9278   15.3705 C   0  0  0  0  0  0  0  0  0  0  0  0
    8.6678  -14.5541   16.3958 C   0  0  2  0  0  0  0  0  0  0  0  0
    8.3556  -15.9225   16.6581 N   0  0  0  0  0  0  0  0  0  0  0  0
    8.5925  -13.7153   17.6287 C   0  0  0  0  0  0  0  0  0  0  0  0
    8.9679  -12.5145   17.6149 O   0  0  0  0  0  0  0  0  0  0  0  0
    6.9819  -15.2375   21.1693 O   0  0  0  0  0  0  0  0  0  0  0  0
    6.7890  -13.9018   20.8454 C   0  0  0  0  0  0  0  0  0  0  0  0
    7.9466  -13.3637   20.0264 C   0  0  2  0  0  0  0  0  0  0  0  0
    8.0991  -14.2212   18.8682 N   0  0  0  0  0  0  0  0  0  0  0  0
    9.1596  -13.4192   20.8960 C   0  0  0  0  0  0  0  0  0  0  0  0
    9.2198  -12.7729   21.9715 O   0  0  0  0  0  0  0  0  0  0  0  0
   10.2521  -14.2227   20.4804 N   0  0  0  0  0  0  0  0  0  0  0  0
   11.3396  -14.4694   21.4106 C   0  0  0  0  0  0  0  0  0  0  0  0
   11.8129  -15.8707   21.2444 C   0  0  0  0  0  0  0  0  0  0  0  0
   12.7375  -16.1690   20.4630 O   0  0  0  0  0  0  0  0  0  0  0  0
   11.2306  -16.9087   21.9661 O   0  0  0  0  0  0  0  0  0  0  0  0
  2  1  1  6
  2  3  1  0
  4  2  1  0
  4  5  2  0
  6  7  1  0
  8  7  1  1
  8  9  1  0
  9  4  1  0
 10  8  1  0
 11 10  2  0
 12 10  1  0
 13 12  1  0
 14 13  1  0
 14 16  1  0
 15 14  2  0
M  END
$$$$
