ASG.pdb
     RDKit          3D

 16 15  0  0  1  0  0  0  0  0999 V2000
   -7.8229  -24.5056   22.2220 C   0  0  0  0  0  0  0  0  0  0  0  0
   -8.4674  -23.1654   22.4988 C   0  0  2  0  0  0  0  0  0  0  0  0
   -8.1416  -22.1802   21.5180 N   0  0  0  0  0  0  0  0  0  0  0  0
   -8.0518  -22.7494   23.8712 C   0  0  0  0  0  0  0  0  0  0  0  0
   -6.8346  -22.6368   24.1694 O   0  0  0  0  0  0  0  0  0  0  0  0
  -10.8259  -21.2834   26.6301 O   0  0  0  0  0  0  0  0  0  0  0  0
   -9.5068  -20.8532   26.5982 C   0  0  0  0  0  0  0  0  0  0  0  0
   -8.5724  -21.9798   26.2007 C   0  0  2  0  0  0  0  0  0  0  0  0
   -8.9961  -22.4620   24.9015 N   0  0  0  0  0  0  0  0  0  0  0  0
   -8.7088  -23.0464   27.2372 C   0  0  0  0  0  0  0  0  0  0  0  0
   -9.3969  -24.0758   27.0255 O   0  0  0  0  0  0  0  0  0  0  0  0
   -8.0406  -22.8732   28.4763 N   0  0  0  0  0  0  0  0  0  0  0  0
   -8.1126  -23.9298   29.4698 C   0  0  0  0  0  0  0  0  0  0  0  0
   -9.4475  -23.8890   30.1270 C   0  0  0  0  0  0  0  0  0  0  0  0
  -10.2866  -23.0042   29.8672 O   0  0  0  0  0  0  0  0  0  0  0  0
   -9.8077  -24.8508   31.0664 O   0  0  0  0  0  0  0  0  0  0  0  0
  2  1  1  6
  2  3  1  0
  4  2  1  0
  4  5  2  0
  6  7  1  0
  8  7  1  1
  8  9  1  0
  9  4  1  0
 10  8  1  0
 11 10  2  0
 12 10  1  0
 13 12  1  0
 14 13  1  0
 14 16  1  0
 15 14  2  0
M  END
$$$$
