ASG.pdb
     RDKit          3D

 16 15  0  0  1  0  0  0  0  0999 V2000
   10.1686  -17.4479   17.2769 C   0  0  0  0  0  0  0  0  0  0  0  0
    9.6282  -16.2836   16.4766 C   0  0  2  0  0  0  0  0  0  0  0  0
   10.2615  -16.1435   15.2045 N   0  0  0  0  0  0  0  0  0  0  0  0
    9.7817  -15.0594   17.3174 C   0  0  0  0  0  0  0  0  0  0  0  0
   10.8564  -14.4050   17.3125 O   0  0  0  0  0  0  0  0  0  0  0  0
    6.7768  -13.7868   19.9518 O   0  0  0  0  0  0  0  0  0  0  0  0
    7.4524  -12.8399   19.1946 C   0  0  0  0  0  0  0  0  0  0  0  0
    8.8543  -13.3085   18.8549 C   0  0  2  0  0  0  0  0  0  0  0  0
    8.7361  -14.5733   18.1577 N   0  0  0  0  0  0  0  0  0  0  0  0
    9.5835  -13.4768   20.1474 C   0  0  0  0  0  0  0  0  0  0  0  0
    9.7602  -12.5072   20.9264 O   0  0  0  0  0  0  0  0  0  0  0  0
   10.0773  -14.7638   20.4815 N   0  0  0  0  0  0  0  0  0  0  0  0
   10.7513  -14.9518   21.7539 C   0  0  0  0  0  0  0  0  0  0  0  0
   11.1117  -16.3879   21.9056 C   0  0  0  0  0  0  0  0  0  0  0  0
   10.6636  -17.2670   21.1434 O   0  0  0  0  0  0  0  0  0  0  0  0
   11.9728  -16.8023   22.9175 O   0  0  0  0  0  0  0  0  0  0  0  0
  2  1  1  1
  2  3  1  0
  4  2  1  0
  4  5  2  0
  6  7  1  0
  8  7  1  1
  8  9  1  0
  9  4  1  0
 10  8  1  0
 11 10  2  0
 12 10  1  0
 13 12  1  0
 14 13  1  0
 14 16  1  0
 15 14  2  0
M  END
$$$$
