ASG.pdb
     RDKit          3D

 16 15  0  0  1  0  0  0  0  0999 V2000
    7.8865  -18.3724   17.4050 C   0  0  0  0  0  0  0  0  0  0  0  0
    8.7290  -18.4013   18.6609 C   0  0  2  0  0  0  0  0  0  0  0  0
    8.2711  -19.3608   19.6140 N   0  0  0  0  0  0  0  0  0  0  0  0
    8.7387  -17.0166   19.2193 C   0  0  0  0  0  0  0  0  0  0  0  0
    9.5106  -16.1393   18.7529 O   0  0  0  0  0  0  0  0  0  0  0  0
    5.9001  -15.8530   22.0298 O   0  0  0  0  0  0  0  0  0  0  0  0
    6.3821  -14.9431   21.0992 C   0  0  0  0  0  0  0  0  0  0  0  0
    7.8243  -15.2416   20.7368 C   0  0  2  0  0  0  0  0  0  0  0  0
    7.8878  -16.6198   20.2937 N   0  0  0  0  0  0  0  0  0  0  0  0
    8.6360  -15.0400   21.9742 C   0  0  0  0  0  0  0  0  0  0  0  0
    8.7015  -13.9174   22.5342 O   0  0  0  0  0  0  0  0  0  0  0  0
    9.3379  -16.1502   22.5096 N   0  0  0  0  0  0  0  0  0  0  0  0
    9.9872  -16.0171   23.8017 C   0  0  0  0  0  0  0  0  0  0  0  0
   11.4537  -15.8674   23.5956 C   0  0  0  0  0  0  0  0  0  0  0  0
   12.2424  -15.7018   24.5468 O   0  0  0  0  0  0  0  0  0  0  0  0
   12.0001  -15.9081   22.3161 O   0  0  0  0  0  0  0  0  0  0  0  0
  2  1  1  6
  2  3  1  0
  4  2  1  0
  4  5  2  0
  6  7  1  0
  8  7  1  1
  8  9  1  0
  9  4  1  0
 10  8  1  0
 11 10  2  0
 12 10  1  0
 13 12  1  0
 14 13  1  0
 14 16  1  0
 15 14  2  0
M  END
$$$$
