ASG.pdb
     RDKit          3D

 16 15  0  0  1  0  0  0  0  0999 V2000
    7.9431  -16.6477   15.1789 C   0  0  0  0  0  0  0  0  0  0  0  0
    8.1296  -15.1514   15.0589 C   0  0  2  0  0  0  0  0  0  0  0  0
    8.8295  -14.7730   13.8733 N   0  0  0  0  0  0  0  0  0  0  0  0
    8.8305  -14.6922   16.2947 C   0  0  0  0  0  0  0  0  0  0  0  0
   10.0870  -14.6483   16.3442 O   0  0  0  0  0  0  0  0  0  0  0  0
    6.7639  -13.7923   19.8823 O   0  0  0  0  0  0  0  0  0  0  0  0
    7.8692  -13.0461   19.4981 C   0  0  0  0  0  0  0  0  0  0  0  0
    8.8283  -13.8759   18.6661 C   0  0  2  0  0  0  0  0  0  0  0  0
    8.1257  -14.2852   17.4666 N   0  0  0  0  0  0  0  0  0  0  0  0
    9.2106  -15.0601   19.4920 C   0  0  0  0  0  0  0  0  0  0  0  0
    8.7048  -16.1907   19.2825 O   0  0  0  0  0  0  0  0  0  0  0  0
   10.1644  -14.8821   20.5266 N   0  0  0  0  0  0  0  0  0  0  0  0
   10.6091  -16.0397   21.2821 C   0  0  0  0  0  0  0  0  0  0  0  0
   12.0846  -15.9648   21.4627 C   0  0  0  0  0  0  0  0  0  0  0  0
   12.8532  -15.6828   20.5224 O   0  0  0  0  0  0  0  0  0  0  0  0
   12.6628  -16.2107   22.7046 O   0  0  0  0  0  0  0  0  0  0  0  0
  2  1  1  1
  2  3  1  0
  4  2  1  0
  4  5  2  0
  6  7  1  0
  8  7  1  1
  8  9  1  0
  9  4  1  0
 10  8  1  0
 11 10  2  0
 12 10  1  0
 13 12  1  0
 14 13  1  0
 14 16  1  0
 15 14  2  0
M  END
$$$$
