ASG.pdb
     RDKit          3D

 16 15  0  0  1  0  0  0  0  0999 V2000
    8.0921  -15.6868   17.9345 C   0  0  0  0  0  0  0  0  0  0  0  0
    7.8482  -14.2958   18.4765 C   0  0  2  0  0  0  0  0  0  0  0  0
    8.1586  -13.2705   17.5325 N   0  0  0  0  0  0  0  0  0  0  0  0
    8.6465  -14.1633   19.7312 C   0  0  0  0  0  0  0  0  0  0  0  0
    9.7648  -13.5867   19.7255 O   0  0  0  0  0  0  0  0  0  0  0  0
    7.1057  -15.3400   23.4537 O   0  0  0  0  0  0  0  0  0  0  0  0
    7.9855  -14.2732   23.3338 C   0  0  0  0  0  0  0  0  0  0  0  0
    8.9644  -14.4952   22.1967 C   0  0  2  0  0  0  0  0  0  0  0  0
    8.1924  -14.6747   20.9835 N   0  0  0  0  0  0  0  0  0  0  0  0
    9.7408  -15.7285   22.5236 C   0  0  0  0  0  0  0  0  0  0  0  0
    9.1765  -16.8468   22.6195 O   0  0  0  0  0  0  0  0  0  0  0  0
   11.1398  -15.6119   22.7254 N   0  0  0  0  0  0  0  0  0  0  0  0
   11.9035  -16.7978   23.0706 C   0  0  0  0  0  0  0  0  0  0  0  0
   13.3375  -16.4270   23.2172 C   0  0  0  0  0  0  0  0  0  0  0  0
   13.7551  -15.2814   22.9567 O   0  0  0  0  0  0  0  0  0  0  0  0
   14.2723  -17.3600   23.6562 O   0  0  0  0  0  0  0  0  0  0  0  0
  2  1  1  6
  2  3  1  0
  4  2  1  0
  4  5  2  0
  6  7  1  0
  8  7  1  1
  8  9  1  0
  9  4  1  0
 10  8  1  0
 11 10  2  0
 12 10  1  0
 13 12  1  0
 14 13  1  0
 14 16  1  0
 15 14  2  0
M  END
$$$$
