ASG.pdb
     RDKit          3D

 16 15  0  0  1  0  0  0  0  0999 V2000
    9.7640  -19.9272   19.3820 C   0  0  0  0  0  0  0  0  0  0  0  0
    9.8599  -18.6570   18.5661 C   0  0  2  0  0  0  0  0  0  0  0  0
   10.5440  -18.8442   17.3269 N   0  0  0  0  0  0  0  0  0  0  0  0
   10.5226  -17.6296   19.4231 C   0  0  0  0  0  0  0  0  0  0  0  0
   11.7742  -17.5008   19.4232 O   0  0  0  0  0  0  0  0  0  0  0  0
    8.4115  -15.4133   22.3485 O   0  0  0  0  0  0  0  0  0  0  0  0
    9.4264  -14.8076   21.6209 C   0  0  0  0  0  0  0  0  0  0  0  0
   10.4543  -15.8245   21.1628 C   0  0  2  0  0  0  0  0  0  0  0  0
    9.7853  -16.7530   20.2738 N   0  0  0  0  0  0  0  0  0  0  0  0
   10.9541  -16.5213   22.3857 C   0  0  0  0  0  0  0  0  0  0  0  0
   10.2661  -17.4010   22.9608 O   0  0  0  0  0  0  0  0  0  0  0  0
   12.2318  -16.1675   22.8897 N   0  0  0  0  0  0  0  0  0  0  0  0
   12.7410  -16.8534   24.0640 C   0  0  0  0  0  0  0  0  0  0  0  0
   14.1171  -16.3656   24.3533 C   0  0  0  0  0  0  0  0  0  0  0  0
   14.7414  -16.7126   25.3752 O   0  0  0  0  0  0  0  0  0  0  0  0
   14.7612  -15.4939   23.4801 O   0  0  0  0  0  0  0  0  0  0  0  0
  2  1  1  1
  2  3  1  0
  4  2  1  0
  4  5  2  0
  6  7  1  0
  8  7  1  1
  8  9  1  0
  9  4  1  0
 10  8  1  0
 11 10  2  0
 12 10  1  0
 13 12  1  0
 14 13  1  0
 14 16  1  0
 15 14  2  0
M  END
$$$$
