WND.pdb
     RDKit          3D

 31 32  0  0  1  0  0  0  0  0999 V2000
   26.3547  -32.7842   -9.8612 N   0  0  0  0  0  0  0  0  0  0  0  0
   25.4591  -33.1079   -8.7605 C   0  0  1  0  0  0  0  0  0  0  0  0
   24.5868  -34.2595   -9.2781 C   0  0  0  0  0  0  0  0  0  0  0  0
   23.5664  -33.6283  -10.1497 C   0  0  0  0  0  0  0  0  0  0  0  0
   23.7336  -32.6428  -11.0974 C   0  0  0  0  0  0  0  0  0  0  0  0
   22.5577  -32.3387  -11.6704 N   0  0  0  0  0  0  0  0  0  0  0  0
   21.6103  -33.1146  -11.1111 C   0  0  0  0  0  0  0  0  0  0  0  0
   20.2547  -33.2390  -11.3011 C   0  0  0  0  0  0  0  0  0  0  0  0
   19.5056  -34.1321  -10.5840 C   0  0  0  0  0  0  0  0  0  0  0  0
   20.1177  -34.9346   -9.6411 C   0  0  0  0  0  0  0  0  0  0  0  0
   21.4774  -34.8266   -9.4337 C   0  0  0  0  0  0  0  0  0  0  0  0
   22.2205  -33.9301  -10.1560 C   0  0  0  0  0  0  0  0  0  0  0  0
   26.1758  -33.4625   -7.5379 C   0  0  0  0  0  0  0  0  0  0  0  0
   27.0895  -34.3231   -7.5910 O   0  0  0  0  0  0  0  0  0  0  0  0
   28.4676  -34.2545   -4.9301 N   0  0  0  0  0  0  0  0  0  0  0  0
   28.0285  -33.2547   -4.0190 C   0  0  0  0  0  0  0  0  0  0  0  0
   28.8958  -32.6266   -3.3469 O   0  0  0  0  0  0  0  0  0  0  0  0
   26.5774  -33.0260   -3.9284 C   0  0  0  0  0  0  0  0  0  0  0  0
   25.7990  -33.6650   -5.0585 C   0  0  2  0  0  0  0  0  0  0  0  0
   25.8897  -32.8778   -6.2753 N   0  0  0  0  0  0  0  0  0  0  0  0
   24.3546  -33.7859   -4.6910 C   0  0  0  0  0  0  0  0  0  0  0  0
   23.5481  -32.8467   -4.9556 O   0  0  0  0  0  0  0  0  0  0  0  0
   23.8364  -34.9320   -4.0462 N   0  0  0  0  0  0  0  0  0  0  0  0
   22.4036  -34.9670   -3.6844 C   0  0  1  0  0  0  0  0  0  0  0  0
   22.0822  -33.7770   -2.8383 C   0  0  0  0  0  0  0  0  0  0  0  0
   21.8877  -34.1368   -1.4415 C   0  0  0  0  0  0  0  0  0  0  0  0
   21.8755  -35.3024   -1.0435 O   0  0  0  0  0  0  0  0  0  0  0  0
   21.6391  -34.9822   -4.9614 C   0  0  0  0  0  0  0  0  0  0  0  0
   22.1711  -34.9489   -6.0901 O   0  0  0  0  0  0  0  0  0  0  0  0
   21.6989  -33.1544   -0.4465 O   0  0  0  0  0  0  0  0  0  0  0  0
   20.2442  -35.0372   -4.9029 O   0  0  0  0  0  0  0  0  0  0  0  0
  2 13  1  0
  2  1  1  6
  3  2  1  0
  4  3  1  0
  4  5  2  0
  6  5  1  0
  7 12  2  0
  7  6  1  0
  8  7  1  0
  9 10  1  0
  9  8  2  0
 10 11  2  0
 11 12  1  0
 12  4  1  0
 13 14  2  0
 15 16  1  0
 16 17  2  0
 18 16  1  0
 19 18  1  1
 19 21  1  0
 20 19  1  0
 20 13  1  0
 21 22  2  0
 23 24  1  0
 23 21  1  0
 24 28  1  0
 24 25  1  1
 26 25  1  0
 26 30  1  0
 27 26  2  0
 28 29  2  0
 28 31  1  0
M  END
$$$$
