WND.pdb
     RDKit          3D

 31 32  0  0  1  0  0  0  0  0999 V2000
   24.9405  -20.1529   -9.6375 N   0  0  0  0  0  0  0  0  0  0  0  0
   24.6726  -20.2885  -11.0616 C   0  0  1  0  0  0  0  0  0  0  0  0
   26.0033  -20.7385  -11.6794 C   0  0  0  0  0  0  0  0  0  0  0  0
   26.4409  -19.6186  -12.5474 C   0  0  0  0  0  0  0  0  0  0  0  0
   26.5521  -18.2811  -12.2373 C   0  0  0  0  0  0  0  0  0  0  0  0
   26.9795  -17.5862  -13.3040 N   0  0  0  0  0  0  0  0  0  0  0  0
   27.1533  -18.4513  -14.3207 C   0  0  0  0  0  0  0  0  0  0  0  0
   27.5700  -18.3105  -15.6229 C   0  0  0  0  0  0  0  0  0  0  0  0
   27.6645  -19.3821  -16.4690 C   0  0  0  0  0  0  0  0  0  0  0  0
   27.3342  -20.6432  -16.0130 C   0  0  0  0  0  0  0  0  0  0  0  0
   26.9134  -20.8080  -14.7094 C   0  0  0  0  0  0  0  0  0  0  0  0
   26.8217  -19.7300  -13.8684 C   0  0  0  0  0  0  0  0  0  0  0  0
   23.5868  -21.2244  -11.3432 C   0  0  0  0  0  0  0  0  0  0  0  0
   23.1512  -21.9538  -10.4176 O   0  0  0  0  0  0  0  0  0  0  0  0
   19.2881  -19.5554  -13.2782 N   0  0  0  0  0  0  0  0  0  0  0  0
   20.2454  -18.7787  -12.5689 C   0  0  0  0  0  0  0  0  0  0  0  0
   19.8922  -17.6538  -12.1123 O   0  0  0  0  0  0  0  0  0  0  0  0
   21.5920  -19.3535  -12.4198 C   0  0  0  0  0  0  0  0  0  0  0  0
   21.7000  -20.7693  -12.9442 C   0  0  2  0  0  0  0  0  0  0  0  0
   22.9900  -21.3550  -12.6255 N   0  0  0  0  0  0  0  0  0  0  0  0
   21.5374  -20.7865  -14.4306 C   0  0  0  0  0  0  0  0  0  0  0  0
   22.5508  -20.7004  -15.1843 O   0  0  0  0  0  0  0  0  0  0  0  0
   20.2704  -20.8991  -15.0469 N   0  0  0  0  0  0  0  0  0  0  0  0
   20.1972  -21.2545  -16.4797 C   0  0  1  0  0  0  0  0  0  0  0  0
   21.1029  -20.3530  -17.2556 C   0  0  0  0  0  0  0  0  0  0  0  0
   21.0414  -20.6167  -18.6857 C   0  0  0  0  0  0  0  0  0  0  0  0
   20.2463  -21.4117  -19.1886 O   0  0  0  0  0  0  0  0  0  0  0  0
   20.5891  -22.6864  -16.5869 C   0  0  0  0  0  0  0  0  0  0  0  0
   21.7712  -23.0790  -16.6687 O   0  0  0  0  0  0  0  0  0  0  0  0
   21.9037  -19.9658  -19.5933 O   0  0  0  0  0  0  0  0  0  0  0  0
   19.5818  -23.6546  -16.5969 O   0  0  0  0  0  0  0  0  0  0  0  0
  2 13  1  0
  2  1  1  1
  3  2  1  0
  4  3  1  0
  4  5  2  0
  6  5  1  0
  7 12  2  0
  7  6  1  0
  8  7  1  0
  9 10  1  0
  9  8  2  0
 10 11  2  0
 11 12  1  0
 12  4  1  0
 13 14  2  0
 15 16  1  0
 16 17  2  0
 18 16  1  0
 19 18  1  6
 19 21  1  0
 20 19  1  0
 20 13  1  0
 21 22  2  0
 23 24  1  0
 23 21  1  0
 24 28  1  0
 24 25  1  6
 26 25  1  0
 26 30  1  0
 27 26  2  0
 28 29  2  0
 28 31  1  0
M  END
$$$$
