WND.pdb
     RDKit          3D

 31 32  0  0  1  0  0  0  0  0999 V2000
   27.0471  -22.2688  -12.3167 N   0  0  0  0  0  0  0  0  0  0  0  0
   26.3085  -21.0321  -12.1088 C   0  0  1  0  0  0  0  0  0  0  0  0
   27.3805  -19.9430  -11.9681 C   0  0  0  0  0  0  0  0  0  0  0  0
   28.2193  -20.3534  -10.8161 C   0  0  0  0  0  0  0  0  0  0  0  0
   29.4371  -20.9971  -10.8233 C   0  0  0  0  0  0  0  0  0  0  0  0
   29.8700  -21.1959   -9.5677 N   0  0  0  0  0  0  0  0  0  0  0  0
   28.9496  -20.6893   -8.7260 C   0  0  0  0  0  0  0  0  0  0  0  0
   28.8623  -20.6069   -7.3568 C   0  0  0  0  0  0  0  0  0  0  0  0
   27.7913  -20.0221   -6.7369 C   0  0  0  0  0  0  0  0  0  0  0  0
   26.7648  -19.4979   -7.4978 C   0  0  0  0  0  0  0  0  0  0  0  0
   26.8314  -19.5695   -8.8741 C   0  0  0  0  0  0  0  0  0  0  0  0
   27.9073  -20.1564   -9.4871 C   0  0  0  0  0  0  0  0  0  0  0  0
   25.3700  -20.7485  -13.1919 C   0  0  0  0  0  0  0  0  0  0  0  0
   25.6872  -21.0452  -14.3708 O   0  0  0  0  0  0  0  0  0  0  0  0
   21.0660  -22.0034  -11.8277 N   0  0  0  0  0  0  0  0  0  0  0  0
   21.5079  -21.7344  -13.1525 C   0  0  0  0  0  0  0  0  0  0  0  0
   21.6949  -22.7084  -13.9367 O   0  0  0  0  0  0  0  0  0  0  0  0
   21.7161  -20.3225  -13.5123 C   0  0  0  0  0  0  0  0  0  0  0  0
   23.1083  -20.0365  -14.0333 C   0  0  2  0  0  0  0  0  0  0  0  0
   24.1010  -20.1467  -12.9793 N   0  0  0  0  0  0  0  0  0  0  0  0
   23.1788  -18.6521  -14.5939 C   0  0  0  0  0  0  0  0  0  0  0  0
   22.7765  -17.6655  -13.9101 O   0  0  0  0  0  0  0  0  0  0  0  0
   23.6891  -18.3893  -15.8856 N   0  0  0  0  0  0  0  0  0  0  0  0
   23.7031  -16.9975  -16.3833 C   0  0  1  0  0  0  0  0  0  0  0  0
   24.9231  -16.7888  -17.2218 C   0  0  0  0  0  0  0  0  0  0  0  0
   24.9150  -15.4929  -17.8844 C   0  0  0  0  0  0  0  0  0  0  0  0
   24.0806  -14.6199  -17.6423 O   0  0  0  0  0  0  0  0  0  0  0  0
   22.4431  -16.8042  -17.1517 C   0  0  0  0  0  0  0  0  0  0  0  0
   21.9893  -17.6371  -17.9630 O   0  0  0  0  0  0  0  0  0  0  0  0
   25.8789  -15.1568  -18.8585 O   0  0  0  0  0  0  0  0  0  0  0  0
   21.7191  -15.6246  -16.9596 O   0  0  0  0  0  0  0  0  0  0  0  0
  2 13  1  0
  2  1  1  6
  3  2  1  0
  4  3  1  0
  4  5  2  0
  6  5  1  0
  7 12  2  0
  7  6  1  0
  8  7  1  0
  9 10  1  0
  9  8  2  0
 10 11  2  0
 11 12  1  0
 12  4  1  0
 13 14  2  0
 15 16  1  0
 16 17  2  0
 18 16  1  0
 19 18  1  1
 19 21  1  0
 20 19  1  0
 20 13  1  0
 21 22  2  0
 23 24  1  0
 23 21  1  0
 24 28  1  0
 24 25  1  6
 26 25  1  0
 26 30  1  0
 27 26  2  0
 28 29  2  0
 28 31  1  0
M  END
$$$$
