WND.pdb
     RDKit          3D

 31 32  0  0  1  0  0  0  0  0999 V2000
   27.8446  -21.9541  -13.8863 N   0  0  0  0  0  0  0  0  0  0  0  0
   26.6388  -21.5545  -13.1759 C   0  0  1  0  0  0  0  0  0  0  0  0
   26.9247  -20.1354  -12.6664 C   0  0  0  0  0  0  0  0  0  0  0  0
   27.7928  -20.3046  -11.4761 C   0  0  0  0  0  0  0  0  0  0  0  0
   29.1679  -20.3562  -11.4130 C   0  0  0  0  0  0  0  0  0  0  0  0
   29.5732  -20.5251  -10.1440 N   0  0  0  0  0  0  0  0  0  0  0  0
   28.4784  -20.5861   -9.3629 C   0  0  0  0  0  0  0  0  0  0  0  0
   28.2876  -20.7431   -8.0109 C   0  0  0  0  0  0  0  0  0  0  0  0
   27.0357  -20.7677   -7.4580 C   0  0  0  0  0  0  0  0  0  0  0  0
   25.9276  -20.6325   -8.2711 C   0  0  0  0  0  0  0  0  0  0  0  0
   26.0956  -20.4738   -9.6313 C   0  0  0  0  0  0  0  0  0  0  0  0
   27.3523  -20.4500  -10.1771 C   0  0  0  0  0  0  0  0  0  0  0  0
   25.4456  -21.6110  -14.0168 C   0  0  0  0  0  0  0  0  0  0  0  0
   25.4671  -21.0653  -15.1483 O   0  0  0  0  0  0  0  0  0  0  0  0
   24.4721  -25.5657  -14.7872 N   0  0  0  0  0  0  0  0  0  0  0  0
   23.8643  -24.4932  -15.4963 C   0  0  0  0  0  0  0  0  0  0  0  0
   24.2986  -24.2078  -16.6489 O   0  0  0  0  0  0  0  0  0  0  0  0
   22.7611  -23.7890  -14.8231 C   0  0  0  0  0  0  0  0  0  0  0  0
   23.0867  -22.3496  -14.4862 C   0  0  2  0  0  0  0  0  0  0  0  0
   24.2463  -22.2587  -13.6169 N   0  0  0  0  0  0  0  0  0  0  0  0
   21.9320  -21.7056  -13.7878 C   0  0  0  0  0  0  0  0  0  0  0  0
   22.0350  -21.3533  -12.5762 O   0  0  0  0  0  0  0  0  0  0  0  0
   20.6998  -21.4653  -14.4373 N   0  0  0  0  0  0  0  0  0  0  0  0
   19.5570  -20.9613  -13.6468 C   0  0  1  0  0  0  0  0  0  0  0  0
   19.3323  -21.8659  -12.4779 C   0  0  0  0  0  0  0  0  0  0  0  0
   18.1394  -22.6837  -12.6419 C   0  0  0  0  0  0  0  0  0  0  0  0
   17.1632  -22.6051  -11.8950 O   0  0  0  0  0  0  0  0  0  0  0  0
   19.8992  -19.5724  -13.2356 C   0  0  0  0  0  0  0  0  0  0  0  0
   21.0106  -19.0416  -13.4386 O   0  0  0  0  0  0  0  0  0  0  0  0
   18.0312  -23.6293  -13.6835 O   0  0  0  0  0  0  0  0  0  0  0  0
   18.9257  -18.8107  -12.5842 O   0  0  0  0  0  0  0  0  0  0  0  0
  2 13  1  0
  2  1  1  6
  3  2  1  0
  4  3  1  0
  4  5  2  0
  6  5  1  0
  7 12  2  0
  7  6  1  0
  8  7  1  0
  9 10  1  0
  9  8  2  0
 10 11  2  0
 11 12  1  0
 12  4  1  0
 13 14  2  0
 15 16  1  0
 16 17  2  0
 18 16  1  0
 19 18  1  1
 19 21  1  0
 20 19  1  0
 20 13  1  0
 21 22  2  0
 23 24  1  0
 23 21  1  0
 24 28  1  0
 24 25  1  1
 26 25  1  0
 26 30  1  0
 27 26  2  0
 28 29  2  0
 28 31  1  0
M  END
$$$$
