WND.pdb
     RDKit          3D

 31 32  0  0  1  0  0  0  0  0999 V2000
   27.8837  -19.7971  -15.8502 N   0  0  0  0  0  0  0  0  0  0  0  0
   27.0300  -19.1330  -14.8763 C   0  0  1  0  0  0  0  0  0  0  0  0
   25.9199  -18.4691  -15.7021 C   0  0  0  0  0  0  0  0  0  0  0  0
   26.3714  -17.0756  -15.9329 C   0  0  0  0  0  0  0  0  0  0  0  0
   26.5476  -16.0639  -15.0148 C   0  0  0  0  0  0  0  0  0  0  0  0
   26.9647  -14.9432  -15.6259 N   0  0  0  0  0  0  0  0  0  0  0  0
   27.0674  -15.2020  -16.9431 C   0  0  0  0  0  0  0  0  0  0  0  0
   27.4432  -14.4487  -18.0295 C   0  0  0  0  0  0  0  0  0  0  0  0
   27.4643  -14.9697  -19.2950 C   0  0  0  0  0  0  0  0  0  0  0  0
   27.0996  -16.2863  -19.4974 C   0  0  0  0  0  0  0  0  0  0  0  0
   26.7188  -17.0611  -18.4212 C   0  0  0  0  0  0  0  0  0  0  0  0
   26.7005  -16.5322  -17.1572 C   0  0  0  0  0  0  0  0  0  0  0  0
   26.4991  -20.0531  -13.8735 C   0  0  0  0  0  0  0  0  0  0  0  0
   26.1801  -21.2182  -14.2188 O   0  0  0  0  0  0  0  0  0  0  0  0
   25.1457  -22.3387   -9.5235 N   0  0  0  0  0  0  0  0  0  0  0  0
   25.5580  -21.0507   -9.0833 C   0  0  0  0  0  0  0  0  0  0  0  0
   25.5918  -20.8189   -7.8408 O   0  0  0  0  0  0  0  0  0  0  0  0
   25.9184  -20.0741  -10.1238 C   0  0  0  0  0  0  0  0  0  0  0  0
   25.7809  -20.6187  -11.5294 C   0  0  2  0  0  0  0  0  0  0  0  0
   26.3220  -19.6948  -12.5104 N   0  0  0  0  0  0  0  0  0  0  0  0
   24.3408  -20.8524  -11.8573 C   0  0  0  0  0  0  0  0  0  0  0  0
   23.6422  -21.6306  -11.1439 O   0  0  0  0  0  0  0  0  0  0  0  0
   23.7087  -20.2260  -12.9554 N   0  0  0  0  0  0  0  0  0  0  0  0
   22.2434  -20.3480  -13.1066 C   0  0  1  0  0  0  0  0  0  0  0  0
   21.6156  -19.0072  -12.8988 C   0  0  0  0  0  0  0  0  0  0  0  0
   20.1664  -19.0575  -13.0246 C   0  0  0  0  0  0  0  0  0  0  0  0
   19.5365  -20.1118  -13.1182 O   0  0  0  0  0  0  0  0  0  0  0  0
   21.9966  -20.8879  -14.4716 C   0  0  0  0  0  0  0  0  0  0  0  0
   21.0444  -21.6420  -14.7588 O   0  0  0  0  0  0  0  0  0  0  0  0
   19.3869  -17.8816  -13.0469 O   0  0  0  0  0  0  0  0  0  0  0  0
   22.8770  -20.5349  -15.4976 O   0  0  0  0  0  0  0  0  0  0  0  0
  2 13  1  0
  2  1  1  6
  3  2  1  0
  4  3  1  0
  4  5  2  0
  6  5  1  0
  7 12  2  0
  7  6  1  0
  8  7  1  0
  9 10  1  0
  9  8  2  0
 10 11  2  0
 11 12  1  0
 12  4  1  0
 13 14  2  0
 15 16  1  0
 16 17  2  0
 18 16  1  0
 19 18  1  1
 19 21  1  0
 20 19  1  0
 20 13  1  0
 21 22  2  0
 23 24  1  0
 23 21  1  0
 24 28  1  0
 24 25  1  6
 26 25  1  0
 26 30  1  0
 27 26  2  0
 28 29  2  0
 28 31  1  0
M  END
$$$$
