WND.pdb
     RDKit          3D

 31 32  0  0  1  0  0  0  0  0999 V2000
   25.2963  -21.0329  -16.1902 N   0  0  0  0  0  0  0  0  0  0  0  0
   24.3481  -20.2486  -15.4131 C   0  0  1  0  0  0  0  0  0  0  0  0
   23.2177  -19.9012  -16.3911 C   0  0  0  0  0  0  0  0  0  0  0  0
   23.8499  -19.0961  -17.4641 C   0  0  0  0  0  0  0  0  0  0  0  0
   24.7391  -19.5014  -18.4348 C   0  0  0  0  0  0  0  0  0  0  0  0
   25.0824  -18.4661  -19.2183 N   0  0  0  0  0  0  0  0  0  0  0  0
   24.4281  -17.3758  -18.7760 C   0  0  0  0  0  0  0  0  0  0  0  0
   24.3905  -16.0639  -19.1841 C   0  0  0  0  0  0  0  0  0  0  0  0
   23.6177  -15.1324  -18.5449 C   0  0  0  0  0  0  0  0  0  0  0  0
   22.8517  -15.5097  -17.4594 C   0  0  0  0  0  0  0  0  0  0  0  0
   22.8742  -16.8214  -17.0324 C   0  0  0  0  0  0  0  0  0  0  0  0
   23.6503  -17.7481  -17.6778 C   0  0  0  0  0  0  0  0  0  0  0  0
   23.8610  -20.9613  -14.2345 C   0  0  0  0  0  0  0  0  0  0  0  0
   23.2398  -22.0428  -14.3858 O   0  0  0  0  0  0  0  0  0  0  0  0
   26.3682  -20.1439  -10.0136 N   0  0  0  0  0  0  0  0  0  0  0  0
   25.4327  -21.1155  -10.4648 C   0  0  0  0  0  0  0  0  0  0  0  0
   25.8645  -22.2460  -10.8310 O   0  0  0  0  0  0  0  0  0  0  0  0
   24.0142  -20.7231  -10.4704 C   0  0  0  0  0  0  0  0  0  0  0  0
   23.3152  -21.0229  -11.7792 C   0  0  2  0  0  0  0  0  0  0  0  0
   24.0552  -20.4893  -12.9089 N   0  0  0  0  0  0  0  0  0  0  0  0
   21.9495  -20.4140  -11.7901 C   0  0  0  0  0  0  0  0  0  0  0  0
   21.7217  -19.3704  -12.4695 O   0  0  0  0  0  0  0  0  0  0  0  0
   20.8741  -20.9669  -11.0582 N   0  0  0  0  0  0  0  0  0  0  0  0
   19.5003  -20.8309  -11.5862 C   0  0  1  0  0  0  0  0  0  0  0  0
   19.5653  -20.4667  -13.0347 C   0  0  0  0  0  0  0  0  0  0  0  0
   18.2411  -20.3131  -13.6190 C   0  0  0  0  0  0  0  0  0  0  0  0
   17.2740  -19.8848  -12.9879 O   0  0  0  0  0  0  0  0  0  0  0  0
   18.8214  -22.1354  -11.3560 C   0  0  0  0  0  0  0  0  0  0  0  0
   19.4027  -23.2390  -11.4029 O   0  0  0  0  0  0  0  0  0  0  0  0
   17.9851  -20.6519  -14.9646 O   0  0  0  0  0  0  0  0  0  0  0  0
   17.4537  -22.1341  -11.0697 O   0  0  0  0  0  0  0  0  0  0  0  0
  2 13  1  0
  2  1  1  6
  3  2  1  0
  4  3  1  0
  4  5  2  0
  6  5  1  0
  7 12  2  0
  7  6  1  0
  8  7  1  0
  9 10  1  0
  9  8  2  0
 10 11  2  0
 11 12  1  0
 12  4  1  0
 13 14  2  0
 15 16  1  0
 16 17  2  0
 18 16  1  0
 19 18  1  1
 19 21  1  0
 20 19  1  0
 20 13  1  0
 21 22  2  0
 23 24  1  0
 23 21  1  0
 24 28  1  0
 24 25  1  6
 26 25  1  0
 26 30  1  0
 27 26  2  0
 28 29  2  0
 28 31  1  0
M  END
$$$$
