WND.pdb
     RDKit          3D

 31 32  0  0  1  0  0  0  0  0999 V2000
   15.4883  -25.7580    3.5917 N   0  0  0  0  0  0  0  0  0  0  0  0
   16.8931  -25.5039    3.8751 C   0  0  1  0  0  0  0  0  0  0  0  0
   17.2851  -24.3423    2.9522 C   0  0  0  0  0  0  0  0  0  0  0  0
   17.6070  -24.9615    1.6437 C   0  0  0  0  0  0  0  0  0  0  0  0
   16.7502  -25.3215    0.6270 C   0  0  0  0  0  0  0  0  0  0  0  0
   17.4351  -25.8587   -0.3956 N   0  0  0  0  0  0  0  0  0  0  0  0
   18.7406  -25.8584   -0.0667 C   0  0  0  0  0  0  0  0  0  0  0  0
   19.8799  -26.2744   -0.7132 C   0  0  0  0  0  0  0  0  0  0  0  0
   21.1176  -26.1537   -0.1415 C   0  0  0  0  0  0  0  0  0  0  0  0
   21.2366  -25.6009    1.1185 C   0  0  0  0  0  0  0  0  0  0  0  0
   20.1062  -25.1764    1.7860 C   0  0  0  0  0  0  0  0  0  0  0  0
   18.8706  -25.3006    1.2067 C   0  0  0  0  0  0  0  0  0  0  0  0
   17.1368  -25.1992    5.2829 C   0  0  0  0  0  0  0  0  0  0  0  0
   16.2456  -24.6119    5.9458 O   0  0  0  0  0  0  0  0  0  0  0  0
   20.3387  -28.2984    7.1780 N   0  0  0  0  0  0  0  0  0  0  0  0
   19.4739  -27.4739    7.9495 C   0  0  0  0  0  0  0  0  0  0  0  0
   18.5491  -28.0233    8.6141 O   0  0  0  0  0  0  0  0  0  0  0  0
   19.7268  -26.0245    7.9134 C   0  0  0  0  0  0  0  0  0  0  0  0
   18.5683  -25.2284    7.3518 C   0  0  2  0  0  0  0  0  0  0  0  0
   18.3445  -25.5360    5.9503 N   0  0  0  0  0  0  0  0  0  0  0  0
   18.8408  -23.7627    7.4671 C   0  0  0  0  0  0  0  0  0  0  0  0
   19.5492  -23.1752    6.5979 O   0  0  0  0  0  0  0  0  0  0  0  0
   18.3282  -22.9842    8.5296 N   0  0  0  0  0  0  0  0  0  0  0  0
   18.6351  -21.5390    8.5748 C   0  0  1  0  0  0  0  0  0  0  0  0
   17.6510  -20.8018    7.7244 C   0  0  0  0  0  0  0  0  0  0  0  0
   16.4056  -20.5417    8.4314 C   0  0  0  0  0  0  0  0  0  0  0  0
   15.8567  -21.3746    9.1539 O   0  0  0  0  0  0  0  0  0  0  0  0
   18.5711  -21.1314   10.0049 C   0  0  0  0  0  0  0  0  0  0  0  0
   18.9060  -20.0035   10.4216 O   0  0  0  0  0  0  0  0  0  0  0  0
   15.7445  -19.2995    8.3279 O   0  0  0  0  0  0  0  0  0  0  0  0
   18.1099  -22.0590   10.9426 O   0  0  0  0  0  0  0  0  0  0  0  0
  2 13  1  0
  2  1  1  1
  3  2  1  0
  4  3  1  0
  4  5  2  0
  6  5  1  0
  7 12  2  0
  7  6  1  0
  8  7  1  0
  9 10  1  0
  9  8  2  0
 10 11  2  0
 11 12  1  0
 12  4  1  0
 13 14  2  0
 15 16  1  0
 16 17  2  0
 18 16  1  0
 19 18  1  6
 19 21  1  0
 20 19  1  0
 20 13  1  0
 21 22  2  0
 23 24  1  0
 23 21  1  0
 24 28  1  0
 24 25  1  6
 26 25  1  0
 26 30  1  0
 27 26  2  0
 28 29  2  0
 28 31  1  0
M  END
$$$$
