WND.pdb
     RDKit          3D

 31 32  0  0  1  0  0  0  0  0999 V2000
   27.5507  -22.1865  -15.7694 N   0  0  0  0  0  0  0  0  0  0  0  0
   26.4688  -22.1782  -14.7958 C   0  0  1  0  0  0  0  0  0  0  0  0
   26.2813  -20.7030  -14.4167 C   0  0  0  0  0  0  0  0  0  0  0  0
   27.2014  -20.4619  -13.2789 C   0  0  0  0  0  0  0  0  0  0  0  0
   28.5168  -20.0542  -13.3064 C   0  0  0  0  0  0  0  0  0  0  0  0
   29.0038  -19.9566  -12.0587 N   0  0  0  0  0  0  0  0  0  0  0  0
   28.0223  -20.2962  -11.2021 C   0  0  0  0  0  0  0  0  0  0  0  0
   27.9466  -20.3744   -9.8320 C   0  0  0  0  0  0  0  0  0  0  0  0
   26.7962  -20.7533   -9.1944 C   0  0  0  0  0  0  0  0  0  0  0  0
   25.6756  -21.0681   -9.9378 C   0  0  0  0  0  0  0  0  0  0  0  0
   25.7290  -20.9966  -11.3146 C   0  0  0  0  0  0  0  0  0  0  0  0
   26.8845  -20.6161  -11.9454 C   0  0  0  0  0  0  0  0  0  0  0  0
   25.2413  -22.7772  -15.3139 C   0  0  0  0  0  0  0  0  0  0  0  0
   24.8798  -22.5150  -16.4882 O   0  0  0  0  0  0  0  0  0  0  0  0
   22.5498  -26.3137  -16.7150 N   0  0  0  0  0  0  0  0  0  0  0  0
   22.6262  -26.6485  -15.3348 C   0  0  0  0  0  0  0  0  0  0  0  0
   22.4774  -27.8578  -14.9972 O   0  0  0  0  0  0  0  0  0  0  0  0
   22.8762  -25.5448  -14.3938 C   0  0  0  0  0  0  0  0  0  0  0  0
   23.2048  -24.2360  -15.0797 C   0  0  2  0  0  0  0  0  0  0  0  0
   24.4238  -23.6517  -14.5493 N   0  0  0  0  0  0  0  0  0  0  0  0
   22.0953  -23.2532  -14.8821 C   0  0  0  0  0  0  0  0  0  0  0  0
   22.3548  -22.0346  -14.6581 O   0  0  0  0  0  0  0  0  0  0  0  0
   20.7352  -23.6339  -14.9374 N   0  0  0  0  0  0  0  0  0  0  0  0
   19.6930  -22.6132  -14.6990 C   0  0  1  0  0  0  0  0  0  0  0  0
   19.5286  -22.4147  -13.2263 C   0  0  0  0  0  0  0  0  0  0  0  0
   18.4895  -21.4429  -12.9190 C   0  0  0  0  0  0  0  0  0  0  0  0
   17.5054  -21.2620  -13.6372 O   0  0  0  0  0  0  0  0  0  0  0  0
   20.1379  -21.3752  -15.3952 C   0  0  0  0  0  0  0  0  0  0  0  0
   20.9337  -20.5490  -14.9029 O   0  0  0  0  0  0  0  0  0  0  0  0
   18.5511  -20.6389  -11.7612 O   0  0  0  0  0  0  0  0  0  0  0  0
   19.6414  -21.1146  -16.6749 O   0  0  0  0  0  0  0  0  0  0  0  0
  2 13  1  0
  2  1  1  6
  3  2  1  0
  4  3  1  0
  4  5  2  0
  6  5  1  0
  7 12  2  0
  7  6  1  0
  8  7  1  0
  9 10  1  0
  9  8  2  0
 10 11  2  0
 11 12  1  0
 12  4  1  0
 13 14  2  0
 15 16  1  0
 16 17  2  0
 18 16  1  0
 19 18  1  1
 19 21  1  0
 20 19  1  0
 20 13  1  0
 21 22  2  0
 23 24  1  0
 23 21  1  0
 24 28  1  0
 24 25  1  1
 26 25  1  0
 26 30  1  0
 27 26  2  0
 28 29  2  0
 28 31  1  0
M  END
$$$$
