DSQ.pdb
     RDKit          3D

 24 23  0  0  1  0  0  0  0  0999 V2000
   18.1193  -12.9708  -16.5782 N   0  0  0  0  0  0  0  0  0  0  0  0
   17.7509  -11.6213  -16.1977 C   0  0  1  0  0  0  0  0  0  0  0  0
   16.4001  -11.5462  -15.5653 C   0  0  0  0  0  0  0  0  0  0  0  0
   15.3883  -11.9726  -16.5651 C   0  0  0  0  0  0  0  0  0  0  0  0
   15.3640  -11.4937  -17.7129 O   0  0  0  0  0  0  0  0  0  0  0  0
   18.8097  -10.9696  -15.3887 C   0  0  0  0  0  0  0  0  0  0  0  0
   19.4624  -11.7054  -14.5952 O   0  0  0  0  0  0  0  0  0  0  0  0
   14.4456  -12.9271  -16.2162 O   0  0  0  0  0  0  0  0  0  0  0  0
   22.6260   -8.9504  -15.0538 O   0  0  0  0  0  0  0  0  0  0  0  0
   21.4708   -9.3318  -15.7291 C   0  0  0  0  0  0  0  0  0  0  0  0
   20.3037   -9.1210  -14.7619 C   0  0  2  0  0  0  0  0  0  0  0  0
   19.1276   -9.6061  -15.4483 N   0  0  0  0  0  0  0  0  0  0  0  0
   20.2418   -7.6726  -14.4825 C   0  0  0  0  0  0  0  0  0  0  0  0
   19.8279   -6.9108  -15.3911 O   0  0  0  0  0  0  0  0  0  0  0  0
   17.8949   -5.0611   -9.5385 N   0  0  0  0  0  0  0  0  0  0  0  0
   18.4950   -3.9203  -10.1635 C   0  0  0  0  0  0  0  0  0  0  0  0
   18.2025   -2.8034   -9.6499 O   0  0  0  0  0  0  0  0  0  0  0  0
   19.4025   -4.0250  -11.3272 C   0  0  0  0  0  0  0  0  0  0  0  0
   19.6741   -5.4008  -11.7754 C   0  0  0  0  0  0  0  0  0  0  0  0
   20.4741   -5.6234  -12.9990 C   0  0  2  0  0  0  0  0  0  0  0  0
   20.6175   -7.0749  -13.2567 N   0  0  0  0  0  0  0  0  0  0  0  0
   21.7476   -4.9329  -13.1663 C   0  0  0  0  0  0  0  0  0  0  0  0
   22.5185   -5.0634  -14.3444 O   0  0  0  0  0  0  0  0  0  0  0  0
   22.2913   -4.1654  -12.3098 O   0  0  0  0  0  0  0  0  0  0  0  0
  2  1  1  1
  2  3  1  0
  3  4  1  0
  4  8  1  0
  5  4  2  0
  6  2  1  0
  7  6  2  0
  9 10  1  0
 11 10  1  6
 11 13  1  0
 11 12  1  0
 12  6  1  0
 13 21  1  0
 14 13  2  0
 16 18  1  0
 16 15  1  0
 17 16  2  0
 19 18  1  0
 20 19  1  1
 21 20  1  0
 22 23  1  0
 22 20  1  0
 24 22  2  0
M  END
$$$$
