DSQ.pdb
     RDKit          3D

 24 23  0  0  1  0  0  0  0  0999 V2000
   19.0980   -1.3506  -16.5851 N   0  0  0  0  0  0  0  0  0  0  0  0
   19.1298   -2.0436  -15.3122 C   0  0  1  0  0  0  0  0  0  0  0  0
   17.8258   -1.9828  -14.5869 C   0  0  0  0  0  0  0  0  0  0  0  0
   17.5786   -0.5760  -14.1807 C   0  0  0  0  0  0  0  0  0  0  0  0
   18.3193    0.0080  -13.3697 O   0  0  0  0  0  0  0  0  0  0  0  0
   19.6554   -3.4239  -15.4504 C   0  0  0  0  0  0  0  0  0  0  0  0
   19.4312   -4.0183  -16.5428 O   0  0  0  0  0  0  0  0  0  0  0  0
   16.4978    0.1078  -14.7151 O   0  0  0  0  0  0  0  0  0  0  0  0
   22.3672   -7.0218  -13.8893 O   0  0  0  0  0  0  0  0  0  0  0  0
   21.8326   -5.7704  -13.5988 C   0  0  0  0  0  0  0  0  0  0  0  0
   20.8214   -5.4548  -14.7033 C   0  0  2  0  0  0  0  0  0  0  0  0
   20.3759   -4.1016  -14.4578 N   0  0  0  0  0  0  0  0  0  0  0  0
   19.7326   -6.4436  -14.5756 C   0  0  0  0  0  0  0  0  0  0  0  0
   18.9544   -6.3450  -13.5949 O   0  0  0  0  0  0  0  0  0  0  0  0
   14.8717   -7.6607  -17.0301 N   0  0  0  0  0  0  0  0  0  0  0  0
   15.0785   -9.0294  -16.6613 C   0  0  0  0  0  0  0  0  0  0  0  0
   14.0472   -9.7594  -16.6838 O   0  0  0  0  0  0  0  0  0  0  0  0
   16.4030   -9.5697  -16.2838 C   0  0  0  0  0  0  0  0  0  0  0  0
   17.5031   -8.5923  -16.3288 C   0  0  0  0  0  0  0  0  0  0  0  0
   18.4965   -8.5632  -15.2338 C   0  0  2  0  0  0  0  0  0  0  0  0
   19.4995   -7.5025  -15.4841 N   0  0  0  0  0  0  0  0  0  0  0  0
   19.1379   -9.8010  -14.8059 C   0  0  0  0  0  0  0  0  0  0  0  0
   18.4502  -10.7735  -14.0440 O   0  0  0  0  0  0  0  0  0  0  0  0
   20.3390  -10.1370  -15.0565 O   0  0  0  0  0  0  0  0  0  0  0  0
  2  1  1  6
  2  3  1  0
  3  4  1  0
  4  8  1  0
  5  4  2  0
  6  2  1  0
  7  6  2  0
  9 10  1  0
 11 10  1  1
 11 13  1  0
 11 12  1  0
 12  6  1  0
 13 21  1  0
 14 13  2  0
 16 18  1  0
 16 15  1  0
 17 16  2  0
 19 18  1  0
 20 19  1  6
 21 20  1  0
 22 23  1  0
 22 20  1  0
 24 22  2  0
M  END
$$$$
