DSQ.pdb
     RDKit          3D

 24 23  0  0  1  0  0  0  0  0999 V2000
   18.6359  -13.8424  -16.1377 N   0  0  0  0  0  0  0  0  0  0  0  0
   17.5803  -12.9706  -15.6609 C   0  0  1  0  0  0  0  0  0  0  0  0
   16.6041  -13.6735  -14.7758 C   0  0  0  0  0  0  0  0  0  0  0  0
   15.8468  -14.6532  -15.5955 C   0  0  0  0  0  0  0  0  0  0  0  0
   15.2688  -15.6262  -15.0792 O   0  0  0  0  0  0  0  0  0  0  0  0
   18.1229  -11.7285  -15.0584 C   0  0  0  0  0  0  0  0  0  0  0  0
   18.7545  -11.8451  -13.9700 O   0  0  0  0  0  0  0  0  0  0  0  0
   15.7791  -14.4843  -16.9696 O   0  0  0  0  0  0  0  0  0  0  0  0
   18.5880   -8.5286  -17.1804 O   0  0  0  0  0  0  0  0  0  0  0  0
   19.4198   -8.6146  -16.0682 C   0  0  0  0  0  0  0  0  0  0  0  0
   18.6203   -9.3227  -14.9722 C   0  0  2  0  0  0  0  0  0  0  0  0
   17.9809  -10.4496  -15.6135 N   0  0  0  0  0  0  0  0  0  0  0  0
   17.6499   -8.3385  -14.4531 C   0  0  0  0  0  0  0  0  0  0  0  0
   16.5629   -8.1978  -15.0660 O   0  0  0  0  0  0  0  0  0  0  0  0
   16.2148   -6.9936   -8.5787 N   0  0  0  0  0  0  0  0  0  0  0  0
   15.6401   -5.8739   -9.2628 C   0  0  0  0  0  0  0  0  0  0  0  0
   14.9698   -5.0824   -8.5408 O   0  0  0  0  0  0  0  0  0  0  0  0
   15.8148   -5.6411  -10.7133 C   0  0  0  0  0  0  0  0  0  0  0  0
   16.6570   -6.6344  -11.4001 C   0  0  0  0  0  0  0  0  0  0  0  0
   16.8779   -6.5185  -12.8576 C   0  0  2  0  0  0  0  0  0  0  0  0
   17.8564   -7.5357  -13.3069 N   0  0  0  0  0  0  0  0  0  0  0  0
   17.1697   -5.2155  -13.4437 C   0  0  0  0  0  0  0  0  0  0  0  0
   18.4488   -4.8965  -13.9552 O   0  0  0  0  0  0  0  0  0  0  0  0
   16.3443   -4.2544  -13.5590 O   0  0  0  0  0  0  0  0  0  0  0  0
  2  1  1  1
  2  3  1  0
  3  4  1  0
  4  8  1  0
  5  4  2  0
  6  2  1  0
  7  6  2  0
  9 10  1  0
 11 10  1  6
 11 13  1  0
 11 12  1  0
 12  6  1  0
 13 21  1  0
 14 13  2  0
 16 18  1  0
 16 15  1  0
 17 16  2  0
 19 18  1  0
 20 19  1  1
 21 20  1  0
 22 23  1  0
 22 20  1  0
 24 22  2  0
M  END
$$$$
