DSQ.pdb
     RDKit          3D

 24 23  0  0  1  0  0  0  0  0999 V2000
   16.9386  -11.5718  -16.9976 N   0  0  0  0  0  0  0  0  0  0  0  0
   18.1492  -11.3423  -16.2337 C   0  0  1  0  0  0  0  0  0  0  0  0
   19.3819  -11.7718  -16.9590 C   0  0  0  0  0  0  0  0  0  0  0  0
   19.3424  -13.2475  -17.1207 C   0  0  0  0  0  0  0  0  0  0  0  0
   18.8147  -13.7805  -18.1131 O   0  0  0  0  0  0  0  0  0  0  0  0
   18.2257   -9.9493  -15.7297 C   0  0  0  0  0  0  0  0  0  0  0  0
   18.4226   -9.0385  -16.5834 O   0  0  0  0  0  0  0  0  0  0  0  0
   19.9058  -14.0553  -16.1453 O   0  0  0  0  0  0  0  0  0  0  0  0
   18.5059   -9.0821  -11.8427 O   0  0  0  0  0  0  0  0  0  0  0  0
   17.8066   -8.1060  -12.5457 C   0  0  0  0  0  0  0  0  0  0  0  0
   18.2625   -8.1996  -14.0036 C   0  0  2  0  0  0  0  0  0  0  0  0
   18.0952   -9.5844  -14.3830 N   0  0  0  0  0  0  0  0  0  0  0  0
   19.6743   -7.7685  -14.0340 C   0  0  0  0  0  0  0  0  0  0  0  0
   20.5362   -8.5895  -14.4343 O   0  0  0  0  0  0  0  0  0  0  0  0
   22.5055   -7.0065  -18.0511 N   0  0  0  0  0  0  0  0  0  0  0  0
   23.3975   -6.1885  -17.2848 C   0  0  0  0  0  0  0  0  0  0  0  0
   24.4332   -5.7968  -17.8938 O   0  0  0  0  0  0  0  0  0  0  0  0
   23.1364   -5.8127  -15.8779 C   0  0  0  0  0  0  0  0  0  0  0  0
   21.8607   -6.3072  -15.3343 C   0  0  0  0  0  0  0  0  0  0  0  0
   21.5015   -6.0065  -13.9318 C   0  0  2  0  0  0  0  0  0  0  0  0
   20.1312   -6.4883  -13.6424 N   0  0  0  0  0  0  0  0  0  0  0  0
   21.7069   -4.6624  -13.4046 C   0  0  0  0  0  0  0  0  0  0  0  0
   22.9545   -4.2470  -12.8848 O   0  0  0  0  0  0  0  0  0  0  0  0
   20.8267   -3.7455  -13.3525 O   0  0  0  0  0  0  0  0  0  0  0  0
  2  1  1  6
  2  3  1  0
  3  4  1  0
  4  8  1  0
  5  4  2  0
  6  2  1  0
  7  6  2  0
  9 10  1  0
 11 10  1  1
 11 13  1  0
 11 12  1  0
 12  6  1  0
 13 21  1  0
 14 13  2  0
 16 18  1  0
 16 15  1  0
 17 16  2  0
 19 18  1  0
 20 19  1  6
 21 20  1  0
 22 23  1  0
 22 20  1  0
 24 22  2  0
M  END
$$$$
