DSQ.pdb
     RDKit          3D

 24 23  0  0  1  0  0  0  0  0999 V2000
   19.2245  -10.6657  -19.3261 N   0  0  0  0  0  0  0  0  0  0  0  0
   20.5897  -10.2048  -19.1670 C   0  0  1  0  0  0  0  0  0  0  0  0
   20.9386   -9.0937  -20.1017 C   0  0  0  0  0  0  0  0  0  0  0  0
   20.7010   -9.5569  -21.4925 C   0  0  0  0  0  0  0  0  0  0  0  0
   21.1670  -10.6320  -21.9100 O   0  0  0  0  0  0  0  0  0  0  0  0
   20.9040   -9.8947  -17.7509 C   0  0  0  0  0  0  0  0  0  0  0  0
   19.9640   -9.4397  -17.0392 O   0  0  0  0  0  0  0  0  0  0  0  0
   19.9424   -8.7762  -22.3506 O   0  0  0  0  0  0  0  0  0  0  0  0
   23.4610  -11.5916  -15.0805 O   0  0  0  0  0  0  0  0  0  0  0  0
   23.7077  -10.2520  -15.3645 C   0  0  0  0  0  0  0  0  0  0  0  0
   22.3737   -9.6393  -15.7971 C   0  0  2  0  0  0  0  0  0  0  0  0
   22.1622  -10.0724  -17.1600 N   0  0  0  0  0  0  0  0  0  0  0  0
   22.5237   -8.1749  -15.6829 C   0  0  0  0  0  0  0  0  0  0  0  0
   22.7972   -7.5243  -16.7216 O   0  0  0  0  0  0  0  0  0  0  0  0
   19.9665   -4.4689  -17.7558 N   0  0  0  0  0  0  0  0  0  0  0  0
   20.3480   -3.5765  -16.7022 C   0  0  0  0  0  0  0  0  0  0  0  0
   19.9636   -2.3804  -16.8381 O   0  0  0  0  0  0  0  0  0  0  0  0
   21.1324   -4.0100  -15.5251 C   0  0  0  0  0  0  0  0  0  0  0  0
   21.4763   -5.4414  -15.5066 C   0  0  0  0  0  0  0  0  0  0  0  0
   22.3588   -5.9645  -14.4416 C   0  0  2  0  0  0  0  0  0  0  0  0
   22.3806   -7.4450  -14.4797 N   0  0  0  0  0  0  0  0  0  0  0  0
   22.2107   -5.4773  -13.0751 C   0  0  0  0  0  0  0  0  0  0  0  0
   21.8123   -6.3280  -12.0183 O   0  0  0  0  0  0  0  0  0  0  0  0
   22.4135   -4.2821  -12.6896 O   0  0  0  0  0  0  0  0  0  0  0  0
  2  1  1  1
  2  3  1  0
  3  4  1  0
  4  8  1  0
  5  4  2  0
  6  2  1  0
  7  6  2  0
  9 10  1  0
 11 10  1  6
 11 13  1  0
 11 12  1  0
 12  6  1  0
 13 21  1  0
 14 13  2  0
 16 18  1  0
 16 15  1  0
 17 16  2  0
 19 18  1  0
 20 19  1  6
 21 20  1  0
 22 23  1  0
 22 20  1  0
 24 22  2  0
M  END
$$$$
