DSQ.pdb
     RDKit          3D

 24 23  0  0  1  0  0  0  0  0999 V2000
   15.6165   -9.1536   -9.2316 N   0  0  0  0  0  0  0  0  0  0  0  0
   15.4557   -8.9643  -10.6599 C   0  0  1  0  0  0  0  0  0  0  0  0
   14.0734   -9.2730  -11.1332 C   0  0  0  0  0  0  0  0  0  0  0  0
   13.7663  -10.6868  -10.7984 C   0  0  0  0  0  0  0  0  0  0  0  0
   12.9917  -10.9837   -9.8714 O   0  0  0  0  0  0  0  0  0  0  0  0
   15.9359   -7.6301  -11.0954 C   0  0  0  0  0  0  0  0  0  0  0  0
   15.9551   -7.4031  -12.3385 O   0  0  0  0  0  0  0  0  0  0  0  0
   14.3542  -11.7044  -11.5334 O   0  0  0  0  0  0  0  0  0  0  0  0
   15.3092   -4.2058   -9.5115 O   0  0  0  0  0  0  0  0  0  0  0  0
   16.6835   -4.3246   -9.6947 C   0  0  0  0  0  0  0  0  0  0  0  0
   16.8949   -5.3899  -10.7729 C   0  0  2  0  0  0  0  0  0  0  0  0
   16.3643   -6.6183  -10.2258 N   0  0  0  0  0  0  0  0  0  0  0  0
   18.3488   -5.4592  -11.0202 C   0  0  0  0  0  0  0  0  0  0  0  0
   18.9987   -6.3872  -10.4783 O   0  0  0  0  0  0  0  0  0  0  0  0
   20.2925   -9.0879  -13.2471 N   0  0  0  0  0  0  0  0  0  0  0  0
   21.1698   -8.2869  -14.0477 C   0  0  0  0  0  0  0  0  0  0  0  0
   22.0845   -8.9187  -14.6486 O   0  0  0  0  0  0  0  0  0  0  0  0
   21.0252   -6.8204  -14.1786 C   0  0  0  0  0  0  0  0  0  0  0  0
   19.9808   -6.2255  -13.3284 C   0  0  0  0  0  0  0  0  0  0  0  0
   20.2512   -4.9528  -12.6259 C   0  0  2  0  0  0  0  0  0  0  0  0
   19.0696   -4.5497  -11.8291 N   0  0  0  0  0  0  0  0  0  0  0  0
   20.7963   -3.8200  -13.3652 C   0  0  0  0  0  0  0  0  0  0  0  0
   22.1889   -3.6031  -13.4785 O   0  0  0  0  0  0  0  0  0  0  0  0
   20.1133   -2.9326  -13.9687 O   0  0  0  0  0  0  0  0  0  0  0  0
  2  1  1  1
  2  3  1  0
  3  4  1  0
  4  8  1  0
  5  4  2  0
  6  2  1  0
  7  6  2  0
  9 10  1  0
 11 10  1  1
 11 13  1  0
 11 12  1  0
 12  6  1  0
 13 21  1  0
 14 13  2  0
 16 18  1  0
 16 15  1  0
 17 16  2  0
 19 18  1  0
 20 19  1  6
 21 20  1  0
 22 23  1  0
 22 20  1  0
 24 22  2  0
M  END
$$$$
