DSQ.pdb
     RDKit          3D

 24 23  0  0  1  0  0  0  0  0999 V2000
   18.4188  -12.1911  -15.7808 N   0  0  0  0  0  0  0  0  0  0  0  0
   18.7358  -11.0884  -16.6669 C   0  0  1  0  0  0  0  0  0  0  0  0
   17.5294  -10.5209  -17.3399 C   0  0  0  0  0  0  0  0  0  0  0  0
   16.9312  -11.5739  -18.1993 C   0  0  0  0  0  0  0  0  0  0  0  0
   17.4100  -11.8568  -19.3120 O   0  0  0  0  0  0  0  0  0  0  0  0
   19.5631  -10.0596  -15.9905 C   0  0  0  0  0  0  0  0  0  0  0  0
   19.1069   -9.5671  -14.9198 O   0  0  0  0  0  0  0  0  0  0  0  0
   15.8123  -12.2614  -17.7559 O   0  0  0  0  0  0  0  0  0  0  0  0
   23.4639   -9.9633  -15.3216 O   0  0  0  0  0  0  0  0  0  0  0  0
   23.0210   -8.8599  -16.0445 C   0  0  0  0  0  0  0  0  0  0  0  0
   21.5514   -8.6495  -15.6731 C   0  0  2  0  0  0  0  0  0  0  0  0
   20.8034   -9.6053  -16.4585 N   0  0  0  0  0  0  0  0  0  0  0  0
   21.2240   -7.2514  -16.0166 C   0  0  0  0  0  0  0  0  0  0  0  0
   20.6115   -7.0328  -17.0910 O   0  0  0  0  0  0  0  0  0  0  0  0
   18.6126   -4.1616  -18.4564 N   0  0  0  0  0  0  0  0  0  0  0  0
   18.5209   -3.1721  -17.4247 C   0  0  0  0  0  0  0  0  0  0  0  0
   17.9233   -2.1062  -17.7465 O   0  0  0  0  0  0  0  0  0  0  0  0
   19.0763   -3.3706  -16.0678 C   0  0  0  0  0  0  0  0  0  0  0  0
   19.7120   -4.6800  -15.8474 C   0  0  0  0  0  0  0  0  0  0  0  0
   21.1655   -4.7487  -15.5841 C   0  0  2  0  0  0  0  0  0  0  0  0
   21.5521   -6.1308  -15.2181 N   0  0  0  0  0  0  0  0  0  0  0  0
   21.7856   -3.7768  -14.6910 C   0  0  0  0  0  0  0  0  0  0  0  0
   22.0112   -2.4379  -15.0857 O   0  0  0  0  0  0  0  0  0  0  0  0
   22.1795   -4.0088  -13.5039 O   0  0  0  0  0  0  0  0  0  0  0  0
  2  1  1  1
  2  3  1  0
  3  4  1  0
  4  8  1  0
  5  4  2  0
  6  2  1  0
  7  6  2  0
  9 10  1  0
 11 10  1  6
 11 13  1  0
 11 12  1  0
 12  6  1  0
 13 21  1  0
 14 13  2  0
 16 18  1  0
 16 15  1  0
 17 16  2  0
 19 18  1  0
 20 19  1  1
 21 20  1  0
 22 23  1  0
 22 20  1  0
 24 22  2  0
M  END
$$$$
