DSQ.pdb
     RDKit          3D

 24 23  0  0  1  0  0  0  0  0999 V2000
   18.4068  -11.3280  -17.6385 N   0  0  0  0  0  0  0  0  0  0  0  0
   17.6928  -10.3661  -16.8222 C   0  0  1  0  0  0  0  0  0  0  0  0
   16.4942  -10.9522  -16.1514 C   0  0  0  0  0  0  0  0  0  0  0  0
   15.6198  -11.5524  -17.1909 C   0  0  0  0  0  0  0  0  0  0  0  0
   15.5461  -12.7840  -17.3488 O   0  0  0  0  0  0  0  0  0  0  0  0
   18.5992   -9.6614  -15.8830 C   0  0  0  0  0  0  0  0  0  0  0  0
   18.0659   -8.8763  -15.0485 O   0  0  0  0  0  0  0  0  0  0  0  0
   14.8654  -10.7249  -18.0077 O   0  0  0  0  0  0  0  0  0  0  0  0
   22.8439   -9.2690  -13.7637 O   0  0  0  0  0  0  0  0  0  0  0  0
   22.1044   -9.8719  -14.7765 C   0  0  0  0  0  0  0  0  0  0  0  0
   20.7633   -9.1376  -14.8414 C   0  0  2  0  0  0  0  0  0  0  0  0
   19.9925   -9.8098  -15.8632 N   0  0  0  0  0  0  0  0  0  0  0  0
   21.0653   -7.7346  -15.1881 C   0  0  0  0  0  0  0  0  0  0  0  0
   21.3948   -7.4741  -16.3716 O   0  0  0  0  0  0  0  0  0  0  0  0
   17.4088   -3.1840  -14.8426 N   0  0  0  0  0  0  0  0  0  0  0  0
   18.6184   -2.4461  -15.0534 C   0  0  0  0  0  0  0  0  0  0  0  0
   18.4697   -1.2090  -15.2645 O   0  0  0  0  0  0  0  0  0  0  0  0
   19.9585   -3.0721  -15.0229 C   0  0  0  0  0  0  0  0  0  0  0  0
   19.9576   -4.5175  -14.7437 C   0  0  0  0  0  0  0  0  0  0  0  0
   21.2412   -5.2496  -14.6901 C   0  0  2  0  0  0  0  0  0  0  0  0
   21.0102   -6.6533  -14.2777 N   0  0  0  0  0  0  0  0  0  0  0  0
   22.3738   -4.6727  -13.9752 C   0  0  0  0  0  0  0  0  0  0  0  0
   23.0429   -3.5186  -14.4438 O   0  0  0  0  0  0  0  0  0  0  0  0
   22.8714   -5.1200  -12.8933 O   0  0  0  0  0  0  0  0  0  0  0  0
  2  1  1  1
  2  3  1  0
  3  4  1  0
  4  8  1  0
  5  4  2  0
  6  2  1  0
  7  6  2  0
  9 10  1  0
 11 10  1  6
 11 13  1  0
 11 12  1  0
 12  6  1  0
 13 21  1  0
 14 13  2  0
 16 18  1  0
 16 15  1  0
 17 16  2  0
 19 18  1  0
 20 19  1  1
 21 20  1  0
 22 23  1  0
 22 20  1  0
 24 22  2  0
M  END
$$$$
