QMM.pdb
     RDKit          3D

 26 25  0  0  1  0  0  0  0  0999 V2000
   29.6425  -24.1285  -16.4800 N   0  0  0  0  0  0  0  0  0  0  0  0
   29.7118  -22.8685  -17.1524 C   0  0  0  0  0  0  0  0  0  0  0  0
   30.6525  -22.7310  -17.9657 O   0  0  0  0  0  0  0  0  0  0  0  0
   28.7488  -21.7892  -16.9100 C   0  0  0  0  0  0  0  0  0  0  0  0
   27.7186  -22.1479  -15.8883 C   0  0  0  0  0  0  0  0  0  0  0  0
   26.7531  -21.0423  -15.6521 C   0  0  2  0  0  0  0  0  0  0  0  0
   27.3259  -19.7588  -15.4169 N   0  0  0  0  0  0  0  0  0  0  0  0
   25.7854  -21.3608  -14.5791 C   0  0  0  0  0  0  0  0  0  0  0  0
   25.1721  -22.4745  -14.6639 O   0  0  0  0  0  0  0  0  0  0  0  0
   25.2178  -20.4667   -7.9027 C   0  0  0  0  0  0  0  0  0  0  0  0
   26.6450  -20.1612   -8.9913 S   0  0  0  0  0  0  0  0  0  0  0  0
   26.2881  -20.9679  -10.5975 C   0  0  0  0  0  0  0  0  0  0  0  0
   24.9779  -20.3926  -11.0804 C   0  0  0  0  0  0  0  0  0  0  0  0
   24.5673  -20.9590  -12.4279 C   0  0  2  0  0  0  0  0  0  0  0  0
   25.4720  -20.5608  -13.4756 N   0  0  0  0  0  0  0  0  0  0  0  0
   23.1744  -20.5571  -12.6731 C   0  0  0  0  0  0  0  0  0  0  0  0
   22.9031  -19.3826  -12.9960 O   0  0  0  0  0  0  0  0  0  0  0  0
   18.5931  -24.2191  -15.3802 C   0  0  0  0  0  0  0  0  0  0  0  0
   17.6540  -23.5225  -13.9894 S   0  0  0  0  0  0  0  0  0  0  0  0
   18.4407  -21.9677  -13.4498 C   0  0  0  0  0  0  0  0  0  0  0  0
   19.8974  -22.2645  -13.2203 C   0  0  0  0  0  0  0  0  0  0  0  0
   20.7115  -21.0780  -12.8329 C   0  0  2  0  0  0  0  0  0  0  0  0
   22.1053  -21.4699  -12.5551 N   0  0  0  0  0  0  0  0  0  0  0  0
   20.2307  -20.3291  -11.6640 C   0  0  0  0  0  0  0  0  0  0  0  0
   19.3666  -19.2655  -11.8285 O   0  0  0  0  0  0  0  0  0  0  0  0
   20.5903  -20.6372  -10.5175 O   0  0  0  0  0  0  0  0  0  0  0  0
  1  2  1  0
  2  3  2  0
  4  2  1  0
  4  5  1  0
  6  5  1  0
  6  7  1  1
  8  6  1  0
  8  9  2  0
 11 10  1  0
 12 11  1  0
 12 13  1  0
 14 13  1  1
 14 15  1  0
 15  8  1  0
 16 14  1  0
 17 16  2  0
 19 18  1  0
 19 20  1  0
 20 21  1  0
 22 23  1  0
 22 21  1  1
 23 16  1  0
 24 22  1  0
 25 24  1  0
 26 24  2  0
M  END
$$$$
