QMM.pdb
     RDKit          3D

 26 25  0  0  1  0  0  0  0  0999 V2000
   17.6891  -13.5124  -21.5610 N   0  0  0  0  0  0  0  0  0  0  0  0
   17.4731  -14.3136  -20.3965 C   0  0  0  0  0  0  0  0  0  0  0  0
   17.1114  -15.4937  -20.6012 O   0  0  0  0  0  0  0  0  0  0  0  0
   17.6548  -13.7962  -19.0363 C   0  0  0  0  0  0  0  0  0  0  0  0
   18.0224  -12.3478  -19.0096 C   0  0  0  0  0  0  0  0  0  0  0  0
   18.1684  -11.8308  -17.6232 C   0  0  2  0  0  0  0  0  0  0  0  0
   16.9965  -11.8868  -16.8142 N   0  0  0  0  0  0  0  0  0  0  0  0
   18.7328  -10.4636  -17.5896 C   0  0  0  0  0  0  0  0  0  0  0  0
   19.9083  -10.3105  -18.0569 O   0  0  0  0  0  0  0  0  0  0  0  0
   16.6496   -4.3031  -15.4341 C   0  0  0  0  0  0  0  0  0  0  0  0
   15.7103   -5.8589  -15.3225 S   0  0  0  0  0  0  0  0  0  0  0  0
   16.9094   -7.2335  -15.4980 C   0  0  0  0  0  0  0  0  0  0  0  0
   17.7386   -6.9208  -16.7209 C   0  0  0  0  0  0  0  0  0  0  0  0
   18.7366   -8.0221  -17.0312 C   0  0  2  0  0  0  0  0  0  0  0  0
   18.1061   -9.3156  -17.0943 N   0  0  0  0  0  0  0  0  0  0  0  0
   19.8111   -7.9428  -16.0308 C   0  0  0  0  0  0  0  0  0  0  0  0
   19.6556   -8.4377  -14.8958 O   0  0  0  0  0  0  0  0  0  0  0  0
   26.9033  -10.1050  -14.7067 C   0  0  0  0  0  0  0  0  0  0  0  0
   25.4660   -9.8049  -15.7770 S   0  0  0  0  0  0  0  0  0  0  0  0
   24.4171   -8.5134  -15.0291 C   0  0  0  0  0  0  0  0  0  0  0  0
   23.1565   -8.4382  -15.8464 C   0  0  0  0  0  0  0  0  0  0  0  0
   22.1895   -7.4010  -15.3882 C   0  0  2  0  0  0  0  0  0  0  0  0
   21.0426   -7.3137  -16.3103 N   0  0  0  0  0  0  0  0  0  0  0  0
   22.7322   -6.0438  -15.2417 C   0  0  0  0  0  0  0  0  0  0  0  0
   23.4353   -5.6962  -14.1059 O   0  0  0  0  0  0  0  0  0  0  0  0
   22.5692   -5.1928  -16.1294 O   0  0  0  0  0  0  0  0  0  0  0  0
  1  2  1  0
  2  3  2  0
  4  2  1  0
  4  5  1  0
  6  5  1  0
  6  7  1  6
  8  6  1  0
  8  9  2  0
 11 10  1  0
 12 11  1  0
 12 13  1  0
 14 13  1  1
 14 15  1  0
 15  8  1  0
 16 14  1  0
 17 16  2  0
 19 18  1  0
 19 20  1  0
 20 21  1  0
 22 23  1  0
 22 21  1  6
 23 16  1  0
 24 22  1  0
 25 24  1  0
 26 24  2  0
M  END
$$$$
