QMM.pdb
     RDKit          3D

 26 25  0  0  1  0  0  0  0  0999 V2000
   16.0475  -12.4016  -18.7042 N   0  0  0  0  0  0  0  0  0  0  0  0
   16.2367  -13.8174  -18.6393 C   0  0  0  0  0  0  0  0  0  0  0  0
   15.4143  -14.5113  -19.2776 O   0  0  0  0  0  0  0  0  0  0  0  0
   17.3219  -14.4353  -17.8701 C   0  0  0  0  0  0  0  0  0  0  0  0
   18.2334  -13.4315  -17.2413 C   0  0  0  0  0  0  0  0  0  0  0  0
   19.6164  -13.5129  -17.7811 C   0  0  2  0  0  0  0  0  0  0  0  0
   20.3191  -14.7216  -17.5055 N   0  0  0  0  0  0  0  0  0  0  0  0
   20.4442  -12.3529  -17.3834 C   0  0  0  0  0  0  0  0  0  0  0  0
   20.7112  -12.2296  -16.1436 O   0  0  0  0  0  0  0  0  0  0  0  0
   23.9404  -10.1820  -21.9820 C   0  0  0  0  0  0  0  0  0  0  0  0
   24.8930  -10.3652  -20.4411 S   0  0  0  0  0  0  0  0  0  0  0  0
   23.7462  -11.0074  -19.1643 C   0  0  0  0  0  0  0  0  0  0  0  0
   22.8128   -9.8708  -18.8208 C   0  0  0  0  0  0  0  0  0  0  0  0
   21.7811  -10.2729  -17.7820 C   0  0  2  0  0  0  0  0  0  0  0  0
   20.9660  -11.3717  -18.2325 N   0  0  0  0  0  0  0  0  0  0  0  0
   21.0061   -9.0719  -17.4375 C   0  0  0  0  0  0  0  0  0  0  0  0
   20.1788   -8.6007  -18.2444 O   0  0  0  0  0  0  0  0  0  0  0  0
   15.1824   -8.6301  -14.9364 C   0  0  0  0  0  0  0  0  0  0  0  0
   16.8380   -8.3791  -14.2311 S   0  0  0  0  0  0  0  0  0  0  0  0
   17.9496   -7.7251  -15.5210 C   0  0  0  0  0  0  0  0  0  0  0  0
   19.3021   -7.5411  -14.8887 C   0  0  0  0  0  0  0  0  0  0  0  0
   20.3896   -7.2093  -15.8521 C   0  0  2  0  0  0  0  0  0  0  0  0
   21.1644   -8.4144  -16.1994 N   0  0  0  0  0  0  0  0  0  0  0  0
   21.3492   -6.1911  -15.4043 C   0  0  0  0  0  0  0  0  0  0  0  0
   20.9179   -4.9146  -15.1052 O   0  0  0  0  0  0  0  0  0  0  0  0
   22.5548   -6.4588  -15.2881 O   0  0  0  0  0  0  0  0  0  0  0  0
  1  2  1  0
  2  3  2  0
  4  2  1  0
  4  5  1  0
  6  5  1  0
  6  7  1  1
  8  6  1  0
  8  9  2  0
 11 10  1  0
 12 11  1  0
 12 13  1  0
 14 13  1  6
 14 15  1  0
 15  8  1  0
 16 14  1  0
 17 16  2  0
 19 18  1  0
 19 20  1  0
 20 21  1  0
 22 23  1  0
 22 21  1  1
 23 16  1  0
 24 22  1  0
 25 24  1  0
 26 24  2  0
M  END
$$$$
