QMM.pdb
     RDKit          3D

 26 25  0  0  1  0  0  0  0  0999 V2000
   14.8466  -12.2437  -14.5390 N   0  0  0  0  0  0  0  0  0  0  0  0
   15.5943  -12.7237  -15.6594 C   0  0  0  0  0  0  0  0  0  0  0  0
   15.3265  -13.8844  -16.0419 O   0  0  0  0  0  0  0  0  0  0  0  0
   16.6212  -11.9179  -16.3280 C   0  0  0  0  0  0  0  0  0  0  0  0
   16.7709  -10.5556  -15.7315 C   0  0  0  0  0  0  0  0  0  0  0  0
   17.8293   -9.7598  -16.4074 C   0  0  2  0  0  0  0  0  0  0  0  0
   18.8221  -10.5110  -17.1008 N   0  0  0  0  0  0  0  0  0  0  0  0
   18.4811   -8.7983  -15.4909 C   0  0  0  0  0  0  0  0  0  0  0  0
   17.7190   -8.0177  -14.8325 O   0  0  0  0  0  0  0  0  0  0  0  0
   22.7024  -11.0776  -10.7160 C   0  0  0  0  0  0  0  0  0  0  0  0
   23.0261   -9.8388  -12.0106 S   0  0  0  0  0  0  0  0  0  0  0  0
   21.4024   -9.2977  -12.6655 C   0  0  0  0  0  0  0  0  0  0  0  0
   21.6938   -8.2413  -13.7047 C   0  0  0  0  0  0  0  0  0  0  0  0
   20.4263   -7.7093  -14.3494 C   0  0  2  0  0  0  0  0  0  0  0  0
   19.8552   -8.6564  -15.2721 N   0  0  0  0  0  0  0  0  0  0  0  0
   20.7511   -6.4145  -14.9657 C   0  0  0  0  0  0  0  0  0  0  0  0
   21.3016   -6.3677  -16.0847 O   0  0  0  0  0  0  0  0  0  0  0  0
   17.4844   -0.5621  -14.7980 C   0  0  0  0  0  0  0  0  0  0  0  0
   18.3769   -0.9797  -16.3246 S   0  0  0  0  0  0  0  0  0  0  0  0
   19.9689   -1.7609  -15.8973 C   0  0  0  0  0  0  0  0  0  0  0  0
   19.6597   -3.1299  -15.3561 C   0  0  0  0  0  0  0  0  0  0  0  0
   20.8556   -3.8950  -14.9031 C   0  0  2  0  0  0  0  0  0  0  0  0
   20.4573   -5.1918  -14.3261 N   0  0  0  0  0  0  0  0  0  0  0  0
   21.7048   -3.2218  -13.9112 C   0  0  0  0  0  0  0  0  0  0  0  0
   21.8030   -3.7212  -12.6282 O   0  0  0  0  0  0  0  0  0  0  0  0
   22.3435   -2.2004  -14.2071 O   0  0  0  0  0  0  0  0  0  0  0  0
  1  2  1  0
  2  3  2  0
  4  2  1  0
  4  5  1  0
  6  5  1  0
  6  7  1  1
  8  6  1  0
  8  9  2  0
 11 10  1  0
 12 11  1  0
 12 13  1  0
 14 13  1  6
 14 15  1  0
 15  8  1  0
 16 14  1  0
 17 16  2  0
 19 18  1  0
 19 20  1  0
 20 21  1  0
 22 23  1  0
 22 21  1  1
 23 16  1  0
 24 22  1  0
 25 24  1  0
 26 24  2  0
M  END
$$$$
