QMM.pdb
     RDKit          3D

 26 25  0  0  1  0  0  0  0  0999 V2000
   24.1759  -18.3193  -18.2456 N   0  0  0  0  0  0  0  0  0  0  0  0
   25.4512  -17.6932  -18.0837 C   0  0  0  0  0  0  0  0  0  0  0  0
   25.5728  -16.5557  -18.5900 O   0  0  0  0  0  0  0  0  0  0  0  0
   26.5625  -18.3354  -17.3740 C   0  0  0  0  0  0  0  0  0  0  0  0
   26.1899  -19.6581  -16.7862 C   0  0  0  0  0  0  0  0  0  0  0  0
   26.6126  -19.7806  -15.3660 C   0  0  2  0  0  0  0  0  0  0  0  0
   27.9441  -20.2416  -15.1532 N   0  0  0  0  0  0  0  0  0  0  0  0
   25.6696  -20.5940  -14.5671 C   0  0  0  0  0  0  0  0  0  0  0  0
   25.1502  -21.6074  -15.1390 O   0  0  0  0  0  0  0  0  0  0  0  0
   26.0214  -19.7062   -8.4688 C   0  0  0  0  0  0  0  0  0  0  0  0
   26.0938  -21.4928   -8.8122 S   0  0  0  0  0  0  0  0  0  0  0  0
   25.9501  -21.7055  -10.6266 C   0  0  0  0  0  0  0  0  0  0  0  0
   24.6071  -21.1353  -11.0165 C   0  0  0  0  0  0  0  0  0  0  0  0
   24.3704  -21.2041  -12.5147 C   0  0  2  0  0  0  0  0  0  0  0  0
   25.2865  -20.3637  -13.2419 N   0  0  0  0  0  0  0  0  0  0  0  0
   22.9576  -20.8769  -12.7567 C   0  0  0  0  0  0  0  0  0  0  0  0
   22.5358  -19.7180  -12.5661 O   0  0  0  0  0  0  0  0  0  0  0  0
   19.1577  -25.0468  -15.6397 C   0  0  0  0  0  0  0  0  0  0  0  0
   18.0295  -23.6339  -15.8193 S   0  0  0  0  0  0  0  0  0  0  0  0
   18.5705  -22.2867  -14.7148 C   0  0  0  0  0  0  0  0  0  0  0  0
   20.0259  -22.5184  -14.4132 C   0  0  0  0  0  0  0  0  0  0  0  0
   20.6312  -21.5089  -13.4994 C   0  0  2  0  0  0  0  0  0  0  0  0
   22.0365  -21.8457  -13.2077 N   0  0  0  0  0  0  0  0  0  0  0  0
   19.9520  -21.3284  -12.2094 C   0  0  0  0  0  0  0  0  0  0  0  0
   18.9952  -20.3448  -12.0603 O   0  0  0  0  0  0  0  0  0  0  0  0
   20.2246  -22.0511  -11.2388 O   0  0  0  0  0  0  0  0  0  0  0  0
  1  2  1  0
  2  3  2  0
  4  2  1  0
  4  5  1  0
  6  5  1  0
  6  7  1  6
  8  6  1  0
  8  9  2  0
 11 10  1  0
 12 11  1  0
 12 13  1  0
 14 13  1  1
 14 15  1  0
 15  8  1  0
 16 14  1  0
 17 16  2  0
 19 18  1  0
 19 20  1  0
 20 21  1  0
 22 23  1  0
 22 21  1  1
 23 16  1  0
 24 22  1  0
 25 24  1  0
 26 24  2  0
M  END
$$$$
