QMM.pdb
     RDKit          3D

 26 25  0  0  1  0  0  0  0  0999 V2000
   26.7173  -17.0137  -18.3455 N   0  0  0  0  0  0  0  0  0  0  0  0
   27.9444  -16.6061  -17.7352 C   0  0  0  0  0  0  0  0  0  0  0  0
   28.6446  -15.8039  -18.3920 O   0  0  0  0  0  0  0  0  0  0  0  0
   28.3738  -17.0946  -16.4206 C   0  0  0  0  0  0  0  0  0  0  0  0
   27.3354  -17.9290  -15.7429 C   0  0  0  0  0  0  0  0  0  0  0  0
   27.8591  -19.2617  -15.3427 C   0  0  2  0  0  0  0  0  0  0  0  0
   28.2973  -20.1009  -16.4078 N   0  0  0  0  0  0  0  0  0  0  0  0
   26.9112  -20.0026  -14.4816 C   0  0  0  0  0  0  0  0  0  0  0  0
   26.2148  -20.9138  -15.0370 O   0  0  0  0  0  0  0  0  0  0  0  0
   24.2550  -21.8773   -7.2677 C   0  0  0  0  0  0  0  0  0  0  0  0
   25.3741  -20.8516   -8.2731 S   0  0  0  0  0  0  0  0  0  0  0  0
   24.9362  -21.1290  -10.0307 C   0  0  0  0  0  0  0  0  0  0  0  0
   25.9779  -20.4027  -10.8481 C   0  0  0  0  0  0  0  0  0  0  0  0
   25.7260  -20.5322  -12.3398 C   0  0  2  0  0  0  0  0  0  0  0  0
   26.6988  -19.8045  -13.1135 N   0  0  0  0  0  0  0  0  0  0  0  0
   24.3408  -20.1101  -12.5946 C   0  0  0  0  0  0  0  0  0  0  0  0
   24.0075  -18.9161  -12.4512 O   0  0  0  0  0  0  0  0  0  0  0  0
   20.9641  -22.7953  -16.9151 C   0  0  0  0  0  0  0  0  0  0  0  0
   19.7119  -21.5299  -16.5514 S   0  0  0  0  0  0  0  0  0  0  0  0
   20.0809  -20.7635  -14.9378 C   0  0  0  0  0  0  0  0  0  0  0  0
   21.5136  -21.0857  -14.6114 C   0  0  0  0  0  0  0  0  0  0  0  0
   21.9621  -20.6015  -13.2753 C   0  0  2  0  0  0  0  0  0  0  0  0
   23.3483  -21.0246  -13.0056 N   0  0  0  0  0  0  0  0  0  0  0  0
   21.1465  -21.0356  -12.1332 C   0  0  0  0  0  0  0  0  0  0  0  0
   20.0775  -20.2703  -11.7129 O   0  0  0  0  0  0  0  0  0  0  0  0
   21.4024  -22.0894  -11.5310 O   0  0  0  0  0  0  0  0  0  0  0  0
  1  2  1  0
  2  3  2  0
  4  2  1  0
  4  5  1  0
  6  5  1  0
  6  7  1  6
  8  6  1  0
  8  9  2  0
 11 10  1  0
 12 11  1  0
 12 13  1  0
 14 13  1  1
 14 15  1  0
 15  8  1  0
 16 14  1  0
 17 16  2  0
 19 18  1  0
 19 20  1  0
 20 21  1  0
 22 23  1  0
 22 21  1  6
 23 16  1  0
 24 22  1  0
 25 24  1  0
 26 24  2  0
M  END
$$$$
