MVC.pdb
     RDKit          3D

 22 21  0  0  1  0  0  0  0  0999 V2000
    8.2784  -11.4911   19.5555 C   0  0  0  0  0  0  0  0  0  0  0  0
    7.8636  -12.9147   18.5209 S   0  0  0  0  0  0  0  0  0  0  0  0
    7.4852  -14.3600   19.5341 C   0  0  0  0  0  0  0  0  0  0  0  0
    8.1415  -14.1776   20.8839 C   0  0  0  0  0  0  0  0  0  0  0  0
    7.8006  -15.3675   21.7364 C   0  0  2  0  0  0  0  0  0  0  0  0
    6.3880  -15.6199   21.8589 N   0  0  0  0  0  0  0  0  0  0  0  0
    8.3662  -15.1062   23.1020 C   0  0  0  0  0  0  0  0  0  0  0  0
    9.6038  -15.2245   23.2732 O   0  0  0  0  0  0  0  0  0  0  0  0
    5.9409  -13.9928   26.4979 C   0  0  0  0  0  0  0  0  0  0  0  0
    7.2887  -13.4673   26.1766 C   0  0  1  0  0  0  0  0  0  0  0  0
    8.0408  -12.9521   27.4112 C   0  0  0  0  0  0  0  0  0  0  0  0
    8.2237  -14.4062   25.4726 C   0  0  2  0  0  0  0  0  0  0  0  0
    7.5662  -14.7318   24.2067 N   0  0  0  0  0  0  0  0  0  0  0  0
    8.5649  -15.6234   26.2293 C   0  0  0  0  0  0  0  0  0  0  0  0
    7.6645  -16.5306   26.2808 O   0  0  0  0  0  0  0  0  0  0  0  0
    9.7546  -15.9055   26.8962 N   0  0  0  0  0  0  0  0  0  0  0  0
    9.9797  -17.1537   27.5444 C   0  0  1  0  0  0  0  0  0  0  0  0
   10.8252  -18.1128   26.7457 C   0  0  0  0  0  0  0  0  0  0  0  0
   11.9202  -17.2152   25.6082 S   0  0  0  0  0  0  0  0  0  0  0  0
   10.6278  -16.9298   28.8631 C   0  0  0  0  0  0  0  0  0  0  0  0
   10.9521  -15.7638   29.2015 O   0  0  0  0  0  0  0  0  0  0  0  0
   10.8946  -17.9561   29.7471 O   0  0  0  0  0  0  0  0  0  0  0  0
  2  1  1  0
  3  2  1  0
  3  4  1  0
  4  5  1  0
  5  7  1  0
  5  6  1  1
  7  8  2  0
 10  9  1  1
 10 12  1  0
 10 11  1  0
 12 14  1  0
 13  7  1  0
 12 13  1  6
 14 16  1  0
 15 14  2  0
 16 17  1  0
 17 18  1  6
 18 19  1  0
 20 22  1  0
 20 17  1  0
 21 20  2  0
M  END
$$$$
