MVC.pdb
     RDKit          3D

 22 21  0  0  1  0  0  0  0  0999 V2000
    7.4784  -11.4557   26.4173 C   0  0  0  0  0  0  0  0  0  0  0  0
    6.0092  -12.4679   26.7103 S   0  0  0  0  0  0  0  0  0  0  0  0
    6.4606  -14.0787   27.3887 C   0  0  0  0  0  0  0  0  0  0  0  0
    7.3306  -14.7916   26.3784 C   0  0  0  0  0  0  0  0  0  0  0  0
    6.4360  -15.4053   25.3384 C   0  0  2  0  0  0  0  0  0  0  0  0
    5.6785  -16.5376   25.8058 N   0  0  0  0  0  0  0  0  0  0  0  0
    7.3168  -15.8461   24.2058 C   0  0  0  0  0  0  0  0  0  0  0  0
    7.8604  -16.9754   24.2709 O   0  0  0  0  0  0  0  0  0  0  0  0
    6.8065  -14.6921   20.2897 C   0  0  0  0  0  0  0  0  0  0  0  0
    8.1899  -14.6972   20.8208 C   0  0  1  0  0  0  0  0  0  0  0  0
    8.6974  -13.2950   21.1838 C   0  0  0  0  0  0  0  0  0  0  0  0
    8.4442  -15.5628   22.0196 C   0  0  2  0  0  0  0  0  0  0  0  0
    7.5624  -15.0450   23.0662 N   0  0  0  0  0  0  0  0  0  0  0  0
    9.8467  -15.6013   22.4695 C   0  0  0  0  0  0  0  0  0  0  0  0
   10.2950  -14.5378   23.0212 O   0  0  0  0  0  0  0  0  0  0  0  0
   10.7447  -16.6608   22.3664 N   0  0  0  0  0  0  0  0  0  0  0  0
   12.0748  -16.5753   22.8687 C   0  0  1  0  0  0  0  0  0  0  0  0
   12.3998  -17.6102   23.9156 C   0  0  0  0  0  0  0  0  0  0  0  0
   11.2291  -17.5170   25.3010 S   0  0  0  0  0  0  0  0  0  0  0  0
   13.0471  -16.7039   21.7520 C   0  0  0  0  0  0  0  0  0  0  0  0
   12.6257  -16.9260   20.5891 O   0  0  0  0  0  0  0  0  0  0  0  0
   14.4109  -16.5893   21.9333 O   0  0  0  0  0  0  0  0  0  0  0  0
  2  1  1  0
  3  2  1  0
  3  4  1  0
  4  5  1  0
  5  7  1  0
  5  6  1  1
  7  8  2  0
 10  9  1  1
 10 12  1  0
 10 11  1  0
 12 14  1  0
 13  7  1  0
 12 13  1  1
 14 16  1  0
 15 14  2  0
 16 17  1  0
 17 18  1  1
 18 19  1  0
 20 22  1  0
 20 17  1  0
 21 20  2  0
M  END
$$$$
