MVC.pdb
     RDKit          3D

 22 21  0  0  1  0  0  0  0  0999 V2000
    8.1801  -12.2179   27.0588 C   0  0  0  0  0  0  0  0  0  0  0  0
    6.4511  -12.2977   26.5360 S   0  0  0  0  0  0  0  0  0  0  0  0
    5.7863  -13.9613   26.7575 C   0  0  0  0  0  0  0  0  0  0  0  0
    6.8572  -14.9553   26.3687 C   0  0  0  0  0  0  0  0  0  0  0  0
    6.2478  -15.9593   25.4310 C   0  0  2  0  0  0  0  0  0  0  0  0
    6.0292  -17.2568   26.0169 N   0  0  0  0  0  0  0  0  0  0  0  0
    7.1884  -16.1042   24.2704 C   0  0  0  0  0  0  0  0  0  0  0  0
    8.0377  -17.0278   24.2962 O   0  0  0  0  0  0  0  0  0  0  0  0
    7.8430  -13.0341   21.4215 C   0  0  0  0  0  0  0  0  0  0  0  0
    7.7810  -14.4573   21.0135 C   0  0  1  0  0  0  0  0  0  0  0  0
    8.6715  -14.7731   19.8041 C   0  0  0  0  0  0  0  0  0  0  0  0
    8.1209  -15.4714   22.0657 C   0  0  2  0  0  0  0  0  0  0  0  0
    7.1610  -15.2455   23.1468 N   0  0  0  0  0  0  0  0  0  0  0  0
    9.5082  -15.4118   22.5581 C   0  0  0  0  0  0  0  0  0  0  0  0
    9.8618  -14.3224   23.1279 O   0  0  0  0  0  0  0  0  0  0  0  0
   10.4830  -16.4033   22.4782 N   0  0  0  0  0  0  0  0  0  0  0  0
   11.8132  -16.1942   22.9427 C   0  0  1  0  0  0  0  0  0  0  0  0
   12.1641  -16.9953   24.1706 C   0  0  0  0  0  0  0  0  0  0  0  0
   11.0726  -18.4376   24.3343 S   0  0  0  0  0  0  0  0  0  0  0  0
   12.7833  -16.5217   21.8653 C   0  0  0  0  0  0  0  0  0  0  0  0
   12.3668  -17.0253   20.7919 O   0  0  0  0  0  0  0  0  0  0  0  0
   14.1396  -16.2960   21.9887 O   0  0  0  0  0  0  0  0  0  0  0  0
  2  1  1  0
  3  2  1  0
  3  4  1  0
  4  5  1  0
  5  7  1  0
  5  6  1  1
  7  8  2  0
 10  9  1  1
 10 12  1  0
 10 11  1  0
 12 14  1  0
 13  7  1  0
 12 13  1  1
 14 16  1  0
 15 14  2  0
 16 17  1  0
 17 18  1  1
 18 19  1  0
 20 22  1  0
 20 17  1  0
 21 20  2  0
M  END
$$$$
