MVC.pdb
     RDKit          3D

 22 21  0  0  1  0  0  0  0  0999 V2000
    6.8625  -11.4304   26.4095 C   0  0  0  0  0  0  0  0  0  0  0  0
    6.7367  -12.8594   27.5101 S   0  0  0  0  0  0  0  0  0  0  0  0
    5.9963  -14.2674   26.6570 C   0  0  0  0  0  0  0  0  0  0  0  0
    6.9228  -14.6838   25.5371 C   0  0  0  0  0  0  0  0  0  0  0  0
    6.2604  -15.7914   24.7670 C   0  0  2  0  0  0  0  0  0  0  0  0
    6.1248  -17.0221   25.5027 N   0  0  0  0  0  0  0  0  0  0  0  0
    7.1017  -16.0447   23.5501 C   0  0  0  0  0  0  0  0  0  0  0  0
    7.6041  -17.1840   23.3927 O   0  0  0  0  0  0  0  0  0  0  0  0
    6.6243  -14.2009   19.8809 C   0  0  0  0  0  0  0  0  0  0  0  0
    7.9967  -14.3093   20.4291 C   0  0  1  0  0  0  0  0  0  0  0  0
    8.4935  -13.0029   21.0632 C   0  0  0  0  0  0  0  0  0  0  0  0
    8.2289  -15.3883   21.4456 C   0  0  2  0  0  0  0  0  0  0  0  0
    7.3545  -15.0560   22.5707 N   0  0  0  0  0  0  0  0  0  0  0  0
    9.6287  -15.5394   21.8796 C   0  0  0  0  0  0  0  0  0  0  0  0
   10.5052  -15.6184   20.9513 O   0  0  0  0  0  0  0  0  0  0  0  0
   10.1129  -15.6053   23.1838 N   0  0  0  0  0  0  0  0  0  0  0  0
   11.4912  -15.8260   23.4677 C   0  0  1  0  0  0  0  0  0  0  0  0
   11.8323  -15.7499   24.9341 C   0  0  0  0  0  0  0  0  0  0  0  0
   10.8398  -14.4744   25.7626 S   0  0  0  0  0  0  0  0  0  0  0  0
   11.9088  -17.1546   22.9484 C   0  0  0  0  0  0  0  0  0  0  0  0
   11.0625  -17.8885   22.3789 O   0  0  0  0  0  0  0  0  0  0  0  0
   13.2005  -17.6280   23.0632 O   0  0  0  0  0  0  0  0  0  0  0  0
  2  1  1  0
  3  2  1  0
  3  4  1  0
  4  5  1  0
  5  7  1  0
  5  6  1  1
  7  8  2  0
 10  9  1  1
 10 12  1  0
 10 11  1  0
 12 14  1  0
 13  7  1  0
 12 13  1  1
 14 16  1  0
 15 14  2  0
 16 17  1  0
 17 18  1  1
 18 19  1  0
 20 22  1  0
 20 17  1  0
 21 20  2  0
M  END
$$$$
