MVC.pdb
     RDKit          3D

 22 21  0  0  1  0  0  0  0  0999 V2000
    5.3505  -12.4694   27.4304 C   0  0  0  0  0  0  0  0  0  0  0  0
    7.1202  -12.2891   27.1067 S   0  0  0  0  0  0  0  0  0  0  0  0
    7.7433  -13.6782   26.1367 C   0  0  0  0  0  0  0  0  0  0  0  0
    7.0617  -14.9380   26.6207 C   0  0  0  0  0  0  0  0  0  0  0  0
    6.3493  -15.5640   25.4548 C   0  0  2  0  0  0  0  0  0  0  0  0
    5.6634  -16.7901   25.7719 N   0  0  0  0  0  0  0  0  0  0  0  0
    7.3858  -15.8460   24.4065 C   0  0  0  0  0  0  0  0  0  0  0  0
    8.1292  -16.8470   24.5496 O   0  0  0  0  0  0  0  0  0  0  0  0
    6.6907  -14.9149   20.5295 C   0  0  0  0  0  0  0  0  0  0  0  0
    8.0891  -14.7321   20.9845 C   0  0  1  0  0  0  0  0  0  0  0  0
    8.4533  -13.2607   21.2247 C   0  0  0  0  0  0  0  0  0  0  0  0
    8.4934  -15.4759   22.2232 C   0  0  2  0  0  0  0  0  0  0  0  0
    7.5631  -15.0335   23.2624 N   0  0  0  0  0  0  0  0  0  0  0  0
    9.8936  -15.2769   22.6358 C   0  0  0  0  0  0  0  0  0  0  0  0
   10.0909  -14.4553   23.5962 O   0  0  0  0  0  0  0  0  0  0  0  0
   11.0313  -15.8793   22.1042 N   0  0  0  0  0  0  0  0  0  0  0  0
   12.1015  -16.3318   22.9281 C   0  0  1  0  0  0  0  0  0  0  0  0
   11.6890  -17.3505   23.9600 C   0  0  0  0  0  0  0  0  0  0  0  0
   11.7992  -16.6548   25.6341 S   0  0  0  0  0  0  0  0  0  0  0  0
   13.1780  -16.9147   22.0852 C   0  0  0  0  0  0  0  0  0  0  0  0
   12.8769  -17.4847   21.0064 O   0  0  0  0  0  0  0  0  0  0  0  0
   14.5123  -16.8593   22.4354 O   0  0  0  0  0  0  0  0  0  0  0  0
  2  1  1  0
  3  2  1  0
  3  4  1  0
  4  5  1  0
  5  7  1  0
  5  6  1  1
  7  8  2  0
 10  9  1  1
 10 12  1  0
 10 11  1  0
 12 14  1  0
 13  7  1  0
 12 13  1  1
 14 16  1  0
 15 14  2  0
 16 17  1  0
 17 18  1  1
 18 19  1  0
 20 22  1  0
 20 17  1  0
 21 20  2  0
M  END
$$$$
