MVV.pdb
     RDKit          3D

 23 22  0  0  1  0  0  0  0  0999 V2000
   21.8644  -16.0513  -18.1910 C   0  0  0  0  0  0  0  0  0  0  0  0
   23.3874  -15.6391  -19.0813 S   0  0  0  0  0  0  0  0  0  0  0  0
   24.8605  -15.9928  -18.0973 C   0  0  0  0  0  0  0  0  0  0  0  0
   24.7302  -17.2428  -17.2749 C   0  0  0  0  0  0  0  0  0  0  0  0
   25.9224  -18.1669  -17.4377 C   0  0  2  0  0  0  0  0  0  0  0  0
   25.9826  -18.5856  -18.7895 N   0  0  0  0  0  0  0  0  0  0  0  0
   26.0282  -19.1869  -16.4093 C   0  0  0  0  0  0  0  0  0  0  0  0
   25.2945  -20.2231  -16.5470 O   0  0  0  0  0  0  0  0  0  0  0  0
   28.8025  -21.1355  -12.8383 C   0  0  0  0  0  0  0  0  0  0  0  0
   28.5656  -20.2349  -14.0074 C   0  0  1  0  0  0  0  0  0  0  0  0
   29.2580  -20.8446  -15.2069 C   0  0  0  0  0  0  0  0  0  0  0  0
   27.0831  -20.1737  -14.3143 C   0  0  2  0  0  0  0  0  0  0  0  0
   26.8650  -19.0990  -15.3053 N   0  0  0  0  0  0  0  0  0  0  0  0
   26.3678  -19.8290  -13.0676 C   0  0  0  0  0  0  0  0  0  0  0  0
   26.6438  -18.7021  -12.4964 O   0  0  0  0  0  0  0  0  0  0  0  0
   22.6303  -19.8343  -12.1870 C   0  0  0  0  0  0  0  0  0  0  0  0
   23.3765  -20.5692  -11.1141 C   0  0  1  0  0  0  0  0  0  0  0  0
   23.1878  -22.0432  -11.2513 C   0  0  0  0  0  0  0  0  0  0  0  0
   24.8491  -20.1749  -11.0979 C   0  0  2  0  0  0  0  0  0  0  0  0
   25.3891  -20.5986  -12.4080 N   0  0  0  0  0  0  0  0  0  0  0  0
   25.4902  -20.8992   -9.9837 C   0  0  0  0  0  0  0  0  0  0  0  0
   26.0265  -22.0296  -10.1131 O   0  0  0  0  0  0  0  0  0  0  0  0
   25.5089  -20.3160   -8.7333 O   0  0  0  0  0  0  0  0  0  0  0  0
  1  2  1  0
  3  2  1  0
  4  3  1  0
  5  6  1  6
  5  4  1  0
  7  5  1  0
  7 13  1  0
  8  7  2  0
 10  9  1  1
 10 12  1  0
 11 10  1  0
 12 13  1  6
 12 14  1  0
 14 20  1  0
 15 14  2  0
 17 19  1  0
 17 16  1  6
 18 17  1  0
 19 21  1  0
 19 20  1  6
 21 22  2  0
 21 23  1  0
M  END
$$$$
