MVV.pdb
     RDKit          3D

 23 22  0  0  1  0  0  0  0  0999 V2000
   30.4923  -24.9683  -16.2370 C   0  0  0  0  0  0  0  0  0  0  0  0
   30.5970  -23.6245  -17.4476 S   0  0  0  0  0  0  0  0  0  0  0  0
   29.5083  -22.2472  -17.0221 C   0  0  0  0  0  0  0  0  0  0  0  0
   28.4750  -22.6121  -15.9950 C   0  0  0  0  0  0  0  0  0  0  0  0
   27.5495  -21.4543  -15.6717 C   0  0  2  0  0  0  0  0  0  0  0  0
   28.3400  -20.3056  -15.4226 N   0  0  0  0  0  0  0  0  0  0  0  0
   26.5064  -21.7771  -14.7140 C   0  0  0  0  0  0  0  0  0  0  0  0
   25.7703  -22.7858  -14.9812 O   0  0  0  0  0  0  0  0  0  0  0  0
   25.8106  -19.3489  -11.2963 C   0  0  0  0  0  0  0  0  0  0  0  0
   25.6882  -20.8360  -11.2072 C   0  0  1  0  0  0  0  0  0  0  0  0
   24.6117  -21.1501  -10.1912 C   0  0  0  0  0  0  0  0  0  0  0  0
   25.2373  -21.3932  -12.5420 C   0  0  2  0  0  0  0  0  0  0  0  0
   26.2687  -21.0628  -13.5478 N   0  0  0  0  0  0  0  0  0  0  0  0
   23.9718  -20.7274  -12.9161 C   0  0  0  0  0  0  0  0  0  0  0  0
   23.9707  -19.4397  -13.0347 O   0  0  0  0  0  0  0  0  0  0  0  0
   19.9596  -20.3907  -15.5077 C   0  0  0  0  0  0  0  0  0  0  0  0
   21.1697  -21.0927  -14.9685 C   0  0  1  0  0  0  0  0  0  0  0  0
   22.2957  -21.0357  -15.9464 C   0  0  0  0  0  0  0  0  0  0  0  0
   21.5633  -20.5423  -13.6023 C   0  0  2  0  0  0  0  0  0  0  0  0
   22.7303  -21.3426  -13.1719 N   0  0  0  0  0  0  0  0  0  0  0  0
   20.4110  -20.7293  -12.6998 C   0  0  0  0  0  0  0  0  0  0  0  0
   20.0955  -21.8416  -12.2046 O   0  0  0  0  0  0  0  0  0  0  0  0
   19.6347  -19.6356  -12.3756 O   0  0  0  0  0  0  0  0  0  0  0  0
  1  2  1  0
  3  2  1  0
  4  3  1  0
  5  6  1  1
  5  4  1  0
  7  5  1  0
  7 13  1  0
  8  7  2  0
 10  9  1  6
 10 12  1  0
 11 10  1  0
 12 13  1  6
 12 14  1  0
 14 20  1  0
 15 14  2  0
 17 19  1  0
 17 16  1  6
 18 17  1  0
 19 21  1  0
 19 20  1  1
 21 22  2  0
 21 23  1  0
M  END
$$$$
