MVV.pdb
     RDKit          3D

 23 22  0  0  1  0  0  0  0  0999 V2000
   28.0284  -11.8176  -16.1856 C   0  0  0  0  0  0  0  0  0  0  0  0
   27.3242  -13.0335  -15.0419 S   0  0  0  0  0  0  0  0  0  0  0  0
   25.9965  -13.9896  -15.8077 C   0  0  0  0  0  0  0  0  0  0  0  0
   24.9241  -13.1270  -16.4089 C   0  0  0  0  0  0  0  0  0  0  0  0
   23.6308  -13.1792  -15.6174 C   0  0  2  0  0  0  0  0  0  0  0  0
   23.2527  -14.5359  -15.4672 N   0  0  0  0  0  0  0  0  0  0  0  0
   22.6183  -12.2420  -16.0712 C   0  0  0  0  0  0  0  0  0  0  0  0
   22.0431  -12.5068  -17.1803 O   0  0  0  0  0  0  0  0  0  0  0  0
   19.4190  -11.5770  -14.7654 C   0  0  0  0  0  0  0  0  0  0  0  0
   20.0813  -10.2376  -14.7256 C   0  0  1  0  0  0  0  0  0  0  0  0
   20.7449  -10.0914  -13.3736 C   0  0  0  0  0  0  0  0  0  0  0  0
   21.1671  -10.1721  -15.7803 C   0  0  2  0  0  0  0  0  0  0  0  0
   22.2495  -11.0958  -15.3806 N   0  0  0  0  0  0  0  0  0  0  0  0
   21.6994   -8.7934  -15.8093 C   0  0  0  0  0  0  0  0  0  0  0  0
   22.7017   -8.5092  -15.0433 O   0  0  0  0  0  0  0  0  0  0  0  0
   22.6691   -4.6223  -18.1436 C   0  0  0  0  0  0  0  0  0  0  0  0
   22.0361   -5.9765  -18.0280 C   0  0  1  0  0  0  0  0  0  0  0  0
   22.7655   -6.9759  -18.8626 C   0  0  0  0  0  0  0  0  0  0  0  0
   21.9268   -6.4114  -16.5709 C   0  0  2  0  0  0  0  0  0  0  0  0
   21.2378   -7.7199  -16.5965 N   0  0  0  0  0  0  0  0  0  0  0  0
   21.1320   -5.3904  -15.8615 C   0  0  0  0  0  0  0  0  0  0  0  0
   19.8743   -5.3749  -15.8572 O   0  0  0  0  0  0  0  0  0  0  0  0
   21.7915   -4.3990  -15.1641 O   0  0  0  0  0  0  0  0  0  0  0  0
  1  2  1  0
  3  2  1  0
  4  3  1  0
  5  6  1  6
  5  4  1  0
  7  5  1  0
  7 13  1  0
  8  7  2  0
 10  9  1  1
 10 12  1  0
 11 10  1  0
 12 13  1  1
 12 14  1  0
 14 20  1  0
 15 14  2  0
 17 19  1  0
 17 16  1  1
 18 17  1  0
 19 21  1  0
 19 20  1  6
 21 22  2  0
 21 23  1  0
M  END
$$$$
