MVV.pdb
     RDKit          3D

 23 22  0  0  1  0  0  0  0  0999 V2000
   20.4027  -22.6656  -12.7870 C   0  0  0  0  0  0  0  0  0  0  0  0
   20.5603  -20.9562  -13.3659 S   0  0  0  0  0  0  0  0  0  0  0  0
   21.6565  -19.9846  -12.3087 C   0  0  0  0  0  0  0  0  0  0  0  0
   22.6163  -20.8317  -11.5233 C   0  0  0  0  0  0  0  0  0  0  0  0
   24.0631  -20.4583  -11.7862 C   0  0  2  0  0  0  0  0  0  0  0  0
   24.3402  -20.6796  -13.1576 N   0  0  0  0  0  0  0  0  0  0  0  0
   25.0004  -20.9912  -10.8132 C   0  0  0  0  0  0  0  0  0  0  0  0
   24.7827  -22.1769  -10.3920 O   0  0  0  0  0  0  0  0  0  0  0  0
   29.5847  -21.1908   -9.2818 C   0  0  0  0  0  0  0  0  0  0  0  0
   28.4862  -20.6540  -10.1416 C   0  0  1  0  0  0  0  0  0  0  0  0
   28.4761  -21.4510  -11.4279 C   0  0  0  0  0  0  0  0  0  0  0  0
   27.1508  -20.8671   -9.4582 C   0  0  2  0  0  0  0  0  0  0  0  0
   26.0976  -20.2959  -10.3237 N   0  0  0  0  0  0  0  0  0  0  0  0
   27.1671  -20.1339   -8.1749 C   0  0  0  0  0  0  0  0  0  0  0  0
   26.8677  -18.8759   -8.1861 O   0  0  0  0  0  0  0  0  0  0  0  0
   28.9794  -21.4547   -4.5959 C   0  0  0  0  0  0  0  0  0  0  0  0
   27.6831  -20.7053   -4.5187 C   0  0  1  0  0  0  0  0  0  0  0  0
   27.5646  -19.9828   -3.2182 C   0  0  0  0  0  0  0  0  0  0  0  0
   27.5128  -19.7741   -5.7138 C   0  0  2  0  0  0  0  0  0  0  0  0
   27.4733  -20.6542   -6.9018 N   0  0  0  0  0  0  0  0  0  0  0  0
   28.6794  -18.8711   -5.7425 C   0  0  0  0  0  0  0  0  0  0  0  0
   29.7249  -19.1148   -6.3981 O   0  0  0  0  0  0  0  0  0  0  0  0
   28.6313  -17.6975   -5.0184 O   0  0  0  0  0  0  0  0  0  0  0  0
  1  2  1  0
  3  2  1  0
  4  3  1  0
  5  6  1  6
  5  4  1  0
  7  5  1  0
  7 13  1  0
  8  7  2  0
 10  9  1  1
 10 12  1  0
 11 10  1  0
 12 13  1  6
 12 14  1  0
 14 20  1  0
 15 14  2  0
 17 19  1  0
 17 16  1  6
 18 17  1  0
 19 21  1  0
 19 20  1  6
 21 22  2  0
 21 23  1  0
M  END
$$$$
