MVV.pdb
     RDKit          3D

 23 22  0  0  1  0  0  0  0  0999 V2000
   27.2754  -15.9903  -14.9931 C   0  0  0  0  0  0  0  0  0  0  0  0
   26.5704  -17.6579  -14.9282 S   0  0  0  0  0  0  0  0  0  0  0  0
   24.8141  -17.6644  -15.3507 C   0  0  0  0  0  0  0  0  0  0  0  0
   24.3291  -16.3383  -15.8625 C   0  0  0  0  0  0  0  0  0  0  0  0
   22.8642  -16.3728  -16.2557 C   0  0  2  0  0  0  0  0  0  0  0  0
   22.5929  -17.6241  -16.8615 N   0  0  0  0  0  0  0  0  0  0  0  0
   22.4044  -15.1771  -16.9401 C   0  0  0  0  0  0  0  0  0  0  0  0
   22.2854  -15.2490  -18.2096 O   0  0  0  0  0  0  0  0  0  0  0  0
   19.5014  -13.3169  -16.0974 C   0  0  0  0  0  0  0  0  0  0  0  0
   20.2354  -12.7793  -17.2833 C   0  0  1  0  0  0  0  0  0  0  0  0
   19.7627  -11.3604  -17.5139 C   0  0  0  0  0  0  0  0  0  0  0  0
   21.7201  -12.7266  -16.9855 C   0  0  2  0  0  0  0  0  0  0  0  0
   22.0948  -13.9831  -16.3034 N   0  0  0  0  0  0  0  0  0  0  0  0
   21.9671  -11.5921  -16.0708 C   0  0  0  0  0  0  0  0  0  0  0  0
   21.5752  -11.7005  -14.8432 O   0  0  0  0  0  0  0  0  0  0  0  0
   25.2874  -10.1907  -15.3691 C   0  0  0  0  0  0  0  0  0  0  0  0
   24.3805   -9.0095  -15.5433 C   0  0  1  0  0  0  0  0  0  0  0  0
   24.5953   -8.3673  -16.8732 C   0  0  0  0  0  0  0  0  0  0  0  0
   22.9230   -9.3956  -15.3175 C   0  0  2  0  0  0  0  0  0  0  0  0
   22.6007  -10.3722  -16.3804 N   0  0  0  0  0  0  0  0  0  0  0  0
   22.1143   -8.1676  -15.4417 C   0  0  0  0  0  0  0  0  0  0  0  0
   21.4806   -7.8610  -16.4841 O   0  0  0  0  0  0  0  0  0  0  0  0
   22.0419   -7.3062  -14.3662 O   0  0  0  0  0  0  0  0  0  0  0  0
  1  2  1  0
  3  2  1  0
  4  3  1  0
  5  6  1  6
  5  4  1  0
  7  5  1  0
  7 13  1  0
  8  7  2  0
 10  9  1  1
 10 12  1  0
 11 10  1  0
 12 13  1  1
 12 14  1  0
 14 20  1  0
 15 14  2  0
 17 19  1  0
 17 16  1  6
 18 17  1  0
 19 21  1  0
 19 20  1  6
 21 22  2  0
 21 23  1  0
M  END
$$$$
