MVV.pdb
     RDKit          3D

 23 22  0  0  1  0  0  0  0  0999 V2000
   32.5602  -22.1775  -10.5528 C   0  0  0  0  0  0  0  0  0  0  0  0
   32.4115  -22.5867  -12.3113 S   0  0  0  0  0  0  0  0  0  0  0  0
   30.7137  -22.4122  -12.9031 C   0  0  0  0  0  0  0  0  0  0  0  0
   30.0675  -21.1304  -12.4614 C   0  0  0  0  0  0  0  0  0  0  0  0
   28.6260  -21.0227  -12.9223 C   0  0  2  0  0  0  0  0  0  0  0  0
   28.6201  -20.6763  -14.2957 N   0  0  0  0  0  0  0  0  0  0  0  0
   27.7723  -20.2591  -12.0293 C   0  0  0  0  0  0  0  0  0  0  0  0
   27.6555  -19.0105  -12.2707 O   0  0  0  0  0  0  0  0  0  0  0  0
   24.4150  -19.8351  -11.4718 C   0  0  0  0  0  0  0  0  0  0  0  0
   24.8613  -20.3221  -10.1310 C   0  0  1  0  0  0  0  0  0  0  0  0
   24.6901  -21.8254  -10.1060 C   0  0  0  0  0  0  0  0  0  0  0  0
   26.3349  -20.0240   -9.9427 C   0  0  2  0  0  0  0  0  0  0  0  0
   27.0908  -20.8003  -10.9479 N   0  0  0  0  0  0  0  0  0  0  0  0
   26.7282  -20.4769   -8.5918 C   0  0  0  0  0  0  0  0  0  0  0  0
   27.0013  -21.7295   -8.4226 O   0  0  0  0  0  0  0  0  0  0  0  0
   28.3779  -19.6530   -4.0129 C   0  0  0  0  0  0  0  0  0  0  0  0
   28.0278  -19.2135   -5.4030 C   0  0  1  0  0  0  0  0  0  0  0  0
   29.2495  -18.7930   -6.1499 C   0  0  0  0  0  0  0  0  0  0  0  0
   27.2429  -20.2923   -6.1409 C   0  0  2  0  0  0  0  0  0  0  0  0
   26.8506  -19.6864   -7.4318 N   0  0  0  0  0  0  0  0  0  0  0  0
   26.0664  -20.6277   -5.3159 C   0  0  0  0  0  0  0  0  0  0  0  0
   26.1382  -21.2872   -4.2472 O   0  0  0  0  0  0  0  0  0  0  0  0
   24.8206  -20.2007   -5.7277 O   0  0  0  0  0  0  0  0  0  0  0  0
  1  2  1  0
  3  2  1  0
  4  3  1  0
  5  6  1  6
  5  4  1  0
  7  5  1  0
  7 13  1  0
  8  7  2  0
 10  9  1  6
 10 12  1  0
 11 10  1  0
 12 13  1  6
 12 14  1  0
 14 20  1  0
 15 14  2  0
 17 19  1  0
 17 16  1  1
 18 17  1  0
 19 21  1  0
 19 20  1  6
 21 22  2  0
 21 23  1  0
M  END
$$$$
