MVV.pdb
     RDKit          3D

 23 22  0  0  1  0  0  0  0  0999 V2000
   21.6727  -18.7140  -18.6563 C   0  0  0  0  0  0  0  0  0  0  0  0
   21.9502  -17.2170  -17.6744 S   0  0  0  0  0  0  0  0  0  0  0  0
   23.4482  -17.3362  -16.6719 C   0  0  0  0  0  0  0  0  0  0  0  0
   23.5210  -18.6072  -15.8750 C   0  0  0  0  0  0  0  0  0  0  0  0
   24.7930  -19.3874  -16.1490 C   0  0  2  0  0  0  0  0  0  0  0  0
   24.6861  -19.9816  -17.4304 N   0  0  0  0  0  0  0  0  0  0  0  0
   25.2217  -20.2306  -15.0470 C   0  0  0  0  0  0  0  0  0  0  0  0
   24.5680  -21.3116  -14.8598 O   0  0  0  0  0  0  0  0  0  0  0  0
   28.5258  -21.6152  -14.5388 C   0  0  0  0  0  0  0  0  0  0  0  0
   28.2286  -20.9832  -13.2172 C   0  0  1  0  0  0  0  0  0  0  0  0
   28.8871  -19.6208  -13.1992 C   0  0  0  0  0  0  0  0  0  0  0  0
   26.7348  -20.7738  -13.0744 C   0  0  2  0  0  0  0  0  0  0  0  0
   26.2811  -19.9318  -14.2013 N   0  0  0  0  0  0  0  0  0  0  0  0
   26.4891  -20.0529  -11.8076 C   0  0  0  0  0  0  0  0  0  0  0  0
   26.6213  -18.7666  -11.8010 O   0  0  0  0  0  0  0  0  0  0  0  0
   23.5797  -20.0630   -9.4015 C   0  0  0  0  0  0  0  0  0  0  0  0
   24.8243  -20.2495   -8.5865 C   0  0  1  0  0  0  0  0  0  0  0  0
   24.9496  -21.6635   -8.1257 C   0  0  0  0  0  0  0  0  0  0  0  0
   26.0580  -19.7795   -9.3489 C   0  0  2  0  0  0  0  0  0  0  0  0
   26.1123  -20.6118  -10.5703 N   0  0  0  0  0  0  0  0  0  0  0  0
   27.2295  -20.0074   -8.4811 C   0  0  0  0  0  0  0  0  0  0  0  0
   27.5239  -19.2645   -7.5098 O   0  0  0  0  0  0  0  0  0  0  0  0
   28.0491  -21.0873   -8.7386 O   0  0  0  0  0  0  0  0  0  0  0  0
  1  2  1  0
  3  2  1  0
  4  3  1  0
  5  6  1  6
  5  4  1  0
  7  5  1  0
  7 13  1  0
  8  7  2  0
 10  9  1  6
 10 12  1  0
 11 10  1  0
 12 13  1  6
 12 14  1  0
 14 20  1  0
 15 14  2  0
 17 19  1  0
 17 16  1  6
 18 17  1  0
 19 21  1  0
 19 20  1  6
 21 22  2  0
 21 23  1  0
M  END
$$$$
