MVV.pdb
     RDKit          3D

 23 22  0  0  1  0  0  0  0  0999 V2000
   19.8619  -18.8193  -14.5272 C   0  0  0  0  0  0  0  0  0  0  0  0
   20.7055  -17.8458  -15.8011 S   0  0  0  0  0  0  0  0  0  0  0  0
   22.2636  -18.6058  -16.3090 C   0  0  0  0  0  0  0  0  0  0  0  0
   22.7294  -19.6764  -15.3643 C   0  0  0  0  0  0  0  0  0  0  0  0
   24.0414  -20.3003  -15.8015 C   0  0  2  0  0  0  0  0  0  0  0  0
   23.8145  -21.0296  -16.9943 N   0  0  0  0  0  0  0  0  0  0  0  0
   24.7697  -20.9620  -14.7333 C   0  0  0  0  0  0  0  0  0  0  0  0
   24.3911  -22.1411  -14.4215 O   0  0  0  0  0  0  0  0  0  0  0  0
   28.3255  -21.6656  -14.5067 C   0  0  0  0  0  0  0  0  0  0  0  0
   28.0384  -20.9616  -13.2198 C   0  0  1  0  0  0  0  0  0  0  0  0
   28.4066  -19.5048  -13.3990 C   0  0  0  0  0  0  0  0  0  0  0  0
   26.5545  -21.0272  -12.9206 C   0  0  2  0  0  0  0  0  0  0  0  0
   25.8327  -20.3943  -14.0445 N   0  0  0  0  0  0  0  0  0  0  0  0
   26.2976  -20.2523  -11.6884 C   0  0  0  0  0  0  0  0  0  0  0  0
   26.2293  -18.9642  -11.7797 O   0  0  0  0  0  0  0  0  0  0  0  0
   23.5218  -20.0972   -9.3860 C   0  0  0  0  0  0  0  0  0  0  0  0
   24.7224  -20.2590   -8.5025 C   0  0  1  0  0  0  0  0  0  0  0  0
   24.7998  -21.6480   -7.9620 C   0  0  0  0  0  0  0  0  0  0  0  0
   25.9995  -19.8499   -9.2277 C   0  0  2  0  0  0  0  0  0  0  0  0
   26.1076  -20.7606  -10.3881 N   0  0  0  0  0  0  0  0  0  0  0  0
   27.1215  -20.0304   -8.2865 C   0  0  0  0  0  0  0  0  0  0  0  0
   27.9383  -20.9840   -8.3610 O   0  0  0  0  0  0  0  0  0  0  0  0
   27.2929  -19.1124   -7.2706 O   0  0  0  0  0  0  0  0  0  0  0  0
  1  2  1  0
  3  2  1  0
  4  3  1  0
  5  6  1  6
  5  4  1  0
  7  5  1  0
  7 13  1  0
  8  7  2  0
 10  9  1  6
 10 12  1  0
 11 10  1  0
 12 13  1  6
 12 14  1  0
 14 20  1  0
 15 14  2  0
 17 19  1  0
 17 16  1  6
 18 17  1  0
 19 21  1  0
 19 20  1  6
 21 22  2  0
 21 23  1  0
M  END
$$$$
