DCR.pdb
     RDKit          3D

 26 25  0  0  1  0  0  0  0  0999 V2000
    6.5223  -15.0569   19.9282 N   0  0  0  0  0  0  0  0  0  0  0  0
    7.9471  -14.8986   19.5489 C   0  0  1  0  0  0  0  0  0  0  0  0
    8.0309  -13.6853   18.6536 C   0  0  0  0  0  0  0  0  0  0  0  0
    7.6286  -13.9980   17.2764 C   0  0  0  0  0  0  0  0  0  0  0  0
    6.9216  -14.9842   17.0243 O   0  0  0  0  0  0  0  0  0  0  0  0
    8.6155  -14.5527   20.8427 C   0  0  0  0  0  0  0  0  0  0  0  0
    9.8219  -14.2731   20.8326 O   0  0  0  0  0  0  0  0  0  0  0  0
    8.0431  -13.1756   16.2112 O   0  0  0  0  0  0  0  0  0  0  0  0
    7.9721  -14.5187   22.0976 N   0  0  0  0  0  0  0  0  0  0  0  0
    8.6552  -14.4362   23.3614 C   0  0  1  0  0  0  0  0  0  0  0  0
    7.8659  -13.8492   24.4637 C   0  0  0  0  0  0  0  0  0  0  0  0
    6.2822  -14.7529   24.6145 S   0  0  0  0  0  0  0  0  0  0  0  0
    9.1548  -15.7837   23.7938 C   0  0  0  0  0  0  0  0  0  0  0  0
    8.4652  -16.8375   23.6239 O   0  0  0  0  0  0  0  0  0  0  0  0
   14.4248  -21.0187   23.8820 N   0  0  0  0  0  0  0  0  0  0  0  0
   14.4567  -20.7048   22.5073 C   0  0  0  0  0  0  0  0  0  0  0  0
   14.6104  -21.6396   21.6137 N   0  0  0  0  0  0  0  0  0  0  0  0
   14.3204  -19.3536   22.0751 N   0  0  0  0  0  0  0  0  0  0  0  0
   14.0780  -18.3224   23.0446 C   0  0  0  0  0  0  0  0  0  0  0  0
   12.6032  -18.4568   23.4740 C   0  0  0  0  0  0  0  0  0  0  0  0
   12.3328  -17.3222   24.3958 C   0  0  0  0  0  0  0  0  0  0  0  0
   10.9112  -17.2053   24.8850 C   0  0  2  0  0  0  0  0  0  0  0  0
   10.4277  -15.8910   24.4068 N   0  0  0  0  0  0  0  0  0  0  0  0
   10.8989  -17.2434   26.3527 C   0  0  0  0  0  0  0  0  0  0  0  0
   11.5955  -16.2717   27.0974 O   0  0  0  0  0  0  0  0  0  0  0  0
   10.2877  -18.1147   27.0111 O   0  0  0  0  0  0  0  0  0  0  0  0
  2  3  1  0
  2  1  1  1
  3  4  1  0
  4  8  1  0
  4  5  2  0
  6  7  2  0
  6  2  1  0
  9  6  1  0
 10  9  1  0
 11 12  1  0
 10 11  1  1
 13 23  1  0
 13 10  1  0
 14 13  2  0
 16 15  1  0
 17 16  2  0
 18 16  1  0
 19 18  1  0
 20 19  1  0
 21 20  1  0
 22 21  1  1
 22 23  1  0
 24 22  1  0
 25 24  1  0
 26 24  2  0
M  END
$$$$
