DCR.pdb
     RDKit          3D

 26 25  0  0  1  0  0  0  0  0999 V2000
    8.1187  -14.1927   20.3601 N   0  0  0  0  0  0  0  0  0  0  0  0
    7.2102  -14.7732   21.3783 C   0  0  1  0  0  0  0  0  0  0  0  0
    7.4784  -16.2590   21.4098 C   0  0  0  0  0  0  0  0  0  0  0  0
    6.8648  -16.9458   20.2659 C   0  0  0  0  0  0  0  0  0  0  0  0
    7.0265  -16.5320   19.1090 O   0  0  0  0  0  0  0  0  0  0  0  0
    7.7140  -14.1957   22.6640 C   0  0  0  0  0  0  0  0  0  0  0  0
    8.9342  -14.1905   22.8758 O   0  0  0  0  0  0  0  0  0  0  0  0
    6.0764  -18.0951   20.4669 O   0  0  0  0  0  0  0  0  0  0  0  0
    6.8975  -13.6465   23.6747 N   0  0  0  0  0  0  0  0  0  0  0  0
    7.3443  -13.3449   25.0089 C   0  0  1  0  0  0  0  0  0  0  0  0
    6.3625  -12.6337   25.8533 C   0  0  0  0  0  0  0  0  0  0  0  0
    7.0897  -12.3486   27.5078 S   0  0  0  0  0  0  0  0  0  0  0  0
    7.7817  -14.5887   25.7257 C   0  0  0  0  0  0  0  0  0  0  0  0
    7.0124  -15.5923   25.8516 O   0  0  0  0  0  0  0  0  0  0  0  0
   13.9879  -19.9019   24.3897 N   0  0  0  0  0  0  0  0  0  0  0  0
   13.5338  -20.3448   25.6495 C   0  0  0  0  0  0  0  0  0  0  0  0
   13.9028  -21.5009   26.1222 N   0  0  0  0  0  0  0  0  0  0  0  0
   12.6606  -19.5293   26.4263 N   0  0  0  0  0  0  0  0  0  0  0  0
   12.1464  -18.3111   25.8662 C   0  0  0  0  0  0  0  0  0  0  0  0
   11.1484  -17.7389   26.8929 C   0  0  0  0  0  0  0  0  0  0  0  0
   10.5609  -16.5236   26.2699 C   0  0  0  0  0  0  0  0  0  0  0  0
    9.4938  -15.8288   27.0777 C   0  0  2  0  0  0  0  0  0  0  0  0
    9.0851  -14.6529   26.2778 N   0  0  0  0  0  0  0  0  0  0  0  0
   10.0623  -15.3937   28.3596 C   0  0  0  0  0  0  0  0  0  0  0  0
   10.2161  -14.0226   28.6429 O   0  0  0  0  0  0  0  0  0  0  0  0
   10.4334  -16.1900   29.2509 O   0  0  0  0  0  0  0  0  0  0  0  0
  2  3  1  0
  2  1  1  6
  3  4  1  0
  4  8  1  0
  4  5  2  0
  6  7  2  0
  6  2  1  0
  9  6  1  0
 10  9  1  0
 11 12  1  0
 10 11  1  1
 13 23  1  0
 13 10  1  0
 14 13  2  0
 16 15  1  0
 17 16  2  0
 18 16  1  0
 19 18  1  0
 20 19  1  0
 21 20  1  0
 22 21  1  6
 22 23  1  0
 24 22  1  0
 25 24  1  0
 26 24  2  0
M  END
$$$$
