DCR.pdb
     RDKit          3D

 26 25  0  0  1  0  0  0  0  0999 V2000
    7.8584  -15.9167   15.5053 N   0  0  0  0  0  0  0  0  0  0  0  0
    9.3306  -15.8648   15.6750 C   0  0  1  0  0  0  0  0  0  0  0  0
    9.8738  -15.0270   14.5421 C   0  0  0  0  0  0  0  0  0  0  0  0
    9.6996  -15.6909   13.2439 C   0  0  0  0  0  0  0  0  0  0  0  0
    9.3103  -16.8653   13.1727 O   0  0  0  0  0  0  0  0  0  0  0  0
    9.5080  -15.0842   16.9397 C   0  0  0  0  0  0  0  0  0  0  0  0
   10.6458  -14.7077   17.2514 O   0  0  0  0  0  0  0  0  0  0  0  0
    9.9742  -14.9980   12.0491 O   0  0  0  0  0  0  0  0  0  0  0  0
    8.4655  -14.7356   17.8238 N   0  0  0  0  0  0  0  0  0  0  0  0
    8.6548  -14.3686   19.2023 C   0  0  1  0  0  0  0  0  0  0  0  0
    7.4313  -13.9401   19.9108 C   0  0  0  0  0  0  0  0  0  0  0  0
    6.6252  -12.6014   18.9591 S   0  0  0  0  0  0  0  0  0  0  0  0
    9.2906  -15.4864   19.9760 C   0  0  0  0  0  0  0  0  0  0  0  0
    9.5391  -16.6119   19.4408 O   0  0  0  0  0  0  0  0  0  0  0  0
   16.6265  -13.2890   19.8518 N   0  0  0  0  0  0  0  0  0  0  0  0
   16.7956  -14.4848   20.5804 C   0  0  0  0  0  0  0  0  0  0  0  0
   17.9809  -14.9936   20.7602 N   0  0  0  0  0  0  0  0  0  0  0  0
   15.6662  -15.1561   21.1326 N   0  0  0  0  0  0  0  0  0  0  0  0
   14.3460  -14.6645   20.8541 C   0  0  0  0  0  0  0  0  0  0  0  0
   13.3663  -15.5578   21.6413 C   0  0  0  0  0  0  0  0  0  0  0  0
   12.0001  -15.0909   21.2865 C   0  0  0  0  0  0  0  0  0  0  0  0
   10.8653  -15.8797   21.8897 C   0  0  2  0  0  0  0  0  0  0  0  0
    9.6261  -15.2881   21.3383 N   0  0  0  0  0  0  0  0  0  0  0  0
   10.8907  -15.7265   23.3498 C   0  0  0  0  0  0  0  0  0  0  0  0
   11.6947  -16.5693   24.1416 O   0  0  0  0  0  0  0  0  0  0  0  0
   10.2201  -14.8643   23.9607 O   0  0  0  0  0  0  0  0  0  0  0  0
  2  3  1  0
  2  1  1  6
  3  4  1  0
  4  8  1  0
  4  5  2  0
  6  7  2  0
  6  2  1  0
  9  6  1  0
 10  9  1  0
 11 12  1  0
 10 11  1  1
 13 23  1  0
 13 10  1  0
 14 13  2  0
 16 15  1  0
 17 16  2  0
 18 16  1  0
 19 18  1  0
 20 19  1  0
 21 20  1  0
 22 21  1  6
 22 23  1  0
 24 22  1  0
 25 24  1  0
 26 24  2  0
M  END
$$$$
