DCR.pdb
     RDKit          3D

 26 25  0  0  1  0  0  0  0  0999 V2000
    6.8745  -15.8592   20.1802 N   0  0  0  0  0  0  0  0  0  0  0  0
    8.3528  -15.8898   20.0669 C   0  0  1  0  0  0  0  0  0  0  0  0
    8.7195  -15.0379   18.8751 C   0  0  0  0  0  0  0  0  0  0  0  0
    8.3208  -15.6713   17.6117 C   0  0  0  0  0  0  0  0  0  0  0  0
    8.8922  -15.3930   16.5478 O   0  0  0  0  0  0  0  0  0  0  0  0
    8.8112  -15.1690   21.2959 C   0  0  0  0  0  0  0  0  0  0  0  0
    9.9513  -14.6859   21.3114 O   0  0  0  0  0  0  0  0  0  0  0  0
    7.2740  -16.6130   17.5885 O   0  0  0  0  0  0  0  0  0  0  0  0
    8.0365  -14.9915   22.4614 N   0  0  0  0  0  0  0  0  0  0  0  0
    8.5802  -14.7648   23.7743 C   0  0  1  0  0  0  0  0  0  0  0  0
    7.8340  -13.7959   24.6033 C   0  0  0  0  0  0  0  0  0  0  0  0
    6.1239  -14.4016   24.8403 S   0  0  0  0  0  0  0  0  0  0  0  0
    8.7055  -16.0516   24.5361 C   0  0  0  0  0  0  0  0  0  0  0  0
    8.0152  -17.0754   24.2356 O   0  0  0  0  0  0  0  0  0  0  0  0
   15.5155  -17.7338   24.7221 N   0  0  0  0  0  0  0  0  0  0  0  0
   15.2160  -16.7257   23.7821 C   0  0  0  0  0  0  0  0  0  0  0  0
   16.0541  -15.7548   23.5565 N   0  0  0  0  0  0  0  0  0  0  0  0
   13.9861  -16.7559   23.0628 N   0  0  0  0  0  0  0  0  0  0  0  0
   12.9638  -17.6875   23.4494 C   0  0  0  0  0  0  0  0  0  0  0  0
   12.2639  -17.0881   24.6857 C   0  0  0  0  0  0  0  0  0  0  0  0
   11.0432  -17.9063   24.9107 C   0  0  0  0  0  0  0  0  0  0  0  0
   10.1513  -17.4491   26.0374 C   0  0  2  0  0  0  0  0  0  0  0  0
    9.6158  -16.1346   25.6188 N   0  0  0  0  0  0  0  0  0  0  0  0
   10.9514  -17.3015   27.2596 C   0  0  0  0  0  0  0  0  0  0  0  0
   11.1751  -16.0271   27.8161 O   0  0  0  0  0  0  0  0  0  0  0  0
   11.4673  -18.2691   27.8627 O   0  0  0  0  0  0  0  0  0  0  0  0
  2  3  1  0
  2  1  1  1
  3  4  1  0
  4  8  1  0
  4  5  2  0
  6  7  2  0
  6  2  1  0
  9  6  1  0
 10  9  1  0
 11 12  1  0
 10 11  1  1
 13 23  1  0
 13 10  1  0
 14 13  2  0
 16 15  1  0
 17 16  2  0
 18 16  1  0
 19 18  1  0
 20 19  1  0
 21 20  1  0
 22 21  1  6
 22 23  1  0
 24 22  1  0
 25 24  1  0
 26 24  2  0
M  END
$$$$
