DCR.pdb
     RDKit          3D

 26 25  0  0  1  0  0  0  0  0999 V2000
    8.2063  -13.5855   19.9206 N   0  0  0  0  0  0  0  0  0  0  0  0
    7.3141  -14.2683   20.8884 C   0  0  1  0  0  0  0  0  0  0  0  0
    7.5071  -15.7531   20.6915 C   0  0  0  0  0  0  0  0  0  0  0  0
    6.9958  -16.1989   19.3891 C   0  0  0  0  0  0  0  0  0  0  0  0
    6.3189  -15.4453   18.6752 O   0  0  0  0  0  0  0  0  0  0  0  0
    7.9017  -13.9085   22.2173 C   0  0  0  0  0  0  0  0  0  0  0  0
    9.0972  -14.1557   22.4254 O   0  0  0  0  0  0  0  0  0  0  0  0
    7.2687  -17.5007   18.9268 O   0  0  0  0  0  0  0  0  0  0  0  0
    7.1918  -13.2996   23.2733 N   0  0  0  0  0  0  0  0  0  0  0  0
    7.6387  -13.2626   24.6407 C   0  0  1  0  0  0  0  0  0  0  0  0
    6.7591  -12.5218   25.5680 C   0  0  0  0  0  0  0  0  0  0  0  0
    7.5607  -12.4298   27.2101 S   0  0  0  0  0  0  0  0  0  0  0  0
    7.8447  -14.6483   25.1788 C   0  0  0  0  0  0  0  0  0  0  0  0
    6.9082  -15.5073   25.1874 O   0  0  0  0  0  0  0  0  0  0  0  0
   14.4875  -19.8368   25.3981 N   0  0  0  0  0  0  0  0  0  0  0  0
   13.4530  -20.6295   24.8586 C   0  0  0  0  0  0  0  0  0  0  0  0
   13.7230  -21.7271   24.2117 N   0  0  0  0  0  0  0  0  0  0  0  0
   12.0916  -20.2384   25.0149 N   0  0  0  0  0  0  0  0  0  0  0  0
   11.6894  -18.9124   24.6381 C   0  0  0  0  0  0  0  0  0  0  0  0
   10.7511  -18.4019   25.7501 C   0  0  0  0  0  0  0  0  0  0  0  0
   10.3194  -17.0403   25.3383 C   0  0  0  0  0  0  0  0  0  0  0  0
    9.3237  -16.3691   26.2504 C   0  0  2  0  0  0  0  0  0  0  0  0
    9.1139  -15.0154   25.6908 N   0  0  0  0  0  0  0  0  0  0  0  0
    9.8911  -16.2739   27.6012 C   0  0  0  0  0  0  0  0  0  0  0  0
   10.4719  -15.0709   28.0478 O   0  0  0  0  0  0  0  0  0  0  0  0
    9.8932  -17.2264   28.4130 O   0  0  0  0  0  0  0  0  0  0  0  0
  2  3  1  0
  2  1  1  6
  3  4  1  0
  4  8  1  0
  4  5  2  0
  6  7  2  0
  6  2  1  0
  9  6  1  0
 10  9  1  0
 11 12  1  0
 10 11  1  1
 13 23  1  0
 13 10  1  0
 14 13  2  0
 16 15  1  0
 17 16  2  0
 18 16  1  0
 19 18  1  0
 20 19  1  0
 21 20  1  0
 22 21  1  6
 22 23  1  0
 24 22  1  0
 25 24  1  0
 26 24  2  0
M  END
$$$$
