DCR.pdb
     RDKit          3D

 26 25  0  0  1  0  0  0  0  0999 V2000
    6.4457  -14.1505   21.3258 N   0  0  0  0  0  0  0  0  0  0  0  0
    7.9078  -14.3869   21.2536 C   0  0  1  0  0  0  0  0  0  0  0  0
    8.4366  -13.5269   20.1305 C   0  0  0  0  0  0  0  0  0  0  0  0
    8.0349  -14.0435   18.8159 C   0  0  0  0  0  0  0  0  0  0  0  0
    7.1983  -14.9520   18.7135 O   0  0  0  0  0  0  0  0  0  0  0  0
    8.4170  -13.8144   22.5394 C   0  0  0  0  0  0  0  0  0  0  0  0
    9.5999  -13.4534   22.6024 O   0  0  0  0  0  0  0  0  0  0  0  0
    8.5985  -13.5103   17.6407 O   0  0  0  0  0  0  0  0  0  0  0  0
    7.6455  -13.6493   23.7088 N   0  0  0  0  0  0  0  0  0  0  0  0
    8.1729  -13.6999   25.0467 C   0  0  1  0  0  0  0  0  0  0  0  0
    7.5114  -12.8021   26.0158 C   0  0  0  0  0  0  0  0  0  0  0  0
    5.7112  -12.7895   25.6894 S   0  0  0  0  0  0  0  0  0  0  0  0
    8.1382  -15.0992   25.5879 C   0  0  0  0  0  0  0  0  0  0  0  0
    7.3262  -15.9682   25.1403 O   0  0  0  0  0  0  0  0  0  0  0  0
   12.5765  -20.3772   22.1154 N   0  0  0  0  0  0  0  0  0  0  0  0
   12.8175  -20.6951   23.4683 C   0  0  0  0  0  0  0  0  0  0  0  0
   13.1239  -21.9102   23.8229 N   0  0  0  0  0  0  0  0  0  0  0  0
   12.7285  -19.6860   24.4707 N   0  0  0  0  0  0  0  0  0  0  0  0
   11.8094  -18.5965   24.2972 C   0  0  0  0  0  0  0  0  0  0  0  0
   10.9609  -18.5246   25.5827 C   0  0  0  0  0  0  0  0  0  0  0  0
   10.3346  -17.1764   25.5935 C   0  0  0  0  0  0  0  0  0  0  0  0
    9.4473  -16.8800   26.7762 C   0  0  2  0  0  0  0  0  0  0  0  0
    9.0318  -15.4679   26.6239 N   0  0  0  0  0  0  0  0  0  0  0  0
   10.2178  -17.0480   28.0146 C   0  0  0  0  0  0  0  0  0  0  0  0
   10.4767  -18.3351   28.5247 O   0  0  0  0  0  0  0  0  0  0  0  0
   10.6774  -16.0874   28.6721 O   0  0  0  0  0  0  0  0  0  0  0  0
  2  3  1  0
  2  1  1  1
  3  4  1  0
  4  8  1  0
  4  5  2  0
  6  7  2  0
  6  2  1  0
  9  6  1  0
 10  9  1  0
 11 12  1  0
 10 11  1  1
 13 23  1  0
 13 10  1  0
 14 13  2  0
 16 15  1  0
 17 16  2  0
 18 16  1  0
 19 18  1  0
 20 19  1  0
 21 20  1  0
 22 21  1  6
 22 23  1  0
 24 22  1  0
 25 24  1  0
 26 24  2  0
M  END
$$$$
