DCR.pdb
     RDKit          3D

 26 25  0  0  1  0  0  0  0  0999 V2000
    8.0277  -12.4979   17.4867 N   0  0  0  0  0  0  0  0  0  0  0  0
    7.9294  -13.9107   17.9262 C   0  0  1  0  0  0  0  0  0  0  0  0
    8.9932  -14.6783   17.1779 C   0  0  0  0  0  0  0  0  0  0  0  0
    8.5930  -14.9490   15.7911 C   0  0  0  0  0  0  0  0  0  0  0  0
    7.5437  -14.4826   15.3251 O   0  0  0  0  0  0  0  0  0  0  0  0
    8.3386  -13.8571   19.3649 C   0  0  0  0  0  0  0  0  0  0  0  0
    9.4507  -13.3925   19.6499 O   0  0  0  0  0  0  0  0  0  0  0  0
    9.4020  -15.7494   14.9618 O   0  0  0  0  0  0  0  0  0  0  0  0
    7.5467  -14.3013   20.4445 N   0  0  0  0  0  0  0  0  0  0  0  0
    8.0018  -14.3888   21.8069 C   0  0  1  0  0  0  0  0  0  0  0  0
    6.9311  -14.4760   22.8211 C   0  0  0  0  0  0  0  0  0  0  0  0
    7.6819  -14.4470   24.4894 S   0  0  0  0  0  0  0  0  0  0  0  0
    8.9331  -15.5510   21.9912 C   0  0  0  0  0  0  0  0  0  0  0  0
    8.6910  -16.6885   21.4789 O   0  0  0  0  0  0  0  0  0  0  0  0
   15.7132  -14.0152   18.9619 N   0  0  0  0  0  0  0  0  0  0  0  0
   15.0069  -15.0809   18.3660 C   0  0  0  0  0  0  0  0  0  0  0  0
   15.1975  -15.3898   17.1153 N   0  0  0  0  0  0  0  0  0  0  0  0
   14.0704  -15.8379   19.1282 N   0  0  0  0  0  0  0  0  0  0  0  0
   13.8084  -15.4715   20.4918 C   0  0  0  0  0  0  0  0  0  0  0  0
   12.7693  -16.4767   21.0280 C   0  0  0  0  0  0  0  0  0  0  0  0
   12.3871  -15.9977   22.3825 C   0  0  0  0  0  0  0  0  0  0  0  0
   11.0666  -16.5058   22.9042 C   0  0  2  0  0  0  0  0  0  0  0  0
   10.1153  -15.3823   22.7540 N   0  0  0  0  0  0  0  0  0  0  0  0
   11.2092  -16.8595   24.3220 C   0  0  0  0  0  0  0  0  0  0  0  0
   11.9886  -17.9681   24.7058 O   0  0  0  0  0  0  0  0  0  0  0  0
   10.6637  -16.2172   25.2474 O   0  0  0  0  0  0  0  0  0  0  0  0
  2  3  1  0
  2  1  1  6
  3  4  1  0
  4  8  1  0
  4  5  2  0
  6  7  2  0
  6  2  1  0
  9  6  1  0
 10  9  1  0
 11 12  1  0
 10 11  1  1
 13 23  1  0
 13 10  1  0
 14 13  2  0
 16 15  1  0
 17 16  2  0
 18 16  1  0
 19 18  1  0
 20 19  1  0
 21 20  1  0
 22 21  1  1
 22 23  1  0
 24 22  1  0
 25 24  1  0
 26 24  2  0
M  END
$$$$
