DCR.pdb
     RDKit          3D

 26 25  0  0  1  0  0  0  0  0999 V2000
    8.1367  -13.9007   20.9236 N   0  0  0  0  0  0  0  0  0  0  0  0
    7.3415  -14.6590   21.9194 C   0  0  1  0  0  0  0  0  0  0  0  0
    7.7005  -16.1161   21.7501 C   0  0  0  0  0  0  0  0  0  0  0  0
    7.0925  -16.6882   20.5420 C   0  0  0  0  0  0  0  0  0  0  0  0
    7.7930  -17.0967   19.6049 O   0  0  0  0  0  0  0  0  0  0  0  0
    7.9018  -14.2049   23.2310 C   0  0  0  0  0  0  0  0  0  0  0  0
    9.1268  -14.2579   23.4045 O   0  0  0  0  0  0  0  0  0  0  0  0
    5.6922  -16.7827   20.4281 O   0  0  0  0  0  0  0  0  0  0  0  0
    7.1343  -13.7125   24.3073 N   0  0  0  0  0  0  0  0  0  0  0  0
    7.6041  -13.6112   25.6637 C   0  0  1  0  0  0  0  0  0  0  0  0
    6.6846  -12.9277   26.5963 C   0  0  0  0  0  0  0  0  0  0  0  0
    6.4530  -11.1971   26.0494 S   0  0  0  0  0  0  0  0  0  0  0  0
    7.9359  -14.9640   26.2223 C   0  0  0  0  0  0  0  0  0  0  0  0
    7.0727  -15.8953   26.2736 O   0  0  0  0  0  0  0  0  0  0  0  0
   12.9213  -17.4573   21.7907 N   0  0  0  0  0  0  0  0  0  0  0  0
   13.2994  -16.6280   22.8671 C   0  0  0  0  0  0  0  0  0  0  0  0
   14.3550  -15.8696   22.7852 N   0  0  0  0  0  0  0  0  0  0  0  0
   12.5278  -16.6084   24.0651 N   0  0  0  0  0  0  0  0  0  0  0  0
   11.8397  -17.7979   24.4821 C   0  0  0  0  0  0  0  0  0  0  0  0
   10.4934  -17.3431   25.0809 C   0  0  0  0  0  0  0  0  0  0  0  0
   10.7533  -17.0502   26.5150 C   0  0  0  0  0  0  0  0  0  0  0  0
    9.5733  -16.5320   27.2980 C   0  0  2  0  0  0  0  0  0  0  0  0
    9.2436  -15.2165   26.7058 N   0  0  0  0  0  0  0  0  0  0  0  0
    9.9592  -16.3688   28.7052 C   0  0  0  0  0  0  0  0  0  0  0  0
   10.1797  -17.4965   29.5198 O   0  0  0  0  0  0  0  0  0  0  0  0
   10.1108  -15.2523   29.2498 O   0  0  0  0  0  0  0  0  0  0  0  0
  2  3  1  0
  2  1  1  6
  3  4  1  0
  4  8  1  0
  4  5  2  0
  6  7  2  0
  6  2  1  0
  9  6  1  0
 10  9  1  0
 11 12  1  0
 10 11  1  1
 13 23  1  0
 13 10  1  0
 14 13  2  0
 16 15  1  0
 17 16  2  0
 18 16  1  0
 19 18  1  0
 20 19  1  0
 21 20  1  0
 22 21  1  6
 22 23  1  0
 24 22  1  0
 25 24  1  0
 26 24  2  0
M  END
$$$$
