DCR.pdb
     RDKit          3D

 26 25  0  0  1  0  0  0  0  0999 V2000
    8.1253  -20.9510   27.5799 N   0  0  0  0  0  0  0  0  0  0  0  0
    7.5626  -21.1638   26.2245 C   0  0  1  0  0  0  0  0  0  0  0  0
    6.1220  -21.5785   26.4074 C   0  0  0  0  0  0  0  0  0  0  0  0
    6.0120  -22.8625   27.1115 C   0  0  0  0  0  0  0  0  0  0  0  0
    7.0161  -23.4368   27.5563 O   0  0  0  0  0  0  0  0  0  0  0  0
    7.5654  -19.7915   25.6270 C   0  0  0  0  0  0  0  0  0  0  0  0
    6.7628  -19.5367   24.7190 O   0  0  0  0  0  0  0  0  0  0  0  0
    4.7533  -23.4669   27.2941 O   0  0  0  0  0  0  0  0  0  0  0  0
    8.4243  -18.7438   26.0201 N   0  0  0  0  0  0  0  0  0  0  0  0
    8.5250  -17.4764   25.3460 C   0  0  1  0  0  0  0  0  0  0  0  0
    8.7797  -16.3169   26.2254 C   0  0  0  0  0  0  0  0  0  0  0  0
    9.4778  -16.9081   27.8099 S   0  0  0  0  0  0  0  0  0  0  0  0
    9.5831  -17.5135   24.2825 C   0  0  0  0  0  0  0  0  0  0  0  0
   10.6434  -18.2006   24.4191 O   0  0  0  0  0  0  0  0  0  0  0  0
    8.2047  -13.7598   16.8514 N   0  0  0  0  0  0  0  0  0  0  0  0
    8.7995  -13.1658   17.9840 C   0  0  0  0  0  0  0  0  0  0  0  0
    8.6236  -11.9017   18.2433 N   0  0  0  0  0  0  0  0  0  0  0  0
    9.6051  -13.9446   18.8646 N   0  0  0  0  0  0  0  0  0  0  0  0
    9.8362  -15.3311   18.5709 C   0  0  0  0  0  0  0  0  0  0  0  0
   10.7442  -15.8754   19.6920 C   0  0  0  0  0  0  0  0  0  0  0  0
    9.9038  -15.9340   20.9169 C   0  0  0  0  0  0  0  0  0  0  0  0
   10.3740  -16.8901   21.9840 C   0  0  2  0  0  0  0  0  0  0  0  0
    9.4012  -16.7665   23.0922 N   0  0  0  0  0  0  0  0  0  0  0  0
   11.7109  -16.4889   22.4396 C   0  0  0  0  0  0  0  0  0  0  0  0
   12.8602  -16.9328   21.7571 O   0  0  0  0  0  0  0  0  0  0  0  0
   11.9046  -15.7507   23.4315 O   0  0  0  0  0  0  0  0  0  0  0  0
  2  3  1  0
  2  1  1  1
  3  4  1  0
  4  8  1  0
  4  5  2  0
  6  7  2  0
  6  2  1  0
  9  6  1  0
 10  9  1  0
 11 12  1  0
 10 11  1  1
 13 23  1  0
 13 10  1  0
 14 13  2  0
 16 15  1  0
 17 16  2  0
 18 16  1  0
 19 18  1  0
 20 19  1  0
 21 20  1  0
 22 21  1  6
 22 23  1  0
 24 22  1  0
 25 24  1  0
 26 24  2  0
M  END
$$$$
