DCR.pdb
     RDKit          3D

 26 25  0  0  1  0  0  0  0  0999 V2000
    7.6726  -13.2298   17.0533 N   0  0  0  0  0  0  0  0  0  0  0  0
    8.2498  -14.5832   17.2379 C   0  0  1  0  0  0  0  0  0  0  0  0
    9.3030  -14.7606   16.1701 C   0  0  0  0  0  0  0  0  0  0  0  0
    8.7070  -15.0918   14.8695 C   0  0  0  0  0  0  0  0  0  0  0  0
    7.5249  -14.8171   14.6185 O   0  0  0  0  0  0  0  0  0  0  0  0
    8.9538  -14.4848   18.5551 C   0  0  0  0  0  0  0  0  0  0  0  0
   10.1055  -14.0304   18.5812 O   0  0  0  0  0  0  0  0  0  0  0  0
    9.4756  -15.7321   13.8784 O   0  0  0  0  0  0  0  0  0  0  0  0
    8.4030  -14.8752   19.7937 N   0  0  0  0  0  0  0  0  0  0  0  0
    9.1057  -14.8291   21.0486 C   0  0  1  0  0  0  0  0  0  0  0  0
    8.2731  -15.0800   22.2430 C   0  0  0  0  0  0  0  0  0  0  0  0
    6.9512  -13.8180   22.3282 S   0  0  0  0  0  0  0  0  0  0  0  0
   10.2587  -15.7896   21.0571 C   0  0  0  0  0  0  0  0  0  0  0  0
   10.0924  -17.0342   20.8613 O   0  0  0  0  0  0  0  0  0  0  0  0
   15.6006  -14.0701   15.7460 N   0  0  0  0  0  0  0  0  0  0  0  0
   15.5529  -14.5500   17.0715 C   0  0  0  0  0  0  0  0  0  0  0  0
   15.6879  -15.8201   17.3255 N   0  0  0  0  0  0  0  0  0  0  0  0
   15.3553  -13.6471   18.1562 N   0  0  0  0  0  0  0  0  0  0  0  0
   15.3045  -14.1552   19.4984 C   0  0  0  0  0  0  0  0  0  0  0  0
   13.9754  -14.9257   19.6297 C   0  0  0  0  0  0  0  0  0  0  0  0
   13.9326  -15.4483   21.0208 C   0  0  0  0  0  0  0  0  0  0  0  0
   12.7049  -16.2474   21.3788 C   0  0  2  0  0  0  0  0  0  0  0  0
   11.5693  -15.3030   21.2877 N   0  0  0  0  0  0  0  0  0  0  0  0
   12.8356  -16.7475   22.7530 C   0  0  0  0  0  0  0  0  0  0  0  0
   13.7123  -17.8106   23.0448 O   0  0  0  0  0  0  0  0  0  0  0  0
   12.1958  -16.2744   23.7189 O   0  0  0  0  0  0  0  0  0  0  0  0
  2  3  1  0
  2  1  1  6
  3  4  1  0
  4  8  1  0
  4  5  2  0
  6  7  2  0
  6  2  1  0
  9  6  1  0
 10  9  1  0
 11 12  1  0
 10 11  1  1
 13 23  1  0
 13 10  1  0
 14 13  2  0
 16 15  1  0
 17 16  2  0
 18 16  1  0
 19 18  1  0
 20 19  1  0
 21 20  1  0
 22 21  1  1
 22 23  1  0
 24 22  1  0
 25 24  1  0
 26 24  2  0
M  END
$$$$
