DCR.pdb
     RDKit          3D

 26 25  0  0  1  0  0  0  0  0999 V2000
   10.9543  -19.2177   16.8984 N   0  0  0  0  0  0  0  0  0  0  0  0
   10.1197  -18.0638   17.3119 C   0  0  1  0  0  0  0  0  0  0  0  0
    8.7909  -18.2089   16.6092 C   0  0  0  0  0  0  0  0  0  0  0  0
    8.9040  -17.9321   15.1715 C   0  0  0  0  0  0  0  0  0  0  0  0
    9.9884  -17.6110   14.6649 O   0  0  0  0  0  0  0  0  0  0  0  0
    9.8884  -18.3065   18.7707 C   0  0  0  0  0  0  0  0  0  0  0  0
    8.8298  -17.9126   19.2784 O   0  0  0  0  0  0  0  0  0  0  0  0
    7.7727  -18.0280   14.3385 O   0  0  0  0  0  0  0  0  0  0  0  0
   10.7950  -18.9591   19.6321 N   0  0  0  0  0  0  0  0  0  0  0  0
   10.5600  -19.1997   21.0313 C   0  0  1  0  0  0  0  0  0  0  0  0
   11.2214  -20.4011   21.5807 C   0  0  0  0  0  0  0  0  0  0  0  0
   13.0190  -20.2968   21.2568 S   0  0  0  0  0  0  0  0  0  0  0  0
   10.9590  -18.0122   21.8575 C   0  0  0  0  0  0  0  0  0  0  0  0
   12.0068  -17.3409   21.5995 O   0  0  0  0  0  0  0  0  0  0  0  0
    6.4473  -13.8894   19.6679 N   0  0  0  0  0  0  0  0  0  0  0  0
    7.7788  -13.5056   19.4048 C   0  0  0  0  0  0  0  0  0  0  0  0
    8.1055  -12.9742   18.2615 N   0  0  0  0  0  0  0  0  0  0  0  0
    8.7899  -13.6949   20.3911 N   0  0  0  0  0  0  0  0  0  0  0  0
    8.5093  -14.5024   21.5449 C   0  0  0  0  0  0  0  0  0  0  0  0
    9.7879  -14.5016   22.4068 C   0  0  0  0  0  0  0  0  0  0  0  0
    9.5167  -15.4062   23.5550 C   0  0  0  0  0  0  0  0  0  0  0  0
   10.5508  -16.4762   23.7994 C   0  0  2  0  0  0  0  0  0  0  0  0
   10.1507  -17.6232   22.9544 N   0  0  0  0  0  0  0  0  0  0  0  0
   10.5250  -16.8606   25.2162 C   0  0  0  0  0  0  0  0  0  0  0  0
   11.1865  -16.0755   26.1806 O   0  0  0  0  0  0  0  0  0  0  0  0
    9.9321  -17.8780   25.6402 O   0  0  0  0  0  0  0  0  0  0  0  0
  2  3  1  0
  2  1  1  6
  3  4  1  0
  4  8  1  0
  4  5  2  0
  6  7  2  0
  6  2  1  0
  9  6  1  0
 10  9  1  0
 11 12  1  0
 10 11  1  1
 13 23  1  0
 13 10  1  0
 14 13  2  0
 16 15  1  0
 17 16  2  0
 18 16  1  0
 19 18  1  0
 20 19  1  0
 21 20  1  0
 22 21  1  1
 22 23  1  0
 24 22  1  0
 25 24  1  0
 26 24  2  0
M  END
$$$$
