IHR.pdb
     RDKit          3D

 30 30  0  0  1  0  0  0  0  0999 V2000
   28.0475  -20.6291   -7.2557 C   0  0  0  0  0  0  0  0  0  0  0  0
   28.0623  -21.2206   -8.6420 C   0  0  0  0  0  0  0  0  0  0  0  0
   26.8888  -20.8038   -9.4827 C   0  0  2  0  0  0  0  0  0  0  0  0
   25.6470  -21.3050   -8.7723 C   0  0  0  0  0  0  0  0  0  0  0  0
   27.0140  -21.3352  -10.8659 C   0  0  2  0  0  0  0  0  0  0  0  0
   28.3381  -21.0734  -11.4250 N   0  0  0  0  0  0  0  0  0  0  0  0
   25.9829  -20.7758  -11.7758 C   0  0  0  0  0  0  0  0  0  0  0  0
   25.8432  -19.5430  -11.9947 O   0  0  0  0  0  0  0  0  0  0  0  0
   25.0937  -21.6453  -12.4488 N   0  0  0  0  0  0  0  0  0  0  0  0
   24.0188  -21.0420  -13.3466 C   0  0  1  0  0  0  0  0  0  0  0  0
   24.5921  -21.2849  -14.7069 C   0  0  0  0  0  0  0  0  0  0  0  0
   25.6002  -20.3855  -15.2309 C   0  0  0  0  0  0  0  0  0  0  0  0
   26.2637  -19.3166  -14.7004 C   0  0  0  0  0  0  0  0  0  0  0  0
   27.1957  -18.8496  -15.5847 N   0  0  0  0  0  0  0  0  0  0  0  0
   27.0934  -19.6428  -16.6531 C   0  0  0  0  0  0  0  0  0  0  0  0
   26.1582  -20.5540  -16.4619 N   0  0  0  0  0  0  0  0  0  0  0  0
   22.8065  -21.8554  -13.0381 C   0  0  0  0  0  0  0  0  0  0  0  0
   22.9650  -23.1168  -12.8179 O   0  0  0  0  0  0  0  0  0  0  0  0
   18.6321  -24.0092   -6.9331 N   0  0  0  0  0  0  0  0  0  0  0  0
   17.7675  -24.5189   -7.9357 C   0  0  0  0  0  0  0  0  0  0  0  0
   17.0286  -25.5631   -7.6620 N   0  0  0  0  0  0  0  0  0  0  0  0
   17.6987  -23.9085   -9.2230 N   0  0  0  0  0  0  0  0  0  0  0  0
   18.7170  -22.9885   -9.6557 C   0  0  0  0  0  0  0  0  0  0  0  0
   18.3946  -22.4950  -11.0506 C   0  0  0  0  0  0  0  0  0  0  0  0
   19.4423  -21.6046  -11.6123 C   0  0  0  0  0  0  0  0  0  0  0  0
   20.3935  -22.3043  -12.5201 C   0  0  2  0  0  0  0  0  0  0  0  0
   21.4839  -21.4331  -12.9478 N   0  0  0  0  0  0  0  0  0  0  0  0
   19.6752  -22.7030  -13.7603 C   0  0  0  0  0  0  0  0  0  0  0  0
   19.7878  -22.0465  -14.8018 O   0  0  0  0  0  0  0  0  0  0  0  0
   18.8423  -23.8388  -13.7978 O   0  0  0  0  0  0  0  0  0  0  0  0
  1  2  1  0
  3  5  1  0
  3  2  1  0
  3  4  1  1
  5  7  1  0
  5  6  1  6
  7  8  2  0
  9 10  1  0
  9  7  1  0
 10 17  1  0
 11 12  1  0
 10 11  1  6
 12 13  2  0
 13 14  1  0
 15 14  1  0
 16 12  1  0
 16 15  2  0
 17 27  1  0
 17 18  2  0
 19 20  1  0
 20 22  1  0
 21 20  2  0
 23 22  1  0
 23 24  1  0
 24 25  1  0
 26 25  1  1
 26 28  1  0
 27 26  1  0
 28 29  2  0
 28 30  1  0
M  END
$$$$
