IHR.pdb
     RDKit          3D

 30 30  0  0  1  0  0  0  0  0999 V2000
   15.1331  -24.6078   -4.7135 C   0  0  0  0  0  0  0  0  0  0  0  0
   16.4574  -25.1999   -5.1230 C   0  0  0  0  0  0  0  0  0  0  0  0
   16.6072  -25.3596   -6.6095 C   0  0  2  0  0  0  0  0  0  0  0  0
   15.4714  -26.2538   -7.0659 C   0  0  0  0  0  0  0  0  0  0  0  0
   17.9456  -25.9108   -6.9498 C   0  0  2  0  0  0  0  0  0  0  0  0
   19.0159  -24.9809   -6.5976 N   0  0  0  0  0  0  0  0  0  0  0  0
   18.0581  -26.2590   -8.3886 C   0  0  0  0  0  0  0  0  0  0  0  0
   17.2565  -27.0281   -8.9829 O   0  0  0  0  0  0  0  0  0  0  0  0
   19.1095  -25.7159   -9.1627 N   0  0  0  0  0  0  0  0  0  0  0  0
   19.2354  -26.1352  -10.6235 C   0  0  1  0  0  0  0  0  0  0  0  0
   19.9419  -24.9565  -11.2148 C   0  0  0  0  0  0  0  0  0  0  0  0
   19.1787  -23.7950  -11.6246 C   0  0  0  0  0  0  0  0  0  0  0  0
   17.8432  -23.5113  -11.6330 C   0  0  0  0  0  0  0  0  0  0  0  0
   17.6338  -22.2236  -12.0413 N   0  0  0  0  0  0  0  0  0  0  0  0
   18.8503  -21.7291  -12.2789 C   0  0  0  0  0  0  0  0  0  0  0  0
   19.7729  -22.6414  -12.0383 N   0  0  0  0  0  0  0  0  0  0  0  0
   20.0603  -27.3771  -10.5623 C   0  0  0  0  0  0  0  0  0  0  0  0
   21.0911  -27.3804   -9.7862 O   0  0  0  0  0  0  0  0  0  0  0  0
   18.8869  -34.3985   -6.8680 N   0  0  0  0  0  0  0  0  0  0  0  0
   18.2667  -33.3688   -7.6214 C   0  0  0  0  0  0  0  0  0  0  0  0
   16.9878  -33.1479   -7.4569 N   0  0  0  0  0  0  0  0  0  0  0  0
   19.0179  -32.5827   -8.5445 N   0  0  0  0  0  0  0  0  0  0  0  0
   20.4358  -32.7777   -8.6926 C   0  0  0  0  0  0  0  0  0  0  0  0
   20.9538  -31.9004   -9.8129 C   0  0  0  0  0  0  0  0  0  0  0  0
   20.1567  -30.6614  -10.0013 C   0  0  0  0  0  0  0  0  0  0  0  0
   20.7084  -29.7520  -11.0440 C   0  0  2  0  0  0  0  0  0  0  0  0
   19.8688  -28.5747  -11.2439 N   0  0  0  0  0  0  0  0  0  0  0  0
   20.7309  -30.4674  -12.3481 C   0  0  0  0  0  0  0  0  0  0  0  0
   21.5762  -31.3381  -12.5836 O   0  0  0  0  0  0  0  0  0  0  0  0
   19.7946  -30.1830  -13.3618 O   0  0  0  0  0  0  0  0  0  0  0  0
  1  2  1  0
  3  5  1  0
  3  2  1  0
  3  4  1  1
  5  7  1  0
  5  6  1  6
  7  8  2  0
  9 10  1  0
  9  7  1  0
 10 17  1  0
 11 12  1  0
 10 11  1  6
 12 13  2  0
 13 14  1  0
 15 14  1  0
 16 12  1  0
 16 15  2  0
 17 27  1  0
 17 18  2  0
 19 20  1  0
 20 22  1  0
 21 20  2  0
 23 22  1  0
 23 24  1  0
 24 25  1  0
 26 25  1  1
 26 28  1  0
 27 26  1  0
 28 29  2  0
 28 30  1  0
M  END
$$$$
