IHR.pdb
     RDKit          3D

 30 30  0  0  1  0  0  0  0  0999 V2000
   17.5098  -28.4805   -7.8887 C   0  0  0  0  0  0  0  0  0  0  0  0
   17.8075  -27.0093   -8.0260 C   0  0  0  0  0  0  0  0  0  0  0  0
   17.1285  -26.1621   -6.9873 C   0  0  2  0  0  0  0  0  0  0  0  0
   15.6512  -26.4951   -7.0546 C   0  0  0  0  0  0  0  0  0  0  0  0
   17.4042  -24.7195   -7.2190 C   0  0  2  0  0  0  0  0  0  0  0  0
   18.8369  -24.4348   -7.1953 N   0  0  0  0  0  0  0  0  0  0  0  0
   16.7199  -23.8526   -6.2270 C   0  0  0  0  0  0  0  0  0  0  0  0
   17.2058  -23.5672   -5.1002 O   0  0  0  0  0  0  0  0  0  0  0  0
   15.4538  -23.3011   -6.5309 N   0  0  0  0  0  0  0  0  0  0  0  0
   14.7828  -22.3969   -5.5024 C   0  0  1  0  0  0  0  0  0  0  0  0
   13.8369  -21.6167   -6.3595 C   0  0  0  0  0  0  0  0  0  0  0  0
   12.7937  -20.8254   -5.7388 C   0  0  0  0  0  0  0  0  0  0  0  0
   12.4940  -20.5304   -4.4398 C   0  0  0  0  0  0  0  0  0  0  0  0
   11.4438  -19.6573   -4.3812 N   0  0  0  0  0  0  0  0  0  0  0  0
   11.1102  -19.4245   -5.6523 C   0  0  0  0  0  0  0  0  0  0  0  0
   11.8956  -20.1046   -6.4660 N   0  0  0  0  0  0  0  0  0  0  0  0
   14.1185  -23.3560   -4.5722 C   0  0  0  0  0  0  0  0  0  0  0  0
   14.0023  -24.5838   -4.9515 O   0  0  0  0  0  0  0  0  0  0  0  0
   15.9981  -29.2368    0.6900 N   0  0  0  0  0  0  0  0  0  0  0  0
   14.5896  -29.1768    0.8482 C   0  0  0  0  0  0  0  0  0  0  0  0
   13.9958  -30.0883    1.5748 N   0  0  0  0  0  0  0  0  0  0  0  0
   13.8265  -28.1430    0.2292 N   0  0  0  0  0  0  0  0  0  0  0  0
   14.4690  -27.1313   -0.5673 C   0  0  0  0  0  0  0  0  0  0  0  0
   13.4318  -26.1526   -1.0765 C   0  0  0  0  0  0  0  0  0  0  0  0
   13.9921  -25.1369   -2.0040 C   0  0  0  0  0  0  0  0  0  0  0  0
   12.9873  -24.1443   -2.4766 C   0  0  2  0  0  0  0  0  0  0  0  0
   13.5905  -23.1079   -3.3091 N   0  0  0  0  0  0  0  0  0  0  0  0
   12.4097  -23.4415   -1.2994 C   0  0  0  0  0  0  0  0  0  0  0  0
   11.6016  -24.0056   -0.5531 O   0  0  0  0  0  0  0  0  0  0  0  0
   12.7587  -22.1123   -0.9894 O   0  0  0  0  0  0  0  0  0  0  0  0
  1  2  1  0
  3  5  1  0
  3  2  1  0
  3  4  1  6
  5  7  1  0
  5  6  1  1
  7  8  2  0
  9 10  1  0
  9  7  1  0
 10 17  1  0
 11 12  1  0
 10 11  1  6
 12 13  2  0
 13 14  1  0
 15 14  1  0
 16 12  1  0
 16 15  2  0
 17 27  1  0
 17 18  2  0
 19 20  1  0
 20 22  1  0
 21 20  2  0
 23 22  1  0
 23 24  1  0
 24 25  1  0
 26 25  1  1
 26 28  1  0
 27 26  1  0
 28 29  2  0
 28 30  1  0
M  END
$$$$
