IHR.pdb
     RDKit          3D

 30 30  0  0  1  0  0  0  0  0999 V2000
   29.8785  -22.3982  -10.0587 C   0  0  0  0  0  0  0  0  0  0  0  0
   29.6895  -20.9043  -10.1243 C   0  0  0  0  0  0  0  0  0  0  0  0
   28.3106  -20.4942  -10.5579 C   0  0  2  0  0  0  0  0  0  0  0  0
   27.3440  -21.1038   -9.5620 C   0  0  0  0  0  0  0  0  0  0  0  0
   28.0453  -20.9268  -11.9556 C   0  0  2  0  0  0  0  0  0  0  0  0
   29.1936  -20.6764  -12.8234 N   0  0  0  0  0  0  0  0  0  0  0  0
   26.8483  -20.2623  -12.5295 C   0  0  0  0  0  0  0  0  0  0  0  0
   26.7704  -19.0208  -12.7290 O   0  0  0  0  0  0  0  0  0  0  0  0
   25.7174  -21.0346  -12.8822 N   0  0  0  0  0  0  0  0  0  0  0  0
   24.5001  -20.3260  -13.4668 C   0  0  1  0  0  0  0  0  0  0  0  0
   24.8476  -20.2819  -14.9212 C   0  0  0  0  0  0  0  0  0  0  0  0
   23.8624  -19.8239  -15.8799 C   0  0  0  0  0  0  0  0  0  0  0  0
   22.5778  -19.3778  -15.7572 C   0  0  0  0  0  0  0  0  0  0  0  0
   22.0964  -18.9763  -16.9719 N   0  0  0  0  0  0  0  0  0  0  0  0
   23.0974  -19.1806  -17.8306 C   0  0  0  0  0  0  0  0  0  0  0  0
   24.1463  -19.6796  -17.2041 N   0  0  0  0  0  0  0  0  0  0  0  0
   23.3686  -21.2401  -13.1342 C   0  0  0  0  0  0  0  0  0  0  0  0
   23.6338  -22.4902  -12.9562 O   0  0  0  0  0  0  0  0  0  0  0  0
   17.4095  -24.7416   -8.3588 N   0  0  0  0  0  0  0  0  0  0  0  0
   18.6710  -24.1794   -8.0346 C   0  0  0  0  0  0  0  0  0  0  0  0
   19.2772  -24.5732   -6.9443 N   0  0  0  0  0  0  0  0  0  0  0  0
   19.2753  -23.2009   -8.8783 N   0  0  0  0  0  0  0  0  0  0  0  0
   18.5070  -22.5298   -9.8932 C   0  0  0  0  0  0  0  0  0  0  0  0
   19.1817  -22.7039  -11.2377 C   0  0  0  0  0  0  0  0  0  0  0  0
   20.3415  -21.7966  -11.4316 C   0  0  0  0  0  0  0  0  0  0  0  0
   20.9852  -21.9314  -12.7679 C   0  0  2  0  0  0  0  0  0  0  0  0
   22.0220  -20.9259  -12.9805 N   0  0  0  0  0  0  0  0  0  0  0  0
   19.9635  -21.6979  -13.8237 C   0  0  0  0  0  0  0  0  0  0  0  0
   19.7520  -20.5634  -14.2670 O   0  0  0  0  0  0  0  0  0  0  0  0
   19.2000  -22.7546  -14.3581 O   0  0  0  0  0  0  0  0  0  0  0  0
  1  2  1  0
  3  5  1  0
  3  2  1  0
  3  4  1  1
  5  7  1  0
  5  6  1  6
  7  8  2  0
  9 10  1  0
  9  7  1  0
 10 17  1  0
 11 12  1  0
 10 11  1  6
 12 13  2  0
 13 14  1  0
 15 14  1  0
 16 12  1  0
 16 15  2  0
 17 27  1  0
 17 18  2  0
 19 20  1  0
 20 22  1  0
 21 20  2  0
 23 22  1  0
 23 24  1  0
 24 25  1  0
 26 25  1  1
 26 28  1  0
 27 26  1  0
 28 29  2  0
 28 30  1  0
M  END
$$$$
