IHR.pdb
     RDKit          3D

 30 30  0  0  1  0  0  0  0  0999 V2000
   22.3291  -13.9684  -18.0528 C   0  0  0  0  0  0  0  0  0  0  0  0
   22.2360  -14.7166  -16.7476 C   0  0  0  0  0  0  0  0  0  0  0  0
   21.7712  -16.1369  -16.9042 C   0  0  2  0  0  0  0  0  0  0  0  0
   20.3931  -16.0751  -17.5327 C   0  0  0  0  0  0  0  0  0  0  0  0
   21.7753  -16.8419  -15.5951 C   0  0  2  0  0  0  0  0  0  0  0  0
   23.0550  -16.6908  -14.9066 N   0  0  0  0  0  0  0  0  0  0  0  0
   21.4672  -18.2872  -15.7368 C   0  0  0  0  0  0  0  0  0  0  0  0
   20.5810  -18.7369  -16.5111 O   0  0  0  0  0  0  0  0  0  0  0  0
   22.1882  -19.2370  -14.9768 N   0  0  0  0  0  0  0  0  0  0  0  0
   21.8996  -20.7188  -15.1923 C   0  0  1  0  0  0  0  0  0  0  0  0
   23.2676  -21.3123  -15.0721 C   0  0  0  0  0  0  0  0  0  0  0  0
   23.4243  -22.7525  -15.0461 C   0  0  0  0  0  0  0  0  0  0  0  0
   22.5501  -23.7894  -15.2038 C   0  0  0  0  0  0  0  0  0  0  0  0
   23.2179  -24.9818  -15.1771 N   0  0  0  0  0  0  0  0  0  0  0  0
   24.5016  -24.6608  -15.0036 C   0  0  0  0  0  0  0  0  0  0  0  0
   24.6417  -23.3510  -14.9246 N   0  0  0  0  0  0  0  0  0  0  0  0
   20.9804  -21.0644  -14.0689 C   0  0  0  0  0  0  0  0  0  0  0  0
   21.1768  -20.4920  -12.9294 O   0  0  0  0  0  0  0  0  0  0  0  0
   12.7971  -20.1611  -14.4408 N   0  0  0  0  0  0  0  0  0  0  0  0
   13.6897  -19.1144  -14.0941 C   0  0  0  0  0  0  0  0  0  0  0  0
   13.2576  -17.8800  -14.1223 N   0  0  0  0  0  0  0  0  0  0  0  0
   15.0370  -19.3948  -13.7194 N   0  0  0  0  0  0  0  0  0  0  0  0
   15.5099  -20.7513  -13.6364 C   0  0  0  0  0  0  0  0  0  0  0  0
   17.0016  -20.7531  -13.3760 C   0  0  0  0  0  0  0  0  0  0  0  0
   17.5834  -22.1185  -13.3187 C   0  0  0  0  0  0  0  0  0  0  0  0
   19.0205  -22.1367  -12.9280 C   0  0  2  0  0  0  0  0  0  0  0  0
   19.9025  -21.9441  -14.0752 N   0  0  0  0  0  0  0  0  0  0  0  0
   19.3547  -23.4758  -12.3728 C   0  0  0  0  0  0  0  0  0  0  0  0
   18.8204  -23.8884  -11.3371 O   0  0  0  0  0  0  0  0  0  0  0  0
   20.2882  -24.3233  -13.0016 O   0  0  0  0  0  0  0  0  0  0  0  0
  1  2  1  0
  3  5  1  0
  3  2  1  0
  3  4  1  1
  5  7  1  0
  5  6  1  6
  7  8  2  0
  9 10  1  0
  9  7  1  0
 10 17  1  0
 11 12  1  0
 10 11  1  1
 12 13  2  0
 13 14  1  0
 15 14  1  0
 16 12  1  0
 16 15  2  0
 17 27  1  0
 17 18  2  0
 19 20  1  0
 20 22  1  0
 21 20  2  0
 23 22  1  0
 23 24  1  0
 24 25  1  0
 26 25  1  6
 26 28  1  0
 27 26  1  0
 28 29  2  0
 28 30  1  0
M  END
$$$$
