IHR.pdb
     RDKit          3D

 30 30  0  0  1  0  0  0  0  0999 V2000
   25.9061  -21.5075   -8.8896 C   0  0  0  0  0  0  0  0  0  0  0  0
   24.6908  -20.9331   -9.5715 C   0  0  0  0  0  0  0  0  0  0  0  0
   24.7948  -20.9226  -11.0704 C   0  0  2  0  0  0  0  0  0  0  0  0
   26.1036  -20.2369  -11.4091 C   0  0  0  0  0  0  0  0  0  0  0  0
   23.6175  -20.2470  -11.6774 C   0  0  2  0  0  0  0  0  0  0  0  0
   22.3644  -20.8711  -11.2596 N   0  0  0  0  0  0  0  0  0  0  0  0
   23.6831  -20.2336  -13.1605 C   0  0  0  0  0  0  0  0  0  0  0  0
   24.6523  -19.7577  -13.8097 O   0  0  0  0  0  0  0  0  0  0  0  0
   22.6176  -20.7758  -13.9157 N   0  0  0  0  0  0  0  0  0  0  0  0
   22.7207  -20.7689  -15.4372 C   0  0  1  0  0  0  0  0  0  0  0  0
   22.7454  -22.2330  -15.7436 C   0  0  0  0  0  0  0  0  0  0  0  0
   24.0164  -22.9102  -15.9044 C   0  0  0  0  0  0  0  0  0  0  0  0
   25.3111  -22.4769  -15.9048 C   0  0  0  0  0  0  0  0  0  0  0  0
   26.1668  -23.5377  -16.0106 N   0  0  0  0  0  0  0  0  0  0  0  0
   25.3826  -24.6157  -16.0730 C   0  0  0  0  0  0  0  0  0  0  0  0
   24.1120  -24.2646  -16.0115 N   0  0  0  0  0  0  0  0  0  0  0  0
   21.4739  -20.0729  -15.8703 C   0  0  0  0  0  0  0  0  0  0  0  0
   20.3755  -20.3644  -15.2592 O   0  0  0  0  0  0  0  0  0  0  0  0
   19.6155  -12.0805  -19.2593 N   0  0  0  0  0  0  0  0  0  0  0  0
   18.8984  -12.3698  -18.0700 C   0  0  0  0  0  0  0  0  0  0  0  0
   18.2332  -11.4082  -17.4833 N   0  0  0  0  0  0  0  0  0  0  0  0
   18.8971  -13.6845  -17.5169 N   0  0  0  0  0  0  0  0  0  0  0  0
   19.6555  -14.7415  -18.1319 C   0  0  0  0  0  0  0  0  0  0  0  0
   19.5224  -16.0057  -17.3090 C   0  0  0  0  0  0  0  0  0  0  0  0
   20.2675  -17.1564  -17.8806 C   0  0  0  0  0  0  0  0  0  0  0  0
   20.0622  -18.4283  -17.1333 C   0  0  2  0  0  0  0  0  0  0  0  0
   21.3213  -19.1193  -16.8718 N   0  0  0  0  0  0  0  0  0  0  0  0
   19.2503  -19.3547  -17.9673 C   0  0  0  0  0  0  0  0  0  0  0  0
   19.7797  -20.0723  -18.8236 O   0  0  0  0  0  0  0  0  0  0  0  0
   17.8529  -19.4512  -17.8157 O   0  0  0  0  0  0  0  0  0  0  0  0
  1  2  1  0
  3  5  1  0
  3  2  1  0
  3  4  1  1
  5  7  1  0
  5  6  1  6
  7  8  2  0
  9 10  1  0
  9  7  1  0
 10 17  1  0
 11 12  1  0
 10 11  1  6
 12 13  2  0
 13 14  1  0
 15 14  1  0
 16 12  1  0
 16 15  2  0
 17 27  1  0
 17 18  2  0
 19 20  1  0
 20 22  1  0
 21 20  2  0
 23 22  1  0
 23 24  1  0
 24 25  1  0
 26 25  1  6
 26 28  1  0
 27 26  1  0
 28 29  2  0
 28 30  1  0
M  END
$$$$
