WCD.pdb
     RDKit          3D

 29 30  0  0  1  0  0  0  0  0999 V2000
   27.8097  -22.8529  -12.7495 N   0  0  0  0  0  0  0  0  0  0  0  0
   26.7373  -21.9994  -12.3039 C   0  0  1  0  0  0  0  0  0  0  0  0
   27.1349  -20.6107  -11.9365 C   0  0  0  0  0  0  0  0  0  0  0  0
   28.0951  -20.6053  -10.7834 C   0  0  0  0  0  0  0  0  0  0  0  0
   29.4579  -20.7679  -10.7960 C   0  0  0  0  0  0  0  0  0  0  0  0
   29.9432  -20.6664   -9.5245 N   0  0  0  0  0  0  0  0  0  0  0  0
   28.9075  -20.4415   -8.7006 C   0  0  0  0  0  0  0  0  0  0  0  0
   28.8481  -20.2734   -7.3131 C   0  0  0  0  0  0  0  0  0  0  0  0
   27.6571  -20.0689   -6.6952 C   0  0  0  0  0  0  0  0  0  0  0  0
   26.5023  -20.0243   -7.4182 C   0  0  0  0  0  0  0  0  0  0  0  0
   26.5558  -20.1901   -8.7996 C   0  0  0  0  0  0  0  0  0  0  0  0
   27.7518  -20.3981   -9.4461 C   0  0  0  0  0  0  0  0  0  0  0  0
   25.6341  -22.0307  -13.3032 C   0  0  0  0  0  0  0  0  0  0  0  0
   25.9252  -21.8372  -14.5250 O   0  0  0  0  0  0  0  0  0  0  0  0
   24.2779  -22.2548  -13.0184 N   0  0  0  0  0  0  0  0  0  0  0  0
   23.2859  -22.3812  -14.0689 C   0  0  1  0  0  0  0  0  0  0  0  0
   23.0770  -23.7620  -14.5713 C   0  0  0  0  0  0  0  0  0  0  0  0
   21.4686  -23.9894  -15.3687 S   0  0  0  0  0  0  0  0  0  0  0  0
   22.0297  -21.7140  -13.6044 C   0  0  0  0  0  0  0  0  0  0  0  0
   21.7248  -21.7646  -12.3895 O   0  0  0  0  0  0  0  0  0  0  0  0
   21.1447  -21.0133  -14.4571 N   0  0  0  0  0  0  0  0  0  0  0  0
   19.8875  -20.4402  -13.9439 C   0  0  1  0  0  0  0  0  0  0  0  0
   19.7109  -19.0882  -14.6009 C   0  0  0  0  0  0  0  0  0  0  0  0
   20.0572  -17.9481  -13.7842 C   0  0  0  0  0  0  0  0  0  0  0  0
   20.4115  -18.0478  -12.6016 O   0  0  0  0  0  0  0  0  0  0  0  0
   18.7705  -21.3292  -14.3257 C   0  0  0  0  0  0  0  0  0  0  0  0
   18.7468  -21.8903  -15.4734 O   0  0  0  0  0  0  0  0  0  0  0  0
   19.9916  -16.6591  -14.3485 O   0  0  0  0  0  0  0  0  0  0  0  0
   17.7055  -21.6087  -13.4943 O   0  0  0  0  0  0  0  0  0  0  0  0
  2 13  1  0
  2  1  1  6
  3  2  1  0
  4 12  1  0
  4  3  1  0
  5  4  2  0
  6  5  1  0
  6  7  1  0
  7 12  2  0
  8  7  1  0
  8  9  2  0
  9 10  1  0
 10 11  2  0
 12 11  1  0
 13 14  2  0
 15 13  1  0
 15 16  1  0
 16 17  1  1
 18 17  1  0
 19 21  1  0
 19 16  1  0
 20 19  2  0
 22 23  1  6
 22 21  1  0
 23 24  1  0
 24 25  2  0
 24 28  1  0
 26 22  1  0
 26 29  1  0
 27 26  2  0
M  END
$$$$
