WCD.pdb
     RDKit          3D

 29 30  0  0  1  0  0  0  0  0999 V2000
   25.4874  -19.5151  -16.8490 N   0  0  0  0  0  0  0  0  0  0  0  0
   25.7611  -18.9934  -15.5337 C   0  0  1  0  0  0  0  0  0  0  0  0
   24.5798  -18.4588  -14.7985 C   0  0  0  0  0  0  0  0  0  0  0  0
   23.9416  -17.3236  -15.5439 C   0  0  0  0  0  0  0  0  0  0  0  0
   22.7341  -17.2913  -16.1958 C   0  0  0  0  0  0  0  0  0  0  0  0
   22.5285  -16.0474  -16.7181 N   0  0  0  0  0  0  0  0  0  0  0  0
   23.5894  -15.2855  -16.4081 C   0  0  0  0  0  0  0  0  0  0  0  0
   23.8898  -13.9520  -16.7057 C   0  0  0  0  0  0  0  0  0  0  0  0
   25.0560  -13.3991  -16.2856 C   0  0  0  0  0  0  0  0  0  0  0  0
   25.9506  -14.1358  -15.5677 C   0  0  0  0  0  0  0  0  0  0  0  0
   25.6562  -15.4632  -15.2680 C   0  0  0  0  0  0  0  0  0  0  0  0
   24.4804  -16.0432  -15.6834 C   0  0  0  0  0  0  0  0  0  0  0  0
   26.5102  -20.0104  -14.7456 C   0  0  0  0  0  0  0  0  0  0  0  0
   26.0260  -21.1824  -14.6637 O   0  0  0  0  0  0  0  0  0  0  0  0
   27.7212  -19.7927  -14.0698 N   0  0  0  0  0  0  0  0  0  0  0  0
   28.0908  -20.5592  -12.8952 C   0  0  1  0  0  0  0  0  0  0  0  0
   29.5112  -20.4317  -12.4845 C   0  0  0  0  0  0  0  0  0  0  0  0
   29.8439  -21.1459  -10.8554 S   0  0  0  0  0  0  0  0  0  0  0  0
   27.1184  -20.2361  -11.8048 C   0  0  0  0  0  0  0  0  0  0  0  0
   26.8755  -19.0353  -11.5393 O   0  0  0  0  0  0  0  0  0  0  0  0
   26.4375  -21.2108  -11.0381 N   0  0  0  0  0  0  0  0  0  0  0  0
   25.6049  -20.8262   -9.8843 C   0  0  1  0  0  0  0  0  0  0  0  0
   24.8160  -22.0508   -9.4737 C   0  0  0  0  0  0  0  0  0  0  0  0
   23.8980  -21.8615   -8.3745 C   0  0  0  0  0  0  0  0  0  0  0  0
   23.7077  -20.7625   -7.8359 O   0  0  0  0  0  0  0  0  0  0  0  0
   26.4913  -20.4106   -8.7775 C   0  0  0  0  0  0  0  0  0  0  0  0
   27.5989  -21.0124   -8.5680 O   0  0  0  0  0  0  0  0  0  0  0  0
   23.1819  -22.9710   -7.8843 O   0  0  0  0  0  0  0  0  0  0  0  0
   26.1950  -19.3734   -7.9172 O   0  0  0  0  0  0  0  0  0  0  0  0
  2 13  1  0
  2  1  1  6
  3  2  1  0
  4 12  1  0
  4  3  1  0
  5  4  2  0
  6  5  1  0
  6  7  1  0
  7 12  2  0
  8  7  1  0
  8  9  2  0
  9 10  1  0
 10 11  2  0
 12 11  1  0
 13 14  2  0
 15 13  1  0
 15 16  1  0
 16 17  1  1
 18 17  1  0
 19 21  1  0
 19 16  1  0
 20 19  2  0
 22 23  1  1
 22 21  1  0
 23 24  1  0
 24 25  2  0
 24 28  1  0
 26 22  1  0
 26 29  1  0
 27 26  2  0
M  END
$$$$
