WCD.pdb
     RDKit          3D

 29 30  0  0  1  0  0  0  0  0999 V2000
   26.4986  -19.1341  -11.8563 N   0  0  0  0  0  0  0  0  0  0  0  0
   26.3266  -20.5645  -11.8955 C   0  0  1  0  0  0  0  0  0  0  0  0
   25.5789  -21.1510  -10.7472 C   0  0  0  0  0  0  0  0  0  0  0  0
   26.1063  -20.6441   -9.4370 C   0  0  0  0  0  0  0  0  0  0  0  0
   25.4721  -19.8778   -8.4912 C   0  0  0  0  0  0  0  0  0  0  0  0
   26.3108  -19.6659   -7.4357 N   0  0  0  0  0  0  0  0  0  0  0  0
   27.4722  -20.2868   -7.6960 C   0  0  0  0  0  0  0  0  0  0  0  0
   28.6593  -20.3754   -6.9612 C   0  0  0  0  0  0  0  0  0  0  0  0
   29.7224  -21.0621   -7.4514 C   0  0  0  0  0  0  0  0  0  0  0  0
   29.6479  -21.6750   -8.6668 C   0  0  0  0  0  0  0  0  0  0  0  0
   28.4685  -21.5907   -9.4020 C   0  0  0  0  0  0  0  0  0  0  0  0
   27.3792  -20.9004   -8.9239 C   0  0  0  0  0  0  0  0  0  0  0  0
   25.7495  -20.9561  -13.2109 C   0  0  0  0  0  0  0  0  0  0  0  0
   24.7282  -20.3265  -13.6297 O   0  0  0  0  0  0  0  0  0  0  0  0
   26.2335  -21.9753  -14.0461 N   0  0  0  0  0  0  0  0  0  0  0  0
   25.6197  -22.2719  -15.3263 C   0  0  1  0  0  0  0  0  0  0  0  0
   26.5259  -22.8847  -16.3293 C   0  0  0  0  0  0  0  0  0  0  0  0
   28.2471  -22.3579  -16.1435 S   0  0  0  0  0  0  0  0  0  0  0  0
   24.3778  -23.0671  -15.0729 C   0  0  0  0  0  0  0  0  0  0  0  0
   24.3693  -23.9060  -14.1414 O   0  0  0  0  0  0  0  0  0  0  0  0
   23.1867  -22.9344  -15.8247 N   0  0  0  0  0  0  0  0  0  0  0  0
   21.8900  -23.3754  -15.2803 C   0  0  1  0  0  0  0  0  0  0  0  0
   21.5722  -22.4813  -14.1012 C   0  0  0  0  0  0  0  0  0  0  0  0
   20.3095  -22.7366  -13.4475 C   0  0  0  0  0  0  0  0  0  0  0  0
   20.1497  -23.6435  -12.6192 O   0  0  0  0  0  0  0  0  0  0  0  0
   20.8567  -23.2099  -16.3236 C   0  0  0  0  0  0  0  0  0  0  0  0
   19.9649  -24.1066  -16.5060 O   0  0  0  0  0  0  0  0  0  0  0  0
   19.2025  -21.9235  -13.7599 O   0  0  0  0  0  0  0  0  0  0  0  0
   20.7833  -22.1075  -17.1501 O   0  0  0  0  0  0  0  0  0  0  0  0
  2 13  1  0
  2  1  1  1
  3  2  1  0
  4 12  1  0
  4  3  1  0
  5  4  2  0
  6  5  1  0
  6  7  1  0
  7 12  2  0
  8  7  1  0
  8  9  2  0
  9 10  1  0
 10 11  2  0
 12 11  1  0
 13 14  2  0
 15 13  1  0
 15 16  1  0
 16 17  1  6
 18 17  1  0
 19 21  1  0
 19 16  1  0
 20 19  2  0
 22 23  1  1
 22 21  1  0
 23 24  1  0
 24 25  2  0
 24 28  1  0
 26 22  1  0
 26 29  1  0
 27 26  2  0
M  END
$$$$
