WCD.pdb
     RDKit          3D

 29 30  0  0  1  0  0  0  0  0999 V2000
   24.8777  -19.0444   -8.9002 N   0  0  0  0  0  0  0  0  0  0  0  0
   25.9951  -19.8814   -9.2579 C   0  0  1  0  0  0  0  0  0  0  0  0
   26.0953  -21.1684   -8.5127 C   0  0  0  0  0  0  0  0  0  0  0  0
   26.1919  -20.9360   -7.0335 C   0  0  0  0  0  0  0  0  0  0  0  0
   25.2693  -21.2126   -6.0555 C   0  0  0  0  0  0  0  0  0  0  0  0
   25.7754  -20.8652   -4.8367 N   0  0  0  0  0  0  0  0  0  0  0  0
   27.0090  -20.3700   -5.0243 C   0  0  0  0  0  0  0  0  0  0  0  0
   27.9499  -19.8629   -4.1218 C   0  0  0  0  0  0  0  0  0  0  0  0
   29.1460  -19.3978   -4.5635 C   0  0  0  0  0  0  0  0  0  0  0  0
   29.4469  -19.4185   -5.8929 C   0  0  0  0  0  0  0  0  0  0  0  0
   28.5145  -19.9229   -6.7955 C   0  0  0  0  0  0  0  0  0  0  0  0
   27.2967  -20.3996   -6.3695 C   0  0  0  0  0  0  0  0  0  0  0  0
   26.0141  -20.0746  -10.7340 C   0  0  0  0  0  0  0  0  0  0  0  0
   24.9521  -19.8252  -11.3858 O   0  0  0  0  0  0  0  0  0  0  0  0
   27.1129  -20.5170  -11.4874 N   0  0  0  0  0  0  0  0  0  0  0  0
   27.1424  -20.4098  -12.9335 C   0  0  1  0  0  0  0  0  0  0  0  0
   28.4608  -20.6869  -13.5561 C   0  0  0  0  0  0  0  0  0  0  0  0
   28.4140  -20.6376  -15.3644 S   0  0  0  0  0  0  0  0  0  0  0  0
   26.0300  -21.2455  -13.4841 C   0  0  0  0  0  0  0  0  0  0  0  0
   25.7602  -22.3404  -12.9366 O   0  0  0  0  0  0  0  0  0  0  0  0
   25.2430  -20.8779  -14.6008 N   0  0  0  0  0  0  0  0  0  0  0  0
   24.0454  -21.6510  -14.9754 C   0  0  1  0  0  0  0  0  0  0  0  0
   23.0781  -21.5684  -13.8143 C   0  0  0  0  0  0  0  0  0  0  0  0
   21.8239  -22.2615  -13.9970 C   0  0  0  0  0  0  0  0  0  0  0  0
   21.5871  -22.9811  -14.9769 O   0  0  0  0  0  0  0  0  0  0  0  0
   23.4388  -21.0348  -16.1737 C   0  0  0  0  0  0  0  0  0  0  0  0
   23.5875  -21.5662  -17.3262 O   0  0  0  0  0  0  0  0  0  0  0  0
   20.8169  -22.1188  -13.0224 O   0  0  0  0  0  0  0  0  0  0  0  0
   22.6904  -19.8763  -16.1344 O   0  0  0  0  0  0  0  0  0  0  0  0
  2 13  1  0
  2  1  1  6
  3  2  1  0
  4 12  1  0
  4  3  1  0
  5  4  2  0
  6  5  1  0
  6  7  1  0
  7 12  2  0
  8  7  1  0
  8  9  2  0
  9 10  1  0
 10 11  2  0
 12 11  1  0
 13 14  2  0
 15 13  1  0
 15 16  1  0
 16 17  1  6
 18 17  1  0
 19 21  1  0
 19 16  1  0
 20 19  2  0
 22 23  1  1
 22 21  1  0
 23 24  1  0
 24 25  2  0
 24 28  1  0
 26 22  1  0
 26 29  1  0
 27 26  2  0
M  END
$$$$
