WCD.pdb
     RDKit          3D

 29 30  0  0  1  0  0  0  0  0999 V2000
   26.2419  -22.8240  -12.1599 N   0  0  0  0  0  0  0  0  0  0  0  0
   25.6457  -21.7166  -11.4562 C   0  0  1  0  0  0  0  0  0  0  0  0
   26.4808  -20.4845  -11.3765 C   0  0  0  0  0  0  0  0  0  0  0  0
   27.6737  -20.6907  -10.4899 C   0  0  0  0  0  0  0  0  0  0  0  0
   28.9115  -21.1885  -10.8125 C   0  0  0  0  0  0  0  0  0  0  0  0
   29.7111  -21.1801   -9.7067 N   0  0  0  0  0  0  0  0  0  0  0  0
   28.9994  -20.6837   -8.6824 C   0  0  0  0  0  0  0  0  0  0  0  0
   29.3328  -20.4721   -7.3404 C   0  0  0  0  0  0  0  0  0  0  0  0
   28.4188  -19.9617   -6.4766 C   0  0  0  0  0  0  0  0  0  0  0  0
   27.1632  -19.6482   -6.9051 C   0  0  0  0  0  0  0  0  0  0  0  0
   26.8264  -19.8559   -8.2399 C   0  0  0  0  0  0  0  0  0  0  0  0
   27.7372  -20.3716   -9.1322 C   0  0  0  0  0  0  0  0  0  0  0  0
   24.2902  -21.4512  -12.0119 C   0  0  0  0  0  0  0  0  0  0  0  0
   24.1050  -21.6340  -13.2558 O   0  0  0  0  0  0  0  0  0  0  0  0
   23.1778  -21.0074  -11.2796 N   0  0  0  0  0  0  0  0  0  0  0  0
   21.8284  -21.1069  -11.8017 C   0  0  1  0  0  0  0  0  0  0  0  0
   20.7716  -21.2944  -10.7767 C   0  0  0  0  0  0  0  0  0  0  0  0
   21.0137  -20.2586   -9.3128 S   0  0  0  0  0  0  0  0  0  0  0  0
   21.5913  -19.9359  -12.7025 C   0  0  0  0  0  0  0  0  0  0  0  0
   21.8200  -18.7801  -12.2744 O   0  0  0  0  0  0  0  0  0  0  0  0
   21.1197  -20.0436  -14.0320 N   0  0  0  0  0  0  0  0  0  0  0  0
   20.8497  -18.8432  -14.8433 C   0  0  1  0  0  0  0  0  0  0  0  0
   21.2081  -19.1804  -16.2746 C   0  0  0  0  0  0  0  0  0  0  0  0
   20.9254  -18.1505  -17.2474 C   0  0  0  0  0  0  0  0  0  0  0  0
   20.8824  -18.3670  -18.4661 O   0  0  0  0  0  0  0  0  0  0  0  0
   19.4099  -18.5235  -14.7525 C   0  0  0  0  0  0  0  0  0  0  0  0
   18.5351  -19.4547  -14.7342 O   0  0  0  0  0  0  0  0  0  0  0  0
   20.6870  -16.8362  -16.8003 O   0  0  0  0  0  0  0  0  0  0  0  0
   18.9221  -17.2347  -14.6824 O   0  0  0  0  0  0  0  0  0  0  0  0
  2 13  1  0
  2  1  1  6
  3  2  1  0
  4 12  1  0
  4  3  1  0
  5  4  2  0
  6  5  1  0
  6  7  1  0
  7 12  2  0
  8  7  1  0
  8  9  2  0
  9 10  1  0
 10 11  2  0
 12 11  1  0
 13 14  2  0
 15 13  1  0
 15 16  1  0
 16 17  1  1
 18 17  1  0
 19 21  1  0
 19 16  1  0
 20 19  2  0
 22 23  1  6
 22 21  1  0
 23 24  1  0
 24 25  2  0
 24 28  1  0
 26 22  1  0
 26 29  1  0
 27 26  2  0
M  END
$$$$
