WCD.pdb
     RDKit          3D

 29 30  0  0  1  0  0  0  0  0999 V2000
   25.5824  -20.8561  -11.3335 N   0  0  0  0  0  0  0  0  0  0  0  0
   24.7250  -20.6370  -12.4710 C   0  0  1  0  0  0  0  0  0  0  0  0
   25.1730  -21.2733  -13.7423 C   0  0  0  0  0  0  0  0  0  0  0  0
   26.4861  -20.7101  -14.2008 C   0  0  0  0  0  0  0  0  0  0  0  0
   27.7384  -21.2657  -14.1172 C   0  0  0  0  0  0  0  0  0  0  0  0
   28.6519  -20.4235  -14.6817 N   0  0  0  0  0  0  0  0  0  0  0  0
   27.9986  -19.3373  -15.1241 C   0  0  0  0  0  0  0  0  0  0  0  0
   28.4547  -18.1790  -15.7622 C   0  0  0  0  0  0  0  0  0  0  0  0
   27.5854  -17.1948  -16.1054 C   0  0  0  0  0  0  0  0  0  0  0  0
   26.2557  -17.3217  -15.8330 C   0  0  0  0  0  0  0  0  0  0  0  0
   25.7962  -18.4729  -15.1990 C   0  0  0  0  0  0  0  0  0  0  0  0
   26.6596  -19.4825  -14.8428 C   0  0  0  0  0  0  0  0  0  0  0  0
   23.3270  -21.0025  -12.1126 C   0  0  0  0  0  0  0  0  0  0  0  0
   23.1410  -22.0387  -11.4008 O   0  0  0  0  0  0  0  0  0  0  0  0
   22.1735  -20.3001  -12.4959 N   0  0  0  0  0  0  0  0  0  0  0  0
   20.8439  -20.7649  -12.1499 C   0  0  1  0  0  0  0  0  0  0  0  0
   20.2998  -20.2206  -10.8810 C   0  0  0  0  0  0  0  0  0  0  0  0
   21.2103  -18.7759  -10.2824 S   0  0  0  0  0  0  0  0  0  0  0  0
   19.9522  -20.5429  -13.3307 C   0  0  0  0  0  0  0  0  0  0  0  0
   20.0640  -19.4821  -13.9893 O   0  0  0  0  0  0  0  0  0  0  0  0
   18.9731  -21.4662  -13.7670 N   0  0  0  0  0  0  0  0  0  0  0  0
   18.1842  -21.2192  -14.9871 C   0  0  1  0  0  0  0  0  0  0  0  0
   17.4579  -22.5050  -15.3185 C   0  0  0  0  0  0  0  0  0  0  0  0
   16.7737  -23.1370  -14.2143 C   0  0  0  0  0  0  0  0  0  0  0  0
   16.0898  -22.5081  -13.3952 O   0  0  0  0  0  0  0  0  0  0  0  0
   17.2026  -20.1502  -14.7088 C   0  0  0  0  0  0  0  0  0  0  0  0
   17.0342  -19.7131  -13.5200 O   0  0  0  0  0  0  0  0  0  0  0  0
   16.8833  -24.5319  -14.0518 O   0  0  0  0  0  0  0  0  0  0  0  0
   16.4217  -19.5650  -15.6842 O   0  0  0  0  0  0  0  0  0  0  0  0
  2 13  1  0
  2  1  1  1
  3  2  1  0
  4 12  1  0
  4  3  1  0
  5  4  2  0
  6  5  1  0
  6  7  1  0
  7 12  2  0
  8  7  1  0
  8  9  2  0
  9 10  1  0
 10 11  2  0
 12 11  1  0
 13 14  2  0
 15 13  1  0
 15 16  1  0
 16 17  1  1
 18 17  1  0
 19 21  1  0
 19 16  1  0
 20 19  2  0
 22 23  1  1
 22 21  1  0
 23 24  1  0
 24 25  2  0
 24 28  1  0
 26 22  1  0
 26 29  1  0
 27 26  2  0
M  END
$$$$
