WCD.pdb
     RDKit          3D

 29 30  0  0  1  0  0  0  0  0999 V2000
   27.2161  -18.5474  -17.4370 N   0  0  0  0  0  0  0  0  0  0  0  0
   26.8219  -18.0199  -16.1551 C   0  0  1  0  0  0  0  0  0  0  0  0
   25.5798  -17.1960  -16.1564 C   0  0  0  0  0  0  0  0  0  0  0  0
   25.7588  -15.9409  -16.9590 C   0  0  0  0  0  0  0  0  0  0  0  0
   25.0838  -15.5325  -18.0822 C   0  0  0  0  0  0  0  0  0  0  0  0
   25.5468  -14.3107  -18.4761 N   0  0  0  0  0  0  0  0  0  0  0  0
   26.5089  -13.9342  -17.6188 C   0  0  0  0  0  0  0  0  0  0  0  0
   27.3096  -12.7881  -17.5714 C   0  0  0  0  0  0  0  0  0  0  0  0
   28.2414  -12.6397  -16.5958 C   0  0  0  0  0  0  0  0  0  0  0  0
   28.4097  -13.6055  -15.6486 C   0  0  0  0  0  0  0  0  0  0  0  0
   27.6149  -14.7478  -15.6905 C   0  0  0  0  0  0  0  0  0  0  0  0
   26.6645  -14.9184  -16.6700 C   0  0  0  0  0  0  0  0  0  0  0  0
   26.7703  -19.1269  -15.1608 C   0  0  0  0  0  0  0  0  0  0  0  0
   26.2450  -20.2284  -15.5154 O   0  0  0  0  0  0  0  0  0  0  0  0
   27.2530  -19.0674  -13.8439 N   0  0  0  0  0  0  0  0  0  0  0  0
   27.0527  -20.1548  -12.9054 C   0  0  1  0  0  0  0  0  0  0  0  0
   28.1924  -20.4111  -11.9899 C   0  0  0  0  0  0  0  0  0  0  0  0
   29.6987  -20.9130  -12.8580 S   0  0  0  0  0  0  0  0  0  0  0  0
   25.7538  -19.9254  -12.1988 C   0  0  0  0  0  0  0  0  0  0  0  0
   25.4343  -18.7581  -11.8722 O   0  0  0  0  0  0  0  0  0  0  0  0
   24.8406  -20.9544  -11.8688 N   0  0  0  0  0  0  0  0  0  0  0  0
   23.5381  -20.6468  -11.2517 C   0  0  1  0  0  0  0  0  0  0  0  0
   22.4908  -21.4494  -11.9930 C   0  0  0  0  0  0  0  0  0  0  0  0
   21.1498  -21.3656  -11.4624 C   0  0  0  0  0  0  0  0  0  0  0  0
   20.8628  -20.7047  -10.4549 O   0  0  0  0  0  0  0  0  0  0  0  0
   23.5745  -21.0640   -9.8346 C   0  0  0  0  0  0  0  0  0  0  0  0
   24.3132  -22.0370   -9.4601 O   0  0  0  0  0  0  0  0  0  0  0  0
   20.1137  -22.0645  -12.1122 O   0  0  0  0  0  0  0  0  0  0  0  0
   22.8355  -20.4504   -8.8441 O   0  0  0  0  0  0  0  0  0  0  0  0
  2 13  1  0
  2  1  1  6
  3  2  1  0
  4 12  1  0
  4  3  1  0
  5  4  2  0
  6  5  1  0
  6  7  1  0
  7 12  2  0
  8  7  1  0
  8  9  2  0
  9 10  1  0
 10 11  2  0
 12 11  1  0
 13 14  2  0
 15 13  1  0
 15 16  1  0
 16 17  1  1
 18 17  1  0
 19 21  1  0
 19 16  1  0
 20 19  2  0
 22 23  1  6
 22 21  1  0
 23 24  1  0
 24 25  2  0
 24 28  1  0
 26 22  1  0
 26 29  1  0
 27 26  2  0
M  END
$$$$
