IGT.pdb
     RDKit          3D

 20 19  0  0  1  0  0  0  0  0999 V2000
    5.6765  -11.5713   26.5852 C   0  0  0  0  0  0  0  0  0  0  0  0
    5.4438  -12.8533   25.7661 C   0  0  0  0  0  0  0  0  0  0  0  0
    6.7875  -13.5161   25.6572 C   0  0  2  0  0  0  0  0  0  0  0  0
    7.8091  -12.6150   25.0180 C   0  0  0  0  0  0  0  0  0  0  0  0
    6.6941  -14.7981   24.9067 C   0  0  2  0  0  0  0  0  0  0  0  0
    5.6168  -15.5876   25.4911 N   0  0  0  0  0  0  0  0  0  0  0  0
    7.9336  -15.5649   24.7781 C   0  0  0  0  0  0  0  0  0  0  0  0
    8.1075  -16.6098   25.4507 O   0  0  0  0  0  0  0  0  0  0  0  0
    9.0108  -15.2095   23.9135 N   0  0  0  0  0  0  0  0  0  0  0  0
   10.1598  -16.0669   23.7364 C   0  0  0  0  0  0  0  0  0  0  0  0
   11.0164  -16.1181   24.9406 C   0  0  0  0  0  0  0  0  0  0  0  0
   12.2459  -16.4083   24.8860 O   0  0  0  0  0  0  0  0  0  0  0  0
   10.6058  -13.4747   28.0909 C   0  0  0  0  0  0  0  0  0  0  0  0
   10.5468  -14.9389   28.4847 C   0  0  1  0  0  0  0  0  0  0  0  0
    9.2203  -15.2635   28.7024 O   0  0  0  0  0  0  0  0  0  0  0  0
   11.1836  -15.8259   27.4399 C   0  0  2  0  0  0  0  0  0  0  0  0
   10.4616  -15.8366   26.2035 N   0  0  0  0  0  0  0  0  0  0  0  0
   11.1742  -17.2116   27.9901 C   0  0  0  0  0  0  0  0  0  0  0  0
   10.5584  -18.1515   27.4217 O   0  0  0  0  0  0  0  0  0  0  0  0
   11.8465  -17.5335   29.1601 O   0  0  0  0  0  0  0  0  0  0  0  0
  2  3  1  0
  2  1  1  0
  3  4  1  6
  5  3  1  0
  5  6  1  1
  7  8  2  0
  7  5  1  0
  9  7  1  0
 10  9  1  0
 10 11  1  0
 11 17  1  0
 12 11  2  0
 14 15  1  0
 14 13  1  6
 16 14  1  0
 16 18  1  0
 16 17  1  6
 18 19  2  0
 18 20  1  0
M  END
$$$$
