IGT.pdb
     RDKit          3D

 20 19  0  0  1  0  0  0  0  0999 V2000
    8.0095  -12.3607   19.2594 C   0  0  0  0  0  0  0  0  0  0  0  0
    8.8392  -13.3652   20.0785 C   0  0  0  0  0  0  0  0  0  0  0  0
    7.8496  -14.1202   20.9196 C   0  0  2  0  0  0  0  0  0  0  0  0
    7.0709  -13.2073   21.8277 C   0  0  0  0  0  0  0  0  0  0  0  0
    8.5224  -15.1828   21.7157 C   0  0  2  0  0  0  0  0  0  0  0  0
    9.3498  -15.9713   20.8106 N   0  0  0  0  0  0  0  0  0  0  0  0
    7.6531  -16.0216   22.5414 C   0  0  0  0  0  0  0  0  0  0  0  0
    7.0792  -17.0221   22.0475 O   0  0  0  0  0  0  0  0  0  0  0  0
    7.3904  -15.7880   23.9237 N   0  0  0  0  0  0  0  0  0  0  0  0
    6.4833  -16.6218   24.6778 C   0  0  0  0  0  0  0  0  0  0  0  0
    7.1860  -17.6829   25.4305 C   0  0  0  0  0  0  0  0  0  0  0  0
    6.5807  -18.4805   26.2027 O   0  0  0  0  0  0  0  0  0  0  0  0
    9.8355  -20.1031   23.7596 C   0  0  0  0  0  0  0  0  0  0  0  0
   10.4338  -19.3981   24.9627 C   0  0  1  0  0  0  0  0  0  0  0  0
   11.2605  -18.3933   24.4943 O   0  0  0  0  0  0  0  0  0  0  0  0
    9.3648  -18.8670   25.8895 C   0  0  2  0  0  0  0  0  0  0  0  0
    8.5800  -17.8268   25.2961 N   0  0  0  0  0  0  0  0  0  0  0  0
   10.0685  -18.2944   27.0727 C   0  0  0  0  0  0  0  0  0  0  0  0
   10.0003  -17.0709   27.3623 O   0  0  0  0  0  0  0  0  0  0  0  0
   10.8356  -19.0858   27.9151 O   0  0  0  0  0  0  0  0  0  0  0  0
  2  3  1  0
  2  1  1  0
  3  4  1  1
  5  3  1  0
  5  6  1  6
  7  8  2  0
  7  5  1  0
  9  7  1  0
 10  9  1  0
 10 11  1  0
 11 17  1  0
 12 11  2  0
 14 15  1  0
 14 13  1  6
 16 14  1  0
 16 18  1  0
 16 17  1  6
 18 19  2  0
 18 20  1  0
M  END
$$$$
