IGT.pdb
     RDKit          3D

 20 19  0  0  1  0  0  0  0  0999 V2000
    7.2202  -12.8247   17.7767 C   0  0  0  0  0  0  0  0  0  0  0  0
    8.2536  -13.7574   18.4330 C   0  0  0  0  0  0  0  0  0  0  0  0
    7.8303  -13.8878   19.8684 C   0  0  2  0  0  0  0  0  0  0  0  0
    7.8854  -12.5702   20.5931 C   0  0  0  0  0  0  0  0  0  0  0  0
    8.6566  -14.8998   20.5816 C   0  0  2  0  0  0  0  0  0  0  0  0
    8.4576  -16.1883   19.9292 N   0  0  0  0  0  0  0  0  0  0  0  0
    8.4731  -14.9805   22.0311 C   0  0  0  0  0  0  0  0  0  0  0  0
    8.8126  -14.0243   22.7691 O   0  0  0  0  0  0  0  0  0  0  0  0
    7.9154  -16.1055   22.7076 N   0  0  0  0  0  0  0  0  0  0  0  0
    7.7207  -16.1134   24.1390 C   0  0  0  0  0  0  0  0  0  0  0  0
    8.9660  -15.8175   24.8793 C   0  0  0  0  0  0  0  0  0  0  0  0
   10.1115  -16.0704   24.4074 O   0  0  0  0  0  0  0  0  0  0  0  0
    9.2184  -12.4849   27.4609 C   0  0  0  0  0  0  0  0  0  0  0  0
    9.6401  -13.8285   28.0261 C   0  0  1  0  0  0  0  0  0  0  0  0
    8.6012  -14.3024   28.8061 O   0  0  0  0  0  0  0  0  0  0  0  0
   10.0186  -14.8017   26.9336 C   0  0  2  0  0  0  0  0  0  0  0  0
    8.8949  -15.2327   26.1580 N   0  0  0  0  0  0  0  0  0  0  0  0
   10.5988  -15.9985   27.6073 C   0  0  0  0  0  0  0  0  0  0  0  0
   10.0274  -17.1204   27.5839 O   0  0  0  0  0  0  0  0  0  0  0  0
   11.8015  -15.9333   28.2956 O   0  0  0  0  0  0  0  0  0  0  0  0
  2  3  1  0
  2  1  1  0
  3  4  1  1
  5  3  1  0
  5  6  1  6
  7  8  2  0
  7  5  1  0
  9  7  1  0
 10  9  1  0
 10 11  1  0
 11 17  1  0
 12 11  2  0
 14 15  1  0
 14 13  1  6
 16 14  1  0
 16 18  1  0
 16 17  1  1
 18 19  2  0
 18 20  1  0
M  END
$$$$
