IGT.pdb
     RDKit          3D

 20 19  0  0  1  0  0  0  0  0999 V2000
    7.3241  -11.7739   19.0122 C   0  0  0  0  0  0  0  0  0  0  0  0
    7.5611  -13.2594   18.6870 C   0  0  0  0  0  0  0  0  0  0  0  0
    8.5774  -13.7372   19.6849 C   0  0  2  0  0  0  0  0  0  0  0  0
    9.8626  -12.9597   19.5951 C   0  0  0  0  0  0  0  0  0  0  0  0
    8.8463  -15.1921   19.5220 C   0  0  2  0  0  0  0  0  0  0  0  0
    7.5778  -15.9022   19.6320 N   0  0  0  0  0  0  0  0  0  0  0  0
    9.8754  -15.7618   20.3924 C   0  0  0  0  0  0  0  0  0  0  0  0
   11.0837  -15.4683   20.2246 O   0  0  0  0  0  0  0  0  0  0  0  0
    9.6096  -16.6638   21.4647 N   0  0  0  0  0  0  0  0  0  0  0  0
   10.6339  -17.0477   22.4083 C   0  0  0  0  0  0  0  0  0  0  0  0
   10.3193  -16.6188   23.7880 C   0  0  0  0  0  0  0  0  0  0  0  0
   10.5883  -15.4595   24.2153 O   0  0  0  0  0  0  0  0  0  0  0  0
    7.2948  -15.8106   25.4555 C   0  0  0  0  0  0  0  0  0  0  0  0
    7.7985  -17.0588   26.1562 C   0  0  1  0  0  0  0  0  0  0  0  0
    7.1112  -18.1403   25.6360 O   0  0  0  0  0  0  0  0  0  0  0  0
    9.2947  -17.2159   26.0136 C   0  0  2  0  0  0  0  0  0  0  0  0
    9.6976  -17.5194   24.6735 N   0  0  0  0  0  0  0  0  0  0  0  0
    9.6907  -18.3604   26.8833 C   0  0  0  0  0  0  0  0  0  0  0  0
   10.1459  -19.4339   26.4079 O   0  0  0  0  0  0  0  0  0  0  0  0
    9.5761  -18.2972   28.2643 O   0  0  0  0  0  0  0  0  0  0  0  0
  2  3  1  0
  2  1  1  0
  3  4  1  6
  5  3  1  0
  5  6  1  1
  7  8  2  0
  7  5  1  0
  9  7  1  0
 10  9  1  0
 10 11  1  0
 11 17  1  0
 12 11  2  0
 14 15  1  0
 14 13  1  6
 16 14  1  0
 16 18  1  0
 16 17  1  6
 18 19  2  0
 18 20  1  0
M  END
$$$$
