IGT.pdb
     RDKit          3D

 20 19  0  0  1  0  0  0  0  0999 V2000
    7.0136  -11.8589   27.6840 C   0  0  0  0  0  0  0  0  0  0  0  0
    6.2690  -13.0008   26.9696 C   0  0  0  0  0  0  0  0  0  0  0  0
    7.0958  -13.3313   25.7596 C   0  0  2  0  0  0  0  0  0  0  0  0
    7.3028  -12.1317   24.8751 C   0  0  0  0  0  0  0  0  0  0  0  0
    6.4857  -14.4432   24.9805 C   0  0  2  0  0  0  0  0  0  0  0  0
    6.3799  -15.6045   25.8555 N   0  0  0  0  0  0  0  0  0  0  0  0
    7.1268  -14.7686   23.7060 C   0  0  0  0  0  0  0  0  0  0  0  0
    7.3174  -13.8768   22.8442 O   0  0  0  0  0  0  0  0  0  0  0  0
    7.5741  -16.0734   23.3431 N   0  0  0  0  0  0  0  0  0  0  0  0
    8.2772  -16.3205   22.1056 C   0  0  0  0  0  0  0  0  0  0  0  0
    9.6222  -16.8940   22.3257 C   0  0  0  0  0  0  0  0  0  0  0  0
   10.4165  -17.1441   21.3741 O   0  0  0  0  0  0  0  0  0  0  0  0
   12.5594  -15.5204   24.2551 C   0  0  0  0  0  0  0  0  0  0  0  0
   12.0954  -16.7937   24.9377 C   0  0  1  0  0  0  0  0  0  0  0  0
   11.3276  -16.4309   26.0291 O   0  0  0  0  0  0  0  0  0  0  0  0
   11.3410  -17.6953   23.9881 C   0  0  2  0  0  0  0  0  0  0  0  0
   10.0529  -17.1792   23.6354 N   0  0  0  0  0  0  0  0  0  0  0  0
   11.1391  -18.9916   24.6965 C   0  0  0  0  0  0  0  0  0  0  0  0
   12.1041  -19.7332   25.0195 O   0  0  0  0  0  0  0  0  0  0  0  0
    9.8725  -19.4449   25.0353 O   0  0  0  0  0  0  0  0  0  0  0  0
  2  3  1  0
  2  1  1  0
  3  4  1  6
  5  3  1  0
  5  6  1  1
  7  8  2  0
  7  5  1  0
  9  7  1  0
 10  9  1  0
 10 11  1  0
 11 17  1  0
 12 11  2  0
 14 15  1  0
 14 13  1  6
 16 14  1  0
 16 18  1  0
 16 17  1  1
 18 19  2  0
 18 20  1  0
M  END
$$$$
