IGT.pdb
     RDKit          3D

 20 19  0  0  1  0  0  0  0  0999 V2000
    5.4475  -11.2654   26.7728 C   0  0  0  0  0  0  0  0  0  0  0  0
    5.2211  -12.5627   25.9763 C   0  0  0  0  0  0  0  0  0  0  0  0
    6.5914  -13.0755   25.6357 C   0  0  2  0  0  0  0  0  0  0  0  0
    7.4056  -12.0528   24.8904 C   0  0  0  0  0  0  0  0  0  0  0  0
    6.5121  -14.3380   24.8512 C   0  0  2  0  0  0  0  0  0  0  0  0
    5.8898  -15.3545   25.6907 N   0  0  0  0  0  0  0  0  0  0  0  0
    7.7614  -14.8067   24.2508 C   0  0  0  0  0  0  0  0  0  0  0  0
    8.3900  -14.0810   23.4428 O   0  0  0  0  0  0  0  0  0  0  0  0
    8.3529  -16.0767   24.5179 N   0  0  0  0  0  0  0  0  0  0  0  0
    9.6452  -16.4420   23.9855 C   0  0  0  0  0  0  0  0  0  0  0  0
   10.6934  -16.4836   25.0277 C   0  0  0  0  0  0  0  0  0  0  0  0
   11.9228  -16.5819   24.7490 O   0  0  0  0  0  0  0  0  0  0  0  0
   10.7286  -13.9703   28.0951 C   0  0  0  0  0  0  0  0  0  0  0  0
   10.7862  -15.4082   28.5767 C   0  0  1  0  0  0  0  0  0  0  0  0
    9.5327  -15.7427   29.0554 O   0  0  0  0  0  0  0  0  0  0  0  0
   11.2452  -16.3465   27.4846 C   0  0  2  0  0  0  0  0  0  0  0  0
   10.3296  -16.4125   26.3858 N   0  0  0  0  0  0  0  0  0  0  0  0
   11.3311  -17.7046   28.0940 C   0  0  0  0  0  0  0  0  0  0  0  0
   10.5946  -18.6535   27.7164 O   0  0  0  0  0  0  0  0  0  0  0  0
   12.2308  -17.9891   29.1109 O   0  0  0  0  0  0  0  0  0  0  0  0
  2  3  1  0
  2  1  1  0
  3  4  1  6
  5  3  1  0
  5  6  1  1
  7  8  2  0
  7  5  1  0
  9  7  1  0
 10  9  1  0
 10 11  1  0
 11 17  1  0
 12 11  2  0
 14 15  1  0
 14 13  1  6
 16 14  1  0
 16 18  1  0
 16 17  1  6
 18 19  2  0
 18 20  1  0
M  END
$$$$
