IGT.pdb
     RDKit          3D

 20 19  0  0  1  0  0  0  0  0999 V2000
    7.8546  -11.4756   26.4435 C   0  0  0  0  0  0  0  0  0  0  0  0
    7.6729  -12.8473   27.1172 C   0  0  0  0  0  0  0  0  0  0  0  0
    7.5715  -13.8413   25.9954 C   0  0  2  0  0  0  0  0  0  0  0  0
    6.4576  -13.5021   25.0421 C   0  0  0  0  0  0  0  0  0  0  0  0
    7.3954  -15.2239   26.5180 C   0  0  2  0  0  0  0  0  0  0  0  0
    8.3846  -15.4411   27.5666 N   0  0  0  0  0  0  0  0  0  0  0  0
    7.3998  -16.2974   25.5236 C   0  0  0  0  0  0  0  0  0  0  0  0
    8.4158  -17.0175   25.3700 O   0  0  0  0  0  0  0  0  0  0  0  0
    6.2968  -16.6093   24.6749 N   0  0  0  0  0  0  0  0  0  0  0  0
    6.3489  -17.6990   23.7281 C   0  0  0  0  0  0  0  0  0  0  0  0
    7.2225  -17.4013   22.5728 C   0  0  0  0  0  0  0  0  0  0  0  0
    7.4008  -18.2229   21.6283 O   0  0  0  0  0  0  0  0  0  0  0  0
    6.8055  -14.4134   20.4272 C   0  0  0  0  0  0  0  0  0  0  0  0
    8.2629  -14.3911   20.8491 C   0  0  1  0  0  0  0  0  0  0  0  0
    8.4217  -13.3644   21.7617 O   0  0  0  0  0  0  0  0  0  0  0  0
    8.7036  -15.7229   21.4113 C   0  0  2  0  0  0  0  0  0  0  0  0
    7.8891  -16.1632   22.5034 N   0  0  0  0  0  0  0  0  0  0  0  0
   10.0926  -15.5354   21.9197 C   0  0  0  0  0  0  0  0  0  0  0  0
   10.3767  -15.6449   23.1415 O   0  0  0  0  0  0  0  0  0  0  0  0
   11.1434  -15.2299   21.0671 O   0  0  0  0  0  0  0  0  0  0  0  0
  2  3  1  0
  2  1  1  0
  3  4  1  6
  5  3  1  0
  5  6  1  1
  7  8  2  0
  7  5  1  0
  9  7  1  0
 10  9  1  0
 10 11  1  0
 11 17  1  0
 12 11  2  0
 14 15  1  0
 14 13  1  1
 16 14  1  0
 16 18  1  0
 16 17  1  1
 18 19  2  0
 18 20  1  0
M  END
$$$$
