IGT.pdb
     RDKit          3D

 20 19  0  0  1  0  0  0  0  0999 V2000
    7.6986  -11.9254   20.6195 C   0  0  0  0  0  0  0  0  0  0  0  0
    7.1419  -13.2854   21.0767 C   0  0  0  0  0  0  0  0  0  0  0  0
    8.0126  -14.3214   20.4244 C   0  0  2  0  0  0  0  0  0  0  0  0
    7.9982  -14.2049   18.9243 C   0  0  0  0  0  0  0  0  0  0  0  0
    7.6119  -15.6948   20.8355 C   0  0  2  0  0  0  0  0  0  0  0  0
    6.3183  -15.9892   20.2310 N   0  0  0  0  0  0  0  0  0  0  0  0
    7.6255  -15.9704   22.2725 C   0  0  0  0  0  0  0  0  0  0  0  0
    6.6076  -15.7492   22.9720 O   0  0  0  0  0  0  0  0  0  0  0  0
    8.7492  -16.4932   22.9784 N   0  0  0  0  0  0  0  0  0  0  0  0
    8.7050  -16.7456   24.4001 C   0  0  0  0  0  0  0  0  0  0  0  0
    9.5845  -15.8336   25.1626 C   0  0  0  0  0  0  0  0  0  0  0  0
   10.4800  -15.1343   24.6077 O   0  0  0  0  0  0  0  0  0  0  0  0
    9.0273  -12.6958   27.0436 C   0  0  0  0  0  0  0  0  0  0  0  0
    9.3928  -13.7754   28.0453 C   0  0  1  0  0  0  0  0  0  0  0  0
    8.2181  -14.2545   28.5957 O   0  0  0  0  0  0  0  0  0  0  0  0
   10.2111  -14.8754   27.4096 C   0  0  2  0  0  0  0  0  0  0  0  0
    9.4351  -15.7258   26.5583 N   0  0  0  0  0  0  0  0  0  0  0  0
   10.7500  -15.7075   28.5232 C   0  0  0  0  0  0  0  0  0  0  0  0
   10.3866  -16.8997   28.7020 O   0  0  0  0  0  0  0  0  0  0  0  0
   11.6820  -15.2057   29.4199 O   0  0  0  0  0  0  0  0  0  0  0  0
  2  3  1  0
  2  1  1  0
  3  4  1  6
  5  3  1  0
  5  6  1  1
  7  8  2  0
  7  5  1  0
  9  7  1  0
 10  9  1  0
 10 11  1  0
 11 17  1  0
 12 11  2  0
 14 15  1  0
 14 13  1  6
 16 14  1  0
 16 18  1  0
 16 17  1  6
 18 19  2  0
 18 20  1  0
M  END
$$$$
