HHG.pdb
     RDKit          3D

 25 26  0  0  1  0  0  0  0  0999 V2000
   11.9924  -13.8192   19.9929 N   0  0  0  0  0  0  0  0  0  0  0  0
   10.6859  -14.3602   20.3087 C   0  0  1  0  0  0  0  0  0  0  0  0
   10.2794  -15.4244   19.3144 C   0  0  0  0  0  0  0  0  0  0  0  0
    9.3962  -14.7971   18.2969 C   0  0  0  0  0  0  0  0  0  0  0  0
    9.0643  -13.4517   18.2430 C   0  0  0  0  0  0  0  0  0  0  0  0
    8.2513  -13.2859   17.1847 N   0  0  0  0  0  0  0  0  0  0  0  0
    8.0529  -14.4478   16.5704 C   0  0  0  0  0  0  0  0  0  0  0  0
    8.7599  -15.3652   17.2620 N   0  0  0  0  0  0  0  0  0  0  0  0
   10.7039  -14.9169   21.6944 C   0  0  0  0  0  0  0  0  0  0  0  0
   11.7378  -14.8715   22.3990 O   0  0  0  0  0  0  0  0  0  0  0  0
    9.5501  -15.5060   22.2345 N   0  0  0  0  0  0  0  0  0  0  0  0
    9.4143  -16.0409   23.5520 C   0  0  1  0  0  0  0  0  0  0  0  0
    8.0314  -16.0532   24.0992 C   0  0  0  0  0  0  0  0  0  0  0  0
    7.6382  -14.6930   24.5287 C   0  0  0  0  0  0  0  0  0  0  0  0
    8.4075  -13.5778   24.7330 C   0  0  0  0  0  0  0  0  0  0  0  0
    7.5828  -12.5932   25.1171 N   0  0  0  0  0  0  0  0  0  0  0  0
    6.3115  -13.0371   25.1667 C   0  0  0  0  0  0  0  0  0  0  0  0
    6.3759  -14.3294   24.8004 N   0  0  0  0  0  0  0  0  0  0  0  0
    9.9256  -17.4599   23.4947 C   0  0  0  0  0  0  0  0  0  0  0  0
   10.0064  -18.1850   24.5189 O   0  0  0  0  0  0  0  0  0  0  0  0
   10.3406  -18.0386   22.2672 N   0  0  0  0  0  0  0  0  0  0  0  0
   10.7985  -19.4350   22.2262 C   0  0  0  0  0  0  0  0  0  0  0  0
   12.2670  -19.4742   22.3012 C   0  0  0  0  0  0  0  0  0  0  0  0
   12.8699  -18.7221   23.0994 O   0  0  0  0  0  0  0  0  0  0  0  0
   13.0509  -20.3174   21.5197 O   0  0  0  0  0  0  0  0  0  0  0  0
  2  1  1  6
  2  9  1  0
  3  2  1  0
  4  3  1  0
  5  4  2  0
  6  5  1  0
  7  8  2  0
  7  6  1  0
  8  4  1  0
  9 10  2  0
 11 12  1  0
 11  9  1  0
 12 19  1  0
 13 14  1  0
 12 13  1  6
 14 15  2  0
 15 16  1  0
 17 16  1  0
 18 14  1  0
 18 17  2  0
 19 21  1  0
 20 19  2  0
 21 22  1  0
 23 22  1  0
 24 23  2  0
 25 23  1  0
M  END
$$$$
