HHG.pdb
     RDKit          3D

 25 26  0  0  1  0  0  0  0  0999 V2000
   12.7360  -16.3656   18.9641 N   0  0  0  0  0  0  0  0  0  0  0  0
   13.1126  -15.0273   19.3720 C   0  0  1  0  0  0  0  0  0  0  0  0
   13.1972  -14.0964   18.1835 C   0  0  0  0  0  0  0  0  0  0  0  0
   14.1718  -14.6647   17.2160 C   0  0  0  0  0  0  0  0  0  0  0  0
   13.8436  -15.3452   16.0532 C   0  0  0  0  0  0  0  0  0  0  0  0
   14.9983  -15.6952   15.4591 N   0  0  0  0  0  0  0  0  0  0  0  0
   16.0327  -15.2746   16.1802 C   0  0  0  0  0  0  0  0  0  0  0  0
   15.5122  -14.6449   17.2538 N   0  0  0  0  0  0  0  0  0  0  0  0
   12.1229  -14.5177   20.3676 C   0  0  0  0  0  0  0  0  0  0  0  0
   12.2088  -13.3590   20.8339 O   0  0  0  0  0  0  0  0  0  0  0  0
   11.0699  -15.3382   20.8010 N   0  0  0  0  0  0  0  0  0  0  0  0
   10.0428  -14.9744   21.7246 C   0  0  1  0  0  0  0  0  0  0  0  0
    8.6505  -15.2279   21.2672 C   0  0  0  0  0  0  0  0  0  0  0  0
    8.3145  -14.3400   20.1323 C   0  0  0  0  0  0  0  0  0  0  0  0
    8.1800  -14.6279   18.7995 C   0  0  0  0  0  0  0  0  0  0  0  0
    7.8670  -13.4826   18.1770 N   0  0  0  0  0  0  0  0  0  0  0  0
    7.7959  -12.4699   19.0631 C   0  0  0  0  0  0  0  0  0  0  0  0
    8.0752  -13.0258   20.2553 N   0  0  0  0  0  0  0  0  0  0  0  0
   10.2928  -15.7719   22.9816 C   0  0  0  0  0  0  0  0  0  0  0  0
    9.5538  -15.6755   23.9945 O   0  0  0  0  0  0  0  0  0  0  0  0
   11.3855  -16.6730   23.0707 N   0  0  0  0  0  0  0  0  0  0  0  0
   11.5976  -17.4582   24.2953 C   0  0  0  0  0  0  0  0  0  0  0  0
   12.8187  -18.2665   24.1567 C   0  0  0  0  0  0  0  0  0  0  0  0
   13.8476  -17.7595   23.6563 O   0  0  0  0  0  0  0  0  0  0  0  0
   12.9058  -19.5962   24.5576 O   0  0  0  0  0  0  0  0  0  0  0  0
  2  1  1  6
  2  9  1  0
  3  2  1  0
  4  3  1  0
  5  4  2  0
  6  5  1  0
  7  8  2  0
  7  6  1  0
  8  4  1  0
  9 10  2  0
 11 12  1  0
 11  9  1  0
 12 19  1  0
 13 14  1  0
 12 13  1  6
 14 15  2  0
 15 16  1  0
 17 16  1  0
 18 14  1  0
 18 17  2  0
 19 21  1  0
 20 19  2  0
 21 22  1  0
 23 22  1  0
 24 23  2  0
 25 23  1  0
M  END
$$$$
