HHG.pdb
     RDKit          3D

 25 26  0  0  1  0  0  0  0  0999 V2000
   13.3742  -14.6558   18.0799 N   0  0  0  0  0  0  0  0  0  0  0  0
   12.6146  -15.6149   18.8561 C   0  0  1  0  0  0  0  0  0  0  0  0
   13.5243  -16.6205   19.5251 C   0  0  0  0  0  0  0  0  0  0  0  0
   14.0331  -17.5518   18.4846 C   0  0  0  0  0  0  0  0  0  0  0  0
   13.2795  -18.0901   17.4524 C   0  0  0  0  0  0  0  0  0  0  0  0
   14.0982  -18.8774   16.7325 N   0  0  0  0  0  0  0  0  0  0  0  0
   15.3219  -18.8656   17.2515 C   0  0  0  0  0  0  0  0  0  0  0  0
   15.2681  -18.0496   18.3244 N   0  0  0  0  0  0  0  0  0  0  0  0
   11.7967  -14.8896   19.8736 C   0  0  0  0  0  0  0  0  0  0  0  0
   12.1697  -13.7905   20.3430 O   0  0  0  0  0  0  0  0  0  0  0  0
   10.5843  -15.4341   20.3246 N   0  0  0  0  0  0  0  0  0  0  0  0
    9.6535  -14.8045   21.2064 C   0  0  1  0  0  0  0  0  0  0  0  0
    8.2429  -14.7770   20.7359 C   0  0  0  0  0  0  0  0  0  0  0  0
    8.1717  -14.2337   19.3615 C   0  0  0  0  0  0  0  0  0  0  0  0
    8.0917  -12.9353   18.9315 C   0  0  0  0  0  0  0  0  0  0  0  0
    8.0509  -12.9640   17.5918 N   0  0  0  0  0  0  0  0  0  0  0  0
    8.1019  -14.2349   17.1469 C   0  0  0  0  0  0  0  0  0  0  0  0
    8.1756  -14.9926   18.2555 N   0  0  0  0  0  0  0  0  0  0  0  0
    9.7151  -15.5634   22.5098 C   0  0  0  0  0  0  0  0  0  0  0  0
    8.9467  -15.3071   23.4715 O   0  0  0  0  0  0  0  0  0  0  0  0
   10.6547  -16.6092   22.7032 N   0  0  0  0  0  0  0  0  0  0  0  0
   10.7084  -17.3263   23.9854 C   0  0  0  0  0  0  0  0  0  0  0  0
   12.0279  -17.1294   24.6050 C   0  0  0  0  0  0  0  0  0  0  0  0
   12.8926  -16.4377   24.0218 O   0  0  0  0  0  0  0  0  0  0  0  0
   12.3865  -17.6782   25.8324 O   0  0  0  0  0  0  0  0  0  0  0  0
  2  1  1  1
  2  9  1  0
  3  2  1  0
  4  3  1  0
  5  4  2  0
  6  5  1  0
  7  8  2  0
  7  6  1  0
  8  4  1  0
  9 10  2  0
 11 12  1  0
 11  9  1  0
 12 19  1  0
 13 14  1  0
 12 13  1  6
 14 15  2  0
 15 16  1  0
 17 16  1  0
 18 14  1  0
 18 17  2  0
 19 21  1  0
 20 19  2  0
 21 22  1  0
 23 22  1  0
 24 23  2  0
 25 23  1  0
M  END
$$$$
