HHG.pdb
     RDKit          3D

 25 26  0  0  1  0  0  0  0  0999 V2000
   12.3330  -15.9381   15.9274 N   0  0  0  0  0  0  0  0  0  0  0  0
   11.9313  -16.8539   16.9759 C   0  0  1  0  0  0  0  0  0  0  0  0
   12.9275  -17.9810   17.1292 C   0  0  0  0  0  0  0  0  0  0  0  0
   12.6127  -19.0210   16.1152 C   0  0  0  0  0  0  0  0  0  0  0  0
   11.3410  -19.4776   15.8028 C   0  0  0  0  0  0  0  0  0  0  0  0
   11.4789  -20.4104   14.8440 N   0  0  0  0  0  0  0  0  0  0  0  0
   12.7623  -20.5670   14.5356 C   0  0  0  0  0  0  0  0  0  0  0  0
   13.4459  -19.7098   15.3216 N   0  0  0  0  0  0  0  0  0  0  0  0
   11.7877  -16.1031   18.2589 C   0  0  0  0  0  0  0  0  0  0  0  0
   12.4547  -15.0676   18.4834 O   0  0  0  0  0  0  0  0  0  0  0  0
   10.8935  -16.5509   19.2436 N   0  0  0  0  0  0  0  0  0  0  0  0
   10.5679  -15.8729   20.4580 C   0  0  1  0  0  0  0  0  0  0  0  0
    9.1222  -15.5937   20.6683 C   0  0  0  0  0  0  0  0  0  0  0  0
    8.6302  -14.6429   19.6469 C   0  0  0  0  0  0  0  0  0  0  0  0
    9.3093  -13.9921   18.6507 C   0  0  0  0  0  0  0  0  0  0  0  0
    8.4176  -13.2401   17.9900 N   0  0  0  0  0  0  0  0  0  0  0  0
    7.1903  -13.3854   18.5269 C   0  0  0  0  0  0  0  0  0  0  0  0
    7.3512  -14.2523   19.5423 N   0  0  0  0  0  0  0  0  0  0  0  0
   11.0615  -16.7479   21.5846 C   0  0  0  0  0  0  0  0  0  0  0  0
   10.9913  -18.0025   21.5388 O   0  0  0  0  0  0  0  0  0  0  0  0
   11.6312  -16.1816   22.7544 N   0  0  0  0  0  0  0  0  0  0  0  0
   12.2023  -17.0510   23.7933 C   0  0  0  0  0  0  0  0  0  0  0  0
   11.1545  -17.4196   24.7577 C   0  0  0  0  0  0  0  0  0  0  0  0
   10.1210  -18.0035   24.3614 O   0  0  0  0  0  0  0  0  0  0  0  0
   11.2412  -17.1532   26.1207 O   0  0  0  0  0  0  0  0  0  0  0  0
  2  1  1  6
  2  9  1  0
  3  2  1  0
  4  3  1  0
  5  4  2  0
  6  5  1  0
  7  8  2  0
  7  6  1  0
  8  4  1  0
  9 10  2  0
 11 12  1  0
 11  9  1  0
 12 19  1  0
 13 14  1  0
 12 13  1  1
 14 15  2  0
 15 16  1  0
 17 16  1  0
 18 14  1  0
 18 17  2  0
 19 21  1  0
 20 19  2  0
 21 22  1  0
 23 22  1  0
 24 23  2  0
 25 23  1  0
M  END
$$$$
