HHG.pdb
     RDKit          3D

 25 26  0  0  1  0  0  0  0  0999 V2000
    6.3183  -21.6341   19.9390 N   0  0  0  0  0  0  0  0  0  0  0  0
    7.1396  -21.7884   21.1226 C   0  0  1  0  0  0  0  0  0  0  0  0
    7.9073  -20.5212   21.4249 C   0  0  0  0  0  0  0  0  0  0  0  0
    8.6674  -20.1363   20.2072 C   0  0  0  0  0  0  0  0  0  0  0  0
    9.5286  -20.9651   19.5039 C   0  0  0  0  0  0  0  0  0  0  0  0
   10.0148  -20.2498   18.4741 N   0  0  0  0  0  0  0  0  0  0  0  0
    9.5098  -19.0203   18.4889 C   0  0  0  0  0  0  0  0  0  0  0  0
    8.6860  -18.9642   19.5557 N   0  0  0  0  0  0  0  0  0  0  0  0
    6.2730  -22.1648   22.2792 C   0  0  0  0  0  0  0  0  0  0  0  0
    5.1315  -21.6709   22.4231 O   0  0  0  0  0  0  0  0  0  0  0  0
    6.7290  -23.0878   23.2332 N   0  0  0  0  0  0  0  0  0  0  0  0
    5.9569  -23.6576   24.2913 C   0  0  1  0  0  0  0  0  0  0  0  0
    5.6750  -25.1126   24.1671 C   0  0  0  0  0  0  0  0  0  0  0  0
    4.7085  -25.3556   23.0733 C   0  0  0  0  0  0  0  0  0  0  0  0
    3.4154  -24.9261   22.9300 C   0  0  0  0  0  0  0  0  0  0  0  0
    2.9636  -25.4131   21.7655 N   0  0  0  0  0  0  0  0  0  0  0  0
    3.9210  -26.1399   21.1566 C   0  0  0  0  0  0  0  0  0  0  0  0
    4.9811  -26.0871   21.9824 N   0  0  0  0  0  0  0  0  0  0  0  0
    6.7322  -23.4211   25.5647 C   0  0  0  0  0  0  0  0  0  0  0  0
    7.7545  -24.0906   25.8611 O   0  0  0  0  0  0  0  0  0  0  0  0
    6.3325  -22.4212   26.4890 N   0  0  0  0  0  0  0  0  0  0  0  0
    7.1186  -22.1863   27.7090 C   0  0  0  0  0  0  0  0  0  0  0  0
    8.1889  -21.2176   27.4263 C   0  0  0  0  0  0  0  0  0  0  0  0
    8.3941  -20.8419   26.2504 O   0  0  0  0  0  0  0  0  0  0  0  0
    9.0111  -20.6771   28.4103 O   0  0  0  0  0  0  0  0  0  0  0  0
  2  1  1  6
  2  9  1  0
  3  2  1  0
  4  3  1  0
  5  4  2  0
  6  5  1  0
  7  8  2  0
  7  6  1  0
  8  4  1  0
  9 10  2  0
 11 12  1  0
 11  9  1  0
 12 19  1  0
 13 14  1  0
 12 13  1  6
 14 15  2  0
 15 16  1  0
 17 16  1  0
 18 14  1  0
 18 17  2  0
 19 21  1  0
 20 19  2  0
 21 22  1  0
 23 22  1  0
 24 23  2  0
 25 23  1  0
M  END
$$$$
