HHG.pdb
     RDKit          3D

 25 26  0  0  1  0  0  0  0  0999 V2000
    9.9918  -15.8269   17.6976 N   0  0  0  0  0  0  0  0  0  0  0  0
   10.8949  -14.8176   18.2123 C   0  0  1  0  0  0  0  0  0  0  0  0
   10.4037  -14.2654   19.5315 C   0  0  0  0  0  0  0  0  0  0  0  0
    9.0638  -13.6608   19.3125 C   0  0  0  0  0  0  0  0  0  0  0  0
    8.3861  -13.6291   18.1030 C   0  0  0  0  0  0  0  0  0  0  0  0
    7.2174  -13.0001   18.3195 N   0  0  0  0  0  0  0  0  0  0  0  0
    7.1207  -12.6346   19.5939 C   0  0  0  0  0  0  0  0  0  0  0  0
    8.2586  -13.0454   20.1909 N   0  0  0  0  0  0  0  0  0  0  0  0
   12.2584  -15.4071   18.3659 C   0  0  0  0  0  0  0  0  0  0  0  0
   12.4147  -16.6164   18.6504 O   0  0  0  0  0  0  0  0  0  0  0  0
   13.3982  -14.6068   18.1920 N   0  0  0  0  0  0  0  0  0  0  0  0
   14.7546  -15.0539   18.2202 C   0  0  1  0  0  0  0  0  0  0  0  0
   15.5394  -14.7983   16.9829 C   0  0  0  0  0  0  0  0  0  0  0  0
   15.0510  -15.6555   15.8802 C   0  0  0  0  0  0  0  0  0  0  0  0
   14.5580  -16.9335   15.9111 C   0  0  0  0  0  0  0  0  0  0  0  0
   14.2503  -17.2694   14.6503 N   0  0  0  0  0  0  0  0  0  0  0  0
   14.5283  -16.2522   13.8114 C   0  0  0  0  0  0  0  0  0  0  0  0
   15.0186  -15.2749   14.5944 N   0  0  0  0  0  0  0  0  0  0  0  0
   15.4189  -14.3393   19.3719 C   0  0  0  0  0  0  0  0  0  0  0  0
   15.3650  -13.0902   19.5063 O   0  0  0  0  0  0  0  0  0  0  0  0
   16.1395  -15.0583   20.3607 N   0  0  0  0  0  0  0  0  0  0  0  0
   16.7903  -14.3421   21.4675 C   0  0  0  0  0  0  0  0  0  0  0  0
   17.4464  -15.3087   22.3613 C   0  0  0  0  0  0  0  0  0  0  0  0
   17.3057  -16.5361   22.1619 O   0  0  0  0  0  0  0  0  0  0  0  0
   18.2357  -14.9354   23.4448 O   0  0  0  0  0  0  0  0  0  0  0  0
  2  1  1  1
  2  9  1  0
  3  2  1  0
  4  3  1  0
  5  4  2  0
  6  5  1  0
  7  8  2  0
  7  6  1  0
  8  4  1  0
  9 10  2  0
 11 12  1  0
 11  9  1  0
 12 19  1  0
 13 14  1  0
 12 13  1  6
 14 15  2  0
 15 16  1  0
 17 16  1  0
 18 14  1  0
 18 17  2  0
 19 21  1  0
 20 19  2  0
 21 22  1  0
 23 22  1  0
 24 23  2  0
 25 23  1  0
M  END
$$$$
