HHG.pdb
     RDKit          3D

 25 26  0  0  1  0  0  0  0  0999 V2000
   12.4400  -16.5183   18.4301 N   0  0  0  0  0  0  0  0  0  0  0  0
   13.0246  -15.2251   18.7217 C   0  0  1  0  0  0  0  0  0  0  0  0
   13.1352  -14.3803   17.4725 C   0  0  0  0  0  0  0  0  0  0  0  0
   13.8724  -15.1624   16.4460 C   0  0  0  0  0  0  0  0  0  0  0  0
   15.0895  -15.7972   16.6426 C   0  0  0  0  0  0  0  0  0  0  0  0
   15.4194  -16.3907   15.4818 N   0  0  0  0  0  0  0  0  0  0  0  0
   14.4812  -16.1662   14.5673 C   0  0  0  0  0  0  0  0  0  0  0  0
   13.5393  -15.4125   15.1712 N   0  0  0  0  0  0  0  0  0  0  0  0
   12.1972  -14.5304   19.7528 C   0  0  0  0  0  0  0  0  0  0  0  0
   12.5011  -13.3891   20.1682 O   0  0  0  0  0  0  0  0  0  0  0  0
   11.0538  -15.1523   20.2779 N   0  0  0  0  0  0  0  0  0  0  0  0
   10.1639  -14.5992   21.2488 C   0  0  1  0  0  0  0  0  0  0  0  0
    8.7151  -14.7395   20.9437 C   0  0  0  0  0  0  0  0  0  0  0  0
    8.4150  -14.1719   19.6106 C   0  0  0  0  0  0  0  0  0  0  0  0
    8.1988  -12.8719   19.2360 C   0  0  0  0  0  0  0  0  0  0  0  0
    7.9667  -12.8740   17.9157 N   0  0  0  0  0  0  0  0  0  0  0  0
    8.0263  -14.1294   17.4297 C   0  0  0  0  0  0  0  0  0  0  0  0
    8.3030  -14.9050   18.4929 N   0  0  0  0  0  0  0  0  0  0  0  0
   10.4557  -15.3049   22.5509 C   0  0  0  0  0  0  0  0  0  0  0  0
    9.7787  -15.1001   23.5906 O   0  0  0  0  0  0  0  0  0  0  0  0
   11.5190  -16.2391   22.6539 N   0  0  0  0  0  0  0  0  0  0  0  0
   11.8514  -16.8396   23.9540 C   0  0  0  0  0  0  0  0  0  0  0  0
   11.3213  -18.2105   24.0133 C   0  0  0  0  0  0  0  0  0  0  0  0
   10.6825  -18.6736   23.0419 O   0  0  0  0  0  0  0  0  0  0  0  0
   11.4893  -19.0489   25.1110 O   0  0  0  0  0  0  0  0  0  0  0  0
  2  1  1  6
  2  9  1  0
  3  2  1  0
  4  3  1  0
  5  4  2  0
  6  5  1  0
  7  8  2  0
  7  6  1  0
  8  4  1  0
  9 10  2  0
 11 12  1  0
 11  9  1  0
 12 19  1  0
 13 14  1  0
 12 13  1  6
 14 15  2  0
 15 16  1  0
 17 16  1  0
 18 14  1  0
 18 17  2  0
 19 21  1  0
 20 19  2  0
 21 22  1  0
 23 22  1  0
 24 23  2  0
 25 23  1  0
M  END
$$$$
