HHG.pdb
     RDKit          3D

 25 26  0  0  1  0  0  0  0  0999 V2000
    8.1943  -18.5935   16.5495 N   0  0  0  0  0  0  0  0  0  0  0  0
    8.7867  -17.3839   17.0838 C   0  0  1  0  0  0  0  0  0  0  0  0
    8.4531  -16.1854   16.2243 C   0  0  0  0  0  0  0  0  0  0  0  0
    9.0538  -16.3947   14.8811 C   0  0  0  0  0  0  0  0  0  0  0  0
    9.8166  -17.4902   14.5056 C   0  0  0  0  0  0  0  0  0  0  0  0
   10.1703  -17.3058   13.2213 N   0  0  0  0  0  0  0  0  0  0  0  0
    9.6746  -16.1589   12.7677 C   0  0  0  0  0  0  0  0  0  0  0  0
    8.9928  -15.6108   13.7947 N   0  0  0  0  0  0  0  0  0  0  0  0
    8.3072  -17.1756   18.4827 C   0  0  0  0  0  0  0  0  0  0  0  0
    7.1881  -16.6652   18.7163 O   0  0  0  0  0  0  0  0  0  0  0  0
    9.1118  -17.5526   19.5692 N   0  0  0  0  0  0  0  0  0  0  0  0
    8.7253  -17.5535   20.9443 C   0  0  1  0  0  0  0  0  0  0  0  0
    8.4969  -18.8949   21.5448 C   0  0  0  0  0  0  0  0  0  0  0  0
    7.3141  -19.5368   20.9299 C   0  0  0  0  0  0  0  0  0  0  0  0
    6.0864  -19.0108   20.6247 C   0  0  0  0  0  0  0  0  0  0  0  0
    5.3578  -19.9962   20.0812 N   0  0  0  0  0  0  0  0  0  0  0  0
    6.0746  -21.1359   20.0268 C   0  0  0  0  0  0  0  0  0  0  0  0
    7.2714  -20.8240   20.5547 N   0  0  0  0  0  0  0  0  0  0  0  0
    9.8338  -16.8651   21.7031 C   0  0  0  0  0  0  0  0  0  0  0  0
    9.7653  -16.6484   22.9398 O   0  0  0  0  0  0  0  0  0  0  0  0
   11.0117  -16.4299   21.0419 N   0  0  0  0  0  0  0  0  0  0  0  0
   12.0982  -15.8003   21.8063 C   0  0  0  0  0  0  0  0  0  0  0  0
   13.1077  -16.8127   22.1525 C   0  0  0  0  0  0  0  0  0  0  0  0
   12.9272  -18.0080   21.8289 O   0  0  0  0  0  0  0  0  0  0  0  0
   14.2835  -16.5183   22.8358 O   0  0  0  0  0  0  0  0  0  0  0  0
  2  1  1  6
  2  9  1  0
  3  2  1  0
  4  3  1  0
  5  4  2  0
  6  5  1  0
  7  8  2  0
  7  6  1  0
  8  4  1  0
  9 10  2  0
 11 12  1  0
 11  9  1  0
 12 19  1  0
 13 14  1  0
 12 13  1  1
 14 15  2  0
 15 16  1  0
 17 16  1  0
 18 14  1  0
 18 17  2  0
 19 21  1  0
 20 19  2  0
 21 22  1  0
 23 22  1  0
 24 23  2  0
 25 23  1  0
M  END
$$$$
