MFL.pdb
     RDKit          3D

 28 28  0  0  1  0  0  0  0  0999 V2000
   24.7970  -17.7181  -14.8939 C   0  0  0  0  0  0  0  0  0  0  0  0
   26.5363  -17.3930  -15.2548 S   0  0  0  0  0  0  0  0  0  0  0  0
   27.5798  -18.8179  -14.8185 C   0  0  0  0  0  0  0  0  0  0  0  0
   26.9640  -19.4616  -13.5795 C   0  0  0  0  0  0  0  0  0  0  0  0
   27.8959  -20.5448  -13.0373 C   0  0  2  0  0  0  0  0  0  0  0  0
   27.6938  -21.7204  -13.8578 N   0  0  0  0  0  0  0  0  0  0  0  0
   27.4691  -20.8234  -11.6480 C   0  0  0  0  0  0  0  0  0  0  0  0
   26.6608  -21.7727  -11.3860 O   0  0  0  0  0  0  0  0  0  0  0  0
   27.9321  -20.0564  -10.5441 N   0  0  0  0  0  0  0  0  0  0  0  0
   27.5435  -20.3279   -9.1662 C   0  0  1  0  0  0  0  0  0  0  0  0
   28.5113  -19.7506   -8.1832 C   0  0  0  0  0  0  0  0  0  0  0  0
   28.1456  -19.8802   -6.7875 C   0  0  0  0  0  0  0  0  0  0  0  0
   28.5117  -20.9910   -6.0613 C   0  0  0  0  0  0  0  0  0  0  0  0
   28.1544  -21.1134   -4.7098 C   0  0  0  0  0  0  0  0  0  0  0  0
   27.4365  -20.1289   -4.0959 C   0  0  0  0  0  0  0  0  0  0  0  0
   27.0644  -19.0157   -4.8074 C   0  0  0  0  0  0  0  0  0  0  0  0
   27.4266  -18.9107   -6.1451 C   0  0  0  0  0  0  0  0  0  0  0  0
   26.1296  -20.0339   -8.9171 C   0  0  0  0  0  0  0  0  0  0  0  0
   25.6781  -18.8596   -9.0699 O   0  0  0  0  0  0  0  0  0  0  0  0
   22.5444  -22.0161  -11.7164 C   0  0  0  0  0  0  0  0  0  0  0  0
   23.1730  -20.9792  -10.7770 C   0  0  1  0  0  0  0  0  0  0  0  0
   22.4661  -19.6703  -10.9078 C   0  0  0  0  0  0  0  0  0  0  0  0
   23.0776  -21.5780   -9.3954 C   0  0  0  0  0  0  0  0  0  0  0  0
   23.7748  -20.7189   -8.3411 C   0  0  2  0  0  0  0  0  0  0  0  0
   25.1997  -21.0179   -8.5028 N   0  0  0  0  0  0  0  0  0  0  0  0
   23.3395  -21.2061   -7.0136 C   0  0  0  0  0  0  0  0  0  0  0  0
   22.2381  -20.8395   -6.5429 O   0  0  0  0  0  0  0  0  0  0  0  0
   24.1009  -22.0690   -6.2386 O   0  0  0  0  0  0  0  0  0  0  0  0
  1  2  1  0
  3  2  1  0
  4  3  1  0
  5  4  1  0
  5  6  1  6
  7  5  1  0
  8  7  2  0
  9  7  1  0
 10  9  1  0
 10 11  1  1
 11 12  1  0
 12 17  2  0
 13 14  2  0
 13 12  1  0
 14 15  1  0
 15 16  2  0
 17 16  1  0
 18 25  1  0
 18 10  1  0
 19 18  2  0
 21 20  1  6
 21 23  1  0
 21 22  1  0
 24 23  1  6
 24 26  1  0
 24 25  1  0
 26 28  1  0
 27 26  2  0
M  END
$$$$
