MFL.pdb
     RDKit          3D

 28 28  0  0  1  0  0  0  0  0999 V2000
   26.1799  -20.7007  -20.9717 C   0  0  0  0  0  0  0  0  0  0  0  0
   27.8892  -20.1182  -20.9729 S   0  0  0  0  0  0  0  0  0  0  0  0
   28.8963  -21.0204  -19.7559 C   0  0  0  0  0  0  0  0  0  0  0  0
   27.9949  -21.3185  -18.5611 C   0  0  0  0  0  0  0  0  0  0  0  0
   28.7991  -22.0114  -17.4616 C   0  0  2  0  0  0  0  0  0  0  0  0
   29.1119  -23.3397  -17.9452 N   0  0  0  0  0  0  0  0  0  0  0  0
   27.9171  -22.1036  -16.2769 C   0  0  0  0  0  0  0  0  0  0  0  0
   27.0316  -23.0150  -16.1855 O   0  0  0  0  0  0  0  0  0  0  0  0
   28.0091  -21.1918  -15.1901 N   0  0  0  0  0  0  0  0  0  0  0  0
   27.0995  -21.2143  -14.0518 C   0  0  1  0  0  0  0  0  0  0  0  0
   27.7029  -20.5881  -12.8353 C   0  0  0  0  0  0  0  0  0  0  0  0
   26.8389  -20.5019  -11.6758 C   0  0  0  0  0  0  0  0  0  0  0  0
   26.6875  -21.5743  -10.8261 C   0  0  0  0  0  0  0  0  0  0  0  0
   25.8486  -21.4873   -9.7045 C   0  0  0  0  0  0  0  0  0  0  0  0
   25.1694  -20.3337   -9.4411 C   0  0  0  0  0  0  0  0  0  0  0  0
   25.3105  -19.2562  -10.2795 C   0  0  0  0  0  0  0  0  0  0  0  0
   26.1455  -19.3596  -11.3858 C   0  0  0  0  0  0  0  0  0  0  0  0
   25.7532  -20.7554  -14.4044 C   0  0  0  0  0  0  0  0  0  0  0  0
   25.5795  -19.6259  -14.9525 O   0  0  0  0  0  0  0  0  0  0  0  0
   20.2675  -22.2519  -14.3591 C   0  0  0  0  0  0  0  0  0  0  0  0
   21.1079  -21.7242  -15.5287 C   0  0  1  0  0  0  0  0  0  0  0  0
   20.8948  -20.2555  -15.6946 C   0  0  0  0  0  0  0  0  0  0  0  0
   22.5335  -22.0907  -15.1973 C   0  0  0  0  0  0  0  0  0  0  0  0
   23.2454  -20.9946  -14.4051 C   0  0  2  0  0  0  0  0  0  0  0  0
   24.5894  -21.5252  -14.1643 N   0  0  0  0  0  0  0  0  0  0  0  0
   22.5509  -20.8649  -13.1052 C   0  0  0  0  0  0  0  0  0  0  0  0
   21.8148  -19.8757  -12.8852 O   0  0  0  0  0  0  0  0  0  0  0  0
   22.6707  -21.8008  -12.0879 O   0  0  0  0  0  0  0  0  0  0  0  0
  1  2  1  0
  3  2  1  0
  4  3  1  0
  5  4  1  0
  5  6  1  6
  7  5  1  0
  8  7  2  0
  9  7  1  0
 10  9  1  0
 10 11  1  1
 11 12  1  0
 12 17  2  0
 13 14  2  0
 13 12  1  0
 14 15  1  0
 15 16  2  0
 17 16  1  0
 18 25  1  0
 18 10  1  0
 19 18  2  0
 21 20  1  1
 21 23  1  0
 21 22  1  0
 24 23  1  6
 24 26  1  0
 24 25  1  0
 26 28  1  0
 27 26  2  0
M  END
$$$$
