MFL.pdb
     RDKit          3D

 28 28  0  0  1  0  0  0  0  0999 V2000
   30.7434  -17.5775  -16.7652 C   0  0  0  0  0  0  0  0  0  0  0  0
   29.5884  -16.2752  -17.2459 S   0  0  0  0  0  0  0  0  0  0  0  0
   27.8655  -16.8517  -17.1526 C   0  0  0  0  0  0  0  0  0  0  0  0
   27.8015  -17.8945  -16.0403 C   0  0  0  0  0  0  0  0  0  0  0  0
   26.5167  -18.7125  -16.1662 C   0  0  2  0  0  0  0  0  0  0  0  0
   25.6145  -17.9493  -17.0028 N   0  0  0  0  0  0  0  0  0  0  0  0
   25.9520  -18.8386  -14.8042 C   0  0  0  0  0  0  0  0  0  0  0  0
   25.4226  -17.8399  -14.2165 O   0  0  0  0  0  0  0  0  0  0  0  0
   25.9694  -20.0658  -14.0866 N   0  0  0  0  0  0  0  0  0  0  0  0
   25.2123  -20.2828  -12.8605 C   0  0  1  0  0  0  0  0  0  0  0  0
   24.0557  -21.2077  -13.0682 C   0  0  0  0  0  0  0  0  0  0  0  0
   22.9577  -20.6785  -13.8511 C   0  0  0  0  0  0  0  0  0  0  0  0
   22.8788  -20.9118  -15.2056 C   0  0  0  0  0  0  0  0  0  0  0  0
   21.8143  -20.3964  -15.9608 C   0  0  0  0  0  0  0  0  0  0  0  0
   20.8399  -19.6544  -15.3596 C   0  0  0  0  0  0  0  0  0  0  0  0
   20.9054  -19.4135  -14.0099 C   0  0  0  0  0  0  0  0  0  0  0  0
   21.9667  -19.9316  -13.2771 C   0  0  0  0  0  0  0  0  0  0  0  0
   26.0770  -20.5893  -11.7178 C   0  0  0  0  0  0  0  0  0  0  0  0
   26.8884  -21.5618  -11.7653 O   0  0  0  0  0  0  0  0  0  0  0  0
   26.7737  -19.8436   -6.4225 C   0  0  0  0  0  0  0  0  0  0  0  0
   27.8781  -19.2412   -7.3001 C   0  0  1  0  0  0  0  0  0  0  0  0
   29.0461  -20.1692   -7.3673 C   0  0  0  0  0  0  0  0  0  0  0  0
   27.2337  -18.9885   -8.6408 C   0  0  0  0  0  0  0  0  0  0  0  0
   26.7762  -20.2801   -9.3175 C   0  0  2  0  0  0  0  0  0  0  0  0
   26.0642  -19.8369  -10.5185 N   0  0  0  0  0  0  0  0  0  0  0  0
   25.8076  -20.9362   -8.4116 C   0  0  0  0  0  0  0  0  0  0  0  0
   24.6442  -20.4843   -8.3065 O   0  0  0  0  0  0  0  0  0  0  0  0
   26.1216  -22.0534   -7.6511 O   0  0  0  0  0  0  0  0  0  0  0  0
  1  2  1  0
  3  2  1  0
  4  3  1  0
  5  4  1  0
  5  6  1  6
  7  5  1  0
  8  7  2  0
  9  7  1  0
 10  9  1  0
 10 11  1  6
 11 12  1  0
 12 17  2  0
 13 14  2  0
 13 12  1  0
 14 15  1  0
 15 16  2  0
 17 16  1  0
 18 25  1  0
 18 10  1  0
 19 18  2  0
 21 20  1  1
 21 23  1  0
 21 22  1  0
 24 23  1  1
 24 26  1  0
 24 25  1  0
 26 28  1  0
 27 26  2  0
M  END
$$$$
