MFL.pdb
     RDKit          3D

 28 28  0  0  1  0  0  0  0  0999 V2000
   23.3253  -17.5739  -14.1719 C   0  0  0  0  0  0  0  0  0  0  0  0
   24.5950  -18.8077  -14.5280 S   0  0  0  0  0  0  0  0  0  0  0  0
   23.9500  -20.4969  -14.3287 C   0  0  0  0  0  0  0  0  0  0  0  0
   24.2403  -20.9208  -12.8917 C   0  0  0  0  0  0  0  0  0  0  0  0
   25.7498  -20.9944  -12.6649 C   0  0  2  0  0  0  0  0  0  0  0  0
   26.2311  -22.1353  -13.4151 N   0  0  0  0  0  0  0  0  0  0  0  0
   25.9566  -21.2224  -11.2174 C   0  0  0  0  0  0  0  0  0  0  0  0
   25.6459  -22.3328  -10.6755 O   0  0  0  0  0  0  0  0  0  0  0  0
   26.5065  -20.2274  -10.3638 N   0  0  0  0  0  0  0  0  0  0  0  0
   26.6347  -20.3965   -8.9221 C   0  0  1  0  0  0  0  0  0  0  0  0
   27.7794  -19.6139   -8.3622 C   0  0  0  0  0  0  0  0  0  0  0  0
   27.9394  -19.6720   -6.9237 C   0  0  0  0  0  0  0  0  0  0  0  0
   27.5512  -18.6190   -6.1264 C   0  0  0  0  0  0  0  0  0  0  0  0
   27.7090  -18.6786   -4.7333 C   0  0  0  0  0  0  0  0  0  0  0  0
   28.2516  -19.7856   -4.1490 C   0  0  0  0  0  0  0  0  0  0  0  0
   28.6434  -20.8433   -4.9312 C   0  0  0  0  0  0  0  0  0  0  0  0
   28.4798  -20.7675   -6.3093 C   0  0  0  0  0  0  0  0  0  0  0  0
   25.3546  -20.2409   -8.2261 C   0  0  0  0  0  0  0  0  0  0  0  0
   24.6340  -19.2169   -8.4220 O   0  0  0  0  0  0  0  0  0  0  0  0
   20.6891  -21.2496   -6.7938 C   0  0  0  0  0  0  0  0  0  0  0  0
   21.5095  -22.2960   -6.0291 C   0  0  1  0  0  0  0  0  0  0  0  0
   20.8065  -23.6134   -6.0446 C   0  0  0  0  0  0  0  0  0  0  0  0
   22.8565  -22.3259   -6.7083 C   0  0  0  0  0  0  0  0  0  0  0  0
   23.5980  -20.9952   -6.5855 C   0  0  2  0  0  0  0  0  0  0  0  0
   24.8514  -21.2009   -7.3152 N   0  0  0  0  0  0  0  0  0  0  0  0
   23.9144  -20.7944   -5.1542 C   0  0  0  0  0  0  0  0  0  0  0  0
   24.9070  -21.3654   -4.6468 O   0  0  0  0  0  0  0  0  0  0  0  0
   23.1548  -19.9883   -4.3185 O   0  0  0  0  0  0  0  0  0  0  0  0
  1  2  1  0
  3  2  1  0
  4  3  1  0
  5  4  1  0
  5  6  1  6
  7  5  1  0
  8  7  2  0
  9  7  1  0
 10  9  1  0
 10 11  1  1
 11 12  1  0
 12 17  2  0
 13 14  2  0
 13 12  1  0
 14 15  1  0
 15 16  2  0
 17 16  1  0
 18 25  1  0
 18 10  1  0
 19 18  2  0
 21 20  1  6
 21 23  1  0
 21 22  1  0
 24 23  1  1
 24 26  1  0
 24 25  1  0
 26 28  1  0
 27 26  2  0
M  END
$$$$
