MFL.pdb
     RDKit          3D

 28 28  0  0  1  0  0  0  0  0999 V2000
   20.6346  -20.5311  -14.4969 C   0  0  0  0  0  0  0  0  0  0  0  0
   21.2554  -18.9070  -14.9848 S   0  0  0  0  0  0  0  0  0  0  0  0
   19.9123  -17.8403  -15.5909 C   0  0  0  0  0  0  0  0  0  0  0  0
   20.5379  -16.4983  -15.9604 C   0  0  0  0  0  0  0  0  0  0  0  0
   20.3997  -16.2549  -17.4628 C   0  0  2  0  0  0  0  0  0  0  0  0
   21.2500  -17.2225  -18.1239 N   0  0  0  0  0  0  0  0  0  0  0  0
   20.8991  -14.8867  -17.7245 C   0  0  0  0  0  0  0  0  0  0  0  0
   22.1481  -14.6393  -17.7674 O   0  0  0  0  0  0  0  0  0  0  0  0
   20.0231  -13.7878  -17.9397 N   0  0  0  0  0  0  0  0  0  0  0  0
   20.4903  -12.4540  -18.2951 C   0  0  1  0  0  0  0  0  0  0  0  0
   19.4829  -11.7007  -19.1038 C   0  0  0  0  0  0  0  0  0  0  0  0
   19.8642  -10.3591  -19.4953 C   0  0  0  0  0  0  0  0  0  0  0  0
   19.4931   -9.2701  -18.7394 C   0  0  0  0  0  0  0  0  0  0  0  0
   19.8634   -7.9719  -19.1227 C   0  0  0  0  0  0  0  0  0  0  0  0
   20.5990   -7.7719  -20.2542 C   0  0  0  0  0  0  0  0  0  0  0  0
   20.9762   -8.8482  -21.0179 C   0  0  0  0  0  0  0  0  0  0  0  0
   20.6009  -10.1271  -20.6236 C   0  0  0  0  0  0  0  0  0  0  0  0
   21.0534  -11.7362  -17.1483 C   0  0  0  0  0  0  0  0  0  0  0  0
   20.4282  -11.6880  -16.0469 O   0  0  0  0  0  0  0  0  0  0  0  0
   24.5362  -10.4130  -13.6799 C   0  0  0  0  0  0  0  0  0  0  0  0
   25.0705   -9.8358  -14.9967 C   0  0  1  0  0  0  0  0  0  0  0  0
   26.5540   -9.9933  -15.0638 C   0  0  0  0  0  0  0  0  0  0  0  0
   24.3378  -10.5773  -16.0876 C   0  0  0  0  0  0  0  0  0  0  0  0
   22.8299  -10.3325  -16.0439 C   0  0  2  0  0  0  0  0  0  0  0  0
   22.3015  -11.0693  -17.1944 N   0  0  0  0  0  0  0  0  0  0  0  0
   22.6087   -8.8870  -16.2690 C   0  0  0  0  0  0  0  0  0  0  0  0
   22.8312   -8.3882  -17.3962 O   0  0  0  0  0  0  0  0  0  0  0  0
   22.1567   -8.0284  -15.2772 O   0  0  0  0  0  0  0  0  0  0  0  0
  1  2  1  0
  3  2  1  0
  4  3  1  0
  5  4  1  0
  5  6  1  6
  7  5  1  0
  8  7  2  0
  9  7  1  0
 10  9  1  0
 10 11  1  1
 11 12  1  0
 12 17  2  0
 13 14  2  0
 13 12  1  0
 14 15  1  0
 15 16  2  0
 17 16  1  0
 18 25  1  0
 18 10  1  0
 19 18  2  0
 21 20  1  1
 21 23  1  0
 21 22  1  0
 24 23  1  6
 24 26  1  0
 24 25  1  0
 26 28  1  0
 27 26  2  0
M  END
$$$$
