MFL.pdb
     RDKit          3D

 28 28  0  0  1  0  0  0  0  0999 V2000
   29.8679  -20.2221  -13.8777 C   0  0  0  0  0  0  0  0  0  0  0  0
   29.9359  -18.9934  -15.1994 S   0  0  0  0  0  0  0  0  0  0  0  0
   28.2674  -18.5030  -15.7329 C   0  0  0  0  0  0  0  0  0  0  0  0
   27.4488  -18.2514  -14.4698 C   0  0  0  0  0  0  0  0  0  0  0  0
   26.2249  -19.1665  -14.4511 C   0  0  2  0  0  0  0  0  0  0  0  0
   25.2142  -18.5311  -15.2703 N   0  0  0  0  0  0  0  0  0  0  0  0
   25.7616  -19.2365  -13.0474 C   0  0  0  0  0  0  0  0  0  0  0  0
   25.3361  -18.1990  -12.4426 O   0  0  0  0  0  0  0  0  0  0  0  0
   25.7661  -20.4501  -12.3069 N   0  0  0  0  0  0  0  0  0  0  0  0
   25.2123  -20.5662  -10.9640 C   0  0  1  0  0  0  0  0  0  0  0  0
   23.9897  -21.4266  -10.9307 C   0  0  0  0  0  0  0  0  0  0  0  0
   22.8100  -20.8708  -11.5614 C   0  0  0  0  0  0  0  0  0  0  0  0
   21.9477  -20.0608  -10.8577 C   0  0  0  0  0  0  0  0  0  0  0  0
   20.8052  -19.5253  -11.4719 C   0  0  0  0  0  0  0  0  0  0  0  0
   20.5336  -19.8020  -12.7800 C   0  0  0  0  0  0  0  0  0  0  0  0
   21.3844  -20.6082  -13.4943 C   0  0  0  0  0  0  0  0  0  0  0  0
   22.5113  -21.1301  -12.8703 C   0  0  0  0  0  0  0  0  0  0  0  0
   26.2370  -20.8749   -9.9628 C   0  0  0  0  0  0  0  0  0  0  0  0
   26.9613  -21.9085  -10.0783 O   0  0  0  0  0  0  0  0  0  0  0  0
   29.2738  -20.3702   -5.6426 C   0  0  0  0  0  0  0  0  0  0  0  0
   27.9057  -19.7254   -5.3866 C   0  0  1  0  0  0  0  0  0  0  0  0
   28.0518  -18.5528   -4.4736 C   0  0  0  0  0  0  0  0  0  0  0  0
   27.3707  -19.3623   -6.7498 C   0  0  0  0  0  0  0  0  0  0  0  0
   27.0576  -20.5947   -7.5976 C   0  0  2  0  0  0  0  0  0  0  0  0
   26.4799  -20.0581   -8.8322 N   0  0  0  0  0  0  0  0  0  0  0  0
   26.0150  -21.3680   -6.8876 C   0  0  0  0  0  0  0  0  0  0  0  0
   24.8057  -21.1773   -7.1521 O   0  0  0  0  0  0  0  0  0  0  0  0
   26.3069  -22.3181   -5.9195 O   0  0  0  0  0  0  0  0  0  0  0  0
  1  2  1  0
  3  2  1  0
  4  3  1  0
  5  4  1  0
  5  6  1  6
  7  5  1  0
  8  7  2  0
  9  7  1  0
 10  9  1  0
 10 11  1  6
 11 12  1  0
 12 17  2  0
 13 14  2  0
 13 12  1  0
 14 15  1  0
 15 16  2  0
 17 16  1  0
 18 25  1  0
 18 10  1  0
 19 18  2  0
 21 20  1  6
 21 23  1  0
 21 22  1  0
 24 23  1  1
 24 26  1  0
 24 25  1  0
 26 28  1  0
 27 26  2  0
M  END
$$$$
