MFL.pdb
     RDKit          3D

 28 28  0  0  1  0  0  0  0  0999 V2000
   26.6764  -16.8928  -15.0892 C   0  0  0  0  0  0  0  0  0  0  0  0
   28.2087  -17.6406  -15.6839 S   0  0  0  0  0  0  0  0  0  0  0  0
   28.1401  -19.4558  -15.5863 C   0  0  0  0  0  0  0  0  0  0  0  0
   27.5767  -19.8098  -14.2130 C   0  0  0  0  0  0  0  0  0  0  0  0
   28.3998  -20.9347  -13.5862 C   0  0  2  0  0  0  0  0  0  0  0  0
   28.2113  -22.1050  -14.4176 N   0  0  0  0  0  0  0  0  0  0  0  0
   27.8373  -21.1803  -12.2397 C   0  0  0  0  0  0  0  0  0  0  0  0
   26.7959  -21.8971  -12.0825 O   0  0  0  0  0  0  0  0  0  0  0  0
   28.4212  -20.6364  -11.0631 N   0  0  0  0  0  0  0  0  0  0  0  0
   27.8150  -20.7573   -9.7434 C   0  0  1  0  0  0  0  0  0  0  0  0
   28.7546  -20.3540   -8.6522 C   0  0  0  0  0  0  0  0  0  0  0  0
   28.1648  -20.1954   -7.3387 C   0  0  0  0  0  0  0  0  0  0  0  0
   27.6874  -18.9735   -6.9214 C   0  0  0  0  0  0  0  0  0  0  0  0
   27.1179  -18.8235   -5.6476 C   0  0  0  0  0  0  0  0  0  0  0  0
   27.0298  -19.8914   -4.8032 C   0  0  0  0  0  0  0  0  0  0  0  0
   27.5017  -21.1159   -5.2055 C   0  0  0  0  0  0  0  0  0  0  0  0
   28.0628  -21.2467   -6.4704 C   0  0  0  0  0  0  0  0  0  0  0  0
   26.4779  -20.1602   -9.6869 C   0  0  0  0  0  0  0  0  0  0  0  0
   26.3028  -18.9407   -9.9841 O   0  0  0  0  0  0  0  0  0  0  0  0
   22.1920  -19.1807  -11.5797 C   0  0  0  0  0  0  0  0  0  0  0  0
   22.1867  -20.6962  -11.3428 C   0  0  1  0  0  0  0  0  0  0  0  0
   21.7459  -21.4091  -12.5787 C   0  0  0  0  0  0  0  0  0  0  0  0
   23.5929  -21.0419  -10.9190 C   0  0  0  0  0  0  0  0  0  0  0  0
   23.9721  -20.3983   -9.5858 C   0  0  2  0  0  0  0  0  0  0  0  0
   25.3244  -20.8889   -9.3090 N   0  0  0  0  0  0  0  0  0  0  0  0
   23.0561  -20.9377   -8.5567 C   0  0  0  0  0  0  0  0  0  0  0  0
   23.4525  -21.8301   -7.7721 O   0  0  0  0  0  0  0  0  0  0  0  0
   21.7479  -20.5008   -8.4059 O   0  0  0  0  0  0  0  0  0  0  0  0
  1  2  1  0
  3  2  1  0
  4  3  1  0
  5  4  1  0
  5  6  1  6
  7  5  1  0
  8  7  2  0
  9  7  1  0
 10  9  1  0
 10 11  1  1
 11 12  1  0
 12 17  2  0
 13 14  2  0
 13 12  1  0
 14 15  1  0
 15 16  2  0
 17 16  1  0
 18 25  1  0
 18 10  1  0
 19 18  2  0
 21 20  1  6
 21 23  1  0
 21 22  1  0
 24 23  1  6
 24 26  1  0
 24 25  1  0
 26 28  1  0
 27 26  2  0
M  END
$$$$
