MFL.pdb
     RDKit          3D

 28 28  0  0  1  0  0  0  0  0999 V2000
   29.5011  -23.4278  -21.5259 C   0  0  0  0  0  0  0  0  0  0  0  0
   28.6402  -23.4697  -19.9391 S   0  0  0  0  0  0  0  0  0  0  0  0
   29.7852  -23.1712  -18.5574 C   0  0  0  0  0  0  0  0  0  0  0  0
   28.9658  -23.2458  -17.2721 C   0  0  0  0  0  0  0  0  0  0  0  0
   27.8696  -22.1810  -17.2905 C   0  0  2  0  0  0  0  0  0  0  0  0
   28.5320  -20.8999  -17.4171 N   0  0  0  0  0  0  0  0  0  0  0  0
   27.1727  -22.2588  -15.9873 C   0  0  0  0  0  0  0  0  0  0  0  0
   26.6317  -23.3432  -15.5944 O   0  0  0  0  0  0  0  0  0  0  0  0
   27.0705  -21.1416  -15.1141 N   0  0  0  0  0  0  0  0  0  0  0  0
   26.3234  -21.1734  -13.8634 C   0  0  1  0  0  0  0  0  0  0  0  0
   26.9966  -20.3870  -12.7842 C   0  0  0  0  0  0  0  0  0  0  0  0
   26.3329  -20.3864  -11.4966 C   0  0  0  0  0  0  0  0  0  0  0  0
   26.7006  -21.2750  -10.5117 C   0  0  0  0  0  0  0  0  0  0  0  0
   26.0543  -21.2721   -9.2661 C   0  0  0  0  0  0  0  0  0  0  0  0
   25.0490  -20.3848   -9.0145 C   0  0  0  0  0  0  0  0  0  0  0  0
   24.6715  -19.4928   -9.9870 C   0  0  0  0  0  0  0  0  0  0  0  0
   25.3223  -19.5094  -11.2150 C   0  0  0  0  0  0  0  0  0  0  0  0
   24.8973  -20.8981  -14.0583 C   0  0  0  0  0  0  0  0  0  0  0  0
   24.5201  -19.8741  -14.7028 O   0  0  0  0  0  0  0  0  0  0  0  0
   19.9065  -22.4709  -14.6465 C   0  0  0  0  0  0  0  0  0  0  0  0
   20.2171  -22.4274  -13.1450 C   0  0  1  0  0  0  0  0  0  0  0  0
   19.4682  -23.5053  -12.4327 C   0  0  0  0  0  0  0  0  0  0  0  0
   21.7158  -22.5670  -13.0400 C   0  0  0  0  0  0  0  0  0  0  0  0
   22.4555  -21.4463  -13.7698 C   0  0  2  0  0  0  0  0  0  0  0  0
   23.8748  -21.7379  -13.5545 N   0  0  0  0  0  0  0  0  0  0  0  0
   22.1265  -20.1776  -13.0834 C   0  0  0  0  0  0  0  0  0  0  0  0
   21.4340  -19.3121  -13.6667 O   0  0  0  0  0  0  0  0  0  0  0  0
   22.5520  -19.8826  -11.7962 O   0  0  0  0  0  0  0  0  0  0  0  0
  1  2  1  0
  3  2  1  0
  4  3  1  0
  5  4  1  0
  5  6  1  1
  7  5  1  0
  8  7  2  0
  9  7  1  0
 10  9  1  0
 10 11  1  1
 11 12  1  0
 12 17  2  0
 13 14  2  0
 13 12  1  0
 14 15  1  0
 15 16  2  0
 17 16  1  0
 18 25  1  0
 18 10  1  0
 19 18  2  0
 21 20  1  6
 21 23  1  0
 21 22  1  0
 24 23  1  1
 24 26  1  0
 24 25  1  0
 26 28  1  0
 27 26  2  0
M  END
$$$$
