QRL.pdb
     RDKit          3D

 29 28  0  0  1  0  0  0  0  0999 V2000
    6.5319  -12.7070   16.3723 N   0  0  0  0  0  0  0  0  0  0  0  0
    7.5703  -13.5210   15.8556 C   0  0  0  0  0  0  0  0  0  0  0  0
    7.5745  -13.7631   14.6249 O   0  0  0  0  0  0  0  0  0  0  0  0
    8.6162  -14.0652   16.7550 C   0  0  0  0  0  0  0  0  0  0  0  0
    8.3356  -13.8446   18.1922 C   0  0  0  0  0  0  0  0  0  0  0  0
    9.4357  -14.1163   19.1610 C   0  0  2  0  0  0  0  0  0  0  0  0
   10.3282  -15.0943   18.4903 N   0  0  0  0  0  0  0  0  0  0  0  0
    8.9664  -14.7227   20.4521 C   0  0  0  0  0  0  0  0  0  0  0  0
    8.0447  -14.1150   21.0423 O   0  0  0  0  0  0  0  0  0  0  0  0
    7.3672  -21.1344   21.0729 N   0  0  0  0  0  0  0  0  0  0  0  0
    8.4067  -21.5637   20.2030 C   0  0  0  0  0  0  0  0  0  0  0  0
    8.1362  -22.4063   19.2728 N   0  0  0  0  0  0  0  0  0  0  0  0
    9.7360  -21.0735   20.3556 N   0  0  0  0  0  0  0  0  0  0  0  0
   10.1433  -20.1701   21.4038 C   0  0  0  0  0  0  0  0  0  0  0  0
    9.4205  -18.8898   21.4407 C   0  0  0  0  0  0  0  0  0  0  0  0
    9.7770  -17.8492   22.4079 C   0  0  0  0  0  0  0  0  0  0  0  0
    9.1658  -16.4993   22.2895 C   0  0  2  0  0  0  0  0  0  0  0  0
    9.4915  -15.8977   21.0081 N   0  0  0  0  0  0  0  0  0  0  0  0
    9.3034  -15.5955   23.4370 C   0  0  0  0  0  0  0  0  0  0  0  0
   10.4046  -15.1781   23.7983 O   0  0  0  0  0  0  0  0  0  0  0  0
    8.8230  -22.7690   18.5926 C   0  0  0  0  0  0  0  0  0  0  0  0
    5.4033  -12.4162   26.9468 C   0  0  1  0  0  0  0  0  0  0  0  0
    6.8720  -12.8134   26.7592 C   0  0  0  0  0  0  0  0  0  0  0  0
    7.6232  -11.5174   26.4633 C   0  0  0  0  0  0  0  0  0  0  0  0
    6.9549  -13.6790   25.5486 C   0  0  2  0  0  0  0  0  0  0  0  0
    8.3454  -14.3183   25.3556 N   0  0  0  0  0  0  0  0  0  0  0  0
    8.1595  -15.1629   24.1644 C   0  0  0  0  0  0  0  0  0  0  0  0
    8.5976  -15.1171   26.5424 O   0  0  0  0  0  0  0  0  0  0  0  0
    8.0768  -16.4156   26.6215 O   0  0  0  0  0  0  0  0  0  0  0  0
  1  2  1  0
  2  3  2  0
  4  5  1  0
  4  2  1  0
  6  8  1  0
  6  5  1  0
  6  7  1  6
  8  9  2  0
 10 11  1  0
 11 12  2  0
 13 14  1  0
 13 11  1  0
 15 14  1  0
 16 15  1  0
 17 16  1  1
 17 19  1  0
 18 17  1  0
 18  8  1  0
 19 20  2  0
 19 26  1  0
 22 21  1  1
 22 24  1  0
 23 22  1  0
 25 24  1  6
 25 27  1  0
 26 25  1  0
 27 29  2  0
 27 28  1  0
M  END
$$$$
