QRL.pdb
     RDKit          3D

 29 28  0  0  1  0  0  0  0  0999 V2000
   10.6530  -18.2187   17.0380 N   0  0  0  0  0  0  0  0  0  0  0  0
   10.7958  -19.4759   17.6758 C   0  0  0  0  0  0  0  0  0  0  0  0
   11.4819  -20.3552   17.1018 O   0  0  0  0  0  0  0  0  0  0  0  0
   10.1471  -19.7323   18.9843 C   0  0  0  0  0  0  0  0  0  0  0  0
    9.3858  -18.5741   19.5057 C   0  0  0  0  0  0  0  0  0  0  0  0
    9.5865  -18.2018   20.9353 C   0  0  2  0  0  0  0  0  0  0  0  0
    8.3668  -18.6623   21.6446 N   0  0  0  0  0  0  0  0  0  0  0  0
    9.7260  -16.7236   21.1599 C   0  0  0  0  0  0  0  0  0  0  0  0
   10.8924  -16.3001   21.3261 O   0  0  0  0  0  0  0  0  0  0  0  0
    7.4355  -14.5620   15.3165 N   0  0  0  0  0  0  0  0  0  0  0  0
    8.6110  -14.0585   15.9379 C   0  0  0  0  0  0  0  0  0  0  0  0
    9.7583  -14.4612   15.5256 N   0  0  0  0  0  0  0  0  0  0  0  0
    8.5274  -13.1210   17.0079 N   0  0  0  0  0  0  0  0  0  0  0  0
    8.7924  -13.4506   18.3869 C   0  0  0  0  0  0  0  0  0  0  0  0
    7.6078  -13.8051   19.1831 C   0  0  0  0  0  0  0  0  0  0  0  0
    7.6227  -13.7048   20.6444 C   0  0  0  0  0  0  0  0  0  0  0  0
    8.6932  -14.3911   21.4144 C   0  0  2  0  0  0  0  0  0  0  0  0
    8.6500  -15.8255   21.1894 N   0  0  0  0  0  0  0  0  0  0  0  0
    8.8672  -14.0018   22.8181 C   0  0  0  0  0  0  0  0  0  0  0  0
    9.1446  -12.8441   23.1348 O   0  0  0  0  0  0  0  0  0  0  0  0
   10.6585  -14.2196   15.9696 C   0  0  0  0  0  0  0  0  0  0  0  0
    5.5201  -12.8219   26.7281 C   0  0  1  0  0  0  0  0  0  0  0  0
    6.9845  -13.2748   26.7127 C   0  0  0  0  0  0  0  0  0  0  0  0
    7.8181  -12.0072   26.8852 C   0  0  0  0  0  0  0  0  0  0  0  0
    7.2708  -13.8324   25.3604 C   0  0  2  0  0  0  0  0  0  0  0  0
    8.6639  -14.4871   25.2581 N   0  0  0  0  0  0  0  0  0  0  0  0
    8.7087  -14.9547   23.8630 C   0  0  0  0  0  0  0  0  0  0  0  0
    8.6643  -15.5982   26.1938 O   0  0  0  0  0  0  0  0  0  0  0  0
    8.5133  -16.9049   25.7107 O   0  0  0  0  0  0  0  0  0  0  0  0
  1  2  1  0
  2  3  2  0
  4  5  1  0
  4  2  1  0
  6  8  1  0
  6  5  1  0
  6  7  1  1
  8  9  2  0
 10 11  1  0
 11 12  2  0
 13 14  1  0
 13 11  1  0
 15 14  1  0
 16 15  1  0
 17 16  1  1
 17 19  1  0
 18 17  1  0
 18  8  1  0
 19 20  2  0
 19 26  1  0
 22 21  1  1
 22 24  1  0
 23 22  1  0
 25 24  1  6
 25 27  1  0
 26 25  1  0
 27 29  2  0
 27 28  1  0
M  END
$$$$
