QRL.pdb
     RDKit          3D

 29 28  0  0  1  0  0  0  0  0999 V2000
   13.8641  -50.3787   -8.7376 N   0  0  0  0  0  0  0  0  0  0  0  0
   14.7288  -49.5764   -9.5228 C   0  0  0  0  0  0  0  0  0  0  0  0
   15.8222  -49.2206   -9.0216 O   0  0  0  0  0  0  0  0  0  0  0  0
   14.3402  -49.1754  -10.8965 C   0  0  0  0  0  0  0  0  0  0  0  0
   15.4023  -49.4026  -11.9032 C   0  0  0  0  0  0  0  0  0  0  0  0
   16.3418  -50.5370  -11.6729 C   0  0  2  0  0  0  0  0  0  0  0  0
   17.7033  -49.9495  -11.7375 N   0  0  0  0  0  0  0  0  0  0  0  0
   16.2504  -51.6165  -12.7128 C   0  0  0  0  0  0  0  0  0  0  0  0
   16.2124  -52.7919  -12.2836 O   0  0  0  0  0  0  0  0  0  0  0  0
   10.1712  -52.7013  -12.8123 N   0  0  0  0  0  0  0  0  0  0  0  0
   11.0941  -51.8745  -13.5096 C   0  0  0  0  0  0  0  0  0  0  0  0
   12.2459  -51.6461  -12.9902 N   0  0  0  0  0  0  0  0  0  0  0  0
   10.7533  -51.2991  -14.7680 N   0  0  0  0  0  0  0  0  0  0  0  0
   11.6192  -50.4129  -15.5066 C   0  0  0  0  0  0  0  0  0  0  0  0
   12.9584  -50.9468  -15.7969 C   0  0  0  0  0  0  0  0  0  0  0  0
   13.8684  -51.3316  -14.7156 C   0  0  0  0  0  0  0  0  0  0  0  0
   15.2190  -51.8567  -15.0475 C   0  0  2  0  0  0  0  0  0  0  0  0
   16.2052  -51.3793  -14.0938 N   0  0  0  0  0  0  0  0  0  0  0  0
   15.6443  -51.7814  -16.4495 C   0  0  0  0  0  0  0  0  0  0  0  0
   16.6140  -51.1033  -16.7918 O   0  0  0  0  0  0  0  0  0  0  0  0
   12.9163  -50.9422  -13.3378 C   0  0  0  0  0  0  0  0  0  0  0  0
   16.4324  -50.4572  -16.5986 C   0  0  1  0  0  0  0  0  0  0  0  0
   16.5993  -50.7383  -18.0962 C   0  0  0  0  0  0  0  0  0  0  0  0
   17.5386  -49.6567  -18.6247 C   0  0  0  0  0  0  0  0  0  0  0  0
   15.2698  -50.5480  -18.7426 C   0  0  1  0  0  0  0  0  0  0  0  0
   14.3353  -51.7638  -18.5747 N   0  0  0  0  0  0  0  0  0  0  0  0
   14.9506  -52.5034  -17.4607 C   0  0  0  0  0  0  0  0  0  0  0  0
   14.4091  -52.5122  -19.8176 O   0  0  0  0  0  0  0  0  0  0  0  0
   13.6902  -52.0647  -20.9341 O   0  0  0  0  0  0  0  0  0  0  0  0
  1  2  1  0
  2  3  2  0
  4  5  1  0
  4  2  1  0
  6  8  1  0
  6  5  1  0
  6  7  1  6
  8  9  2  0
 10 11  1  0
 11 12  2  0
 13 14  1  0
 13 11  1  0
 15 14  1  0
 16 15  1  0
 17 16  1  6
 17 19  1  0
 18 17  1  0
 18  8  1  0
 19 20  2  0
 19 26  1  0
 22 21  1  1
 22 24  1  0
 23 22  1  0
 25 24  1  1
 25 27  1  0
 26 25  1  0
 27 29  2  0
 27 28  1  0
M  END
$$$$
