QRL.pdb
     RDKit          3D

 29 28  0  0  1  0  0  0  0  0999 V2000
   15.5325  -18.8495   21.1020 N   0  0  0  0  0  0  0  0  0  0  0  0
   15.0448  -19.0173   19.7822 C   0  0  0  0  0  0  0  0  0  0  0  0
   15.6539  -19.8089   19.0234 O   0  0  0  0  0  0  0  0  0  0  0  0
   13.8476  -18.2723   19.3234 C   0  0  0  0  0  0  0  0  0  0  0  0
   13.2615  -17.3945   20.3620 C   0  0  0  0  0  0  0  0  0  0  0  0
   11.8419  -17.6341   20.7490 C   0  0  2  0  0  0  0  0  0  0  0  0
   11.1318  -17.9599   19.4870 N   0  0  0  0  0  0  0  0  0  0  0  0
   11.1741  -16.4378   21.3638 C   0  0  0  0  0  0  0  0  0  0  0  0
   11.9334  -15.5984   21.8987 O   0  0  0  0  0  0  0  0  0  0  0  0
    8.1382  -15.5757   16.9161 N   0  0  0  0  0  0  0  0  0  0  0  0
    7.9843  -14.1803   16.6906 C   0  0  0  0  0  0  0  0  0  0  0  0
    8.4053  -13.6744   15.5882 N   0  0  0  0  0  0  0  0  0  0  0  0
    7.3749  -13.3447   17.6710 N   0  0  0  0  0  0  0  0  0  0  0  0
    7.0058  -13.7936   18.9912 C   0  0  0  0  0  0  0  0  0  0  0  0
    8.1279  -14.2102   19.8457 C   0  0  0  0  0  0  0  0  0  0  0  0
    7.8969  -14.7250   21.1974 C   0  0  0  0  0  0  0  0  0  0  0  0
    9.0545  -15.1560   22.0244 C   0  0  2  0  0  0  0  0  0  0  0  0
    9.7889  -16.2222   21.3656 N   0  0  0  0  0  0  0  0  0  0  0  0
    8.8140  -15.3782   23.4545 C   0  0  0  0  0  0  0  0  0  0  0  0
    8.3980  -16.4582   23.8764 O   0  0  0  0  0  0  0  0  0  0  0  0
    8.3115  -12.6802   15.3261 C   0  0  0  0  0  0  0  0  0  0  0  0
    5.4150  -11.9569   26.3704 C   0  0  1  0  0  0  0  0  0  0  0  0
    6.5220  -12.9492   26.7445 C   0  0  0  0  0  0  0  0  0  0  0  0
    7.3925  -12.2377   27.7777 C   0  0  0  0  0  0  0  0  0  0  0  0
    7.3506  -13.1816   25.5276 C   0  0  2  0  0  0  0  0  0  0  0  0
    8.3362  -14.3583   25.6820 N   0  0  0  0  0  0  0  0  0  0  0  0
    9.0665  -14.3488   24.4040 C   0  0  0  0  0  0  0  0  0  0  0  0
    7.5260  -15.5555   25.8250 O   0  0  0  0  0  0  0  0  0  0  0  0
    7.6907  -16.3670   26.9554 O   0  0  0  0  0  0  0  0  0  0  0  0
  1  2  1  0
  2  3  2  0
  4  5  1  0
  4  2  1  0
  6  8  1  0
  6  5  1  0
  6  7  1  6
  8  9  2  0
 10 11  1  0
 11 12  2  0
 13 14  1  0
 13 11  1  0
 15 14  1  0
 16 15  1  0
 17 16  1  6
 17 19  1  0
 18 17  1  0
 18  8  1  0
 19 20  2  0
 19 26  1  0
 22 21  1  1
 22 24  1  0
 23 22  1  0
 25 24  1  1
 25 27  1  0
 26 25  1  0
 27 29  2  0
 27 28  1  0
M  END
$$$$
