QRL.pdb
     RDKit          3D

 29 28  0  0  1  0  0  0  0  0999 V2000
    7.2233  -12.3090   16.9104 N   0  0  0  0  0  0  0  0  0  0  0  0
    7.3777  -13.6911   16.6389 C   0  0  0  0  0  0  0  0  0  0  0  0
    6.8728  -14.1462   15.5848 O   0  0  0  0  0  0  0  0  0  0  0  0
    8.1170  -14.5640   17.5825 C   0  0  0  0  0  0  0  0  0  0  0  0
    8.5472  -13.8708   18.8183 C   0  0  0  0  0  0  0  0  0  0  0  0
    9.4266  -14.6199   19.7608 C   0  0  2  0  0  0  0  0  0  0  0  0
    9.8056  -15.8668   19.0504 N   0  0  0  0  0  0  0  0  0  0  0  0
    8.7475  -15.0029   21.0441 C   0  0  0  0  0  0  0  0  0  0  0  0
    8.2192  -14.0678   21.6874 O   0  0  0  0  0  0  0  0  0  0  0  0
    5.5853  -22.8411   26.1312 N   0  0  0  0  0  0  0  0  0  0  0  0
    6.3314  -21.6365   26.0134 C   0  0  0  0  0  0  0  0  0  0  0  0
    7.1010  -21.2803   26.9775 N   0  0  0  0  0  0  0  0  0  0  0  0
    6.2307  -20.8260   24.8456 N   0  0  0  0  0  0  0  0  0  0  0  0
    7.3676  -20.3713   24.0832 C   0  0  0  0  0  0  0  0  0  0  0  0
    7.5496  -18.9125   24.0431 C   0  0  0  0  0  0  0  0  0  0  0  0
    7.9150  -18.2313   22.7989 C   0  0  0  0  0  0  0  0  0  0  0  0
    8.1177  -16.7586   22.8029 C   0  0  2  0  0  0  0  0  0  0  0  0
    8.6773  -16.3129   21.5387 N   0  0  0  0  0  0  0  0  0  0  0  0
    8.7507  -16.1698   23.9882 C   0  0  0  0  0  0  0  0  0  0  0  0
    9.9671  -16.2407   24.1697 O   0  0  0  0  0  0  0  0  0  0  0  0
    7.7731  -20.4979   26.9324 C   0  0  0  0  0  0  0  0  0  0  0  0
    8.5147  -11.9092   25.6453 C   0  0  1  0  0  0  0  0  0  0  0  0
    7.2828  -12.8172   25.7344 C   0  0  0  0  0  0  0  0  0  0  0  0
    6.1762  -11.9648   26.3510 C   0  0  0  0  0  0  0  0  0  0  0  0
    7.6006  -13.9175   26.6883 C   0  0  2  0  0  0  0  0  0  0  0  0
    8.6466  -14.9103   26.1406 N   0  0  0  0  0  0  0  0  0  0  0  0
    7.9739  -15.4852   24.9643 C   0  0  0  0  0  0  0  0  0  0  0  0
    8.8499  -15.9057   27.1790 O   0  0  0  0  0  0  0  0  0  0  0  0
    9.7603  -15.6463   28.2122 O   0  0  0  0  0  0  0  0  0  0  0  0
  1  2  1  0
  2  3  2  0
  4  5  1  0
  4  2  1  0
  6  8  1  0
  6  5  1  0
  6  7  1  6
  8  9  2  0
 10 11  1  0
 11 12  2  0
 13 14  1  0
 13 11  1  0
 15 14  1  0
 16 15  1  0
 17 16  1  1
 17 19  1  0
 18 17  1  0
 18  8  1  0
 19 20  2  0
 19 26  1  0
 22 21  1  6
 22 24  1  0
 23 22  1  0
 25 24  1  6
 25 27  1  0
 26 25  1  0
 27 29  2  0
 27 28  1  0
M  END
$$$$
