QRL.pdb
     RDKit          3D

 29 28  0  0  1  0  0  0  0  0999 V2000
    7.7198  -12.4611   16.6917 N   0  0  0  0  0  0  0  0  0  0  0  0
    7.5982  -13.7956   16.2311 C   0  0  0  0  0  0  0  0  0  0  0  0
    7.4220  -13.9833   15.0035 O   0  0  0  0  0  0  0  0  0  0  0  0
    7.6785  -14.9292   17.1837 C   0  0  0  0  0  0  0  0  0  0  0  0
    7.7916  -14.5076   18.5988 C   0  0  0  0  0  0  0  0  0  0  0  0
    8.6671  -15.3173   19.4935 C   0  0  2  0  0  0  0  0  0  0  0  0
    8.6596  -16.6893   18.9274 N   0  0  0  0  0  0  0  0  0  0  0  0
    8.1749  -15.3950   20.9100 C   0  0  0  0  0  0  0  0  0  0  0  0
    7.9929  -14.3005   21.4899 O   0  0  0  0  0  0  0  0  0  0  0  0
    4.3537  -20.3342   19.6672 N   0  0  0  0  0  0  0  0  0  0  0  0
    3.2718  -19.9870   20.5219 C   0  0  0  0  0  0  0  0  0  0  0  0
    2.0888  -19.9005   20.0303 N   0  0  0  0  0  0  0  0  0  0  0  0
    3.4879  -19.7330   21.9074 N   0  0  0  0  0  0  0  0  0  0  0  0
    4.7937  -19.6526   22.5149 C   0  0  0  0  0  0  0  0  0  0  0  0
    5.4229  -18.3241   22.4695 C   0  0  0  0  0  0  0  0  0  0  0  0
    6.7338  -18.0884   23.0788 C   0  0  0  0  0  0  0  0  0  0  0  0
    7.3816  -16.7586   22.9307 C   0  0  2  0  0  0  0  0  0  0  0  0
    7.9162  -16.5932   21.5903 N   0  0  0  0  0  0  0  0  0  0  0  0
    8.2860  -16.3278   24.0025 C   0  0  0  0  0  0  0  0  0  0  0  0
    9.4804  -16.6293   23.9960 O   0  0  0  0  0  0  0  0  0  0  0  0
    1.2560  -19.5940   20.5579 C   0  0  0  0  0  0  0  0  0  0  0  0
    7.7592  -12.5203   28.7978 C   0  0  1  0  0  0  0  0  0  0  0  0
    8.6902  -13.5092   28.0870 C   0  0  0  0  0  0  0  0  0  0  0  0
    9.8925  -12.6924   27.6191 C   0  0  0  0  0  0  0  0  0  0  0  0
    7.9777  -14.0115   26.8780 C   0  0  2  0  0  0  0  0  0  0  0  0
    8.7467  -15.1282   26.1423 N   0  0  0  0  0  0  0  0  0  0  0  0
    7.8089  -15.5340   25.0829 C   0  0  0  0  0  0  0  0  0  0  0  0
    8.9511  -16.1916   27.1106 O   0  0  0  0  0  0  0  0  0  0  0  0
    7.9523  -17.1575   27.2930 O   0  0  0  0  0  0  0  0  0  0  0  0
  1  2  1  0
  2  3  2  0
  4  5  1  0
  4  2  1  0
  6  8  1  0
  6  5  1  0
  6  7  1  6
  8  9  2  0
 10 11  1  0
 11 12  2  0
 13 14  1  0
 13 11  1  0
 15 14  1  0
 16 15  1  0
 17 16  1  1
 17 19  1  0
 18 17  1  0
 18  8  1  0
 19 20  2  0
 19 26  1  0
 22 21  1  1
 22 24  1  0
 23 22  1  0
 25 24  1  6
 25 27  1  0
 26 25  1  0
 27 29  2  0
 27 28  1  0
M  END
$$$$
