NKK.pdb
     RDKit          3D

 27 26  0  0  1  0  0  0  0  0999 V2000
    6.8017  -12.9949   15.9975 N   0  0  0  0  0  0  0  0  0  0  0  0
    7.8958  -13.5263   16.7173 C   0  0  0  0  0  0  0  0  0  0  0  0
    8.9327  -13.8906   16.1110 O   0  0  0  0  0  0  0  0  0  0  0  0
    7.7983  -13.6453   18.1923 C   0  0  0  0  0  0  0  0  0  0  0  0
    8.5692  -14.8470   18.6327 C   0  0  2  0  0  0  0  0  0  0  0  0
    8.5434  -15.9117   17.6754 N   0  0  0  0  0  0  0  0  0  0  0  0
    8.1571  -15.3278   19.9753 C   0  0  0  0  0  0  0  0  0  0  0  0
    8.0372  -14.5377   20.9515 O   0  0  0  0  0  0  0  0  0  0  0  0
    7.8832  -16.7011   20.2059 N   0  0  0  0  0  0  0  0  0  0  0  0
    7.3674  -17.0979   21.4923 C   0  0  1  0  0  0  0  0  0  0  0  0
    6.9820  -18.5667   21.5161 C   0  0  0  0  0  0  0  0  0  0  0  0
    6.3064  -18.9040   22.8363 C   0  0  0  0  0  0  0  0  0  0  0  0
    5.8760  -20.3643   22.7466 C   0  0  0  0  0  0  0  0  0  0  0  0
    5.0964  -20.7561   23.9796 C   0  0  0  0  0  0  0  0  0  0  0  0
    4.6858  -22.1403   23.8325 N   0  0  0  0  0  0  0  0  0  0  0  0
    8.4116  -16.9206   22.5266 C   0  0  0  0  0  0  0  0  0  0  0  0
    9.5929  -17.3290   22.3976 O   0  0  0  0  0  0  0  0  0  0  0  0
    8.0906  -16.2618   23.7298 N   0  0  0  0  0  0  0  0  0  0  0  0
    9.0478  -16.0619   24.8085 C   0  0  1  0  0  0  0  0  0  0  0  0
    8.5029  -15.2708   25.9282 C   0  0  0  0  0  0  0  0  0  0  0  0
    9.5124  -15.1521   27.0342 C   0  0  0  0  0  0  0  0  0  0  0  0
    9.1612  -14.0971   28.0514 C   0  0  0  0  0  0  0  0  0  0  0  0
   10.2225  -13.9427   29.1105 C   0  0  0  0  0  0  0  0  0  0  0  0
    9.9418  -12.9401   30.0839 N   0  0  0  0  0  0  0  0  0  0  0  0
    9.4301  -17.4144   25.2719 C   0  0  0  0  0  0  0  0  0  0  0  0
    8.5789  -18.3289   25.4755 O   0  0  0  0  0  0  0  0  0  0  0  0
   10.7770  -17.7600   25.5137 O   0  0  0  0  0  0  0  0  0  0  0  0
  2  1  1  0
  3  2  2  0
  4  2  1  0
  5  4  1  0
  5  6  1  6
  7  5  1  0
  7  8  2  0
  9  7  1  0
 10  9  1  0
 10 11  1  6
 12 11  1  0
 12 13  1  0
 13 14  1  0
 14 15  1  0
 16 10  1  0
 17 16  2  0
 18 16  1  0
 19 25  1  0
 19 18  1  0
 19 20  1  1
 21 20  1  0
 22 21  1  0
 23 22  1  0
 23 24  1  0
 25 27  1  0
 26 25  2  0
M  END
$$$$
