NKK.pdb
     RDKit          3D

 27 26  0  0  1  0  0  0  0  0999 V2000
    9.9235  -18.8702   15.9571 N   0  0  0  0  0  0  0  0  0  0  0  0
   10.5408  -18.5519   17.1880 C   0  0  0  0  0  0  0  0  0  0  0  0
   11.7476  -18.2081   17.2182 O   0  0  0  0  0  0  0  0  0  0  0  0
    9.7431  -18.6305   18.4357 C   0  0  0  0  0  0  0  0  0  0  0  0
   10.0621  -19.9123   19.1339 C   0  0  2  0  0  0  0  0  0  0  0  0
    9.6834  -21.0702   18.3813 N   0  0  0  0  0  0  0  0  0  0  0  0
    9.5061  -19.9657   20.5093 C   0  0  0  0  0  0  0  0  0  0  0  0
    9.7580  -19.0676   21.3588 O   0  0  0  0  0  0  0  0  0  0  0  0
    8.6677  -21.0362   20.9161 N   0  0  0  0  0  0  0  0  0  0  0  0
    8.2140  -21.0792   22.2838 C   0  0  1  0  0  0  0  0  0  0  0  0
    7.0241  -22.0075   22.4537 C   0  0  0  0  0  0  0  0  0  0  0  0
    6.5547  -21.9891   23.9002 C   0  0  0  0  0  0  0  0  0  0  0  0
    5.3997  -22.9803   23.9976 C   0  0  0  0  0  0  0  0  0  0  0  0
    4.7529  -22.8968   25.3601 C   0  0  0  0  0  0  0  0  0  0  0  0
    3.6677  -23.8595   25.4037 N   0  0  0  0  0  0  0  0  0  0  0  0
    9.2892  -21.6111   23.1513 C   0  0  0  0  0  0  0  0  0  0  0  0
    9.8839  -22.6964   22.9334 O   0  0  0  0  0  0  0  0  0  0  0  0
    9.6867  -20.8812   24.2888 N   0  0  0  0  0  0  0  0  0  0  0  0
   10.7106  -21.3443   25.2146 C   0  0  1  0  0  0  0  0  0  0  0  0
   11.9101  -20.4853   25.2296 C   0  0  0  0  0  0  0  0  0  0  0  0
   13.1204  -21.2721   25.6452 C   0  0  0  0  0  0  0  0  0  0  0  0
   14.3670  -20.4329   25.7587 C   0  0  0  0  0  0  0  0  0  0  0  0
   15.5688  -21.2411   26.1761 C   0  0  0  0  0  0  0  0  0  0  0  0
   16.8045  -20.5333   26.1156 N   0  0  0  0  0  0  0  0  0  0  0  0
   10.0750  -21.3640   26.5509 C   0  0  0  0  0  0  0  0  0  0  0  0
    9.1125  -20.6011   26.8571 O   0  0  0  0  0  0  0  0  0  0  0  0
   10.5123  -22.2431   27.5649 O   0  0  0  0  0  0  0  0  0  0  0  0
  2  1  1  0
  3  2  2  0
  4  2  1  0
  5  4  1  0
  5  6  1  6
  7  5  1  0
  7  8  2  0
  9  7  1  0
 10  9  1  0
 10 11  1  6
 12 11  1  0
 12 13  1  0
 13 14  1  0
 14 15  1  0
 16 10  1  0
 17 16  2  0
 18 16  1  0
 19 25  1  0
 19 18  1  0
 19 20  1  1
 21 20  1  0
 22 21  1  0
 23 22  1  0
 23 24  1  0
 25 27  1  0
 26 25  2  0
M  END
$$$$
