NKK.pdb
     RDKit          3D

 27 26  0  0  1  0  0  0  0  0999 V2000
   14.6055  -12.9592   18.1370 N   0  0  0  0  0  0  0  0  0  0  0  0
   14.5688  -14.2075   18.7988 C   0  0  0  0  0  0  0  0  0  0  0  0
   15.3360  -15.1342   18.4406 O   0  0  0  0  0  0  0  0  0  0  0  0
   13.6141  -14.4026   19.9167 C   0  0  0  0  0  0  0  0  0  0  0  0
   13.2175  -15.8422   19.9686 C   0  0  2  0  0  0  0  0  0  0  0  0
   12.7474  -16.3401   18.7110 N   0  0  0  0  0  0  0  0  0  0  0  0
   12.2430  -16.1261   21.0518 C   0  0  0  0  0  0  0  0  0  0  0  0
   12.4588  -15.7727   22.2436 O   0  0  0  0  0  0  0  0  0  0  0  0
   11.0289  -16.8090   20.7802 N   0  0  0  0  0  0  0  0  0  0  0  0
   10.1488  -17.1204   21.8787 C   0  0  1  0  0  0  0  0  0  0  0  0
    8.8459  -17.7362   21.3995 C   0  0  0  0  0  0  0  0  0  0  0  0
    7.9862  -18.1241   22.5927 C   0  0  0  0  0  0  0  0  0  0  0  0
    6.7767  -18.8684   22.0366 C   0  0  0  0  0  0  0  0  0  0  0  0
    5.8434  -19.2603   23.1577 C   0  0  0  0  0  0  0  0  0  0  0  0
    4.7394  -20.0081   22.5847 N   0  0  0  0  0  0  0  0  0  0  0  0
   10.7867  -18.1217   22.7629 C   0  0  0  0  0  0  0  0  0  0  0  0
   11.2319  -19.2240   22.3556 O   0  0  0  0  0  0  0  0  0  0  0  0
   10.9145  -17.8496   24.1393 N   0  0  0  0  0  0  0  0  0  0  0  0
   11.4298  -18.8166   25.0980 C   0  0  1  0  0  0  0  0  0  0  0  0
   12.8181  -18.5388   25.5128 C   0  0  0  0  0  0  0  0  0  0  0  0
   13.2985  -19.5772   26.4860 C   0  0  0  0  0  0  0  0  0  0  0  0
   14.6894  -19.3125   27.0022 C   0  0  0  0  0  0  0  0  0  0  0  0
   15.1463  -20.3576   27.9876 C   0  0  0  0  0  0  0  0  0  0  0  0
   16.4027  -20.0797   28.6007 N   0  0  0  0  0  0  0  0  0  0  0  0
   10.5222  -18.7584   26.2656 C   0  0  0  0  0  0  0  0  0  0  0  0
    9.7101  -17.8049   26.4482 O   0  0  0  0  0  0  0  0  0  0  0  0
   10.5140  -19.7727   27.2470 O   0  0  0  0  0  0  0  0  0  0  0  0
  2  1  1  0
  3  2  2  0
  4  2  1  0
  5  4  1  0
  5  6  1  6
  7  5  1  0
  7  8  2  0
  9  7  1  0
 10  9  1  0
 10 11  1  6
 12 11  1  0
 12 13  1  0
 13 14  1  0
 14 15  1  0
 16 10  1  0
 17 16  2  0
 18 16  1  0
 19 25  1  0
 19 18  1  0
 19 20  1  1
 21 20  1  0
 22 21  1  0
 23 22  1  0
 23 24  1  0
 25 27  1  0
 26 25  2  0
M  END
$$$$
