NKK.pdb
     RDKit          3D

 27 26  0  0  1  0  0  0  0  0999 V2000
    7.5038  -13.1147   15.7049 N   0  0  0  0  0  0  0  0  0  0  0  0
    8.1897  -13.9756   16.5916 C   0  0  0  0  0  0  0  0  0  0  0  0
    8.8011  -14.9789   16.1501 O   0  0  0  0  0  0  0  0  0  0  0  0
    8.1746  -13.6749   18.0437 C   0  0  0  0  0  0  0  0  0  0  0  0
    8.7339  -14.8448   18.7858 C   0  0  2  0  0  0  0  0  0  0  0  0
    8.2296  -16.1001   18.3162 N   0  0  0  0  0  0  0  0  0  0  0  0
    8.5670  -14.7200   20.2555 C   0  0  0  0  0  0  0  0  0  0  0  0
    9.3390  -14.0027   20.9493 O   0  0  0  0  0  0  0  0  0  0  0  0
    7.5268  -15.4084   20.9326 N   0  0  0  0  0  0  0  0  0  0  0  0
    7.8772  -16.4659   21.8475 C   0  0  1  0  0  0  0  0  0  0  0  0
    8.7487  -17.5184   21.1848 C   0  0  0  0  0  0  0  0  0  0  0  0
    9.0231  -18.6531   22.1597 C   0  0  0  0  0  0  0  0  0  0  0  0
    9.8356  -19.6960   21.3993 C   0  0  0  0  0  0  0  0  0  0  0  0
   10.1840  -20.8512   22.3078 C   0  0  0  0  0  0  0  0  0  0  0  0
   10.9257  -21.8277   21.5314 N   0  0  0  0  0  0  0  0  0  0  0  0
    8.6664  -15.9141   22.9718 C   0  0  0  0  0  0  0  0  0  0  0  0
    9.8699  -15.5668   22.8707 O   0  0  0  0  0  0  0  0  0  0  0  0
    8.0600  -15.7591   24.2340 N   0  0  0  0  0  0  0  0  0  0  0  0
    8.7558  -15.2127   25.3903 C   0  0  1  0  0  0  0  0  0  0  0  0
    7.8644  -14.4831   26.3122 C   0  0  0  0  0  0  0  0  0  0  0  0
    7.4687  -13.1569   25.7283 C   0  0  0  0  0  0  0  0  0  0  0  0
    6.5539  -12.3607   26.6230 C   0  0  0  0  0  0  0  0  0  0  0  0
    6.2188  -11.0088   26.0468 C   0  0  0  0  0  0  0  0  0  0  0  0
    5.3816  -10.2064   26.8755 N   0  0  0  0  0  0  0  0  0  0  0  0
    9.3744  -16.3676   26.0787 C   0  0  0  0  0  0  0  0  0  0  0  0
    8.7122  -17.3924   26.4155 O   0  0  0  0  0  0  0  0  0  0  0  0
   10.7488  -16.3879   26.3995 O   0  0  0  0  0  0  0  0  0  0  0  0
  2  1  1  0
  3  2  2  0
  4  2  1  0
  5  4  1  0
  5  6  1  6
  7  5  1  0
  7  8  2  0
  9  7  1  0
 10  9  1  0
 10 11  1  6
 12 11  1  0
 12 13  1  0
 13 14  1  0
 14 15  1  0
 16 10  1  0
 17 16  2  0
 18 16  1  0
 19 25  1  0
 19 18  1  0
 19 20  1  1
 21 20  1  0
 22 21  1  0
 23 22  1  0
 23 24  1  0
 25 27  1  0
 26 25  2  0
M  END
$$$$
