NKK.pdb
     RDKit          3D

 27 26  0  0  1  0  0  0  0  0999 V2000
   16.7990  -13.3337   17.2692 N   0  0  0  0  0  0  0  0  0  0  0  0
   15.8197  -14.3095   17.5631 C   0  0  0  0  0  0  0  0  0  0  0  0
   15.8436  -15.4221   16.9826 O   0  0  0  0  0  0  0  0  0  0  0  0
   14.7697  -13.9982   18.5630 C   0  0  0  0  0  0  0  0  0  0  0  0
   13.9256  -15.2131   18.7725 C   0  0  2  0  0  0  0  0  0  0  0  0
   13.1781  -15.5842   17.6088 N   0  0  0  0  0  0  0  0  0  0  0  0
   13.0408  -15.0946   19.9585 C   0  0  0  0  0  0  0  0  0  0  0  0
   13.5057  -14.8675   21.1092 O   0  0  0  0  0  0  0  0  0  0  0  0
   11.6338  -15.2342   19.8358 N   0  0  0  0  0  0  0  0  0  0  0  0
   10.8193  -15.1051   21.0182 C   0  0  1  0  0  0  0  0  0  0  0  0
    9.3542  -14.9021   20.6737 C   0  0  0  0  0  0  0  0  0  0  0  0
    9.1864  -13.6356   19.8485 C   0  0  0  0  0  0  0  0  0  0  0  0
    7.7366  -13.6105   19.3759 C   0  0  0  0  0  0  0  0  0  0  0  0
    7.4667  -12.3531   18.5837 C   0  0  0  0  0  0  0  0  0  0  0  0
    6.0564  -12.3294   18.2420 N   0  0  0  0  0  0  0  0  0  0  0  0
   10.8947  -16.3495   21.8164 C   0  0  0  0  0  0  0  0  0  0  0  0
   11.0834  -17.4859   21.3143 O   0  0  0  0  0  0  0  0  0  0  0  0
   10.7508  -16.2848   23.2163 N   0  0  0  0  0  0  0  0  0  0  0  0
   10.8148  -17.4562   24.0787 C   0  0  1  0  0  0  0  0  0  0  0  0
   11.0977  -17.1240   25.4880 C   0  0  0  0  0  0  0  0  0  0  0  0
   11.2033  -18.3729   26.3161 C   0  0  0  0  0  0  0  0  0  0  0  0
   11.4798  -18.1010   27.7724 C   0  0  0  0  0  0  0  0  0  0  0  0
   11.5062  -19.3616   28.5983 C   0  0  0  0  0  0  0  0  0  0  0  0
   11.5751  -19.1428   30.0051 N   0  0  0  0  0  0  0  0  0  0  0  0
    9.4987  -18.1229   23.9612 C   0  0  0  0  0  0  0  0  0  0  0  0
    8.4468  -17.4979   23.6370 O   0  0  0  0  0  0  0  0  0  0  0  0
    9.3450  -19.5043   24.2068 O   0  0  0  0  0  0  0  0  0  0  0  0
  2  1  1  0
  3  2  2  0
  4  2  1  0
  5  4  1  0
  5  6  1  6
  7  5  1  0
  7  8  2  0
  9  7  1  0
 10  9  1  0
 10 11  1  6
 12 11  1  0
 12 13  1  0
 13 14  1  0
 14 15  1  0
 16 10  1  0
 17 16  2  0
 18 16  1  0
 19 25  1  0
 19 18  1  0
 19 20  1  1
 21 20  1  0
 22 21  1  0
 23 22  1  0
 23 24  1  0
 25 27  1  0
 26 25  2  0
M  END
$$$$
