NKK.pdb
     RDKit          3D

 27 26  0  0  1  0  0  0  0  0999 V2000
   10.5403  -16.9252   14.4244 N   0  0  0  0  0  0  0  0  0  0  0  0
   11.4214  -16.4577   15.4258 C   0  0  0  0  0  0  0  0  0  0  0  0
   12.6477  -16.3428   15.1836 O   0  0  0  0  0  0  0  0  0  0  0  0
   10.8757  -16.1075   16.7594 C   0  0  0  0  0  0  0  0  0  0  0  0
    9.3871  -16.2297   16.7204 C   0  0  2  0  0  0  0  0  0  0  0  0
    8.7702  -15.2890   15.8343 N   0  0  0  0  0  0  0  0  0  0  0  0
    8.7748  -16.1695   18.0713 C   0  0  0  0  0  0  0  0  0  0  0  0
    8.2146  -15.1220   18.4964 O   0  0  0  0  0  0  0  0  0  0  0  0
    8.7999  -17.2959   18.9344 N   0  0  0  0  0  0  0  0  0  0  0  0
    8.0629  -17.2367   20.1719 C   0  0  1  0  0  0  0  0  0  0  0  0
    7.5099  -18.5957   20.5639 C   0  0  0  0  0  0  0  0  0  0  0  0
    6.3557  -18.9698   19.6469 C   0  0  0  0  0  0  0  0  0  0  0  0
    5.9545  -20.3960   20.0086 C   0  0  0  0  0  0  0  0  0  0  0  0
    4.7773  -20.8363   19.1708 C   0  0  0  0  0  0  0  0  0  0  0  0
    4.3906  -22.1674   19.6007 N   0  0  0  0  0  0  0  0  0  0  0  0
    8.9619  -16.8161   21.2703 C   0  0  0  0  0  0  0  0  0  0  0  0
   10.1893  -17.0834   21.3038 O   0  0  0  0  0  0  0  0  0  0  0  0
    8.4393  -16.0749   22.3484 N   0  0  0  0  0  0  0  0  0  0  0  0
    9.2496  -15.6193   23.4690 C   0  0  1  0  0  0  0  0  0  0  0  0
    8.4853  -14.8315   24.4548 C   0  0  0  0  0  0  0  0  0  0  0  0
    9.3747  -14.3830   25.5793 C   0  0  0  0  0  0  0  0  0  0  0  0
    8.6553  -13.5597   26.6165 C   0  0  0  0  0  0  0  0  0  0  0  0
    9.5769  -13.0720   27.7049 C   0  0  0  0  0  0  0  0  0  0  0  0
    8.9250  -12.3599   28.7534 N   0  0  0  0  0  0  0  0  0  0  0  0
    9.7983  -16.8404   24.1000 C   0  0  0  0  0  0  0  0  0  0  0  0
   10.9690  -16.8907   24.5786 O   0  0  0  0  0  0  0  0  0  0  0  0
    9.0381  -18.0252   24.2027 O   0  0  0  0  0  0  0  0  0  0  0  0
  2  1  1  0
  3  2  2  0
  4  2  1  0
  5  4  1  0
  5  6  1  6
  7  5  1  0
  7  8  2  0
  9  7  1  0
 10  9  1  0
 10 11  1  1
 12 11  1  0
 12 13  1  0
 13 14  1  0
 14 15  1  0
 16 10  1  0
 17 16  2  0
 18 16  1  0
 19 25  1  0
 19 18  1  0
 19 20  1  1
 21 20  1  0
 22 21  1  0
 23 22  1  0
 23 24  1  0
 25 27  1  0
 26 25  2  0
M  END
$$$$
