NKK.pdb
     RDKit          3D

 27 26  0  0  1  0  0  0  0  0999 V2000
   14.9856  -16.4938   16.1351 N   0  0  0  0  0  0  0  0  0  0  0  0
   13.8522  -16.9194   15.4059 C   0  0  0  0  0  0  0  0  0  0  0  0
   13.9478  -17.1670   14.1791 O   0  0  0  0  0  0  0  0  0  0  0  0
   12.5558  -17.0676   16.1108 C   0  0  0  0  0  0  0  0  0  0  0  0
   12.4009  -18.4887   16.5451 C   0  0  2  0  0  0  0  0  0  0  0  0
   12.1864  -19.3889   15.4524 N   0  0  0  0  0  0  0  0  0  0  0  0
   11.3557  -18.6558   17.5859 C   0  0  0  0  0  0  0  0  0  0  0  0
   11.3828  -17.9960   18.6609 O   0  0  0  0  0  0  0  0  0  0  0  0
   10.2849  -19.5695   17.4044 N   0  0  0  0  0  0  0  0  0  0  0  0
    9.3011  -19.7000   18.4499 C   0  0  1  0  0  0  0  0  0  0  0  0
    7.9948  -20.2706   17.9263 C   0  0  0  0  0  0  0  0  0  0  0  0
    6.9575  -20.2962   19.0383 C   0  0  0  0  0  0  0  0  0  0  0  0
    5.6811  -20.8704   18.4325 C   0  0  0  0  0  0  0  0  0  0  0  0
    4.5735  -20.8800   19.4595 C   0  0  0  0  0  0  0  0  0  0  0  0
    3.4060  -21.4973   18.8577 N   0  0  0  0  0  0  0  0  0  0  0  0
    9.7886  -20.6439   19.4809 C   0  0  0  0  0  0  0  0  0  0  0  0
   10.2975  -21.7614   19.2140 O   0  0  0  0  0  0  0  0  0  0  0  0
    9.6889  -20.2954   20.8423 N   0  0  0  0  0  0  0  0  0  0  0  0
   10.2024  -21.1312   21.9182 C   0  0  1  0  0  0  0  0  0  0  0  0
   10.2960  -20.4226   23.2089 C   0  0  0  0  0  0  0  0  0  0  0  0
   10.9831  -21.2781   24.2347 C   0  0  0  0  0  0  0  0  0  0  0  0
   11.2055  -20.5721   25.5475 C   0  0  0  0  0  0  0  0  0  0  0  0
   12.0506  -21.3795   26.4993 C   0  0  0  0  0  0  0  0  0  0  0  0
   12.3558  -20.7165   27.7235 N   0  0  0  0  0  0  0  0  0  0  0  0
    9.2714  -22.2765   22.0262 C   0  0  0  0  0  0  0  0  0  0  0  0
    8.0147  -22.1395   21.9601 O   0  0  0  0  0  0  0  0  0  0  0  0
    9.7395  -23.5953   22.2104 O   0  0  0  0  0  0  0  0  0  0  0  0
  2  1  1  0
  3  2  2  0
  4  2  1  0
  5  4  1  0
  5  6  1  6
  7  5  1  0
  7  8  2  0
  9  7  1  0
 10  9  1  0
 10 11  1  6
 12 11  1  0
 12 13  1  0
 13 14  1  0
 14 15  1  0
 16 10  1  0
 17 16  2  0
 18 16  1  0
 19 25  1  0
 19 18  1  0
 19 20  1  1
 21 20  1  0
 22 21  1  0
 23 22  1  0
 23 24  1  0
 25 27  1  0
 26 25  2  0
M  END
$$$$
