NKK.pdb
     RDKit          3D

 27 26  0  0  1  0  0  0  0  0999 V2000
   14.8199  -13.2800   18.7252 N   0  0  0  0  0  0  0  0  0  0  0  0
   14.0898  -14.3419   18.1446 C   0  0  0  0  0  0  0  0  0  0  0  0
   14.5521  -14.9572   17.1530 O   0  0  0  0  0  0  0  0  0  0  0  0
   12.7764  -14.7144   18.7235 C   0  0  0  0  0  0  0  0  0  0  0  0
   12.9577  -15.9044   19.6087 C   0  0  2  0  0  0  0  0  0  0  0  0
   13.1575  -17.1205   18.8795 N   0  0  0  0  0  0  0  0  0  0  0  0
   11.8611  -16.0508   20.5984 C   0  0  0  0  0  0  0  0  0  0  0  0
   11.4909  -15.0855   21.3215 O   0  0  0  0  0  0  0  0  0  0  0  0
   11.1893  -17.2898   20.7648 N   0  0  0  0  0  0  0  0  0  0  0  0
   10.1610  -17.3905   21.7701 C   0  0  1  0  0  0  0  0  0  0  0  0
    9.4249  -18.7166   21.6923 C   0  0  0  0  0  0  0  0  0  0  0  0
    8.4694  -18.7105   20.5090 C   0  0  0  0  0  0  0  0  0  0  0  0
    7.8621  -20.1072   20.4303 C   0  0  0  0  0  0  0  0  0  0  0  0
    6.7751  -20.1462   19.3822 C   0  0  0  0  0  0  0  0  0  0  0  0
    6.2857  -21.5094   19.2906 N   0  0  0  0  0  0  0  0  0  0  0  0
   10.7704  -17.3266   23.1177 C   0  0  0  0  0  0  0  0  0  0  0  0
   11.9268  -17.7443   23.3771 O   0  0  0  0  0  0  0  0  0  0  0  0
   10.0363  -16.7723   24.1848 N   0  0  0  0  0  0  0  0  0  0  0  0
   10.5527  -16.6781   25.5428 C   0  0  1  0  0  0  0  0  0  0  0  0
    9.8145  -15.7119   26.3783 C   0  0  0  0  0  0  0  0  0  0  0  0
   10.3526  -15.7040   27.7808 C   0  0  0  0  0  0  0  0  0  0  0  0
    9.6440  -14.7293   28.6858 C   0  0  0  0  0  0  0  0  0  0  0  0
   10.2075  -14.7277   30.0838 C   0  0  0  0  0  0  0  0  0  0  0  0
    9.6047  -13.7795   30.9607 N   0  0  0  0  0  0  0  0  0  0  0  0
   10.4483  -18.0389   26.1153 C   0  0  0  0  0  0  0  0  0  0  0  0
    9.4609  -18.7977   25.8885 O   0  0  0  0  0  0  0  0  0  0  0  0
   11.4538  -18.5680   26.9527 O   0  0  0  0  0  0  0  0  0  0  0  0
  2  1  1  0
  3  2  2  0
  4  2  1  0
  5  4  1  0
  5  6  1  6
  7  5  1  0
  7  8  2  0
  9  7  1  0
 10  9  1  0
 10 11  1  1
 12 11  1  0
 12 13  1  0
 13 14  1  0
 14 15  1  0
 16 10  1  0
 17 16  2  0
 18 16  1  0
 19 25  1  0
 19 18  1  0
 19 20  1  1
 21 20  1  0
 22 21  1  0
 23 22  1  0
 23 24  1  0
 25 27  1  0
 26 25  2  0
M  END
$$$$
