NKK.pdb
     RDKit          3D

 27 26  0  0  1  0  0  0  0  0999 V2000
   12.4305  -17.6009   14.2295 N   0  0  0  0  0  0  0  0  0  0  0  0
   13.0015  -17.7605   15.5125 C   0  0  0  0  0  0  0  0  0  0  0  0
   13.9049  -18.6115   15.6995 O   0  0  0  0  0  0  0  0  0  0  0  0
   12.5178  -16.9104   16.6273 C   0  0  0  0  0  0  0  0  0  0  0  0
   12.0579  -17.7912   17.7431 C   0  0  2  0  0  0  0  0  0  0  0  0
   10.9569  -18.6307   17.3776 N   0  0  0  0  0  0  0  0  0  0  0  0
   11.7597  -17.0315   18.9830 C   0  0  0  0  0  0  0  0  0  0  0  0
   12.6770  -16.6519   19.7616 O   0  0  0  0  0  0  0  0  0  0  0  0
   10.4241  -16.7055   19.3354 N   0  0  0  0  0  0  0  0  0  0  0  0
   10.1900  -15.9579   20.5456 C   0  0  1  0  0  0  0  0  0  0  0  0
    8.8365  -15.2694   20.5294 C   0  0  0  0  0  0  0  0  0  0  0  0
    8.8278  -14.1677   19.4810 C   0  0  0  0  0  0  0  0  0  0  0  0
    7.4027  -13.6272   19.4266 C   0  0  0  0  0  0  0  0  0  0  0  0
    7.3059  -12.5094   18.4153 C   0  0  0  0  0  0  0  0  0  0  0  0
    5.9247  -12.0668   18.3632 N   0  0  0  0  0  0  0  0  0  0  0  0
   10.1807  -16.8757   21.7071 C   0  0  0  0  0  0  0  0  0  0  0  0
    9.5601  -17.9682   21.7236 O   0  0  0  0  0  0  0  0  0  0  0  0
   10.8983  -16.5302   22.8692 N   0  0  0  0  0  0  0  0  0  0  0  0
   11.0115  -17.4073   24.0257 C   0  0  1  0  0  0  0  0  0  0  0  0
   12.4031  -17.5914   24.4800 C   0  0  0  0  0  0  0  0  0  0  0  0
   12.4713  -18.6129   25.5792 C   0  0  0  0  0  0  0  0  0  0  0  0
   13.8780  -18.9090   26.0316 C   0  0  0  0  0  0  0  0  0  0  0  0
   13.9306  -19.9971   27.0733 C   0  0  0  0  0  0  0  0  0  0  0  0
   15.2356  -20.2648   27.5800 N   0  0  0  0  0  0  0  0  0  0  0  0
   10.1998  -16.7825   25.0939 C   0  0  0  0  0  0  0  0  0  0  0  0
    9.8706  -17.4018   26.1477 O   0  0  0  0  0  0  0  0  0  0  0  0
    9.7453  -15.4500   24.9936 O   0  0  0  0  0  0  0  0  0  0  0  0
  2  1  1  0
  3  2  2  0
  4  2  1  0
  5  4  1  0
  5  6  1  6
  7  5  1  0
  7  8  2  0
  9  7  1  0
 10  9  1  0
 10 11  1  6
 12 11  1  0
 12 13  1  0
 13 14  1  0
 14 15  1  0
 16 10  1  0
 17 16  2  0
 18 16  1  0
 19 25  1  0
 19 18  1  0
 19 20  1  1
 21 20  1  0
 22 21  1  0
 23 22  1  0
 23 24  1  0
 25 27  1  0
 26 25  2  0
M  END
$$$$
