NKK.pdb
     RDKit          3D

 27 26  0  0  1  0  0  0  0  0999 V2000
   10.2417  -20.5077   16.8563 N   0  0  0  0  0  0  0  0  0  0  0  0
   11.1242  -20.9685   17.8596 C   0  0  0  0  0  0  0  0  0  0  0  0
   11.7123  -22.0692   17.7254 O   0  0  0  0  0  0  0  0  0  0  0  0
   11.3421  -20.1343   19.0662 C   0  0  0  0  0  0  0  0  0  0  0  0
   11.3098  -18.6938   18.6708 C   0  0  2  0  0  0  0  0  0  0  0  0
   12.4325  -18.3065   17.8709 N   0  0  0  0  0  0  0  0  0  0  0  0
   11.1468  -17.7870   19.8346 C   0  0  0  0  0  0  0  0  0  0  0  0
   12.0838  -17.5930   20.6570 O   0  0  0  0  0  0  0  0  0  0  0  0
    9.9235  -17.1043   20.0619 N   0  0  0  0  0  0  0  0  0  0  0  0
    9.8051  -16.2646   21.2277 C   0  0  1  0  0  0  0  0  0  0  0  0
    8.6328  -15.3059   21.1148 C   0  0  0  0  0  0  0  0  0  0  0  0
    8.8757  -14.3213   19.9814 C   0  0  0  0  0  0  0  0  0  0  0  0
    7.5708  -13.5585   19.7778 C   0  0  0  0  0  0  0  0  0  0  0  0
    7.6937  -12.6169   18.6031 C   0  0  0  0  0  0  0  0  0  0  0  0
    6.4128  -11.9609   18.4151 N   0  0  0  0  0  0  0  0  0  0  0  0
    9.5509  -17.1004   22.4228 C   0  0  0  0  0  0  0  0  0  0  0  0
    8.7583  -18.0755   22.4322 O   0  0  0  0  0  0  0  0  0  0  0  0
   10.2204  -16.8091   23.6276 N   0  0  0  0  0  0  0  0  0  0  0  0
   10.0788  -17.6140   24.8325 C   0  0  1  0  0  0  0  0  0  0  0  0
   11.3293  -17.7226   25.6078 C   0  0  0  0  0  0  0  0  0  0  0  0
   11.1338  -18.6035   26.8087 C   0  0  0  0  0  0  0  0  0  0  0  0
   12.3977  -18.8226   27.5996 C   0  0  0  0  0  0  0  0  0  0  0  0
   12.2166  -19.8289   28.7070 C   0  0  0  0  0  0  0  0  0  0  0  0
   13.3842  -20.0575   29.4919 N   0  0  0  0  0  0  0  0  0  0  0  0
    9.0271  -16.9581   25.6413 C   0  0  0  0  0  0  0  0  0  0  0  0
    8.7894  -15.7169   25.5692 O   0  0  0  0  0  0  0  0  0  0  0  0
    8.2255  -17.6885   26.5446 O   0  0  0  0  0  0  0  0  0  0  0  0
  2  1  1  0
  3  2  2  0
  4  2  1  0
  5  4  1  0
  5  6  1  1
  7  5  1  0
  7  8  2  0
  9  7  1  0
 10  9  1  0
 10 11  1  6
 12 11  1  0
 12 13  1  0
 13 14  1  0
 14 15  1  0
 16 10  1  0
 17 16  2  0
 18 16  1  0
 19 25  1  0
 19 18  1  0
 19 20  1  1
 21 20  1  0
 22 21  1  0
 23 22  1  0
 23 24  1  0
 25 27  1  0
 26 25  2  0
M  END
$$$$
