LDV.pdb
     RDKit          3D

 24 23  0  0  1  0  0  0  0  0999 V2000
    9.1932  -13.6227   19.0018 C   0  0  0  0  0  0  0  0  0  0  0  0
    7.9421  -13.3984   19.7982 C   0  0  2  0  0  0  0  0  0  0  0  0
    7.7298  -11.9263   20.1064 C   0  0  0  0  0  0  0  0  0  0  0  0
    8.0370  -14.1910   21.0867 C   0  0  0  0  0  0  0  0  0  0  0  0
    8.2404  -15.6559   20.8600 C   0  0  2  0  0  0  0  0  0  0  0  0
    7.1314  -16.3311   20.2489 N   0  0  0  0  0  0  0  0  0  0  0  0
    8.6239  -16.2725   22.1718 C   0  0  0  0  0  0  0  0  0  0  0  0
    7.6769  -16.5150   22.9676 O   0  0  0  0  0  0  0  0  0  0  0  0
    9.9604  -16.5646   22.4994 N   0  0  0  0  0  0  0  0  0  0  0  0
   10.2011  -17.3089   23.7813 C   0  0  1  0  0  0  0  0  0  0  0  0
   11.3978  -18.1830   23.4907 C   0  0  0  0  0  0  0  0  0  0  0  0
   11.8171  -19.0100   24.5919 C   0  0  0  0  0  0  0  0  0  0  0  0
   11.2762  -19.2375   25.6921 O   0  0  0  0  0  0  0  0  0  0  0  0
   10.4412  -16.3011   24.8193 C   0  0  0  0  0  0  0  0  0  0  0  0
   11.3934  -15.4645   24.6222 O   0  0  0  0  0  0  0  0  0  0  0  0
   13.0553  -19.7012   24.4335 O   0  0  0  0  0  0  0  0  0  0  0  0
    9.2398  -13.3150   28.4755 C   0  0  0  0  0  0  0  0  0  0  0  0
    8.9375  -14.3203   27.4040 C   0  0  1  0  0  0  0  0  0  0  0  0
    8.3201  -13.6375   26.2224 C   0  0  0  0  0  0  0  0  0  0  0  0
   10.1302  -15.1570   27.0205 C   0  0  2  0  0  0  0  0  0  0  0  0
    9.7336  -16.1510   26.0032 N   0  0  0  0  0  0  0  0  0  0  0  0
   10.5806  -15.9542   28.2072 C   0  0  0  0  0  0  0  0  0  0  0  0
   10.2159  -17.1474   28.2876 O   0  0  0  0  0  0  0  0  0  0  0  0
   11.3730  -15.4364   29.2083 O   0  0  0  0  0  0  0  0  0  0  0  0
  2  1  1  1
  3  2  1  0
  4  5  1  0
  4  2  1  0
  5  6  1  1
  5  7  1  0
  7  8  2  0
  9  7  1  0
  9 10  1  0
 10 14  1  0
 10 11  1  6
 12 16  1  0
 12 11  1  0
 13 12  2  0
 14 15  2  0
 18 17  1  1
 18 20  1  0
 19 18  1  0
 20 22  1  0
 20 21  1  6
 21 14  1  0
 22 23  2  0
 22 24  1  0
M  END
$$$$
