LDV.pdb
     RDKit          3D

 24 23  0  0  1  0  0  0  0  0999 V2000
    7.8710  -11.9126   19.8927 C   0  0  0  0  0  0  0  0  0  0  0  0
    8.3461  -13.2935   19.5503 C   0  0  2  0  0  0  0  0  0  0  0  0
    8.6824  -13.4211   18.0746 C   0  0  0  0  0  0  0  0  0  0  0  0
    7.2644  -14.2869   19.9249 C   0  0  0  0  0  0  0  0  0  0  0  0
    7.7810  -15.6815   20.0892 C   0  0  2  0  0  0  0  0  0  0  0  0
    7.1368  -16.6641   19.2654 N   0  0  0  0  0  0  0  0  0  0  0  0
    7.7053  -16.0283   21.5460 C   0  0  0  0  0  0  0  0  0  0  0  0
    6.5729  -16.3806   21.9732 O   0  0  0  0  0  0  0  0  0  0  0  0
    8.8290  -15.9653   22.3900 N   0  0  0  0  0  0  0  0  0  0  0  0
    8.6417  -16.4179   23.8095 C   0  0  1  0  0  0  0  0  0  0  0  0
    9.6319  -17.5454   23.9794 C   0  0  0  0  0  0  0  0  0  0  0  0
    9.6733  -18.1121   25.3020 C   0  0  0  0  0  0  0  0  0  0  0  0
    8.8249  -18.1107   26.2159 O   0  0  0  0  0  0  0  0  0  0  0  0
    8.9121  -15.2576   24.6648 C   0  0  0  0  0  0  0  0  0  0  0  0
   10.0266  -14.6454   24.4958 O   0  0  0  0  0  0  0  0  0  0  0  0
   10.8709  -18.7986   25.6633 O   0  0  0  0  0  0  0  0  0  0  0  0
    6.8470  -11.9780   25.5873 C   0  0  0  0  0  0  0  0  0  0  0  0
    7.3227  -12.7284   26.7959 C   0  0  1  0  0  0  0  0  0  0  0  0
    6.1804  -13.4705   27.4188 C   0  0  0  0  0  0  0  0  0  0  0  0
    8.4996  -13.6256   26.5133 C   0  0  2  0  0  0  0  0  0  0  0  0
    8.0761  -14.7419   25.6445 N   0  0  0  0  0  0  0  0  0  0  0  0
    8.9578  -14.2619   27.7907 C   0  0  0  0  0  0  0  0  0  0  0  0
    9.4692  -13.5275   28.6638 O   0  0  0  0  0  0  0  0  0  0  0  0
    8.8430  -15.6108   28.0462 O   0  0  0  0  0  0  0  0  0  0  0  0
  2  1  1  6
  3  2  1  0
  4  5  1  0
  4  2  1  0
  5  6  1  6
  5  7  1  0
  7  8  2  0
  9  7  1  0
  9 10  1  0
 10 14  1  0
 10 11  1  1
 12 16  1  0
 12 11  1  0
 13 12  2  0
 14 15  2  0
 18 17  1  6
 18 20  1  0
 19 18  1  0
 20 22  1  0
 20 21  1  6
 21 14  1  0
 22 23  2  0
 22 24  1  0
M  END
$$$$
