LDV.pdb
     RDKit          3D

 24 23  0  0  1  0  0  0  0  0999 V2000
    7.4445  -12.0205   20.0031 C   0  0  0  0  0  0  0  0  0  0  0  0
    8.3460  -13.1979   20.2288 C   0  0  2  0  0  0  0  0  0  0  0  0
    9.7752  -12.8982   19.8107 C   0  0  0  0  0  0  0  0  0  0  0  0
    7.8109  -14.3782   19.4426 C   0  0  0  0  0  0  0  0  0  0  0  0
    8.5477  -15.6502   19.7212 C   0  0  2  0  0  0  0  0  0  0  0  0
    8.1296  -16.7743   18.9331 N   0  0  0  0  0  0  0  0  0  0  0  0
    8.4481  -15.9234   21.1921 C   0  0  0  0  0  0  0  0  0  0  0  0
    7.2843  -16.0881   21.6472 O   0  0  0  0  0  0  0  0  0  0  0  0
    9.5839  -15.9924   22.0193 N   0  0  0  0  0  0  0  0  0  0  0  0
    9.3764  -16.4852   23.4226 C   0  0  1  0  0  0  0  0  0  0  0  0
   10.5522  -17.3973   23.6795 C   0  0  0  0  0  0  0  0  0  0  0  0
   10.5068  -18.6480   22.9681 C   0  0  0  0  0  0  0  0  0  0  0  0
    9.6041  -19.5038   22.8815 O   0  0  0  0  0  0  0  0  0  0  0  0
    9.3439  -15.3018   24.2882 C   0  0  0  0  0  0  0  0  0  0  0  0
   10.3274  -14.4822   24.2066 O   0  0  0  0  0  0  0  0  0  0  0  0
   11.6733  -19.0009   22.2260 O   0  0  0  0  0  0  0  0  0  0  0  0
    6.9039  -12.2671   25.0446 C   0  0  0  0  0  0  0  0  0  0  0  0
    7.2144  -13.0895   26.2600 C   0  0  1  0  0  0  0  0  0  0  0  0
    6.0557  -13.9823   26.5824 C   0  0  0  0  0  0  0  0  0  0  0  0
    8.5084  -13.8527   26.1465 C   0  0  2  0  0  0  0  0  0  0  0  0
    8.3458  -14.9676   25.1920 N   0  0  0  0  0  0  0  0  0  0  0  0
    8.8246  -14.4943   27.4637 C   0  0  0  0  0  0  0  0  0  0  0  0
    9.1213  -13.7511   28.4244 O   0  0  0  0  0  0  0  0  0  0  0  0
    8.8040  -15.8572   27.6643 O   0  0  0  0  0  0  0  0  0  0  0  0
  2  1  1  6
  3  2  1  0
  4  5  1  0
  4  2  1  0
  5  6  1  6
  5  7  1  0
  7  8  2  0
  9  7  1  0
  9 10  1  0
 10 14  1  0
 10 11  1  1
 12 16  1  0
 12 11  1  0
 13 12  2  0
 14 15  2  0
 18 17  1  6
 18 20  1  0
 19 18  1  0
 20 22  1  0
 20 21  1  6
 21 14  1  0
 22 23  2  0
 22 24  1  0
M  END
$$$$
