LDV.pdb
     RDKit          3D

 24 23  0  0  1  0  0  0  0  0999 V2000
    8.9288  -13.2907   19.3280 C   0  0  0  0  0  0  0  0  0  0  0  0
    7.7072  -13.2396   20.1968 C   0  0  2  0  0  0  0  0  0  0  0  0
    7.3812  -11.8185   20.6231 C   0  0  0  0  0  0  0  0  0  0  0  0
    7.9414  -14.1077   21.4171 C   0  0  0  0  0  0  0  0  0  0  0  0
    8.2438  -15.5321   21.0735 C   0  0  2  0  0  0  0  0  0  0  0  0
    7.1883  -16.2251   20.3916 N   0  0  0  0  0  0  0  0  0  0  0  0
    8.6540  -16.2296   22.3358 C   0  0  0  0  0  0  0  0  0  0  0  0
    7.7180  -16.6894   23.0438 O   0  0  0  0  0  0  0  0  0  0  0  0
   10.0028  -16.3649   22.7119 N   0  0  0  0  0  0  0  0  0  0  0  0
   10.2835  -17.1006   23.9906 C   0  0  1  0  0  0  0  0  0  0  0  0
   11.4755  -17.9710   23.6709 C   0  0  0  0  0  0  0  0  0  0  0  0
   12.0025  -18.7011   24.7941 C   0  0  0  0  0  0  0  0  0  0  0  0
   11.4291  -19.2033   25.7809 O   0  0  0  0  0  0  0  0  0  0  0  0
   10.5485  -16.0856   25.0156 C   0  0  0  0  0  0  0  0  0  0  0  0
   11.4335  -15.1954   24.7513 O   0  0  0  0  0  0  0  0  0  0  0  0
   13.4147  -18.9038   24.8156 O   0  0  0  0  0  0  0  0  0  0  0  0
    8.8988  -13.1241   26.2752 C   0  0  0  0  0  0  0  0  0  0  0  0
    9.1856  -13.9976   27.4604 C   0  0  1  0  0  0  0  0  0  0  0  0
    7.9358  -14.7029   27.8896 C   0  0  0  0  0  0  0  0  0  0  0  0
   10.3294  -14.9514   27.2329 C   0  0  2  0  0  0  0  0  0  0  0  0
    9.9302  -15.9815   26.2532 N   0  0  0  0  0  0  0  0  0  0  0  0
   10.6175  -15.6944   28.5024 C   0  0  0  0  0  0  0  0  0  0  0  0
   10.3450  -16.9138   28.5456 O   0  0  0  0  0  0  0  0  0  0  0  0
   11.1650  -15.0997   29.6180 O   0  0  0  0  0  0  0  0  0  0  0  0
  2  1  1  6
  3  2  1  0
  4  5  1  0
  4  2  1  0
  5  6  1  1
  5  7  1  0
  7  8  2  0
  9  7  1  0
  9 10  1  0
 10 14  1  0
 10 11  1  6
 12 16  1  0
 12 11  1  0
 13 12  2  0
 14 15  2  0
 18 17  1  6
 18 20  1  0
 19 18  1  0
 20 22  1  0
 20 21  1  6
 21 14  1  0
 22 23  2  0
 22 24  1  0
M  END
$$$$
