LDV.pdb
     RDKit          3D

 24 23  0  0  1  0  0  0  0  0999 V2000
    9.3890  -13.4846   19.1276 C   0  0  0  0  0  0  0  0  0  0  0  0
    7.8986  -13.3534   19.2339 C   0  0  2  0  0  0  0  0  0  0  0  0
    7.4696  -11.9000   19.3394 C   0  0  0  0  0  0  0  0  0  0  0  0
    7.4279  -14.1241   20.4512 C   0  0  0  0  0  0  0  0  0  0  0  0
    7.9301  -15.5332   20.4828 C   0  0  2  0  0  0  0  0  0  0  0  0
    7.1536  -16.4673   19.7188 N   0  0  0  0  0  0  0  0  0  0  0  0
    8.0524  -15.9427   21.9200 C   0  0  0  0  0  0  0  0  0  0  0  0
    6.9730  -16.2109   22.5132 O   0  0  0  0  0  0  0  0  0  0  0  0
    9.2963  -16.0238   22.5720 N   0  0  0  0  0  0  0  0  0  0  0  0
    9.2916  -16.5165   23.9906 C   0  0  1  0  0  0  0  0  0  0  0  0
   10.5199  -17.3894   24.0905 C   0  0  0  0  0  0  0  0  0  0  0  0
   10.4526  -18.6078   23.3269 C   0  0  0  0  0  0  0  0  0  0  0  0
    9.5653  -19.4816   23.2634 O   0  0  0  0  0  0  0  0  0  0  0  0
    9.3353  -15.3307   24.8524 C   0  0  0  0  0  0  0  0  0  0  0  0
   10.2947  -14.4997   24.6668 O   0  0  0  0  0  0  0  0  0  0  0  0
   11.5717  -18.8976   22.4905 O   0  0  0  0  0  0  0  0  0  0  0  0
    7.0542  -12.3541   25.5536 C   0  0  0  0  0  0  0  0  0  0  0  0
    7.4092  -13.0266   26.8467 C   0  0  1  0  0  0  0  0  0  0  0  0
    6.2385  -13.8127   27.3518 C   0  0  0  0  0  0  0  0  0  0  0  0
    8.6611  -13.8603   26.7588 C   0  0  2  0  0  0  0  0  0  0  0  0
    8.4331  -15.0055   25.8550 N   0  0  0  0  0  0  0  0  0  0  0  0
    8.9545  -14.4597   28.1009 C   0  0  0  0  0  0  0  0  0  0  0  0
    8.7342  -15.6799   28.2615 O   0  0  0  0  0  0  0  0  0  0  0  0
    9.4524  -13.7330   29.1602 O   0  0  0  0  0  0  0  0  0  0  0  0
  2  1  1  1
  3  2  1  0
  4  5  1  0
  4  2  1  0
  5  6  1  6
  5  7  1  0
  7  8  2  0
  9  7  1  0
  9 10  1  0
 10 14  1  0
 10 11  1  6
 12 16  1  0
 12 11  1  0
 13 12  2  0
 14 15  2  0
 18 17  1  6
 18 20  1  0
 19 18  1  0
 20 22  1  0
 20 21  1  6
 21 14  1  0
 22 23  2  0
 22 24  1  0
M  END
$$$$
