GGM.pdb
     RDKit          3D

 17 16  0  0  1  0  0  0  0  0999 V2000
    5.4449  -18.7821   23.4024 N   0  0  0  0  0  0  0  0  0  0  0  0
    5.6703  -18.8408   21.9758 C   0  0  0  0  0  0  0  0  0  0  0  0
    6.7415  -17.9018   21.5546 C   0  0  0  0  0  0  0  0  0  0  0  0
    7.9121  -18.2825   21.3161 O   0  0  0  0  0  0  0  0  0  0  0  0
    6.3923  -16.5352   21.4281 N   0  0  0  0  0  0  0  0  0  0  0  0
    7.3851  -15.5807   21.0622 C   0  0  0  0  0  0  0  0  0  0  0  0
    8.1160  -15.0677   22.2614 C   0  0  0  0  0  0  0  0  0  0  0  0
    9.0182  -14.2343   22.0373 O   0  0  0  0  0  0  0  0  0  0  0  0
    6.1040  -10.6277   26.8368 C   0  0  0  0  0  0  0  0  0  0  0  0
    6.3805  -12.4213   26.9969 S   0  0  0  0  0  0  0  0  0  0  0  0
    7.4438  -13.0011   25.6197 C   0  0  0  0  0  0  0  0  0  0  0  0
    7.7799  -14.4366   25.8190 C   0  0  0  0  0  0  0  0  0  0  0  0
    8.5983  -15.0521   24.6995 C   0  0  2  0  0  0  0  0  0  0  0  0
    7.8419  -15.4660   23.5662 N   0  0  0  0  0  0  0  0  0  0  0  0
    9.3902  -16.1483   25.2925 C   0  0  0  0  0  0  0  0  0  0  0  0
    9.3118  -17.4719   24.8962 O   0  0  0  0  0  0  0  0  0  0  0  0
   10.1922  -15.8732   26.2195 O   0  0  0  0  0  0  0  0  0  0  0  0
  1  2  1  0
  3  5  1  0
  3  2  1  0
  4  3  2  0
  6  5  1  0
  7  8  2  0
  7  6  1  0
 10 11  1  0
 10  9  1  0
 11 12  1  0
 13 12  1  1
 13 15  1  0
 13 14  1  0
 14  7  1  0
 15 16  1  0
 17 15  2  0
M  END
$$$$
