GGM.pdb
     RDKit          3D

 17 16  0  0  1  0  0  0  0  0999 V2000
    5.6185  -20.4166   22.7423 N   0  0  0  0  0  0  0  0  0  0  0  0
    5.4878  -18.9793   22.8245 C   0  0  0  0  0  0  0  0  0  0  0  0
    6.6979  -18.2918   22.3051 C   0  0  0  0  0  0  0  0  0  0  0  0
    7.8357  -18.8174   22.3408 O   0  0  0  0  0  0  0  0  0  0  0  0
    6.5229  -16.9978   21.7570 N   0  0  0  0  0  0  0  0  0  0  0  0
    7.6567  -16.2540   21.3192 C   0  0  0  0  0  0  0  0  0  0  0  0
    8.2464  -15.4522   22.4351 C   0  0  0  0  0  0  0  0  0  0  0  0
    9.2651  -14.7880   22.1528 O   0  0  0  0  0  0  0  0  0  0  0  0
    6.1869  -10.8717   26.0105 C   0  0  0  0  0  0  0  0  0  0  0  0
    6.8993  -11.8293   27.3868 S   0  0  0  0  0  0  0  0  0  0  0  0
    8.0437  -13.0982   26.7206 C   0  0  0  0  0  0  0  0  0  0  0  0
    7.4235  -13.7595   25.5410 C   0  0  0  0  0  0  0  0  0  0  0  0
    8.3359  -14.7271   24.8107 C   0  0  2  0  0  0  0  0  0  0  0  0
    7.7257  -15.4178   23.7251 N   0  0  0  0  0  0  0  0  0  0  0  0
    8.9032  -15.6384   25.8246 C   0  0  0  0  0  0  0  0  0  0  0  0
    9.9590  -15.3178   26.6600 O   0  0  0  0  0  0  0  0  0  0  0  0
    8.4024  -16.7840   25.9463 O   0  0  0  0  0  0  0  0  0  0  0  0
  1  2  1  0
  3  5  1  0
  3  2  1  0
  4  3  2  0
  6  5  1  0
  7  8  2  0
  7  6  1  0
 10 11  1  0
 10  9  1  0
 11 12  1  0
 13 12  1  1
 13 15  1  0
 13 14  1  0
 14  7  1  0
 15 16  1  0
 17 15  2  0
M  END
$$$$
