GGM.pdb
     RDKit          3D

 17 16  0  0  1  0  0  0  0  0999 V2000
    6.8042  -19.3465   20.6670 N   0  0  0  0  0  0  0  0  0  0  0  0
    6.1031  -18.8147   21.8138 C   0  0  0  0  0  0  0  0  0  0  0  0
    6.2257  -17.3363   21.8896 C   0  0  0  0  0  0  0  0  0  0  0  0
    5.4773  -16.6370   22.6129 O   0  0  0  0  0  0  0  0  0  0  0  0
    7.2347  -16.7286   21.1034 N   0  0  0  0  0  0  0  0  0  0  0  0
    7.4719  -15.3278   21.2134 C   0  0  0  0  0  0  0  0  0  0  0  0
    8.2477  -15.0020   22.4493 C   0  0  0  0  0  0  0  0  0  0  0  0
    9.2387  -14.2587   22.2934 O   0  0  0  0  0  0  0  0  0  0  0  0
    6.0728  -10.5496   26.6560 C   0  0  0  0  0  0  0  0  0  0  0  0
    6.3696  -12.3192   26.9706 S   0  0  0  0  0  0  0  0  0  0  0  0
    7.4270  -13.0077   25.6397 C   0  0  0  0  0  0  0  0  0  0  0  0
    7.7676  -14.4214   25.9539 C   0  0  0  0  0  0  0  0  0  0  0  0
    8.6190  -15.1112   24.9044 C   0  0  2  0  0  0  0  0  0  0  0  0
    7.9225  -15.4753   23.7168 N   0  0  0  0  0  0  0  0  0  0  0  0
    9.2720  -16.2608   25.5620 C   0  0  0  0  0  0  0  0  0  0  0  0
   10.3441  -16.1583   26.4311 O   0  0  0  0  0  0  0  0  0  0  0  0
    8.8340  -17.4140   25.3244 O   0  0  0  0  0  0  0  0  0  0  0  0
  1  2  1  0
  3  5  1  0
  3  2  1  0
  4  3  2  0
  6  5  1  0
  7  8  2  0
  7  6  1  0
 10 11  1  0
 10  9  1  0
 11 12  1  0
 13 12  1  1
 13 15  1  0
 13 14  1  0
 14  7  1  0
 15 16  1  0
 17 15  2  0
M  END
$$$$
