GGM.pdb
     RDKit          3D

 17 16  0  0  1  0  0  0  0  0999 V2000
    6.4974  -19.9345   23.0794 N   0  0  0  0  0  0  0  0  0  0  0  0
    6.3689  -19.3982   21.7432 C   0  0  0  0  0  0  0  0  0  0  0  0
    7.4260  -18.3952   21.4549 C   0  0  0  0  0  0  0  0  0  0  0  0
    8.6456  -18.6426   21.6080 O   0  0  0  0  0  0  0  0  0  0  0  0
    7.0048  -17.1246   20.9925 N   0  0  0  0  0  0  0  0  0  0  0  0
    7.9691  -16.1056   20.7426 C   0  0  0  0  0  0  0  0  0  0  0  0
    8.4483  -15.4849   22.0157 C   0  0  0  0  0  0  0  0  0  0  0  0
    9.6509  -15.1508   22.0429 O   0  0  0  0  0  0  0  0  0  0  0  0
    6.5464  -10.4984   27.3006 C   0  0  0  0  0  0  0  0  0  0  0  0
    6.0391  -12.2229   27.0045 S   0  0  0  0  0  0  0  0  0  0  0  0
    7.4414  -13.1566   26.2796 C   0  0  0  0  0  0  0  0  0  0  0  0
    6.9698  -13.9276   25.0979 C   0  0  0  0  0  0  0  0  0  0  0  0
    8.0730  -14.6110   24.3119 C   0  0  2  0  0  0  0  0  0  0  0  0
    7.6394  -15.2729   23.1279 N   0  0  0  0  0  0  0  0  0  0  0  0
    8.7790  -15.5103   25.2464 C   0  0  0  0  0  0  0  0  0  0  0  0
    8.9517  -16.8684   25.0437 O   0  0  0  0  0  0  0  0  0  0  0  0
    9.2592  -15.0215   26.2993 O   0  0  0  0  0  0  0  0  0  0  0  0
  1  2  1  0
  3  5  1  0
  3  2  1  0
  4  3  2  0
  6  5  1  0
  7  8  2  0
  7  6  1  0
 10 11  1  0
 10  9  1  0
 11 12  1  0
 13 12  1  1
 13 15  1  0
 13 14  1  0
 14  7  1  0
 15 16  1  0
 17 15  2  0
M  END
$$$$
