GGM.pdb
     RDKit          3D

 17 16  0  0  1  0  0  0  0  0999 V2000
    7.6215  -19.9742   19.1044 N   0  0  0  0  0  0  0  0  0  0  0  0
    8.1023  -18.8015   19.7994 C   0  0  0  0  0  0  0  0  0  0  0  0
    7.0632  -17.7419   19.8632 C   0  0  0  0  0  0  0  0  0  0  0  0
    6.3318  -17.4594   18.8847 O   0  0  0  0  0  0  0  0  0  0  0  0
    6.9214  -17.0463   21.0886 N   0  0  0  0  0  0  0  0  0  0  0  0
    7.1073  -15.6340   21.1278 C   0  0  0  0  0  0  0  0  0  0  0  0
    8.0749  -15.2413   22.1979 C   0  0  0  0  0  0  0  0  0  0  0  0
    9.2363  -14.9849   21.8183 O   0  0  0  0  0  0  0  0  0  0  0  0
    6.1158  -10.9171   27.1247 C   0  0  0  0  0  0  0  0  0  0  0  0
    6.2197  -12.6689   26.6355 S   0  0  0  0  0  0  0  0  0  0  0  0
    7.9618  -13.0938   26.2510 C   0  0  0  0  0  0  0  0  0  0  0  0
    8.0624  -14.5424   25.9274 C   0  0  0  0  0  0  0  0  0  0  0  0
    8.6813  -14.8430   24.5751 C   0  0  2  0  0  0  0  0  0  0  0  0
    7.7459  -15.1536   23.5472 N   0  0  0  0  0  0  0  0  0  0  0  0
    9.6812  -15.9096   24.7825 C   0  0  0  0  0  0  0  0  0  0  0  0
   10.9827  -15.6903   25.1989 O   0  0  0  0  0  0  0  0  0  0  0  0
    9.3393  -17.0996   24.5701 O   0  0  0  0  0  0  0  0  0  0  0  0
  1  2  1  0
  3  5  1  0
  3  2  1  0
  4  3  2  0
  6  5  1  0
  7  8  2  0
  7  6  1  0
 10 11  1  0
 10  9  1  0
 11 12  1  0
 13 12  1  1
 13 15  1  0
 13 14  1  0
 14  7  1  0
 15 16  1  0
 17 15  2  0
M  END
$$$$
