GGM.pdb
     RDKit          3D

 17 16  0  0  1  0  0  0  0  0999 V2000
    5.3398  -20.5136   21.6812 N   0  0  0  0  0  0  0  0  0  0  0  0
    6.0611  -19.8022   20.6501 C   0  0  0  0  0  0  0  0  0  0  0  0
    5.8512  -18.3351   20.7519 C   0  0  0  0  0  0  0  0  0  0  0  0
    4.8268  -17.7707   20.3000 O   0  0  0  0  0  0  0  0  0  0  0  0
    6.8649  -17.5783   21.3884 N   0  0  0  0  0  0  0  0  0  0  0  0
    6.6783  -16.1819   21.6028 C   0  0  0  0  0  0  0  0  0  0  0  0
    7.8931  -15.5568   22.2102 C   0  0  0  0  0  0  0  0  0  0  0  0
    8.4400  -14.6578   21.5383 O   0  0  0  0  0  0  0  0  0  0  0  0
    6.6214  -10.8754   27.5217 C   0  0  0  0  0  0  0  0  0  0  0  0
    6.2315  -12.2423   26.3821 S   0  0  0  0  0  0  0  0  0  0  0  0
    7.7785  -13.1109   25.9176 C   0  0  0  0  0  0  0  0  0  0  0  0
    7.4683  -14.2027   24.9558 C   0  0  0  0  0  0  0  0  0  0  0  0
    8.6747  -15.0041   24.5039 C   0  0  2  0  0  0  0  0  0  0  0  0
    8.4182  -15.9222   23.4459 N   0  0  0  0  0  0  0  0  0  0  0  0
    9.2386  -15.6542   25.7038 C   0  0  0  0  0  0  0  0  0  0  0  0
   10.0992  -15.0375   26.5951 O   0  0  0  0  0  0  0  0  0  0  0  0
    8.9232  -16.8466   25.9421 O   0  0  0  0  0  0  0  0  0  0  0  0
  1  2  1  0
  3  5  1  0
  3  2  1  0
  4  3  2  0
  6  5  1  0
  7  8  2  0
  7  6  1  0
 10 11  1  0
 10  9  1  0
 11 12  1  0
 13 12  1  1
 13 15  1  0
 13 14  1  0
 14  7  1  0
 15 16  1  0
 17 15  2  0
M  END
$$$$
