GGM.pdb
     RDKit          3D

 17 16  0  0  1  0  0  0  0  0999 V2000
    8.1646  -15.2478   18.4339 N   0  0  0  0  0  0  0  0  0  0  0  0
    7.0437  -15.4346   19.3273 C   0  0  0  0  0  0  0  0  0  0  0  0
    7.4789  -15.9703   20.6426 C   0  0  0  0  0  0  0  0  0  0  0  0
    6.6856  -16.1206   21.6019 O   0  0  0  0  0  0  0  0  0  0  0  0
    8.8459  -16.3130   20.7824 N   0  0  0  0  0  0  0  0  0  0  0  0
    9.2850  -17.0191   21.9396 C   0  0  0  0  0  0  0  0  0  0  0  0
    9.3787  -16.1150   23.1268 C   0  0  0  0  0  0  0  0  0  0  0  0
   10.5249  -15.7195   23.4244 O   0  0  0  0  0  0  0  0  0  0  0  0
    6.5438  -10.7745   27.7179 C   0  0  0  0  0  0  0  0  0  0  0  0
    6.4150  -11.9334   26.3182 S   0  0  0  0  0  0  0  0  0  0  0  0
    7.1414  -13.5489   26.7934 C   0  0  0  0  0  0  0  0  0  0  0  0
    7.0424  -14.4962   25.6505 C   0  0  0  0  0  0  0  0  0  0  0  0
    8.3755  -14.8883   25.0414 C   0  0  2  0  0  0  0  0  0  0  0  0
    8.2827  -15.7122   23.8837 N   0  0  0  0  0  0  0  0  0  0  0  0
    9.1817  -15.4989   26.1173 C   0  0  0  0  0  0  0  0  0  0  0  0
    9.2621  -16.8595   26.3573 O   0  0  0  0  0  0  0  0  0  0  0  0
    9.8432  -14.7429   26.8717 O   0  0  0  0  0  0  0  0  0  0  0  0
  1  2  1  0
  3  5  1  0
  3  2  1  0
  4  3  2  0
  6  5  1  0
  7  8  2  0
  7  6  1  0
 10 11  1  0
 10  9  1  0
 11 12  1  0
 13 12  1  1
 13 15  1  0
 13 14  1  0
 14  7  1  0
 15 16  1  0
 17 15  2  0
M  END
$$$$
