SFY.pdb
     RDKit          3D

 30 31  0  0  1  0  0  0  0  0999 V2000
   24.7172  -21.2441  -18.3365 O   0  0  0  0  0  0  0  0  0  0  0  0
   24.6912  -21.2094  -16.9439 C   0  0  0  0  0  0  0  0  0  0  0  0
   26.0210  -21.6489  -16.3770 C   0  0  2  0  0  0  0  0  0  0  0  0
   26.5093  -22.8529  -16.9697 N   0  0  0  0  0  0  0  0  0  0  0  0
   25.9856  -21.7997  -14.9137 C   0  0  0  0  0  0  0  0  0  0  0  0
   25.8490  -22.9631  -14.4567 O   0  0  0  0  0  0  0  0  0  0  0  0
   26.0948  -20.7281  -14.0051 N   0  0  0  0  0  0  0  0  0  0  0  0
   26.0946  -20.9864  -12.5837 C   0  0  1  0  0  0  0  0  0  0  0  0
   26.9365  -19.9298  -11.8717 C   0  0  0  0  0  0  0  0  0  0  0  0
   26.9728  -20.0858  -10.4213 C   0  0  0  0  0  0  0  0  0  0  0  0
   26.1461  -19.3476   -9.6021 C   0  0  0  0  0  0  0  0  0  0  0  0
   26.1970  -19.5099   -8.2114 C   0  0  0  0  0  0  0  0  0  0  0  0
   27.0735  -20.4085   -7.6516 C   0  0  0  0  0  0  0  0  0  0  0  0
   27.8949  -21.1421   -8.4630 C   0  0  0  0  0  0  0  0  0  0  0  0
   27.8337  -20.9721   -9.8252 C   0  0  0  0  0  0  0  0  0  0  0  0
   24.7397  -21.0058  -12.0380 C   0  0  0  0  0  0  0  0  0  0  0  0
   23.8794  -20.1868  -12.5121 O   0  0  0  0  0  0  0  0  0  0  0  0
   17.1666  -23.1290   -7.9273 O   0  0  0  0  0  0  0  0  0  0  0  0
   18.4855  -23.0945   -8.3821 C   0  0  0  0  0  0  0  0  0  0  0  0
   19.4948  -22.8311   -7.4700 C   0  0  0  0  0  0  0  0  0  0  0  0
   20.8054  -22.7952   -7.9138 C   0  0  0  0  0  0  0  0  0  0  0  0
   21.1445  -23.0114   -9.2272 C   0  0  0  0  0  0  0  0  0  0  0  0
   22.5701  -22.9568   -9.6220 C   0  0  0  0  0  0  0  0  0  0  0  0
   22.8645  -21.7883  -10.5568 C   0  0  2  0  0  0  0  0  0  0  0  0
   24.2599  -21.8621  -11.0113 N   0  0  0  0  0  0  0  0  0  0  0  0
   22.6519  -20.5001   -9.9084 C   0  0  0  0  0  0  0  0  0  0  0  0
   23.4607  -19.8795   -9.1807 O   0  0  0  0  0  0  0  0  0  0  0  0
   20.1376  -23.2721  -10.1261 C   0  0  0  0  0  0  0  0  0  0  0  0
   18.8155  -23.3119   -9.6976 C   0  0  0  0  0  0  0  0  0  0  0  0
   21.4086  -19.8724  -10.1123 O   0  0  0  0  0  0  0  0  0  0  0  0
  1  2  1  0
  2  3  1  0
  3  5  1  0
  3  4  1  6
  5  6  2  0
  7  5  1  0
  7  8  1  0
  8  9  1  1
  9 10  1  0
 10 15  2  0
 11 12  2  0
 11 10  1  0
 12 13  1  0
 13 14  2  0
 15 14  1  0
 16  8  1  0
 16 17  2  0
 18 19  1  0
 19 29  2  0
 19 20  1  0
 20 21  2  0
 21 22  1  0
 22 23  1  0
 24 23  1  1
 24 26  1  0
 24 25  1  0
 25 16  1  0
 26 30  1  0
 27 26  2  0
 28 22  2  0
 29 28  1  0
M  END
$$$$
