SFY.pdb
     RDKit          3D

 30 31  0  0  1  0  0  0  0  0999 V2000
   14.7032   -6.9972  -12.2062 O   0  0  0  0  0  0  0  0  0  0  0  0
   14.4606   -7.9244  -11.1949 C   0  0  0  0  0  0  0  0  0  0  0  0
   15.1281   -9.2423  -11.5116 C   0  0  2  0  0  0  0  0  0  0  0  0
   14.9537  -10.2171  -10.4827 N   0  0  0  0  0  0  0  0  0  0  0  0
   16.5615   -9.0894  -11.8070 C   0  0  0  0  0  0  0  0  0  0  0  0
   17.3459   -8.9995  -10.8283 O   0  0  0  0  0  0  0  0  0  0  0  0
   17.1001   -9.0384  -13.1082 N   0  0  0  0  0  0  0  0  0  0  0  0
   18.5109   -8.7895  -13.2942 C   0  0  1  0  0  0  0  0  0  0  0  0
   19.0839   -9.8055  -14.2799 C   0  0  0  0  0  0  0  0  0  0  0  0
   20.5115   -9.6396  -14.5325 C   0  0  0  0  0  0  0  0  0  0  0  0
   21.4541  -10.1152  -13.6467 C   0  0  0  0  0  0  0  0  0  0  0  0
   22.8204   -9.9444  -13.9055 C   0  0  0  0  0  0  0  0  0  0  0  0
   23.2327   -9.2998  -15.0473 C   0  0  0  0  0  0  0  0  0  0  0  0
   22.2987   -8.8269  -15.9277 C   0  0  0  0  0  0  0  0  0  0  0  0
   20.9622   -9.0019  -15.6604 C   0  0  0  0  0  0  0  0  0  0  0  0
   18.7624   -7.4300  -13.7656 C   0  0  0  0  0  0  0  0  0  0  0  0
   17.9731   -6.9317  -14.6400 O   0  0  0  0  0  0  0  0  0  0  0  0
   20.7295    0.9660  -15.2356 O   0  0  0  0  0  0  0  0  0  0  0  0
   20.5155   -0.2969  -14.6815 C   0  0  0  0  0  0  0  0  0  0  0  0
   21.5993   -0.9842  -14.1591 C   0  0  0  0  0  0  0  0  0  0  0  0
   21.3947   -2.2373  -13.6079 C   0  0  0  0  0  0  0  0  0  0  0  0
   20.1551   -2.8269  -13.5589 C   0  0  0  0  0  0  0  0  0  0  0  0
   20.0193   -4.1701  -12.9517 C   0  0  0  0  0  0  0  0  0  0  0  0
   20.0460   -5.2802  -13.9971 C   0  0  2  0  0  0  0  0  0  0  0  0
   19.8163   -6.5761  -13.3438 N   0  0  0  0  0  0  0  0  0  0  0  0
   21.3178   -5.3341  -14.7076 C   0  0  0  0  0  0  0  0  0  0  0  0
   21.5823   -4.8234  -15.8202 O   0  0  0  0  0  0  0  0  0  0  0  0
   19.0848   -2.1389  -14.0792 C   0  0  0  0  0  0  0  0  0  0  0  0
   19.2721   -0.8790  -14.6368 C   0  0  0  0  0  0  0  0  0  0  0  0
   22.3730   -6.0317  -14.0899 O   0  0  0  0  0  0  0  0  0  0  0  0
  1  2  1  0
  2  3  1  0
  3  5  1  0
  3  4  1  1
  5  6  2  0
  7  5  1  0
  7  8  1  0
  8  9  1  6
  9 10  1  0
 10 15  2  0
 11 12  2  0
 11 10  1  0
 12 13  1  0
 13 14  2  0
 15 14  1  0
 16  8  1  0
 16 17  2  0
 18 19  1  0
 19 29  2  0
 19 20  1  0
 20 21  2  0
 21 22  1  0
 22 23  1  0
 24 23  1  1
 24 26  1  0
 24 25  1  0
 25 16  1  0
 26 30  1  0
 27 26  2  0
 28 22  2  0
 29 28  1  0
M  END
$$$$
