SFY.pdb
     RDKit          3D

 30 31  0  0  1  0  0  0  0  0999 V2000
   25.2410  -11.1710  -20.8827 O   0  0  0  0  0  0  0  0  0  0  0  0
   24.0374  -10.5844  -20.4973 C   0  0  0  0  0  0  0  0  0  0  0  0
   22.8947  -11.5589  -20.6630 C   0  0  2  0  0  0  0  0  0  0  0  0
   22.5056  -11.7355  -22.0256 N   0  0  0  0  0  0  0  0  0  0  0  0
   21.7191  -11.1880  -19.8595 C   0  0  0  0  0  0  0  0  0  0  0  0
   20.8996  -10.3844  -20.3730 O   0  0  0  0  0  0  0  0  0  0  0  0
   21.4613  -11.6757  -18.5627 N   0  0  0  0  0  0  0  0  0  0  0  0
   20.2751  -11.2506  -17.8563 C   0  0  1  0  0  0  0  0  0  0  0  0
   19.7655  -12.3920  -16.9790 C   0  0  0  0  0  0  0  0  0  0  0  0
   18.5398  -12.0745  -16.2537 C   0  0  0  0  0  0  0  0  0  0  0  0
   18.5704  -11.7021  -14.9272 C   0  0  0  0  0  0  0  0  0  0  0  0
   17.3825  -11.4031  -14.2470 C   0  0  0  0  0  0  0  0  0  0  0  0
   16.1746  -11.4788  -14.8984 C   0  0  0  0  0  0  0  0  0  0  0  0
   16.1422  -11.8483  -16.2151 C   0  0  0  0  0  0  0  0  0  0  0  0
   17.3154  -12.1386  -16.8691 C   0  0  0  0  0  0  0  0  0  0  0  0
   20.5261  -10.0622  -17.0447 C   0  0  0  0  0  0  0  0  0  0  0  0
   21.6765   -9.9252  -16.5031 O   0  0  0  0  0  0  0  0  0  0  0  0
   21.8884   -1.9759  -14.2423 O   0  0  0  0  0  0  0  0  0  0  0  0
   21.6714   -3.2150  -14.8464 C   0  0  0  0  0  0  0  0  0  0  0  0
   20.7668   -3.2933  -15.8930 C   0  0  0  0  0  0  0  0  0  0  0  0
   20.5464   -4.5190  -16.4971 C   0  0  0  0  0  0  0  0  0  0  0  0
   21.1920   -5.6636  -16.0976 C   0  0  0  0  0  0  0  0  0  0  0  0
   20.9016   -6.9361  -16.7959 C   0  0  0  0  0  0  0  0  0  0  0  0
   19.9944   -7.8485  -15.9771 C   0  0  2  0  0  0  0  0  0  0  0  0
   19.6059   -9.0110  -16.7875 N   0  0  0  0  0  0  0  0  0  0  0  0
   18.7864   -7.1647  -15.5320 C   0  0  0  0  0  0  0  0  0  0  0  0
   17.6822   -7.1236  -16.1219 O   0  0  0  0  0  0  0  0  0  0  0  0
   22.0880   -5.5781  -15.0586 C   0  0  0  0  0  0  0  0  0  0  0  0
   22.3216   -4.3548  -14.4403 C   0  0  0  0  0  0  0  0  0  0  0  0
   18.8509   -6.4712  -14.3088 O   0  0  0  0  0  0  0  0  0  0  0  0
  1  2  1  0
  2  3  1  0
  3  5  1  0
  3  4  1  6
  5  6  2  0
  7  5  1  0
  7  8  1  0
  8  9  1  1
  9 10  1  0
 10 15  2  0
 11 12  2  0
 11 10  1  0
 12 13  1  0
 13 14  2  0
 15 14  1  0
 16  8  1  0
 16 17  2  0
 18 19  1  0
 19 29  2  0
 19 20  1  0
 20 21  2  0
 21 22  1  0
 22 23  1  0
 24 23  1  6
 24 26  1  0
 24 25  1  0
 25 16  1  0
 26 30  1  0
 27 26  2  0
 28 22  2  0
 29 28  1  0
M  END
$$$$
