SFY.pdb
     RDKit          3D

 30 31  0  0  1  0  0  0  0  0999 V2000
   38.2127  -31.6838  -19.2661 O   0  0  0  0  0  0  0  0  0  0  0  0
   37.3468  -31.5517  -20.3496 C   0  0  0  0  0  0  0  0  0  0  0  0
   36.2131  -30.6118  -20.0118 C   0  0  2  0  0  0  0  0  0  0  0  0
   36.6276  -29.2483  -19.9201 N   0  0  0  0  0  0  0  0  0  0  0  0
   35.5128  -30.9975  -18.7764 C   0  0  0  0  0  0  0  0  0  0  0  0
   35.5255  -30.1751  -17.8252 O   0  0  0  0  0  0  0  0  0  0  0  0
   34.8363  -32.2210  -18.5995 N   0  0  0  0  0  0  0  0  0  0  0  0
   33.9865  -32.4138  -17.4473 C   0  0  1  0  0  0  0  0  0  0  0  0
   32.5948  -32.8453  -17.9046 C   0  0  0  0  0  0  0  0  0  0  0  0
   31.6250  -32.9498  -16.8194 C   0  0  0  0  0  0  0  0  0  0  0  0
   31.0772  -31.8259  -16.2397 C   0  0  0  0  0  0  0  0  0  0  0  0
   30.1490  -31.9464  -15.1971 C   0  0  0  0  0  0  0  0  0  0  0  0
   29.7765  -33.1890  -14.7430 C   0  0  0  0  0  0  0  0  0  0  0  0
   30.3191  -34.3058  -15.3171 C   0  0  0  0  0  0  0  0  0  0  0  0
   31.2283  -34.1719  -16.3388 C   0  0  0  0  0  0  0  0  0  0  0  0
   34.5435  -33.3989  -16.5237 C   0  0  0  0  0  0  0  0  0  0  0  0
   35.1287  -34.4275  -17.0088 O   0  0  0  0  0  0  0  0  0  0  0  0
   38.3733  -37.4901   -9.7139 O   0  0  0  0  0  0  0  0  0  0  0  0
   37.7906  -36.5576  -10.5733 C   0  0  0  0  0  0  0  0  0  0  0  0
   36.5032  -36.1216  -10.3043 C   0  0  0  0  0  0  0  0  0  0  0  0
   35.9188  -35.1968  -11.1523 C   0  0  0  0  0  0  0  0  0  0  0  0
   36.5680  -34.6936  -12.2531 C   0  0  0  0  0  0  0  0  0  0  0  0
   35.8741  -33.7064  -13.1106 C   0  0  0  0  0  0  0  0  0  0  0  0
   35.1594  -34.3655  -14.2855 C   0  0  2  0  0  0  0  0  0  0  0  0
   34.5075  -33.3348  -15.1051 N   0  0  0  0  0  0  0  0  0  0  0  0
   34.1498  -35.3214  -13.8472 C   0  0  0  0  0  0  0  0  0  0  0  0
   32.9096  -35.1486  -13.8187 O   0  0  0  0  0  0  0  0  0  0  0  0
   37.8450  -35.1310  -12.5135 C   0  0  0  0  0  0  0  0  0  0  0  0
   38.4474  -36.0597  -11.6721 C   0  0  0  0  0  0  0  0  0  0  0  0
   34.6010  -36.5794  -13.4052 O   0  0  0  0  0  0  0  0  0  0  0  0
  1  2  1  0
  2  3  1  0
  3  5  1  0
  3  4  1  1
  5  6  2  0
  7  5  1  0
  7  8  1  0
  8  9  1  6
  9 10  1  0
 10 15  2  0
 11 12  2  0
 11 10  1  0
 12 13  1  0
 13 14  2  0
 15 14  1  0
 16  8  1  0
 16 17  2  0
 18 19  1  0
 19 29  2  0
 19 20  1  0
 20 21  2  0
 21 22  1  0
 22 23  1  0
 24 23  1  1
 24 26  1  0
 24 25  1  0
 25 16  1  0
 26 30  1  0
 27 26  2  0
 28 22  2  0
 29 28  1  0
M  END
$$$$
