DCK.pdb
     RDKit          3D

 24 23  0  0  1  0  0  0  0  0999 V2000
   19.4092  -13.1624  -16.0924 N   0  0  0  0  0  0  0  0  0  0  0  0
   19.4398  -12.0074  -16.9539 C   0  0  1  0  0  0  0  0  0  0  0  0
   18.1260  -12.0362  -17.7482 C   0  0  0  0  0  0  0  0  0  0  0  0
   18.2796  -13.1130  -18.7478 C   0  0  0  0  0  0  0  0  0  0  0  0
   17.5821  -14.1438  -18.6711 O   0  0  0  0  0  0  0  0  0  0  0  0
   19.4552  -10.7342  -16.2076 C   0  0  0  0  0  0  0  0  0  0  0  0
   18.5202  -10.4851  -15.4001 O   0  0  0  0  0  0  0  0  0  0  0  0
   19.2129  -12.9439  -19.7626 O   0  0  0  0  0  0  0  0  0  0  0  0
   20.5081   -9.8106  -16.4014 N   0  0  0  0  0  0  0  0  0  0  0  0
   20.6475   -8.6450  -15.5511 C   0  0  1  0  0  0  0  0  0  0  0  0
   22.0908   -8.6115  -15.0264 C   0  0  0  0  0  0  0  0  0  0  0  0
   22.1942   -9.4038  -13.4012 S   0  0  0  0  0  0  0  0  0  0  0  0
   20.4864   -7.4402  -16.3912 C   0  0  0  0  0  0  0  0  0  0  0  0
   21.2494   -7.3046  -17.4030 O   0  0  0  0  0  0  0  0  0  0  0  0
   19.5194   -6.4630  -16.0909 N   0  0  0  0  0  0  0  0  0  0  0  0
   19.3838   -5.3224  -17.0567 C   0  0  1  0  0  0  0  0  0  0  0  0
   17.9680   -4.8944  -17.0227 C   0  0  0  0  0  0  0  0  0  0  0  0
   16.9007   -5.7972  -17.4469 C   0  0  0  0  0  0  0  0  0  0  0  0
   15.7860   -6.1742  -16.5650 C   0  0  0  0  0  0  0  0  0  0  0  0
   14.8155   -7.0155  -17.4338 C   0  0  0  0  0  0  0  0  0  0  0  0
   13.6703   -7.3943  -16.6599 N   0  0  0  0  0  0  0  0  0  0  0  0
   20.3838   -4.3575  -16.5388 C   0  0  0  0  0  0  0  0  0  0  0  0
   20.5176   -3.2456  -17.1849 O   0  0  0  0  0  0  0  0  0  0  0  0
   21.2049   -4.4563  -15.4570 O   0  0  0  0  0  0  0  0  0  0  0  0
  2  1  1  1
  2  3  1  0
  3  4  1  0
  4  5  2  0
  4  8  1  0
  6  2  1  0
  6  9  1  0
  7  6  2  0
 10  9  1  0
 10 13  1  0
 10 11  1  6
 12 11  1  0
 13 15  1  0
 14 13  2  0
 15 16  1  0
 16 17  1  1
 16 22  1  0
 17 18  1  0
 19 18  1  0
 20 21  1  0
 20 19  1  0
 22 24  1  0
 23 22  2  0
M  END
$$$$
