DCK.pdb
     RDKit          3D

 24 23  0  0  1  0  0  0  0  0999 V2000
   17.5566  -12.4850  -14.8563 N   0  0  0  0  0  0  0  0  0  0  0  0
   17.0874  -11.1304  -14.7071 C   0  0  1  0  0  0  0  0  0  0  0  0
   15.5615  -11.2240  -14.5625 C   0  0  0  0  0  0  0  0  0  0  0  0
   15.0485  -11.5844  -15.9001 C   0  0  0  0  0  0  0  0  0  0  0  0
   15.4383  -10.9641  -16.9092 O   0  0  0  0  0  0  0  0  0  0  0  0
   17.5894  -10.4803  -13.4809 C   0  0  0  0  0  0  0  0  0  0  0  0
   17.5600  -11.1162  -12.3933 O   0  0  0  0  0  0  0  0  0  0  0  0
   14.1303  -12.6221  -15.9978 O   0  0  0  0  0  0  0  0  0  0  0  0
   18.0950   -9.1609  -13.5333 N   0  0  0  0  0  0  0  0  0  0  0  0
   18.6200   -8.5127  -12.3478 C   0  0  1  0  0  0  0  0  0  0  0  0
   19.7392   -7.5566  -12.7872 C   0  0  0  0  0  0  0  0  0  0  0  0
   20.3869   -6.6410  -11.3653 S   0  0  0  0  0  0  0  0  0  0  0  0
   17.5539   -7.6642  -11.7764 C   0  0  0  0  0  0  0  0  0  0  0  0
   16.8862   -6.9209  -12.5676 O   0  0  0  0  0  0  0  0  0  0  0  0
   17.2751   -7.6695  -10.3971 N   0  0  0  0  0  0  0  0  0  0  0  0
   16.1443   -6.8008   -9.9294 C   0  0  1  0  0  0  0  0  0  0  0  0
   15.2743   -7.6448   -9.0811 C   0  0  0  0  0  0  0  0  0  0  0  0
   13.9426   -7.1915   -8.6871 C   0  0  0  0  0  0  0  0  0  0  0  0
   13.0538   -7.9943   -7.8337 C   0  0  0  0  0  0  0  0  0  0  0  0
   11.7165   -7.2137   -7.7507 C   0  0  0  0  0  0  0  0  0  0  0  0
   10.7877   -7.9225   -6.9208 N   0  0  0  0  0  0  0  0  0  0  0  0
   16.8633   -5.6944   -9.2527 C   0  0  0  0  0  0  0  0  0  0  0  0
   18.0640   -5.9388   -8.8402 O   0  0  0  0  0  0  0  0  0  0  0  0
   16.4505   -4.4231   -8.9922 O   0  0  0  0  0  0  0  0  0  0  0  0
  2  1  1  1
  2  3  1  0
  3  4  1  0
  4  5  2  0
  4  8  1  0
  6  2  1  0
  6  9  1  0
  7  6  2  0
 10  9  1  0
 10 13  1  0
 10 11  1  6
 12 11  1  0
 13 15  1  0
 14 13  2  0
 15 16  1  0
 16 17  1  1
 16 22  1  0
 17 18  1  0
 19 18  1  0
 20 21  1  0
 20 19  1  0
 22 24  1  0
 23 22  2  0
M  END
$$$$
