DCK.pdb
     RDKit          3D

 24 23  0  0  1  0  0  0  0  0999 V2000
   21.7038  -20.7047  -13.6040 N   0  0  0  0  0  0  0  0  0  0  0  0
   20.5346  -20.9399  -12.7948 C   0  0  1  0  0  0  0  0  0  0  0  0
   19.5558  -21.7227  -13.6821 C   0  0  0  0  0  0  0  0  0  0  0  0
   18.2866  -20.9674  -13.6507 C   0  0  0  0  0  0  0  0  0  0  0  0
   17.8548  -20.5114  -12.5734 O   0  0  0  0  0  0  0  0  0  0  0  0
   20.8108  -21.7881  -11.6190 C   0  0  0  0  0  0  0  0  0  0  0  0
   21.5534  -22.7976  -11.7516 O   0  0  0  0  0  0  0  0  0  0  0  0
   17.5981  -20.7830  -14.8430 O   0  0  0  0  0  0  0  0  0  0  0  0
   20.2459  -21.4663  -10.3634 N   0  0  0  0  0  0  0  0  0  0  0  0
   20.5726  -22.2322   -9.1770 C   0  0  1  0  0  0  0  0  0  0  0  0
   21.4945  -21.3737   -8.2980 C   0  0  0  0  0  0  0  0  0  0  0  0
   21.5410  -19.6676   -8.9032 S   0  0  0  0  0  0  0  0  0  0  0  0
   19.3311  -22.4312   -8.4009 C   0  0  0  0  0  0  0  0  0  0  0  0
   18.5079  -21.4615   -8.3219 O   0  0  0  0  0  0  0  0  0  0  0  0
   19.0557  -23.6546   -7.7625 N   0  0  0  0  0  0  0  0  0  0  0  0
   17.7533  -23.7571   -7.0239 C   0  0  1  0  0  0  0  0  0  0  0  0
   16.7301  -24.1709   -8.0092 C   0  0  0  0  0  0  0  0  0  0  0  0
   15.3259  -24.2945   -7.6258 C   0  0  0  0  0  0  0  0  0  0  0  0
   14.2811  -24.7131   -8.5724 C   0  0  0  0  0  0  0  0  0  0  0  0
   12.9436  -24.6562   -7.7898 C   0  0  0  0  0  0  0  0  0  0  0  0
   11.8602  -25.0415   -8.6452 N   0  0  0  0  0  0  0  0  0  0  0  0
   18.0798  -24.7308   -5.9541 C   0  0  0  0  0  0  0  0  0  0  0  0
   19.0569  -25.5468   -6.1800 O   0  0  0  0  0  0  0  0  0  0  0  0
   17.5007  -24.9054   -4.7341 O   0  0  0  0  0  0  0  0  0  0  0  0
  2  1  1  6
  2  3  1  0
  3  4  1  0
  4  5  2  0
  4  8  1  0
  6  2  1  0
  6  9  1  0
  7  6  2  0
 10  9  1  0
 10 13  1  0
 10 11  1  1
 12 11  1  0
 13 15  1  0
 14 13  2  0
 15 16  1  0
 16 17  1  6
 16 22  1  0
 17 18  1  0
 19 18  1  0
 20 21  1  0
 20 19  1  0
 22 24  1  0
 23 22  2  0
M  END
$$$$
