DCK.pdb
     RDKit          3D

 24 23  0  0  1  0  0  0  0  0999 V2000
   17.3780  -10.2061  -14.3850 N   0  0  0  0  0  0  0  0  0  0  0  0
   16.3035   -9.3043  -14.0544 C   0  0  1  0  0  0  0  0  0  0  0  0
   15.2905  -10.1296  -13.2478 C   0  0  0  0  0  0  0  0  0  0  0  0
   14.5926  -10.9863  -14.2281 C   0  0  0  0  0  0  0  0  0  0  0  0
   14.5027  -10.6304  -15.4199 O   0  0  0  0  0  0  0  0  0  0  0  0
   16.7333   -8.1932  -13.1833 C   0  0  0  0  0  0  0  0  0  0  0  0
   17.2411   -8.4554  -12.0601 O   0  0  0  0  0  0  0  0  0  0  0  0
   14.0465  -12.1850  -13.7871 O   0  0  0  0  0  0  0  0  0  0  0  0
   16.5741   -6.8546  -13.6097 N   0  0  0  0  0  0  0  0  0  0  0  0
   16.9636   -5.7468  -12.7599 C   0  0  1  0  0  0  0  0  0  0  0  0
   17.5127   -4.6297  -13.6601 C   0  0  0  0  0  0  0  0  0  0  0  0
   17.9127   -3.1617  -12.6780 S   0  0  0  0  0  0  0  0  0  0  0  0
   15.7454   -5.2029  -12.1249 C   0  0  0  0  0  0  0  0  0  0  0  0
   14.7077   -5.0459  -12.8479 O   0  0  0  0  0  0  0  0  0  0  0  0
   15.7212   -4.8644  -10.7592 N   0  0  0  0  0  0  0  0  0  0  0  0
   14.4548   -4.2551  -10.2329 C   0  0  1  0  0  0  0  0  0  0  0  0
   14.3975   -4.5611   -8.7865 C   0  0  0  0  0  0  0  0  0  0  0  0
   13.3474   -3.9980   -7.9413 C   0  0  0  0  0  0  0  0  0  0  0  0
   13.3553   -4.1290   -6.4766 C   0  0  0  0  0  0  0  0  0  0  0  0
   12.1683   -3.2744   -5.9618 C   0  0  0  0  0  0  0  0  0  0  0  0
   12.1163   -3.3221   -4.5304 N   0  0  0  0  0  0  0  0  0  0  0  0
   14.6189   -2.8292  -10.6058 C   0  0  0  0  0  0  0  0  0  0  0  0
   13.5396   -2.1373  -10.7736 O   0  0  0  0  0  0  0  0  0  0  0  0
   15.7582   -2.1095  -10.8014 O   0  0  0  0  0  0  0  0  0  0  0  0
  2  1  1  1
  2  3  1  0
  3  4  1  0
  4  5  2  0
  4  8  1  0
  6  2  1  0
  6  9  1  0
  7  6  2  0
 10  9  1  0
 10 13  1  0
 10 11  1  6
 12 11  1  0
 13 15  1  0
 14 13  2  0
 15 16  1  0
 16 17  1  1
 16 22  1  0
 17 18  1  0
 19 18  1  0
 20 21  1  0
 20 19  1  0
 22 24  1  0
 23 22  2  0
M  END
$$$$
