DCK.pdb
     RDKit          3D

 24 23  0  0  1  0  0  0  0  0999 V2000
   17.8567  -10.9339  -15.1603 N   0  0  0  0  0  0  0  0  0  0  0  0
   16.8153  -10.2336  -14.4515 C   0  0  1  0  0  0  0  0  0  0  0  0
   16.1688  -11.2676  -13.5183 C   0  0  0  0  0  0  0  0  0  0  0  0
   15.4183  -12.1910  -14.3935 C   0  0  0  0  0  0  0  0  0  0  0  0
   15.7912  -13.3739  -14.5234 O   0  0  0  0  0  0  0  0  0  0  0  0
   17.3332   -9.1523  -13.5908 C   0  0  0  0  0  0  0  0  0  0  0  0
   18.3427   -9.3726  -12.8694 O   0  0  0  0  0  0  0  0  0  0  0  0
   14.2990  -11.7074  -15.0588 O   0  0  0  0  0  0  0  0  0  0  0  0
   16.6996   -7.8883  -13.5807 N   0  0  0  0  0  0  0  0  0  0  0  0
   17.1978   -6.8077  -12.7530 C   0  0  1  0  0  0  0  0  0  0  0  0
   17.9336   -5.8137  -13.6642 C   0  0  0  0  0  0  0  0  0  0  0  0
   17.0369   -5.5972  -15.2226 S   0  0  0  0  0  0  0  0  0  0  0  0
   16.0378   -6.0787  -12.1998 C   0  0  0  0  0  0  0  0  0  0  0  0
   14.9566   -6.0659  -12.8744 O   0  0  0  0  0  0  0  0  0  0  0  0
   16.1143   -5.4134  -10.9622 N   0  0  0  0  0  0  0  0  0  0  0  0
   14.8823   -4.6903  -10.5025 C   0  0  1  0  0  0  0  0  0  0  0  0
   14.6912   -5.0282   -9.0748 C   0  0  0  0  0  0  0  0  0  0  0  0
   13.6662   -4.3605   -8.2763 C   0  0  0  0  0  0  0  0  0  0  0  0
   13.4906   -4.6178   -6.8391 C   0  0  0  0  0  0  0  0  0  0  0  0
   12.2999   -3.7338   -6.3861 C   0  0  0  0  0  0  0  0  0  0  0  0
   12.0136   -3.9714   -5.0021 N   0  0  0  0  0  0  0  0  0  0  0  0
   15.2169   -3.2795  -10.8138 C   0  0  0  0  0  0  0  0  0  0  0  0
   16.4708   -2.9816  -10.9171 O   0  0  0  0  0  0  0  0  0  0  0  0
   14.3901   -2.2170  -11.0188 O   0  0  0  0  0  0  0  0  0  0  0  0
  2  1  1  1
  2  3  1  0
  3  4  1  0
  4  5  2  0
  4  8  1  0
  6  2  1  0
  6  9  1  0
  7  6  2  0
 10  9  1  0
 10 13  1  0
 10 11  1  6
 12 11  1  0
 13 15  1  0
 14 13  2  0
 15 16  1  0
 16 17  1  1
 16 22  1  0
 17 18  1  0
 19 18  1  0
 20 21  1  0
 20 19  1  0
 22 24  1  0
 23 22  2  0
M  END
$$$$
