DCK.pdb
     RDKit          3D

 24 23  0  0  1  0  0  0  0  0999 V2000
   18.3858  -12.8382  -15.8260 N   0  0  0  0  0  0  0  0  0  0  0  0
   17.5895  -11.6954  -15.4557 C   0  0  1  0  0  0  0  0  0  0  0  0
   16.2530  -12.2565  -14.9487 C   0  0  0  0  0  0  0  0  0  0  0  0
   15.5039  -12.6707  -16.1526 C   0  0  0  0  0  0  0  0  0  0  0  0
   15.5202  -13.8615  -16.5225 O   0  0  0  0  0  0  0  0  0  0  0  0
   18.1744  -10.9242  -14.3417 C   0  0  0  0  0  0  0  0  0  0  0  0
   18.6711  -11.5420  -13.3620 O   0  0  0  0  0  0  0  0  0  0  0  0
   14.7898  -11.7053  -16.8509 O   0  0  0  0  0  0  0  0  0  0  0  0
   18.1738   -9.5108  -14.3797 N   0  0  0  0  0  0  0  0  0  0  0  0
   18.8067   -8.7333  -13.3327 C   0  0  1  0  0  0  0  0  0  0  0  0
   19.9395   -7.9145  -13.9699 C   0  0  0  0  0  0  0  0  0  0  0  0
   20.7272   -6.8510  -12.7337 S   0  0  0  0  0  0  0  0  0  0  0  0
   17.8230   -7.7530  -12.8283 C   0  0  0  0  0  0  0  0  0  0  0  0
   17.1195   -7.1139  -13.6773 O   0  0  0  0  0  0  0  0  0  0  0  0
   17.6595   -7.5241  -11.4495 N   0  0  0  0  0  0  0  0  0  0  0  0
   16.5993   -6.5418  -11.0452 C   0  0  1  0  0  0  0  0  0  0  0  0
   16.1271   -6.9453   -9.7024 C   0  0  0  0  0  0  0  0  0  0  0  0
   15.0785   -6.1926   -9.0183 C   0  0  0  0  0  0  0  0  0  0  0  0
   14.5315   -6.6025   -7.7162 C   0  0  0  0  0  0  0  0  0  0  0  0
   13.4292   -5.5689   -7.3679 C   0  0  0  0  0  0  0  0  0  0  0  0
   12.8780   -5.8585   -6.0772 N   0  0  0  0  0  0  0  0  0  0  0  0
   17.3226   -5.2505  -11.1365 C   0  0  0  0  0  0  0  0  0  0  0  0
   18.6027   -5.2795  -10.9575 O   0  0  0  0  0  0  0  0  0  0  0  0
   16.8405   -4.0025  -11.3905 O   0  0  0  0  0  0  0  0  0  0  0  0
  2  1  1  1
  2  3  1  0
  3  4  1  0
  4  5  2  0
  4  8  1  0
  6  2  1  0
  6  9  1  0
  7  6  2  0
 10  9  1  0
 10 13  1  0
 10 11  1  6
 12 11  1  0
 13 15  1  0
 14 13  2  0
 15 16  1  0
 16 17  1  1
 16 22  1  0
 17 18  1  0
 19 18  1  0
 20 21  1  0
 20 19  1  0
 22 24  1  0
 23 22  2  0
M  END
$$$$
