DCK.pdb
     RDKit          3D

 24 23  0  0  1  0  0  0  0  0999 V2000
   28.1352  -21.0301  -17.5467 N   0  0  0  0  0  0  0  0  0  0  0  0
   27.5725  -22.2111  -16.9418 C   0  0  1  0  0  0  0  0  0  0  0  0
   28.7645  -23.0395  -16.4409 C   0  0  0  0  0  0  0  0  0  0  0  0
   29.4400  -23.5514  -17.6508 C   0  0  0  0  0  0  0  0  0  0  0  0
   28.9908  -23.2800  -18.7820 O   0  0  0  0  0  0  0  0  0  0  0  0
   26.7400  -21.9106  -15.7608 C   0  0  0  0  0  0  0  0  0  0  0  0
   26.3880  -22.8535  -15.0023 O   0  0  0  0  0  0  0  0  0  0  0  0
   30.5764  -24.3341  -17.4916 O   0  0  0  0  0  0  0  0  0  0  0  0
   26.3459  -20.5800  -15.4902 N   0  0  0  0  0  0  0  0  0  0  0  0
   25.5482  -20.2579  -14.3236 C   0  0  1  0  0  0  0  0  0  0  0  0
   25.7365  -18.7641  -14.0188 C   0  0  0  0  0  0  0  0  0  0  0  0
   27.4641  -18.4135  -13.6040 S   0  0  0  0  0  0  0  0  0  0  0  0
   24.1241  -20.4299  -14.6775 C   0  0  0  0  0  0  0  0  0  0  0  0
   23.7498  -20.0961  -15.8492 O   0  0  0  0  0  0  0  0  0  0  0  0
   23.1980  -20.9477  -13.7532 N   0  0  0  0  0  0  0  0  0  0  0  0
   21.8333  -21.2874  -14.2770 C   0  0  1  0  0  0  0  0  0  0  0  0
   21.3944  -22.5131  -13.5741 C   0  0  0  0  0  0  0  0  0  0  0  0
   20.1361  -23.1684  -13.9229 C   0  0  0  0  0  0  0  0  0  0  0  0
   19.5996  -24.3071  -13.1625 C   0  0  0  0  0  0  0  0  0  0  0  0
   18.2218  -24.6351  -13.7937 C   0  0  0  0  0  0  0  0  0  0  0  0
   17.5626  -25.6509  -13.0273 N   0  0  0  0  0  0  0  0  0  0  0  0
   21.0735  -20.0468  -13.9895 C   0  0  0  0  0  0  0  0  0  0  0  0
   21.4780  -19.3267  -12.9947 O   0  0  0  0  0  0  0  0  0  0  0  0
   19.9884  -19.5269  -14.6272 O   0  0  0  0  0  0  0  0  0  0  0  0
  2  1  1  1
  2  3  1  0
  3  4  1  0
  4  5  2  0
  4  8  1  0
  6  2  1  0
  6  9  1  0
  7  6  2  0
 10  9  1  0
 10 13  1  0
 10 11  1  6
 12 11  1  0
 13 15  1  0
 14 13  2  0
 15 16  1  0
 16 17  1  1
 16 22  1  0
 17 18  1  0
 19 18  1  0
 20 21  1  0
 20 19  1  0
 22 24  1  0
 23 22  2  0
M  END
$$$$
