DCK.pdb
     RDKit          3D

 24 23  0  0  1  0  0  0  0  0999 V2000
   28.2590  -13.1698  -18.7905 N   0  0  0  0  0  0  0  0  0  0  0  0
   27.0360  -12.4830  -19.1221 C   0  0  1  0  0  0  0  0  0  0  0  0
   26.1707  -13.5004  -19.8797 C   0  0  0  0  0  0  0  0  0  0  0  0
   26.8830  -13.7775  -21.1438 C   0  0  0  0  0  0  0  0  0  0  0  0
   27.1289  -12.8508  -21.9411 O   0  0  0  0  0  0  0  0  0  0  0  0
   26.2650  -12.0754  -17.9314 C   0  0  0  0  0  0  0  0  0  0  0  0
   25.9049  -12.9544  -17.1032 O   0  0  0  0  0  0  0  0  0  0  0  0
   27.2656  -15.0854  -21.4134 O   0  0  0  0  0  0  0  0  0  0  0  0
   25.9381  -10.7148  -17.7293 N   0  0  0  0  0  0  0  0  0  0  0  0
   25.2791  -10.2754  -16.5153 C   0  0  1  0  0  0  0  0  0  0  0  0
   26.2718   -9.4106  -15.7239 C   0  0  0  0  0  0  0  0  0  0  0  0
   27.5528  -10.4442  -14.9686 S   0  0  0  0  0  0  0  0  0  0  0  0
   24.1647   -9.3820  -16.8935 C   0  0  0  0  0  0  0  0  0  0  0  0
   24.2975   -8.6611  -17.9360 O   0  0  0  0  0  0  0  0  0  0  0  0
   22.9842   -9.3216  -16.1300 N   0  0  0  0  0  0  0  0  0  0  0  0
   21.9264   -8.3615  -16.5899 C   0  0  1  0  0  0  0  0  0  0  0  0
   20.6865   -9.1456  -16.7822 C   0  0  0  0  0  0  0  0  0  0  0  0
   19.4341   -8.4904  -17.1516 C   0  0  0  0  0  0  0  0  0  0  0  0
   18.1758   -9.2309  -17.3281 C   0  0  0  0  0  0  0  0  0  0  0  0
   17.0938   -8.1692  -17.6542 C   0  0  0  0  0  0  0  0  0  0  0  0
   15.8567   -8.8158  -17.9785 N   0  0  0  0  0  0  0  0  0  0  0  0
   21.9186   -7.3614  -15.4949 C   0  0  0  0  0  0  0  0  0  0  0  0
   22.2692   -7.7728  -14.3204 O   0  0  0  0  0  0  0  0  0  0  0  0
   21.5959   -6.0389  -15.5305 O   0  0  0  0  0  0  0  0  0  0  0  0
  2  1  1  1
  2  3  1  0
  3  4  1  0
  4  5  2  0
  4  8  1  0
  6  2  1  0
  6  9  1  0
  7  6  2  0
 10  9  1  0
 10 13  1  0
 10 11  1  1
 12 11  1  0
 13 15  1  0
 14 13  2  0
 15 16  1  0
 16 17  1  1
 16 22  1  0
 17 18  1  0
 19 18  1  0
 20 21  1  0
 20 19  1  0
 22 24  1  0
 23 22  2  0
M  END
$$$$
