AMG.pdb
     RDKit          3D

 18 17  0  0  1  0  0  0  0  0999 V2000
    7.6358  -12.3321   19.8039 C   0  0  0  0  0  0  0  0  0  0  0  0
    7.8718  -13.7667   20.1459 C   0  0  2  0  0  0  0  0  0  0  0  0
    6.6915  -14.5457   19.9405 N   0  0  0  0  0  0  0  0  0  0  0  0
    8.4365  -13.9738   21.4951 C   0  0  0  0  0  0  0  0  0  0  0  0
    9.6250  -13.6257   21.7131 O   0  0  0  0  0  0  0  0  0  0  0  0
    6.5399  -10.8189   27.0759 C   0  0  0  0  0  0  0  0  0  0  0  0
    6.3641  -12.5991   26.6859 S   0  0  0  0  0  0  0  0  0  0  0  0
    7.3513  -12.9713   25.2077 C   0  0  0  0  0  0  0  0  0  0  0  0
    7.2860  -14.4138   24.8654 C   0  0  0  0  0  0  0  0  0  0  0  0
    8.2793  -14.9106   23.8529 C   0  0  2  0  0  0  0  0  0  0  0  0
    7.6932  -14.5489   22.5536 N   0  0  0  0  0  0  0  0  0  0  0  0
    8.4977  -16.3812   23.8941 C   0  0  0  0  0  0  0  0  0  0  0  0
    7.4850  -17.1672   23.8910 O   0  0  0  0  0  0  0  0  0  0  0  0
    9.7583  -17.0111   23.9351 N   0  0  0  0  0  0  0  0  0  0  0  0
   10.5775  -16.9459   25.1471 C   0  0  0  0  0  0  0  0  0  0  0  0
   11.8344  -17.6993   24.9885 C   0  0  0  0  0  0  0  0  0  0  0  0
   12.6138  -18.0335   26.0812 O   0  0  0  0  0  0  0  0  0  0  0  0
   12.2165  -18.0499   23.8492 O   0  0  0  0  0  0  0  0  0  0  0  0
  2  1  1  1
  2  4  1  0
  2  3  1  0
  4  5  2  0
  7  6  1  0
  7  8  1  0
  8  9  1  0
 10  9  1  1
 11  4  1  0
 11 10  1  0
 12 10  1  0
 12 14  1  0
 13 12  2  0
 15 14  1  0
 15 16  1  0
 16 17  1  0
 18 16  2  0
M  END
$$$$
