AMG.pdb
     RDKit          3D

 18 17  0  0  1  0  0  0  0  0999 V2000
    7.4634  -13.2084   19.3046 C   0  0  0  0  0  0  0  0  0  0  0  0
    8.0390  -14.3197   20.1197 C   0  0  2  0  0  0  0  0  0  0  0  0
    7.2226  -15.4901   20.0437 N   0  0  0  0  0  0  0  0  0  0  0  0
    8.3302  -13.9453   21.5187 C   0  0  0  0  0  0  0  0  0  0  0  0
    9.1825  -13.0474   21.7395 O   0  0  0  0  0  0  0  0  0  0  0  0
    6.8610  -11.5735   28.0372 C   0  0  0  0  0  0  0  0  0  0  0  0
    6.9775  -12.0303   26.2680 S   0  0  0  0  0  0  0  0  0  0  0  0
    6.5145  -13.7770   26.0863 C   0  0  0  0  0  0  0  0  0  0  0  0
    6.5832  -14.2079   24.6679 C   0  0  0  0  0  0  0  0  0  0  0  0
    7.9387  -14.1750   24.0198 C   0  0  2  0  0  0  0  0  0  0  0  0
    7.6881  -14.5569   22.6220 N   0  0  0  0  0  0  0  0  0  0  0  0
    8.9147  -15.1264   24.6151 C   0  0  0  0  0  0  0  0  0  0  0  0
    9.2635  -14.9842   25.8405 O   0  0  0  0  0  0  0  0  0  0  0  0
    9.5094  -16.2078   23.9335 N   0  0  0  0  0  0  0  0  0  0  0  0
   10.3582  -17.1585   24.6547 C   0  0  0  0  0  0  0  0  0  0  0  0
   11.7759  -17.0048   24.2815 C   0  0  0  0  0  0  0  0  0  0  0  0
   12.4297  -17.9674   23.5337 O   0  0  0  0  0  0  0  0  0  0  0  0
   12.4132  -15.9893   24.6413 O   0  0  0  0  0  0  0  0  0  0  0  0
  2  1  1  1
  2  4  1  0
  2  3  1  0
  4  5  2  0
  7  6  1  0
  7  8  1  0
  8  9  1  0
 10  9  1  1
 11  4  1  0
 11 10  1  0
 12 10  1  0
 12 14  1  0
 13 12  2  0
 15 14  1  0
 15 16  1  0
 16 17  1  0
 18 16  2  0
M  END
$$$$
