AMG.pdb
     RDKit          3D

 18 17  0  0  1  0  0  0  0  0999 V2000
    7.6173  -15.3287   19.4397 C   0  0  0  0  0  0  0  0  0  0  0  0
    7.5671  -13.9181   19.9283 C   0  0  2  0  0  0  0  0  0  0  0  0
    8.2547  -13.0395   19.0354 N   0  0  0  0  0  0  0  0  0  0  0  0
    8.0272  -13.7522   21.3221 C   0  0  0  0  0  0  0  0  0  0  0  0
    9.1899  -13.3194   21.5275 O   0  0  0  0  0  0  0  0  0  0  0  0
    7.4602  -11.8595   28.3327 C   0  0  0  0  0  0  0  0  0  0  0  0
    7.3207  -11.9705   26.5106 S   0  0  0  0  0  0  0  0  0  0  0  0
    6.5402  -13.5534   26.0820 C   0  0  0  0  0  0  0  0  0  0  0  0
    6.3954  -13.7023   24.6126 C   0  0  0  0  0  0  0  0  0  0  0  0
    7.6594  -13.9263   23.8313 C   0  0  2  0  0  0  0  0  0  0  0  0
    7.2117  -14.0611   22.4370 N   0  0  0  0  0  0  0  0  0  0  0  0
    8.4010  -15.1543   24.2236 C   0  0  0  0  0  0  0  0  0  0  0  0
    7.8665  -16.3022   24.0233 O   0  0  0  0  0  0  0  0  0  0  0  0
    9.6817  -15.1726   24.8130 N   0  0  0  0  0  0  0  0  0  0  0  0
   10.2550  -16.4309   25.2949 C   0  0  0  0  0  0  0  0  0  0  0  0
   11.2195  -16.9877   24.3293 C   0  0  0  0  0  0  0  0  0  0  0  0
   11.9754  -18.1055   24.6331 O   0  0  0  0  0  0  0  0  0  0  0  0
   11.3682  -16.4491   23.2092 O   0  0  0  0  0  0  0  0  0  0  0  0
  2  1  1  6
  2  4  1  0
  2  3  1  0
  4  5  2  0
  7  6  1  0
  7  8  1  0
  8  9  1  0
 10  9  1  1
 11  4  1  0
 11 10  1  0
 12 10  1  0
 12 14  1  0
 13 12  2  0
 15 14  1  0
 15 16  1  0
 16 17  1  0
 18 16  2  0
M  END
$$$$
