AMG.pdb
     RDKit          3D

 18 17  0  0  1  0  0  0  0  0999 V2000
    8.0982  -17.5386   20.7543 C   0  0  0  0  0  0  0  0  0  0  0  0
    7.3990  -16.2275   20.9049 C   0  0  2  0  0  0  0  0  0  0  0  0
    7.3776  -15.5106   19.6689 N   0  0  0  0  0  0  0  0  0  0  0  0
    7.9188  -15.3970   22.0104 C   0  0  0  0  0  0  0  0  0  0  0  0
    8.9062  -14.6494   21.7924 O   0  0  0  0  0  0  0  0  0  0  0  0
    7.0208  -10.8274   27.5609 C   0  0  0  0  0  0  0  0  0  0  0  0
    6.6783  -11.8528   26.0833 S   0  0  0  0  0  0  0  0  0  0  0  0
    6.8352  -13.6034   26.5407 C   0  0  0  0  0  0  0  0  0  0  0  0
    6.6694  -14.4859   25.3592 C   0  0  0  0  0  0  0  0  0  0  0  0
    7.8329  -14.5669   24.4114 C   0  0  2  0  0  0  0  0  0  0  0  0
    7.3501  -15.4087   23.3066 N   0  0  0  0  0  0  0  0  0  0  0  0
    9.0481  -15.1897   25.0008 C   0  0  0  0  0  0  0  0  0  0  0  0
    9.7545  -14.5215   25.8362 O   0  0  0  0  0  0  0  0  0  0  0  0
    9.5085  -16.4918   24.7174 N   0  0  0  0  0  0  0  0  0  0  0  0
   10.7494  -16.9838   25.3195 C   0  0  0  0  0  0  0  0  0  0  0  0
   10.4965  -17.6357   26.6171 C   0  0  0  0  0  0  0  0  0  0  0  0
   11.5013  -18.3051   27.2920 O   0  0  0  0  0  0  0  0  0  0  0  0
    9.3556  -17.5912   27.1301 O   0  0  0  0  0  0  0  0  0  0  0  0
  2  1  1  6
  2  4  1  0
  2  3  1  0
  4  5  2  0
  7  6  1  0
  7  8  1  0
  8  9  1  0
 10  9  1  1
 11  4  1  0
 11 10  1  0
 12 10  1  0
 12 14  1  0
 13 12  2  0
 15 14  1  0
 15 16  1  0
 16 17  1  0
 18 16  2  0
M  END
$$$$
