AMG.pdb
     RDKit          3D

 18 17  0  0  1  0  0  0  0  0999 V2000
    6.4476  -20.5428   23.8111 C   0  0  0  0  0  0  0  0  0  0  0  0
    5.6444  -19.3243   23.4936 C   0  0  2  0  0  0  0  0  0  0  0  0
    4.8532  -19.5208   22.3199 N   0  0  0  0  0  0  0  0  0  0  0  0
    6.4452  -18.0856   23.4129 C   0  0  0  0  0  0  0  0  0  0  0  0
    7.0314  -17.8138   22.3341 O   0  0  0  0  0  0  0  0  0  0  0  0
    7.3644  -11.0520   26.8796 C   0  0  0  0  0  0  0  0  0  0  0  0
    6.4259  -12.5998   26.6047 S   0  0  0  0  0  0  0  0  0  0  0  0
    7.4408  -13.7259   25.6044 C   0  0  0  0  0  0  0  0  0  0  0  0
    6.7199  -14.9913   25.3194 C   0  0  0  0  0  0  0  0  0  0  0  0
    7.4417  -16.0004   24.4713 C   0  0  2  0  0  0  0  0  0  0  0  0
    6.5797  -17.1914   24.5018 N   0  0  0  0  0  0  0  0  0  0  0  0
    8.7899  -16.3640   24.9833 C   0  0  0  0  0  0  0  0  0  0  0  0
    8.9416  -16.6146   26.2314 O   0  0  0  0  0  0  0  0  0  0  0  0
    9.9547  -16.4642   24.1954 N   0  0  0  0  0  0  0  0  0  0  0  0
   11.2502  -16.7323   24.8232 C   0  0  0  0  0  0  0  0  0  0  0  0
   12.3329  -15.9776   24.1668 C   0  0  0  0  0  0  0  0  0  0  0  0
   13.4787  -15.6209   24.8547 O   0  0  0  0  0  0  0  0  0  0  0  0
   12.2273  -15.6460   22.9644 O   0  0  0  0  0  0  0  0  0  0  0  0
  2  1  1  6
  2  4  1  0
  2  3  1  0
  4  5  2  0
  7  6  1  0
  7  8  1  0
  8  9  1  0
 10  9  1  1
 11  4  1  0
 11 10  1  0
 12 10  1  0
 12 14  1  0
 13 12  2  0
 15 14  1  0
 15 16  1  0
 16 17  1  0
 18 16  2  0
M  END
$$$$
