HGW.pdb
     RDKit          3D

 29 31  0  0  1  0  0  0  0  0999 V2000
   25.7590  -20.9357  -16.6561 N   0  0  0  0  0  0  0  0  0  0  0  0
   26.7947  -19.9557  -16.4170 C   0  0  1  0  0  0  0  0  0  0  0  0
   26.4311  -18.7071  -17.1959 C   0  0  0  0  0  0  0  0  0  0  0  0
   26.5871  -19.0071  -18.6469 C   0  0  0  0  0  0  0  0  0  0  0  0
   25.6191  -18.9227  -19.6140 C   0  0  0  0  0  0  0  0  0  0  0  0
   26.1523  -19.2758  -20.8077 N   0  0  0  0  0  0  0  0  0  0  0  0
   27.4576  -19.5842  -20.5980 C   0  0  0  0  0  0  0  0  0  0  0  0
   27.7116  -19.4185  -19.2873 N   0  0  0  0  0  0  0  0  0  0  0  0
   26.8966  -19.6924  -14.9719 C   0  0  0  0  0  0  0  0  0  0  0  0
   25.9358  -19.1559  -14.3498 O   0  0  0  0  0  0  0  0  0  0  0  0
   28.0532  -20.0136  -14.1898 N   0  0  0  0  0  0  0  0  0  0  0  0
   28.1252  -19.6724  -12.7921 C   0  0  0  0  0  0  0  0  0  0  0  0
   27.2100  -20.5357  -11.9786 C   0  0  0  0  0  0  0  0  0  0  0  0
   26.4189  -21.2818  -12.5704 O   0  0  0  0  0  0  0  0  0  0  0  0
   27.2261  -20.5208  -10.5588 N   0  0  0  0  0  0  0  0  0  0  0  0
   26.3867  -21.3470   -9.7388 C   0  0  1  0  0  0  0  0  0  0  0  0
   26.9811  -21.6317   -8.3901 C   0  0  0  0  0  0  0  0  0  0  0  0
   27.4030  -20.4712   -7.6170 C   0  0  0  0  0  0  0  0  0  0  0  0
   27.0767  -19.1545   -7.8500 C   0  0  0  0  0  0  0  0  0  0  0  0
   27.6633  -18.3549   -6.9428 N   0  0  0  0  0  0  0  0  0  0  0  0
   28.3666  -19.1442   -6.1240 C   0  0  0  0  0  0  0  0  0  0  0  0
   29.1328  -18.7945   -5.0347 C   0  0  0  0  0  0  0  0  0  0  0  0
   29.7979  -19.7510   -4.2800 C   0  0  0  0  0  0  0  0  0  0  0  0
   29.6544  -21.0637   -4.6723 C   0  0  0  0  0  0  0  0  0  0  0  0
   28.8890  -21.4151   -5.7612 C   0  0  0  0  0  0  0  0  0  0  0  0
   28.2250  -20.4627   -6.5161 C   0  0  0  0  0  0  0  0  0  0  0  0
   25.0321  -20.7976   -9.5534 C   0  0  0  0  0  0  0  0  0  0  0  0
   24.8250  -19.6133   -9.9186 O   0  0  0  0  0  0  0  0  0  0  0  0
   23.9633  -21.4899   -9.0045 O   0  0  0  0  0  0  0  0  0  0  0  0
  2  1  1  1
  2  9  1  0
  3  4  1  0
  3  2  1  0
  4  5  2  0
  5  6  1  0
  7  6  1  0
  8  4  1  0
  8  7  2  0
  9 11  1  0
  9 10  2  0
 11 12  1  0
 12 13  1  0
 13 14  2  0
 15 16  1  0
 15 13  1  0
 16 27  1  0
 16 17  1  1
 18 19  2  0
 18 17  1  0
 20 19  1  0
 21 26  2  0
 21 20  1  0
 22 21  1  0
 23 24  1  0
 23 22  2  0
 24 25  2  0
 25 26  1  0
 26 18  1  0
 27 29  1  0
 28 27  2  0
M  END
$$$$
