HGW.pdb
     RDKit          3D

 29 31  0  0  1  0  0  0  0  0999 V2000
   20.5096  -19.5121  -14.3056 N   0  0  0  0  0  0  0  0  0  0  0  0
   21.0590  -20.8171  -14.5983 C   0  0  1  0  0  0  0  0  0  0  0  0
   21.8291  -20.7074  -15.8993 C   0  0  0  0  0  0  0  0  0  0  0  0
   22.8295  -19.6132  -15.7522 C   0  0  0  0  0  0  0  0  0  0  0  0
   24.1516  -19.7460  -15.4150 C   0  0  0  0  0  0  0  0  0  0  0  0
   24.7274  -18.5206  -15.3851 N   0  0  0  0  0  0  0  0  0  0  0  0
   23.7710  -17.6110  -15.7030 C   0  0  0  0  0  0  0  0  0  0  0  0
   22.6258  -18.2817  -15.9235 N   0  0  0  0  0  0  0  0  0  0  0  0
   21.9199  -21.2478  -13.4841 C   0  0  0  0  0  0  0  0  0  0  0  0
   22.4547  -22.3932  -13.4944 O   0  0  0  0  0  0  0  0  0  0  0  0
   22.2057  -20.4287  -12.3440 N   0  0  0  0  0  0  0  0  0  0  0  0
   23.0145  -20.9202  -11.2580 C   0  0  0  0  0  0  0  0  0  0  0  0
   24.4434  -20.4985  -11.4161 C   0  0  0  0  0  0  0  0  0  0  0  0
   24.7089  -19.5986  -12.2239 O   0  0  0  0  0  0  0  0  0  0  0  0
   25.4921  -21.0985  -10.6701 N   0  0  0  0  0  0  0  0  0  0  0  0
   26.8766  -20.7470  -10.8078 C   0  0  1  0  0  0  0  0  0  0  0  0
   27.7067  -21.1577   -9.6264 C   0  0  0  0  0  0  0  0  0  0  0  0
   27.2624  -20.6671   -8.3285 C   0  0  0  0  0  0  0  0  0  0  0  0
   25.9640  -20.4898   -7.9075 C   0  0  0  0  0  0  0  0  0  0  0  0
   25.9360  -20.0018   -6.6555 N   0  0  0  0  0  0  0  0  0  0  0  0
   27.2066  -19.8622   -6.2628 C   0  0  0  0  0  0  0  0  0  0  0  0
   27.6929  -19.4053   -5.0584 C   0  0  0  0  0  0  0  0  0  0  0  0
   29.0564  -19.3307   -4.8093 C   0  0  0  0  0  0  0  0  0  0  0  0
   29.8974  -19.7352   -5.8227 C   0  0  0  0  0  0  0  0  0  0  0  0
   29.4129  -20.1920   -7.0275 C   0  0  0  0  0  0  0  0  0  0  0  0
   28.0531  -20.2668   -7.2786 C   0  0  0  0  0  0  0  0  0  0  0  0
   27.4950  -21.2861  -12.0319 C   0  0  0  0  0  0  0  0  0  0  0  0
   28.6495  -20.8890  -12.3290 O   0  0  0  0  0  0  0  0  0  0  0  0
   26.8985  -22.2022  -12.8850 O   0  0  0  0  0  0  0  0  0  0  0  0
  2  1  1  1
  2  9  1  0
  3  4  1  0
  3  2  1  0
  4  5  2  0
  5  6  1  0
  7  6  1  0
  8  4  1  0
  8  7  2  0
  9 11  1  0
  9 10  2  0
 11 12  1  0
 12 13  1  0
 13 14  2  0
 15 16  1  0
 15 13  1  0
 16 27  1  0
 16 17  1  1
 18 19  2  0
 18 17  1  0
 20 19  1  0
 21 26  2  0
 21 20  1  0
 22 21  1  0
 23 24  1  0
 23 22  2  0
 24 25  2  0
 25 26  1  0
 26 18  1  0
 27 29  1  0
 28 27  2  0
M  END
$$$$
