HGW.pdb
     RDKit          3D

 29 31  0  0  1  0  0  0  0  0999 V2000
   27.1978  -17.5807  -17.4160 N   0  0  0  0  0  0  0  0  0  0  0  0
   26.2084  -17.5534  -16.3621 C   0  0  1  0  0  0  0  0  0  0  0  0
   24.9828  -18.2890  -16.8666 C   0  0  0  0  0  0  0  0  0  0  0  0
   25.1439  -18.5024  -18.3323 C   0  0  0  0  0  0  0  0  0  0  0  0
   26.2501  -18.2154  -19.0896 C   0  0  0  0  0  0  0  0  0  0  0  0
   26.0060  -18.5538  -20.3780 N   0  0  0  0  0  0  0  0  0  0  0  0
   24.7458  -19.0550  -20.4379 C   0  0  0  0  0  0  0  0  0  0  0  0
   24.2321  -19.0200  -19.1951 N   0  0  0  0  0  0  0  0  0  0  0  0
   26.7651  -18.1784  -15.1506 C   0  0  0  0  0  0  0  0  0  0  0  0
   26.0426  -18.3451  -14.1267 O   0  0  0  0  0  0  0  0  0  0  0  0
   28.1212  -18.6285  -15.0455 N   0  0  0  0  0  0  0  0  0  0  0  0
   28.5992  -19.2798  -13.8529 C   0  0  0  0  0  0  0  0  0  0  0  0
   27.7083  -20.4211  -13.4677 C   0  0  0  0  0  0  0  0  0  0  0  0
   27.8354  -21.4985  -14.0641 O   0  0  0  0  0  0  0  0  0  0  0  0
   26.7304  -20.3004  -12.4452 N   0  0  0  0  0  0  0  0  0  0  0  0
   25.9077  -21.3850  -11.9907 C   0  0  1  0  0  0  0  0  0  0  0  0
   26.3507  -21.9440  -10.6698 C   0  0  0  0  0  0  0  0  0  0  0  0
   26.4837  -20.9864   -9.5800 C   0  0  0  0  0  0  0  0  0  0  0  0
   25.5601  -20.0463   -9.1828 C   0  0  0  0  0  0  0  0  0  0  0  0
   26.0343  -19.3239   -8.1534 N   0  0  0  0  0  0  0  0  0  0  0  0
   27.2579  -19.7896   -7.8810 C   0  0  0  0  0  0  0  0  0  0  0  0
   28.1417  -19.3781   -6.9087 C   0  0  0  0  0  0  0  0  0  0  0  0
   29.3823  -19.9817   -6.7554 C   0  0  0  0  0  0  0  0  0  0  0  0
   29.6854  -21.0100   -7.6206 C   0  0  0  0  0  0  0  0  0  0  0  0
   28.8031  -21.4224   -8.5934 C   0  0  0  0  0  0  0  0  0  0  0  0
   27.5652  -20.8213   -8.7488 C   0  0  0  0  0  0  0  0  0  0  0  0
   24.4793  -21.0343  -11.9020 C   0  0  0  0  0  0  0  0  0  0  0  0
   24.1709  -19.8170  -11.9462 O   0  0  0  0  0  0  0  0  0  0  0  0
   23.4444  -21.9482  -11.7729 O   0  0  0  0  0  0  0  0  0  0  0  0
  2  1  1  6
  2  9  1  0
  3  4  1  0
  3  2  1  0
  4  5  2  0
  5  6  1  0
  7  6  1  0
  8  4  1  0
  8  7  2  0
  9 11  1  0
  9 10  2  0
 11 12  1  0
 12 13  1  0
 13 14  2  0
 15 16  1  0
 15 13  1  0
 16 27  1  0
 16 17  1  1
 18 19  2  0
 18 17  1  0
 20 19  1  0
 21 26  2  0
 21 20  1  0
 22 21  1  0
 23 24  1  0
 23 22  2  0
 24 25  2  0
 25 26  1  0
 26 18  1  0
 27 29  1  0
 28 27  2  0
M  END
$$$$
