HGW.pdb
     RDKit          3D

 29 31  0  0  1  0  0  0  0  0999 V2000
   26.8836  -19.0149  -17.3903 N   0  0  0  0  0  0  0  0  0  0  0  0
   28.2735  -19.0415  -16.9926 C   0  0  1  0  0  0  0  0  0  0  0  0
   28.9699  -17.8887  -17.6881 C   0  0  0  0  0  0  0  0  0  0  0  0
   28.9122  -18.1335  -19.1566 C   0  0  0  0  0  0  0  0  0  0  0  0
   28.1045  -17.5008  -20.0658 C   0  0  0  0  0  0  0  0  0  0  0  0
   28.3479  -18.0019  -21.3002 N   0  0  0  0  0  0  0  0  0  0  0  0
   29.3094  -18.9519  -21.1740 C   0  0  0  0  0  0  0  0  0  0  0  0
   29.6446  -19.0244  -19.8732 N   0  0  0  0  0  0  0  0  0  0  0  0
   28.3662  -18.9365  -15.5268 C   0  0  0  0  0  0  0  0  0  0  0  0
   29.4879  -19.0161  -14.9492 O   0  0  0  0  0  0  0  0  0  0  0  0
   27.2306  -18.7432  -14.6750 N   0  0  0  0  0  0  0  0  0  0  0  0
   27.3838  -18.6090  -13.2490 C   0  0  0  0  0  0  0  0  0  0  0  0
   27.0389  -19.8869  -12.5470 C   0  0  0  0  0  0  0  0  0  0  0  0
   26.8162  -20.8955  -13.2295 O   0  0  0  0  0  0  0  0  0  0  0  0
   26.9617  -19.9708  -11.1316 N   0  0  0  0  0  0  0  0  0  0  0  0
   26.6023  -21.1627  -10.4177 C   0  0  1  0  0  0  0  0  0  0  0  0
   27.5129  -21.4501   -9.2593 C   0  0  0  0  0  0  0  0  0  0  0  0
   27.4733  -20.4950   -8.1599 C   0  0  0  0  0  0  0  0  0  0  0  0
   26.7892  -19.3014   -8.1206 C   0  0  0  0  0  0  0  0  0  0  0  0
   27.0008  -18.6740   -6.9509 N   0  0  0  0  0  0  0  0  0  0  0  0
   27.8165  -19.4530   -6.2326 C   0  0  0  0  0  0  0  0  0  0  0  0
   28.3150  -19.2452   -4.9660 C   0  0  0  0  0  0  0  0  0  0  0  0
   29.1525  -20.1695   -4.3568 C   0  0  0  0  0  0  0  0  0  0  0  0
   29.4598  -21.3018   -5.0787 C   0  0  0  0  0  0  0  0  0  0  0  0
   28.9625  -21.5109   -6.3452 C   0  0  0  0  0  0  0  0  0  0  0  0
   28.1273  -20.5901   -6.9553 C   0  0  0  0  0  0  0  0  0  0  0  0
   25.2099  -21.1546   -9.9354 C   0  0  0  0  0  0  0  0  0  0  0  0
   24.7303  -22.2359   -9.5117 O   0  0  0  0  0  0  0  0  0  0  0  0
   24.3845  -20.0406   -9.9128 O   0  0  0  0  0  0  0  0  0  0  0  0
  2  1  1  1
  2  9  1  0
  3  4  1  0
  3  2  1  0
  4  5  2  0
  5  6  1  0
  7  6  1  0
  8  4  1  0
  8  7  2  0
  9 11  1  0
  9 10  2  0
 11 12  1  0
 12 13  1  0
 13 14  2  0
 15 16  1  0
 15 13  1  0
 16 27  1  0
 16 17  1  1
 18 19  2  0
 18 17  1  0
 20 19  1  0
 21 26  2  0
 21 20  1  0
 22 21  1  0
 23 24  1  0
 23 22  2  0
 24 25  2  0
 25 26  1  0
 26 18  1  0
 27 29  1  0
 28 27  2  0
M  END
$$$$
