HGW.pdb
     RDKit          3D

 29 31  0  0  1  0  0  0  0  0999 V2000
   26.2926  -20.5171  -17.0880 N   0  0  0  0  0  0  0  0  0  0  0  0
   27.3912  -21.3817  -16.7192 C   0  0  1  0  0  0  0  0  0  0  0  0
   28.5232  -21.1234  -17.6937 C   0  0  0  0  0  0  0  0  0  0  0  0
   28.0567  -21.5093  -19.0551 C   0  0  0  0  0  0  0  0  0  0  0  0
   27.9130  -20.6847  -20.1409 C   0  0  0  0  0  0  0  0  0  0  0  0
   27.4670  -21.4106  -21.1936 N   0  0  0  0  0  0  0  0  0  0  0  0
   27.3277  -22.6948  -20.7758 C   0  0  0  0  0  0  0  0  0  0  0  0
   27.6869  -22.7447  -19.4803 N   0  0  0  0  0  0  0  0  0  0  0  0
   27.7884  -21.1041  -15.3287 C   0  0  0  0  0  0  0  0  0  0  0  0
   28.7756  -21.7025  -14.8135 O   0  0  0  0  0  0  0  0  0  0  0  0
   27.1083  -20.1672  -14.4848 N   0  0  0  0  0  0  0  0  0  0  0  0
   27.5501  -19.9234  -13.1355 C   0  0  0  0  0  0  0  0  0  0  0  0
   26.6346  -20.5724  -12.1429 C   0  0  0  0  0  0  0  0  0  0  0  0
   25.5484  -21.0140  -12.5402 O   0  0  0  0  0  0  0  0  0  0  0  0
   26.9772  -20.6934  -10.7702 N   0  0  0  0  0  0  0  0  0  0  0  0
   26.1475  -21.3344   -9.7903 C   0  0  1  0  0  0  0  0  0  0  0  0
   26.8547  -21.5729   -8.4878 C   0  0  0  0  0  0  0  0  0  0  0  0
   27.2066  -20.3846   -7.7219 C   0  0  0  0  0  0  0  0  0  0  0  0
   26.7834  -19.0946   -7.9487 C   0  0  0  0  0  0  0  0  0  0  0  0
   27.3277  -18.2544   -7.0518 N   0  0  0  0  0  0  0  0  0  0  0  0
   28.0996  -18.9910   -6.2459 C   0  0  0  0  0  0  0  0  0  0  0  0
   28.8582  -18.5867   -5.1702 C   0  0  0  0  0  0  0  0  0  0  0  0
   29.6030  -19.4927   -4.4278 C   0  0  0  0  0  0  0  0  0  0  0  0
   29.5463  -20.8127   -4.8179 C   0  0  0  0  0  0  0  0  0  0  0  0
   28.7886  -21.2187   -5.8931 C   0  0  0  0  0  0  0  0  0  0  0  0
   28.0453  -20.3166   -6.6358 C   0  0  0  0  0  0  0  0  0  0  0  0
   24.8944  -20.6065   -9.5229 C   0  0  0  0  0  0  0  0  0  0  0  0
   24.8450  -19.3905   -9.8354 O   0  0  0  0  0  0  0  0  0  0  0  0
   23.7605  -21.1626   -8.9504 O   0  0  0  0  0  0  0  0  0  0  0  0
  2  1  1  6
  2  9  1  0
  3  4  1  0
  3  2  1  0
  4  5  2  0
  5  6  1  0
  7  6  1  0
  8  4  1  0
  8  7  2  0
  9 11  1  0
  9 10  2  0
 11 12  1  0
 12 13  1  0
 13 14  2  0
 15 16  1  0
 15 13  1  0
 16 27  1  0
 16 17  1  1
 18 19  2  0
 18 17  1  0
 20 19  1  0
 21 26  2  0
 21 20  1  0
 22 21  1  0
 23 24  1  0
 23 22  2  0
 24 25  2  0
 25 26  1  0
 26 18  1  0
 27 29  1  0
 28 27  2  0
M  END
$$$$
