HGW.pdb
     RDKit          3D

 29 31  0  0  1  0  0  0  0  0999 V2000
   25.0318  -17.2671  -16.2222 N   0  0  0  0  0  0  0  0  0  0  0  0
   26.2504  -17.9963  -16.4940 C   0  0  1  0  0  0  0  0  0  0  0  0
   27.1163  -17.1247  -17.3818 C   0  0  0  0  0  0  0  0  0  0  0  0
   26.3220  -16.7641  -18.5896 C   0  0  0  0  0  0  0  0  0  0  0  0
   25.9757  -17.5930  -19.6252 C   0  0  0  0  0  0  0  0  0  0  0  0
   25.2525  -16.8930  -20.5313 N   0  0  0  0  0  0  0  0  0  0  0  0
   25.1402  -15.6209  -20.0709 C   0  0  0  0  0  0  0  0  0  0  0  0
   25.7905  -15.5525  -18.8952 N   0  0  0  0  0  0  0  0  0  0  0  0
   26.9195  -18.3238  -15.2238 C   0  0  0  0  0  0  0  0  0  0  0  0
   27.9754  -19.0188  -15.2173 O   0  0  0  0  0  0  0  0  0  0  0  0
   26.4396  -17.8940  -13.9442 N   0  0  0  0  0  0  0  0  0  0  0  0
   27.1588  -18.2067  -12.7358 C   0  0  0  0  0  0  0  0  0  0  0  0
   26.5840  -19.4162  -12.0640 C   0  0  0  0  0  0  0  0  0  0  0  0
   25.6220  -19.9868  -12.5946 O   0  0  0  0  0  0  0  0  0  0  0  0
   27.1094  -19.9210  -10.8451 N   0  0  0  0  0  0  0  0  0  0  0  0
   26.6289  -21.1069  -10.1953 C   0  0  1  0  0  0  0  0  0  0  0  0
   27.4215  -21.4682   -8.9727 C   0  0  0  0  0  0  0  0  0  0  0  0
   27.4902  -20.4536   -7.9295 C   0  0  0  0  0  0  0  0  0  0  0  0
   26.8097  -19.2579   -7.8876 C   0  0  0  0  0  0  0  0  0  0  0  0
   27.1363  -18.5671   -6.7819 N   0  0  0  0  0  0  0  0  0  0  0  0
   28.0228  -19.3070   -6.1075 C   0  0  0  0  0  0  0  0  0  0  0  0
   28.6460  -19.0305   -4.9111 C   0  0  0  0  0  0  0  0  0  0  0  0
   29.5437  -19.9216   -4.3393 C   0  0  0  0  0  0  0  0  0  0  0  0
   29.7801  -21.0930   -5.0247 C   0  0  0  0  0  0  0  0  0  0  0  0
   29.1582  -21.3708   -6.2209 C   0  0  0  0  0  0  0  0  0  0  0  0
   28.2627  -20.4832   -6.7937 C   0  0  0  0  0  0  0  0  0  0  0  0
   25.2029  -21.0338   -9.8311 C   0  0  0  0  0  0  0  0  0  0  0  0
   24.6639  -19.8992   -9.7982 O   0  0  0  0  0  0  0  0  0  0  0  0
   24.4063  -22.1255   -9.5205 O   0  0  0  0  0  0  0  0  0  0  0  0
  2  1  1  1
  2  9  1  0
  3  4  1  0
  3  2  1  0
  4  5  2  0
  5  6  1  0
  7  6  1  0
  8  4  1  0
  8  7  2  0
  9 11  1  0
  9 10  2  0
 11 12  1  0
 12 13  1  0
 13 14  2  0
 15 16  1  0
 15 13  1  0
 16 27  1  0
 16 17  1  1
 18 19  2  0
 18 17  1  0
 20 19  1  0
 21 26  2  0
 21 20  1  0
 22 21  1  0
 23 24  1  0
 23 22  2  0
 24 25  2  0
 25 26  1  0
 26 18  1  0
 27 29  1  0
 28 27  2  0
M  END
$$$$
