HGW.pdb
     RDKit          3D

 29 31  0  0  1  0  0  0  0  0999 V2000
   27.0811  -17.9881  -16.4968 N   0  0  0  0  0  0  0  0  0  0  0  0
   25.8721  -17.9424  -15.7052 C   0  0  1  0  0  0  0  0  0  0  0  0
   25.4306  -16.4944  -15.6282 C   0  0  0  0  0  0  0  0  0  0  0  0
   25.4775  -15.9243  -17.0040 C   0  0  0  0  0  0  0  0  0  0  0  0
   24.9572  -16.4803  -18.1440 C   0  0  0  0  0  0  0  0  0  0  0  0
   25.2032  -15.6576  -19.1912 N   0  0  0  0  0  0  0  0  0  0  0  0
   25.8792  -14.5806  -18.7159 C   0  0  0  0  0  0  0  0  0  0  0  0
   26.0405  -14.7509  -17.3912 N   0  0  0  0  0  0  0  0  0  0  0  0
   24.8469  -18.7978  -16.3260 C   0  0  0  0  0  0  0  0  0  0  0  0
   25.1502  -19.5718  -17.2783 O   0  0  0  0  0  0  0  0  0  0  0  0
   23.4757  -18.8158  -15.9110 N   0  0  0  0  0  0  0  0  0  0  0  0
   22.5276  -19.7184  -16.5123 C   0  0  0  0  0  0  0  0  0  0  0  0
   22.0777  -20.7588  -15.5326 C   0  0  0  0  0  0  0  0  0  0  0  0
   20.9917  -21.3217  -15.7240 O   0  0  0  0  0  0  0  0  0  0  0  0
   22.8575  -21.1134  -14.4002 N   0  0  0  0  0  0  0  0  0  0  0  0
   22.3406  -21.8110  -13.2575 C   0  0  1  0  0  0  0  0  0  0  0  0
   23.4147  -22.4427  -12.4202 C   0  0  0  0  0  0  0  0  0  0  0  0
   24.4719  -21.5543  -11.9559 C   0  0  0  0  0  0  0  0  0  0  0  0
   24.4886  -20.8204  -10.7916 C   0  0  0  0  0  0  0  0  0  0  0  0
   25.6193  -20.0991  -10.7042 N   0  0  0  0  0  0  0  0  0  0  0  0
   26.3349  -20.3610  -11.8030 C   0  0  0  0  0  0  0  0  0  0  0  0
   27.5682  -19.8694  -12.1678 C   0  0  0  0  0  0  0  0  0  0  0  0
   28.1803  -20.2555  -13.3523 C   0  0  0  0  0  0  0  0  0  0  0  0
   27.4960  -21.1523  -14.1430 C   0  0  0  0  0  0  0  0  0  0  0  0
   26.2628  -21.6446  -13.7800 C   0  0  0  0  0  0  0  0  0  0  0  0
   25.6498  -21.2604  -12.5991 C   0  0  0  0  0  0  0  0  0  0  0  0
   21.4998  -20.9662  -12.3911 C   0  0  0  0  0  0  0  0  0  0  0  0
   21.6150  -19.7195  -12.4984 O   0  0  0  0  0  0  0  0  0  0  0  0
   20.5870  -21.4429  -11.4625 O   0  0  0  0  0  0  0  0  0  0  0  0
  2  1  1  6
  2  9  1  0
  3  4  1  0
  3  2  1  0
  4  5  2  0
  5  6  1  0
  7  6  1  0
  8  4  1  0
  8  7  2  0
  9 11  1  0
  9 10  2  0
 11 12  1  0
 12 13  1  0
 13 14  2  0
 15 16  1  0
 15 13  1  0
 16 27  1  0
 16 17  1  1
 18 19  2  0
 18 17  1  0
 20 19  1  0
 21 26  2  0
 21 20  1  0
 22 21  1  0
 23 24  1  0
 23 22  2  0
 24 25  2  0
 25 26  1  0
 26 18  1  0
 27 29  1  0
 28 27  2  0
M  END
$$$$
