HGW.pdb
     RDKit          3D

 29 31  0  0  1  0  0  0  0  0999 V2000
   26.1791  -17.1371  -15.4912 N   0  0  0  0  0  0  0  0  0  0  0  0
   26.0639  -18.1449  -16.5214 C   0  0  1  0  0  0  0  0  0  0  0  0
   26.6465  -17.5653  -17.7951 C   0  0  0  0  0  0  0  0  0  0  0  0
   25.6489  -16.6196  -18.3697 C   0  0  0  0  0  0  0  0  0  0  0  0
   24.2992  -16.6002  -18.1300 C   0  0  0  0  0  0  0  0  0  0  0  0
   23.7373  -15.5911  -18.8370 N   0  0  0  0  0  0  0  0  0  0  0  0
   24.7298  -14.9708  -19.5249 C   0  0  0  0  0  0  0  0  0  0  0  0
   25.8830  -15.6002  -19.2357 N   0  0  0  0  0  0  0  0  0  0  0  0
   26.7733  -19.3634  -16.0968 C   0  0  0  0  0  0  0  0  0  0  0  0
   26.7870  -20.3872  -16.8383 O   0  0  0  0  0  0  0  0  0  0  0  0
   27.4766  -19.4757  -14.8537 N   0  0  0  0  0  0  0  0  0  0  0  0
   28.0876  -20.7173  -14.4534 C   0  0  0  0  0  0  0  0  0  0  0  0
   27.3214  -21.3602  -13.3379 C   0  0  0  0  0  0  0  0  0  0  0  0
   27.7212  -22.4443  -12.8932 O   0  0  0  0  0  0  0  0  0  0  0  0
   26.1587  -20.7639  -12.7821 N   0  0  0  0  0  0  0  0  0  0  0  0
   25.3416  -21.3838  -11.7783 C   0  0  1  0  0  0  0  0  0  0  0  0
   26.1301  -21.8663  -10.5955 C   0  0  0  0  0  0  0  0  0  0  0  0
   26.3702  -20.8886   -9.5425 C   0  0  0  0  0  0  0  0  0  0  0  0
   25.7209  -19.6889   -9.3590 C   0  0  0  0  0  0  0  0  0  0  0  0
   26.2208  -19.0393   -8.2938 N   0  0  0  0  0  0  0  0  0  0  0  0
   27.1887  -19.8099   -7.7861 C   0  0  0  0  0  0  0  0  0  0  0  0
   27.9896  -19.5801   -6.6899 C   0  0  0  0  0  0  0  0  0  0  0  0
   28.9508  -20.4983   -6.2902 C   0  0  0  0  0  0  0  0  0  0  0  0
   29.0642  -21.6476   -7.0411 C   0  0  0  0  0  0  0  0  0  0  0  0
   28.2645  -21.8788   -8.1375 C   0  0  0  0  0  0  0  0  0  0  0  0
   27.3053  -20.9640   -8.5387 C   0  0  0  0  0  0  0  0  0  0  0  0
   24.2507  -20.5169  -11.2990 C   0  0  0  0  0  0  0  0  0  0  0  0
   23.3617  -21.0375  -10.5796 O   0  0  0  0  0  0  0  0  0  0  0  0
   24.1289  -19.1649  -11.5818 O   0  0  0  0  0  0  0  0  0  0  0  0
  2  1  1  1
  2  9  1  0
  3  4  1  0
  3  2  1  0
  4  5  2  0
  5  6  1  0
  7  6  1  0
  8  4  1  0
  8  7  2  0
  9 11  1  0
  9 10  2  0
 11 12  1  0
 12 13  1  0
 13 14  2  0
 15 16  1  0
 15 13  1  0
 16 27  1  0
 16 17  1  1
 18 19  2  0
 18 17  1  0
 20 19  1  0
 21 26  2  0
 21 20  1  0
 22 21  1  0
 23 24  1  0
 23 22  2  0
 24 25  2  0
 25 26  1  0
 26 18  1  0
 27 29  1  0
 28 27  2  0
M  END
$$$$
