HGW.pdb
     RDKit          3D

 29 31  0  0  1  0  0  0  0  0999 V2000
   24.3472  -18.6757  -17.8131 N   0  0  0  0  0  0  0  0  0  0  0  0
   24.0892  -20.0843  -18.0119 C   0  0  1  0  0  0  0  0  0  0  0  0
   24.3951  -20.4050  -19.4615 C   0  0  0  0  0  0  0  0  0  0  0  0
   23.4781  -19.5990  -20.3154 C   0  0  0  0  0  0  0  0  0  0  0  0
   23.8227  -18.8318  -21.3981 C   0  0  0  0  0  0  0  0  0  0  0  0
   22.7075  -18.2563  -21.9073 N   0  0  0  0  0  0  0  0  0  0  0  0
   21.6562  -18.6582  -21.1481 C   0  0  0  0  0  0  0  0  0  0  0  0
   22.1324  -19.4706  -20.1873 N   0  0  0  0  0  0  0  0  0  0  0  0
   24.9223  -20.8708  -17.0869 C   0  0  0  0  0  0  0  0  0  0  0  0
   25.9252  -20.3453  -16.5246 O   0  0  0  0  0  0  0  0  0  0  0  0
   24.6671  -22.2436  -16.7663 N   0  0  0  0  0  0  0  0  0  0  0  0
   25.5067  -22.9607  -15.8412 C   0  0  0  0  0  0  0  0  0  0  0  0
   25.0767  -22.7217  -14.4261 C   0  0  0  0  0  0  0  0  0  0  0  0
   25.4494  -23.5156  -13.5522 O   0  0  0  0  0  0  0  0  0  0  0  0
   24.2602  -21.6179  -14.0639 N   0  0  0  0  0  0  0  0  0  0  0  0
   23.6544  -21.4584  -12.7728 C   0  0  1  0  0  0  0  0  0  0  0  0
   24.5391  -20.7422  -11.7939 C   0  0  0  0  0  0  0  0  0  0  0  0
   25.7951  -20.2269  -12.3223 C   0  0  0  0  0  0  0  0  0  0  0  0
   25.9562  -19.3133  -13.3391 C   0  0  0  0  0  0  0  0  0  0  0  0
   27.2611  -19.0886  -13.5698 N   0  0  0  0  0  0  0  0  0  0  0  0
   27.9459  -19.8495  -12.7096 C   0  0  0  0  0  0  0  0  0  0  0  0
   29.3092  -19.9624  -12.5524 C   0  0  0  0  0  0  0  0  0  0  0  0
   29.8607  -20.8023  -11.5948 C   0  0  0  0  0  0  0  0  0  0  0  0
   28.9805  -21.5154  -10.8110 C   0  0  0  0  0  0  0  0  0  0  0  0
   27.6173  -21.4041  -10.9669 C   0  0  0  0  0  0  0  0  0  0  0  0
   27.0647  -20.5673  -11.9220 C   0  0  0  0  0  0  0  0  0  0  0  0
   22.3505  -20.7736  -12.8222 C   0  0  0  0  0  0  0  0  0  0  0  0
   21.6559  -20.7599  -11.7752 O   0  0  0  0  0  0  0  0  0  0  0  0
   21.8287  -20.1403  -13.9400 O   0  0  0  0  0  0  0  0  0  0  0  0
  2  1  1  6
  2  9  1  0
  3  4  1  0
  3  2  1  0
  4  5  2  0
  5  6  1  0
  7  6  1  0
  8  4  1  0
  8  7  2  0
  9 11  1  0
  9 10  2  0
 11 12  1  0
 12 13  1  0
 13 14  2  0
 15 16  1  0
 15 13  1  0
 16 27  1  0
 16 17  1  1
 18 19  2  0
 18 17  1  0
 20 19  1  0
 21 26  2  0
 21 20  1  0
 22 21  1  0
 23 24  1  0
 23 22  2  0
 24 25  2  0
 25 26  1  0
 26 18  1  0
 27 29  1  0
 28 27  2  0
M  END
$$$$
