HGW.pdb
     RDKit          3D

 29 31  0  0  1  0  0  0  0  0999 V2000
   25.5513  -17.0971  -18.0719 N   0  0  0  0  0  0  0  0  0  0  0  0
   25.4554  -17.7600  -16.7906 C   0  0  1  0  0  0  0  0  0  0  0  0
   26.3555  -17.0173  -15.8232 C   0  0  0  0  0  0  0  0  0  0  0  0
   27.7496  -17.0872  -16.3443 C   0  0  0  0  0  0  0  0  0  0  0  0
   28.6022  -18.1585  -16.2744 C   0  0  0  0  0  0  0  0  0  0  0  0
   29.7775  -17.8294  -16.8614 N   0  0  0  0  0  0  0  0  0  0  0  0
   29.6705  -16.5503  -17.3033 C   0  0  0  0  0  0  0  0  0  0  0  0
   28.4397  -16.1095  -16.9859 N   0  0  0  0  0  0  0  0  0  0  0  0
   24.0522  -17.7635  -16.3441 C   0  0  0  0  0  0  0  0  0  0  0  0
   23.4463  -16.6751  -16.1291 O   0  0  0  0  0  0  0  0  0  0  0  0
   23.2950  -18.9603  -16.1273 N   0  0  0  0  0  0  0  0  0  0  0  0
   21.8815  -18.9079  -15.8545 C   0  0  0  0  0  0  0  0  0  0  0  0
   21.3344  -20.2753  -15.5797 C   0  0  0  0  0  0  0  0  0  0  0  0
   21.5189  -21.1663  -16.4193 O   0  0  0  0  0  0  0  0  0  0  0  0
   20.6161  -20.5737  -14.3917 N   0  0  0  0  0  0  0  0  0  0  0  0
   20.6120  -21.8620  -13.7596 C   0  0  1  0  0  0  0  0  0  0  0  0
   21.9679  -22.2790  -13.2683 C   0  0  0  0  0  0  0  0  0  0  0  0
   22.5287  -21.4860  -12.1824 C   0  0  0  0  0  0  0  0  0  0  0  0
   21.8375  -20.7289  -11.2639 C   0  0  0  0  0  0  0  0  0  0  0  0
   22.6871  -20.1185  -10.4201 N   0  0  0  0  0  0  0  0  0  0  0  0
   23.9231  -20.4752  -10.7852 C   0  0  0  0  0  0  0  0  0  0  0  0
   25.1274  -20.1143  -10.2237 C   0  0  0  0  0  0  0  0  0  0  0  0
   26.3316  -20.5867  -10.7271 C   0  0  0  0  0  0  0  0  0  0  0  0
   26.2638  -21.4321  -11.8126 C   0  0  0  0  0  0  0  0  0  0  0  0
   25.0607  -21.7937  -12.3754 C   0  0  0  0  0  0  0  0  0  0  0  0
   23.8580  -21.3232  -11.8755 C   0  0  0  0  0  0  0  0  0  0  0  0
   19.6532  -21.9604  -12.6450 C   0  0  0  0  0  0  0  0  0  0  0  0
   19.1296  -20.8975  -12.2269 O   0  0  0  0  0  0  0  0  0  0  0  0
   19.2825  -23.1409  -12.0190 O   0  0  0  0  0  0  0  0  0  0  0  0
  2  1  1  6
  2  9  1  0
  3  4  1  0
  3  2  1  0
  4  5  2  0
  5  6  1  0
  7  6  1  0
  8  4  1  0
  8  7  2  0
  9 11  1  0
  9 10  2  0
 11 12  1  0
 12 13  1  0
 13 14  2  0
 15 16  1  0
 15 13  1  0
 16 27  1  0
 16 17  1  1
 18 19  2  0
 18 17  1  0
 20 19  1  0
 21 26  2  0
 21 20  1  0
 22 21  1  0
 23 24  1  0
 23 22  2  0
 24 25  2  0
 25 26  1  0
 26 18  1  0
 27 29  1  0
 28 27  2  0
M  END
$$$$
