HGW.pdb
     RDKit          3D

 29 31  0  0  1  0  0  0  0  0999 V2000
   23.6670  -20.1981  -15.8601 N   0  0  0  0  0  0  0  0  0  0  0  0
   25.0506  -19.7870  -15.9434 C   0  0  1  0  0  0  0  0  0  0  0  0
   25.1166  -18.5889  -16.8696 C   0  0  0  0  0  0  0  0  0  0  0  0
   24.6100  -19.0107  -18.2057 C   0  0  0  0  0  0  0  0  0  0  0  0
   25.2461  -19.8223  -19.1091 C   0  0  0  0  0  0  0  0  0  0  0  0
   24.4615  -19.9697  -20.2029 N   0  0  0  0  0  0  0  0  0  0  0  0
   23.3283  -19.2520  -19.9937 C   0  0  0  0  0  0  0  0  0  0  0  0
   23.4273  -18.6752  -18.7824 N   0  0  0  0  0  0  0  0  0  0  0  0
   25.5494  -19.4681  -14.5951 C   0  0  0  0  0  0  0  0  0  0  0  0
   24.8597  -18.7580  -13.8090 O   0  0  0  0  0  0  0  0  0  0  0  0
   26.8109  -19.9233  -14.0912 N   0  0  0  0  0  0  0  0  0  0  0  0
   27.2122  -19.6526  -12.7344 C   0  0  0  0  0  0  0  0  0  0  0  0
   26.5176  -20.5687  -11.7737 C   0  0  0  0  0  0  0  0  0  0  0  0
   25.6896  -21.3747  -12.2181 O   0  0  0  0  0  0  0  0  0  0  0  0
   26.7820  -20.5371  -10.3789 N   0  0  0  0  0  0  0  0  0  0  0  0
   26.1631  -21.4134   -9.4257 C   0  0  1  0  0  0  0  0  0  0  0  0
   27.0257  -21.6786   -8.2260 C   0  0  0  0  0  0  0  0  0  0  0  0
   27.3964  -20.5144   -7.4324 C   0  0  0  0  0  0  0  0  0  0  0  0
   26.9976  -19.2122   -7.6314 C   0  0  0  0  0  0  0  0  0  0  0  0
   27.5539  -18.4025   -6.7141 N   0  0  0  0  0  0  0  0  0  0  0  0
   28.3095  -19.1710   -5.9225 C   0  0  0  0  0  0  0  0  0  0  0  0
   29.0715  -18.8048   -4.8357 C   0  0  0  0  0  0  0  0  0  0  0  0
   29.7969  -19.7408   -4.1115 C   0  0  0  0  0  0  0  0  0  0  0  0
   29.7175  -21.0504   -4.5314 C   0  0  0  0  0  0  0  0  0  0  0  0
   28.9564  -21.4182   -5.6179 C   0  0  0  0  0  0  0  0  0  0  0  0
   28.2324  -20.4862   -6.3424 C   0  0  0  0  0  0  0  0  0  0  0  0
   24.8463  -20.9373   -8.9667 C   0  0  0  0  0  0  0  0  0  0  0  0
   24.1799  -21.6918   -8.2147 O   0  0  0  0  0  0  0  0  0  0  0  0
   24.2833  -19.7153   -9.3021 O   0  0  0  0  0  0  0  0  0  0  0  0
  2  1  1  1
  2  9  1  0
  3  4  1  0
  3  2  1  0
  4  5  2  0
  5  6  1  0
  7  6  1  0
  8  4  1  0
  8  7  2  0
  9 11  1  0
  9 10  2  0
 11 12  1  0
 12 13  1  0
 13 14  2  0
 15 16  1  0
 15 13  1  0
 16 27  1  0
 16 17  1  1
 18 19  2  0
 18 17  1  0
 20 19  1  0
 21 26  2  0
 21 20  1  0
 22 21  1  0
 23 24  1  0
 23 22  2  0
 24 25  2  0
 25 26  1  0
 26 18  1  0
 27 29  1  0
 28 27  2  0
M  END
$$$$
