FYQ.pdb
     RDKit          3D

 33 34  0  0  1  0  0  0  0  0999 V2000
   24.2927  -12.1912  -19.8167 N   0  0  0  0  0  0  0  0  0  0  0  0
   23.9216  -10.8191  -20.0245 C   0  0  1  0  0  0  0  0  0  0  0  0
   22.6962  -10.6357  -20.8451 C   0  0  0  0  0  0  0  0  0  0  0  0
   22.8002  -11.1233  -22.2296 C   0  0  0  0  0  0  0  0  0  0  0  0
   22.0164  -12.2127  -22.5697 C   0  0  0  0  0  0  0  0  0  0  0  0
   22.0437  -12.7439  -23.8420 C   0  0  0  0  0  0  0  0  0  0  0  0
   22.8644  -12.1964  -24.8249 C   0  0  0  0  0  0  0  0  0  0  0  0
   23.6253  -11.1136  -24.4378 C   0  0  0  0  0  0  0  0  0  0  0  0
   23.6154  -10.5693  -23.1827 C   0  0  0  0  0  0  0  0  0  0  0  0
   23.7622  -10.0799  -18.7410 C   0  0  0  0  0  0  0  0  0  0  0  0
   23.4523  -10.6693  -17.6746 O   0  0  0  0  0  0  0  0  0  0  0  0
   28.7409  -11.9067  -15.8948 O   0  0  0  0  0  0  0  0  0  0  0  0
   27.8742  -10.8364  -16.1411 C   0  0  0  0  0  0  0  0  0  0  0  0
   27.9216  -10.1495  -17.3358 C   0  0  0  0  0  0  0  0  0  0  0  0
   27.0573   -9.0816  -17.5826 C   0  0  0  0  0  0  0  0  0  0  0  0
   26.1309   -8.6747  -16.6514 C   0  0  0  0  0  0  0  0  0  0  0  0
   25.2159   -7.5415  -16.9213 C   0  0  0  0  0  0  0  0  0  0  0  0
   23.8594   -7.9456  -17.3901 C   0  0  2  0  0  0  0  0  0  0  0  0
   23.9528   -8.6716  -18.6603 N   0  0  0  0  0  0  0  0  0  0  0  0
   22.8821   -6.8612  -17.5290 C   0  0  0  0  0  0  0  0  0  0  0  0
   23.0375   -5.9969  -18.4299 O   0  0  0  0  0  0  0  0  0  0  0  0
   26.0954   -9.3726  -15.4590 C   0  0  0  0  0  0  0  0  0  0  0  0
   26.9456  -10.4291  -15.2066 C   0  0  0  0  0  0  0  0  0  0  0  0
   16.9421   -7.2021  -18.4844 N   0  0  0  0  0  0  0  0  0  0  0  0
   17.4781   -7.6555  -17.2212 C   0  0  0  0  0  0  0  0  0  0  0  0
   16.8114   -8.5323  -16.6518 O   0  0  0  0  0  0  0  0  0  0  0  0
   18.7103   -7.1051  -16.6782 C   0  0  0  0  0  0  0  0  0  0  0  0
   19.5244   -6.1903  -17.4882 C   0  0  0  0  0  0  0  0  0  0  0  0
   20.8029   -5.6826  -16.8909 C   0  0  2  0  0  0  0  0  0  0  0  0
   21.7530   -6.7398  -16.6854 N   0  0  0  0  0  0  0  0  0  0  0  0
   20.6185   -4.7516  -15.7840 C   0  0  0  0  0  0  0  0  0  0  0  0
   19.8985   -3.7406  -15.9002 O   0  0  0  0  0  0  0  0  0  0  0  0
   21.2451   -4.9862  -14.5730 O   0  0  0  0  0  0  0  0  0  0  0  0
  2  1  1  1
  3  2  1  0
  4  5  2  0
  4  3  1  0
  6  5  1  0
  7  6  2  0
  8  7  1  0
  8  9  2  0
  9  4  1  0
 10  2  1  0
 11 10  2  0
 13 12  1  0
 13 14  2  0
 15 14  1  0
 16 15  2  0
 17 16  1  0
 18 17  1  6
 18 19  1  0
 19 10  1  0
 20 21  2  0
 20 18  1  0
 22 23  2  0
 22 16  1  0
 23 13  1  0
 25 24  1  0
 26 25  2  0
 27 25  1  0
 28 27  1  0
 29 28  1  1
 29 30  1  0
 30 20  1  0
 31 33  1  0
 31 29  1  0
 32 31  2  0
M  END
$$$$
