FYQ.pdb
     RDKit          3D

 33 34  0  0  1  0  0  0  0  0999 V2000
   34.6714  -33.1597  -16.4685 N   0  0  0  0  0  0  0  0  0  0  0  0
   33.8482  -33.2326  -17.6435 C   0  0  1  0  0  0  0  0  0  0  0  0
   34.3379  -34.1849  -18.6739 C   0  0  0  0  0  0  0  0  0  0  0  0
   35.6522  -33.8540  -19.2472 C   0  0  0  0  0  0  0  0  0  0  0  0
   35.7224  -32.7190  -20.0369 C   0  0  0  0  0  0  0  0  0  0  0  0
   36.9087  -32.3256  -20.6196 C   0  0  0  0  0  0  0  0  0  0  0  0
   38.0747  -33.0627  -20.4289 C   0  0  0  0  0  0  0  0  0  0  0  0
   37.9538  -34.1838  -19.6352 C   0  0  0  0  0  0  0  0  0  0  0  0
   36.7889  -34.5940  -19.0468 C   0  0  0  0  0  0  0  0  0  0  0  0
   32.4311  -33.5560  -17.3171 C   0  0  0  0  0  0  0  0  0  0  0  0
   31.9976  -34.7354  -17.3578 O   0  0  0  0  0  0  0  0  0  0  0  0
   24.3572  -33.2221  -13.6833 O   0  0  0  0  0  0  0  0  0  0  0  0
   25.6579  -32.9388  -14.1141 C   0  0  0  0  0  0  0  0  0  0  0  0
   25.9100  -31.8640  -14.9403 C   0  0  0  0  0  0  0  0  0  0  0  0
   27.2072  -31.5804  -15.3706 C   0  0  0  0  0  0  0  0  0  0  0  0
   28.2776  -32.3555  -14.9908 C   0  0  0  0  0  0  0  0  0  0  0  0
   29.6518  -32.0471  -15.4502 C   0  0  0  0  0  0  0  0  0  0  0  0
   30.1051  -32.8561  -16.6178 C   0  0  2  0  0  0  0  0  0  0  0  0
   31.5003  -32.5460  -16.9436 N   0  0  0  0  0  0  0  0  0  0  0  0
   29.2917  -32.7367  -17.8321 C   0  0  0  0  0  0  0  0  0  0  0  0
   29.4593  -31.7525  -18.5976 O   0  0  0  0  0  0  0  0  0  0  0  0
   28.0093  -33.4290  -14.1628 C   0  0  0  0  0  0  0  0  0  0  0  0
   26.7306  -33.7167  -13.7327 C   0  0  0  0  0  0  0  0  0  0  0  0
   26.3877  -29.6821  -19.7174 N   0  0  0  0  0  0  0  0  0  0  0  0
   26.7430  -30.6476  -20.7323 C   0  0  0  0  0  0  0  0  0  0  0  0
   25.9271  -30.7600  -21.6592 O   0  0  0  0  0  0  0  0  0  0  0  0
   27.9725  -31.4203  -20.6476 C   0  0  0  0  0  0  0  0  0  0  0  0
   27.9130  -32.8732  -20.4450 C   0  0  0  0  0  0  0  0  0  0  0  0
   27.3086  -33.3733  -19.1669 C   0  0  2  0  0  0  0  0  0  0  0  0
   28.3125  -33.6928  -18.1908 N   0  0  0  0  0  0  0  0  0  0  0  0
   26.2465  -34.3552  -19.3506 C   0  0  0  0  0  0  0  0  0  0  0  0
   25.3057  -34.1521  -20.1429 O   0  0  0  0  0  0  0  0  0  0  0  0
   26.2743  -35.5430  -18.6417 O   0  0  0  0  0  0  0  0  0  0  0  0
  2  1  1  1
  3  2  1  0
  4  5  2  0
  4  3  1  0
  6  5  1  0
  7  6  2  0
  8  7  1  0
  8  9  2  0
  9  4  1  0
 10  2  1  0
 11 10  2  0
 13 12  1  0
 13 14  2  0
 15 14  1  0
 16 15  2  0
 17 16  1  0
 18 17  1  1
 18 19  1  0
 19 10  1  0
 20 21  2  0
 20 18  1  0
 22 23  2  0
 22 16  1  0
 23 13  1  0
 25 24  1  0
 26 25  2  0
 27 25  1  0
 28 27  1  0
 29 28  1  6
 29 30  1  0
 30 20  1  0
 31 33  1  0
 31 29  1  0
 32 31  2  0
M  END
$$$$
