FYQ.pdb
     RDKit          3D

 33 34  0  0  1  0  0  0  0  0999 V2000
   29.0507  -23.0599  -17.7304 N   0  0  0  0  0  0  0  0  0  0  0  0
   28.4183  -21.8212  -17.3705 C   0  0  1  0  0  0  0  0  0  0  0  0
   27.4994  -21.2815  -18.4063 C   0  0  0  0  0  0  0  0  0  0  0  0
   28.1663  -20.6665  -19.5649 C   0  0  0  0  0  0  0  0  0  0  0  0
   28.3005  -21.4504  -20.6983 C   0  0  0  0  0  0  0  0  0  0  0  0
   28.9116  -20.9649  -21.8352 C   0  0  0  0  0  0  0  0  0  0  0  0
   29.4131  -19.6663  -21.8750 C   0  0  0  0  0  0  0  0  0  0  0  0
   29.2555  -18.9258  -20.7226 C   0  0  0  0  0  0  0  0  0  0  0  0
   28.6534  -19.3850  -19.5833 C   0  0  0  0  0  0  0  0  0  0  0  0
   27.6878  -21.9190  -16.0760 C   0  0  0  0  0  0  0  0  0  0  0  0
   27.0335  -22.9462  -15.7639 O   0  0  0  0  0  0  0  0  0  0  0  0
   24.8551  -20.1487   -7.8115 O   0  0  0  0  0  0  0  0  0  0  0  0
   25.5321  -20.1541   -9.0359 C   0  0  0  0  0  0  0  0  0  0  0  0
   25.3000  -19.1724   -9.9759 C   0  0  0  0  0  0  0  0  0  0  0  0
   25.9749  -19.1768  -11.1977 C   0  0  0  0  0  0  0  0  0  0  0  0
   26.8915  -20.1530  -11.5106 C   0  0  0  0  0  0  0  0  0  0  0  0
   27.6052  -20.1501  -12.8087 C   0  0  0  0  0  0  0  0  0  0  0  0
   26.9162  -20.9109  -13.8902 C   0  0  2  0  0  0  0  0  0  0  0  0
   27.6953  -20.8548  -15.1307 N   0  0  0  0  0  0  0  0  0  0  0  0
   25.5347  -20.5089  -14.1736 C   0  0  0  0  0  0  0  0  0  0  0  0
   25.2473  -20.0244  -15.2985 O   0  0  0  0  0  0  0  0  0  0  0  0
   27.1134  -21.1301  -10.5587 C   0  0  0  0  0  0  0  0  0  0  0  0
   26.4510  -21.1336   -9.3487 C   0  0  0  0  0  0  0  0  0  0  0  0
   23.7382  -25.2516  -15.4972 N   0  0  0  0  0  0  0  0  0  0  0  0
   22.4339  -24.6772  -15.2582 C   0  0  0  0  0  0  0  0  0  0  0  0
   21.4765  -25.3855  -15.6033 O   0  0  0  0  0  0  0  0  0  0  0  0
   22.2828  -23.3609  -14.6578 C   0  0  0  0  0  0  0  0  0  0  0  0
   23.4690  -22.6118  -14.2246 C   0  0  0  0  0  0  0  0  0  0  0  0
   23.2518  -21.2674  -13.5967 C   0  0  2  0  0  0  0  0  0  0  0  0
   24.4919  -20.6442  -13.2271 N   0  0  0  0  0  0  0  0  0  0  0  0
   22.1880  -21.2366  -12.6001 C   0  0  0  0  0  0  0  0  0  0  0  0
   22.4415  -21.1310  -11.3840 O   0  0  0  0  0  0  0  0  0  0  0  0
   20.8658  -21.3198  -12.9989 O   0  0  0  0  0  0  0  0  0  0  0  0
  2  1  1  6
  3  2  1  0
  4  5  2  0
  4  3  1  0
  6  5  1  0
  7  6  2  0
  8  7  1  0
  8  9  2  0
  9  4  1  0
 10  2  1  0
 11 10  2  0
 13 12  1  0
 13 14  2  0
 15 14  1  0
 16 15  2  0
 17 16  1  0
 18 17  1  1
 18 19  1  0
 19 10  1  0
 20 21  2  0
 20 18  1  0
 22 23  2  0
 22 16  1  0
 23 13  1  0
 25 24  1  0
 26 25  2  0
 27 25  1  0
 28 27  1  0
 29 28  1  1
 29 30  1  0
 30 20  1  0
 31 33  1  0
 31 29  1  0
 32 31  2  0
M  END
$$$$
