FYQ.pdb
     RDKit          3D

 33 34  0  0  1  0  0  0  0  0999 V2000
   27.9221  -20.8908  -18.5264 N   0  0  0  0  0  0  0  0  0  0  0  0
   27.6870  -19.8809  -17.5322 C   0  0  1  0  0  0  0  0  0  0  0  0
   26.8826  -18.7272  -18.0123 C   0  0  0  0  0  0  0  0  0  0  0  0
   27.5274  -17.9156  -19.0569 C   0  0  0  0  0  0  0  0  0  0  0  0
   26.9772  -17.9777  -20.3259 C   0  0  0  0  0  0  0  0  0  0  0  0
   27.5099  -17.2546  -21.3723 C   0  0  0  0  0  0  0  0  0  0  0  0
   28.6215  -16.4377  -21.1806 C   0  0  0  0  0  0  0  0  0  0  0  0
   29.1327  -16.4095  -19.9003 C   0  0  0  0  0  0  0  0  0  0  0  0
   28.6221  -17.1174  -18.8468 C   0  0  0  0  0  0  0  0  0  0  0  0
   27.0531  -20.4381  -16.3047 C   0  0  0  0  0  0  0  0  0  0  0  0
   26.1359  -21.2956  -16.3673 O   0  0  0  0  0  0  0  0  0  0  0  0
   24.7293  -21.0681   -7.6867 O   0  0  0  0  0  0  0  0  0  0  0  0
   25.4058  -20.8128   -8.8845 C   0  0  0  0  0  0  0  0  0  0  0  0
   25.8275  -21.8477   -9.6921 C   0  0  0  0  0  0  0  0  0  0  0  0
   26.5025  -21.5941  -10.8873 C   0  0  0  0  0  0  0  0  0  0  0  0
   26.7720  -20.3117  -11.3041 C   0  0  0  0  0  0  0  0  0  0  0  0
   27.4872  -20.0505  -12.5747 C   0  0  0  0  0  0  0  0  0  0  0  0
   26.7275  -20.4371  -13.7980 C   0  0  2  0  0  0  0  0  0  0  0  0
   27.4552  -20.0267  -15.0026 N   0  0  0  0  0  0  0  0  0  0  0  0
   25.3500  -19.9405  -13.8781 C   0  0  0  0  0  0  0  0  0  0  0  0
   25.0872  -18.9544  -14.6138 O   0  0  0  0  0  0  0  0  0  0  0  0
   26.3433  -19.2850  -10.4843 C   0  0  0  0  0  0  0  0  0  0  0  0
   25.6756  -19.5264   -9.3015 C   0  0  0  0  0  0  0  0  0  0  0  0
   21.3036  -22.0066  -16.9101 N   0  0  0  0  0  0  0  0  0  0  0  0
   20.6581  -20.8167  -16.4041 C   0  0  0  0  0  0  0  0  0  0  0  0
   19.5364  -20.5850  -16.8792 O   0  0  0  0  0  0  0  0  0  0  0  0
   21.3002  -19.9684  -15.4122 C   0  0  0  0  0  0  0  0  0  0  0  0
   22.6566  -20.2824  -14.9462 C   0  0  0  0  0  0  0  0  0  0  0  0
   22.9232  -20.1975  -13.4728 C   0  0  2  0  0  0  0  0  0  0  0  0
   24.2845  -20.5286  -13.1567 N   0  0  0  0  0  0  0  0  0  0  0  0
   21.8958  -20.8137  -12.6418 C   0  0  0  0  0  0  0  0  0  0  0  0
   20.9858  -20.1353  -12.1261 O   0  0  0  0  0  0  0  0  0  0  0  0
   21.9162  -22.1788  -12.4175 O   0  0  0  0  0  0  0  0  0  0  0  0
  2  1  1  6
  3  2  1  0
  4  5  2  0
  4  3  1  0
  6  5  1  0
  7  6  2  0
  8  7  1  0
  8  9  2  0
  9  4  1  0
 10  2  1  0
 11 10  2  0
 13 12  1  0
 13 14  2  0
 15 14  1  0
 16 15  2  0
 17 16  1  0
 18 17  1  1
 18 19  1  0
 19 10  1  0
 20 21  2  0
 20 18  1  0
 22 23  2  0
 22 16  1  0
 23 13  1  0
 25 24  1  0
 26 25  2  0
 27 25  1  0
 28 27  1  0
 29 28  1  6
 29 30  1  0
 30 20  1  0
 31 33  1  0
 31 29  1  0
 32 31  2  0
M  END
$$$$
