FYQ.pdb
     RDKit          3D

 33 34  0  0  1  0  0  0  0  0999 V2000
   26.3246  -15.8598  -18.6438 N   0  0  0  0  0  0  0  0  0  0  0  0
   26.3463  -16.1655  -17.2403 C   0  0  1  0  0  0  0  0  0  0  0  0
   25.7386  -15.1188  -16.3781 C   0  0  0  0  0  0  0  0  0  0  0  0
   26.3996  -13.8055  -16.4403 C   0  0  0  0  0  0  0  0  0  0  0  0
   27.6186  -13.6876  -15.7944 C   0  0  0  0  0  0  0  0  0  0  0  0
   28.3157  -12.4978  -15.7947 C   0  0  0  0  0  0  0  0  0  0  0  0
   27.8104  -11.3764  -16.4479 C   0  0  0  0  0  0  0  0  0  0  0  0
   26.5943  -11.5439  -17.0758 C   0  0  0  0  0  0  0  0  0  0  0  0
   25.8844  -12.7133  -17.0893 C   0  0  0  0  0  0  0  0  0  0  0  0
   25.7034  -17.4755  -16.9410 C   0  0  0  0  0  0  0  0  0  0  0  0
   24.6576  -17.8471  -17.5315 O   0  0  0  0  0  0  0  0  0  0  0  0
   24.5434  -25.7788  -13.8882 O   0  0  0  0  0  0  0  0  0  0  0  0
   25.0540  -24.5133  -14.1973 C   0  0  0  0  0  0  0  0  0  0  0  0
   25.0390  -23.4983  -13.2642 C   0  0  0  0  0  0  0  0  0  0  0  0
   25.5481  -22.2355  -13.5715 C   0  0  0  0  0  0  0  0  0  0  0  0
   26.0812  -21.9551  -14.8078 C   0  0  0  0  0  0  0  0  0  0  0  0
   26.6213  -20.6130  -15.1259 C   0  0  0  0  0  0  0  0  0  0  0  0
   25.6133  -19.6582  -15.6693 C   0  0  2  0  0  0  0  0  0  0  0  0
   26.2418  -18.3690  -15.9725 N   0  0  0  0  0  0  0  0  0  0  0  0
   24.4325  -19.4298  -14.8303 C   0  0  0  0  0  0  0  0  0  0  0  0
   24.4871  -18.5877  -13.8972 O   0  0  0  0  0  0  0  0  0  0  0  0
   26.0893  -22.9823  -15.7323 C   0  0  0  0  0  0  0  0  0  0  0  0
   25.5883  -24.2333  -15.4373 C   0  0  0  0  0  0  0  0  0  0  0  0
   18.7316  -18.5623  -15.6353 N   0  0  0  0  0  0  0  0  0  0  0  0
   18.9048  -18.2480  -14.2355 C   0  0  0  0  0  0  0  0  0  0  0  0
   17.8696  -17.9150  -13.6396 O   0  0  0  0  0  0  0  0  0  0  0  0
   20.2096  -18.3220  -13.5968 C   0  0  0  0  0  0  0  0  0  0  0  0
   21.4020  -18.6257  -14.3978 C   0  0  0  0  0  0  0  0  0  0  0  0
   22.1119  -19.9185  -14.1263 C   0  0  2  0  0  0  0  0  0  0  0  0
   23.2138  -20.1215  -15.0248 N   0  0  0  0  0  0  0  0  0  0  0  0
   21.2247  -21.0571  -13.9199 C   0  0  0  0  0  0  0  0  0  0  0  0
   21.1360  -21.9712  -14.7630 O   0  0  0  0  0  0  0  0  0  0  0  0
   20.4646  -21.1399  -12.7668 O   0  0  0  0  0  0  0  0  0  0  0  0
  2  1  1  6
  3  2  1  0
  4  5  2  0
  4  3  1  0
  6  5  1  0
  7  6  2  0
  8  7  1  0
  8  9  2  0
  9  4  1  0
 10  2  1  0
 11 10  2  0
 13 12  1  0
 13 14  2  0
 15 14  1  0
 16 15  2  0
 17 16  1  0
 18 17  1  1
 18 19  1  0
 19 10  1  0
 20 21  2  0
 20 18  1  0
 22 23  2  0
 22 16  1  0
 23 13  1  0
 25 24  1  0
 26 25  2  0
 27 25  1  0
 28 27  1  0
 29 28  1  6
 29 30  1  0
 30 20  1  0
 31 33  1  0
 31 29  1  0
 32 31  2  0
M  END
$$$$
