FYQ.pdb
     RDKit          3D

 33 34  0  0  1  0  0  0  0  0999 V2000
   24.3607  -23.3823  -18.9630 N   0  0  0  0  0  0  0  0  0  0  0  0
   23.5689  -22.3190  -18.4097 C   0  0  1  0  0  0  0  0  0  0  0  0
   22.2486  -22.1355  -19.0667 C   0  0  0  0  0  0  0  0  0  0  0  0
   22.3118  -21.7170  -20.4761 C   0  0  0  0  0  0  0  0  0  0  0  0
   22.5165  -20.3696  -20.7200 C   0  0  0  0  0  0  0  0  0  0  0  0
   22.5900  -19.8790  -22.0066 C   0  0  0  0  0  0  0  0  0  0  0  0
   22.4598  -20.7294  -23.1018 C   0  0  0  0  0  0  0  0  0  0  0  0
   22.2575  -22.0613  -22.8075 C   0  0  0  0  0  0  0  0  0  0  0  0
   22.1810  -22.5714  -21.5404 C   0  0  0  0  0  0  0  0  0  0  0  0
   23.3641  -22.4762  -16.9426 C   0  0  0  0  0  0  0  0  0  0  0  0
   23.4578  -23.5966  -16.3800 O   0  0  0  0  0  0  0  0  0  0  0  0
   23.5506  -20.7245   -8.2677 O   0  0  0  0  0  0  0  0  0  0  0  0
   23.5830  -20.6507   -9.6646 C   0  0  0  0  0  0  0  0  0  0  0  0
   22.6324  -19.9302  -10.3562 C   0  0  0  0  0  0  0  0  0  0  0  0
   22.6639  -19.8559  -11.7497 C   0  0  0  0  0  0  0  0  0  0  0  0
   23.6367  -20.4936  -12.4832 C   0  0  0  0  0  0  0  0  0  0  0  0
   23.6646  -20.4087  -13.9618 C   0  0  0  0  0  0  0  0  0  0  0  0
   22.9202  -21.4996  -14.6538 C   0  0  2  0  0  0  0  0  0  0  0  0
   23.0526  -21.3663  -16.1077 N   0  0  0  0  0  0  0  0  0  0  0  0
   21.4995  -21.6206  -14.3113 C   0  0  0  0  0  0  0  0  0  0  0  0
   20.6642  -20.8446  -14.8432 O   0  0  0  0  0  0  0  0  0  0  0  0
   24.5824  -21.2118  -11.7761 C   0  0  0  0  0  0  0  0  0  0  0  0
   24.5590  -21.2906  -10.3991 C   0  0  0  0  0  0  0  0  0  0  0  0
   18.6095  -25.7434  -10.0592 N   0  0  0  0  0  0  0  0  0  0  0  0
   17.5845  -25.0243  -10.7806 C   0  0  0  0  0  0  0  0  0  0  0  0
   16.4204  -25.3003  -10.4545 O   0  0  0  0  0  0  0  0  0  0  0  0
   17.9203  -24.0546  -11.8116 C   0  0  0  0  0  0  0  0  0  0  0  0
   19.3221  -23.6814  -12.0387 C   0  0  0  0  0  0  0  0  0  0  0  0
   19.6096  -22.6807  -13.1180 C   0  0  2  0  0  0  0  0  0  0  0  0
   21.0152  -22.5859  -13.3974 N   0  0  0  0  0  0  0  0  0  0  0  0
   18.8903  -21.4207  -12.9736 C   0  0  0  0  0  0  0  0  0  0  0  0
   17.7845  -21.2389  -13.5199 O   0  0  0  0  0  0  0  0  0  0  0  0
   19.4319  -20.3999  -12.2128 O   0  0  0  0  0  0  0  0  0  0  0  0
  2  1  1  6
  3  2  1  0
  4  5  2  0
  4  3  1  0
  6  5  1  0
  7  6  2  0
  8  7  1  0
  8  9  2  0
  9  4  1  0
 10  2  1  0
 11 10  2  0
 13 12  1  0
 13 14  2  0
 15 14  1  0
 16 15  2  0
 17 16  1  0
 18 17  1  1
 18 19  1  0
 19 10  1  0
 20 21  2  0
 20 18  1  0
 22 23  2  0
 22 16  1  0
 23 13  1  0
 25 24  1  0
 26 25  2  0
 27 25  1  0
 28 27  1  0
 29 28  1  1
 29 30  1  0
 30 20  1  0
 31 33  1  0
 31 29  1  0
 32 31  2  0
M  END
$$$$
