FYQ.pdb
     RDKit          3D

 33 34  0  0  1  0  0  0  0  0999 V2000
   24.1316  -32.4465   -6.9373 N   0  0  0  0  0  0  0  0  0  0  0  0
   23.8795  -32.2318   -8.3352 C   0  0  1  0  0  0  0  0  0  0  0  0
   23.7038  -33.4798   -9.1225 C   0  0  0  0  0  0  0  0  0  0  0  0
   24.8881  -34.3518   -9.1722 C   0  0  0  0  0  0  0  0  0  0  0  0
   25.9142  -33.9656  -10.0178 C   0  0  0  0  0  0  0  0  0  0  0  0
   27.0650  -34.7164  -10.1349 C   0  0  0  0  0  0  0  0  0  0  0  0
   27.2277  -35.8896   -9.4023 C   0  0  0  0  0  0  0  0  0  0  0  0
   26.1789  -36.2317   -8.5750 C   0  0  0  0  0  0  0  0  0  0  0  0
   25.0282  -35.5037   -8.4420 C   0  0  0  0  0  0  0  0  0  0  0  0
   22.7060  -31.3433   -8.5641 C   0  0  0  0  0  0  0  0  0  0  0  0
   21.7301  -31.3224   -7.7718 O   0  0  0  0  0  0  0  0  0  0  0  0
   17.6393  -24.8005  -11.9231 O   0  0  0  0  0  0  0  0  0  0  0  0
   18.6809  -25.6895  -11.6366 C   0  0  0  0  0  0  0  0  0  0  0  0
   18.8763  -26.8192  -12.4027 C   0  0  0  0  0  0  0  0  0  0  0  0
   19.9152  -27.7068  -12.1178 C   0  0  0  0  0  0  0  0  0  0  0  0
   20.7790  -27.4919  -11.0696 C   0  0  0  0  0  0  0  0  0  0  0  0
   21.8804  -28.4376  -10.7746 C   0  0  0  0  0  0  0  0  0  0  0  0
   21.4852  -29.5930   -9.9190 C   0  0  2  0  0  0  0  0  0  0  0  0
   22.6330  -30.4758   -9.6903 N   0  0  0  0  0  0  0  0  0  0  0  0
   20.3562  -30.3919  -10.4062 C   0  0  0  0  0  0  0  0  0  0  0  0
   20.5285  -31.6073  -10.6816 O   0  0  0  0  0  0  0  0  0  0  0  0
   20.5706  -26.3557  -10.3109 C   0  0  0  0  0  0  0  0  0  0  0  0
   19.5466  -25.4731  -10.5852 C   0  0  0  0  0  0  0  0  0  0  0  0
   15.6036  -32.0648   -7.5096 N   0  0  0  0  0  0  0  0  0  0  0  0
   16.2616  -33.0986   -8.2754 C   0  0  0  0  0  0  0  0  0  0  0  0
   15.7512  -34.2251   -8.1848 O   0  0  0  0  0  0  0  0  0  0  0  0
   17.4371  -32.8130   -9.0832 C   0  0  0  0  0  0  0  0  0  0  0  0
   18.0103  -31.4613   -9.0917 C   0  0  0  0  0  0  0  0  0  0  0  0
   17.8981  -30.6659  -10.3580 C   0  0  2  0  0  0  0  0  0  0  0  0
   19.0603  -29.8524  -10.5823 N   0  0  0  0  0  0  0  0  0  0  0  0
   16.6059  -30.0169  -10.5451 C   0  0  0  0  0  0  0  0  0  0  0  0
   15.8062  -30.4043  -11.4195 O   0  0  0  0  0  0  0  0  0  0  0  0
   16.2450  -28.9521   -9.7388 O   0  0  0  0  0  0  0  0  0  0  0  0
  2  1  1  1
  3  2  1  0
  4  5  2  0
  4  3  1  0
  6  5  1  0
  7  6  2  0
  8  7  1  0
  8  9  2  0
  9  4  1  0
 10  2  1  0
 11 10  2  0
 13 12  1  0
 13 14  2  0
 15 14  1  0
 16 15  2  0
 17 16  1  0
 18 17  1  6
 18 19  1  0
 19 10  1  0
 20 21  2  0
 20 18  1  0
 22 23  2  0
 22 16  1  0
 23 13  1  0
 25 24  1  0
 26 25  2  0
 27 25  1  0
 28 27  1  0
 29 28  1  1
 29 30  1  0
 30 20  1  0
 31 33  1  0
 31 29  1  0
 32 31  2  0
M  END
$$$$
