FYQ.pdb
     RDKit          3D

 33 34  0  0  1  0  0  0  0  0999 V2000
   26.1972  -25.6549  -16.0769 N   0  0  0  0  0  0  0  0  0  0  0  0
   25.9463  -26.5183  -17.1974 C   0  0  1  0  0  0  0  0  0  0  0  0
   26.5868  -26.0768  -18.4636 C   0  0  0  0  0  0  0  0  0  0  0  0
   26.1512  -24.7581  -18.9502 C   0  0  0  0  0  0  0  0  0  0  0  0
   27.0878  -23.7390  -18.9185 C   0  0  0  0  0  0  0  0  0  0  0  0
   26.7760  -22.4676  -19.3521 C   0  0  0  0  0  0  0  0  0  0  0  0
   25.5042  -22.1721  -19.8364 C   0  0  0  0  0  0  0  0  0  0  0  0
   24.6074  -23.2194  -19.8479 C   0  0  0  0  0  0  0  0  0  0  0  0
   24.8930  -24.4882  -19.4233 C   0  0  0  0  0  0  0  0  0  0  0  0
   26.3398  -27.9279  -16.9194 C   0  0  0  0  0  0  0  0  0  0  0  0
   27.1707  -28.2156  -16.0208 O   0  0  0  0  0  0  0  0  0  0  0  0
   21.4828  -31.0773  -12.8660 O   0  0  0  0  0  0  0  0  0  0  0  0
   22.3194  -31.1261  -13.9865 C   0  0  0  0  0  0  0  0  0  0  0  0
   22.1657  -30.2292  -15.0224 C   0  0  0  0  0  0  0  0  0  0  0  0
   22.9997  -30.2769  -16.1406 C   0  0  0  0  0  0  0  0  0  0  0  0
   24.0005  -31.2132  -16.2532 C   0  0  0  0  0  0  0  0  0  0  0  0
   24.8829  -31.2565  -17.4423 C   0  0  0  0  0  0  0  0  0  0  0  0
   26.1058  -30.4109  -17.3307 C   0  0  2  0  0  0  0  0  0  0  0  0
   25.7944  -29.0161  -17.6572 N   0  0  0  0  0  0  0  0  0  0  0  0
   27.2570  -30.8441  -18.1292 C   0  0  0  0  0  0  0  0  0  0  0  0
   27.3741  -30.4461  -19.3169 O   0  0  0  0  0  0  0  0  0  0  0  0
   24.1423  -32.1053  -15.2072 C   0  0  0  0  0  0  0  0  0  0  0  0
   23.3227  -32.0655  -14.0984 C   0  0  0  0  0  0  0  0  0  0  0  0
   32.4987  -30.8674  -19.6627 N   0  0  0  0  0  0  0  0  0  0  0  0
   32.1555  -30.1581  -18.4513 C   0  0  0  0  0  0  0  0  0  0  0  0
   32.6687  -29.0352  -18.3365 O   0  0  0  0  0  0  0  0  0  0  0  0
   31.2723  -30.7424  -17.4540 C   0  0  0  0  0  0  0  0  0  0  0  0
   30.6643  -32.0572  -17.6931 C   0  0  0  0  0  0  0  0  0  0  0  0
   29.3665  -32.0974  -18.4436 C   0  0  2  0  0  0  0  0  0  0  0  0
   28.2600  -31.7010  -17.6182 N   0  0  0  0  0  0  0  0  0  0  0  0
   29.1776  -33.2978  -19.2493 C   0  0  0  0  0  0  0  0  0  0  0  0
   28.5692  -34.2899  -18.8021 O   0  0  0  0  0  0  0  0  0  0  0  0
   29.6735  -33.3482  -20.5399 O   0  0  0  0  0  0  0  0  0  0  0  0
  2  1  1  1
  3  2  1  0
  4  5  2  0
  4  3  1  0
  6  5  1  0
  7  6  2  0
  8  7  1  0
  8  9  2  0
  9  4  1  0
 10  2  1  0
 11 10  2  0
 13 12  1  0
 13 14  2  0
 15 14  1  0
 16 15  2  0
 17 16  1  0
 18 17  1  6
 18 19  1  0
 19 10  1  0
 20 21  2  0
 20 18  1  0
 22 23  2  0
 22 16  1  0
 23 13  1  0
 25 24  1  0
 26 25  2  0
 27 25  1  0
 28 27  1  0
 29 28  1  1
 29 30  1  0
 30 20  1  0
 31 33  1  0
 31 29  1  0
 32 31  2  0
M  END
$$$$
