FYQ.pdb
     RDKit          3D

 33 34  0  0  1  0  0  0  0  0999 V2000
   25.4849  -22.5440   -9.9238 N   0  0  0  0  0  0  0  0  0  0  0  0
   25.3346  -21.2390  -10.5052 C   0  0  1  0  0  0  0  0  0  0  0  0
   26.6136  -20.5099  -10.7076 C   0  0  0  0  0  0  0  0  0  0  0  0
   27.3588  -20.2137   -9.4737 C   0  0  0  0  0  0  0  0  0  0  0  0
   26.7650  -19.3399   -8.5788 C   0  0  0  0  0  0  0  0  0  0  0  0
   27.3841  -18.9990   -7.3948 C   0  0  0  0  0  0  0  0  0  0  0  0
   28.6299  -19.5268   -7.0646 C   0  0  0  0  0  0  0  0  0  0  0  0
   29.1797  -20.3915   -7.9873 C   0  0  0  0  0  0  0  0  0  0  0  0
   28.5853  -20.7446   -9.1678 C   0  0  0  0  0  0  0  0  0  0  0  0
   24.5897  -21.2811  -11.7945 C   0  0  0  0  0  0  0  0  0  0  0  0
   24.5150  -22.3330  -12.4789 O   0  0  0  0  0  0  0  0  0  0  0  0
   19.0969  -18.8325  -18.4059 O   0  0  0  0  0  0  0  0  0  0  0  0
   19.8753  -18.8727  -17.2440 C   0  0  0  0  0  0  0  0  0  0  0  0
   20.9794  -18.0584  -17.1049 C   0  0  0  0  0  0  0  0  0  0  0  0
   21.7566  -18.0976  -15.9461 C   0  0  0  0  0  0  0  0  0  0  0  0
   21.4548  -18.9434  -14.9046 C   0  0  0  0  0  0  0  0  0  0  0  0
   22.2834  -18.9780  -13.6772 C   0  0  0  0  0  0  0  0  0  0  0  0
   23.1674  -20.1735  -13.5665 C   0  0  2  0  0  0  0  0  0  0  0  0
   23.9272  -20.1331  -12.3135 N   0  0  0  0  0  0  0  0  0  0  0  0
   24.0946  -20.3880  -14.6822 C   0  0  0  0  0  0  0  0  0  0  0  0
   25.2263  -19.8387  -14.6635 O   0  0  0  0  0  0  0  0  0  0  0  0
   20.3455  -19.7532  -15.0587 C   0  0  0  0  0  0  0  0  0  0  0  0
   19.5718  -19.7211  -16.2002 C   0  0  0  0  0  0  0  0  0  0  0  0
   27.7902  -24.6608  -16.0069 N   0  0  0  0  0  0  0  0  0  0  0  0
   28.1902  -23.2748  -15.9220 C   0  0  0  0  0  0  0  0  0  0  0  0
   29.4124  -23.0757  -15.9866 O   0  0  0  0  0  0  0  0  0  0  0  0
   27.2109  -22.2101  -15.7692 C   0  0  0  0  0  0  0  0  0  0  0  0
   25.7907  -22.5395  -15.5953 C   0  0  0  0  0  0  0  0  0  0  0  0
   24.8066  -21.8849  -16.5184 C   0  0  2  0  0  0  0  0  0  0  0  0
   23.7724  -21.1983  -15.7962 N   0  0  0  0  0  0  0  0  0  0  0  0
   24.3742  -22.7269  -17.6275 C   0  0  0  0  0  0  0  0  0  0  0  0
   25.1646  -23.5036  -18.1985 O   0  0  0  0  0  0  0  0  0  0  0  0
   23.0614  -22.6768  -18.0612 O   0  0  0  0  0  0  0  0  0  0  0  0
  2  1  1  6
  3  2  1  0
  4  5  2  0
  4  3  1  0
  6  5  1  0
  7  6  2  0
  8  7  1  0
  8  9  2  0
  9  4  1  0
 10  2  1  0
 11 10  2  0
 13 12  1  0
 13 14  2  0
 15 14  1  0
 16 15  2  0
 17 16  1  0
 18 17  1  6
 18 19  1  0
 19 10  1  0
 20 21  2  0
 20 18  1  0
 22 23  2  0
 22 16  1  0
 23 13  1  0
 25 24  1  0
 26 25  2  0
 27 25  1  0
 28 27  1  0
 29 28  1  1
 29 30  1  0
 30 20  1  0
 31 33  1  0
 31 29  1  0
 32 31  2  0
M  END
$$$$
