DRA.pdb
     RDKit          3D

 25 24  0  0  1  0  0  0  0  0999 V2000
   14.0319  -15.8969   22.3178 N   0  0  0  0  0  0  0  0  0  0  0  0
   13.7654  -16.3835   23.6535 C   0  0  1  0  0  0  0  0  0  0  0  0
   14.5333  -15.5801   24.6948 C   0  0  0  0  0  0  0  0  0  0  0  0
   15.9894  -15.6181   24.4147 C   0  0  0  0  0  0  0  0  0  0  0  0
   16.4069  -15.6659   23.2244 O   0  0  0  0  0  0  0  0  0  0  0  0
   12.3113  -16.3889   23.9460 C   0  0  0  0  0  0  0  0  0  0  0  0
   11.8393  -16.7743   25.0454 O   0  0  0  0  0  0  0  0  0  0  0  0
   16.9482  -15.6041   25.4081 O   0  0  0  0  0  0  0  0  0  0  0  0
    8.9144  -12.2106   19.1721 N   0  0  0  0  0  0  0  0  0  0  0  0
    8.1833  -13.4197   19.0434 C   0  0  0  0  0  0  0  0  0  0  0  0
    8.3028  -14.1490   17.9673 N   0  0  0  0  0  0  0  0  0  0  0  0
    7.3059  -13.8965   20.0412 N   0  0  0  0  0  0  0  0  0  0  0  0
    7.5294  -13.5566   21.4325 C   0  0  0  0  0  0  0  0  0  0  0  0
    7.9621  -14.7288   22.2528 C   0  0  0  0  0  0  0  0  0  0  0  0
    9.4758  -14.7794   22.2511 C   0  0  0  0  0  0  0  0  0  0  0  0
    9.9813  -15.9317   23.0890 C   0  0  2  0  0  0  0  0  0  0  0  0
   11.4219  -15.9488   22.9640 N   0  0  0  0  0  0  0  0  0  0  0  0
    9.3393  -17.1970   22.8051 C   0  0  0  0  0  0  0  0  0  0  0  0
    8.1190  -17.3481   23.0146 O   0  0  0  0  0  0  0  0  0  0  0  0
    7.8012  -15.0273   17.8262 C   0  0  0  0  0  0  0  0  0  0  0  0
    9.6876  -19.8442   20.4997 C   0  0  2  0  0  0  0  0  0  0  0  0
    9.4508  -19.5745   21.9598 N   0  0  0  0  0  0  0  0  0  0  0  0
   10.0583  -18.2960   22.2867 C   0  0  0  0  0  0  0  0  0  0  0  0
    9.8740  -20.6578   22.8342 O   0  0  0  0  0  0  0  0  0  0  0  0
    9.3636  -21.9272   22.6706 O   0  0  0  0  0  0  0  0  0  0  0  0
  2  1  1  6
  2  3  1  0
  3  4  1  0
  4  8  1  0
  5  4  2  0
  6  2  1  0
  7  6  2  0
 10 12  1  0
 10  9  1  0
 11 10  2  0
 13 14  1  0
 13 12  1  0
 15 14  1  0
 16 15  1  6
 16 17  1  0
 17  6  1  0
 18 16  1  0
 18 19  2  0
 21 20  1  6
 21 22  1  0
 22 18  1  0
 23 21  1  0
 24 23  1  0
 25 23  2  0
M  END
$$$$
