DRA.pdb
     RDKit          3D

 25 24  0  0  1  0  0  0  0  0999 V2000
   13.8957  -17.6529   17.3894 N   0  0  0  0  0  0  0  0  0  0  0  0
   14.6659  -16.6027   18.0183 C   0  0  1  0  0  0  0  0  0  0  0  0
   14.9319  -15.4594   17.0479 C   0  0  0  0  0  0  0  0  0  0  0  0
   15.7908  -15.9142   15.9274 C   0  0  0  0  0  0  0  0  0  0  0  0
   15.3664  -15.8631   14.7397 O   0  0  0  0  0  0  0  0  0  0  0  0
   14.0056  -16.1146   19.2535 C   0  0  0  0  0  0  0  0  0  0  0  0
   14.4433  -15.1440   19.9217 O   0  0  0  0  0  0  0  0  0  0  0  0
   17.0681  -16.4060   16.1090 O   0  0  0  0  0  0  0  0  0  0  0  0
    8.7157  -13.1692   17.6665 N   0  0  0  0  0  0  0  0  0  0  0  0
    8.3101  -12.7749   18.9676 C   0  0  0  0  0  0  0  0  0  0  0  0
    8.1992  -11.5090   19.2664 N   0  0  0  0  0  0  0  0  0  0  0  0
    8.0099  -13.6992   19.9915 N   0  0  0  0  0  0  0  0  0  0  0  0
    8.6431  -15.0030   20.0061 C   0  0  0  0  0  0  0  0  0  0  0  0
   10.0674  -14.9500   20.4564 C   0  0  0  0  0  0  0  0  0  0  0  0
   10.6236  -16.3587   20.4466 C   0  0  0  0  0  0  0  0  0  0  0  0
   12.0771  -16.3714   20.8620 C   0  0  2  0  0  0  0  0  0  0  0  0
   12.8483  -16.7548   19.7003 N   0  0  0  0  0  0  0  0  0  0  0  0
   12.3476  -17.1558   22.0474 C   0  0  0  0  0  0  0  0  0  0  0  0
   12.2469  -18.3988   22.0199 O   0  0  0  0  0  0  0  0  0  0  0  0
    8.0003  -11.1704   20.2092 C   0  0  0  0  0  0  0  0  0  0  0  0
   13.9008  -16.4665   25.3519 C   0  0  1  0  0  0  0  0  0  0  0  0
   12.9997  -17.2998   24.4833 N   0  0  0  0  0  0  0  0  0  0  0  0
   12.7310  -16.5542   23.2659 C   0  0  0  0  0  0  0  0  0  0  0  0
   11.7960  -17.7621   25.1575 O   0  0  0  0  0  0  0  0  0  0  0  0
   11.8814  -18.6457   26.2113 O   0  0  0  0  0  0  0  0  0  0  0  0
  2  1  1  6
  2  3  1  0
  3  4  1  0
  4  8  1  0
  5  4  2  0
  6  2  1  0
  7  6  2  0
 10 12  1  0
 10  9  1  0
 11 10  2  0
 13 14  1  0
 13 12  1  0
 15 14  1  0
 16 15  1  6
 16 17  1  0
 17  6  1  0
 18 16  1  0
 18 19  2  0
 21 20  1  6
 21 22  1  0
 22 18  1  0
 23 21  1  0
 24 23  1  0
 25 23  2  0
M  END
$$$$
