DRA.pdb
     RDKit          3D

 25 24  0  0  1  0  0  0  0  0999 V2000
   10.4813  -18.3626   20.2030 N   0  0  0  0  0  0  0  0  0  0  0  0
   11.5700  -17.6714   20.8578 C   0  0  1  0  0  0  0  0  0  0  0  0
   12.3835  -16.8574   19.8603 C   0  0  0  0  0  0  0  0  0  0  0  0
   13.1222  -17.7512   18.9354 C   0  0  0  0  0  0  0  0  0  0  0  0
   13.0357  -19.0046   19.0579 O   0  0  0  0  0  0  0  0  0  0  0  0
   11.0789  -16.8212   21.9694 C   0  0  0  0  0  0  0  0  0  0  0  0
   11.8476  -16.1565   22.7092 O   0  0  0  0  0  0  0  0  0  0  0  0
   13.9251  -17.2817   17.9149 O   0  0  0  0  0  0  0  0  0  0  0  0
    8.2463  -11.9012   19.1116 N   0  0  0  0  0  0  0  0  0  0  0  0
    7.9888  -13.2046   18.6137 C   0  0  0  0  0  0  0  0  0  0  0  0
    8.3460  -13.5275   17.4004 N   0  0  0  0  0  0  0  0  0  0  0  0
    7.3486  -14.2053   19.3763 N   0  0  0  0  0  0  0  0  0  0  0  0
    7.0753  -13.9878   20.7831 C   0  0  0  0  0  0  0  0  0  0  0  0
    8.2579  -14.2688   21.6530 C   0  0  0  0  0  0  0  0  0  0  0  0
    7.8624  -15.3175   22.6717 C   0  0  0  0  0  0  0  0  0  0  0  0
    9.0821  -15.9834   23.2669 C   0  0  2  0  0  0  0  0  0  0  0  0
    9.7058  -16.7504   22.2115 N   0  0  0  0  0  0  0  0  0  0  0  0
    8.8174  -16.7317   24.4766 C   0  0  0  0  0  0  0  0  0  0  0  0
    8.1876  -17.8074   24.4298 O   0  0  0  0  0  0  0  0  0  0  0  0
    8.1741  -14.4471   16.9909 C   0  0  0  0  0  0  0  0  0  0  0  0
    7.4589  -17.0941   27.0974 C   0  0  1  0  0  0  0  0  0  0  0  0
    8.9527  -16.9613   26.9883 N   0  0  0  0  0  0  0  0  0  0  0  0
    9.2552  -16.2809   25.7410 C   0  0  0  0  0  0  0  0  0  0  0  0
    9.6683  -18.2177   27.1516 O   0  0  0  0  0  0  0  0  0  0  0  0
   10.4191  -18.7332   26.1176 O   0  0  0  0  0  0  0  0  0  0  0  0
  2  1  1  6
  2  3  1  0
  3  4  1  0
  4  8  1  0
  5  4  2  0
  6  2  1  0
  7  6  2  0
 10 12  1  0
 10  9  1  0
 11 10  2  0
 13 14  1  0
 13 12  1  0
 15 14  1  0
 16 15  1  6
 16 17  1  0
 17  6  1  0
 18 16  1  0
 18 19  2  0
 21 20  1  1
 21 22  1  0
 22 18  1  0
 23 21  1  0
 24 23  1  0
 25 23  2  0
M  END
$$$$
