DRA.pdb
     RDKit          3D

 25 24  0  0  1  0  0  0  0  0999 V2000
    9.5746  -21.6193   15.5140 N   0  0  0  0  0  0  0  0  0  0  0  0
   10.3693  -20.4627   15.8642 C   0  0  1  0  0  0  0  0  0  0  0  0
    9.9964  -19.2597   15.0079 C   0  0  0  0  0  0  0  0  0  0  0  0
   10.5880  -19.3791   13.6530 C   0  0  0  0  0  0  0  0  0  0  0  0
   11.1068  -20.4676   13.2793 O   0  0  0  0  0  0  0  0  0  0  0  0
   10.2568  -20.1477   17.3091 C   0  0  0  0  0  0  0  0  0  0  0  0
   10.7823  -19.1301   17.8272 O   0  0  0  0  0  0  0  0  0  0  0  0
   10.6071  -18.3391   12.7450 O   0  0  0  0  0  0  0  0  0  0  0  0
    4.5406  -24.2113   22.4555 N   0  0  0  0  0  0  0  0  0  0  0  0
    4.6373  -24.5033   21.0705 C   0  0  0  0  0  0  0  0  0  0  0  0
    3.6860  -25.1656   20.4700 N   0  0  0  0  0  0  0  0  0  0  0  0
    5.7362  -24.1081   20.2772 N   0  0  0  0  0  0  0  0  0  0  0  0
    6.1727  -22.7259   20.2721 C   0  0  0  0  0  0  0  0  0  0  0  0
    7.6330  -22.5808   19.9876 C   0  0  0  0  0  0  0  0  0  0  0  0
    7.9605  -21.1039   19.9154 C   0  0  0  0  0  0  0  0  0  0  0  0
    9.4166  -20.8870   19.5718 C   0  0  2  0  0  0  0  0  0  0  0  0
    9.5385  -21.0129   18.1364 N   0  0  0  0  0  0  0  0  0  0  0  0
   10.3330  -21.7141   20.3267 C   0  0  0  0  0  0  0  0  0  0  0  0
   10.5836  -22.8792   19.9581 O   0  0  0  0  0  0  0  0  0  0  0  0
    3.7587  -25.5053   19.5097 C   0  0  0  0  0  0  0  0  0  0  0  0
   12.7661  -21.0876   23.0700 C   0  0  1  0  0  0  0  0  0  0  0  0
   11.9065  -22.0322   22.2766 N   0  0  0  0  0  0  0  0  0  0  0  0
   10.9713  -21.2424   21.4944 C   0  0  0  0  0  0  0  0  0  0  0  0
   11.2650  -23.0607   23.0816 O   0  0  0  0  0  0  0  0  0  0  0  0
    9.9079  -23.0185   23.3164 O   0  0  0  0  0  0  0  0  0  0  0  0
  2  1  1  6
  2  3  1  0
  3  4  1  0
  4  8  1  0
  5  4  2  0
  6  2  1  0
  7  6  2  0
 10 12  1  0
 10  9  1  0
 11 10  2  0
 13 14  1  0
 13 12  1  0
 15 14  1  0
 16 15  1  1
 16 17  1  0
 17  6  1  0
 18 16  1  0
 18 19  2  0
 21 20  1  6
 21 22  1  0
 22 18  1  0
 23 21  1  0
 24 23  1  0
 25 23  2  0
M  END
$$$$
