DRA.pdb
     RDKit          3D

 25 24  0  0  1  0  0  0  0  0999 V2000
   12.2841  -16.5244   18.7164 N   0  0  0  0  0  0  0  0  0  0  0  0
   13.2106  -15.7634   19.5252 C   0  0  1  0  0  0  0  0  0  0  0  0
   13.7516  -14.5633   18.7593 C   0  0  0  0  0  0  0  0  0  0  0  0
   14.8996  -14.9607   17.9083 C   0  0  0  0  0  0  0  0  0  0  0  0
   15.2320  -16.1749   17.8156 O   0  0  0  0  0  0  0  0  0  0  0  0
   12.5919  -15.3466   20.8071 C   0  0  0  0  0  0  0  0  0  0  0  0
   13.2289  -14.7401   21.7052 O   0  0  0  0  0  0  0  0  0  0  0  0
   15.6520  -14.0549   17.1873 O   0  0  0  0  0  0  0  0  0  0  0  0
    8.4004  -14.7431   17.3184 N   0  0  0  0  0  0  0  0  0  0  0  0
    8.0591  -13.3960   17.6042 C   0  0  0  0  0  0  0  0  0  0  0  0
    8.1991  -12.4741   16.6907 N   0  0  0  0  0  0  0  0  0  0  0  0
    7.5614  -12.9793   18.8579 N   0  0  0  0  0  0  0  0  0  0  0  0
    7.6677  -13.8507   20.0114 C   0  0  0  0  0  0  0  0  0  0  0  0
    9.0707  -13.9829   20.5099 C   0  0  0  0  0  0  0  0  0  0  0  0
    9.0698  -14.9303   21.6915 C   0  0  0  0  0  0  0  0  0  0  0  0
   10.4770  -15.1941   22.1769 C   0  0  2  0  0  0  0  0  0  0  0  0
   11.2453  -15.6363   21.0343 N   0  0  0  0  0  0  0  0  0  0  0  0
   10.5528  -16.0698   23.3262 C   0  0  0  0  0  0  0  0  0  0  0  0
    9.9551  -15.7807   24.3822 O   0  0  0  0  0  0  0  0  0  0  0  0
    8.0139  -11.4841   16.8596 C   0  0  0  0  0  0  0  0  0  0  0  0
   11.3690  -19.5907   23.8796 C   0  0  2  0  0  0  0  0  0  0  0  0
   11.3851  -18.1882   24.4212 N   0  0  0  0  0  0  0  0  0  0  0  0
   11.2959  -17.2701   23.2990 C   0  0  0  0  0  0  0  0  0  0  0  0
   12.5058  -17.9129   25.3076 O   0  0  0  0  0  0  0  0  0  0  0  0
   13.4252  -16.9375   24.9886 O   0  0  0  0  0  0  0  0  0  0  0  0
  2  1  1  6
  2  3  1  0
  3  4  1  0
  4  8  1  0
  5  4  2  0
  6  2  1  0
  7  6  2  0
 10 12  1  0
 10  9  1  0
 11 10  2  0
 13 14  1  0
 13 12  1  0
 15 14  1  0
 16 15  1  6
 16 17  1  0
 17  6  1  0
 18 16  1  0
 18 19  2  0
 21 20  1  1
 21 22  1  0
 22 18  1  0
 23 21  1  0
 24 23  1  0
 25 23  2  0
M  END
$$$$
