DRA.pdb
     RDKit          3D

 25 24  0  0  1  0  0  0  0  0999 V2000
    8.6994  -16.3246   15.2161 N   0  0  0  0  0  0  0  0  0  0  0  0
    9.5176  -15.2332   15.6967 C   0  0  1  0  0  0  0  0  0  0  0  0
    8.6625  -14.1389   16.3219 C   0  0  0  0  0  0  0  0  0  0  0  0
    7.6963  -13.6016   15.3331 C   0  0  0  0  0  0  0  0  0  0  0  0
    7.6135  -14.1134   14.1821 O   0  0  0  0  0  0  0  0  0  0  0  0
   10.5533  -15.7114   16.6446 C   0  0  0  0  0  0  0  0  0  0  0  0
   10.3637  -16.6724   17.4323 O   0  0  0  0  0  0  0  0  0  0  0  0
    6.8539  -12.5413   15.6024 O   0  0  0  0  0  0  0  0  0  0  0  0
   16.4356  -12.6315   17.6400 N   0  0  0  0  0  0  0  0  0  0  0  0
   17.5983  -13.4293   17.7965 C   0  0  0  0  0  0  0  0  0  0  0  0
   18.6417  -12.9555   18.4217 N   0  0  0  0  0  0  0  0  0  0  0  0
   17.6978  -14.7472   17.3003 N   0  0  0  0  0  0  0  0  0  0  0  0
   16.5993  -15.3318   16.5569 C   0  0  0  0  0  0  0  0  0  0  0  0
   15.4119  -15.6279   17.4153 C   0  0  0  0  0  0  0  0  0  0  0  0
   14.1734  -15.1171   16.7089 C   0  0  0  0  0  0  0  0  0  0  0  0
   12.9229  -15.4717   17.4810 C   0  0  2  0  0  0  0  0  0  0  0  0
   11.7944  -15.0727   16.6696 N   0  0  0  0  0  0  0  0  0  0  0  0
   12.8985  -14.9623   18.8350 C   0  0  0  0  0  0  0  0  0  0  0  0
   13.1212  -13.7560   19.0611 O   0  0  0  0  0  0  0  0  0  0  0  0
   19.5460  -13.4296   18.4434 C   0  0  0  0  0  0  0  0  0  0  0  0
   11.5038  -16.0866   22.0339 C   0  0  1  0  0  0  0  0  0  0  0  0
   12.5860  -15.3306   21.3142 N   0  0  0  0  0  0  0  0  0  0  0  0
   12.6253  -15.7984   19.9395 C   0  0  0  0  0  0  0  0  0  0  0  0
   13.8790  -15.3781   21.9798 O   0  0  0  0  0  0  0  0  0  0  0  0
   14.9501  -16.0047   21.3810 O   0  0  0  0  0  0  0  0  0  0  0  0
  2  1  1  1
  2  3  1  0
  3  4  1  0
  4  8  1  0
  5  4  2  0
  6  2  1  0
  7  6  2  0
 10 12  1  0
 10  9  1  0
 11 10  2  0
 13 14  1  0
 13 12  1  0
 15 14  1  0
 16 15  1  6
 16 17  1  0
 17  6  1  0
 18 16  1  0
 18 19  2  0
 21 20  1  6
 21 22  1  0
 22 18  1  0
 23 21  1  0
 24 23  1  0
 25 23  2  0
M  END
$$$$
