DRA.pdb
     RDKit          3D

 25 24  0  0  1  0  0  0  0  0999 V2000
   10.4519  -17.2355   19.9388 N   0  0  0  0  0  0  0  0  0  0  0  0
   10.7401  -16.1993   20.9057 C   0  0  1  0  0  0  0  0  0  0  0  0
   11.0719  -14.8819   20.2174 C   0  0  0  0  0  0  0  0  0  0  0  0
   12.4233  -14.9363   19.6084 C   0  0  0  0  0  0  0  0  0  0  0  0
   13.1868  -15.9141   19.8414 O   0  0  0  0  0  0  0  0  0  0  0  0
    9.6247  -16.0346   21.8693 C   0  0  0  0  0  0  0  0  0  0  0  0
    8.5062  -15.5635   21.5422 O   0  0  0  0  0  0  0  0  0  0  0  0
   12.9140  -13.9510   18.7749 O   0  0  0  0  0  0  0  0  0  0  0  0
    6.3281  -20.2171   28.6787 N   0  0  0  0  0  0  0  0  0  0  0  0
    6.5775  -20.5764   27.3290 C   0  0  0  0  0  0  0  0  0  0  0  0
    5.9164  -21.5571   26.7766 N   0  0  0  0  0  0  0  0  0  0  0  0
    7.5287  -19.9157   26.5217 N   0  0  0  0  0  0  0  0  0  0  0  0
    8.3267  -18.8365   27.0691 C   0  0  0  0  0  0  0  0  0  0  0  0
    8.1507  -17.5516   26.3260 C   0  0  0  0  0  0  0  0  0  0  0  0
    8.9023  -17.6520   25.0149 C   0  0  0  0  0  0  0  0  0  0  0  0
    8.8127  -16.3586   24.2374 C   0  0  2  0  0  0  0  0  0  0  0  0
    9.8168  -16.4163   23.1984 N   0  0  0  0  0  0  0  0  0  0  0  0
    8.8669  -15.1687   25.0589 C   0  0  0  0  0  0  0  0  0  0  0  0
    9.9278  -14.8399   25.6266 O   0  0  0  0  0  0  0  0  0  0  0  0
    6.0353  -21.8346   25.8010 C   0  0  0  0  0  0  0  0  0  0  0  0
    6.3839  -12.5204   26.0055 C   0  0  1  0  0  0  0  0  0  0  0  0
    7.7046  -13.2203   26.1690 N   0  0  0  0  0  0  0  0  0  0  0  0
    7.7370  -14.3435   25.2483 C   0  0  0  0  0  0  0  0  0  0  0  0
    8.0088  -13.5886   27.5435 O   0  0  0  0  0  0  0  0  0  0  0  0
    8.4092  -12.6318   28.4505 O   0  0  0  0  0  0  0  0  0  0  0  0
  2  1  1  6
  2  3  1  0
  3  4  1  0
  4  8  1  0
  5  4  2  0
  6  2  1  0
  7  6  2  0
 10 12  1  0
 10  9  1  0
 11 10  2  0
 13 14  1  0
 13 12  1  0
 15 14  1  0
 16 15  1  1
 16 17  1  0
 17  6  1  0
 18 16  1  0
 18 19  2  0
 21 20  1  6
 21 22  1  0
 22 18  1  0
 23 21  1  0
 24 23  1  0
 25 23  2  0
M  END
$$$$
