DRA.pdb
     RDKit          3D

 25 24  0  0  1  0  0  0  0  0999 V2000
    6.4761  -15.4077   19.6095 N   0  0  0  0  0  0  0  0  0  0  0  0
    7.4486  -14.7801   20.4768 C   0  0  1  0  0  0  0  0  0  0  0  0
    7.5605  -13.2888   20.1891 C   0  0  0  0  0  0  0  0  0  0  0  0
    8.3153  -13.0538   18.9340 C   0  0  0  0  0  0  0  0  0  0  0  0
    8.8608  -14.0187   18.3300 O   0  0  0  0  0  0  0  0  0  0  0  0
    7.1377  -15.0285   21.9056 C   0  0  0  0  0  0  0  0  0  0  0  0
    6.0272  -14.7430   22.4205 O   0  0  0  0  0  0  0  0  0  0  0  0
    8.4630  -11.8038   18.3666 O   0  0  0  0  0  0  0  0  0  0  0  0
    6.1837  -21.2479   26.3717 N   0  0  0  0  0  0  0  0  0  0  0  0
    7.1349  -20.7636   27.3063 C   0  0  0  0  0  0  0  0  0  0  0  0
    6.9690  -20.9761   28.5835 N   0  0  0  0  0  0  0  0  0  0  0  0
    8.2870  -20.0420   26.9256 N   0  0  0  0  0  0  0  0  0  0  0  0
    8.3774  -19.4569   25.6025 C   0  0  0  0  0  0  0  0  0  0  0  0
    8.0813  -17.9918   25.5958 C   0  0  0  0  0  0  0  0  0  0  0  0
    8.2468  -17.4781   24.1806 C   0  0  0  0  0  0  0  0  0  0  0  0
    7.9243  -16.0035   24.0972 C   0  0  2  0  0  0  0  0  0  0  0  0
    8.1145  -15.6037   22.7205 N   0  0  0  0  0  0  0  0  0  0  0  0
    8.6292  -15.1875   25.0620 C   0  0  0  0  0  0  0  0  0  0  0  0
    9.8762  -15.1781   25.0915 O   0  0  0  0  0  0  0  0  0  0  0  0
    7.6404  -20.6795   29.2936 C   0  0  0  0  0  0  0  0  0  0  0  0
    7.6339  -12.4960   27.4383 C   0  0  1  0  0  0  0  0  0  0  0  0
    8.6087  -13.5454   26.9810 N   0  0  0  0  0  0  0  0  0  0  0  0
    7.9435  -14.3802   25.9956 C   0  0  0  0  0  0  0  0  0  0  0  0
    9.2125  -14.3010   28.0681 O   0  0  0  0  0  0  0  0  0  0  0  0
   10.1631  -13.7199   28.8787 O   0  0  0  0  0  0  0  0  0  0  0  0
  2  1  1  6
  2  3  1  0
  3  4  1  0
  4  8  1  0
  5  4  2  0
  6  2  1  0
  7  6  2  0
 10 12  1  0
 10  9  1  0
 11 10  2  0
 13 14  1  0
 13 12  1  0
 15 14  1  0
 16 15  1  6
 16 17  1  0
 17  6  1  0
 18 16  1  0
 18 19  2  0
 21 20  1  6
 21 22  1  0
 22 18  1  0
 23 21  1  0
 24 23  1  0
 25 23  2  0
M  END
$$$$
