RPE.pdb
     RDKit          3D

 28 28  0  0  1  0  0  0  0  0999 V2000
   11.3031  -18.8401   19.2008 N   0  0  0  0  0  0  0  0  0  0  0  0
   10.0004  -19.4421   19.2932 C   0  0  0  0  0  0  0  0  0  0  0  0
    9.9302  -20.6871   19.0436 N   0  0  0  0  0  0  0  0  0  0  0  0
    8.8562  -18.6967   19.6387 N   0  0  0  0  0  0  0  0  0  0  0  0
    8.8016  -17.9836   20.8798 C   0  0  0  0  0  0  0  0  0  0  0  0
    7.5113  -17.2479   21.1328 C   0  0  0  0  0  0  0  0  0  0  0  0
    7.3940  -16.6638   22.4980 C   0  0  0  0  0  0  0  0  0  0  0  0
    7.5135  -15.1433   22.4358 C   0  0  2  0  0  0  0  0  0  0  0  0
    8.0755  -14.7341   21.1640 N   0  0  0  0  0  0  0  0  0  0  0  0
    8.3706  -14.6441   23.5202 C   0  0  0  0  0  0  0  0  0  0  0  0
    9.6209  -14.9500   23.3908 O   0  0  0  0  0  0  0  0  0  0  0  0
    9.0204  -21.2147   19.0826 N   0  0  0  0  0  0  0  0  0  0  0  0
    8.0325  -13.8979   24.6463 C   0  0  0  0  0  0  0  0  0  0  0  0
    7.5436  -12.4701   24.5463 C   0  0  0  0  0  0  0  0  0  0  0  0
    6.2327  -12.6155   25.3335 C   0  0  0  0  0  0  0  0  0  0  0  0
    6.4113  -13.8849   26.2076 C   0  0  2  0  0  0  0  0  0  0  0  0
    7.8806  -14.0832   26.0517 C   0  0  0  0  0  0  0  0  0  0  0  0
    8.5406  -15.1613   26.7257 O   0  0  0  0  0  0  0  0  0  0  0  0
    7.9806  -16.2705   26.8981 N   0  0  0  0  0  0  0  0  0  0  0  0
    9.8812  -15.0685   27.2555 C   0  0  1  0  0  0  0  0  0  0  0  0
   10.4929  -16.1576   27.9822 C   0  0  0  0  0  0  0  0  0  0  0  0
   11.6514  -16.6610   27.1059 C   0  0  0  0  0  0  0  0  0  0  0  0
   12.6255  -15.5562   26.8249 C   0  0  0  0  0  0  0  0  0  0  0  0
   13.6679  -16.0553   25.9009 O   0  0  0  0  0  0  0  0  0  0  0  0
   13.6191  -17.2443   25.5080 C   0  0  0  0  0  0  0  0  0  0  0  0
   11.0687  -15.7019   29.2544 O   0  0  0  0  0  0  0  0  0  0  0  0
   11.6467  -16.4352   30.0935 O   0  0  0  0  0  0  0  0  0  0  0  0
   14.7093  -15.2475   25.4472 O   0  0  0  0  0  0  0  0  0  0  0  0
  2  1  1  0
  3  2  2  0
  4  2  1  0
  5  4  1  0
  6  5  1  0
  7  6  1  0
  8  9  1  6
  8  7  1  0
 10  8  1  0
 11 10  2  0
 12 16  1  0
 12 10  1  0
 13 12  1  0
 14 13  1  0
 14 15  1  0
 15 16  1  0
 17 19  1  0
 16 17  1  6
 18 17  2  0
 20 19  1  0
 20 25  1  0
 20 21  1  1
 22 21  1  0
 23 22  1  0
 24 23  2  0
 25 26  2  0
 25 28  1  0
 27 23  1  0
M  END
$$$$
