RPE.pdb
     RDKit          3D

 28 28  0  0  1  0  0  0  0  0999 V2000
    7.5039  -12.2503   18.2781 N   0  0  0  0  0  0  0  0  0  0  0  0
    7.5374  -13.4084   17.4262 C   0  0  0  0  0  0  0  0  0  0  0  0
    7.3417  -13.2077   16.1857 N   0  0  0  0  0  0  0  0  0  0  0  0
    7.7712  -14.7017   17.9330 N   0  0  0  0  0  0  0  0  0  0  0  0
    8.0020  -14.9023   19.3325 C   0  0  0  0  0  0  0  0  0  0  0  0
    6.8276  -14.5847   20.2213 C   0  0  0  0  0  0  0  0  0  0  0  0
    6.9969  -15.0088   21.6390 C   0  0  0  0  0  0  0  0  0  0  0  0
    8.2306  -14.3462   22.2465 C   0  0  2  0  0  0  0  0  0  0  0  0
    9.4099  -14.6680   21.4677 N   0  0  0  0  0  0  0  0  0  0  0  0
    8.4343  -14.7961   23.6307 C   0  0  0  0  0  0  0  0  0  0  0  0
    8.9569  -15.9751   23.7331 O   0  0  0  0  0  0  0  0  0  0  0  0
    7.4085  -13.9826   15.4767 N   0  0  0  0  0  0  0  0  0  0  0  0
    8.1520  -14.1416   24.8270 C   0  0  0  0  0  0  0  0  0  0  0  0
    7.9725  -12.6415   24.8985 C   0  0  0  0  0  0  0  0  0  0  0  0
    6.5927  -12.6023   25.5722 C   0  0  0  0  0  0  0  0  0  0  0  0
    6.4306  -13.9797   26.2681 C   0  0  2  0  0  0  0  0  0  0  0  0
    7.8376  -14.4643   26.1797 C   0  0  0  0  0  0  0  0  0  0  0  0
    8.2019  -15.7334   26.7354 O   0  0  0  0  0  0  0  0  0  0  0  0
    7.4315  -16.7218   26.6789 N   0  0  0  0  0  0  0  0  0  0  0  0
    9.4620  -15.9820   27.3963 C   0  0  1  0  0  0  0  0  0  0  0  0
    9.9012  -17.3186   27.7266 C   0  0  0  0  0  0  0  0  0  0  0  0
   11.0627  -17.6370   26.7711 C   0  0  0  0  0  0  0  0  0  0  0  0
   11.6339  -18.9929   27.0608 C   0  0  0  0  0  0  0  0  0  0  0  0
   12.7328  -19.2671   26.1084 O   0  0  0  0  0  0  0  0  0  0  0  0
   13.0406  -18.3960   25.2619 C   0  0  0  0  0  0  0  0  0  0  0  0
   10.4252  -17.3918   29.0968 O   0  0  0  0  0  0  0  0  0  0  0  0
   10.7461  -16.4060   29.8048 O   0  0  0  0  0  0  0  0  0  0  0  0
   13.4438  -20.4660   26.1174 O   0  0  0  0  0  0  0  0  0  0  0  0
  2  1  1  0
  3  2  2  0
  4  2  1  0
  5  4  1  0
  6  5  1  0
  7  6  1  0
  8  9  1  6
  8  7  1  0
 10  8  1  0
 11 10  2  0
 12 16  1  0
 12 10  1  0
 13 12  1  0
 14 13  1  0
 14 15  1  0
 15 16  1  0
 17 19  1  0
 16 17  1  6
 18 17  2  0
 20 19  1  0
 20 25  1  0
 20 21  1  1
 22 21  1  0
 23 22  1  0
 24 23  2  0
 25 26  2  0
 25 28  1  0
 27 23  1  0
M  END
$$$$
