RPE.pdb
     RDKit          3D

 28 28  0  0  1  0  0  0  0  0999 V2000
    8.1476  -13.6690   16.6690 N   0  0  0  0  0  0  0  0  0  0  0  0
    7.7480  -13.0827   17.9198 C   0  0  0  0  0  0  0  0  0  0  0  0
    8.2994  -11.9804   18.2332 N   0  0  0  0  0  0  0  0  0  0  0  0
    6.7978  -13.6938   18.7611 N   0  0  0  0  0  0  0  0  0  0  0  0
    7.2050  -14.3125   19.9873 C   0  0  0  0  0  0  0  0  0  0  0  0
    7.6563  -15.7441   19.8563 C   0  0  0  0  0  0  0  0  0  0  0  0
    8.1672  -16.3457   21.1195 C   0  0  0  0  0  0  0  0  0  0  0  0
    9.2469  -15.4566   21.7310 C   0  0  2  0  0  0  0  0  0  0  0  0
   10.4992  -15.6244   21.0206 N   0  0  0  0  0  0  0  0  0  0  0  0
    9.4528  -15.7879   23.1479 C   0  0  0  0  0  0  0  0  0  0  0  0
   10.1670  -16.8482   23.3457 O   0  0  0  0  0  0  0  0  0  0  0  0
    8.1169  -11.5061   19.1547 N   0  0  0  0  0  0  0  0  0  0  0  0
    8.9979  -15.1303   24.2880 C   0  0  0  0  0  0  0  0  0  0  0  0
    8.8587  -13.6253   24.3450 C   0  0  0  0  0  0  0  0  0  0  0  0
    7.3883  -13.5422   24.7815 C   0  0  0  0  0  0  0  0  0  0  0  0
    7.0677  -14.9168   25.4260 C   0  0  2  0  0  0  0  0  0  0  0  0
    8.4532  -15.4490   25.5664 C   0  0  0  0  0  0  0  0  0  0  0  0
    8.6782  -16.7328   26.1610 O   0  0  0  0  0  0  0  0  0  0  0  0
    8.0659  -17.7554   25.7698 N   0  0  0  0  0  0  0  0  0  0  0  0
    9.6102  -16.9585   27.2411 C   0  0  1  0  0  0  0  0  0  0  0  0
   10.0677  -18.2838   27.5914 C   0  0  0  0  0  0  0  0  0  0  0  0
   11.2676  -18.5793   26.6768 C   0  0  0  0  0  0  0  0  0  0  0  0
   11.3520  -20.0437   26.3657 C   0  0  0  0  0  0  0  0  0  0  0  0
   12.5368  -20.2886   25.5137 O   0  0  0  0  0  0  0  0  0  0  0  0
   13.2935  -19.3315   25.2280 C   0  0  0  0  0  0  0  0  0  0  0  0
   10.5468  -18.3408   28.9788 O   0  0  0  0  0  0  0  0  0  0  0  0
   10.9296  -17.3551   29.6555 O   0  0  0  0  0  0  0  0  0  0  0  0
   12.8456  -21.5524   25.0134 O   0  0  0  0  0  0  0  0  0  0  0  0
  2  1  1  0
  3  2  2  0
  4  2  1  0
  5  4  1  0
  6  5  1  0
  7  6  1  0
  8  9  1  6
  8  7  1  0
 10  8  1  0
 11 10  2  0
 12 16  1  0
 12 10  1  0
 13 12  1  0
 14 13  1  0
 14 15  1  0
 15 16  1  0
 17 19  1  0
 16 17  1  6
 18 17  2  0
 20 19  1  0
 20 25  1  0
 20 21  1  1
 22 21  1  0
 23 22  1  0
 24 23  2  0
 25 26  2  0
 25 28  1  0
 27 23  1  0
M  END
$$$$
