RPE.pdb
     RDKit          3D

 28 28  0  0  1  0  0  0  0  0999 V2000
    5.4494  -19.3213   13.4884 N   0  0  0  0  0  0  0  0  0  0  0  0
    6.5399  -19.1449   14.4092 C   0  0  0  0  0  0  0  0  0  0  0  0
    7.7024  -19.0493   13.9024 N   0  0  0  0  0  0  0  0  0  0  0  0
    6.3386  -19.0834   15.8019 N   0  0  0  0  0  0  0  0  0  0  0  0
    7.4517  -18.9292   16.6904 C   0  0  0  0  0  0  0  0  0  0  0  0
    8.3132  -17.7220   16.4247 C   0  0  0  0  0  0  0  0  0  0  0  0
    7.6940  -16.4259   16.8189 C   0  0  0  0  0  0  0  0  0  0  0  0
    8.7379  -15.3124   16.7999 C   0  0  2  0  0  0  0  0  0  0  0  0
    9.7680  -15.6046   15.8230 N   0  0  0  0  0  0  0  0  0  0  0  0
    9.3616  -15.1615   18.1220 C   0  0  0  0  0  0  0  0  0  0  0  0
   10.2967  -16.0209   18.3678 O   0  0  0  0  0  0  0  0  0  0  0  0
    8.5721  -19.0467   14.4950 N   0  0  0  0  0  0  0  0  0  0  0  0
    9.0946  -14.2371   19.1286 C   0  0  0  0  0  0  0  0  0  0  0  0
    8.9990  -12.7533   18.8514 C   0  0  0  0  0  0  0  0  0  0  0  0
    7.6113  -12.4908   19.4554 C   0  0  0  0  0  0  0  0  0  0  0  0
    7.3586  -13.6623   20.4410 C   0  0  2  0  0  0  0  0  0  0  0  0
    8.7374  -14.2252   20.5088 C   0  0  0  0  0  0  0  0  0  0  0  0
    9.0188  -15.3503   21.3497 O   0  0  0  0  0  0  0  0  0  0  0  0
    8.4185  -16.4428   21.2097 N   0  0  0  0  0  0  0  0  0  0  0  0
    9.9982  -15.3268   22.4112 C   0  0  1  0  0  0  0  0  0  0  0  0
   10.4757  -16.5384   23.0376 C   0  0  0  0  0  0  0  0  0  0  0  0
   11.3892  -17.2226   22.0076 C   0  0  0  0  0  0  0  0  0  0  0  0
   11.9469  -18.5015   22.5572 C   0  0  0  0  0  0  0  0  0  0  0  0
   12.7962  -19.1397   21.5272 O   0  0  0  0  0  0  0  0  0  0  0  0
   13.1839  -18.4613   20.5475 C   0  0  0  0  0  0  0  0  0  0  0  0
   11.2905  -16.2479   24.2247 O   0  0  0  0  0  0  0  0  0  0  0  0
   11.8392  -15.1473   24.4768 O   0  0  0  0  0  0  0  0  0  0  0  0
   13.1845  -20.4761   21.6058 O   0  0  0  0  0  0  0  0  0  0  0  0
  2  1  1  0
  3  2  2  0
  4  2  1  0
  5  4  1  0
  6  5  1  0
  7  6  1  0
  8  9  1  6
  8  7  1  0
 10  8  1  0
 11 10  2  0
 12 16  1  0
 12 10  1  0
 13 12  1  0
 14 13  1  0
 14 15  1  0
 15 16  1  0
 17 19  1  0
 16 17  1  6
 18 17  2  0
 20 19  1  0
 20 25  1  0
 20 21  1  1
 22 21  1  0
 23 22  1  0
 24 23  2  0
 25 26  2  0
 25 28  1  0
 27 23  1  0
M  END
$$$$
