RPE.pdb
     RDKit          3D

 28 28  0  0  1  0  0  0  0  0999 V2000
    7.2091  -17.1533   13.1187 N   0  0  0  0  0  0  0  0  0  0  0  0
    6.3832  -17.7747   14.1187 C   0  0  0  0  0  0  0  0  0  0  0  0
    5.1258  -17.7047   13.9415 N   0  0  0  0  0  0  0  0  0  0  0  0
    6.9316  -18.4262   15.2406 N   0  0  0  0  0  0  0  0  0  0  0  0
    7.7480  -17.7057   16.1715 C   0  0  0  0  0  0  0  0  0  0  0  0
    8.6583  -16.6766   15.5532 C   0  0  0  0  0  0  0  0  0  0  0  0
    9.5072  -15.9400   16.5306 C   0  0  0  0  0  0  0  0  0  0  0  0
    8.6534  -14.9826   17.3581 C   0  0  2  0  0  0  0  0  0  0  0  0
    8.3698  -13.7792   16.6017 N   0  0  0  0  0  0  0  0  0  0  0  0
    9.3427  -14.6140   18.6025 C   0  0  0  0  0  0  0  0  0  0  0  0
   10.6312  -14.5627   18.4993 O   0  0  0  0  0  0  0  0  0  0  0  0
    4.4416  -18.1385   14.6132 N   0  0  0  0  0  0  0  0  0  0  0  0
    8.8129  -14.3139   19.8549 C   0  0  0  0  0  0  0  0  0  0  0  0
    7.8609  -13.1581   20.0679 C   0  0  0  0  0  0  0  0  0  0  0  0
    6.7103  -13.9227   20.7394 C   0  0  0  0  0  0  0  0  0  0  0  0
    7.3464  -15.2216   21.3012 C   0  0  2  0  0  0  0  0  0  0  0  0
    8.7876  -14.8634   21.1702 C   0  0  0  0  0  0  0  0  0  0  0  0
    9.8024  -15.7768   21.6039 O   0  0  0  0  0  0  0  0  0  0  0  0
   10.2614  -16.6607   20.8413 N   0  0  0  0  0  0  0  0  0  0  0  0
   10.3746  -15.7614   22.9301 C   0  0  1  0  0  0  0  0  0  0  0  0
   10.9712  -16.9386   23.5188 C   0  0  0  0  0  0  0  0  0  0  0  0
   12.4727  -16.8655   23.1968 C   0  0  0  0  0  0  0  0  0  0  0  0
   12.9077  -15.4431   23.0063 C   0  0  0  0  0  0  0  0  0  0  0  0
   14.3690  -15.4120   22.7760 O   0  0  0  0  0  0  0  0  0  0  0  0
   15.1321  -15.1192   23.7259 C   0  0  0  0  0  0  0  0  0  0  0  0
   10.8339  -16.9399   24.9812 O   0  0  0  0  0  0  0  0  0  0  0  0
   10.2910  -16.0342   25.6601 O   0  0  0  0  0  0  0  0  0  0  0  0
   14.9332  -15.6985   21.5341 O   0  0  0  0  0  0  0  0  0  0  0  0
  2  1  1  0
  3  2  2  0
  4  2  1  0
  5  4  1  0
  6  5  1  0
  7  6  1  0
  8  9  1  6
  8  7  1  0
 10  8  1  0
 11 10  2  0
 12 16  1  0
 12 10  1  0
 13 12  1  0
 14 13  1  0
 14 15  1  0
 15 16  1  0
 17 19  1  0
 16 17  1  1
 18 17  2  0
 20 19  1  0
 20 25  1  0
 20 21  1  1
 22 21  1  0
 23 22  1  0
 24 23  2  0
 25 26  2  0
 25 28  1  0
 27 23  1  0
M  END
$$$$
