RPE.pdb
     RDKit          3D

 28 28  0  0  1  0  0  0  0  0999 V2000
   11.7600  -20.6506   17.0956 N   0  0  0  0  0  0  0  0  0  0  0  0
   10.6292  -19.7634   17.1446 C   0  0  0  0  0  0  0  0  0  0  0  0
   10.4769  -19.0948   18.2156 N   0  0  0  0  0  0  0  0  0  0  0  0
    9.7308  -19.6387   16.0670 N   0  0  0  0  0  0  0  0  0  0  0  0
    8.6363  -18.7171   16.1370 C   0  0  0  0  0  0  0  0  0  0  0  0
    9.0273  -17.2628   16.0900 C   0  0  0  0  0  0  0  0  0  0  0  0
    7.8816  -16.3150   16.1774 C   0  0  0  0  0  0  0  0  0  0  0  0
    8.3885  -14.8782   16.2708 C   0  0  2  0  0  0  0  0  0  0  0  0
    9.1577  -14.5380   15.0903 N   0  0  0  0  0  0  0  0  0  0  0  0
    9.2339  -14.7010   17.4598 C   0  0  0  0  0  0  0  0  0  0  0  0
   10.3880  -15.2800   17.3803 O   0  0  0  0  0  0  0  0  0  0  0  0
    9.6519  -18.4588   18.3650 N   0  0  0  0  0  0  0  0  0  0  0  0
    8.9731  -14.0065   18.6383 C   0  0  0  0  0  0  0  0  0  0  0  0
    8.3340  -12.6357   18.6378 C   0  0  0  0  0  0  0  0  0  0  0  0
    7.1591  -12.9244   19.5842 C   0  0  0  0  0  0  0  0  0  0  0  0
    7.5778  -14.1786   20.3961 C   0  0  2  0  0  0  0  0  0  0  0  0
    9.0264  -14.2225   20.0466 C   0  0  0  0  0  0  0  0  0  0  0  0
    9.8744  -15.2345   20.6025 O   0  0  0  0  0  0  0  0  0  0  0  0
    9.5061  -16.4311   20.6813 N   0  0  0  0  0  0  0  0  0  0  0  0
   11.2005  -14.9721   21.1112 C   0  0  1  0  0  0  0  0  0  0  0  0
   12.0812  -16.0367   21.5348 C   0  0  0  0  0  0  0  0  0  0  0  0
   13.1439  -16.1785   20.4330 C   0  0  0  0  0  0  0  0  0  0  0  0
   13.9025  -14.8970   20.2569 C   0  0  0  0  0  0  0  0  0  0  0  0
   14.9778  -15.1055   19.2620 O   0  0  0  0  0  0  0  0  0  0  0  0
   15.5247  -16.2299   19.1786 C   0  0  0  0  0  0  0  0  0  0  0  0
   12.7810  -15.6955   22.7804 O   0  0  0  0  0  0  0  0  0  0  0  0
   13.5338  -16.4664   23.4245 O   0  0  0  0  0  0  0  0  0  0  0  0
   15.4084  -14.0917   18.4078 O   0  0  0  0  0  0  0  0  0  0  0  0
  2  1  1  0
  3  2  2  0
  4  2  1  0
  5  4  1  0
  6  5  1  0
  7  6  1  0
  8  9  1  6
  8  7  1  0
 10  8  1  0
 11 10  2  0
 12 16  1  0
 12 10  1  0
 13 12  1  0
 14 13  1  0
 14 15  1  0
 15 16  1  0
 17 19  1  0
 16 17  1  6
 18 17  2  0
 20 19  1  0
 20 25  1  0
 20 21  1  1
 22 21  1  0
 23 22  1  0
 24 23  2  0
 25 26  2  0
 25 28  1  0
 27 23  1  0
M  END
$$$$
