RPE.pdb
     RDKit          3D

 28 28  0  0  1  0  0  0  0  0999 V2000
    8.0603  -13.3057   16.5638 N   0  0  0  0  0  0  0  0  0  0  0  0
    8.0909  -13.4950   17.9890 C   0  0  0  0  0  0  0  0  0  0  0  0
    8.3950  -12.4792   18.6912 N   0  0  0  0  0  0  0  0  0  0  0  0
    7.8032  -14.7391   18.5834 N   0  0  0  0  0  0  0  0  0  0  0  0
    8.7310  -15.3406   19.4942 C   0  0  0  0  0  0  0  0  0  0  0  0
    8.7640  -14.7214   20.8674 C   0  0  0  0  0  0  0  0  0  0  0  0
    9.0107  -15.6893   21.9725 C   0  0  0  0  0  0  0  0  0  0  0  0
    7.8672  -15.6429   22.9826 C   0  0  2  0  0  0  0  0  0  0  0  0
    6.7703  -14.8493   22.4652 N   0  0  0  0  0  0  0  0  0  0  0  0
    8.3197  -15.0616   24.2543 C   0  0  0  0  0  0  0  0  0  0  0  0
    9.3101  -15.6892   24.8010 O   0  0  0  0  0  0  0  0  0  0  0  0
    8.5795  -12.5491   19.7249 N   0  0  0  0  0  0  0  0  0  0  0  0
    7.8429  -13.9474   24.9400 C   0  0  0  0  0  0  0  0  0  0  0  0
    7.2260  -12.7669   24.2234 C   0  0  0  0  0  0  0  0  0  0  0  0
    5.8891  -12.7073   24.9775 C   0  0  0  0  0  0  0  0  0  0  0  0
    6.1349  -13.4482   26.3185 C   0  0  2  0  0  0  0  0  0  0  0  0
    7.6233  -13.5263   26.2843 C   0  0  0  0  0  0  0  0  0  0  0  0
    8.3413  -14.1274   27.3685 O   0  0  0  0  0  0  0  0  0  0  0  0
    7.7940  -14.3548   28.4741 N   0  0  0  0  0  0  0  0  0  0  0  0
    9.7299  -14.5164   27.2863 C   0  0  1  0  0  0  0  0  0  0  0  0
   10.3363  -15.3952   28.2602 C   0  0  0  0  0  0  0  0  0  0  0  0
    9.7255  -16.7858   28.0225 C   0  0  0  0  0  0  0  0  0  0  0  0
   10.3580  -17.4494   26.8359 C   0  0  0  0  0  0  0  0  0  0  0  0
    9.8002  -18.8123   26.6908 O   0  0  0  0  0  0  0  0  0  0  0  0
    9.8565  -19.6031   27.6613 C   0  0  0  0  0  0  0  0  0  0  0  0
   11.7863  -15.5101   28.0551 O   0  0  0  0  0  0  0  0  0  0  0  0
   12.4139  -15.0841   27.0549 O   0  0  0  0  0  0  0  0  0  0  0  0
    9.2099  -19.2530   25.5075 O   0  0  0  0  0  0  0  0  0  0  0  0
  2  1  1  0
  3  2  2  0
  4  2  1  0
  5  4  1  0
  6  5  1  0
  7  6  1  0
  8  9  1  6
  8  7  1  0
 10  8  1  0
 11 10  2  0
 12 16  1  0
 12 10  1  0
 13 12  1  0
 14 13  1  0
 14 15  1  0
 15 16  1  0
 17 19  1  0
 16 17  1  6
 18 17  2  0
 20 19  1  0
 20 25  1  0
 20 21  1  1
 22 21  1  0
 23 22  1  0
 24 23  2  0
 25 26  2  0
 25 28  1  0
 27 23  1  0
M  END
$$$$
