RPE.pdb
     RDKit          3D

 28 28  0  0  1  0  0  0  0  0999 V2000
    7.6845  -11.6686   18.4232 N   0  0  0  0  0  0  0  0  0  0  0  0
    7.9318  -13.0525   18.1206 C   0  0  0  0  0  0  0  0  0  0  0  0
    8.1193  -13.3423   16.8966 N   0  0  0  0  0  0  0  0  0  0  0  0
    7.9630  -14.0419   19.1226 N   0  0  0  0  0  0  0  0  0  0  0  0
    6.8223  -14.2631   19.9604 C   0  0  0  0  0  0  0  0  0  0  0  0
    7.0127  -15.3085   21.0286 C   0  0  0  0  0  0  0  0  0  0  0  0
    8.4145  -15.7909   21.1740 C   0  0  0  0  0  0  0  0  0  0  0  0
    9.1011  -15.0809   22.3378 C   0  0  2  0  0  0  0  0  0  0  0  0
   10.5081  -15.4265   22.3788 N   0  0  0  0  0  0  0  0  0  0  0  0
    8.4792  -15.4554   23.6156 C   0  0  0  0  0  0  0  0  0  0  0  0
    8.2921  -16.7272   23.7610 O   0  0  0  0  0  0  0  0  0  0  0  0
    8.3917  -14.3104   16.5866 N   0  0  0  0  0  0  0  0  0  0  0  0
    8.0732  -14.6481   24.6751 C   0  0  0  0  0  0  0  0  0  0  0  0
    8.2398  -13.1451   24.6489 C   0  0  0  0  0  0  0  0  0  0  0  0
    6.7857  -12.7429   24.9377 C   0  0  0  0  0  0  0  0  0  0  0  0
    6.1378  -13.9815   25.6113 C   0  0  2  0  0  0  0  0  0  0  0  0
    7.3685  -14.7686   25.9086 C   0  0  0  0  0  0  0  0  0  0  0  0
    7.2755  -16.0303   26.5807 O   0  0  0  0  0  0  0  0  0  0  0  0
    6.3232  -16.8192   26.3702 N   0  0  0  0  0  0  0  0  0  0  0  0
    8.2495  -16.4957   27.5405 C   0  0  1  0  0  0  0  0  0  0  0  0
    8.7005  -17.8684   27.5673 C   0  0  0  0  0  0  0  0  0  0  0  0
    9.4303  -18.1065   26.2353 C   0  0  0  0  0  0  0  0  0  0  0  0
   10.6353  -18.9760   26.4365 C   0  0  0  0  0  0  0  0  0  0  0  0
   11.3107  -19.1734   25.1348 O   0  0  0  0  0  0  0  0  0  0  0  0
   10.8463  -18.6152   24.1135 C   0  0  0  0  0  0  0  0  0  0  0  0
    9.6692  -18.0977   28.6474 O   0  0  0  0  0  0  0  0  0  0  0  0
   10.2944  -17.2006   29.2642 O   0  0  0  0  0  0  0  0  0  0  0  0
   12.4522  -19.9620   25.0004 O   0  0  0  0  0  0  0  0  0  0  0  0
  2  1  1  0
  3  2  2  0
  4  2  1  0
  5  4  1  0
  6  5  1  0
  7  6  1  0
  8  9  1  1
  8  7  1  0
 10  8  1  0
 11 10  2  0
 12 16  1  0
 12 10  1  0
 13 12  1  0
 14 13  1  0
 14 15  1  0
 15 16  1  0
 17 19  1  0
 16 17  1  6
 18 17  2  0
 20 19  1  0
 20 25  1  0
 20 21  1  1
 22 21  1  0
 23 22  1  0
 24 23  2  0
 25 26  2  0
 25 28  1  0
 27 23  1  0
M  END
$$$$
