TCM.pdb
     RDKit          3D

 22 21  0  0  1  0  0  0  0  0999 V2000
   10.5219  -14.9029   19.3391 C   0  0  0  0  0  0  0  0  0  0  0  0
    9.8210  -13.5934   19.0920 C   0  0  1  0  0  0  0  0  0  0  0  0
   10.1570  -13.1411   17.8087 O   0  0  0  0  0  0  0  0  0  0  0  0
    8.3129  -13.7983   19.1830 C   0  0  2  0  0  0  0  0  0  0  0  0
    7.6332  -12.6111   18.6954 N   0  0  0  0  0  0  0  0  0  0  0  0
    7.9086  -14.2163   20.5339 C   0  0  0  0  0  0  0  0  0  0  0  0
    7.8527  -13.3201   21.4601 O   0  0  0  0  0  0  0  0  0  0  0  0
    7.5641  -15.5170   20.9597 N   0  0  0  0  0  0  0  0  0  0  0  0
    7.3662  -15.8438   22.3657 C   0  0  1  0  0  0  0  0  0  0  0  0
    6.5201  -17.1253   22.4892 C   0  0  0  0  0  0  0  0  0  0  0  0
    7.4334  -18.5370   21.8133 S   0  0  0  0  0  0  0  0  0  0  0  0
    8.5942  -15.9138   23.1517 C   0  0  0  0  0  0  0  0  0  0  0  0
    9.5701  -15.1346   22.8787 O   0  0  0  0  0  0  0  0  0  0  0  0
   10.5103  -12.8556   29.4643 C   0  0  0  0  0  0  0  0  0  0  0  0
    9.4832  -13.3681   28.1113 S   0  0  0  0  0  0  0  0  0  0  0  0
   10.0285  -14.8475   27.2455 C   0  0  0  0  0  0  0  0  0  0  0  0
    9.1731  -15.2427   26.0828 C   0  0  0  0  0  0  0  0  0  0  0  0
    9.6904  -16.4333   25.3782 C   0  0  2  0  0  0  0  0  0  0  0  0
    8.8178  -16.7987   24.2367 N   0  0  0  0  0  0  0  0  0  0  0  0
    9.7611  -17.5861   26.2999 C   0  0  0  0  0  0  0  0  0  0  0  0
    8.6335  -18.4517   26.3678 O   0  0  0  0  0  0  0  0  0  0  0  0
   10.7103  -17.8755   27.0227 O   0  0  0  0  0  0  0  0  0  0  0  0
  2  4  1  0
  2  1  1  6
  3  2  1  0
  4  5  1  1
  6  4  1  0
  7  6  2  0
  8  6  1  0
  9  8  1  0
  9 12  1  0
  9 10  1  6
 11 10  1  0
 12 19  1  0
 13 12  2  0
 15 14  1  0
 16 17  1  0
 16 15  1  0
 18 17  1  1
 19 18  1  0
 20 18  1  0
 20 21  1  0
 22 20  2  0
M  END
$$$$
