TCM.pdb
     RDKit          3D

 22 21  0  0  1  0  0  0  0  0999 V2000
    9.4691  -12.6985   19.8067 C   0  0  0  0  0  0  0  0  0  0  0  0
    8.4119  -13.1198   18.8208 C   0  0  1  0  0  0  0  0  0  0  0  0
    8.6313  -12.4435   17.6129 O   0  0  0  0  0  0  0  0  0  0  0  0
    8.5036  -14.6239   18.5882 C   0  0  2  0  0  0  0  0  0  0  0  0
    7.5965  -15.0042   17.5196 N   0  0  0  0  0  0  0  0  0  0  0  0
    8.3139  -15.3730   19.8396 C   0  0  0  0  0  0  0  0  0  0  0  0
    7.1091  -15.5788   20.2523 O   0  0  0  0  0  0  0  0  0  0  0  0
    9.3162  -15.9119   20.6744 N   0  0  0  0  0  0  0  0  0  0  0  0
    8.9970  -16.6470   21.8911 C   0  0  1  0  0  0  0  0  0  0  0  0
    9.7513  -17.9903   21.9019 C   0  0  0  0  0  0  0  0  0  0  0  0
    9.4928  -18.8318   23.4859 S   0  0  0  0  0  0  0  0  0  0  0  0
    9.1925  -15.8927   23.1255 C   0  0  0  0  0  0  0  0  0  0  0  0
   10.3217  -15.3429   23.3636 O   0  0  0  0  0  0  0  0  0  0  0  0
    5.6764  -11.3421   26.1280 C   0  0  0  0  0  0  0  0  0  0  0  0
    7.0166  -11.7967   27.1983 S   0  0  0  0  0  0  0  0  0  0  0  0
    7.4964  -13.5293   27.1410 C   0  0  0  0  0  0  0  0  0  0  0  0
    7.2959  -14.1902   25.8133 C   0  0  0  0  0  0  0  0  0  0  0  0
    8.4898  -14.9358   25.3658 C   0  0  2  0  0  0  0  0  0  0  0  0
    8.2080  -15.7007   24.1276 N   0  0  0  0  0  0  0  0  0  0  0  0
    8.9258  -15.8841   26.4118 C   0  0  0  0  0  0  0  0  0  0  0  0
    9.8930  -15.4344   27.3541 O   0  0  0  0  0  0  0  0  0  0  0  0
    8.5301  -17.0379   26.5508 O   0  0  0  0  0  0  0  0  0  0  0  0
  2  4  1  0
  2  1  1  1
  3  2  1  0
  4  5  1  6
  6  4  1  0
  7  6  2  0
  8  6  1  0
  9  8  1  0
  9 12  1  0
  9 10  1  1
 11 10  1  0
 12 19  1  0
 13 12  2  0
 15 14  1  0
 16 17  1  0
 16 15  1  0
 18 17  1  1
 19 18  1  0
 20 18  1  0
 20 21  1  0
 22 20  2  0
M  END
$$$$
