TCM.pdb
     RDKit          3D

 22 21  0  0  1  0  0  0  0  0999 V2000
    9.3317  -12.7471   19.5127 C   0  0  0  0  0  0  0  0  0  0  0  0
    8.4547  -13.3120   18.4270 C   0  0  1  0  0  0  0  0  0  0  0  0
    8.7341  -12.6384   17.2300 O   0  0  0  0  0  0  0  0  0  0  0  0
    8.7484  -14.7985   18.2576 C   0  0  2  0  0  0  0  0  0  0  0  0
    8.0492  -15.2993   17.0872 N   0  0  0  0  0  0  0  0  0  0  0  0
    8.4717  -15.5446   19.4943 C   0  0  0  0  0  0  0  0  0  0  0  0
    7.2411  -15.7640   19.8137 O   0  0  0  0  0  0  0  0  0  0  0  0
    9.4129  -16.0672   20.4070 N   0  0  0  0  0  0  0  0  0  0  0  0
    9.0109  -16.6918   21.6604 C   0  0  1  0  0  0  0  0  0  0  0  0
    9.7497  -18.0322   21.8357 C   0  0  0  0  0  0  0  0  0  0  0  0
    9.4893  -18.6672   23.5128 S   0  0  0  0  0  0  0  0  0  0  0  0
    9.1362  -15.8333   22.8343 C   0  0  0  0  0  0  0  0  0  0  0  0
   10.2630  -15.2987   23.1148 O   0  0  0  0  0  0  0  0  0  0  0  0
    5.9378  -10.6611   27.9167 C   0  0  0  0  0  0  0  0  0  0  0  0
    5.7375  -11.8857   26.6483 S   0  0  0  0  0  0  0  0  0  0  0  0
    7.2112  -12.8400   26.2571 C   0  0  0  0  0  0  0  0  0  0  0  0
    7.0537  -13.7935   25.1145 C   0  0  0  0  0  0  0  0  0  0  0  0
    8.2741  -14.5881   24.8678 C   0  0  2  0  0  0  0  0  0  0  0  0
    8.0832  -15.5198   23.7306 N   0  0  0  0  0  0  0  0  0  0  0  0
    8.6239  -15.3788   26.0660 C   0  0  0  0  0  0  0  0  0  0  0  0
    9.3793  -14.7372   27.0874 O   0  0  0  0  0  0  0  0  0  0  0  0
    8.3225  -16.5512   26.2709 O   0  0  0  0  0  0  0  0  0  0  0  0
  2  4  1  0
  2  1  1  1
  3  2  1  0
  4  5  1  6
  6  4  1  0
  7  6  2  0
  8  6  1  0
  9  8  1  0
  9 12  1  0
  9 10  1  1
 11 10  1  0
 12 19  1  0
 13 12  2  0
 15 14  1  0
 16 17  1  0
 16 15  1  0
 18 17  1  1
 19 18  1  0
 20 18  1  0
 20 21  1  0
 22 20  2  0
M  END
$$$$
