TCM.pdb
     RDKit          3D

 22 21  0  0  1  0  0  0  0  0999 V2000
   11.7615  -18.4910   20.9240 C   0  0  0  0  0  0  0  0  0  0  0  0
   11.3211  -17.7280   19.7030 C   0  0  1  0  0  0  0  0  0  0  0  0
   12.1204  -18.1173   18.6194 O   0  0  0  0  0  0  0  0  0  0  0  0
    9.8611  -18.0483   19.4020 C   0  0  2  0  0  0  0  0  0  0  0  0
    9.5053  -17.5072   18.1020 N   0  0  0  0  0  0  0  0  0  0  0  0
    8.9804  -17.6190   20.4988 C   0  0  0  0  0  0  0  0  0  0  0  0
    8.6606  -16.3714   20.5736 O   0  0  0  0  0  0  0  0  0  0  0  0
    8.4233  -18.4255   21.5143 N   0  0  0  0  0  0  0  0  0  0  0  0
    7.5301  -17.8837   22.5298 C   0  0  1  0  0  0  0  0  0  0  0  0
    6.7749  -19.0317   23.2263 C   0  0  0  0  0  0  0  0  0  0  0  0
    5.8992  -18.4021   24.6825 S   0  0  0  0  0  0  0  0  0  0  0  0
    8.1703  -16.9835   23.4841 C   0  0  0  0  0  0  0  0  0  0  0  0
    9.3003  -17.2953   23.9940 O   0  0  0  0  0  0  0  0  0  0  0  0
    5.3544  -11.6037   26.5021 C   0  0  0  0  0  0  0  0  0  0  0  0
    7.0389  -11.6208   27.0594 S   0  0  0  0  0  0  0  0  0  0  0  0
    8.0063  -13.0487   26.5490 C   0  0  0  0  0  0  0  0  0  0  0  0
    7.4090  -13.8406   25.4284 C   0  0  0  0  0  0  0  0  0  0  0  0
    8.2874  -14.9406   24.9812 C   0  0  2  0  0  0  0  0  0  0  0  0
    7.6383  -15.7425   23.9165 N   0  0  0  0  0  0  0  0  0  0  0  0
    8.6062  -15.8364   26.1122 C   0  0  0  0  0  0  0  0  0  0  0  0
    9.7898  -15.5705   26.8564 O   0  0  0  0  0  0  0  0  0  0  0  0
    7.9411  -16.8009   26.4792 O   0  0  0  0  0  0  0  0  0  0  0  0
  2  4  1  0
  2  1  1  1
  3  2  1  0
  4  5  1  6
  6  4  1  0
  7  6  2  0
  8  6  1  0
  9  8  1  0
  9 12  1  0
  9 10  1  1
 11 10  1  0
 12 19  1  0
 13 12  2  0
 15 14  1  0
 16 17  1  0
 16 15  1  0
 18 17  1  1
 19 18  1  0
 20 18  1  0
 20 21  1  0
 22 20  2  0
M  END
$$$$
