TCM.pdb
     RDKit          3D

 22 21  0  0  1  0  0  0  0  0999 V2000
   11.1139  -19.3084   21.6554 C   0  0  0  0  0  0  0  0  0  0  0  0
   11.7261  -18.8135   20.3719 C   0  0  1  0  0  0  0  0  0  0  0  0
   12.1141  -19.9206   19.6050 O   0  0  0  0  0  0  0  0  0  0  0  0
   10.6979  -17.9929   19.6011 C   0  0  2  0  0  0  0  0  0  0  0  0
   11.2241  -17.6698   18.2865 N   0  0  0  0  0  0  0  0  0  0  0  0
   10.2499  -16.8272   20.3779 C   0  0  0  0  0  0  0  0  0  0  0  0
   11.0476  -15.8186   20.4819 O   0  0  0  0  0  0  0  0  0  0  0  0
    9.0177  -16.6674   21.0473 N   0  0  0  0  0  0  0  0  0  0  0  0
    8.7233  -15.4919   21.8560 C   0  0  1  0  0  0  0  0  0  0  0  0
    7.4006  -14.8552   21.3886 C   0  0  0  0  0  0  0  0  0  0  0  0
    6.0610  -16.0718   21.4842 S   0  0  0  0  0  0  0  0  0  0  0  0
    8.7466  -15.7245   23.2969 C   0  0  0  0  0  0  0  0  0  0  0  0
    8.1415  -16.7378   23.7880 O   0  0  0  0  0  0  0  0  0  0  0  0
    6.2050  -10.7924   27.1669 C   0  0  0  0  0  0  0  0  0  0  0  0
    6.2415  -12.4380   26.5041 S   0  0  0  0  0  0  0  0  0  0  0  0
    7.7816  -13.3345   26.7485 C   0  0  0  0  0  0  0  0  0  0  0  0
    7.8319  -14.6806   26.0964 C   0  0  0  0  0  0  0  0  0  0  0  0
    9.2018  -15.0686   25.7033 C   0  0  2  0  0  0  0  0  0  0  0  0
    9.4058  -14.9014   24.2445 N   0  0  0  0  0  0  0  0  0  0  0  0
    9.4559  -16.4819   26.0517 C   0  0  0  0  0  0  0  0  0  0  0  0
    9.0886  -17.4760   25.1018 O   0  0  0  0  0  0  0  0  0  0  0  0
    9.9605  -16.8891   27.0942 O   0  0  0  0  0  0  0  0  0  0  0  0
  2  4  1  0
  2  1  1  1
  3  2  1  0
  4  5  1  6
  6  4  1  0
  7  6  2  0
  8  6  1  0
  9  8  1  0
  9 12  1  0
  9 10  1  6
 11 10  1  0
 12 19  1  0
 13 12  2  0
 15 14  1  0
 16 17  1  0
 16 15  1  0
 18 17  1  6
 19 18  1  0
 20 18  1  0
 20 21  1  0
 22 20  2  0
M  END
$$$$
