TCM.pdb
     RDKit          3D

 22 21  0  0  1  0  0  0  0  0999 V2000
   11.8542  -18.4095   21.2108 C   0  0  0  0  0  0  0  0  0  0  0  0
   12.8040  -17.4788   20.5044 C   0  0  1  0  0  0  0  0  0  0  0  0
   13.6201  -18.2347   19.6517 O   0  0  0  0  0  0  0  0  0  0  0  0
   12.0101  -16.4660   19.6867 C   0  0  2  0  0  0  0  0  0  0  0  0
   12.9217  -15.6774   18.8766 N   0  0  0  0  0  0  0  0  0  0  0  0
   11.1149  -15.6705   20.5404 C   0  0  0  0  0  0  0  0  0  0  0  0
   11.6208  -14.6927   21.2130 O   0  0  0  0  0  0  0  0  0  0  0  0
    9.7269  -15.8480   20.7243 N   0  0  0  0  0  0  0  0  0  0  0  0
    8.9770  -15.0998   21.7245 C   0  0  1  0  0  0  0  0  0  0  0  0
    7.5219  -14.9136   21.2540 C   0  0  0  0  0  0  0  0  0  0  0  0
    6.5758  -16.4297   21.5549 S   0  0  0  0  0  0  0  0  0  0  0  0
    9.0559  -15.6451   23.0762 C   0  0  0  0  0  0  0  0  0  0  0  0
    8.6604  -16.8390   23.3052 O   0  0  0  0  0  0  0  0  0  0  0  0
    7.3797  -11.1804   26.9651 C   0  0  0  0  0  0  0  0  0  0  0  0
    6.1568  -12.4622   27.0629 S   0  0  0  0  0  0  0  0  0  0  0  0
    6.7098  -14.0969   26.5554 C   0  0  0  0  0  0  0  0  0  0  0  0
    7.5409  -14.1176   25.3111 C   0  0  0  0  0  0  0  0  0  0  0  0
    8.7939  -14.8813   25.4797 C   0  0  2  0  0  0  0  0  0  0  0  0
    9.5522  -14.9496   24.2077 N   0  0  0  0  0  0  0  0  0  0  0  0
    8.5002  -16.2598   25.9232 C   0  0  0  0  0  0  0  0  0  0  0  0
    8.8900  -16.6303   27.2409 O   0  0  0  0  0  0  0  0  0  0  0  0
    7.9446  -17.1294   25.2582 O   0  0  0  0  0  0  0  0  0  0  0  0
  2  4  1  0
  2  1  1  6
  3  2  1  0
  4  5  1  1
  6  4  1  0
  7  6  2  0
  8  6  1  0
  9  8  1  0
  9 12  1  0
  9 10  1  6
 11 10  1  0
 12 19  1  0
 13 12  2  0
 15 14  1  0
 16 17  1  0
 16 15  1  0
 18 17  1  6
 19 18  1  0
 20 18  1  0
 20 21  1  0
 22 20  2  0
M  END
$$$$
