VYT.pdb
     RDKit          3D

 27 27  0  0  1  0  0  0  0  0999 V2000
    8.7555  -11.9916   20.0982 C   0  0  0  0  0  0  0  0  0  0  0  0
    7.6015  -12.9358   20.3484 C   0  0  1  0  0  0  0  0  0  0  0  0
    6.7464  -12.9319   19.0783 C   0  0  0  0  0  0  0  0  0  0  0  0
    8.1825  -14.3200   20.5557 C   0  0  2  0  0  0  0  0  0  0  0  0
    7.0876  -15.2754   20.6344 N   0  0  0  0  0  0  0  0  0  0  0  0
    8.9485  -14.3788   21.8248 C   0  0  0  0  0  0  0  0  0  0  0  0
   10.1095  -13.9286   21.9435 O   0  0  0  0  0  0  0  0  0  0  0  0
   10.7988  -14.9979   30.3328 O   0  0  0  0  0  0  0  0  0  0  0  0
   10.1192  -14.9932   29.1189 C   0  0  0  0  0  0  0  0  0  0  0  0
    9.5747  -16.1467   28.5939 C   0  0  0  0  0  0  0  0  0  0  0  0
    8.9085  -16.0900   27.3839 C   0  0  0  0  0  0  0  0  0  0  0  0
    8.7692  -14.9125   26.6800 C   0  0  0  0  0  0  0  0  0  0  0  0
    8.0488  -14.8685   25.3783 C   0  0  0  0  0  0  0  0  0  0  0  0
    9.0591  -15.0669   24.2469 C   0  0  2  0  0  0  0  0  0  0  0  0
    8.3426  -14.9770   22.9789 N   0  0  0  0  0  0  0  0  0  0  0  0
    9.6962  -16.3891   24.3611 C   0  0  0  0  0  0  0  0  0  0  0  0
    8.9993  -17.4303   24.3860 O   0  0  0  0  0  0  0  0  0  0  0  0
    9.3273  -13.7533   27.2273 C   0  0  0  0  0  0  0  0  0  0  0  0
    9.9859  -13.8202   28.4277 C   0  0  0  0  0  0  0  0  0  0  0  0
   11.8051  -18.0162   21.9477 C   0  0  0  0  0  0  0  0  0  0  0  0
   12.6057  -18.0080   23.2025 C   0  0  1  0  0  0  0  0  0  0  0  0
   13.5985  -17.0567   23.1402 O   0  0  0  0  0  0  0  0  0  0  0  0
   11.7798  -17.7816   24.4492 C   0  0  2  0  0  0  0  0  0  0  0  0
   11.1052  -16.5138   24.4452 N   0  0  0  0  0  0  0  0  0  0  0  0
   12.5753  -17.9938   25.6868 C   0  0  0  0  0  0  0  0  0  0  0  0
   12.7927  -17.0659   26.5079 O   0  0  0  0  0  0  0  0  0  0  0  0
   13.1171  -19.2334   25.9935 O   0  0  0  0  0  0  0  0  0  0  0  0
  2  4  1  0
  2  1  1  6
  3  2  1  0
  4  6  1  0
  4  5  1  1
  6  7  2  0
  9 10  2  0
  9  8  1  0
 11 10  1  0
 12 11  2  0
 14 13  1  1
 13 12  1  0
 15 14  1  0
 15  6  1  0
 16 14  1  0
 16 17  2  0
 18 12  1  0
 18 19  2  0
 19  9  1  0
 21 20  1  6
 21 23  1  0
 22 21  1  0
 23 24  1  6
 23 25  1  0
 24 16  1  0
 25 26  2  0
 25 27  1  0
M  END
$$$$
