VYT.pdb
     RDKit          3D

 27 27  0  0  1  0  0  0  0  0999 V2000
    7.1382  -15.7488   20.5475 C   0  0  0  0  0  0  0  0  0  0  0  0
    7.7329  -14.5837   19.7895 C   0  0  1  0  0  0  0  0  0  0  0  0
    6.8466  -14.3594   18.5612 C   0  0  0  0  0  0  0  0  0  0  0  0
    7.6561  -13.3675   20.6903 C   0  0  2  0  0  0  0  0  0  0  0  0
    8.1746  -12.2185   19.9633 N   0  0  0  0  0  0  0  0  0  0  0  0
    8.4836  -13.5661   21.9055 C   0  0  0  0  0  0  0  0  0  0  0  0
    9.7343  -13.5557   21.8896 O   0  0  0  0  0  0  0  0  0  0  0  0
   10.7305  -15.1111   30.2326 O   0  0  0  0  0  0  0  0  0  0  0  0
   10.0069  -14.7771   29.0923 C   0  0  0  0  0  0  0  0  0  0  0  0
   10.0536  -13.5071   28.5561 C   0  0  0  0  0  0  0  0  0  0  0  0
    9.3162  -13.2248   27.4213 C   0  0  0  0  0  0  0  0  0  0  0  0
    8.5311  -14.1754   26.8039 C   0  0  0  0  0  0  0  0  0  0  0  0
    7.7431  -13.8552   25.5824 C   0  0  0  0  0  0  0  0  0  0  0  0
    8.5910  -14.1730   24.3493 C   0  0  2  0  0  0  0  0  0  0  0  0
    7.8332  -13.7815   23.1655 N   0  0  0  0  0  0  0  0  0  0  0  0
    8.8849  -15.6143   24.2930 C   0  0  0  0  0  0  0  0  0  0  0  0
    7.9537  -16.4528   24.2805 O   0  0  0  0  0  0  0  0  0  0  0  0
    8.4960  -15.4572   27.3612 C   0  0  0  0  0  0  0  0  0  0  0  0
    9.2308  -15.7269   28.4865 C   0  0  0  0  0  0  0  0  0  0  0  0
   10.2264  -17.6613   21.6858 C   0  0  0  0  0  0  0  0  0  0  0  0
   11.1554  -17.8563   22.8324 C   0  0  1  0  0  0  0  0  0  0  0  0
   12.3200  -17.1480   22.6411 O   0  0  0  0  0  0  0  0  0  0  0  0
   10.5587  -17.4775   24.1695 C   0  0  2  0  0  0  0  0  0  0  0  0
   10.2212  -16.0840   24.2518 N   0  0  0  0  0  0  0  0  0  0  0  0
   11.4135  -17.9190   25.3026 C   0  0  0  0  0  0  0  0  0  0  0  0
   11.8826  -17.1068   26.1409 O   0  0  0  0  0  0  0  0  0  0  0  0
   11.7342  -19.2559   25.4873 O   0  0  0  0  0  0  0  0  0  0  0  0
  2  4  1  0
  2  1  1  1
  3  2  1  0
  4  6  1  0
  4  5  1  6
  6  7  2  0
  9 10  2  0
  9  8  1  0
 11 10  1  0
 12 11  2  0
 14 13  1  1
 13 12  1  0
 15 14  1  0
 15  6  1  0
 16 14  1  0
 16 17  2  0
 18 12  1  0
 18 19  2  0
 19  9  1  0
 21 20  1  6
 21 23  1  0
 22 21  1  0
 23 24  1  6
 23 25  1  0
 24 16  1  0
 25 26  2  0
 25 27  1  0
M  END
$$$$
