VYT.pdb
     RDKit          3D

 27 27  0  0  1  0  0  0  0  0999 V2000
    6.1890  -16.3603   20.9720 C   0  0  0  0  0  0  0  0  0  0  0  0
    7.3150  -16.4728   19.9695 C   0  0  1  0  0  0  0  0  0  0  0  0
    6.6900  -16.2915   18.5835 C   0  0  0  0  0  0  0  0  0  0  0  0
    8.2780  -15.3337   20.2366 C   0  0  2  0  0  0  0  0  0  0  0  0
    9.2835  -15.3202   19.1847 N   0  0  0  0  0  0  0  0  0  0  0  0
    8.9634  -15.5253   21.5383 C   0  0  0  0  0  0  0  0  0  0  0  0
    9.9112  -16.3254   21.7001 O   0  0  0  0  0  0  0  0  0  0  0  0
   10.6054  -14.7738   30.1468 O   0  0  0  0  0  0  0  0  0  0  0  0
   10.1489  -14.5438   28.8528 C   0  0  0  0  0  0  0  0  0  0  0  0
   11.0227  -14.3008   27.8135 C   0  0  0  0  0  0  0  0  0  0  0  0
   10.5195  -14.0781   26.5453 C   0  0  0  0  0  0  0  0  0  0  0  0
    9.1659  -14.0907   26.2828 C   0  0  0  0  0  0  0  0  0  0  0  0
    8.6403  -13.8490   24.9113 C   0  0  0  0  0  0  0  0  0  0  0  0
    9.1161  -14.9765   23.9934 C   0  0  2  0  0  0  0  0  0  0  0  0
    8.5302  -14.7642   22.6741 N   0  0  0  0  0  0  0  0  0  0  0  0
    8.6815  -16.2797   24.5227 C   0  0  0  0  0  0  0  0  0  0  0  0
    7.4680  -16.5048   24.7397 O   0  0  0  0  0  0  0  0  0  0  0  0
    8.2951  -14.3387   27.3482 C   0  0  0  0  0  0  0  0  0  0  0  0
    8.8042  -14.5583   28.6019 C   0  0  0  0  0  0  0  0  0  0  0  0
    8.3343  -19.5375   23.2112 C   0  0  0  0  0  0  0  0  0  0  0  0
    9.3104  -19.6933   24.3241 C   0  0  1  0  0  0  0  0  0  0  0  0
   10.5937  -19.7900   23.8360 O   0  0  0  0  0  0  0  0  0  0  0  0
    9.2511  -18.5791   25.3452 C   0  0  2  0  0  0  0  0  0  0  0  0
    9.6211  -17.3041   24.7974 N   0  0  0  0  0  0  0  0  0  0  0  0
   10.0209  -18.9110   26.5727 C   0  0  0  0  0  0  0  0  0  0  0  0
   10.9546  -18.1802   26.9930 O   0  0  0  0  0  0  0  0  0  0  0  0
    9.7420  -20.0495   27.3145 O   0  0  0  0  0  0  0  0  0  0  0  0
  2  4  1  0
  2  1  1  1
  3  2  1  0
  4  6  1  0
  4  5  1  6
  6  7  2  0
  9 10  2  0
  9  8  1  0
 11 10  1  0
 12 11  2  0
 14 13  1  1
 13 12  1  0
 15 14  1  0
 15  6  1  0
 16 14  1  0
 16 17  2  0
 18 12  1  0
 18 19  2  0
 19  9  1  0
 21 20  1  6
 21 23  1  0
 22 21  1  0
 23 24  1  6
 23 25  1  0
 24 16  1  0
 25 26  2  0
 25 27  1  0
M  END
$$$$
