VYT.pdb
     RDKit          3D

 27 27  0  0  1  0  0  0  0  0999 V2000
    6.5653  -13.0782   20.9380 C   0  0  0  0  0  0  0  0  0  0  0  0
    7.4423  -13.6052   19.8250 C   0  0  1  0  0  0  0  0  0  0  0  0
    8.5803  -12.5963   19.6462 C   0  0  0  0  0  0  0  0  0  0  0  0
    8.0163  -14.9298   20.2858 C   0  0  2  0  0  0  0  0  0  0  0  0
    6.9155  -15.8362   20.5762 N   0  0  0  0  0  0  0  0  0  0  0  0
    8.8144  -14.7494   21.5233 C   0  0  0  0  0  0  0  0  0  0  0  0
   10.0013  -14.3545   21.5192 O   0  0  0  0  0  0  0  0  0  0  0  0
   10.8709  -15.3052   30.0614 O   0  0  0  0  0  0  0  0  0  0  0  0
   10.1685  -15.1893   28.8661 C   0  0  0  0  0  0  0  0  0  0  0  0
    9.4903  -16.2604   28.3227 C   0  0  0  0  0  0  0  0  0  0  0  0
    8.8070  -16.0945   27.1323 C   0  0  0  0  0  0  0  0  0  0  0  0
    8.7806  -14.8875   26.4662 C   0  0  0  0  0  0  0  0  0  0  0  0
    8.0400  -14.7255   25.1853 C   0  0  0  0  0  0  0  0  0  0  0  0
    8.9925  -15.0137   24.0234 C   0  0  2  0  0  0  0  0  0  0  0  0
    8.2104  -15.0373   22.7918 N   0  0  0  0  0  0  0  0  0  0  0  0
    9.6490  -16.3170   24.2163 C   0  0  0  0  0  0  0  0  0  0  0  0
    8.9682  -17.3439   24.4454 O   0  0  0  0  0  0  0  0  0  0  0  0
    9.4736  -13.8129   27.0317 C   0  0  0  0  0  0  0  0  0  0  0  0
   10.1480  -13.9878   28.2123 C   0  0  0  0  0  0  0  0  0  0  0  0
   11.1579  -18.5017   21.9384 C   0  0  0  0  0  0  0  0  0  0  0  0
   12.2436  -18.1988   22.9106 C   0  0  1  0  0  0  0  0  0  0  0  0
   13.1231  -17.2786   22.3870 O   0  0  0  0  0  0  0  0  0  0  0  0
   11.7410  -17.6994   24.2469 C   0  0  2  0  0  0  0  0  0  0  0  0
   11.0591  -16.4395   24.1477 N   0  0  0  0  0  0  0  0  0  0  0  0
   12.8178  -17.6794   25.2714 C   0  0  0  0  0  0  0  0  0  0  0  0
   13.1875  -16.6148   25.8305 O   0  0  0  0  0  0  0  0  0  0  0  0
   13.4676  -18.8420   25.6593 O   0  0  0  0  0  0  0  0  0  0  0  0
  2  4  1  0
  2  1  1  1
  3  2  1  0
  4  6  1  0
  4  5  1  1
  6  7  2  0
  9 10  2  0
  9  8  1  0
 11 10  1  0
 12 11  2  0
 14 13  1  1
 13 12  1  0
 15 14  1  0
 15  6  1  0
 16 14  1  0
 16 17  2  0
 18 12  1  0
 18 19  2  0
 19  9  1  0
 21 20  1  6
 21 23  1  0
 22 21  1  0
 23 24  1  6
 23 25  1  0
 24 16  1  0
 25 26  2  0
 25 27  1  0
M  END
$$$$
