VYT.pdb
     RDKit          3D

 27 27  0  0  1  0  0  0  0  0999 V2000
    7.5873  -16.0344   19.4916 C   0  0  0  0  0  0  0  0  0  0  0  0
    8.1918  -14.6922   19.1469 C   0  0  1  0  0  0  0  0  0  0  0  0
    7.5729  -14.2600   17.8147 C   0  0  0  0  0  0  0  0  0  0  0  0
    7.7798  -13.7155   20.2298 C   0  0  2  0  0  0  0  0  0  0  0  0
    8.2505  -12.3888   19.8612 N   0  0  0  0  0  0  0  0  0  0  0  0
    8.3943  -14.0874   21.5279 C   0  0  0  0  0  0  0  0  0  0  0  0
    9.6001  -13.8888   21.7948 O   0  0  0  0  0  0  0  0  0  0  0  0
    6.7341  -10.0491   27.3496 O   0  0  0  0  0  0  0  0  0  0  0  0
    6.8307  -11.2963   26.7408 C   0  0  0  0  0  0  0  0  0  0  0  0
    8.0371  -11.9575   26.6412 C   0  0  0  0  0  0  0  0  0  0  0  0
    8.0810  -13.1953   26.0270 C   0  0  0  0  0  0  0  0  0  0  0  0
    6.9529  -13.7946   25.5077 C   0  0  0  0  0  0  0  0  0  0  0  0
    7.0173  -15.1279   24.8494 C   0  0  0  0  0  0  0  0  0  0  0  0
    8.1448  -15.1153   23.8155 C   0  0  2  0  0  0  0  0  0  0  0  0
    7.5800  -14.7046   22.5344 N   0  0  0  0  0  0  0  0  0  0  0  0
    8.7319  -16.4592   23.6881 C   0  0  0  0  0  0  0  0  0  0  0  0
    8.0167  -17.4375   23.3690 O   0  0  0  0  0  0  0  0  0  0  0  0
    5.7389  -13.1099   25.6177 C   0  0  0  0  0  0  0  0  0  0  0  0
    5.7061  -11.8830   26.2285 C   0  0  0  0  0  0  0  0  0  0  0  0
   11.2034  -17.8644   21.4076 C   0  0  0  0  0  0  0  0  0  0  0  0
   11.7524  -18.0957   22.7717 C   0  0  1  0  0  0  0  0  0  0  0  0
   12.7906  -17.2302   23.0318 O   0  0  0  0  0  0  0  0  0  0  0  0
   10.7202  -17.9762   23.8707 C   0  0  2  0  0  0  0  0  0  0  0  0
   10.1125  -16.6761   23.9222 N   0  0  0  0  0  0  0  0  0  0  0  0
   11.2629  -18.3983   25.1886 C   0  0  0  0  0  0  0  0  0  0  0  0
   11.3487  -17.6042   26.1605 O   0  0  0  0  0  0  0  0  0  0  0  0
   11.7020  -19.6959   25.4069 O   0  0  0  0  0  0  0  0  0  0  0  0
  2  4  1  0
  2  1  1  1
  3  2  1  0
  4  6  1  0
  4  5  1  6
  6  7  2  0
  9 10  2  0
  9  8  1  0
 11 10  1  0
 12 11  2  0
 14 13  1  1
 13 12  1  0
 15 14  1  0
 15  6  1  0
 16 14  1  0
 16 17  2  0
 18 12  1  0
 18 19  2  0
 19  9  1  0
 21 20  1  6
 21 23  1  0
 22 21  1  0
 23 24  1  1
 23 25  1  0
 24 16  1  0
 25 26  2  0
 25 27  1  0
M  END
$$$$
