VYT.pdb
     RDKit          3D

 27 27  0  0  1  0  0  0  0  0999 V2000
    6.2724  -13.9995   18.8823 C   0  0  0  0  0  0  0  0  0  0  0  0
    7.0459  -14.5049   20.0789 C   0  0  1  0  0  0  0  0  0  0  0  0
    8.0573  -15.5257   19.5500 C   0  0  0  0  0  0  0  0  0  0  0  0
    7.7896  -13.3252   20.6718 C   0  0  2  0  0  0  0  0  0  0  0  0
    8.7268  -12.8215   19.6790 N   0  0  0  0  0  0  0  0  0  0  0  0
    8.5562  -13.7422   21.8716 C   0  0  0  0  0  0  0  0  0  0  0  0
    9.7675  -14.0522   21.8346 O   0  0  0  0  0  0  0  0  0  0  0  0
   10.5661  -15.0580   30.3069 O   0  0  0  0  0  0  0  0  0  0  0  0
    9.8787  -14.7387   29.1403 C   0  0  0  0  0  0  0  0  0  0  0  0
   10.0014  -13.4987   28.5487 C   0  0  0  0  0  0  0  0  0  0  0  0
    9.2973  -13.2299   27.3897 C   0  0  0  0  0  0  0  0  0  0  0  0
    8.4718  -14.1650   26.8019 C   0  0  0  0  0  0  0  0  0  0  0  0
    7.7205  -13.8596   25.5538 C   0  0  0  0  0  0  0  0  0  0  0  0
    8.6032  -14.1956   24.3503 C   0  0  2  0  0  0  0  0  0  0  0  0
    7.8908  -13.7974   23.1408 N   0  0  0  0  0  0  0  0  0  0  0  0
    8.8764  -15.6415   24.3090 C   0  0  0  0  0  0  0  0  0  0  0  0
    7.9346  -16.4641   24.2278 O   0  0  0  0  0  0  0  0  0  0  0  0
    8.3596  -15.4163   27.4153 C   0  0  0  0  0  0  0  0  0  0  0  0
    9.0620  -15.6728   28.5643 C   0  0  0  0  0  0  0  0  0  0  0  0
   10.4136  -17.7745   21.8137 C   0  0  0  0  0  0  0  0  0  0  0  0
   11.2419  -17.9261   23.0411 C   0  0  1  0  0  0  0  0  0  0  0  0
   12.4045  -17.1968   22.9368 O   0  0  0  0  0  0  0  0  0  0  0  0
   10.5226  -17.5331   24.3122 C   0  0  2  0  0  0  0  0  0  0  0  0
   10.2043  -16.1336   24.3597 N   0  0  0  0  0  0  0  0  0  0  0  0
   11.2525  -17.9875   25.5248 C   0  0  0  0  0  0  0  0  0  0  0  0
   11.6248  -17.1854   26.4195 O   0  0  0  0  0  0  0  0  0  0  0  0
   11.5578  -19.3258   25.7251 O   0  0  0  0  0  0  0  0  0  0  0  0
  2  4  1  0
  2  1  1  6
  3  2  1  0
  4  6  1  0
  4  5  1  6
  6  7  2  0
  9 10  2  0
  9  8  1  0
 11 10  1  0
 12 11  2  0
 14 13  1  1
 13 12  1  0
 15 14  1  0
 15  6  1  0
 16 14  1  0
 16 17  2  0
 18 12  1  0
 18 19  2  0
 19  9  1  0
 21 20  1  6
 21 23  1  0
 22 21  1  0
 23 24  1  1
 23 25  1  0
 24 16  1  0
 25 26  2  0
 25 27  1  0
M  END
$$$$
