VYT.pdb
     RDKit          3D

 27 27  0  0  1  0  0  0  0  0999 V2000
    6.6296  -21.6635   20.4141 C   0  0  0  0  0  0  0  0  0  0  0  0
    7.2097  -20.4780   21.1516 C   0  0  1  0  0  0  0  0  0  0  0  0
    8.6431  -20.3018   20.6429 C   0  0  0  0  0  0  0  0  0  0  0  0
    6.3912  -19.2605   20.7719 C   0  0  2  0  0  0  0  0  0  0  0  0
    6.4606  -19.0868   19.3288 N   0  0  0  0  0  0  0  0  0  0  0  0
    6.9389  -18.0424   21.4179 C   0  0  0  0  0  0  0  0  0  0  0  0
    7.7270  -17.2597   20.8427 O   0  0  0  0  0  0  0  0  0  0  0  0
    8.3823  -11.7514   27.3452 O   0  0  0  0  0  0  0  0  0  0  0  0
    7.8451  -12.8501   26.6820 C   0  0  0  0  0  0  0  0  0  0  0  0
    7.9096  -14.1184   27.2204 C   0  0  0  0  0  0  0  0  0  0  0  0
    7.3608  -15.1779   26.5223 C   0  0  0  0  0  0  0  0  0  0  0  0
    6.7476  -15.0086   25.2989 C   0  0  0  0  0  0  0  0  0  0  0  0
    6.1615  -16.1601   24.5600 C   0  0  0  0  0  0  0  0  0  0  0  0
    7.1479  -16.6086   23.4801 C   0  0  2  0  0  0  0  0  0  0  0  0
    6.5559  -17.7345   22.7653 N   0  0  0  0  0  0  0  0  0  0  0  0
    8.4182  -17.0273   24.0951 C   0  0  0  0  0  0  0  0  0  0  0  0
    8.4432  -17.9641   24.9270 O   0  0  0  0  0  0  0  0  0  0  0  0
    6.6915  -13.7162   24.7685 C   0  0  0  0  0  0  0  0  0  0  0  0
    7.2387  -12.6724   25.4688 C   0  0  0  0  0  0  0  0  0  0  0  0
   11.5563  -18.1142   22.2462 C   0  0  0  0  0  0  0  0  0  0  0  0
   11.9351  -17.0368   23.2009 C   0  0  1  0  0  0  0  0  0  0  0  0
   12.1719  -15.8564   22.5338 O   0  0  0  0  0  0  0  0  0  0  0  0
   10.9080  -16.7962   24.2848 C   0  0  2  0  0  0  0  0  0  0  0  0
    9.6357  -16.3835   23.7618 N   0  0  0  0  0  0  0  0  0  0  0  0
   11.4145  -15.8715   25.3325 C   0  0  0  0  0  0  0  0  0  0  0  0
   10.8768  -14.7562   25.5551 O   0  0  0  0  0  0  0  0  0  0  0  0
   12.5105  -16.1996   26.1170 O   0  0  0  0  0  0  0  0  0  0  0  0
  2  4  1  0
  2  1  1  6
  3  2  1  0
  4  6  1  0
  4  5  1  6
  6  7  2  0
  9 10  2  0
  9  8  1  0
 11 10  1  0
 12 11  2  0
 14 13  1  1
 13 12  1  0
 15 14  1  0
 15  6  1  0
 16 14  1  0
 16 17  2  0
 18 12  1  0
 18 19  2  0
 19  9  1  0
 21 20  1  6
 21 23  1  0
 22 21  1  0
 23 24  1  6
 23 25  1  0
 24 16  1  0
 25 26  2  0
 25 27  1  0
M  END
$$$$
