VYT.pdb
     RDKit          3D

 27 27  0  0  1  0  0  0  0  0999 V2000
    7.6101  -18.5232   20.2019 C   0  0  0  0  0  0  0  0  0  0  0  0
    8.9350  -18.2688   19.5195 C   0  0  1  0  0  0  0  0  0  0  0  0
    8.8054  -18.8077   18.0922 C   0  0  0  0  0  0  0  0  0  0  0  0
    9.1413  -16.7683   19.4707 C   0  0  2  0  0  0  0  0  0  0  0  0
   10.3686  -16.4926   18.7389 N   0  0  0  0  0  0  0  0  0  0  0  0
    9.2780  -16.2164   20.8409 C   0  0  0  0  0  0  0  0  0  0  0  0
   10.3053  -16.3667   21.5386 O   0  0  0  0  0  0  0  0  0  0  0  0
    7.1370  -12.0098   28.2605 O   0  0  0  0  0  0  0  0  0  0  0  0
    7.1458  -12.4652   26.9459 C   0  0  0  0  0  0  0  0  0  0  0  0
    7.9204  -11.8588   25.9790 C   0  0  0  0  0  0  0  0  0  0  0  0
    7.8946  -12.3488   24.6866 C   0  0  0  0  0  0  0  0  0  0  0  0
    7.1161  -13.4295   24.3294 C   0  0  0  0  0  0  0  0  0  0  0  0
    7.0997  -13.9448   22.9332 C   0  0  0  0  0  0  0  0  0  0  0  0
    8.2822  -14.8966   22.7432 C   0  0  2  0  0  0  0  0  0  0  0  0
    8.1894  -15.4730   21.4060 N   0  0  0  0  0  0  0  0  0  0  0  0
    8.2356  -15.9712   23.7483 C   0  0  0  0  0  0  0  0  0  0  0  0
    7.3164  -16.8226   23.7261 O   0  0  0  0  0  0  0  0  0  0  0  0
    6.3375  -14.0315   25.3225 C   0  0  0  0  0  0  0  0  0  0  0  0
    6.3702  -13.5379   26.6010 C   0  0  0  0  0  0  0  0  0  0  0  0
   11.1674  -18.2115   24.1399 C   0  0  0  0  0  0  0  0  0  0  0  0
    9.8732  -18.4333   24.8409 C   0  0  1  0  0  0  0  0  0  0  0  0
    9.9648  -19.4999   25.7061 O   0  0  0  0  0  0  0  0  0  0  0  0
    9.3766  -17.2219   25.5982 C   0  0  2  0  0  0  0  0  0  0  0  0
    9.2245  -16.0667   24.7587 N   0  0  0  0  0  0  0  0  0  0  0  0
   10.2057  -16.9415   26.7996 C   0  0  0  0  0  0  0  0  0  0  0  0
   10.6883  -15.8021   27.0264 O   0  0  0  0  0  0  0  0  0  0  0  0
   10.4860  -17.9307   27.7307 O   0  0  0  0  0  0  0  0  0  0  0  0
  2  4  1  0
  2  1  1  1
  3  2  1  0
  4  6  1  0
  4  5  1  6
  6  7  2  0
  9 10  2  0
  9  8  1  0
 11 10  1  0
 12 11  2  0
 14 13  1  1
 13 12  1  0
 15 14  1  0
 15  6  1  0
 16 14  1  0
 16 17  2  0
 18 12  1  0
 18 19  2  0
 19  9  1  0
 21 20  1  1
 21 23  1  0
 22 21  1  0
 23 24  1  6
 23 25  1  0
 24 16  1  0
 25 26  2  0
 25 27  1  0
M  END
$$$$
