VYT.pdb
     RDKit          3D

 27 27  0  0  1  0  0  0  0  0999 V2000
    7.1284  -13.0702   18.6735 C   0  0  0  0  0  0  0  0  0  0  0  0
    8.0160  -13.0922   19.8972 C   0  0  1  0  0  0  0  0  0  0  0  0
    7.2703  -12.3288   20.9954 C   0  0  0  0  0  0  0  0  0  0  0  0
    8.1782  -14.5394   20.3162 C   0  0  2  0  0  0  0  0  0  0  0  0
    6.8563  -15.1239   20.4860 N   0  0  0  0  0  0  0  0  0  0  0  0
    8.9007  -14.6297   21.6088 C   0  0  0  0  0  0  0  0  0  0  0  0
   10.1468  -14.5707   21.7004 O   0  0  0  0  0  0  0  0  0  0  0  0
   10.4489  -14.6277   30.2219 O   0  0  0  0  0  0  0  0  0  0  0  0
    9.8058  -14.5828   28.9891 C   0  0  0  0  0  0  0  0  0  0  0  0
    9.0094  -15.6216   28.5540 C   0  0  0  0  0  0  0  0  0  0  0  0
    8.3918  -15.5292   27.3207 C   0  0  0  0  0  0  0  0  0  0  0  0
    8.5457  -14.4273   26.5062 C   0  0  0  0  0  0  0  0  0  0  0  0
    7.8736  -14.3435   25.1808 C   0  0  0  0  0  0  0  0  0  0  0  0
    8.8144  -14.9039   24.1126 C   0  0  2  0  0  0  0  0  0  0  0  0
    8.1486  -14.7926   22.8191 N   0  0  0  0  0  0  0  0  0  0  0  0
    9.1159  -16.3174   24.3926 C   0  0  0  0  0  0  0  0  0  0  0  0
    8.1896  -17.1523   24.5164 O   0  0  0  0  0  0  0  0  0  0  0  0
    9.3565  -13.3840   26.9634 C   0  0  0  0  0  0  0  0  0  0  0  0
    9.9645  -13.4855   28.1878 C   0  0  0  0  0  0  0  0  0  0  0  0
   10.6517  -18.8415   22.3709 C   0  0  0  0  0  0  0  0  0  0  0  0
   11.4896  -18.7874   23.6000 C   0  0  1  0  0  0  0  0  0  0  0  0
   12.6752  -18.1335   23.3525 O   0  0  0  0  0  0  0  0  0  0  0  0
   10.8001  -18.1350   24.7775 C   0  0  2  0  0  0  0  0  0  0  0  0
   10.4539  -16.7637   24.5278 N   0  0  0  0  0  0  0  0  0  0  0  0
   11.5749  -18.3016   26.0351 C   0  0  0  0  0  0  0  0  0  0  0  0
   11.8272  -19.4352   26.5184 O   0  0  0  0  0  0  0  0  0  0  0  0
   12.0576  -17.2065   26.7365 O   0  0  0  0  0  0  0  0  0  0  0  0
  2  4  1  0
  2  1  1  6
  3  2  1  0
  4  6  1  0
  4  5  1  1
  6  7  2  0
  9 10  2  0
  9  8  1  0
 11 10  1  0
 12 11  2  0
 14 13  1  1
 13 12  1  0
 15 14  1  0
 15  6  1  0
 16 14  1  0
 16 17  2  0
 18 12  1  0
 18 19  2  0
 19  9  1  0
 21 20  1  6
 21 23  1  0
 22 21  1  0
 23 24  1  6
 23 25  1  0
 24 16  1  0
 25 26  2  0
 25 27  1  0
M  END
$$$$
