WRY.pdb
     RDKit          3D

 38 40  0  0  1  0  0  0  0  0999 V2000
   26.5978  -18.6905  -12.1288 N   0  0  0  0  0  0  0  0  0  0  0  0
   27.1014  -19.9922  -12.4921 C   0  0  1  0  0  0  0  0  0  0  0  0
   26.4719  -21.1069  -11.7433 C   0  0  0  0  0  0  0  0  0  0  0  0
   26.3918  -20.9391  -10.2871 C   0  0  0  0  0  0  0  0  0  0  0  0
   25.2318  -20.9103   -9.4949 C   0  0  0  0  0  0  0  0  0  0  0  0
   25.6071  -20.7636   -8.2216 N   0  0  0  0  0  0  0  0  0  0  0  0
   26.9359  -20.6928   -8.1173 C   0  0  0  0  0  0  0  0  0  0  0  0
   27.8040  -20.5414   -7.0646 C   0  0  0  0  0  0  0  0  0  0  0  0
   29.1580  -20.4939   -7.2495 C   0  0  0  0  0  0  0  0  0  0  0  0
   29.6596  -20.5989   -8.5098 C   0  0  0  0  0  0  0  0  0  0  0  0
   28.7996  -20.7522   -9.5869 C   0  0  0  0  0  0  0  0  0  0  0  0
   27.4382  -20.8012   -9.4041 C   0  0  0  0  0  0  0  0  0  0  0  0
   26.9325  -20.1874  -13.9704 C   0  0  0  0  0  0  0  0  0  0  0  0
   25.9034  -19.7738  -14.5730 O   0  0  0  0  0  0  0  0  0  0  0  0
   33.0466  -24.8426  -17.5756 N   0  0  0  0  0  0  0  0  0  0  0  0
   32.2613  -25.2339  -16.4541 C   0  0  0  0  0  0  0  0  0  0  0  0
   32.5789  -26.3031  -15.7783 N   0  0  0  0  0  0  0  0  0  0  0  0
   31.1278  -24.4795  -16.0487 N   0  0  0  0  0  0  0  0  0  0  0  0
   30.7713  -23.2561  -16.7270 C   0  0  0  0  0  0  0  0  0  0  0  0
   29.5112  -22.7140  -16.1103 C   0  0  0  0  0  0  0  0  0  0  0  0
   29.0764  -21.4430  -16.7621 C   0  0  0  0  0  0  0  0  0  0  0  0
   27.7625  -20.9783  -16.1762 C   0  0  2  0  0  0  0  0  0  0  0  0
   27.9083  -20.8410  -14.7650 N   0  0  0  0  0  0  0  0  0  0  0  0
   26.6560  -21.8807  -16.5716 C   0  0  0  0  0  0  0  0  0  0  0  0
   26.3266  -22.8286  -15.8286 O   0  0  0  0  0  0  0  0  0  0  0  0
   31.9917  -26.6216  -14.9900 O   0  0  0  0  0  0  0  0  0  0  0  0
   21.2194  -17.3224  -16.9394 C   0  0  0  0  0  0  0  0  0  0  0  0
   21.8375  -18.5838  -16.9996 C   0  0  0  0  0  0  0  0  0  0  0  0
   22.7641  -18.9484  -16.0383 C   0  0  0  0  0  0  0  0  0  0  0  0
   23.3890  -20.1727  -16.0644 C   0  0  0  0  0  0  0  0  0  0  0  0
   23.0892  -21.0671  -17.0726 C   0  0  0  0  0  0  0  0  0  0  0  0
   23.7535  -22.3869  -17.1294 C   0  0  1  0  0  0  0  0  0  0  0  0
   24.7975  -22.5066  -18.1893 N   0  0  0  0  0  0  0  0  0  0  0  0
   25.9443  -21.7043  -17.7842 C   0  0  0  0  0  0  0  0  0  0  0  0
   24.3416  -22.2094  -19.5581 O   0  0  0  0  0  0  0  0  0  0  0  0
   24.8364  -21.3080  -20.2706 C   0  0  0  0  0  0  0  0  0  0  0  0
   22.1702  -20.7251  -18.0397 C   0  0  0  0  0  0  0  0  0  0  0  0
   21.5553  -19.4898  -17.9927 O   0  0  0  0  0  0  0  0  0  0  0  0
  2  1  1  1
  3  2  1  0
  4  5  2  0
  4  3  1  0
  6  5  1  0
  7 12  2  0
  7  6  1  0
  8  7  1  0
  9  8  2  0
  9 10  1  0
 10 11  2  0
 11 12  1  0
 12  4  1  0
 13  2  1  0
 14 13  2  0
 16 15  1  0
 17 16  2  0
 18 16  1  0
 19 18  1  0
 19 20  1  0
 20 21  1  0
 22 21  1  1
 22 24  1  0
 22 23  1  0
 23 13  1  0
 24 33  1  0
 25 24  2  0
 26 27  1  0
 27 28  2  0
 27 37  1  0
 28 29  1  0
 29 30  2  0
 30 31  1  0
 32 34  1  0
 32 31  1  1
 33 32  1  0
 34 38  1  0
 35 34  2  0
 36 30  1  0
 37 36  2  0
M  END
$$$$
