WRY.pdb
     RDKit          3D

 38 40  0  0  1  0  0  0  0  0999 V2000
   21.2743  -20.7672  -16.8130 N   0  0  0  0  0  0  0  0  0  0  0  0
   22.3547  -19.9211  -16.3694 C   0  0  1  0  0  0  0  0  0  0  0  0
   21.9034  -18.6655  -15.7219 C   0  0  0  0  0  0  0  0  0  0  0  0
   21.0920  -17.7686  -16.5539 C   0  0  0  0  0  0  0  0  0  0  0  0
   19.6901  -17.6969  -16.6134 C   0  0  0  0  0  0  0  0  0  0  0  0
   19.3641  -16.7320  -17.4774 N   0  0  0  0  0  0  0  0  0  0  0  0
   20.4544  -16.1609  -17.9939 C   0  0  0  0  0  0  0  0  0  0  0  0
   20.6648  -15.1545  -18.9036 C   0  0  0  0  0  0  0  0  0  0  0  0
   21.9240  -14.7636  -19.2659 C   0  0  0  0  0  0  0  0  0  0  0  0
   22.9980  -15.3880  -18.7111 C   0  0  0  0  0  0  0  0  0  0  0  0
   22.8070  -16.4072  -17.7902 C   0  0  0  0  0  0  0  0  0  0  0  0
   21.5424  -16.8017  -17.4234 C   0  0  0  0  0  0  0  0  0  0  0  0
   23.2410  -20.7031  -15.4446 C   0  0  0  0  0  0  0  0  0  0  0  0
   22.7651  -21.3449  -14.4674 O   0  0  0  0  0  0  0  0  0  0  0  0
   29.2043  -23.8431  -17.5518 N   0  0  0  0  0  0  0  0  0  0  0  0
   28.4907  -22.9719  -18.4232 C   0  0  0  0  0  0  0  0  0  0  0  0
   28.0895  -23.4013  -19.5874 N   0  0  0  0  0  0  0  0  0  0  0  0
   28.2018  -21.6316  -18.0511 N   0  0  0  0  0  0  0  0  0  0  0  0
   28.6572  -21.0987  -16.7892 C   0  0  0  0  0  0  0  0  0  0  0  0
   27.4573  -20.7069  -15.9715 C   0  0  0  0  0  0  0  0  0  0  0  0
   26.7427  -21.8999  -15.4275 C   0  0  0  0  0  0  0  0  0  0  0  0
   25.4863  -21.4712  -14.7042 C   0  0  2  0  0  0  0  0  0  0  0  0
   24.6475  -20.7639  -15.6139 N   0  0  0  0  0  0  0  0  0  0  0  0
   25.8138  -20.7018  -13.4812 C   0  0  0  0  0  0  0  0  0  0  0  0
   25.9819  -19.4664  -13.5463 O   0  0  0  0  0  0  0  0  0  0  0  0
   27.6169  -22.7640  -20.2494 O   0  0  0  0  0  0  0  0  0  0  0  0
   20.0244  -21.0813   -9.7774 C   0  0  0  0  0  0  0  0  0  0  0  0
   21.3531  -20.6865  -10.0137 C   0  0  0  0  0  0  0  0  0  0  0  0
   21.7868  -20.4510  -11.3068 C   0  0  0  0  0  0  0  0  0  0  0  0
   23.0781  -20.0641  -11.5768 C   0  0  0  0  0  0  0  0  0  0  0  0
   23.9711  -19.9039  -10.5359 C   0  0  0  0  0  0  0  0  0  0  0  0
   25.3680  -19.4974  -10.7992 C   0  0  1  0  0  0  0  0  0  0  0  0
   26.3156  -20.6347  -10.9900 N   0  0  0  0  0  0  0  0  0  0  0  0
   25.9456  -21.3280  -12.2168 C   0  0  0  0  0  0  0  0  0  0  0  0
   26.4528  -21.5398   -9.8360 O   0  0  0  0  0  0  0  0  0  0  0  0
   26.7509  -21.1512   -8.6849 C   0  0  0  0  0  0  0  0  0  0  0  0
   23.5609  -20.1330   -9.2413 C   0  0  0  0  0  0  0  0  0  0  0  0
   22.2590  -20.5208   -8.9945 O   0  0  0  0  0  0  0  0  0  0  0  0
  2  1  1  1
  3  2  1  0
  4  5  2  0
  4  3  1  0
  6  5  1  0
  7 12  2  0
  7  6  1  0
  8  7  1  0
  9  8  2  0
  9 10  1  0
 10 11  2  0
 11 12  1  0
 12  4  1  0
 13  2  1  0
 14 13  2  0
 16 15  1  0
 17 16  2  0
 18 16  1  0
 19 18  1  0
 19 20  1  0
 20 21  1  0
 22 21  1  6
 22 24  1  0
 22 23  1  0
 23 13  1  0
 24 33  1  0
 25 24  2  0
 26 27  1  0
 27 28  2  0
 27 37  1  0
 28 29  1  0
 29 30  2  0
 30 31  1  0
 32 34  1  0
 32 31  1  6
 33 32  1  0
 34 38  1  0
 35 34  2  0
 36 30  1  0
 37 36  2  0
M  END
$$$$
