WRY.pdb
     RDKit          3D

 38 40  0  0  1  0  0  0  0  0999 V2000
   18.2633   -8.1415  -12.5647 N   0  0  0  0  0  0  0  0  0  0  0  0
   18.8913   -8.0703  -13.8610 C   0  0  1  0  0  0  0  0  0  0  0  0
   20.3291   -8.4338  -13.8494 C   0  0  0  0  0  0  0  0  0  0  0  0
   21.2629   -7.3766  -14.2562 C   0  0  0  0  0  0  0  0  0  0  0  0
   21.2718   -6.0374  -13.8314 C   0  0  0  0  0  0  0  0  0  0  0  0
   22.2999   -5.4248  -14.4243 N   0  0  0  0  0  0  0  0  0  0  0  0
   22.9713   -6.2670  -15.2126 C   0  0  0  0  0  0  0  0  0  0  0  0
   24.0713   -6.1427  -16.0246 C   0  0  0  0  0  0  0  0  0  0  0  0
   24.5566   -7.1985  -16.7454 C   0  0  0  0  0  0  0  0  0  0  0  0
   23.9337   -8.4048  -16.6567 C   0  0  0  0  0  0  0  0  0  0  0  0
   22.8210   -8.5513  -15.8422 C   0  0  0  0  0  0  0  0  0  0  0  0
   22.3312   -7.4921  -15.1158 C   0  0  0  0  0  0  0  0  0  0  0  0
   18.1343   -8.9415  -14.8202 C   0  0  0  0  0  0  0  0  0  0  0  0
   17.8822  -10.1486  -14.5507 O   0  0  0  0  0  0  0  0  0  0  0  0
   12.2019   -5.3461  -19.5127 N   0  0  0  0  0  0  0  0  0  0  0  0
   11.8258   -6.1488  -18.3984 C   0  0  0  0  0  0  0  0  0  0  0  0
   10.6301   -6.0372  -17.8899 N   0  0  0  0  0  0  0  0  0  0  0  0
   12.7313   -7.0787  -17.8208 N   0  0  0  0  0  0  0  0  0  0  0  0
   14.0754   -7.2170  -18.3289 C   0  0  0  0  0  0  0  0  0  0  0  0
   14.8027   -8.2348  -17.4940 C   0  0  0  0  0  0  0  0  0  0  0  0
   16.2056   -8.4375  -17.9633 C   0  0  0  0  0  0  0  0  0  0  0  0
   16.9642   -9.3036  -16.9835 C   0  0  2  0  0  0  0  0  0  0  0  0
   17.6651   -8.4634  -16.0701 N   0  0  0  0  0  0  0  0  0  0  0  0
   17.8392  -10.2662  -17.6925 C   0  0  0  0  0  0  0  0  0  0  0  0
   18.9835   -9.9217  -18.0543 O   0  0  0  0  0  0  0  0  0  0  0  0
   10.3478   -6.6101  -17.0777 O   0  0  0  0  0  0  0  0  0  0  0  0
   22.8840  -16.9299  -19.6128 C   0  0  0  0  0  0  0  0  0  0  0  0
   22.0496  -15.8882  -19.1705 C   0  0  0  0  0  0  0  0  0  0  0  0
   20.9799  -16.1634  -18.3364 C   0  0  0  0  0  0  0  0  0  0  0  0
   20.1424  -15.1715  -17.8839 C   0  0  0  0  0  0  0  0  0  0  0  0
   20.3682  -13.8644  -18.2669 C   0  0  0  0  0  0  0  0  0  0  0  0
   19.4775  -12.7797  -17.8021 C   0  0  1  0  0  0  0  0  0  0  0  0
   18.2488  -12.5939  -18.6287 N   0  0  0  0  0  0  0  0  0  0  0  0
   17.4177  -11.5882  -17.9802 C   0  0  0  0  0  0  0  0  0  0  0  0
   17.5132  -13.8293  -18.9491 O   0  0  0  0  0  0  0  0  0  0  0  0
   16.6003  -14.2954  -18.2319 C   0  0  0  0  0  0  0  0  0  0  0  0
   21.4269  -13.5678  -19.0965 C   0  0  0  0  0  0  0  0  0  0  0  0
   22.2546  -14.5807  -19.5382 O   0  0  0  0  0  0  0  0  0  0  0  0
  2  1  1  1
  3  2  1  0
  4  5  2  0
  4  3  1  0
  6  5  1  0
  7 12  2  0
  7  6  1  0
  8  7  1  0
  9  8  2  0
  9 10  1  0
 10 11  2  0
 11 12  1  0
 12  4  1  0
 13  2  1  0
 14 13  2  0
 16 15  1  0
 17 16  2  0
 18 16  1  0
 19 18  1  0
 19 20  1  0
 20 21  1  0
 22 21  1  6
 22 24  1  0
 22 23  1  0
 23 13  1  0
 24 33  1  0
 25 24  2  0
 26 27  1  0
 27 28  2  0
 27 37  1  0
 28 29  1  0
 29 30  2  0
 30 31  1  0
 32 34  1  0
 32 31  1  6
 33 32  1  0
 34 38  1  0
 35 34  2  0
 36 30  1  0
 37 36  2  0
M  END
$$$$
