WRY.pdb
     RDKit          3D

 38 40  0  0  1  0  0  0  0  0999 V2000
   28.4188  -21.2984  -10.0709 N   0  0  0  0  0  0  0  0  0  0  0  0
   27.0343  -21.3827   -9.6761 C   0  0  1  0  0  0  0  0  0  0  0  0
   26.7628  -20.8299   -8.3269 C   0  0  0  0  0  0  0  0  0  0  0  0
   27.9271  -20.3125   -7.5978 C   0  0  0  0  0  0  0  0  0  0  0  0
   29.2535  -20.2352   -8.0546 C   0  0  0  0  0  0  0  0  0  0  0  0
   29.9895  -19.6800   -7.0882 N   0  0  0  0  0  0  0  0  0  0  0  0
   29.2408  -19.3853   -6.0232 C   0  0  0  0  0  0  0  0  0  0  0  0
   29.5027  -18.8232   -4.7983 C   0  0  0  0  0  0  0  0  0  0  0  0
   28.5192  -18.6377   -3.8666 C   0  0  0  0  0  0  0  0  0  0  0  0
   27.2469  -19.0202   -4.1597 C   0  0  0  0  0  0  0  0  0  0  0  0
   26.9614  -19.5900   -5.3914 C   0  0  0  0  0  0  0  0  0  0  0  0
   27.9477  -19.7770   -6.3303 C   0  0  0  0  0  0  0  0  0  0  0  0
   26.1882  -20.6961  -10.7080 C   0  0  0  0  0  0  0  0  0  0  0  0
   26.0033  -19.4478  -10.6793 O   0  0  0  0  0  0  0  0  0  0  0  0
   26.8352  -25.1348  -15.5203 N   0  0  0  0  0  0  0  0  0  0  0  0
   25.9080  -24.4422  -16.3498 C   0  0  0  0  0  0  0  0  0  0  0  0
   25.0391  -25.1120  -17.0550 N   0  0  0  0  0  0  0  0  0  0  0  0
   25.9061  -23.0238  -16.4288 N   0  0  0  0  0  0  0  0  0  0  0  0
   26.7390  -22.2323  -15.5549 C   0  0  0  0  0  0  0  0  0  0  0  0
   26.0656  -22.1269  -14.2143 C   0  0  0  0  0  0  0  0  0  0  0  0
   25.3053  -20.8495  -14.0738 C   0  0  0  0  0  0  0  0  0  0  0  0
   24.6944  -20.7542  -12.6942 C   0  0  2  0  0  0  0  0  0  0  0  0
   25.5550  -21.4031  -11.7616 N   0  0  0  0  0  0  0  0  0  0  0  0
   23.3103  -21.2827  -12.6886 C   0  0  0  0  0  0  0  0  0  0  0  0
   22.9406  -22.0572  -11.7818 O   0  0  0  0  0  0  0  0  0  0  0  0
   24.3752  -24.6215  -17.6766 O   0  0  0  0  0  0  0  0  0  0  0  0
   15.7974  -18.1549  -10.4977 C   0  0  0  0  0  0  0  0  0  0  0  0
   17.0784  -18.4950  -10.9668 C   0  0  0  0  0  0  0  0  0  0  0  0
   17.8060  -19.4897  -10.3368 C   0  0  0  0  0  0  0  0  0  0  0  0
   19.0614  -19.8494  -10.7666 C   0  0  0  0  0  0  0  0  0  0  0  0
   19.6172  -19.2062  -11.8546 C   0  0  0  0  0  0  0  0  0  0  0  0
   20.9692  -19.5672  -12.3319 C   0  0  2  0  0  0  0  0  0  0  0  0
   20.9857  -20.5736  -13.4340 N   0  0  0  0  0  0  0  0  0  0  0  0
   22.3732  -20.9348  -13.6931 C   0  0  0  0  0  0  0  0  0  0  0  0
   20.2548  -20.1846  -14.6524 O   0  0  0  0  0  0  0  0  0  0  0  0
   19.1369  -20.6504  -14.9657 C   0  0  0  0  0  0  0  0  0  0  0  0
   18.9109  -18.2133  -12.4966 C   0  0  0  0  0  0  0  0  0  0  0  0
   17.6516  -17.8693  -12.0469 O   0  0  0  0  0  0  0  0  0  0  0  0
  2  1  1  6
  3  2  1  0
  4  5  2  0
  4  3  1  0
  6  5  1  0
  7 12  2  0
  7  6  1  0
  8  7  1  0
  9  8  2  0
  9 10  1  0
 10 11  2  0
 11 12  1  0
 12  4  1  0
 13  2  1  0
 14 13  2  0
 16 15  1  0
 17 16  2  0
 18 16  1  0
 19 18  1  0
 19 20  1  0
 20 21  1  0
 22 21  1  6
 22 24  1  0
 22 23  1  0
 23 13  1  0
 24 33  1  0
 25 24  2  0
 26 27  1  0
 27 28  2  0
 27 37  1  0
 28 29  1  0
 29 30  2  0
 30 31  1  0
 32 34  1  0
 32 31  1  1
 33 32  1  0
 34 38  1  0
 35 34  2  0
 36 30  1  0
 37 36  2  0
M  END
$$$$
