WRY.pdb
     RDKit          3D

 38 40  0  0  1  0  0  0  0  0999 V2000
   28.4782  -21.1478  -16.9893 N   0  0  0  0  0  0  0  0  0  0  0  0
   27.7057  -20.3178  -16.0980 C   0  0  1  0  0  0  0  0  0  0  0  0
   26.6491  -19.5310  -16.7792 C   0  0  0  0  0  0  0  0  0  0  0  0
   27.0984  -18.3205  -17.4777 C   0  0  0  0  0  0  0  0  0  0  0  0
   27.3420  -18.1710  -18.8533 C   0  0  0  0  0  0  0  0  0  0  0  0
   27.7106  -16.9058  -19.0704 N   0  0  0  0  0  0  0  0  0  0  0  0
   27.7281  -16.2083  -17.9325 C   0  0  0  0  0  0  0  0  0  0  0  0
   28.0321  -14.9078  -17.6148 C   0  0  0  0  0  0  0  0  0  0  0  0
   27.9696  -14.4479  -16.3286 C   0  0  0  0  0  0  0  0  0  0  0  0
   27.5968  -15.3008  -15.3363 C   0  0  0  0  0  0  0  0  0  0  0  0
   27.2858  -16.6185  -15.6363 C   0  0  0  0  0  0  0  0  0  0  0  0
   27.3468  -17.0835  -16.9283 C   0  0  0  0  0  0  0  0  0  0  0  0
   27.1121  -21.1771  -15.0203 C   0  0  0  0  0  0  0  0  0  0  0  0
   26.4315  -22.2027  -15.2999 O   0  0  0  0  0  0  0  0  0  0  0  0
   22.0743  -19.6340   -9.8328 N   0  0  0  0  0  0  0  0  0  0  0  0
   22.5075  -20.7494   -9.0608 C   0  0  0  0  0  0  0  0  0  0  0  0
   21.8881  -21.0553   -7.9547 N   0  0  0  0  0  0  0  0  0  0  0  0
   23.6101  -21.5459   -9.4708 N   0  0  0  0  0  0  0  0  0  0  0  0
   24.4077  -21.1738  -10.6150 C   0  0  0  0  0  0  0  0  0  0  0  0
   25.8606  -21.3326  -10.2605 C   0  0  0  0  0  0  0  0  0  0  0  0
   26.7542  -20.7644  -11.3133 C   0  0  0  0  0  0  0  0  0  0  0  0
   26.2554  -21.1520  -12.6868 C   0  0  2  0  0  0  0  0  0  0  0  0
   27.2796  -20.8882  -13.6422 N   0  0  0  0  0  0  0  0  0  0  0  0
   24.9717  -20.4795  -12.9949 C   0  0  0  0  0  0  0  0  0  0  0  0
   24.9195  -19.2339  -13.0645 O   0  0  0  0  0  0  0  0  0  0  0  0
   22.1576  -21.8942   -7.4150 O   0  0  0  0  0  0  0  0  0  0  0  0
   22.8314  -23.3219  -19.4027 C   0  0  0  0  0  0  0  0  0  0  0  0
   22.7789  -22.4752  -18.2814 C   0  0  0  0  0  0  0  0  0  0  0  0
   23.9058  -21.7739  -17.8888 C   0  0  0  0  0  0  0  0  0  0  0  0
   23.8928  -20.9371  -16.7982 C   0  0  0  0  0  0  0  0  0  0  0  0
   22.7288  -20.7871  -16.0708 C   0  0  0  0  0  0  0  0  0  0  0  0
   22.6899  -19.9006  -14.8882 C   0  0  1  0  0  0  0  0  0  0  0  0
   22.5037  -20.6126  -13.5897 N   0  0  0  0  0  0  0  0  0  0  0  0
   23.7788  -21.2113  -13.2177 C   0  0  0  0  0  0  0  0  0  0  0  0
   21.3851  -21.5703  -13.5519 O   0  0  0  0  0  0  0  0  0  0  0  0
   21.5311  -22.7949  -13.3420 C   0  0  0  0  0  0  0  0  0  0  0  0
   21.5956  -21.4754  -16.4436 C   0  0  0  0  0  0  0  0  0  0  0  0
   21.6327  -22.3101  -17.5427 O   0  0  0  0  0  0  0  0  0  0  0  0
  2  1  1  6
  3  2  1  0
  4  5  2  0
  4  3  1  0
  6  5  1  0
  7 12  2  0
  7  6  1  0
  8  7  1  0
  9  8  2  0
  9 10  1  0
 10 11  2  0
 11 12  1  0
 12  4  1  0
 13  2  1  0
 14 13  2  0
 16 15  1  0
 17 16  2  0
 18 16  1  0
 19 18  1  0
 19 20  1  0
 20 21  1  0
 22 21  1  1
 22 24  1  0
 22 23  1  0
 23 13  1  0
 24 33  1  0
 25 24  2  0
 26 27  1  0
 27 28  2  0
 27 37  1  0
 28 29  1  0
 29 30  2  0
 30 31  1  0
 32 34  1  0
 32 31  1  1
 33 32  1  0
 34 38  1  0
 35 34  2  0
 36 30  1  0
 37 36  2  0
M  END
$$$$
