APY.pdb
     RDKit          3D

 25 26  0  0  1  0  0  0  0  0999 V2000
    6.2277  -17.9754   20.2426 C   0  0  0  0  0  0  0  0  0  0  0  0
    7.3243  -17.3666   19.3916 C   0  0  2  0  0  0  0  0  0  0  0  0
    7.9727  -18.4260   18.6906 N   0  0  0  0  0  0  0  0  0  0  0  0
    8.1853  -16.4522   20.1371 C   0  0  0  0  0  0  0  0  0  0  0  0
    9.0376  -16.9091   20.9672 O   0  0  0  0  0  0  0  0  0  0  0  0
    8.1576  -15.0118   20.0140 N   0  0  0  0  0  0  0  0  0  0  0  0
    7.4637  -14.3776   18.9431 C   0  0  0  0  0  0  0  0  0  0  0  0
    7.5103  -12.9099   19.2389 C   0  0  0  0  0  0  0  0  0  0  0  0
    8.1473  -12.7442   20.5726 C   0  0  0  0  0  0  0  0  0  0  0  0
    8.7836  -14.0630   20.8534 C   0  0  1  0  0  0  0  0  0  0  0  0
    8.6783  -14.3434   22.3213 C   0  0  0  0  0  0  0  0  0  0  0  0
    7.6628  -14.0290   22.9730 O   0  0  0  0  0  0  0  0  0  0  0  0
    5.6563  -11.4886   27.4033 O   0  0  0  0  0  0  0  0  0  0  0  0
    6.3149  -12.5359   26.7847 C   0  0  0  0  0  0  0  0  0  0  0  0
    7.6731  -12.4970   26.6638 C   0  0  0  0  0  0  0  0  0  0  0  0
    8.3624  -13.5375   26.0455 C   0  0  0  0  0  0  0  0  0  0  0  0
    7.6916  -14.6251   25.5447 C   0  0  0  0  0  0  0  0  0  0  0  0
    8.3869  -15.7177   24.8667 C   0  0  0  0  0  0  0  0  0  0  0  0
    9.7515  -15.2899   24.4231 C   0  0  2  0  0  0  0  0  0  0  0  0
    9.7548  -14.9824   22.9912 N   0  0  0  0  0  0  0  0  0  0  0  0
   10.7459  -16.3091   24.7560 C   0  0  0  0  0  0  0  0  0  0  0  0
   11.3146  -17.1449   23.8345 O   0  0  0  0  0  0  0  0  0  0  0  0
    6.3267  -14.6446   25.6760 C   0  0  0  0  0  0  0  0  0  0  0  0
    5.6199  -13.6183   26.2888 C   0  0  0  0  0  0  0  0  0  0  0  0
   11.1289  -16.4606   25.9675 O   0  0  0  0  0  0  0  0  0  0  0  0
  2  1  1  1
  3  2  1  0
  4  6  1  0
  4  2  1  0
  5  4  2  0
  6 10  1  0
  7  6  1  0
  7  8  1  0
  8  9  1  0
  9 10  1  0
 10 11  1  1
 11 12  2  0
 13 14  1  0
 14 15  2  0
 15 16  1  0
 17 18  1  0
 17 16  2  0
 19 18  1  6
 19 21  1  0
 20 19  1  0
 20 11  1  0
 21 22  1  0
 23 17  1  0
 24 23  2  0
 24 14  1  0
 25 21  2  0
M  END
$$$$
