APY.pdb
     RDKit          3D

 25 26  0  0  1  0  0  0  0  0999 V2000
    7.0582  -17.9499   18.9307 C   0  0  0  0  0  0  0  0  0  0  0  0
    8.2830  -17.0939   18.6765 C   0  0  2  0  0  0  0  0  0  0  0  0
    9.2797  -17.9224   18.0813 N   0  0  0  0  0  0  0  0  0  0  0  0
    8.6900  -16.3174   19.8447 C   0  0  0  0  0  0  0  0  0  0  0  0
    9.3981  -16.8568   20.7568 O   0  0  0  0  0  0  0  0  0  0  0  0
    8.3476  -14.9310   20.0710 N   0  0  0  0  0  0  0  0  0  0  0  0
    7.8395  -14.1168   19.0176 C   0  0  0  0  0  0  0  0  0  0  0  0
    7.4454  -12.8208   19.6572 C   0  0  0  0  0  0  0  0  0  0  0  0
    7.6343  -12.9726   21.1245 C   0  0  0  0  0  0  0  0  0  0  0  0
    8.4708  -14.1980   21.2727 C   0  0  1  0  0  0  0  0  0  0  0  0
    8.0406  -14.9255   22.5096 C   0  0  0  0  0  0  0  0  0  0  0  0
    6.8806  -15.3650   22.6363 O   0  0  0  0  0  0  0  0  0  0  0  0
    7.5494  -20.6700   28.8244 O   0  0  0  0  0  0  0  0  0  0  0  0
    7.7520  -19.8508   27.7284 C   0  0  0  0  0  0  0  0  0  0  0  0
    6.7216  -19.0897   27.2596 C   0  0  0  0  0  0  0  0  0  0  0  0
    6.8969  -18.2558   26.1578 C   0  0  0  0  0  0  0  0  0  0  0  0
    8.1095  -18.1805   25.5193 C   0  0  0  0  0  0  0  0  0  0  0  0
    8.3137  -17.3350   24.3444 C   0  0  0  0  0  0  0  0  0  0  0  0
    8.6939  -15.9436   24.7461 C   0  0  2  0  0  0  0  0  0  0  0  0
    8.9701  -15.1236   23.5645 N   0  0  0  0  0  0  0  0  0  0  0  0
    9.8320  -15.9638   25.6640 C   0  0  0  0  0  0  0  0  0  0  0  0
    9.7102  -16.0665   27.0226 O   0  0  0  0  0  0  0  0  0  0  0  0
    9.1320  -18.9539   26.0059 C   0  0  0  0  0  0  0  0  0  0  0  0
    8.9790  -19.7917   27.1027 C   0  0  0  0  0  0  0  0  0  0  0  0
   11.0251  -15.8795   25.2091 O   0  0  0  0  0  0  0  0  0  0  0  0
  2  1  1  1
  3  2  1  0
  4  6  1  0
  4  2  1  0
  5  4  2  0
  6 10  1  0
  7  6  1  0
  7  8  1  0
  8  9  1  0
  9 10  1  0
 10 11  1  1
 11 12  2  0
 13 14  1  0
 14 15  2  0
 15 16  1  0
 17 18  1  0
 17 16  2  0
 19 18  1  6
 19 21  1  0
 20 19  1  0
 20 11  1  0
 21 22  1  0
 23 17  1  0
 24 23  2  0
 24 14  1  0
 25 21  2  0
M  END
$$$$
