APY.pdb
     RDKit          3D

 25 26  0  0  1  0  0  0  0  0999 V2000
    6.0804  -17.7536   20.8735 C   0  0  0  0  0  0  0  0  0  0  0  0
    7.1058  -17.3223   19.8439 C   0  0  2  0  0  0  0  0  0  0  0  0
    7.6075  -18.4962   19.2081 N   0  0  0  0  0  0  0  0  0  0  0  0
    8.0977  -16.3936   20.3794 C   0  0  0  0  0  0  0  0  0  0  0  0
    9.0161  -16.8156   21.1558 O   0  0  0  0  0  0  0  0  0  0  0  0
    8.1345  -14.9761   20.0967 N   0  0  0  0  0  0  0  0  0  0  0  0
    7.3812  -14.4198   19.0226 C   0  0  0  0  0  0  0  0  0  0  0  0
    7.5309  -12.9344   19.1452 C   0  0  0  0  0  0  0  0  0  0  0  0
    8.2931  -12.6651   20.3936 C   0  0  0  0  0  0  0  0  0  0  0  0
    8.8823  -13.9826   20.7679 C   0  0  1  0  0  0  0  0  0  0  0  0
    8.8949  -14.0953   22.2617 C   0  0  0  0  0  0  0  0  0  0  0  0
    8.2620  -13.2966   22.9803 O   0  0  0  0  0  0  0  0  0  0  0  0
    5.7636  -11.2258   27.0810 O   0  0  0  0  0  0  0  0  0  0  0  0
    6.3728  -12.3360   26.5246 C   0  0  0  0  0  0  0  0  0  0  0  0
    7.6290  -12.6843   26.9263 C   0  0  0  0  0  0  0  0  0  0  0  0
    8.2668  -13.7970   26.3831 C   0  0  0  0  0  0  0  0  0  0  0  0
    7.6462  -14.5682   25.4324 C   0  0  0  0  0  0  0  0  0  0  0  0
    8.3027  -15.7249   24.8256 C   0  0  0  0  0  0  0  0  0  0  0  0
    9.6671  -15.3642   24.3253 C   0  0  2  0  0  0  0  0  0  0  0  0
    9.6412  -15.1333   22.8794 N   0  0  0  0  0  0  0  0  0  0  0  0
   10.6390  -16.3950   24.6875 C   0  0  0  0  0  0  0  0  0  0  0  0
   11.0682  -16.6181   25.9671 O   0  0  0  0  0  0  0  0  0  0  0  0
    6.3840  -14.2008   25.0421 C   0  0  0  0  0  0  0  0  0  0  0  0
    5.7300  -13.0957   25.5705 C   0  0  0  0  0  0  0  0  0  0  0  0
   11.1419  -17.1489   23.7841 O   0  0  0  0  0  0  0  0  0  0  0  0
  2  1  1  1
  3  2  1  0
  4  6  1  0
  4  2  1  0
  5  4  2  0
  6 10  1  0
  7  6  1  0
  7  8  1  0
  8  9  1  0
  9 10  1  0
 10 11  1  1
 11 12  2  0
 13 14  1  0
 14 15  2  0
 15 16  1  0
 17 18  1  0
 17 16  2  0
 19 18  1  6
 19 21  1  0
 20 19  1  0
 20 11  1  0
 21 22  1  0
 23 17  1  0
 24 23  2  0
 24 14  1  0
 25 21  2  0
M  END
$$$$
