APY.pdb
     RDKit          3D

 25 26  0  0  1  0  0  0  0  0999 V2000
    9.8700  -13.5767   18.9956 C   0  0  0  0  0  0  0  0  0  0  0  0
    8.3754  -13.6032   19.2466 C   0  0  2  0  0  0  0  0  0  0  0  0
    7.8662  -12.2953   18.9935 N   0  0  0  0  0  0  0  0  0  0  0  0
    8.0219  -14.2060   20.5291 C   0  0  0  0  0  0  0  0  0  0  0  0
    8.1403  -13.5350   21.6061 O   0  0  0  0  0  0  0  0  0  0  0  0
    7.5278  -15.5547   20.6959 N   0  0  0  0  0  0  0  0  0  0  0  0
    7.1202  -16.3333   19.5743 C   0  0  0  0  0  0  0  0  0  0  0  0
    6.8399  -17.7042   20.1092 C   0  0  0  0  0  0  0  0  0  0  0  0
    7.2183  -17.7071   21.5475 C   0  0  0  0  0  0  0  0  0  0  0  0
    7.3557  -16.2661   21.9046 C   0  0  1  0  0  0  0  0  0  0  0  0
    8.4718  -16.1214   22.8933 C   0  0  0  0  0  0  0  0  0  0  0  0
    9.6524  -15.9637   22.5242 O   0  0  0  0  0  0  0  0  0  0  0  0
    5.9087  -10.7393   26.1283 O   0  0  0  0  0  0  0  0  0  0  0  0
    6.5844  -11.9407   26.2434 C   0  0  0  0  0  0  0  0  0  0  0  0
    5.8762  -13.1015   26.3515 C   0  0  0  0  0  0  0  0  0  0  0  0
    6.5302  -14.3257   26.4688 C   0  0  0  0  0  0  0  0  0  0  0  0
    7.9010  -14.3921   26.4779 C   0  0  0  0  0  0  0  0  0  0  0  0
    8.6129  -15.6601   26.6274 C   0  0  0  0  0  0  0  0  0  0  0  0
    9.2122  -16.0940   25.3257 C   0  0  2  0  0  0  0  0  0  0  0  0
    8.1856  -16.1625   24.2834 N   0  0  0  0  0  0  0  0  0  0  0  0
    9.9093  -17.3703   25.4781 C   0  0  0  0  0  0  0  0  0  0  0  0
   11.1377  -17.4993   26.0660 O   0  0  0  0  0  0  0  0  0  0  0  0
    8.5942  -13.2139   26.3686 C   0  0  0  0  0  0  0  0  0  0  0  0
    7.9624  -11.9830   26.2506 C   0  0  0  0  0  0  0  0  0  0  0  0
    9.3739  -18.4496   25.0469 O   0  0  0  0  0  0  0  0  0  0  0  0
  2  1  1  1
  3  2  1  0
  4  6  1  0
  4  2  1  0
  5  4  2  0
  6 10  1  0
  7  6  1  0
  7  8  1  0
  8  9  1  0
  9 10  1  0
 10 11  1  1
 11 12  2  0
 13 14  1  0
 14 15  2  0
 15 16  1  0
 17 18  1  0
 17 16  2  0
 19 18  1  1
 19 21  1  0
 20 19  1  0
 20 11  1  0
 21 22  1  0
 23 17  1  0
 24 23  2  0
 24 14  1  0
 25 21  2  0
M  END
$$$$
