APY.pdb
     RDKit          3D

 25 26  0  0  1  0  0  0  0  0999 V2000
    5.8289  -17.6652   21.3803 C   0  0  0  0  0  0  0  0  0  0  0  0
    6.8790  -17.3796   20.3253 C   0  0  2  0  0  0  0  0  0  0  0  0
    7.3134  -18.6286   19.7913 N   0  0  0  0  0  0  0  0  0  0  0  0
    7.9218  -16.4681   20.7889 C   0  0  0  0  0  0  0  0  0  0  0  0
    8.8729  -16.9015   21.5182 O   0  0  0  0  0  0  0  0  0  0  0  0
    7.9760  -15.0560   20.4825 N   0  0  0  0  0  0  0  0  0  0  0  0
    7.0400  -14.4603   19.5883 C   0  0  0  0  0  0  0  0  0  0  0  0
    7.2962  -12.9858   19.6521 C   0  0  0  0  0  0  0  0  0  0  0  0
    8.3252  -12.7573   20.7013 C   0  0  0  0  0  0  0  0  0  0  0  0
    8.9065  -14.1058   20.9599 C   0  0  1  0  0  0  0  0  0  0  0  0
    9.2368  -14.2141   22.4171 C   0  0  0  0  0  0  0  0  0  0  0  0
    9.3039  -13.2049   23.1463 O   0  0  0  0  0  0  0  0  0  0  0  0
    6.0627  -11.0313   26.5921 O   0  0  0  0  0  0  0  0  0  0  0  0
    6.6644  -12.2259   26.2395 C   0  0  0  0  0  0  0  0  0  0  0  0
    5.9477  -13.1612   25.5524 C   0  0  0  0  0  0  0  0  0  0  0  0
    6.5278  -14.3729   25.1845 C   0  0  0  0  0  0  0  0  0  0  0  0
    7.8328  -14.6531   25.5041 C   0  0  0  0  0  0  0  0  0  0  0  0
    8.4582  -15.9273   25.1548 C   0  0  0  0  0  0  0  0  0  0  0  0
    9.7397  -15.7085   24.4119 C   0  0  2  0  0  0  0  0  0  0  0  0
    9.4787  -15.4918   22.9872 N   0  0  0  0  0  0  0  0  0  0  0  0
   10.6581  -16.8261   24.6260 C   0  0  0  0  0  0  0  0  0  0  0  0
   11.3466  -17.0309   25.7901 O   0  0  0  0  0  0  0  0  0  0  0  0
    8.5356  -13.6998   26.1954 C   0  0  0  0  0  0  0  0  0  0  0  0
    7.9769  -12.4855   26.5718 C   0  0  0  0  0  0  0  0  0  0  0  0
   10.8580  -17.6801   23.6943 O   0  0  0  0  0  0  0  0  0  0  0  0
  2  1  1  1
  3  2  1  0
  4  6  1  0
  4  2  1  0
  5  4  2  0
  6 10  1  0
  7  6  1  0
  7  8  1  0
  8  9  1  0
  9 10  1  0
 10 11  1  1
 11 12  2  0
 13 14  1  0
 14 15  2  0
 15 16  1  0
 17 18  1  0
 17 16  2  0
 19 18  1  1
 19 21  1  0
 20 19  1  0
 20 11  1  0
 21 22  1  0
 23 17  1  0
 24 23  2  0
 24 14  1  0
 25 21  2  0
M  END
$$$$
