APY.pdb
     RDKit          3D

 25 26  0  0  1  0  0  0  0  0999 V2000
    6.9947  -18.1952   19.2359 C   0  0  0  0  0  0  0  0  0  0  0  0
    7.8432  -17.1496   18.5402 C   0  0  2  0  0  0  0  0  0  0  0  0
    8.5977  -17.8049   17.5227 N   0  0  0  0  0  0  0  0  0  0  0  0
    8.5919  -16.3093   19.4712 C   0  0  0  0  0  0  0  0  0  0  0  0
    9.6024  -16.7809   20.0884 O   0  0  0  0  0  0  0  0  0  0  0  0
    8.2774  -14.9300   19.7700 N   0  0  0  0  0  0  0  0  0  0  0  0
    7.3417  -14.2007   18.9806 C   0  0  0  0  0  0  0  0  0  0  0  0
    7.1494  -12.8910   19.6817 C   0  0  0  0  0  0  0  0  0  0  0  0
    7.9135  -12.9516   20.9562 C   0  0  0  0  0  0  0  0  0  0  0  0
    8.8183  -14.1261   20.7984 C   0  0  1  0  0  0  0  0  0  0  0  0
    8.9617  -14.8029   22.1272 C   0  0  0  0  0  0  0  0  0  0  0  0
    7.9986  -15.3770   22.6729 O   0  0  0  0  0  0  0  0  0  0  0  0
   10.1335  -15.4487   30.5031 O   0  0  0  0  0  0  0  0  0  0  0  0
    9.9860  -15.1329   29.1645 C   0  0  0  0  0  0  0  0  0  0  0  0
    8.9535  -15.6749   28.4567 C   0  0  0  0  0  0  0  0  0  0  0  0
    8.7808  -15.3747   27.1076 C   0  0  0  0  0  0  0  0  0  0  0  0
    9.6443  -14.5269   26.4601 C   0  0  0  0  0  0  0  0  0  0  0  0
    9.5028  -14.2163   25.0387 C   0  0  0  0  0  0  0  0  0  0  0  0
   10.3932  -15.0887   24.2091 C   0  0  2  0  0  0  0  0  0  0  0  0
   10.2200  -14.7953   22.7848 N   0  0  0  0  0  0  0  0  0  0  0  0
   10.1492  -16.5008   24.5003 C   0  0  0  0  0  0  0  0  0  0  0  0
   11.0726  -17.3273   25.0797 O   0  0  0  0  0  0  0  0  0  0  0  0
   10.6757  -13.9931   27.1893 C   0  0  0  0  0  0  0  0  0  0  0  0
   10.8663  -14.2789   28.5348 C   0  0  0  0  0  0  0  0  0  0  0  0
    9.0218  -17.0310   24.2084 O   0  0  0  0  0  0  0  0  0  0  0  0
  2  1  1  1
  3  2  1  0
  4  6  1  0
  4  2  1  0
  5  4  2  0
  6 10  1  0
  7  6  1  0
  7  8  1  0
  8  9  1  0
  9 10  1  0
 10 11  1  1
 11 12  2  0
 13 14  1  0
 14 15  2  0
 15 16  1  0
 17 18  1  0
 17 16  2  0
 19 18  1  1
 19 21  1  0
 20 19  1  0
 20 11  1  0
 21 22  1  0
 23 17  1  0
 24 23  2  0
 24 14  1  0
 25 21  2  0
M  END
$$$$
