APY.pdb
     RDKit          3D

 25 26  0  0  1  0  0  0  0  0999 V2000
   10.0690  -18.9977   19.3202 C   0  0  0  0  0  0  0  0  0  0  0  0
   10.1379  -17.5050   19.0671 C   0  0  2  0  0  0  0  0  0  0  0  0
   11.3788  -17.2278   18.4211 N   0  0  0  0  0  0  0  0  0  0  0  0
    9.8247  -16.7093   20.2511 C   0  0  0  0  0  0  0  0  0  0  0  0
   10.7240  -16.4804   21.1247 O   0  0  0  0  0  0  0  0  0  0  0  0
    8.5298  -16.1322   20.5356 N   0  0  0  0  0  0  0  0  0  0  0  0
    7.5021  -16.1073   19.5488 C   0  0  0  0  0  0  0  0  0  0  0  0
    6.2774  -15.6015   20.2476 C   0  0  0  0  0  0  0  0  0  0  0  0
    6.6147  -15.4564   21.6887 C   0  0  0  0  0  0  0  0  0  0  0  0
    8.1036  -15.5213   21.7364 C   0  0  1  0  0  0  0  0  0  0  0  0
    8.5127  -16.2295   22.9915 C   0  0  0  0  0  0  0  0  0  0  0  0
    8.7290  -17.4575   23.0053 O   0  0  0  0  0  0  0  0  0  0  0  0
    5.1818  -11.3179   26.7866 O   0  0  0  0  0  0  0  0  0  0  0  0
    6.2133  -12.2359   26.7058 C   0  0  0  0  0  0  0  0  0  0  0  0
    7.4499  -11.8989   27.1725 C   0  0  0  0  0  0  0  0  0  0  0  0
    8.5071  -12.8033   27.1039 C   0  0  0  0  0  0  0  0  0  0  0  0
    8.3287  -14.0533   26.5661 C   0  0  0  0  0  0  0  0  0  0  0  0
    9.4269  -15.0119   26.4565 C   0  0  0  0  0  0  0  0  0  0  0  0
    9.1054  -16.0820   25.4597 C   0  0  2  0  0  0  0  0  0  0  0  0
    8.6606  -15.4916   24.1954 N   0  0  0  0  0  0  0  0  0  0  0  0
    8.1111  -17.0085   25.9993 C   0  0  0  0  0  0  0  0  0  0  0  0
    6.8375  -17.1233   25.5135 O   0  0  0  0  0  0  0  0  0  0  0  0
    7.0782  -14.3721   26.1023 C   0  0  0  0  0  0  0  0  0  0  0  0
    6.0107  -13.4861   26.1610 C   0  0  0  0  0  0  0  0  0  0  0  0
    8.4102  -17.7692   26.9838 O   0  0  0  0  0  0  0  0  0  0  0  0
  2  1  1  1
  3  2  1  0
  4  6  1  0
  4  2  1  0
  5  4  2  0
  6 10  1  0
  7  6  1  0
  7  8  1  0
  8  9  1  0
  9 10  1  0
 10 11  1  1
 11 12  2  0
 13 14  1  0
 14 15  2  0
 15 16  1  0
 17 18  1  0
 17 16  2  0
 19 18  1  1
 19 21  1  0
 20 19  1  0
 20 11  1  0
 21 22  1  0
 23 17  1  0
 24 23  2  0
 24 14  1  0
 25 21  2  0
M  END
$$$$
