APY.pdb
     RDKit          3D

 25 26  0  0  1  0  0  0  0  0999 V2000
    9.7461  -14.4834   18.0987 C   0  0  0  0  0  0  0  0  0  0  0  0
    8.4593  -13.9449   18.6916 C   0  0  2  0  0  0  0  0  0  0  0  0
    8.4030  -12.5465   18.4173 N   0  0  0  0  0  0  0  0  0  0  0  0
    8.2578  -14.3477   20.0810 C   0  0  0  0  0  0  0  0  0  0  0  0
    8.7837  -13.6730   21.0258 O   0  0  0  0  0  0  0  0  0  0  0  0
    7.4817  -15.4931   20.5012 N   0  0  0  0  0  0  0  0  0  0  0  0
    6.7288  -16.2565   19.5628 C   0  0  0  0  0  0  0  0  0  0  0  0
    6.2086  -17.4385   20.3218 C   0  0  0  0  0  0  0  0  0  0  0  0
    6.7918  -17.3819   21.6888 C   0  0  0  0  0  0  0  0  0  0  0  0
    7.3297  -15.9968   21.8126 C   0  0  1  0  0  0  0  0  0  0  0  0
    8.5860  -16.0413   22.6275 C   0  0  0  0  0  0  0  0  0  0  0  0
    9.6791  -16.3640   22.1217 O   0  0  0  0  0  0  0  0  0  0  0  0
    4.9450  -11.9024   26.5775 O   0  0  0  0  0  0  0  0  0  0  0  0
    6.1567  -12.5193   26.3238 C   0  0  0  0  0  0  0  0  0  0  0  0
    6.4402  -13.7129   26.9202 C   0  0  0  0  0  0  0  0  0  0  0  0
    7.6524  -14.3566   26.6831 C   0  0  0  0  0  0  0  0  0  0  0  0
    8.5884  -13.8055   25.8441 C   0  0  0  0  0  0  0  0  0  0  0  0
    9.8796  -14.4456   25.5990 C   0  0  0  0  0  0  0  0  0  0  0  0
    9.7026  -15.7545   24.8938 C   0  0  2  0  0  0  0  0  0  0  0  0
    8.5380  -15.7086   24.0070 N   0  0  0  0  0  0  0  0  0  0  0  0
    9.6017  -16.8503   25.8568 C   0  0  0  0  0  0  0  0  0  0  0  0
    8.4886  -17.6317   26.0043 O   0  0  0  0  0  0  0  0  0  0  0  0
    8.2842  -12.6052   25.2549 C   0  0  0  0  0  0  0  0  0  0  0  0
    7.0820  -11.9466   25.4773 C   0  0  0  0  0  0  0  0  0  0  0  0
   10.5882  -17.1226   26.6250 O   0  0  0  0  0  0  0  0  0  0  0  0
  2  1  1  1
  3  2  1  0
  4  6  1  0
  4  2  1  0
  5  4  2  0
  6 10  1  0
  7  6  1  0
  7  8  1  0
  8  9  1  0
  9 10  1  0
 10 11  1  6
 11 12  2  0
 13 14  1  0
 14 15  2  0
 15 16  1  0
 17 18  1  0
 17 16  2  0
 19 18  1  1
 19 21  1  0
 20 19  1  0
 20 11  1  0
 21 22  1  0
 23 17  1  0
 24 23  2  0
 24 14  1  0
 25 21  2  0
M  END
$$$$
