APY.pdb
     RDKit          3D

 25 26  0  0  1  0  0  0  0  0999 V2000
    4.6323  -17.2473   21.6851 C   0  0  0  0  0  0  0  0  0  0  0  0
    5.6390  -17.3796   20.5598 C   0  0  2  0  0  0  0  0  0  0  0  0
    5.6902  -18.7528   20.1780 N   0  0  0  0  0  0  0  0  0  0  0  0
    6.9157  -16.7350   20.8562 C   0  0  0  0  0  0  0  0  0  0  0  0
    7.7557  -17.3034   21.6280 O   0  0  0  0  0  0  0  0  0  0  0  0
    7.3320  -15.4539   20.3308 N   0  0  0  0  0  0  0  0  0  0  0  0
    6.6180  -14.8263   19.2693 C   0  0  0  0  0  0  0  0  0  0  0  0
    7.2267  -13.4662   19.1160 C   0  0  0  0  0  0  0  0  0  0  0  0
    8.2263  -13.3002   20.2046 C   0  0  0  0  0  0  0  0  0  0  0  0
    8.4431  -14.6781   20.7314 C   0  0  1  0  0  0  0  0  0  0  0  0
    8.6630  -14.5968   22.2110 C   0  0  0  0  0  0  0  0  0  0  0  0
    7.8528  -14.0142   22.9587 O   0  0  0  0  0  0  0  0  0  0  0  0
   10.4380  -15.1086   30.5340 O   0  0  0  0  0  0  0  0  0  0  0  0
   10.1099  -15.2184   29.1947 C   0  0  0  0  0  0  0  0  0  0  0  0
    9.8976  -14.0884   28.4608 C   0  0  0  0  0  0  0  0  0  0  0  0
    9.5658  -14.1690   27.1104 C   0  0  0  0  0  0  0  0  0  0  0  0
    9.4454  -15.3862   26.4877 C   0  0  0  0  0  0  0  0  0  0  0  0
    9.0714  -15.5007   25.0792 C   0  0  0  0  0  0  0  0  0  0  0  0
   10.1914  -15.0562   24.1904 C   0  0  2  0  0  0  0  0  0  0  0  0
    9.8172  -15.1954   22.7813 N   0  0  0  0  0  0  0  0  0  0  0  0
   11.4169  -15.7931   24.4962 C   0  0  0  0  0  0  0  0  0  0  0  0
   11.7786  -16.9567   23.8746 O   0  0  0  0  0  0  0  0  0  0  0  0
    9.6623  -16.5098   27.2433 C   0  0  0  0  0  0  0  0  0  0  0  0
    9.9941  -16.4522   28.5905 C   0  0  0  0  0  0  0  0  0  0  0  0
   12.2205  -15.3586   25.3923 O   0  0  0  0  0  0  0  0  0  0  0  0
  2  1  1  1
  3  2  1  0
  4  6  1  0
  4  2  1  0
  5  4  2  0
  6 10  1  0
  7  6  1  0
  7  8  1  0
  8  9  1  0
  9 10  1  0
 10 11  1  1
 11 12  2  0
 13 14  1  0
 14 15  2  0
 15 16  1  0
 17 18  1  0
 17 16  2  0
 19 18  1  1
 19 21  1  0
 20 19  1  0
 20 11  1  0
 21 22  1  0
 23 17  1  0
 24 23  2  0
 24 14  1  0
 25 21  2  0
M  END
$$$$
