PLQ.pdb
     RDKit          3D

 25 25  0  0  1  0  0  0  0  0999 V2000
    6.9755  -15.2956   21.1606 N   0  0  0  0  0  0  0  0  0  0  0  0
    6.1904  -14.1438   20.7581 C   0  0  0  0  0  0  0  0  0  0  0  0
    7.0525  -13.4283   19.7404 C   0  0  0  0  0  0  0  0  0  0  0  0
    8.4627  -13.6661   20.2824 C   0  0  0  0  0  0  0  0  0  0  0  0
    8.3508  -14.8788   21.1726 C   0  0  1  0  0  0  0  0  0  0  0  0
    8.8507  -14.6239   22.5479 C   0  0  0  0  0  0  0  0  0  0  0  0
   10.0726  -14.3124   22.6857 O   0  0  0  0  0  0  0  0  0  0  0  0
    7.9615  -11.5620   25.8340 C   0  0  0  0  0  0  0  0  0  0  0  0
    6.8774  -12.6325   25.7876 C   0  0  2  0  0  0  0  0  0  0  0  0
    5.7232  -12.2553   26.6433 C   0  0  0  0  0  0  0  0  0  0  0  0
    7.4075  -13.9923   25.9352 C   0  0  0  0  0  0  0  0  0  0  0  0
    8.4558  -14.4999   25.0400 C   0  0  2  0  0  0  0  0  0  0  0  0
    8.0202  -14.7171   23.6802 N   0  0  0  0  0  0  0  0  0  0  0  0
    9.2867  -15.6109   25.5552 C   0  0  0  0  0  0  0  0  0  0  0  0
    8.8542  -16.7997   25.6455 O   0  0  0  0  0  0  0  0  0  0  0  0
   14.9211  -16.7265   24.5632 N   0  0  0  0  0  0  0  0  0  0  0  0
   14.9147  -17.4471   25.7767 C   0  0  0  0  0  0  0  0  0  0  0  0
   15.7843  -18.3005   26.0124 O   0  0  0  0  0  0  0  0  0  0  0  0
   13.8500  -17.1684   26.7694 C   0  0  0  0  0  0  0  0  0  0  0  0
   12.8668  -16.2099   26.1597 C   0  0  0  0  0  0  0  0  0  0  0  0
   11.4361  -16.5835   26.4467 C   0  0  2  0  0  0  0  0  0  0  0  0
   10.6296  -15.4249   25.9848 N   0  0  0  0  0  0  0  0  0  0  0  0
   11.2234  -16.7043   27.9037 C   0  0  0  0  0  0  0  0  0  0  0  0
   11.5901  -17.8151   28.6306 O   0  0  0  0  0  0  0  0  0  0  0  0
   10.6743  -15.7522   28.5498 O   0  0  0  0  0  0  0  0  0  0  0  0
  1  2  1  0
  3  2  1  0
  4  5  1  0
  4  3  1  0
  5  1  1  0
  6  7  2  0
  5  6  1  1
  9 10  1  1
  9  8  1  0
 11  9  1  0
 12 11  1  1
 12 13  1  0
 13  6  1  0
 14 15  2  0
 14 12  1  0
 16 17  1  0
 17 18  2  0
 19 17  1  0
 19 20  1  0
 21 20  1  1
 21 22  1  0
 22 14  1  0
 23 21  1  0
 24 23  1  0
 25 23  2  0
M  END
$$$$
