PLQ.pdb
     RDKit          3D

 25 25  0  0  1  0  0  0  0  0999 V2000
    7.1681  -14.8496   20.0428 N   0  0  0  0  0  0  0  0  0  0  0  0
    6.4948  -13.6389   19.6115 C   0  0  0  0  0  0  0  0  0  0  0  0
    7.5467  -12.8672   18.8441 C   0  0  0  0  0  0  0  0  0  0  0  0
    8.8246  -13.2031   19.6141 C   0  0  0  0  0  0  0  0  0  0  0  0
    8.5240  -14.4855   20.3496 C   0  0  1  0  0  0  0  0  0  0  0  0
    8.7603  -14.3722   21.8118 C   0  0  0  0  0  0  0  0  0  0  0  0
    9.9612  -14.3010   22.2139 O   0  0  0  0  0  0  0  0  0  0  0  0
    5.7300  -12.4710   26.8520 C   0  0  0  0  0  0  0  0  0  0  0  0
    7.0383  -12.9371   26.2238 C   0  0  2  0  0  0  0  0  0  0  0  0
    8.1455  -12.0021   26.5500 C   0  0  0  0  0  0  0  0  0  0  0  0
    6.8895  -13.3394   24.8209 C   0  0  0  0  0  0  0  0  0  0  0  0
    7.8765  -14.2134   24.1730 C   0  0  2  0  0  0  0  0  0  0  0  0
    7.7069  -14.3424   22.7445 N   0  0  0  0  0  0  0  0  0  0  0  0
    8.1479  -15.5100   24.8327 C   0  0  0  0  0  0  0  0  0  0  0  0
    7.2450  -16.3805   25.0213 O   0  0  0  0  0  0  0  0  0  0  0  0
   12.8879  -18.4771   23.2819 N   0  0  0  0  0  0  0  0  0  0  0  0
   12.5659  -19.3730   24.3237 C   0  0  0  0  0  0  0  0  0  0  0  0
   13.1992  -20.4303   24.4698 O   0  0  0  0  0  0  0  0  0  0  0  0
   11.4559  -19.0313   25.2445 C   0  0  0  0  0  0  0  0  0  0  0  0
   10.8960  -17.6960   24.8436 C   0  0  0  0  0  0  0  0  0  0  0  0
    9.7283  -17.2753   25.6970 C   0  0  2  0  0  0  0  0  0  0  0  0
    9.4406  -15.8728   25.3015 N   0  0  0  0  0  0  0  0  0  0  0  0
   10.1206  -17.2506   27.1211 C   0  0  0  0  0  0  0  0  0  0  0  0
   10.1688  -18.3781   27.9106 O   0  0  0  0  0  0  0  0  0  0  0  0
   10.4342  -16.1473   27.6779 O   0  0  0  0  0  0  0  0  0  0  0  0
  1  2  1  0
  3  2  1  0
  4  5  1  0
  4  3  1  0
  5  1  1  0
  6  7  2  0
  5  6  1  1
  9 10  1  6
  9  8  1  0
 11  9  1  0
 12 11  1  1
 12 13  1  0
 13  6  1  0
 14 15  2  0
 14 12  1  0
 16 17  1  0
 17 18  2  0
 19 17  1  0
 19 20  1  0
 21 20  1  6
 21 22  1  0
 22 14  1  0
 23 21  1  0
 24 23  1  0
 25 23  2  0
M  END
$$$$
