PLQ.pdb
     RDKit          3D

 25 25  0  0  1  0  0  0  0  0999 V2000
    7.4641  -15.9626   21.4163 N   0  0  0  0  0  0  0  0  0  0  0  0
    6.4804  -15.1012   20.7875 C   0  0  0  0  0  0  0  0  0  0  0  0
    7.2499  -14.3569   19.7176 C   0  0  0  0  0  0  0  0  0  0  0  0
    8.6204  -14.1717   20.3705 C   0  0  0  0  0  0  0  0  0  0  0  0
    8.7026  -15.2339   21.4385 C   0  0  1  0  0  0  0  0  0  0  0  0
    9.0014  -14.6707   22.7801 C   0  0  0  0  0  0  0  0  0  0  0  0
   10.0959  -14.0474   22.9304 O   0  0  0  0  0  0  0  0  0  0  0  0
    7.6518  -11.4089   25.7633 C   0  0  0  0  0  0  0  0  0  0  0  0
    6.6586  -12.5558   25.6161 C   0  0  2  0  0  0  0  0  0  0  0  0
    5.3558  -12.2122   26.2415 C   0  0  0  0  0  0  0  0  0  0  0  0
    7.2386  -13.8624   25.9455 C   0  0  0  0  0  0  0  0  0  0  0  0
    8.4045  -14.3808   25.2176 C   0  0  2  0  0  0  0  0  0  0  0  0
    8.1189  -14.8079   23.8678 N   0  0  0  0  0  0  0  0  0  0  0  0
    9.2690  -15.3364   25.9454 C   0  0  0  0  0  0  0  0  0  0  0  0
    9.5546  -15.1977   27.1732 O   0  0  0  0  0  0  0  0  0  0  0  0
    9.5926  -21.9563   27.2713 N   0  0  0  0  0  0  0  0  0  0  0  0
    9.8784  -20.6243   27.6403 C   0  0  0  0  0  0  0  0  0  0  0  0
    9.4037  -20.1377   28.6785 O   0  0  0  0  0  0  0  0  0  0  0  0
   10.7574  -19.8121   26.7660 C   0  0  0  0  0  0  0  0  0  0  0  0
    9.9449  -18.6936   26.1777 C   0  0  0  0  0  0  0  0  0  0  0  0
   10.7117  -17.3998   26.0939 C   0  0  2  0  0  0  0  0  0  0  0  0
    9.8404  -16.4788   25.3200 N   0  0  0  0  0  0  0  0  0  0  0  0
   11.9469  -17.5895   25.3061 C   0  0  0  0  0  0  0  0  0  0  0  0
   13.0701  -18.2136   25.8018 O   0  0  0  0  0  0  0  0  0  0  0  0
   12.0101  -17.1647   24.1056 O   0  0  0  0  0  0  0  0  0  0  0  0
  1  2  1  0
  3  2  1  0
  4  5  1  0
  4  3  1  0
  5  1  1  0
  6  7  2  0
  5  6  1  1
  9 10  1  1
  9  8  1  0
 11  9  1  0
 12 11  1  1
 12 13  1  0
 13  6  1  0
 14 15  2  0
 14 12  1  0
 16 17  1  0
 17 18  2  0
 19 17  1  0
 19 20  1  0
 21 20  1  6
 21 22  1  0
 22 14  1  0
 23 21  1  0
 24 23  1  0
 25 23  2  0
M  END
$$$$
