PLQ.pdb
     RDKit          3D

 25 25  0  0  1  0  0  0  0  0999 V2000
    7.4494  -15.1513   20.1699 N   0  0  0  0  0  0  0  0  0  0  0  0
    6.5618  -14.1150   19.6763 C   0  0  0  0  0  0  0  0  0  0  0  0
    7.4614  -13.1760   18.9018 C   0  0  0  0  0  0  0  0  0  0  0  0
    8.7575  -13.2231   19.7122 C   0  0  0  0  0  0  0  0  0  0  0  0
    8.6964  -14.5134   20.4914 C   0  0  1  0  0  0  0  0  0  0  0  0
    8.8626  -14.3047   21.9526 C   0  0  0  0  0  0  0  0  0  0  0  0
   10.0389  -14.1369   22.3969 O   0  0  0  0  0  0  0  0  0  0  0  0
    5.8558  -12.1265   26.8382 C   0  0  0  0  0  0  0  0  0  0  0  0
    7.1055  -12.7690   26.2476 C   0  0  2  0  0  0  0  0  0  0  0  0
    8.2915  -11.8951   26.4388 C   0  0  0  0  0  0  0  0  0  0  0  0
    6.8870  -13.3216   24.9063 C   0  0  0  0  0  0  0  0  0  0  0  0
    7.8796  -14.2032   24.2775 C   0  0  2  0  0  0  0  0  0  0  0  0
    7.7704  -14.2887   22.8399 N   0  0  0  0  0  0  0  0  0  0  0  0
    8.0889  -15.5240   24.9113 C   0  0  0  0  0  0  0  0  0  0  0  0
    7.1263  -16.2732   25.2585 O   0  0  0  0  0  0  0  0  0  0  0  0
   11.8734  -19.5937   23.1920 N   0  0  0  0  0  0  0  0  0  0  0  0
   11.8015  -20.1207   24.4993 C   0  0  0  0  0  0  0  0  0  0  0  0
   12.2284  -21.2588   24.7490 O   0  0  0  0  0  0  0  0  0  0  0  0
   11.2061  -19.2914   25.5738 C   0  0  0  0  0  0  0  0  0  0  0  0
   10.7189  -18.0046   24.9703 C   0  0  0  0  0  0  0  0  0  0  0  0
    9.5416  -17.4249   25.7097 C   0  0  2  0  0  0  0  0  0  0  0  0
    9.3844  -16.0479   25.1755 N   0  0  0  0  0  0  0  0  0  0  0  0
    9.8556  -17.2970   27.1476 C   0  0  0  0  0  0  0  0  0  0  0  0
   10.1811  -16.0999   27.7457 O   0  0  0  0  0  0  0  0  0  0  0  0
    9.8351  -18.3264   27.8995 O   0  0  0  0  0  0  0  0  0  0  0  0
  1  2  1  0
  3  2  1  0
  4  5  1  0
  4  3  1  0
  5  1  1  0
  6  7  2  0
  5  6  1  1
  9 10  1  6
  9  8  1  0
 11  9  1  0
 12 11  1  1
 12 13  1  0
 13  6  1  0
 14 15  2  0
 14 12  1  0
 16 17  1  0
 17 18  2  0
 19 17  1  0
 19 20  1  0
 21 20  1  6
 21 22  1  0
 22 14  1  0
 23 21  1  0
 24 23  1  0
 25 23  2  0
M  END
$$$$
