PLQ.pdb
     RDKit          3D

 25 25  0  0  1  0  0  0  0  0999 V2000
    7.1777  -14.8316   20.8452 N   0  0  0  0  0  0  0  0  0  0  0  0
    6.3817  -13.6466   20.5855 C   0  0  0  0  0  0  0  0  0  0  0  0
    7.3063  -12.7226   19.8227 C   0  0  0  0  0  0  0  0  0  0  0  0
    8.6642  -13.0203   20.4602 C   0  0  0  0  0  0  0  0  0  0  0  0
    8.5224  -14.3856   21.0861 C   0  0  1  0  0  0  0  0  0  0  0  0
    8.8669  -14.3882   22.5311 C   0  0  0  0  0  0  0  0  0  0  0  0
   10.0787  -14.1937   22.8514 O   0  0  0  0  0  0  0  0  0  0  0  0
    8.0397  -11.8341   26.1098 C   0  0  0  0  0  0  0  0  0  0  0  0
    6.8524  -12.7309   25.7788 C   0  0  2  0  0  0  0  0  0  0  0  0
    5.6340  -12.2857   26.5026 C   0  0  0  0  0  0  0  0  0  0  0  0
    7.1809  -14.1597   25.8311 C   0  0  0  0  0  0  0  0  0  0  0  0
    8.1967  -14.7382   24.9415 C   0  0  2  0  0  0  0  0  0  0  0  0
    7.9025  -14.5967   23.5345 N   0  0  0  0  0  0  0  0  0  0  0  0
    8.6867  -16.0913   25.2866 C   0  0  0  0  0  0  0  0  0  0  0  0
    7.9145  -17.0935   25.3749 O   0  0  0  0  0  0  0  0  0  0  0  0
   14.4312  -15.8363   24.2706 N   0  0  0  0  0  0  0  0  0  0  0  0
   13.8213  -17.1090   24.2584 C   0  0  0  0  0  0  0  0  0  0  0  0
   13.9966  -17.8875   23.3080 O   0  0  0  0  0  0  0  0  0  0  0  0
   12.9649  -17.5037   25.4018 C   0  0  0  0  0  0  0  0  0  0  0  0
   11.6501  -17.9962   24.8669 C   0  0  0  0  0  0  0  0  0  0  0  0
   10.5078  -17.7534   25.8181 C   0  0  2  0  0  0  0  0  0  0  0  0
   10.0587  -16.3645   25.5428 N   0  0  0  0  0  0  0  0  0  0  0  0
   10.9918  -17.7821   27.2137 C   0  0  0  0  0  0  0  0  0  0  0  0
   11.4296  -18.9292   27.8374 O   0  0  0  0  0  0  0  0  0  0  0  0
   11.0165  -16.7098   27.9030 O   0  0  0  0  0  0  0  0  0  0  0  0
  1  2  1  0
  3  2  1  0
  4  5  1  0
  4  3  1  0
  5  1  1  0
  6  7  2  0
  5  6  1  1
  9 10  1  1
  9  8  1  0
 11  9  1  0
 12 11  1  1
 12 13  1  0
 13  6  1  0
 14 15  2  0
 14 12  1  0
 16 17  1  0
 17 18  2  0
 19 17  1  0
 19 20  1  0
 21 20  1  6
 21 22  1  0
 22 14  1  0
 23 21  1  0
 24 23  1  0
 25 23  2  0
M  END
$$$$
