PLQ.pdb
     RDKit          3D

 25 25  0  0  1  0  0  0  0  0999 V2000
    7.1157  -14.9139   20.7367 N   0  0  0  0  0  0  0  0  0  0  0  0
    6.3169  -13.7292   20.4847 C   0  0  0  0  0  0  0  0  0  0  0  0
    7.2306  -12.8092   19.7039 C   0  0  0  0  0  0  0  0  0  0  0  0
    8.5979  -13.1059   20.3214 C   0  0  0  0  0  0  0  0  0  0  0  0
    8.4645  -14.4684   20.9549 C   0  0  1  0  0  0  0  0  0  0  0  0
    8.8314  -14.4656   22.3943 C   0  0  0  0  0  0  0  0  0  0  0  0
   10.0590  -14.3506   22.6923 O   0  0  0  0  0  0  0  0  0  0  0  0
    8.4575  -11.8864   26.1088 C   0  0  0  0  0  0  0  0  0  0  0  0
    7.1527  -12.5698   25.7166 C   0  0  2  0  0  0  0  0  0  0  0  0
    6.0008  -11.9633   26.4322 C   0  0  0  0  0  0  0  0  0  0  0  0
    7.2493  -14.0336   25.7173 C   0  0  0  0  0  0  0  0  0  0  0  0
    8.1779  -14.7336   24.8197 C   0  0  2  0  0  0  0  0  0  0  0  0
    7.8712  -14.5850   23.4162 N   0  0  0  0  0  0  0  0  0  0  0  0
    8.5263  -16.1257   25.1812 C   0  0  0  0  0  0  0  0  0  0  0  0
    7.6807  -17.0703   25.1474 O   0  0  0  0  0  0  0  0  0  0  0  0
   13.5694  -18.9847   23.8693 N   0  0  0  0  0  0  0  0  0  0  0  0
   12.5554  -18.4073   23.0754 C   0  0  0  0  0  0  0  0  0  0  0  0
   12.7224  -18.2377   21.8574 O   0  0  0  0  0  0  0  0  0  0  0  0
   11.2830  -18.0048   23.7202 C   0  0  0  0  0  0  0  0  0  0  0  0
   11.3966  -18.2522   25.1978 C   0  0  0  0  0  0  0  0  0  0  0  0
   10.1311  -17.9163   25.9424 C   0  0  2  0  0  0  0  0  0  0  0  0
    9.8345  -16.5038   25.5915 N   0  0  0  0  0  0  0  0  0  0  0  0
   10.3709  -17.9580   27.3996 C   0  0  0  0  0  0  0  0  0  0  0  0
   10.3518  -16.8375   28.2002 O   0  0  0  0  0  0  0  0  0  0  0  0
   10.6122  -19.0696   27.9754 O   0  0  0  0  0  0  0  0  0  0  0  0
  1  2  1  0
  3  2  1  0
  4  5  1  0
  4  3  1  0
  5  1  1  0
  6  7  2  0
  5  6  1  1
  9 10  1  1
  9  8  1  0
 11  9  1  0
 12 11  1  1
 12 13  1  0
 13  6  1  0
 14 15  2  0
 14 12  1  0
 16 17  1  0
 17 18  2  0
 19 17  1  0
 19 20  1  0
 21 20  1  6
 21 22  1  0
 22 14  1  0
 23 21  1  0
 24 23  1  0
 25 23  2  0
M  END
$$$$
