PLQ.pdb
     RDKit          3D

 25 25  0  0  1  0  0  0  0  0999 V2000
    7.0895  -14.7918   20.6437 N   0  0  0  0  0  0  0  0  0  0  0  0
    6.3211  -13.5940   20.3610 C   0  0  0  0  0  0  0  0  0  0  0  0
    7.2433  -12.7351   19.5228 C   0  0  0  0  0  0  0  0  0  0  0  0
    8.6152  -13.0489   20.1214 C   0  0  0  0  0  0  0  0  0  0  0  0
    8.4558  -14.3799   20.8133 C   0  0  1  0  0  0  0  0  0  0  0  0
    8.8564  -14.3302   22.2428 C   0  0  0  0  0  0  0  0  0  0  0  0
   10.0834  -14.1483   22.5080 O   0  0  0  0  0  0  0  0  0  0  0  0
    8.1062  -11.7658   25.9908 C   0  0  0  0  0  0  0  0  0  0  0  0
    6.9326  -12.6641   25.6176 C   0  0  2  0  0  0  0  0  0  0  0  0
    5.7041  -12.2624   26.3497 C   0  0  0  0  0  0  0  0  0  0  0  0
    7.2791  -14.0896   25.6173 C   0  0  0  0  0  0  0  0  0  0  0  0
    8.2773  -14.6281   24.6836 C   0  0  2  0  0  0  0  0  0  0  0  0
    7.9281  -14.4770   23.2903 N   0  0  0  0  0  0  0  0  0  0  0  0
    8.8167  -15.9712   24.9922 C   0  0  0  0  0  0  0  0  0  0  0  0
    8.0920  -17.0119   24.9959 O   0  0  0  0  0  0  0  0  0  0  0  0
   14.5462  -20.1773   24.2414 N   0  0  0  0  0  0  0  0  0  0  0  0
   14.0523  -18.9034   24.5948 C   0  0  0  0  0  0  0  0  0  0  0  0
   14.6032  -17.8717   24.1799 O   0  0  0  0  0  0  0  0  0  0  0  0
   12.8610  -18.8154   25.4722 C   0  0  0  0  0  0  0  0  0  0  0  0
   12.1543  -17.5198   25.1905 C   0  0  0  0  0  0  0  0  0  0  0  0
   10.6901  -17.5681   25.5409 C   0  0  2  0  0  0  0  0  0  0  0  0
   10.1865  -16.1907   25.3055 N   0  0  0  0  0  0  0  0  0  0  0  0
   10.5199  -17.8499   26.9811 C   0  0  0  0  0  0  0  0  0  0  0  0
   10.6878  -19.1017   27.5304 O   0  0  0  0  0  0  0  0  0  0  0  0
   10.2000  -16.9109   27.7819 O   0  0  0  0  0  0  0  0  0  0  0  0
  1  2  1  0
  3  2  1  0
  4  5  1  0
  4  3  1  0
  5  1  1  0
  6  7  2  0
  5  6  1  1
  9 10  1  1
  9  8  1  0
 11  9  1  0
 12 11  1  1
 12 13  1  0
 13  6  1  0
 14 15  2  0
 14 12  1  0
 16 17  1  0
 17 18  2  0
 19 17  1  0
 19 20  1  0
 21 20  1  1
 21 22  1  0
 22 14  1  0
 23 21  1  0
 24 23  1  0
 25 23  2  0
M  END
$$$$
