PLQ.pdb
     RDKit          3D

 25 25  0  0  1  0  0  0  0  0999 V2000
   10.8786  -18.4036   19.2345 N   0  0  0  0  0  0  0  0  0  0  0  0
   11.3163  -19.5914   19.9434 C   0  0  0  0  0  0  0  0  0  0  0  0
   10.0489  -20.3821   20.1868 C   0  0  0  0  0  0  0  0  0  0  0  0
    9.0152  -19.2789   20.4177 C   0  0  0  0  0  0  0  0  0  0  0  0
    9.5969  -18.0438   19.7760 C   0  0  1  0  0  0  0  0  0  0  0  0
    9.6845  -16.8995   20.7190 C   0  0  0  0  0  0  0  0  0  0  0  0
   10.8165  -16.6361   21.2271 O   0  0  0  0  0  0  0  0  0  0  0  0
    8.9289  -12.6581   19.8037 C   0  0  0  0  0  0  0  0  0  0  0  0
    7.6260  -13.3462   20.1941 C   0  0  2  0  0  0  0  0  0  0  0  0
    6.4543  -12.5120   19.8232 C   0  0  0  0  0  0  0  0  0  0  0  0
    7.6544  -13.8994   21.5525 C   0  0  0  0  0  0  0  0  0  0  0  0
    8.6031  -14.9586   21.9212 C   0  0  2  0  0  0  0  0  0  0  0  0
    8.5659  -16.1151   21.0568 N   0  0  0  0  0  0  0  0  0  0  0  0
    8.6666  -15.3219   23.3544 C   0  0  0  0  0  0  0  0  0  0  0  0
    8.8045  -14.4564   24.2711 O   0  0  0  0  0  0  0  0  0  0  0  0
    6.3978  -20.4672   25.6660 N   0  0  0  0  0  0  0  0  0  0  0  0
    6.9707  -19.9877   26.8634 C   0  0  0  0  0  0  0  0  0  0  0  0
    6.8215  -20.6047   27.9297 O   0  0  0  0  0  0  0  0  0  0  0  0
    7.7563  -18.7313   26.8285 C   0  0  0  0  0  0  0  0  0  0  0  0
    7.7485  -18.2015   25.4226 C   0  0  0  0  0  0  0  0  0  0  0  0
    8.6060  -16.9740   25.2592 C   0  0  2  0  0  0  0  0  0  0  0  0
    8.5766  -16.6675   23.8061 N   0  0  0  0  0  0  0  0  0  0  0  0
   10.0083  -17.2819   25.6073 C   0  0  0  0  0  0  0  0  0  0  0  0
   10.4695  -17.3381   26.9039 O   0  0  0  0  0  0  0  0  0  0  0  0
   10.8596  -17.5097   24.6859 O   0  0  0  0  0  0  0  0  0  0  0  0
  1  2  1  0
  3  2  1  0
  4  5  1  0
  4  3  1  0
  5  1  1  0
  6  7  2  0
  5  6  1  1
  9 10  1  1
  9  8  1  0
 11  9  1  0
 12 11  1  1
 12 13  1  0
 13  6  1  0
 14 15  2  0
 14 12  1  0
 16 17  1  0
 17 18  2  0
 19 17  1  0
 19 20  1  0
 21 20  1  6
 21 22  1  0
 22 14  1  0
 23 21  1  0
 24 23  1  0
 25 23  2  0
M  END
$$$$
