PLQ.pdb
     RDKit          3D

 25 25  0  0  1  0  0  0  0  0999 V2000
    7.2627  -14.8909   20.9088 N   0  0  0  0  0  0  0  0  0  0  0  0
    6.5931  -13.6915   20.4416 C   0  0  0  0  0  0  0  0  0  0  0  0
    7.6805  -12.8824   19.7680 C   0  0  0  0  0  0  0  0  0  0  0  0
    8.9034  -13.1970   20.6308 C   0  0  0  0  0  0  0  0  0  0  0  0
    8.5807  -14.4970   21.3246 C   0  0  1  0  0  0  0  0  0  0  0  0
    8.7000  -14.3990   22.8020 C   0  0  0  0  0  0  0  0  0  0  0  0
    9.8656  -14.3713   23.3016 O   0  0  0  0  0  0  0  0  0  0  0  0
    8.0377  -11.5003   26.3588 C   0  0  0  0  0  0  0  0  0  0  0  0
    6.7483  -11.9820   25.7039 C   0  0  2  0  0  0  0  0  0  0  0  0
    5.5849  -11.1890   26.1776 C   0  0  0  0  0  0  0  0  0  0  0  0
    6.6132  -13.4428   25.7096 C   0  0  0  0  0  0  0  0  0  0  0  0
    7.6302  -14.3017   25.0885 C   0  0  2  0  0  0  0  0  0  0  0  0
    7.5753  -14.3373   23.6456 N   0  0  0  0  0  0  0  0  0  0  0  0
    7.8176  -15.6436   25.6836 C   0  0  0  0  0  0  0  0  0  0  0  0
    7.9707  -15.8207   26.9301 O   0  0  0  0  0  0  0  0  0  0  0  0
    5.8502  -20.7173   22.9874 N   0  0  0  0  0  0  0  0  0  0  0  0
    6.2922  -21.3136   24.1877 C   0  0  0  0  0  0  0  0  0  0  0  0
    6.0548  -22.5077   24.4279 O   0  0  0  0  0  0  0  0  0  0  0  0
    7.0470  -20.4893   25.1611 C   0  0  0  0  0  0  0  0  0  0  0  0
    7.1224  -19.0824   24.6394 C   0  0  0  0  0  0  0  0  0  0  0  0
    7.8827  -18.1618   25.5577 C   0  0  2  0  0  0  0  0  0  0  0  0
    7.8386  -16.8305   24.9003 N   0  0  0  0  0  0  0  0  0  0  0  0
    9.3026  -18.5647   25.6220 C   0  0  0  0  0  0  0  0  0  0  0  0
    9.7586  -19.6002   26.4072 O   0  0  0  0  0  0  0  0  0  0  0  0
   10.1747  -17.9427   24.9306 O   0  0  0  0  0  0  0  0  0  0  0  0
  1  2  1  0
  3  2  1  0
  4  5  1  0
  4  3  1  0
  5  1  1  0
  6  7  2  0
  5  6  1  1
  9 10  1  1
  9  8  1  0
 11  9  1  0
 12 11  1  1
 12 13  1  0
 13  6  1  0
 14 15  2  0
 14 12  1  0
 16 17  1  0
 17 18  2  0
 19 17  1  0
 19 20  1  0
 21 20  1  6
 21 22  1  0
 22 14  1  0
 23 21  1  0
 24 23  1  0
 25 23  2  0
M  END
$$$$
