PLQ.pdb
     RDKit          3D

 25 25  0  0  1  0  0  0  0  0999 V2000
    7.3217  -16.0925   21.2990 N   0  0  0  0  0  0  0  0  0  0  0  0
    6.5908  -14.9385   20.8101 C   0  0  0  0  0  0  0  0  0  0  0  0
    7.5996  -14.1650   19.9886 C   0  0  0  0  0  0  0  0  0  0  0  0
    8.8987  -14.4011   20.7601 C   0  0  0  0  0  0  0  0  0  0  0  0
    8.6630  -15.6526   21.5686 C   0  0  1  0  0  0  0  0  0  0  0  0
    8.9083  -15.4482   23.0193 C   0  0  0  0  0  0  0  0  0  0  0  0
   10.1072  -15.2840   23.3999 O   0  0  0  0  0  0  0  0  0  0  0  0
    8.3654  -12.3817   26.3452 C   0  0  0  0  0  0  0  0  0  0  0  0
    7.0622  -13.0361   25.9017 C   0  0  2  0  0  0  0  0  0  0  0  0
    5.8894  -12.2891   26.4244 C   0  0  0  0  0  0  0  0  0  0  0  0
    7.0635  -14.4927   26.0762 C   0  0  0  0  0  0  0  0  0  0  0  0
    8.0519  -15.3382   25.3934 C   0  0  2  0  0  0  0  0  0  0  0  0
    7.8655  -15.4321   23.9642 N   0  0  0  0  0  0  0  0  0  0  0  0
    8.3462  -16.6482   26.0157 C   0  0  0  0  0  0  0  0  0  0  0  0
    7.4436  -17.5057   26.2573 O   0  0  0  0  0  0  0  0  0  0  0  0
   12.3068  -22.0302   25.2005 N   0  0  0  0  0  0  0  0  0  0  0  0
   12.5679  -20.8127   25.8648 C   0  0  0  0  0  0  0  0  0  0  0  0
   13.6415  -20.2142   25.6939 O   0  0  0  0  0  0  0  0  0  0  0  0
   11.5369  -20.2572   26.7733 C   0  0  0  0  0  0  0  0  0  0  0  0
   10.9856  -19.0014   26.1599 C   0  0  0  0  0  0  0  0  0  0  0  0
    9.9043  -18.3712   26.9980 C   0  0  2  0  0  0  0  0  0  0  0  0
    9.6624  -17.0394   26.3864 N   0  0  0  0  0  0  0  0  0  0  0  0
   10.3968  -18.1331   28.3703 C   0  0  0  0  0  0  0  0  0  0  0  0
   10.7152  -16.8827   28.8519 O   0  0  0  0  0  0  0  0  0  0  0  0
   10.5478  -19.1120   29.1732 O   0  0  0  0  0  0  0  0  0  0  0  0
  1  2  1  0
  3  2  1  0
  4  5  1  0
  4  3  1  0
  5  1  1  0
  6  7  2  0
  5  6  1  1
  9 10  1  1
  9  8  1  0
 11  9  1  0
 12 11  1  1
 12 13  1  0
 13  6  1  0
 14 15  2  0
 14 12  1  0
 16 17  1  0
 17 18  2  0
 19 17  1  0
 19 20  1  0
 21 20  1  6
 21 22  1  0
 22 14  1  0
 23 21  1  0
 24 23  1  0
 25 23  2  0
M  END
$$$$
