KKN.pdb
     RDKit          3D

 27 26  0  0  1  0  0  0  0  0999 V2000
    7.8646  -13.2471   17.3602 N   0  0  0  0  0  0  0  0  0  0  0  0
    7.9027  -14.5467   16.7415 C   0  0  1  0  0  0  0  0  0  0  0  0
    8.8433  -14.5803   15.5510 C   0  0  0  0  0  0  0  0  0  0  0  0
    8.1219  -14.0305   14.3697 C   0  0  0  0  0  0  0  0  0  0  0  0
    8.0038  -14.9357   13.1958 C   0  0  0  0  0  0  0  0  0  0  0  0
    7.2159  -14.4200   12.0424 C   0  0  0  0  0  0  0  0  0  0  0  0
    6.9775  -15.3426   10.9822 N   0  0  0  0  0  0  0  0  0  0  0  0
    8.2899  -15.5485   17.7856 C   0  0  0  0  0  0  0  0  0  0  0  0
    9.1957  -15.2519   18.5724 O   0  0  0  0  0  0  0  0  0  0  0  0
    7.6479  -16.8032   17.8834 N   0  0  0  0  0  0  0  0  0  0  0  0
    7.9831  -17.8794   18.7338 C   0  0  1  0  0  0  0  0  0  0  0  0
    7.0329  -19.0457   18.7793 C   0  0  0  0  0  0  0  0  0  0  0  0
    7.3744  -20.1484   19.7088 C   0  0  0  0  0  0  0  0  0  0  0  0
    6.4232  -21.3471   19.5689 C   0  0  0  0  0  0  0  0  0  0  0  0
    6.6997  -22.4179   20.5679 C   0  0  0  0  0  0  0  0  0  0  0  0
    5.7964  -23.5419   20.3670 N   0  0  0  0  0  0  0  0  0  0  0  0
    9.3805  -18.3483   18.6693 C   0  0  0  0  0  0  0  0  0  0  0  0
    9.8462  -18.7132   17.5696 O   0  0  0  0  0  0  0  0  0  0  0  0
   12.5986  -18.8055   17.2215 N   0  0  0  0  0  0  0  0  0  0  0  0
   13.1150  -17.8624   18.1597 C   0  0  0  0  0  0  0  0  0  0  0  0
   13.9851  -17.0517   17.7122 O   0  0  0  0  0  0  0  0  0  0  0  0
   12.6308  -17.8727   19.5576 C   0  0  0  0  0  0  0  0  0  0  0  0
   11.6059  -18.9302   19.7296 C   0  0  2  0  0  0  0  0  0  0  0  0
   10.2508  -18.4156   19.7894 N   0  0  0  0  0  0  0  0  0  0  0  0
   11.8816  -19.8395   20.8718 C   0  0  0  0  0  0  0  0  0  0  0  0
   11.5457  -19.6182   22.0560 O   0  0  0  0  0  0  0  0  0  0  0  0
   12.5618  -21.0325   20.6333 O   0  0  0  0  0  0  0  0  0  0  0  0
  2  1  1  1
  3  2  1  0
  4  3  1  0
  5  4  1  0
  5  6  1  0
  7  6  1  0
  8  2  1  0
  8  9  2  0
 10 11  1  0
 10  8  1  0
 11 12  1  6
 13 12  1  0
 14 13  1  0
 15 14  1  0
 16 15  1  0
 17 18  2  0
 17 11  1  0
 19 20  1  0
 20 21  2  0
 20 22  1  0
 23 22  1  1
 23 24  1  0
 23 25  1  0
 24 17  1  0
 25 27  1  0
 26 25  2  0
M  END
$$$$
