KKN.pdb
     RDKit          3D

 27 26  0  0  1  0  0  0  0  0999 V2000
    9.4054  -16.1150   19.1837 N   0  0  0  0  0  0  0  0  0  0  0  0
    8.3993  -16.4080   20.1712 C   0  0  1  0  0  0  0  0  0  0  0  0
    8.1282  -17.8972   20.2795 C   0  0  0  0  0  0  0  0  0  0  0  0
    9.3585  -18.6276   19.8658 C   0  0  0  0  0  0  0  0  0  0  0  0
    9.2633  -20.1114   19.8475 C   0  0  0  0  0  0  0  0  0  0  0  0
   10.4925  -20.8458   19.4389 C   0  0  0  0  0  0  0  0  0  0  0  0
   10.4111  -22.2687   19.4630 N   0  0  0  0  0  0  0  0  0  0  0  0
    8.8454  -15.8266   21.4775 C   0  0  0  0  0  0  0  0  0  0  0  0
   10.0586  -15.7624   21.7045 O   0  0  0  0  0  0  0  0  0  0  0  0
    7.9187  -15.3592   22.4361 N   0  0  0  0  0  0  0  0  0  0  0  0
    8.1971  -14.7645   23.6861 C   0  0  1  0  0  0  0  0  0  0  0  0
    7.0854  -13.9956   24.3480 C   0  0  0  0  0  0  0  0  0  0  0  0
    7.4202  -13.2910   25.6083 C   0  0  0  0  0  0  0  0  0  0  0  0
    6.2279  -12.5023   26.1719 C   0  0  0  0  0  0  0  0  0  0  0  0
    6.5600  -11.7874   27.4367 C   0  0  0  0  0  0  0  0  0  0  0  0
    5.3957  -11.0656   27.9298 N   0  0  0  0  0  0  0  0  0  0  0  0
    8.9001  -15.6126   24.6676 C   0  0  0  0  0  0  0  0  0  0  0  0
    8.2839  -16.5587   25.2010 O   0  0  0  0  0  0  0  0  0  0  0  0
   13.8884  -15.4541   24.0723 N   0  0  0  0  0  0  0  0  0  0  0  0
   12.9920  -16.3772   24.6892 C   0  0  0  0  0  0  0  0  0  0  0  0
   12.7433  -17.4354   24.0314 O   0  0  0  0  0  0  0  0  0  0  0  0
   12.4159  -16.0698   26.0167 C   0  0  0  0  0  0  0  0  0  0  0  0
   10.9495  -16.2877   25.9939 C   0  0  2  0  0  0  0  0  0  0  0  0
   10.2531  -15.4269   25.0566 N   0  0  0  0  0  0  0  0  0  0  0  0
   10.3227  -16.2278   27.3396 C   0  0  0  0  0  0  0  0  0  0  0  0
   10.0343  -17.2254   28.0364 O   0  0  0  0  0  0  0  0  0  0  0  0
   10.0250  -14.9816   27.8885 O   0  0  0  0  0  0  0  0  0  0  0  0
  2  1  1  6
  3  2  1  0
  4  3  1  0
  5  4  1  0
  5  6  1  0
  7  6  1  0
  8  2  1  0
  8  9  2  0
 10 11  1  0
 10  8  1  0
 11 12  1  1
 13 12  1  0
 14 13  1  0
 15 14  1  0
 16 15  1  0
 17 18  2  0
 17 11  1  0
 19 20  1  0
 20 21  2  0
 20 22  1  0
 23 22  1  1
 23 24  1  0
 23 25  1  0
 24 17  1  0
 25 27  1  0
 26 25  2  0
M  END
$$$$
