KKN.pdb
     RDKit          3D

 27 26  0  0  1  0  0  0  0  0999 V2000
   10.0670  -16.8234   19.3366 N   0  0  0  0  0  0  0  0  0  0  0  0
    9.4295  -17.3103   20.5325 C   0  0  1  0  0  0  0  0  0  0  0  0
    9.9418  -18.6826   20.9291 C   0  0  0  0  0  0  0  0  0  0  0  0
    9.2681  -19.6984   20.0732 C   0  0  0  0  0  0  0  0  0  0  0  0
    9.6437  -21.1157   20.3213 C   0  0  0  0  0  0  0  0  0  0  0  0
    8.9856  -22.1331   19.4560 C   0  0  0  0  0  0  0  0  0  0  0  0
    8.1430  -23.0718   20.1199 N   0  0  0  0  0  0  0  0  0  0  0  0
    9.6430  -16.3009   21.6183 C   0  0  0  0  0  0  0  0  0  0  0  0
   10.7830  -15.8527   21.7834 O   0  0  0  0  0  0  0  0  0  0  0  0
    8.5819  -15.8611   22.4408 N   0  0  0  0  0  0  0  0  0  0  0  0
    8.6660  -15.0710   23.6081 C   0  0  1  0  0  0  0  0  0  0  0  0
    7.4246  -14.3348   24.0347 C   0  0  0  0  0  0  0  0  0  0  0  0
    7.5639  -13.3966   25.1737 C   0  0  0  0  0  0  0  0  0  0  0  0
    6.2550  -12.6532   25.4825 C   0  0  0  0  0  0  0  0  0  0  0  0
    6.3991  -11.6795   26.6015 C   0  0  0  0  0  0  0  0  0  0  0  0
    5.1028  -11.1169   26.9519 N   0  0  0  0  0  0  0  0  0  0  0  0
    9.3264  -15.6959   24.7701 C   0  0  0  0  0  0  0  0  0  0  0  0
    8.9094  -16.7984   25.1824 O   0  0  0  0  0  0  0  0  0  0  0  0
   11.0243  -14.5120   29.8970 N   0  0  0  0  0  0  0  0  0  0  0  0
   10.1039  -15.3386   29.1858 C   0  0  0  0  0  0  0  0  0  0  0  0
    9.6768  -16.3601   29.8093 O   0  0  0  0  0  0  0  0  0  0  0  0
    9.7051  -14.9805   27.8069 C   0  0  0  0  0  0  0  0  0  0  0  0
   10.7471  -15.4215   26.8488 C   0  0  2  0  0  0  0  0  0  0  0  0
   10.4231  -15.1229   25.4667 N   0  0  0  0  0  0  0  0  0  0  0  0
   11.1321  -16.8474   27.0100 C   0  0  0  0  0  0  0  0  0  0  0  0
   10.3244  -17.7984   27.0948 O   0  0  0  0  0  0  0  0  0  0  0  0
   12.4852  -17.1762   27.0734 O   0  0  0  0  0  0  0  0  0  0  0  0
  2  1  1  6
  3  2  1  0
  4  3  1  0
  5  4  1  0
  5  6  1  0
  7  6  1  0
  8  2  1  0
  8  9  2  0
 10 11  1  0
 10  8  1  0
 11 12  1  1
 13 12  1  0
 14 13  1  0
 15 14  1  0
 16 15  1  0
 17 18  2  0
 17 11  1  0
 19 20  1  0
 20 21  2  0
 20 22  1  0
 23 22  1  1
 23 24  1  0
 23 25  1  0
 24 17  1  0
 25 27  1  0
 26 25  2  0
M  END
$$$$
