KKN.pdb
     RDKit          3D

 27 26  0  0  1  0  0  0  0  0999 V2000
    8.9204  -19.7453   18.9693 N   0  0  0  0  0  0  0  0  0  0  0  0
   10.2688  -19.3117   18.7103 C   0  0  1  0  0  0  0  0  0  0  0  0
   10.4271  -18.7613   17.3049 C   0  0  0  0  0  0  0  0  0  0  0  0
   10.5370  -19.9096   16.3628 C   0  0  0  0  0  0  0  0  0  0  0  0
   10.6923  -19.5635   14.9249 C   0  0  0  0  0  0  0  0  0  0  0  0
   10.7413  -20.7076   13.9731 C   0  0  0  0  0  0  0  0  0  0  0  0
   10.8039  -20.3709   12.5894 N   0  0  0  0  0  0  0  0  0  0  0  0
   10.6405  -18.2995   19.7499 C   0  0  0  0  0  0  0  0  0  0  0  0
   11.8181  -17.9292   19.8101 O   0  0  0  0  0  0  0  0  0  0  0  0
    9.6842  -17.7713   20.6457 N   0  0  0  0  0  0  0  0  0  0  0  0
    9.8765  -16.7659   21.6182 C   0  0  1  0  0  0  0  0  0  0  0  0
    8.9971  -15.5474   21.5352 C   0  0  0  0  0  0  0  0  0  0  0  0
    8.9060  -14.8793   20.2153 C   0  0  0  0  0  0  0  0  0  0  0  0
    7.9185  -13.7021   20.2224 C   0  0  0  0  0  0  0  0  0  0  0  0
    7.7520  -13.0853   18.8760 C   0  0  0  0  0  0  0  0  0  0  0  0
    6.7783  -12.0044   18.9322 N   0  0  0  0  0  0  0  0  0  0  0  0
    9.9978  -17.2266   23.0146 C   0  0  0  0  0  0  0  0  0  0  0  0
    8.9898  -17.6882   23.5892 O   0  0  0  0  0  0  0  0  0  0  0  0
   12.2697  -19.9333   26.6858 N   0  0  0  0  0  0  0  0  0  0  0  0
   11.7490  -20.4658   25.4687 C   0  0  0  0  0  0  0  0  0  0  0  0
   11.6492  -21.7313   25.4127 O   0  0  0  0  0  0  0  0  0  0  0  0
   11.3640  -19.5530   24.3699 C   0  0  0  0  0  0  0  0  0  0  0  0
   11.5476  -18.1447   24.7952 C   0  0  2  0  0  0  0  0  0  0  0  0
   11.2016  -17.1819   23.7666 N   0  0  0  0  0  0  0  0  0  0  0  0
   12.8966  -17.8673   25.3527 C   0  0  0  0  0  0  0  0  0  0  0  0
   13.7182  -17.0616   24.8631 O   0  0  0  0  0  0  0  0  0  0  0  0
   13.2999  -18.5401   26.5050 O   0  0  0  0  0  0  0  0  0  0  0  0
  2  1  1  1
  3  2  1  0
  4  3  1  0
  5  4  1  0
  5  6  1  0
  7  6  1  0
  8  2  1  0
  8  9  2  0
 10 11  1  0
 10  8  1  0
 11 12  1  1
 13 12  1  0
 14 13  1  0
 15 14  1  0
 16 15  1  0
 17 18  2  0
 17 11  1  0
 19 20  1  0
 20 21  2  0
 20 22  1  0
 23 22  1  6
 23 24  1  0
 23 25  1  0
 24 17  1  0
 25 27  1  0
 26 25  2  0
M  END
$$$$
