KKN.pdb
     RDKit          3D

 27 26  0  0  1  0  0  0  0  0999 V2000
    8.7289  -16.3955   20.5832 N   0  0  0  0  0  0  0  0  0  0  0  0
    8.4567  -15.1279   21.2098 C   0  0  1  0  0  0  0  0  0  0  0  0
    7.4621  -14.3038   20.4131 C   0  0  0  0  0  0  0  0  0  0  0  0
    7.8773  -14.3246   18.9829 C   0  0  0  0  0  0  0  0  0  0  0  0
    7.4327  -13.1715   18.1559 C   0  0  0  0  0  0  0  0  0  0  0  0
    7.8224  -13.2018   16.7191 C   0  0  0  0  0  0  0  0  0  0  0  0
    7.2722  -12.1750   15.8975 N   0  0  0  0  0  0  0  0  0  0  0  0
    7.9727  -15.3912   22.6026 C   0  0  0  0  0  0  0  0  0  0  0  0
    7.5035  -14.4463   23.2464 O   0  0  0  0  0  0  0  0  0  0  0  0
    8.0425  -16.6783   23.1809 N   0  0  0  0  0  0  0  0  0  0  0  0
    7.7844  -17.0363   24.5222 C   0  0  1  0  0  0  0  0  0  0  0  0
    7.5334  -18.4915   24.8127 C   0  0  0  0  0  0  0  0  0  0  0  0
    7.3685  -18.8686   26.2365 C   0  0  0  0  0  0  0  0  0  0  0  0
    7.0447  -20.3603   26.4129 C   0  0  0  0  0  0  0  0  0  0  0  0
    6.8565  -20.7411   27.8413 C   0  0  0  0  0  0  0  0  0  0  0  0
    6.3947  -22.1182   27.9406 N   0  0  0  0  0  0  0  0  0  0  0  0
    8.6820  -16.4500   25.5358 C   0  0  0  0  0  0  0  0  0  0  0  0
    9.9150  -16.6068   25.4154 O   0  0  0  0  0  0  0  0  0  0  0  0
    8.0647  -12.9112   26.0212 N   0  0  0  0  0  0  0  0  0  0  0  0
    7.6520  -13.0533   27.3798 C   0  0  0  0  0  0  0  0  0  0  0  0
    6.6004  -12.4216   27.7109 O   0  0  0  0  0  0  0  0  0  0  0  0
    8.4390  -13.8984   28.3046 C   0  0  0  0  0  0  0  0  0  0  0  0
    9.1210  -14.9758   27.5481 C   0  0  2  0  0  0  0  0  0  0  0  0
    8.2361  -15.7058   26.6600 N   0  0  0  0  0  0  0  0  0  0  0  0
    9.8948  -15.9048   28.4115 C   0  0  0  0  0  0  0  0  0  0  0  0
    9.7448  -17.1461   28.4365 O   0  0  0  0  0  0  0  0  0  0  0  0
   10.8648  -15.3806   29.2644 O   0  0  0  0  0  0  0  0  0  0  0  0
  2  1  1  6
  3  2  1  0
  4  3  1  0
  5  4  1  0
  5  6  1  0
  7  6  1  0
  8  2  1  0
  8  9  2  0
 10 11  1  0
 10  8  1  0
 11 12  1  6
 13 12  1  0
 14 13  1  0
 15 14  1  0
 16 15  1  0
 17 18  2  0
 17 11  1  0
 19 20  1  0
 20 21  2  0
 20 22  1  0
 23 22  1  1
 23 24  1  0
 23 25  1  0
 24 17  1  0
 25 27  1  0
 26 25  2  0
M  END
$$$$
