KKN.pdb
     RDKit          3D

 27 26  0  0  1  0  0  0  0  0999 V2000
   11.1131  -19.7782   17.0027 N   0  0  0  0  0  0  0  0  0  0  0  0
   12.3293  -19.5651   17.7435 C   0  0  1  0  0  0  0  0  0  0  0  0
   13.5126  -19.3085   16.8285 C   0  0  0  0  0  0  0  0  0  0  0  0
   13.1542  -19.7728   15.4595 C   0  0  0  0  0  0  0  0  0  0  0  0
   14.1951  -19.5900   14.4133 C   0  0  0  0  0  0  0  0  0  0  0  0
   13.8119  -19.9772   13.0275 C   0  0  0  0  0  0  0  0  0  0  0  0
   12.9539  -19.0721   12.3373 N   0  0  0  0  0  0  0  0  0  0  0  0
   12.1033  -18.4292   18.6933 C   0  0  0  0  0  0  0  0  0  0  0  0
   13.0917  -17.8619   19.1714 O   0  0  0  0  0  0  0  0  0  0  0  0
   10.8025  -18.0041   19.0445 N   0  0  0  0  0  0  0  0  0  0  0  0
   10.4444  -16.9876   19.9568 C   0  0  1  0  0  0  0  0  0  0  0  0
    9.0268  -16.4844   19.9087 C   0  0  0  0  0  0  0  0  0  0  0  0
    8.6981  -15.3323   20.7813 C   0  0  0  0  0  0  0  0  0  0  0  0
    8.1442  -14.1378   19.9892 C   0  0  0  0  0  0  0  0  0  0  0  0
    7.6790  -13.0308   20.8718 C   0  0  0  0  0  0  0  0  0  0  0  0
    7.2768  -11.8823   20.0726 N   0  0  0  0  0  0  0  0  0  0  0  0
   10.8805  -17.1836   21.3526 C   0  0  0  0  0  0  0  0  0  0  0  0
   10.4111  -18.1397   22.0047 O   0  0  0  0  0  0  0  0  0  0  0  0
   15.4463  -15.3023   22.8773 N   0  0  0  0  0  0  0  0  0  0  0  0
   14.5236  -15.9968   23.7155 C   0  0  0  0  0  0  0  0  0  0  0  0
   14.9641  -17.0483   24.2765 O   0  0  0  0  0  0  0  0  0  0  0  0
   13.1483  -15.4788   23.8854 C   0  0  0  0  0  0  0  0  0  0  0  0
   12.1670  -16.4884   23.4207 C   0  0  2  0  0  0  0  0  0  0  0  0
   11.8135  -16.3473   22.0208 N   0  0  0  0  0  0  0  0  0  0  0  0
   10.9519  -16.5665   24.2720 C   0  0  0  0  0  0  0  0  0  0  0  0
   10.6085  -17.5708   24.9333 O   0  0  0  0  0  0  0  0  0  0  0  0
   10.1176  -15.4532   24.3578 O   0  0  0  0  0  0  0  0  0  0  0  0
  2  1  1  6
  3  2  1  0
  4  3  1  0
  5  4  1  0
  5  6  1  0
  7  6  1  0
  8  2  1  0
  8  9  2  0
 10 11  1  0
 10  8  1  0
 11 12  1  1
 13 12  1  0
 14 13  1  0
 15 14  1  0
 16 15  1  0
 17 18  2  0
 17 11  1  0
 19 20  1  0
 20 21  2  0
 20 22  1  0
 23 22  1  1
 23 24  1  0
 23 25  1  0
 24 17  1  0
 25 27  1  0
 26 25  2  0
M  END
$$$$
