TMY.pdb
     RDKit          3D

 28 28  0  0  1  0  0  0  0  0999 V2000
   24.7892  -17.9317  -17.2053 C   0  0  0  0  0  0  0  0  0  0  0  0
   26.2220  -17.4593  -17.1269 C   0  0  1  0  0  0  0  0  0  0  0  0
   26.4229  -16.3110  -17.8600 O   0  0  0  0  0  0  0  0  0  0  0  0
   26.6916  -17.3569  -15.7011 C   0  0  2  0  0  0  0  0  0  0  0  0
   28.0135  -16.7386  -15.6371 N   0  0  0  0  0  0  0  0  0  0  0  0
   26.7793  -18.7029  -15.1058 C   0  0  0  0  0  0  0  0  0  0  0  0
   27.5380  -19.5493  -15.6279 O   0  0  0  0  0  0  0  0  0  0  0  0
   25.0903  -20.0665   -9.0003 C   0  0  0  0  0  0  0  0  0  0  0  0
   26.3837  -21.2468   -9.4042 S   0  0  0  0  0  0  0  0  0  0  0  0
   26.3696  -21.6455  -11.2043 C   0  0  0  0  0  0  0  0  0  0  0  0
   26.2982  -20.3153  -11.8981 C   0  0  0  0  0  0  0  0  0  0  0  0
   26.1754  -20.4022  -13.3800 C   0  0  2  0  0  0  0  0  0  0  0  0
   26.0365  -19.0758  -13.9637 N   0  0  0  0  0  0  0  0  0  0  0  0
   25.0906  -21.2947  -13.8512 C   0  0  0  0  0  0  0  0  0  0  0  0
   25.0401  -22.5248  -13.6242 O   0  0  0  0  0  0  0  0  0  0  0  0
   17.2276  -21.3953  -10.7683 O   0  0  0  0  0  0  0  0  0  0  0  0
   18.5155  -21.2082  -11.2425 C   0  0  0  0  0  0  0  0  0  0  0  0
   19.3867  -22.2687  -11.3599 C   0  0  0  0  0  0  0  0  0  0  0  0
   20.6756  -22.0556  -11.8388 C   0  0  0  0  0  0  0  0  0  0  0  0
   21.1126  -20.7993  -12.2039 C   0  0  0  0  0  0  0  0  0  0  0  0
   22.4799  -20.5925  -12.7085 C   0  0  0  0  0  0  0  0  0  0  0  0
   22.6157  -20.8988  -14.1835 C   0  0  2  0  0  0  0  0  0  0  0  0
   23.9881  -20.7814  -14.6275 N   0  0  0  0  0  0  0  0  0  0  0  0
   21.7068  -20.0706  -15.0147 C   0  0  0  0  0  0  0  0  0  0  0  0
   22.0214  -18.9914  -15.5294 O   0  0  0  0  0  0  0  0  0  0  0  0
   20.2145  -19.7610  -12.0734 C   0  0  0  0  0  0  0  0  0  0  0  0
   18.9307  -19.9474  -11.6008 C   0  0  0  0  0  0  0  0  0  0  0  0
   20.4168  -20.5377  -15.2294 O   0  0  0  0  0  0  0  0  0  0  0  0
  2  1  1  1
  2  4  1  0
  3  2  1  0
  4  6  1  0
  4  5  1  6
  6  7  2  0
  9  8  1  0
 10  9  1  0
 11 10  1  0
 12 11  1  1
 13 12  1  0
 13  6  1  0
 14 15  2  0
 14 12  1  0
 16 17  1  0
 17 27  2  0
 17 18  1  0
 18 19  2  0
 19 20  1  0
 20 21  1  0
 22 21  1  1
 22 23  1  0
 22 24  1  0
 23 14  1  0
 24 28  1  0
 25 24  2  0
 26 20  2  0
 27 26  1  0
M  END
$$$$
