TMY.pdb
     RDKit          3D

 28 28  0  0  1  0  0  0  0  0999 V2000
   12.2459  -15.6047    3.0559 C   0  0  0  0  0  0  0  0  0  0  0  0
   11.1321  -16.5997    2.8284 C   0  0  1  0  0  0  0  0  0  0  0  0
   10.2983  -16.2089    1.8045 O   0  0  0  0  0  0  0  0  0  0  0  0
   11.6652  -17.9983    2.6743 C   0  0  2  0  0  0  0  0  0  0  0  0
   10.5759  -18.9712    2.7037 N   0  0  0  0  0  0  0  0  0  0  0  0
   12.5913  -18.3049    3.7798 C   0  0  0  0  0  0  0  0  0  0  0  0
   12.1219  -18.6387    4.8901 O   0  0  0  0  0  0  0  0  0  0  0  0
   17.6314  -22.6198    2.3398 C   0  0  0  0  0  0  0  0  0  0  0  0
   16.7126  -22.0145    3.7606 S   0  0  0  0  0  0  0  0  0  0  0  0
   16.1645  -20.2743    3.4949 C   0  0  0  0  0  0  0  0  0  0  0  0
   15.3500  -19.9319    4.7096 C   0  0  0  0  0  0  0  0  0  0  0  0
   14.8793  -18.5194    4.7543 C   0  0  2  0  0  0  0  0  0  0  0  0
   13.9945  -18.2360    3.6335 N   0  0  0  0  0  0  0  0  0  0  0  0
   15.9669  -17.5157    4.8259 C   0  0  0  0  0  0  0  0  0  0  0  0
   16.5951  -17.0838    3.8329 O   0  0  0  0  0  0  0  0  0  0  0  0
   21.1971  -10.8343    6.6921 O   0  0  0  0  0  0  0  0  0  0  0  0
   20.1656  -11.7517    6.5780 C   0  0  0  0  0  0  0  0  0  0  0  0
   19.4823  -11.9033    5.3916 C   0  0  0  0  0  0  0  0  0  0  0  0
   18.4497  -12.8316    5.3015 C   0  0  0  0  0  0  0  0  0  0  0  0
   18.0853  -13.6140    6.3774 C   0  0  0  0  0  0  0  0  0  0  0  0
   16.9901  -14.5910    6.2639 C   0  0  0  0  0  0  0  0  0  0  0  0
   17.4811  -16.0198    6.1904 C   0  0  2  0  0  0  0  0  0  0  0  0
   16.3820  -16.9559    6.0892 N   0  0  0  0  0  0  0  0  0  0  0  0
   18.3800  -16.3631    7.3204 C   0  0  0  0  0  0  0  0  0  0  0  0
   17.9956  -16.8119    8.4064 O   0  0  0  0  0  0  0  0  0  0  0  0
   18.7904  -13.4359    7.5491 C   0  0  0  0  0  0  0  0  0  0  0  0
   19.8185  -12.5216    7.6630 C   0  0  0  0  0  0  0  0  0  0  0  0
   19.7440  -16.1677    7.1479 O   0  0  0  0  0  0  0  0  0  0  0  0
  2  1  1  6
  2  4  1  0
  3  2  1  0
  4  6  1  0
  4  5  1  1
  6  7  2  0
  9  8  1  0
 10  9  1  0
 11 10  1  0
 12 11  1  6
 13 12  1  0
 13  6  1  0
 14 15  2  0
 14 12  1  0
 16 17  1  0
 17 27  2  0
 17 18  1  0
 18 19  2  0
 19 20  1  0
 20 21  1  0
 22 21  1  1
 22 23  1  0
 22 24  1  0
 23 14  1  0
 24 28  1  0
 25 24  2  0
 26 20  2  0
 27 26  1  0
M  END
$$$$
