TMY.pdb
     RDKit          3D

 28 28  0  0  1  0  0  0  0  0999 V2000
   15.9243  -11.9138  -15.6053 C   0  0  0  0  0  0  0  0  0  0  0  0
   17.2368  -11.3856  -15.0757 C   0  0  1  0  0  0  0  0  0  0  0  0
   18.0158  -12.3897  -14.5453 O   0  0  0  0  0  0  0  0  0  0  0  0
   17.9479  -10.5463  -16.1022 C   0  0  2  0  0  0  0  0  0  0  0  0
   18.3600  -11.3638  -17.2405 N   0  0  0  0  0  0  0  0  0  0  0  0
   19.1524   -9.9408  -15.5053 C   0  0  0  0  0  0  0  0  0  0  0  0
   19.0274   -9.1993  -14.5057 O   0  0  0  0  0  0  0  0  0  0  0  0
   26.9315  -10.7901  -14.6043 C   0  0  0  0  0  0  0  0  0  0  0  0
   25.3767  -11.1711  -15.4208 S   0  0  0  0  0  0  0  0  0  0  0  0
   24.0757   -9.9494  -14.9579 C   0  0  0  0  0  0  0  0  0  0  0  0
   22.8173  -10.4565  -15.6024 C   0  0  0  0  0  0  0  0  0  0  0  0
   21.6215   -9.5988  -15.3717 C   0  0  2  0  0  0  0  0  0  0  0  0
   20.4482  -10.1661  -16.0205 N   0  0  0  0  0  0  0  0  0  0  0  0
   21.8011   -8.1822  -15.7669 C   0  0  0  0  0  0  0  0  0  0  0  0
   22.5428   -7.3709  -15.1676 O   0  0  0  0  0  0  0  0  0  0  0  0
   20.4733   -0.7148  -20.4174 O   0  0  0  0  0  0  0  0  0  0  0  0
   20.6987   -2.0188  -20.0087 C   0  0  0  0  0  0  0  0  0  0  0  0
   19.8682   -3.0403  -20.4139 C   0  0  0  0  0  0  0  0  0  0  0  0
   20.1152   -4.3424  -19.9901 C   0  0  0  0  0  0  0  0  0  0  0  0
   21.1794   -4.6448  -19.1664 C   0  0  0  0  0  0  0  0  0  0  0  0
   21.4254   -6.0283  -18.7277 C   0  0  0  0  0  0  0  0  0  0  0  0
   21.1832   -6.2287  -17.2482 C   0  0  2  0  0  0  0  0  0  0  0  0
   21.1075   -7.6329  -16.9066 N   0  0  0  0  0  0  0  0  0  0  0  0
   19.9865   -5.4919  -16.7707 C   0  0  0  0  0  0  0  0  0  0  0  0
   19.8744   -4.2608  -16.7822 O   0  0  0  0  0  0  0  0  0  0  0  0
   21.9901   -3.5982  -18.7802 C   0  0  0  0  0  0  0  0  0  0  0  0
   21.7655   -2.2983  -19.1875 C   0  0  0  0  0  0  0  0  0  0  0  0
   18.9209   -6.2337  -16.2778 O   0  0  0  0  0  0  0  0  0  0  0  0
  2  1  1  6
  2  4  1  0
  3  2  1  0
  4  6  1  0
  4  5  1  6
  6  7  2  0
  9  8  1  0
 10  9  1  0
 11 10  1  0
 12 11  1  6
 13 12  1  0
 13  6  1  0
 14 15  2  0
 14 12  1  0
 16 17  1  0
 17 27  2  0
 17 18  1  0
 18 19  2  0
 19 20  1  0
 20 21  1  0
 22 21  1  6
 22 23  1  0
 22 24  1  0
 23 14  1  0
 24 28  1  0
 25 24  2  0
 26 20  2  0
 27 26  1  0
M  END
$$$$
