TMY.pdb
     RDKit          3D

 28 28  0  0  1  0  0  0  0  0999 V2000
   23.5968  -11.9586  -22.1728 C   0  0  0  0  0  0  0  0  0  0  0  0
   24.3444  -12.0901  -20.8666 C   0  0  1  0  0  0  0  0  0  0  0  0
   24.6627  -10.8610  -20.3335 O   0  0  0  0  0  0  0  0  0  0  0  0
   23.6229  -12.9974  -19.9073 C   0  0  2  0  0  0  0  0  0  0  0  0
   23.3332  -14.2846  -20.5342 N   0  0  0  0  0  0  0  0  0  0  0  0
   22.3467  -12.3813  -19.5006 C   0  0  0  0  0  0  0  0  0  0  0  0
   21.5230  -12.0526  -20.3826 O   0  0  0  0  0  0  0  0  0  0  0  0
   18.1279  -13.2217  -14.2384 C   0  0  0  0  0  0  0  0  0  0  0  0
   17.5704  -13.1561  -15.9455 S   0  0  0  0  0  0  0  0  0  0  0  0
   18.4632  -11.8392  -16.8773 C   0  0  0  0  0  0  0  0  0  0  0  0
   19.7963  -12.4399  -17.2210 C   0  0  0  0  0  0  0  0  0  0  0  0
   20.7781  -11.4720  -17.7849 C   0  0  2  0  0  0  0  0  0  0  0  0
   22.0161  -12.1468  -18.1475 N   0  0  0  0  0  0  0  0  0  0  0  0
   21.0563  -10.3069  -16.9127 C   0  0  0  0  0  0  0  0  0  0  0  0
   22.0771  -10.1883  -16.1978 O   0  0  0  0  0  0  0  0  0  0  0  0
   22.4579   -2.4348  -13.7380 O   0  0  0  0  0  0  0  0  0  0  0  0
   22.2844   -3.6638  -14.3528 C   0  0  0  0  0  0  0  0  0  0  0  0
   22.0382   -3.7492  -15.7054 C   0  0  0  0  0  0  0  0  0  0  0  0
   21.8674   -4.9953  -16.3004 C   0  0  0  0  0  0  0  0  0  0  0  0
   21.9380   -6.1618  -15.5677 C   0  0  0  0  0  0  0  0  0  0  0  0
   21.7546   -7.4717  -16.2140 C   0  0  0  0  0  0  0  0  0  0  0  0
   20.3798   -8.0569  -15.9788 C   0  0  2  0  0  0  0  0  0  0  0  0
   20.1347   -9.1998  -16.8321 N   0  0  0  0  0  0  0  0  0  0  0  0
   19.3065   -7.0410  -16.1159 C   0  0  0  0  0  0  0  0  0  0  0  0
   18.7439   -6.7595  -17.1801 O   0  0  0  0  0  0  0  0  0  0  0  0
   22.1858   -6.0393  -14.2167 C   0  0  0  0  0  0  0  0  0  0  0  0
   22.3587   -4.8144  -13.6037 C   0  0  0  0  0  0  0  0  0  0  0  0
   18.9065   -6.3606  -14.9733 O   0  0  0  0  0  0  0  0  0  0  0  0
  2  1  1  6
  2  4  1  0
  3  2  1  0
  4  6  1  0
  4  5  1  6
  6  7  2  0
  9  8  1  0
 10  9  1  0
 11 10  1  0
 12 11  1  1
 13 12  1  0
 13  6  1  0
 14 15  2  0
 14 12  1  0
 16 17  1  0
 17 27  2  0
 17 18  1  0
 18 19  2  0
 19 20  1  0
 20 21  1  0
 22 21  1  6
 22 23  1  0
 22 24  1  0
 23 14  1  0
 24 28  1  0
 25 24  2  0
 26 20  2  0
 27 26  1  0
M  END
$$$$
