TMY.pdb
     RDKit          3D

 28 28  0  0  1  0  0  0  0  0999 V2000
   16.6677  -15.8703  -16.2099 C   0  0  0  0  0  0  0  0  0  0  0  0
   17.8665  -14.9511  -16.2278 C   0  0  1  0  0  0  0  0  0  0  0  0
   17.8821  -14.1094  -15.1380 O   0  0  0  0  0  0  0  0  0  0  0  0
   19.1468  -15.7183  -16.4181 C   0  0  2  0  0  0  0  0  0  0  0  0
   19.4025  -16.5867  -15.2717 N   0  0  0  0  0  0  0  0  0  0  0  0
   20.2765  -14.7803  -16.5510 C   0  0  0  0  0  0  0  0  0  0  0  0
   21.0557  -14.6276  -15.5845 O   0  0  0  0  0  0  0  0  0  0  0  0
   24.9496  -15.7426  -21.4132 C   0  0  0  0  0  0  0  0  0  0  0  0
   23.6973  -14.4905  -21.1086 S   0  0  0  0  0  0  0  0  0  0  0  0
   23.1811  -14.4954  -19.3386 C   0  0  0  0  0  0  0  0  0  0  0  0
   22.3006  -13.2882  -19.1855 C   0  0  0  0  0  0  0  0  0  0  0  0
   21.6650  -13.1587  -17.8446 C   0  0  2  0  0  0  0  0  0  0  0  0
   20.5146  -14.0438  -17.7326 N   0  0  0  0  0  0  0  0  0  0  0  0
   21.2930  -11.7724  -17.4769 C   0  0  0  0  0  0  0  0  0  0  0  0
   20.1589  -11.2743  -17.6583 O   0  0  0  0  0  0  0  0  0  0  0  0
   21.4249   -3.6472  -14.0447 O   0  0  0  0  0  0  0  0  0  0  0  0
   21.6348   -4.9884  -14.3195 C   0  0  0  0  0  0  0  0  0  0  0  0
   22.8173   -5.4186  -14.8801 C   0  0  0  0  0  0  0  0  0  0  0  0
   23.0047   -6.7712  -15.1470 C   0  0  0  0  0  0  0  0  0  0  0  0
   22.0304   -7.7056  -14.8637 C   0  0  0  0  0  0  0  0  0  0  0  0
   22.2461   -9.1328  -15.1530 C   0  0  0  0  0  0  0  0  0  0  0  0
   21.9402   -9.4952  -16.5893 C   0  0  2  0  0  0  0  0  0  0  0  0
   22.2496  -10.8816  -16.8660 N   0  0  0  0  0  0  0  0  0  0  0  0
   22.6143   -8.5892  -17.5524 C   0  0  0  0  0  0  0  0  0  0  0  0
   23.6794   -8.8468  -18.1247 O   0  0  0  0  0  0  0  0  0  0  0  0
   20.8596   -7.2401  -14.3032 C   0  0  0  0  0  0  0  0  0  0  0  0
   20.6503   -5.9032  -14.0292 C   0  0  0  0  0  0  0  0  0  0  0  0
   22.0093   -7.3705  -17.8303 O   0  0  0  0  0  0  0  0  0  0  0  0
  2  1  1  1
  2  4  1  0
  3  2  1  0
  4  6  1  0
  4  5  1  1
  6  7  2  0
  9  8  1  0
 10  9  1  0
 11 10  1  0
 12 11  1  6
 13 12  1  0
 13  6  1  0
 14 15  2  0
 14 12  1  0
 16 17  1  0
 17 27  2  0
 17 18  1  0
 18 19  2  0
 19 20  1  0
 20 21  1  0
 22 21  1  1
 22 23  1  0
 22 24  1  0
 23 14  1  0
 24 28  1  0
 25 24  2  0
 26 20  2  0
 27 26  1  0
M  END
$$$$
