HCH.pdb
     RDKit          3D

 27 28  0  0  1  0  0  0  0  0999 V2000
    9.7111  -12.9493   20.4308 N   0  0  0  0  0  0  0  0  0  0  0  0
    8.5301  -13.5541   21.0047 C   0  0  1  0  0  0  0  0  0  0  0  0
    8.3538  -14.9510   20.4659 C   0  0  0  0  0  0  0  0  0  0  0  0
    8.0159  -14.9930   19.0240 C   0  0  0  0  0  0  0  0  0  0  0  0
    8.0322  -13.8791   18.1712 C   0  0  0  0  0  0  0  0  0  0  0  0
    7.6778  -14.2696   16.9465 N   0  0  0  0  0  0  0  0  0  0  0  0
    7.4398  -15.5866   16.9988 C   0  0  0  0  0  0  0  0  0  0  0  0
    7.6421  -16.0169   18.2394 N   0  0  0  0  0  0  0  0  0  0  0  0
    8.7629  -13.6942   22.4681 C   0  0  0  0  0  0  0  0  0  0  0  0
    9.9191  -14.0384   22.8171 O   0  0  0  0  0  0  0  0  0  0  0  0
    7.8003  -13.4738   23.4710 N   0  0  0  0  0  0  0  0  0  0  0  0
    8.0455  -13.6458   24.8791 C   0  0  1  0  0  0  0  0  0  0  0  0
    6.9932  -13.0167   25.7507 C   0  0  0  0  0  0  0  0  0  0  0  0
    7.4598  -13.0572   27.5018 S   0  0  0  0  0  0  0  0  0  0  0  0
    8.1723  -15.0758   25.2591 C   0  0  0  0  0  0  0  0  0  0  0  0
    7.2254  -15.8719   25.0360 O   0  0  0  0  0  0  0  0  0  0  0  0
    9.3454  -15.5479   25.8676 N   0  0  0  0  0  0  0  0  0  0  0  0
    9.4885  -16.9372   26.3328 C   0  0  1  0  0  0  0  0  0  0  0  0
   10.8263  -17.4361   25.9102 C   0  0  0  0  0  0  0  0  0  0  0  0
   10.9211  -17.4905   24.4349 C   0  0  0  0  0  0  0  0  0  0  0  0
   10.0864  -18.1754   23.5608 C   0  0  0  0  0  0  0  0  0  0  0  0
   10.4904  -17.9858   22.2927 N   0  0  0  0  0  0  0  0  0  0  0  0
   11.5667  -17.1907   22.3708 C   0  0  0  0  0  0  0  0  0  0  0  0
   11.8276  -16.8911   23.6633 N   0  0  0  0  0  0  0  0  0  0  0  0
    9.4030  -16.9175   27.8062 C   0  0  0  0  0  0  0  0  0  0  0  0
    9.4885  -18.0956   28.5181 O   0  0  0  0  0  0  0  0  0  0  0  0
    9.2514  -15.8570   28.4833 O   0  0  0  0  0  0  0  0  0  0  0  0
  2  1  1  6
  2  9  1  0
  3  2  1  0
  3  4  1  0
  4  5  2  0
  5  6  1  0
  7  6  1  0
  8  4  1  0
  8  7  2  0
  9 11  1  0
  9 10  2  0
 11 12  1  0
 12 15  1  0
 12 13  1  1
 14 13  1  0
 15 16  2  0
 17 15  1  0
 17 18  1  0
 18 25  1  0
 19 20  1  0
 18 19  1  1
 20 24  1  0
 21 20  2  0
 21 22  1  0
 22 23  1  0
 24 23  2  0
 25 26  1  0
 27 25  2  0
M  END
$$$$
