HCH.pdb
     RDKit          3D

 27 28  0  0  1  0  0  0  0  0999 V2000
   13.5111  -14.5065   10.8442 N   0  0  0  0  0  0  0  0  0  0  0  0
   13.5701  -15.9065   11.1999 C   0  0  1  0  0  0  0  0  0  0  0  0
   14.9019  -16.4848   10.7941 C   0  0  0  0  0  0  0  0  0  0  0  0
   15.0144  -16.7545    9.3416 C   0  0  0  0  0  0  0  0  0  0  0  0
   13.9653  -17.2239    8.5369 C   0  0  0  0  0  0  0  0  0  0  0  0
   14.4085  -17.3565    7.2864 N   0  0  0  0  0  0  0  0  0  0  0  0
   15.6961  -16.9879    7.2761 C   0  0  0  0  0  0  0  0  0  0  0  0
   16.0562  -16.6289    8.5035 N   0  0  0  0  0  0  0  0  0  0  0  0
   13.5077  -15.9961   12.6843 C   0  0  0  0  0  0  0  0  0  0  0  0
   13.9302  -14.9990   13.3202 O   0  0  0  0  0  0  0  0  0  0  0  0
   13.0192  -17.0959   13.4143 N   0  0  0  0  0  0  0  0  0  0  0  0
   12.9110  -17.1303   14.8494 C   0  0  1  0  0  0  0  0  0  0  0  0
   11.4926  -17.2322   15.3400 C   0  0  0  0  0  0  0  0  0  0  0  0
   10.5876  -18.5626   14.5054 S   0  0  0  0  0  0  0  0  0  0  0  0
   13.6926  -18.2423   15.4476 C   0  0  0  0  0  0  0  0  0  0  0  0
   14.0014  -19.2406   14.7489 O   0  0  0  0  0  0  0  0  0  0  0  0
   14.0914  -18.1876   16.7920 N   0  0  0  0  0  0  0  0  0  0  0  0
   14.9276  -19.2299   17.4096 C   0  0  1  0  0  0  0  0  0  0  0  0
   14.9519  -20.4091   16.5007 C   0  0  0  0  0  0  0  0  0  0  0  0
   13.7476  -21.2453   16.6979 C   0  0  0  0  0  0  0  0  0  0  0  0
   13.1477  -21.5892   17.9028 C   0  0  0  0  0  0  0  0  0  0  0  0
   12.0713  -22.3627   17.6783 N   0  0  0  0  0  0  0  0  0  0  0  0
   11.9971  -22.5024   16.3473 C   0  0  0  0  0  0  0  0  0  0  0  0
   13.0084  -21.8283   15.7545 N   0  0  0  0  0  0  0  0  0  0  0  0
   16.2884  -18.6755   17.5485 C   0  0  0  0  0  0  0  0  0  0  0  0
   16.5393  -17.6867   18.4766 O   0  0  0  0  0  0  0  0  0  0  0  0
   17.2739  -19.0591   16.8501 O   0  0  0  0  0  0  0  0  0  0  0  0
  2  1  1  1
  2  9  1  0
  3  2  1  0
  3  4  1  0
  4  5  2  0
  5  6  1  0
  7  6  1  0
  8  4  1  0
  8  7  2  0
  9 11  1  0
  9 10  2  0
 11 12  1  0
 12 15  1  0
 12 13  1  6
 14 13  1  0
 15 16  2  0
 17 15  1  0
 17 18  1  0
 18 25  1  0
 19 20  1  0
 18 19  1  6
 20 24  1  0
 21 20  2  0
 21 22  1  0
 22 23  1  0
 24 23  2  0
 25 26  1  0
 27 25  2  0
M  END
$$$$
