HCH.pdb
     RDKit          3D

 27 28  0  0  1  0  0  0  0  0999 V2000
   13.5230  -17.2530   18.6734 N   0  0  0  0  0  0  0  0  0  0  0  0
   12.3280  -17.9025   19.1633 C   0  0  1  0  0  0  0  0  0  0  0  0
   12.4816  -19.3995   19.0720 C   0  0  0  0  0  0  0  0  0  0  0  0
   12.5328  -19.9072   17.6810 C   0  0  0  0  0  0  0  0  0  0  0  0
   11.4053  -20.1598   16.8851 C   0  0  0  0  0  0  0  0  0  0  0  0
   11.8097  -20.6060   15.6955 N   0  0  0  0  0  0  0  0  0  0  0  0
   13.1484  -20.6430   15.7150 C   0  0  0  0  0  0  0  0  0  0  0  0
   13.5784  -20.2256   16.9007 N   0  0  0  0  0  0  0  0  0  0  0  0
   12.2028  -17.5804   20.6110 C   0  0  0  0  0  0  0  0  0  0  0  0
   13.2406  -17.7211   21.3042 O   0  0  0  0  0  0  0  0  0  0  0  0
   11.0286  -17.1382   21.2488 N   0  0  0  0  0  0  0  0  0  0  0  0
   10.9386  -16.8252   22.6511 C   0  0  1  0  0  0  0  0  0  0  0  0
    9.6470  -16.1553   23.0328 C   0  0  0  0  0  0  0  0  0  0  0  0
    9.6120  -15.7175   24.7914 S   0  0  0  0  0  0  0  0  0  0  0  0
   11.1134  -18.0247   23.5091 C   0  0  0  0  0  0  0  0  0  0  0  0
   10.8684  -19.1683   23.0484 O   0  0  0  0  0  0  0  0  0  0  0  0
   11.5519  -17.8915   24.8355 N   0  0  0  0  0  0  0  0  0  0  0  0
   11.9534  -19.0478   25.6533 C   0  0  1  0  0  0  0  0  0  0  0  0
   13.3881  -19.3381   25.3798 C   0  0  0  0  0  0  0  0  0  0  0  0
   13.5204  -20.4267   24.3870 C   0  0  0  0  0  0  0  0  0  0  0  0
   12.5801  -20.8302   23.4473 C   0  0  0  0  0  0  0  0  0  0  0  0
   13.0627  -21.8534   22.7212 N   0  0  0  0  0  0  0  0  0  0  0  0
   14.2922  -22.0891   23.2002 C   0  0  0  0  0  0  0  0  0  0  0  0
   14.5695  -21.2285   24.2057 N   0  0  0  0  0  0  0  0  0  0  0  0
   11.7799  -18.6659   27.0684 C   0  0  0  0  0  0  0  0  0  0  0  0
   12.0978  -19.5606   28.0686 O   0  0  0  0  0  0  0  0  0  0  0  0
   11.3443  -17.5348   27.4386 O   0  0  0  0  0  0  0  0  0  0  0  0
  2  1  1  1
  2  9  1  0
  3  2  1  0
  3  4  1  0
  4  5  2  0
  5  6  1  0
  7  6  1  0
  8  4  1  0
  8  7  2  0
  9 11  1  0
  9 10  2  0
 11 12  1  0
 12 15  1  0
 12 13  1  6
 14 13  1  0
 15 16  2  0
 17 15  1  0
 17 18  1  0
 18 25  1  0
 19 20  1  0
 18 19  1  1
 20 24  1  0
 21 20  2  0
 21 22  1  0
 22 23  1  0
 24 23  2  0
 25 26  1  0
 27 25  2  0
M  END
$$$$
