HCH.pdb
     RDKit          3D

 27 28  0  0  1  0  0  0  0  0999 V2000
   12.7050  -15.3493   11.6479 N   0  0  0  0  0  0  0  0  0  0  0  0
   12.5871  -16.2589   12.7653 C   0  0  1  0  0  0  0  0  0  0  0  0
   13.8620  -17.0479   12.9234 C   0  0  0  0  0  0  0  0  0  0  0  0
   14.0075  -18.1446   11.9380 C   0  0  0  0  0  0  0  0  0  0  0  0
   13.3289  -19.3706   12.0074 C   0  0  0  0  0  0  0  0  0  0  0  0
   13.6909  -20.1222   10.9672 N   0  0  0  0  0  0  0  0  0  0  0  0
   14.5711  -19.4140   10.2478 C   0  0  0  0  0  0  0  0  0  0  0  0
   14.7590  -18.2340   10.8285 N   0  0  0  0  0  0  0  0  0  0  0  0
   12.4446  -15.4388   13.9992 C   0  0  0  0  0  0  0  0  0  0  0  0
   13.2104  -14.4487   14.1009 O   0  0  0  0  0  0  0  0  0  0  0  0
   11.5318  -15.6868   15.0415 N   0  0  0  0  0  0  0  0  0  0  0  0
   11.4341  -14.8915   16.2374 C   0  0  1  0  0  0  0  0  0  0  0  0
   10.0534  -14.8756   16.8342 C   0  0  0  0  0  0  0  0  0  0  0  0
    9.4212  -16.5522   17.1081 S   0  0  0  0  0  0  0  0  0  0  0  0
   12.3905  -15.3294   17.2858 C   0  0  0  0  0  0  0  0  0  0  0  0
   12.7734  -16.5260   17.3272 O   0  0  0  0  0  0  0  0  0  0  0  0
   12.8726  -14.4146   18.2345 N   0  0  0  0  0  0  0  0  0  0  0  0
   13.8644  -14.7873   19.2565 C   0  0  1  0  0  0  0  0  0  0  0  0
   14.5834  -13.5545   19.6816 C   0  0  0  0  0  0  0  0  0  0  0  0
   15.6430  -13.8797   20.6613 C   0  0  0  0  0  0  0  0  0  0  0  0
   15.9471  -15.1270   21.1919 C   0  0  0  0  0  0  0  0  0  0  0  0
   16.9751  -15.0247   22.0521 N   0  0  0  0  0  0  0  0  0  0  0  0
   17.3120  -13.7273   22.0607 C   0  0  0  0  0  0  0  0  0  0  0  0
   16.5087  -13.0353   21.2216 N   0  0  0  0  0  0  0  0  0  0  0  0
   13.1240  -15.3556   20.3999 C   0  0  0  0  0  0  0  0  0  0  0  0
   11.7498  -15.2518   20.4523 O   0  0  0  0  0  0  0  0  0  0  0  0
   13.6837  -15.9518   21.3681 O   0  0  0  0  0  0  0  0  0  0  0  0
  2  1  1  6
  2  9  1  0
  3  2  1  0
  3  4  1  0
  4  5  2  0
  5  6  1  0
  7  6  1  0
  8  4  1  0
  8  7  2  0
  9 11  1  0
  9 10  2  0
 11 12  1  0
 12 15  1  0
 12 13  1  1
 14 13  1  0
 15 16  2  0
 17 15  1  0
 17 18  1  0
 18 25  1  0
 19 20  1  0
 18 19  1  1
 20 24  1  0
 21 20  2  0
 21 22  1  0
 22 23  1  0
 24 23  2  0
 25 26  1  0
 27 25  2  0
M  END
$$$$
