HCH.pdb
     RDKit          3D

 27 28  0  0  1  0  0  0  0  0999 V2000
   10.6880  -13.2527   19.9116 N   0  0  0  0  0  0  0  0  0  0  0  0
    9.4232  -13.6877   20.4601 C   0  0  1  0  0  0  0  0  0  0  0  0
    8.9329  -14.9060   19.7196 C   0  0  0  0  0  0  0  0  0  0  0  0
    8.4627  -14.6158   18.3449 C   0  0  0  0  0  0  0  0  0  0  0  0
    8.5230  -13.3541   17.7340 C   0  0  0  0  0  0  0  0  0  0  0  0
    8.0180  -13.4473   16.5035 N   0  0  0  0  0  0  0  0  0  0  0  0
    7.6431  -14.7199   16.3192 C   0  0  0  0  0  0  0  0  0  0  0  0
    7.9092  -15.4160   17.4191 N   0  0  0  0  0  0  0  0  0  0  0  0
    9.6665  -14.1189   21.8638 C   0  0  0  0  0  0  0  0  0  0  0  0
   10.7618  -14.6910   22.0882 O   0  0  0  0  0  0  0  0  0  0  0  0
    8.7760  -13.9363   22.9383 N   0  0  0  0  0  0  0  0  0  0  0  0
    9.0076  -14.4241   24.2727 C   0  0  1  0  0  0  0  0  0  0  0  0
    8.1659  -13.7395   25.3145 C   0  0  0  0  0  0  0  0  0  0  0  0
    6.4239  -13.6549   24.8207 S   0  0  0  0  0  0  0  0  0  0  0  0
    8.7879  -15.8887   24.3839 C   0  0  0  0  0  0  0  0  0  0  0  0
    8.3771  -16.5400   23.3903 O   0  0  0  0  0  0  0  0  0  0  0  0
    9.0362  -16.5544   25.5941 N   0  0  0  0  0  0  0  0  0  0  0  0
    9.8279  -17.7935   25.6645 C   0  0  1  0  0  0  0  0  0  0  0  0
   11.1765  -17.5195   25.0957 C   0  0  0  0  0  0  0  0  0  0  0  0
   12.0123  -18.7398   25.1227 C   0  0  0  0  0  0  0  0  0  0  0  0
   11.5948  -20.0522   24.9405 C   0  0  0  0  0  0  0  0  0  0  0  0
   12.6437  -20.8877   25.0354 N   0  0  0  0  0  0  0  0  0  0  0  0
   13.7073  -20.1078   25.2745 C   0  0  0  0  0  0  0  0  0  0  0  0
   13.3273  -18.8111   25.3274 N   0  0  0  0  0  0  0  0  0  0  0  0
    9.9490  -18.1564   27.0900 C   0  0  0  0  0  0  0  0  0  0  0  0
   10.0286  -19.4826   27.4601 O   0  0  0  0  0  0  0  0  0  0  0  0
    9.9860  -17.3043   28.0274 O   0  0  0  0  0  0  0  0  0  0  0  0
  2  1  1  6
  2  9  1  0
  3  2  1  0
  3  4  1  0
  4  5  2  0
  5  6  1  0
  7  6  1  0
  8  4  1  0
  8  7  2  0
  9 11  1  0
  9 10  2  0
 11 12  1  0
 12 15  1  0
 12 13  1  1
 14 13  1  0
 15 16  2  0
 17 15  1  0
 17 18  1  0
 18 25  1  0
 19 20  1  0
 18 19  1  1
 20 24  1  0
 21 20  2  0
 21 22  1  0
 22 23  1  0
 24 23  2  0
 25 26  1  0
 27 25  2  0
M  END
$$$$
