HCH.pdb
     RDKit          3D

 27 28  0  0  1  0  0  0  0  0999 V2000
   11.3352  -17.8508   15.2772 N   0  0  0  0  0  0  0  0  0  0  0  0
   11.5040  -16.4150   15.2694 C   0  0  1  0  0  0  0  0  0  0  0  0
   10.4293  -15.7751   14.4276 C   0  0  0  0  0  0  0  0  0  0  0  0
   10.4498  -16.2064   13.0103 C   0  0  0  0  0  0  0  0  0  0  0  0
   11.5786  -16.1508   12.1789 C   0  0  0  0  0  0  0  0  0  0  0  0
   11.2479  -16.6138   10.9730 N   0  0  0  0  0  0  0  0  0  0  0  0
    9.9542  -16.9578   11.0165 C   0  0  0  0  0  0  0  0  0  0  0  0
    9.4793  -16.7140   12.2331 N   0  0  0  0  0  0  0  0  0  0  0  0
   11.2926  -15.9301   16.6606 C   0  0  0  0  0  0  0  0  0  0  0  0
   11.4106  -14.6931   16.8427 O   0  0  0  0  0  0  0  0  0  0  0  0
   10.9762  -16.7408   17.7669 N   0  0  0  0  0  0  0  0  0  0  0  0
   10.8746  -16.2594   19.1197 C   0  0  1  0  0  0  0  0  0  0  0  0
    9.7155  -16.8460   19.8780 C   0  0  0  0  0  0  0  0  0  0  0  0
    8.5538  -17.6960   18.7763 S   0  0  0  0  0  0  0  0  0  0  0  0
   12.1143  -16.5038   19.9001 C   0  0  0  0  0  0  0  0  0  0  0  0
   12.7235  -17.5975   19.7860 O   0  0  0  0  0  0  0  0  0  0  0  0
   12.6136  -15.5199   20.7672 N   0  0  0  0  0  0  0  0  0  0  0  0
   13.8423  -15.7126   21.5548 C   0  0  1  0  0  0  0  0  0  0  0  0
   14.6262  -14.4472   21.5151 C   0  0  0  0  0  0  0  0  0  0  0  0
   15.1833  -14.2203   20.1636 C   0  0  0  0  0  0  0  0  0  0  0  0
   15.8749  -15.1294   19.3729 C   0  0  0  0  0  0  0  0  0  0  0  0
   16.2229  -14.5566   18.2075 N   0  0  0  0  0  0  0  0  0  0  0  0
   15.7546  -13.3020   18.2668 C   0  0  0  0  0  0  0  0  0  0  0  0
   15.1270  -13.0979   19.4470 N   0  0  0  0  0  0  0  0  0  0  0  0
   13.4327  -16.0056   22.9422 C   0  0  0  0  0  0  0  0  0  0  0  0
   14.3777  -16.3703   23.8782 O   0  0  0  0  0  0  0  0  0  0  0  0
   12.2327  -15.9427   23.3446 O   0  0  0  0  0  0  0  0  0  0  0  0
  2  1  1  1
  2  9  1  0
  3  2  1  0
  3  4  1  0
  4  5  2  0
  5  6  1  0
  7  6  1  0
  8  4  1  0
  8  7  2  0
  9 11  1  0
  9 10  2  0
 11 12  1  0
 12 15  1  0
 12 13  1  1
 14 13  1  0
 15 16  2  0
 17 15  1  0
 17 18  1  0
 18 25  1  0
 19 20  1  0
 18 19  1  1
 20 24  1  0
 21 20  2  0
 21 22  1  0
 22 23  1  0
 24 23  2  0
 25 26  1  0
 27 25  2  0
M  END
$$$$
