HCH.pdb
     RDKit          3D

 27 28  0  0  1  0  0  0  0  0999 V2000
    9.2478  -12.4376   18.8987 N   0  0  0  0  0  0  0  0  0  0  0  0
    8.7750  -13.7409   19.3084 C   0  0  1  0  0  0  0  0  0  0  0  0
    9.5002  -14.8164   18.5399 C   0  0  0  0  0  0  0  0  0  0  0  0
    8.9988  -14.9990   17.1578 C   0  0  0  0  0  0  0  0  0  0  0  0
    8.0581  -14.1636   16.5367 C   0  0  0  0  0  0  0  0  0  0  0  0
    7.8330  -14.6128   15.3016 N   0  0  0  0  0  0  0  0  0  0  0  0
    8.5969  -15.6986   15.1243 C   0  0  0  0  0  0  0  0  0  0  0  0
    9.2921  -15.9277   16.2331 N   0  0  0  0  0  0  0  0  0  0  0  0
    9.1451  -13.9241   20.7384 C   0  0  0  0  0  0  0  0  0  0  0  0
   10.1512  -13.2879   21.1388 O   0  0  0  0  0  0  0  0  0  0  0  0
    8.4633  -14.7430   21.6580 N   0  0  0  0  0  0  0  0  0  0  0  0
    8.8219  -14.8728   23.0462 C   0  0  1  0  0  0  0  0  0  0  0  0
    7.6649  -14.6654   23.9848 C   0  0  0  0  0  0  0  0  0  0  0  0
    7.3084  -12.9055   24.2323 S   0  0  0  0  0  0  0  0  0  0  0  0
    9.4379  -16.1898   23.3488 C   0  0  0  0  0  0  0  0  0  0  0  0
    8.9893  -17.2326   22.8090 O   0  0  0  0  0  0  0  0  0  0  0  0
   10.5214  -16.2802   24.2361 N   0  0  0  0  0  0  0  0  0  0  0  0
   11.2045  -17.5530   24.5195 C   0  0  1  0  0  0  0  0  0  0  0  0
   12.6643  -17.2838   24.6375 C   0  0  0  0  0  0  0  0  0  0  0  0
   13.2416  -16.9481   23.3175 C   0  0  0  0  0  0  0  0  0  0  0  0
   12.6919  -17.2023   22.0672 C   0  0  0  0  0  0  0  0  0  0  0  0
   13.5110  -16.7496   21.1021 N   0  0  0  0  0  0  0  0  0  0  0  0
   14.5629  -16.2175   21.7402 C   0  0  0  0  0  0  0  0  0  0  0  0
   14.4013  -16.3367   23.0774 N   0  0  0  0  0  0  0  0  0  0  0  0
   10.6816  -18.0549   25.8053 C   0  0  0  0  0  0  0  0  0  0  0  0
   11.0923  -19.2804   26.2861 O   0  0  0  0  0  0  0  0  0  0  0  0
    9.8538  -17.4150   26.5205 O   0  0  0  0  0  0  0  0  0  0  0  0
  2  1  1  6
  2  9  1  0
  3  2  1  0
  3  4  1  0
  4  5  2  0
  5  6  1  0
  7  6  1  0
  8  4  1  0
  8  7  2  0
  9 11  1  0
  9 10  2  0
 11 12  1  0
 12 15  1  0
 12 13  1  1
 14 13  1  0
 15 16  2  0
 17 15  1  0
 17 18  1  0
 18 25  1  0
 19 20  1  0
 18 19  1  1
 20 24  1  0
 21 20  2  0
 21 22  1  0
 22 23  1  0
 24 23  2  0
 25 26  1  0
 27 25  2  0
M  END
$$$$
