HCH.pdb
     RDKit          3D

 27 28  0  0  1  0  0  0  0  0999 V2000
   -1.8323  -22.9963   18.9736 N   0  0  0  0  0  0  0  0  0  0  0  0
   -1.8700  -23.5669   20.3013 C   0  0  1  0  0  0  0  0  0  0  0  0
   -2.3734  -24.9865   20.2373 C   0  0  0  0  0  0  0  0  0  0  0  0
   -3.8038  -25.0930   19.8663 C   0  0  0  0  0  0  0  0  0  0  0  0
   -4.8262  -24.2984   20.4065 C   0  0  0  0  0  0  0  0  0  0  0  0
   -5.9862  -24.6562   19.8548 N   0  0  0  0  0  0  0  0  0  0  0  0
   -5.7301  -25.6454   18.9888 C   0  0  0  0  0  0  0  0  0  0  0  0
   -4.4271  -25.9049   18.9968 N   0  0  0  0  0  0  0  0  0  0  0  0
   -0.4691  -23.6398   20.7990 C   0  0  0  0  0  0  0  0  0  0  0  0
    0.4125  -23.9009   19.9435 O   0  0  0  0  0  0  0  0  0  0  0  0
   -0.0671  -23.4416   22.1332 N   0  0  0  0  0  0  0  0  0  0  0  0
    1.3036  -23.4398   22.5732 C   0  0  1  0  0  0  0  0  0  0  0  0
    1.8895  -22.0602   22.6998 C   0  0  0  0  0  0  0  0  0  0  0  0
    0.7154  -20.8983   23.4463 S   0  0  0  0  0  0  0  0  0  0  0  0
    1.4810  -24.1428   23.8693 C   0  0  0  0  0  0  0  0  0  0  0  0
    0.5605  -24.1248   24.7252 O   0  0  0  0  0  0  0  0  0  0  0  0
    2.6725  -24.8299   24.1476 N   0  0  0  0  0  0  0  0  0  0  0  0
    3.8585  -24.1586   24.7040 C   0  0  1  0  0  0  0  0  0  0  0  0
    3.5922  -22.6940   24.7413 C   0  0  0  0  0  0  0  0  0  0  0  0
    4.8126  -21.9325   24.3963 C   0  0  0  0  0  0  0  0  0  0  0  0
    6.0442  -22.4441   24.0073 C   0  0  0  0  0  0  0  0  0  0  0  0
    6.9091  -21.4409   23.7776 N   0  0  0  0  0  0  0  0  0  0  0  0
    6.2274  -20.3126   24.0200 C   0  0  0  0  0  0  0  0  0  0  0  0
    4.9618  -20.6081   24.3936 N   0  0  0  0  0  0  0  0  0  0  0  0
    4.0484  -24.6690   26.0759 C   0  0  0  0  0  0  0  0  0  0  0  0
    2.9672  -25.1335   26.7951 O   0  0  0  0  0  0  0  0  0  0  0  0
    5.1741  -24.7106   26.6565 O   0  0  0  0  0  0  0  0  0  0  0  0
  2  1  1  6
  2  9  1  0
  3  2  1  0
  3  4  1  0
  4  5  2  0
  5  6  1  0
  7  6  1  0
  8  4  1  0
  8  7  2  0
  9 11  1  0
  9 10  2  0
 11 12  1  0
 12 15  1  0
 12 13  1  1
 14 13  1  0
 15 16  2  0
 17 15  1  0
 17 18  1  0
 18 25  1  0
 19 20  1  0
 18 19  1  1
 20 24  1  0
 21 20  2  0
 21 22  1  0
 22 23  1  0
 24 23  2  0
 25 26  1  0
 27 25  2  0
M  END
$$$$
