HCH.pdb
     RDKit          3D

 27 28  0  0  1  0  0  0  0  0999 V2000
   10.2232  -16.7324   14.5067 N   0  0  0  0  0  0  0  0  0  0  0  0
    8.9482  -16.4566   15.1298 C   0  0  1  0  0  0  0  0  0  0  0  0
    8.1983  -17.7442   15.3593 C   0  0  0  0  0  0  0  0  0  0  0  0
    7.6015  -18.3112   14.1275 C   0  0  0  0  0  0  0  0  0  0  0  0
    7.6757  -17.7133   12.8605 C   0  0  0  0  0  0  0  0  0  0  0  0
    7.0355  -18.4858   11.9821 N   0  0  0  0  0  0  0  0  0  0  0  0
    6.5625  -19.5458   12.6504 C   0  0  0  0  0  0  0  0  0  0  0  0
    6.9011  -19.4402   13.9307 N   0  0  0  0  0  0  0  0  0  0  0  0
    9.2206  -15.8832   16.4761 C   0  0  0  0  0  0  0  0  0  0  0  0
   10.1832  -16.3828   17.1093 O   0  0  0  0  0  0  0  0  0  0  0  0
    8.4921  -14.8417   17.0808 N   0  0  0  0  0  0  0  0  0  0  0  0
    8.7109  -14.3762   18.4253 C   0  0  1  0  0  0  0  0  0  0  0  0
    7.8105  -13.2370   18.8180 C   0  0  0  0  0  0  0  0  0  0  0  0
    8.1448  -12.6683   20.5063 S   0  0  0  0  0  0  0  0  0  0  0  0
    8.5573  -15.4597   19.4293 C   0  0  0  0  0  0  0  0  0  0  0  0
    8.1415  -16.5915   19.0741 O   0  0  0  0  0  0  0  0  0  0  0  0
    8.8741  -15.2296   20.7769 N   0  0  0  0  0  0  0  0  0  0  0  0
    9.0475  -16.3254   21.7445 C   0  0  1  0  0  0  0  0  0  0  0  0
    9.6254  -17.4953   21.0271 C   0  0  0  0  0  0  0  0  0  0  0  0
    8.5911  -18.5264   20.7917 C   0  0  0  0  0  0  0  0  0  0  0  0
    7.2320  -18.4356   21.0650 C   0  0  0  0  0  0  0  0  0  0  0  0
    6.6132  -19.5759   20.7131 N   0  0  0  0  0  0  0  0  0  0  0  0
    7.5736  -20.3731   20.2245 C   0  0  0  0  0  0  0  0  0  0  0  0
    8.7678  -19.7406   20.2714 N   0  0  0  0  0  0  0  0  0  0  0  0
    9.9911  -15.8539   22.7769 C   0  0  0  0  0  0  0  0  0  0  0  0
   10.3115  -16.6686   23.8426 O   0  0  0  0  0  0  0  0  0  0  0  0
   10.5447  -14.7143   22.7495 O   0  0  0  0  0  0  0  0  0  0  0  0
  2  1  1  1
  2  9  1  0
  3  2  1  0
  3  4  1  0
  4  5  2  0
  5  6  1  0
  7  6  1  0
  8  4  1  0
  8  7  2  0
  9 11  1  0
  9 10  2  0
 11 12  1  0
 12 15  1  0
 12 13  1  1
 14 13  1  0
 15 16  2  0
 17 15  1  0
 17 18  1  0
 18 25  1  0
 19 20  1  0
 18 19  1  6
 20 24  1  0
 21 20  2  0
 21 22  1  0
 22 23  1  0
 24 23  2  0
 25 26  1  0
 27 25  2  0
M  END
$$$$
