HCH.pdb
     RDKit          3D

 27 28  0  0  1  0  0  0  0  0999 V2000
   10.2836  -14.1637   20.9460 N   0  0  0  0  0  0  0  0  0  0  0  0
    8.9802  -13.9564   21.5360 C   0  0  1  0  0  0  0  0  0  0  0  0
    7.9639  -14.8439   20.8634 C   0  0  0  0  0  0  0  0  0  0  0  0
    7.7225  -14.4993   19.4428 C   0  0  0  0  0  0  0  0  0  0  0  0
    8.4242  -13.5125   18.7341 C   0  0  0  0  0  0  0  0  0  0  0  0
    7.9559  -13.4637   17.4866 N   0  0  0  0  0  0  0  0  0  0  0  0
    6.9868  -14.3827   17.3859 C   0  0  0  0  0  0  0  0  0  0  0  0
    6.8487  -14.9999   18.5543 N   0  0  0  0  0  0  0  0  0  0  0  0
    9.0531  -14.4012   22.9546 C   0  0  0  0  0  0  0  0  0  0  0  0
   10.0740  -15.0560   23.2807 O   0  0  0  0  0  0  0  0  0  0  0  0
    8.0801  -14.1469   23.9392 N   0  0  0  0  0  0  0  0  0  0  0  0
    8.2324  -14.4791   25.3316 C   0  0  1  0  0  0  0  0  0  0  0  0
    7.2688  -13.7520   26.2290 C   0  0  0  0  0  0  0  0  0  0  0  0
    5.5471  -14.1638   25.8393 S   0  0  0  0  0  0  0  0  0  0  0  0
    8.0944  -15.9364   25.5822 C   0  0  0  0  0  0  0  0  0  0  0  0
    6.9759  -16.4941   25.4482 O   0  0  0  0  0  0  0  0  0  0  0  0
    9.2070  -16.6993   25.9688 N   0  0  0  0  0  0  0  0  0  0  0  0
    9.0820  -18.0759   26.4750 C   0  0  1  0  0  0  0  0  0  0  0  0
   10.1370  -18.9077   25.8327 C   0  0  0  0  0  0  0  0  0  0  0  0
    9.9156  -18.9956   24.3726 C   0  0  0  0  0  0  0  0  0  0  0  0
    8.8727  -18.4394   23.6427 C   0  0  0  0  0  0  0  0  0  0  0  0
    9.0126  -18.7352   22.3388 N   0  0  0  0  0  0  0  0  0  0  0  0
   10.1310  -19.4689   22.2520 C   0  0  0  0  0  0  0  0  0  0  0  0
   10.6769  -19.6267   23.4791 N   0  0  0  0  0  0  0  0  0  0  0  0
    9.2997  -18.0285   27.9340 C   0  0  0  0  0  0  0  0  0  0  0  0
    9.1634  -19.1741   28.6897 O   0  0  0  0  0  0  0  0  0  0  0  0
    9.6137  -16.9721   28.5597 O   0  0  0  0  0  0  0  0  0  0  0  0
  2  1  1  6
  2  9  1  0
  3  2  1  0
  3  4  1  0
  4  5  2  0
  5  6  1  0
  7  6  1  0
  8  4  1  0
  8  7  2  0
  9 11  1  0
  9 10  2  0
 11 12  1  0
 12 15  1  0
 12 13  1  1
 14 13  1  0
 15 16  2  0
 17 15  1  0
 17 18  1  0
 18 25  1  0
 19 20  1  0
 18 19  1  6
 20 24  1  0
 21 20  2  0
 21 22  1  0
 22 23  1  0
 24 23  2  0
 25 26  1  0
 27 25  2  0
M  END
$$$$
