HCH.pdb
     RDKit          3D

 27 28  0  0  1  0  0  0  0  0999 V2000
    7.9531  -12.8002   17.1804 N   0  0  0  0  0  0  0  0  0  0  0  0
    7.9985  -14.1310   17.7433 C   0  0  1  0  0  0  0  0  0  0  0  0
    8.9263  -15.0008   16.9337 C   0  0  0  0  0  0  0  0  0  0  0  0
    8.4083  -15.3262   15.5843 C   0  0  0  0  0  0  0  0  0  0  0  0
    7.4845  -16.3466   15.3123 C   0  0  0  0  0  0  0  0  0  0  0  0
    7.2372  -16.3650   14.0022 N   0  0  0  0  0  0  0  0  0  0  0  0
    7.9709  -15.3946   13.4419 C   0  0  0  0  0  0  0  0  0  0  0  0
    8.6693  -14.7756   14.3874 N   0  0  0  0  0  0  0  0  0  0  0  0
    8.5998  -14.0246   19.1007 C   0  0  0  0  0  0  0  0  0  0  0  0
    9.5227  -13.1836   19.2360 O   0  0  0  0  0  0  0  0  0  0  0  0
    8.2177  -14.7832   20.2229 N   0  0  0  0  0  0  0  0  0  0  0  0
    8.8328  -14.6749   21.5199 C   0  0  1  0  0  0  0  0  0  0  0  0
    7.8626  -14.3249   22.6149 C   0  0  0  0  0  0  0  0  0  0  0  0
    6.4099  -15.4088   22.5964 S   0  0  0  0  0  0  0  0  0  0  0  0
    9.5486  -15.9163   21.9101 C   0  0  0  0  0  0  0  0  0  0  0  0
    9.1340  -17.0333   21.5096 O   0  0  0  0  0  0  0  0  0  0  0  0
   10.6890  -15.8523   22.7255 N   0  0  0  0  0  0  0  0  0  0  0  0
   11.4129  -17.0564   23.1648 C   0  0  1  0  0  0  0  0  0  0  0  0
   12.8262  -16.6774   23.4412 C   0  0  0  0  0  0  0  0  0  0  0  0
   13.5943  -17.8445   23.9271 C   0  0  0  0  0  0  0  0  0  0  0  0
   13.1617  -19.1618   24.0148 C   0  0  0  0  0  0  0  0  0  0  0  0
   14.1434  -19.9384   24.5049 N   0  0  0  0  0  0  0  0  0  0  0  0
   15.1803  -19.1173   24.7222 C   0  0  0  0  0  0  0  0  0  0  0  0
   14.8500  -17.8532   24.3738 N   0  0  0  0  0  0  0  0  0  0  0  0
   10.7681  -17.5278   24.4060 C   0  0  0  0  0  0  0  0  0  0  0  0
   11.0386  -18.7916   24.8872 O   0  0  0  0  0  0  0  0  0  0  0  0
    9.9563  -16.8270   25.0813 O   0  0  0  0  0  0  0  0  0  0  0  0
  2  1  1  6
  2  9  1  0
  3  2  1  0
  3  4  1  0
  4  5  2  0
  5  6  1  0
  7  6  1  0
  8  4  1  0
  8  7  2  0
  9 11  1  0
  9 10  2  0
 11 12  1  0
 12 15  1  0
 12 13  1  1
 14 13  1  0
 15 16  2  0
 17 15  1  0
 17 18  1  0
 18 25  1  0
 19 20  1  0
 18 19  1  1
 20 24  1  0
 21 20  2  0
 21 22  1  0
 22 23  1  0
 24 23  2  0
 25 26  1  0
 27 25  2  0
M  END
$$$$
