KCM.pdb
     RDKit          3D

 24 23  0  0  1  0  0  0  0  0999 V2000
   28.6489  -21.4819  -15.5131 N   0  0  0  0  0  0  0  0  0  0  0  0
   27.7250  -20.4523  -15.1816 C   0  0  1  0  0  0  0  0  0  0  0  0
   27.1811  -19.8115  -16.4076 C   0  0  0  0  0  0  0  0  0  0  0  0
   27.5104  -20.5007  -17.6955 C   0  0  0  0  0  0  0  0  0  0  0  0
   28.7848  -20.0796  -18.3381 C   0  0  0  0  0  0  0  0  0  0  0  0
   28.8294  -20.6962  -19.7509 C   0  0  0  0  0  0  0  0  0  0  0  0
   27.9307  -19.9517  -20.6020 N   0  0  0  0  0  0  0  0  0  0  0  0
   26.6724  -20.8817  -14.2304 C   0  0  0  0  0  0  0  0  0  0  0  0
   25.5253  -21.1249  -14.6848 O   0  0  0  0  0  0  0  0  0  0  0  0
   26.8782  -21.0362  -12.8329 N   0  0  0  0  0  0  0  0  0  0  0  0
   25.8084  -21.2370  -11.8761 C   0  0  1  0  0  0  0  0  0  0  0  0
   26.2324  -20.9606  -10.4686 C   0  0  0  0  0  0  0  0  0  0  0  0
   24.8859  -21.1040   -9.2830 S   0  0  0  0  0  0  0  0  0  0  0  0
   24.5942  -20.4724  -12.1980 C   0  0  0  0  0  0  0  0  0  0  0  0
   24.5620  -19.2421  -12.4079 O   0  0  0  0  0  0  0  0  0  0  0  0
   19.4372  -22.6103  -16.1466 C   0  0  0  0  0  0  0  0  0  0  0  0
   20.1239  -20.9290  -16.2432 S   0  0  0  0  0  0  0  0  0  0  0  0
   20.5391  -20.3280  -14.6024 C   0  0  0  0  0  0  0  0  0  0  0  0
   21.8612  -20.8093  -14.0877 C   0  0  0  0  0  0  0  0  0  0  0  0
   22.1254  -20.5019  -12.6476 C   0  0  2  0  0  0  0  0  0  0  0  0
   23.3659  -21.1829  -12.2770 N   0  0  0  0  0  0  0  0  0  0  0  0
   21.0428  -21.0507  -11.8129 C   0  0  0  0  0  0  0  0  0  0  0  0
   21.1892  -22.2143  -11.0575 O   0  0  0  0  0  0  0  0  0  0  0  0
   19.9165  -20.4768  -11.7505 O   0  0  0  0  0  0  0  0  0  0  0  0
  2  1  1  6
  3  2  1  0
  4  3  1  0
  5  6  1  0
  5  4  1  0
  7  6  1  0
  8  2  1  0
  8  9  2  0
 10 11  1  0
 10  8  1  0
 11 12  1  1
 12 13  1  0
 14 11  1  0
 15 14  2  0
 16 17  1  0
 18 19  1  0
 18 17  1  0
 20 19  1  6
 20 21  1  0
 21 14  1  0
 22 20  1  0
 22 23  1  0
 24 22  2  0
M  END
$$$$
