KCM.pdb
     RDKit          3D

 24 23  0  0  1  0  0  0  0  0999 V2000
   18.9478  -11.5701  -15.3534 N   0  0  0  0  0  0  0  0  0  0  0  0
   18.3867  -10.4112  -15.9579 C   0  0  1  0  0  0  0  0  0  0  0  0
   16.9971  -10.6714  -16.4173 C   0  0  0  0  0  0  0  0  0  0  0  0
   16.7874  -11.9701  -17.1327 C   0  0  0  0  0  0  0  0  0  0  0  0
   15.3703  -12.3160  -17.4273 C   0  0  0  0  0  0  0  0  0  0  0  0
   15.3552  -13.6809  -18.1449 C   0  0  0  0  0  0  0  0  0  0  0  0
   13.9893  -13.9997  -18.4898 N   0  0  0  0  0  0  0  0  0  0  0  0
   18.5084   -9.1893  -15.1276 C   0  0  0  0  0  0  0  0  0  0  0  0
   18.0613   -8.1094  -15.5917 O   0  0  0  0  0  0  0  0  0  0  0  0
   19.1004   -9.1611  -13.8361 N   0  0  0  0  0  0  0  0  0  0  0  0
   19.1773   -7.9738  -13.0085 C   0  0  1  0  0  0  0  0  0  0  0  0
   18.9258   -8.2602  -11.5621 C   0  0  0  0  0  0  0  0  0  0  0  0
   17.3795   -9.1346  -11.2725 S   0  0  0  0  0  0  0  0  0  0  0  0
   20.4420   -7.2402  -13.1664 C   0  0  0  0  0  0  0  0  0  0  0  0
   21.5728   -7.7686  -13.1976 O   0  0  0  0  0  0  0  0  0  0  0  0
   24.9339   -4.5626  -18.0227 C   0  0  0  0  0  0  0  0  0  0  0  0
   23.4609   -5.4226  -17.3915 S   0  0  0  0  0  0  0  0  0  0  0  0
   23.0393   -4.8201  -15.7530 C   0  0  0  0  0  0  0  0  0  0  0  0
   21.8898   -5.5358  -15.1117 C   0  0  0  0  0  0  0  0  0  0  0  0
   21.5368   -5.0558  -13.7394 C   0  0  2  0  0  0  0  0  0  0  0  0
   20.3759   -5.8263  -13.2935 N   0  0  0  0  0  0  0  0  0  0  0  0
   21.1435   -3.6372  -13.7919 C   0  0  0  0  0  0  0  0  0  0  0  0
   19.8293   -3.2270  -14.0171 O   0  0  0  0  0  0  0  0  0  0  0  0
   22.0006   -2.7195  -13.6339 O   0  0  0  0  0  0  0  0  0  0  0  0
  2  1  1  1
  3  2  1  0
  4  3  1  0
  5  6  1  0
  5  4  1  0
  7  6  1  0
  8  2  1  0
  8  9  2  0
 10 11  1  0
 10  8  1  0
 11 12  1  1
 12 13  1  0
 14 11  1  0
 15 14  2  0
 16 17  1  0
 18 19  1  0
 18 17  1  0
 20 19  1  6
 20 21  1  0
 21 14  1  0
 22 20  1  0
 22 23  1  0
 24 22  2  0
M  END
$$$$
