KCM.pdb
     RDKit          3D

 24 23  0  0  1  0  0  0  0  0999 V2000
   25.3397  -25.8477  -14.9517 N   0  0  0  0  0  0  0  0  0  0  0  0
   25.4060  -24.4589  -15.2519 C   0  0  1  0  0  0  0  0  0  0  0  0
   25.0333  -24.2030  -16.6680 C   0  0  0  0  0  0  0  0  0  0  0  0
   25.8535  -24.9259  -17.6911 C   0  0  0  0  0  0  0  0  0  0  0  0
   27.3240  -24.7199  -17.5934 C   0  0  0  0  0  0  0  0  0  0  0  0
   27.9814  -25.4169  -18.8018 C   0  0  0  0  0  0  0  0  0  0  0  0
   29.4112  -25.2337  -18.7117 N   0  0  0  0  0  0  0  0  0  0  0  0
   24.6674  -23.6066  -14.2900 C   0  0  0  0  0  0  0  0  0  0  0  0
   23.4394  -23.4183  -14.4852 O   0  0  0  0  0  0  0  0  0  0  0  0
   25.2612  -22.9869  -13.1575 N   0  0  0  0  0  0  0  0  0  0  0  0
   24.5768  -22.0342  -12.3064 C   0  0  1  0  0  0  0  0  0  0  0  0
   25.4729  -21.4407  -11.2661 C   0  0  0  0  0  0  0  0  0  0  0  0
   24.6125  -20.3294  -10.1418 S   0  0  0  0  0  0  0  0  0  0  0  0
   23.9008  -20.9676  -13.0598 C   0  0  0  0  0  0  0  0  0  0  0  0
   24.3777  -20.3883  -14.0577 O   0  0  0  0  0  0  0  0  0  0  0  0
   21.9406  -20.9200  -18.0295 C   0  0  0  0  0  0  0  0  0  0  0  0
   20.3543  -20.4963  -17.2473 S   0  0  0  0  0  0  0  0  0  0  0  0
   20.6325  -19.6466  -15.6896 C   0  0  0  0  0  0  0  0  0  0  0  0
   21.5076  -20.3932  -14.7297 C   0  0  0  0  0  0  0  0  0  0  0  0
   21.7802  -19.6812  -13.4425 C   0  0  2  0  0  0  0  0  0  0  0  0
   22.6099  -20.5644  -12.6231 N   0  0  0  0  0  0  0  0  0  0  0  0
   20.5165  -19.4518  -12.7211 C   0  0  0  0  0  0  0  0  0  0  0  0
   19.6257  -18.4350  -13.0653 O   0  0  0  0  0  0  0  0  0  0  0  0
   20.1866  -20.1817  -11.7411 O   0  0  0  0  0  0  0  0  0  0  0  0
  2  1  1  1
  3  2  1  0
  4  3  1  0
  5  6  1  0
  5  4  1  0
  7  6  1  0
  8  2  1  0
  8  9  2  0
 10 11  1  0
 10  8  1  0
 11 12  1  1
 12 13  1  0
 14 11  1  0
 15 14  2  0
 16 17  1  0
 18 19  1  0
 18 17  1  0
 20 19  1  6
 20 21  1  0
 21 14  1  0
 22 20  1  0
 22 23  1  0
 24 22  2  0
M  END
$$$$
