KCM.pdb
     RDKit          3D

 24 23  0  0  1  0  0  0  0  0999 V2000
   25.1901  -20.1038  -16.0755 N   0  0  0  0  0  0  0  0  0  0  0  0
   26.1219  -19.2852  -15.3791 C   0  0  1  0  0  0  0  0  0  0  0  0
   26.3588  -18.0114  -16.1079 C   0  0  0  0  0  0  0  0  0  0  0  0
   27.2248  -18.1166  -17.3249 C   0  0  0  0  0  0  0  0  0  0  0  0
   28.6891  -18.1679  -17.0651 C   0  0  0  0  0  0  0  0  0  0  0  0
   29.4092  -18.2517  -18.4262 C   0  0  0  0  0  0  0  0  0  0  0  0
   30.8240  -18.4135  -18.1845 N   0  0  0  0  0  0  0  0  0  0  0  0
   25.7864  -19.0866  -13.9490 C   0  0  0  0  0  0  0  0  0  0  0  0
   26.4591  -18.2515  -13.2920 O   0  0  0  0  0  0  0  0  0  0  0  0
   24.7492  -19.7824  -13.2714 N   0  0  0  0  0  0  0  0  0  0  0  0
   24.3784  -19.5361  -11.8922 C   0  0  1  0  0  0  0  0  0  0  0  0
   22.9095  -19.6858  -11.6531 C   0  0  0  0  0  0  0  0  0  0  0  0
   22.3260  -21.3747  -11.8690 S   0  0  0  0  0  0  0  0  0  0  0  0
   25.1331  -20.3589  -10.9351 C   0  0  0  0  0  0  0  0  0  0  0  0
   25.4669  -21.5468  -11.1252 O   0  0  0  0  0  0  0  0  0  0  0  0
   29.3999  -18.1473   -6.2906 C   0  0  0  0  0  0  0  0  0  0  0  0
   28.1888  -19.1289   -5.3540 S   0  0  0  0  0  0  0  0  0  0  0  0
   27.3255  -20.2640   -6.4458 C   0  0  0  0  0  0  0  0  0  0  0  0
   26.7557  -19.6223   -7.6738 C   0  0  0  0  0  0  0  0  0  0  0  0
   26.0812  -20.5641   -8.6205 C   0  0  2  0  0  0  0  0  0  0  0  0
   25.5120  -19.7611   -9.7027 N   0  0  0  0  0  0  0  0  0  0  0  0
   24.9718  -21.2508   -7.9367 C   0  0  0  0  0  0  0  0  0  0  0  0
   25.1549  -22.4046   -7.1742 O   0  0  0  0  0  0  0  0  0  0  0  0
   23.7875  -20.8122   -8.0190 O   0  0  0  0  0  0  0  0  0  0  0  0
  2  1  1  6
  3  2  1  0
  4  3  1  0
  5  6  1  0
  5  4  1  0
  7  6  1  0
  8  2  1  0
  8  9  2  0
 10 11  1  0
 10  8  1  0
 11 12  1  6
 12 13  1  0
 14 11  1  0
 15 14  2  0
 16 17  1  0
 18 19  1  0
 18 17  1  0
 20 19  1  1
 20 21  1  0
 21 14  1  0
 22 20  1  0
 22 23  1  0
 24 22  2  0
M  END
$$$$
