KCM.pdb
     RDKit          3D

 24 23  0  0  1  0  0  0  0  0999 V2000
   21.4382  -13.6550  -17.0970 N   0  0  0  0  0  0  0  0  0  0  0  0
   20.9904  -12.3296  -17.3543 C   0  0  1  0  0  0  0  0  0  0  0  0
   19.5068  -12.2751  -17.4292 C   0  0  0  0  0  0  0  0  0  0  0  0
   18.8742  -13.2339  -18.3897 C   0  0  0  0  0  0  0  0  0  0  0  0
   17.3979  -13.1142  -18.5335 C   0  0  0  0  0  0  0  0  0  0  0  0
   16.9356  -14.1638  -19.5644 C   0  0  0  0  0  0  0  0  0  0  0  0
   15.5017  -14.0637  -19.7056 N   0  0  0  0  0  0  0  0  0  0  0  0
   21.5667  -11.3184  -16.4365 C   0  0  0  0  0  0  0  0  0  0  0  0
   21.1965  -11.3282  -15.2347 O   0  0  0  0  0  0  0  0  0  0  0  0
   22.5144  -10.3354  -16.8301 N   0  0  0  0  0  0  0  0  0  0  0  0
   23.0780   -9.3502  -15.9290 C   0  0  1  0  0  0  0  0  0  0  0  0
   24.5637   -9.4673  -15.8006 C   0  0  0  0  0  0  0  0  0  0  0  0
   25.0878  -11.0059  -15.0277 S   0  0  0  0  0  0  0  0  0  0  0  0
   22.7077   -7.9702  -16.2767 C   0  0  0  0  0  0  0  0  0  0  0  0
   22.5183   -7.5548  -17.4388 O   0  0  0  0  0  0  0  0  0  0  0  0
   17.6172   -2.9812  -17.1872 C   0  0  0  0  0  0  0  0  0  0  0  0
   18.2856   -4.6189  -16.7643 S   0  0  0  0  0  0  0  0  0  0  0  0
   19.9801   -4.4726  -16.1873 C   0  0  0  0  0  0  0  0  0  0  0  0
   20.6663   -5.7842  -15.9561 C   0  0  0  0  0  0  0  0  0  0  0  0
   22.0772   -5.6789  -15.4698 C   0  0  2  0  0  0  0  0  0  0  0  0
   22.5528   -7.0386  -15.2147 N   0  0  0  0  0  0  0  0  0  0  0  0
   22.1126   -4.9420  -14.1949 C   0  0  0  0  0  0  0  0  0  0  0  0
   22.1471   -3.5489  -14.1300 O   0  0  0  0  0  0  0  0  0  0  0  0
   22.1155   -5.5575  -13.0890 O   0  0  0  0  0  0  0  0  0  0  0  0
  2  1  1  1
  3  2  1  0
  4  3  1  0
  5  6  1  0
  5  4  1  0
  7  6  1  0
  8  2  1  0
  8  9  2  0
 10 11  1  0
 10  8  1  0
 11 12  1  6
 12 13  1  0
 14 11  1  0
 15 14  2  0
 16 17  1  0
 18 19  1  0
 18 17  1  0
 20 19  1  1
 20 21  1  0
 21 14  1  0
 22 20  1  0
 22 23  1  0
 24 22  2  0
M  END
$$$$
