NLD.pdb
     RDKit          3D

 25 24  0  0  1  0  0  0  0  0999 V2000
    7.9629  -16.5551   18.6859 N   0  0  0  0  0  0  0  0  0  0  0  0
    8.5871  -15.2830   18.9466 C   0  0  0  0  0  0  0  0  0  0  0  0
    8.8487  -14.5117   18.0042 O   0  0  0  0  0  0  0  0  0  0  0  0
    8.9123  -14.9007   20.3178 C   0  0  0  0  0  0  0  0  0  0  0  0
    8.5465  -15.9358   21.3132 C   0  0  2  0  0  0  0  0  0  0  0  0
    7.1906  -16.3721   21.3193 N   0  0  0  0  0  0  0  0  0  0  0  0
    8.9878  -15.6314   22.7167 C   0  0  0  0  0  0  0  0  0  0  0  0
   10.2016  -15.6585   23.0354 O   0  0  0  0  0  0  0  0  0  0  0  0
    5.8791  -12.3664   26.1177 C   0  0  0  0  0  0  0  0  0  0  0  0
    7.1257  -13.0063   25.5297 C   0  0  1  0  0  0  0  0  0  0  0  0
    8.2903  -12.1012   25.6836 C   0  0  0  0  0  0  0  0  0  0  0  0
    7.2933  -14.4150   25.9515 C   0  0  0  0  0  0  0  0  0  0  0  0
    8.2797  -15.2258   25.1336 C   0  0  2  0  0  0  0  0  0  0  0  0
    8.0473  -15.3026   23.7454 N   0  0  0  0  0  0  0  0  0  0  0  0
    8.6397  -16.4698   25.8300 C   0  0  0  0  0  0  0  0  0  0  0  0
    7.7391  -17.3365   25.9696 O   0  0  0  0  0  0  0  0  0  0  0  0
    9.9133  -16.7589   26.3489 N   0  0  0  0  0  0  0  0  0  0  0  0
   10.2064  -18.0893   26.9116 C   0  0  1  0  0  0  0  0  0  0  0  0
   11.2447  -18.6985   26.0306 C   0  0  0  0  0  0  0  0  0  0  0  0
   11.7620  -19.9898   26.4951 C   0  0  0  0  0  0  0  0  0  0  0  0
   11.0904  -20.6219   27.3499 O   0  0  0  0  0  0  0  0  0  0  0  0
   10.6585  -17.9023   28.3100 C   0  0  0  0  0  0  0  0  0  0  0  0
   11.4125  -16.8421   28.7712 O   0  0  0  0  0  0  0  0  0  0  0  0
   12.9346  -20.5582   26.0605 O   0  0  0  0  0  0  0  0  0  0  0  0
   10.3460  -18.7677   29.1819 O   0  0  0  0  0  0  0  0  0  0  0  0
  1  2  1  0
  2  3  2  0
  4  2  1  0
  5  4  1  0
  5  6  1  1
  7  8  2  0
  7  5  1  0
 10  9  1  1
 10 11  1  0
 10 12  1  0
 13 12  1  1
 13 14  1  0
 14  7  1  0
 15 17  1  0
 15 13  1  0
 16 15  2  0
 18 17  1  0
 18 22  1  0
 18 19  1  6
 20 19  1  0
 21 20  2  0
 22 23  1  0
 24 20  1  0
 25 22  2  0
M  END
$$$$
