NLD.pdb
     RDKit          3D

 25 24  0  0  1  0  0  0  0  0999 V2000
    7.5065  -17.0662   19.4388 N   0  0  0  0  0  0  0  0  0  0  0  0
    8.1694  -15.7907   19.3407 C   0  0  0  0  0  0  0  0  0  0  0  0
    8.3497  -15.2655   18.2257 O   0  0  0  0  0  0  0  0  0  0  0  0
    8.6293  -15.1160   20.5512 C   0  0  0  0  0  0  0  0  0  0  0  0
    8.3865  -15.9018   21.7838 C   0  0  2  0  0  0  0  0  0  0  0  0
    7.0466  -16.3187   22.0279 N   0  0  0  0  0  0  0  0  0  0  0  0
    8.9643  -15.2954   23.0311 C   0  0  0  0  0  0  0  0  0  0  0  0
   10.1957  -15.0748   23.1349 O   0  0  0  0  0  0  0  0  0  0  0  0
    5.5760  -12.4308   26.3827 C   0  0  0  0  0  0  0  0  0  0  0  0
    6.8045  -12.8667   25.6017 C   0  0  1  0  0  0  0  0  0  0  0  0
    7.5053  -11.6851   25.0431 C   0  0  0  0  0  0  0  0  0  0  0  0
    7.6188  -13.8623   26.3339 C   0  0  0  0  0  0  0  0  0  0  0  0
    8.5460  -14.7015   25.4764 C   0  0  2  0  0  0  0  0  0  0  0  0
    8.1398  -14.9482   24.1493 N   0  0  0  0  0  0  0  0  0  0  0  0
    9.0841  -15.8356   26.2420 C   0  0  0  0  0  0  0  0  0  0  0  0
    9.4939  -15.6043   27.4084 O   0  0  0  0  0  0  0  0  0  0  0  0
    9.1732  -17.1549   25.7660 N   0  0  0  0  0  0  0  0  0  0  0  0
    9.7816  -18.2094   26.5966 C   0  0  1  0  0  0  0  0  0  0  0  0
    8.9602  -19.4367   26.3857 C   0  0  0  0  0  0  0  0  0  0  0  0
    7.9738  -19.7025   27.4378 C   0  0  0  0  0  0  0  0  0  0  0  0
    8.2032  -19.2526   28.5895 O   0  0  0  0  0  0  0  0  0  0  0  0
   11.1922  -18.3663   26.1714 C   0  0  0  0  0  0  0  0  0  0  0  0
   12.2076  -18.8877   26.9474 O   0  0  0  0  0  0  0  0  0  0  0  0
    6.8129  -20.4130   27.2522 O   0  0  0  0  0  0  0  0  0  0  0  0
   11.5307  -18.0019   25.0055 O   0  0  0  0  0  0  0  0  0  0  0  0
  1  2  1  0
  2  3  2  0
  4  2  1  0
  5  4  1  0
  5  6  1  1
  7  8  2  0
  7  5  1  0
 10  9  1  1
 10 11  1  0
 10 12  1  0
 13 12  1  1
 13 14  1  0
 14  7  1  0
 15 17  1  0
 15 13  1  0
 16 15  2  0
 18 17  1  0
 18 22  1  0
 18 19  1  6
 20 19  1  0
 21 20  2  0
 22 23  1  0
 24 20  1  0
 25 22  2  0
M  END
$$$$
