NLD.pdb
     RDKit          3D

 25 24  0  0  1  0  0  0  0  0999 V2000
   10.8062  -17.2152   18.4195 N   0  0  0  0  0  0  0  0  0  0  0  0
    9.5242  -16.8696   18.9790 C   0  0  0  0  0  0  0  0  0  0  0  0
    8.4839  -17.3696   18.5107 O   0  0  0  0  0  0  0  0  0  0  0  0
    9.4478  -15.9318   20.0957 C   0  0  0  0  0  0  0  0  0  0  0  0
    9.0013  -16.5654   21.3586 C   0  0  2  0  0  0  0  0  0  0  0  0
    7.6750  -17.0843   21.3845 N   0  0  0  0  0  0  0  0  0  0  0  0
    9.2467  -15.7389   22.5890 C   0  0  0  0  0  0  0  0  0  0  0  0
   10.4125  -15.4563   22.9588 O   0  0  0  0  0  0  0  0  0  0  0  0
    8.3651  -11.9563   26.0946 C   0  0  0  0  0  0  0  0  0  0  0  0
    7.2620  -12.9806   26.3024 C   0  0  1  0  0  0  0  0  0  0  0  0
    6.0731  -12.3397   26.9149 C   0  0  0  0  0  0  0  0  0  0  0  0
    7.0437  -13.8295   25.1099 C   0  0  0  0  0  0  0  0  0  0  0  0
    8.2427  -14.6425   24.6620 C   0  0  2  0  0  0  0  0  0  0  0  0
    8.1672  -15.2438   23.3893 N   0  0  0  0  0  0  0  0  0  0  0  0
    8.7637  -15.4600   25.7676 C   0  0  0  0  0  0  0  0  0  0  0  0
    8.9676  -14.8843   26.8671 O   0  0  0  0  0  0  0  0  0  0  0  0
    9.0491  -16.8336   25.6844 N   0  0  0  0  0  0  0  0  0  0  0  0
    9.7048  -17.5296   26.8060 C   0  0  1  0  0  0  0  0  0  0  0  0
   10.5410  -18.6066   26.2008 C   0  0  0  0  0  0  0  0  0  0  0  0
   11.3702  -19.3487   27.1559 C   0  0  0  0  0  0  0  0  0  0  0  0
   11.2422  -19.0848   28.3788 O   0  0  0  0  0  0  0  0  0  0  0  0
   10.4929  -16.5296   27.5637 C   0  0  0  0  0  0  0  0  0  0  0  0
   10.3313  -16.2320   28.9017 O   0  0  0  0  0  0  0  0  0  0  0  0
   12.2818  -20.3149   26.8060 O   0  0  0  0  0  0  0  0  0  0  0  0
   11.3985  -15.8743   26.9659 O   0  0  0  0  0  0  0  0  0  0  0  0
  1  2  1  0
  2  3  2  0
  4  2  1  0
  5  4  1  0
  5  6  1  6
  7  8  2  0
  7  5  1  0
 10  9  1  6
 10 11  1  0
 10 12  1  0
 13 12  1  1
 13 14  1  0
 14  7  1  0
 15 17  1  0
 15 13  1  0
 16 15  2  0
 18 17  1  0
 18 22  1  0
 18 19  1  6
 20 19  1  0
 21 20  2  0
 22 23  1  0
 24 20  1  0
 25 22  2  0
M  END
$$$$
