NLD.pdb
     RDKit          3D

 25 24  0  0  1  0  0  0  0  0999 V2000
    7.3040  -12.5452   18.2516 N   0  0  0  0  0  0  0  0  0  0  0  0
    8.1019  -13.5981   18.8267 C   0  0  0  0  0  0  0  0  0  0  0  0
    8.4392  -14.5756   18.1323 O   0  0  0  0  0  0  0  0  0  0  0  0
    8.5136  -13.5163   20.2253 C   0  0  0  0  0  0  0  0  0  0  0  0
    8.2713  -14.7697   20.9778 C   0  0  2  0  0  0  0  0  0  0  0  0
    6.9463  -15.2914   20.9495 N   0  0  0  0  0  0  0  0  0  0  0  0
    8.7802  -14.7538   22.3914 C   0  0  0  0  0  0  0  0  0  0  0  0
   10.0057  -14.6404   22.6385 O   0  0  0  0  0  0  0  0  0  0  0  0
    5.6661  -12.5330   26.4999 C   0  0  0  0  0  0  0  0  0  0  0  0
    6.9067  -12.9400   25.7224 C   0  0  1  0  0  0  0  0  0  0  0  0
    8.0067  -11.9760   25.9671 C   0  0  0  0  0  0  0  0  0  0  0  0
    7.2159  -14.3807   25.8606 C   0  0  0  0  0  0  0  0  0  0  0  0
    8.2338  -14.9246   24.8773 C   0  0  2  0  0  0  0  0  0  0  0  0
    7.8941  -14.8699   23.5103 N   0  0  0  0  0  0  0  0  0  0  0  0
    8.8307  -16.1720   25.3775 C   0  0  0  0  0  0  0  0  0  0  0  0
    8.0704  -17.1652   25.5096 O   0  0  0  0  0  0  0  0  0  0  0  0
   10.1847  -16.3336   25.7173 N   0  0  0  0  0  0  0  0  0  0  0  0
   10.6763  -17.6230   26.2349 C   0  0  1  0  0  0  0  0  0  0  0  0
   12.1456  -17.6462   25.9780 C   0  0  0  0  0  0  0  0  0  0  0  0
   12.5192  -17.7690   24.5653 C   0  0  0  0  0  0  0  0  0  0  0  0
   11.6491  -18.1857   23.7586 O   0  0  0  0  0  0  0  0  0  0  0  0
   10.3301  -17.6974   27.6735 C   0  0  0  0  0  0  0  0  0  0  0  0
   10.3902  -18.8355   28.4522 O   0  0  0  0  0  0  0  0  0  0  0  0
   13.7589  -17.4608   24.0602 O   0  0  0  0  0  0  0  0  0  0  0  0
    9.9425  -16.6490   28.2713 O   0  0  0  0  0  0  0  0  0  0  0  0
  1  2  1  0
  2  3  2  0
  4  2  1  0
  5  4  1  0
  5  6  1  1
  7  8  2  0
  7  5  1  0
 10  9  1  1
 10 11  1  0
 10 12  1  0
 13 12  1  1
 13 14  1  0
 14  7  1  0
 15 17  1  0
 15 13  1  0
 16 15  2  0
 18 17  1  0
 18 22  1  0
 18 19  1  1
 20 19  1  0
 21 20  2  0
 22 23  1  0
 24 20  1  0
 25 22  2  0
M  END
$$$$
