NLD.pdb
     RDKit          3D

 25 24  0  0  1  0  0  0  0  0999 V2000
    7.4815  -16.5239   18.3814 N   0  0  0  0  0  0  0  0  0  0  0  0
    8.3319  -15.3690   18.5186 C   0  0  0  0  0  0  0  0  0  0  0  0
    8.7671  -14.7908   17.5048 O   0  0  0  0  0  0  0  0  0  0  0  0
    8.6823  -14.8786   19.8486 C   0  0  0  0  0  0  0  0  0  0  0  0
    8.1484  -15.7258   20.9409 C   0  0  2  0  0  0  0  0  0  0  0  0
    6.7382  -15.9235   20.9714 N   0  0  0  0  0  0  0  0  0  0  0  0
    8.6383  -15.3538   22.3117 C   0  0  0  0  0  0  0  0  0  0  0  0
    9.8651  -15.2485   22.5557 O   0  0  0  0  0  0  0  0  0  0  0  0
    5.6749  -12.2219   26.0674 C   0  0  0  0  0  0  0  0  0  0  0  0
    6.8474  -12.8359   25.3207 C   0  0  1  0  0  0  0  0  0  0  0  0
    8.0360  -11.9540   25.4145 C   0  0  0  0  0  0  0  0  0  0  0  0
    7.0327  -14.2700   25.6358 C   0  0  0  0  0  0  0  0  0  0  0  0
    8.0346  -15.0030   24.7652 C   0  0  2  0  0  0  0  0  0  0  0  0
    7.7316  -15.1082   23.3925 N   0  0  0  0  0  0  0  0  0  0  0  0
    8.5342  -16.2085   25.4429 C   0  0  0  0  0  0  0  0  0  0  0  0
    7.7083  -17.1298   25.6689 O   0  0  0  0  0  0  0  0  0  0  0  0
    9.8635  -16.4048   25.8547 N   0  0  0  0  0  0  0  0  0  0  0  0
   10.3009  -17.7154   26.3676 C   0  0  1  0  0  0  0  0  0  0  0  0
   11.5808  -18.0335   25.6703 C   0  0  0  0  0  0  0  0  0  0  0  0
   12.2607  -19.2385   26.1563 C   0  0  0  0  0  0  0  0  0  0  0  0
   11.6719  -19.9426   27.0160 O   0  0  0  0  0  0  0  0  0  0  0  0
   10.4450  -17.6035   27.8379 C   0  0  0  0  0  0  0  0  0  0  0  0
   10.1867  -16.4703   28.5823 O   0  0  0  0  0  0  0  0  0  0  0  0
   13.5017  -19.6524   25.7372 O   0  0  0  0  0  0  0  0  0  0  0  0
   10.8358  -18.6117   28.4994 O   0  0  0  0  0  0  0  0  0  0  0  0
  1  2  1  0
  2  3  2  0
  4  2  1  0
  5  4  1  0
  5  6  1  1
  7  8  2  0
  7  5  1  0
 10  9  1  1
 10 11  1  0
 10 12  1  0
 13 12  1  1
 13 14  1  0
 14  7  1  0
 15 17  1  0
 15 13  1  0
 16 15  2  0
 18 17  1  0
 18 22  1  0
 18 19  1  6
 20 19  1  0
 21 20  2  0
 22 23  1  0
 24 20  1  0
 25 22  2  0
M  END
$$$$
