NLD.pdb
     RDKit          3D

 25 24  0  0  1  0  0  0  0  0999 V2000
    8.0381  -18.2380   17.1749 N   0  0  0  0  0  0  0  0  0  0  0  0
    9.0273  -17.5966   16.3466 C   0  0  0  0  0  0  0  0  0  0  0  0
    8.7602  -17.3105   15.1641 O   0  0  0  0  0  0  0  0  0  0  0  0
   10.3431  -17.2832   16.8967 C   0  0  0  0  0  0  0  0  0  0  0  0
   10.5279  -17.7771   18.2815 C   0  0  2  0  0  0  0  0  0  0  0  0
    9.5950  -18.7467   18.7489 N   0  0  0  0  0  0  0  0  0  0  0  0
   10.6927  -16.6946   19.3103 C   0  0  0  0  0  0  0  0  0  0  0  0
   11.8051  -16.1455   19.5017 O   0  0  0  0  0  0  0  0  0  0  0  0
    6.2842  -13.4843   20.9682 C   0  0  0  0  0  0  0  0  0  0  0  0
    7.6705  -13.9586   20.5654 C   0  0  1  0  0  0  0  0  0  0  0  0
    8.4286  -12.8531   19.9311 C   0  0  0  0  0  0  0  0  0  0  0  0
    8.3438  -14.7219   21.6399 C   0  0  0  0  0  0  0  0  0  0  0  0
    9.6385  -15.4027   21.2409 C   0  0  2  0  0  0  0  0  0  0  0  0
    9.5946  -16.2482   20.1138 N   0  0  0  0  0  0  0  0  0  0  0  0
   10.3608  -15.8899   22.4254 C   0  0  0  0  0  0  0  0  0  0  0  0
   10.3941  -15.1379   23.4330 O   0  0  0  0  0  0  0  0  0  0  0  0
   11.0142  -17.1310   22.5124 N   0  0  0  0  0  0  0  0  0  0  0  0
   11.7271  -17.5153   23.7439 C   0  0  1  0  0  0  0  0  0  0  0  0
   11.5185  -18.9832   23.9093 C   0  0  0  0  0  0  0  0  0  0  0  0
   10.4883  -19.3499   24.8864 C   0  0  0  0  0  0  0  0  0  0  0  0
   10.1491  -18.4889   25.7379 O   0  0  0  0  0  0  0  0  0  0  0  0
   13.1508  -17.1388   23.5818 C   0  0  0  0  0  0  0  0  0  0  0  0
   14.0410  -16.9165   24.6128 O   0  0  0  0  0  0  0  0  0  0  0  0
    9.8669  -20.5739   24.9372 O   0  0  0  0  0  0  0  0  0  0  0  0
   13.6246  -16.9999   22.4143 O   0  0  0  0  0  0  0  0  0  0  0  0
  1  2  1  0
  2  3  2  0
  4  2  1  0
  5  4  1  0
  5  6  1  1
  7  8  2  0
  7  5  1  0
 10  9  1  1
 10 11  1  0
 10 12  1  0
 13 12  1  1
 13 14  1  0
 14  7  1  0
 15 17  1  0
 15 13  1  0
 16 15  2  0
 18 17  1  0
 18 22  1  0
 18 19  1  6
 20 19  1  0
 21 20  2  0
 22 23  1  0
 24 20  1  0
 25 22  2  0
M  END
$$$$
