QVQ.pdb
     RDKit          3D

 26 25  0  0  1  0  0  0  0  0999 V2000
   19.4201  -16.4043  -16.3249 N   0  0  0  0  0  0  0  0  0  0  0  0
   19.0168  -15.7468  -17.4973 C   0  0  0  0  0  0  0  0  0  0  0  0
   18.1844  -16.2935  -18.2515 O   0  0  0  0  0  0  0  0  0  0  0  0
   19.5683  -14.4386  -17.8253 C   0  0  0  0  0  0  0  0  0  0  0  0
   20.5975  -13.9478  -16.8391 C   0  0  0  0  0  0  0  0  0  0  0  0
   21.0346  -12.5759  -17.3242 C   0  0  2  0  0  0  0  0  0  0  0  0
   21.7913  -12.6387  -18.5485 N   0  0  0  0  0  0  0  0  0  0  0  0
   21.7295  -11.8039  -16.2755 C   0  0  0  0  0  0  0  0  0  0  0  0
   21.1956  -11.5326  -15.1847 O   0  0  0  0  0  0  0  0  0  0  0  0
   26.1329  -10.0572  -14.7958 C   0  0  0  0  0  0  0  0  0  0  0  0
   25.2095  -10.8206  -15.7127 C   0  0  2  0  0  0  0  0  0  0  0  0
   25.6696  -10.7945  -17.1391 C   0  0  0  0  0  0  0  0  0  0  0  0
   23.7550  -10.4808  -15.5558 C   0  0  2  0  0  0  0  0  0  0  0  0
   23.0482  -11.3529  -16.5102 N   0  0  0  0  0  0  0  0  0  0  0  0
   23.3928   -9.1002  -15.8700 C   0  0  0  0  0  0  0  0  0  0  0  0
   23.2881   -8.7916  -17.1109 O   0  0  0  0  0  0  0  0  0  0  0  0
   18.9152   -7.6091  -17.4339 N   0  0  0  0  0  0  0  0  0  0  0  0
   19.2083   -6.2516  -17.0846 C   0  0  0  0  0  0  0  0  0  0  0  0
   18.3249   -5.3872  -17.3828 O   0  0  0  0  0  0  0  0  0  0  0  0
   20.4669   -5.8924  -16.4094 C   0  0  0  0  0  0  0  0  0  0  0  0
   21.3469   -7.0337  -16.0726 C   0  0  0  0  0  0  0  0  0  0  0  0
   22.6461   -6.7732  -15.4047 C   0  0  2  0  0  0  0  0  0  0  0  0
   23.1504   -8.0878  -14.9378 N   0  0  0  0  0  0  0  0  0  0  0  0
   22.5689   -5.8741  -14.2657 C   0  0  0  0  0  0  0  0  0  0  0  0
   22.5547   -6.2848  -13.0602 O   0  0  0  0  0  0  0  0  0  0  0  0
   22.5037   -4.4851  -14.3949 O   0  0  0  0  0  0  0  0  0  0  0  0
  2  1  1  0
  2  3  2  0
  4  5  1  0
  4  2  1  0
  6  7  1  6
  6  5  1  0
  8  6  1  0
  9  8  2  0
 11 10  1  1
 11 12  1  0
 11 13  1  0
 13 14  1  6
 14  8  1  0
 15 16  2  0
 15 13  1  0
 18 17  1  0
 19 18  2  0
 20 18  1  0
 22 21  1  1
 21 20  1  0
 22 23  1  0
 23 15  1  0
 24 22  1  0
 25 24  2  0
 26 24  1  0
M  END
$$$$
