QVQ.pdb
     RDKit          3D

 26 25  0  0  1  0  0  0  0  0999 V2000
   11.2479  -14.0486  -13.2666 N   0  0  0  0  0  0  0  0  0  0  0  0
   12.5627  -13.6476  -12.9840 C   0  0  0  0  0  0  0  0  0  0  0  0
   13.4104  -13.6351  -13.9016 O   0  0  0  0  0  0  0  0  0  0  0  0
   12.9283  -13.2510  -11.6306 C   0  0  0  0  0  0  0  0  0  0  0  0
   12.7945  -11.7716  -11.3732 C   0  0  0  0  0  0  0  0  0  0  0  0
   14.2087  -11.2248  -11.2752 C   0  0  2  0  0  0  0  0  0  0  0  0
   14.9522  -11.8090  -10.1883 N   0  0  0  0  0  0  0  0  0  0  0  0
   14.2403   -9.7495  -11.2459 C   0  0  0  0  0  0  0  0  0  0  0  0
   13.7228   -9.0548  -12.1392 O   0  0  0  0  0  0  0  0  0  0  0  0
   13.6328   -7.6897   -7.8144 C   0  0  0  0  0  0  0  0  0  0  0  0
   14.9120   -7.3724   -8.5485 C   0  0  2  0  0  0  0  0  0  0  0  0
   15.4482   -6.0158   -8.2034 C   0  0  0  0  0  0  0  0  0  0  0  0
   14.8612   -7.6277  -10.0277 C   0  0  2  0  0  0  0  0  0  0  0  0
   14.8789   -9.0943  -10.1686 N   0  0  0  0  0  0  0  0  0  0  0  0
   15.9848   -7.0982  -10.7977 C   0  0  0  0  0  0  0  0  0  0  0  0
   17.1474   -7.5739  -10.5371 O   0  0  0  0  0  0  0  0  0  0  0  0
   17.1046   -7.6929  -16.3013 N   0  0  0  0  0  0  0  0  0  0  0  0
   18.1307   -6.7244  -16.0564 C   0  0  0  0  0  0  0  0  0  0  0  0
   18.9449   -6.5095  -17.0090 O   0  0  0  0  0  0  0  0  0  0  0  0
   18.2205   -6.0176  -14.7675 C   0  0  0  0  0  0  0  0  0  0  0  0
   17.1908   -6.3922  -13.7726 C   0  0  0  0  0  0  0  0  0  0  0  0
   17.1413   -5.6719  -12.4762 C   0  0  2  0  0  0  0  0  0  0  0  0
   15.9034   -6.1203  -11.7926 N   0  0  0  0  0  0  0  0  0  0  0  0
   17.1095   -4.2237  -12.5919 C   0  0  0  0  0  0  0  0  0  0  0  0
   16.0277   -3.5519  -12.5713 O   0  0  0  0  0  0  0  0  0  0  0  0
   18.2604   -3.4457  -12.7354 O   0  0  0  0  0  0  0  0  0  0  0  0
  2  1  1  0
  2  3  2  0
  4  5  1  0
  4  2  1  0
  6  7  1  1
  6  5  1  0
  8  6  1  0
  9  8  2  0
 11 10  1  6
 11 12  1  0
 11 13  1  0
 13 14  1  1
 14  8  1  0
 15 16  2  0
 15 13  1  0
 18 17  1  0
 19 18  2  0
 20 18  1  0
 22 21  1  6
 21 20  1  0
 22 23  1  0
 23 15  1  0
 24 22  1  0
 25 24  2  0
 26 24  1  0
M  END
$$$$
