QVQ.pdb
     RDKit          3D

 26 25  0  0  1  0  0  0  0  0999 V2000
   26.3949  -18.5247  -16.9756 N   0  0  0  0  0  0  0  0  0  0  0  0
   27.7404  -18.6047  -17.3662 C   0  0  0  0  0  0  0  0  0  0  0  0
   28.4008  -17.5539  -17.5091 O   0  0  0  0  0  0  0  0  0  0  0  0
   28.3547  -19.9048  -17.6012 C   0  0  0  0  0  0  0  0  0  0  0  0
   27.4669  -21.0702  -17.2454 C   0  0  0  0  0  0  0  0  0  0  0  0
   28.0557  -21.6883  -15.9884 C   0  0  2  0  0  0  0  0  0  0  0  0
   29.0053  -22.7318  -16.2794 N   0  0  0  0  0  0  0  0  0  0  0  0
   27.0157  -22.1269  -15.0374 C   0  0  0  0  0  0  0  0  0  0  0  0
   26.3861  -23.1903  -15.1833 O   0  0  0  0  0  0  0  0  0  0  0  0
   25.3612  -21.4576  -10.4161 C   0  0  0  0  0  0  0  0  0  0  0  0
   26.1971  -21.1057  -11.6217 C   0  0  2  0  0  0  0  0  0  0  0  0
   26.4542  -19.6329  -11.7294 C   0  0  0  0  0  0  0  0  0  0  0  0
   25.7224  -21.7172  -12.9088 C   0  0  2  0  0  0  0  0  0  0  0  0
   26.7180  -21.3165  -13.9184 N   0  0  0  0  0  0  0  0  0  0  0  0
   24.4142  -21.2643  -13.3771 C   0  0  0  0  0  0  0  0  0  0  0  0
   24.3758  -20.1544  -14.0196 O   0  0  0  0  0  0  0  0  0  0  0  0
   20.2066  -24.4682  -16.1633 N   0  0  0  0  0  0  0  0  0  0  0  0
   19.4714  -23.2518  -15.9887 C   0  0  0  0  0  0  0  0  0  0  0  0
   18.3129  -23.2109  -16.5110 O   0  0  0  0  0  0  0  0  0  0  0  0
   20.0372  -22.1199  -15.2352 C   0  0  0  0  0  0  0  0  0  0  0  0
   21.3657  -22.3683  -14.6321 C   0  0  0  0  0  0  0  0  0  0  0  0
   21.9529  -21.3473  -13.7295 C   0  0  2  0  0  0  0  0  0  0  0  0
   23.2027  -21.9341  -13.1869 N   0  0  0  0  0  0  0  0  0  0  0  0
   21.0995  -20.9629  -12.6180 C   0  0  0  0  0  0  0  0  0  0  0  0
   21.2466  -21.4260  -11.4407 O   0  0  0  0  0  0  0  0  0  0  0  0
   20.0466  -20.0541  -12.7451 O   0  0  0  0  0  0  0  0  0  0  0  0
  2  1  1  0
  2  3  2  0
  4  5  1  0
  4  2  1  0
  6  7  1  6
  6  5  1  0
  8  6  1  0
  9  8  2  0
 11 10  1  1
 11 12  1  0
 11 13  1  0
 13 14  1  6
 14  8  1  0
 15 16  2  0
 15 13  1  0
 18 17  1  0
 19 18  2  0
 20 18  1  0
 22 21  1  6
 21 20  1  0
 22 23  1  0
 23 15  1  0
 24 22  1  0
 25 24  2  0
 26 24  1  0
M  END
$$$$
