QVQ.pdb
     RDKit          3D

 26 25  0  0  1  0  0  0  0  0999 V2000
   19.9372  -12.4789  -22.0127 N   0  0  0  0  0  0  0  0  0  0  0  0
   20.2095  -13.7793  -21.5608 C   0  0  0  0  0  0  0  0  0  0  0  0
   20.2470  -14.7189  -22.3833 O   0  0  0  0  0  0  0  0  0  0  0  0
   20.4454  -14.0236  -20.1439 C   0  0  0  0  0  0  0  0  0  0  0  0
   20.3194  -12.7912  -19.2850 C   0  0  0  0  0  0  0  0  0  0  0  0
   20.5969  -13.2339  -17.8582 C   0  0  2  0  0  0  0  0  0  0  0  0
   19.9094  -14.4524  -17.5149 N   0  0  0  0  0  0  0  0  0  0  0  0
   20.3523  -12.1579  -16.8780 C   0  0  0  0  0  0  0  0  0  0  0  0
   19.2230  -11.9297  -16.4080 O   0  0  0  0  0  0  0  0  0  0  0  0
   22.4135   -9.4019  -13.4006 C   0  0  0  0  0  0  0  0  0  0  0  0
   22.2620  -10.5217  -14.4001 C   0  0  2  0  0  0  0  0  0  0  0  0
   23.5812  -11.0012  -14.9262 C   0  0  0  0  0  0  0  0  0  0  0  0
   21.2558  -10.2577  -15.4835 C   0  0  2  0  0  0  0  0  0  0  0  0
   21.4336  -11.3532  -16.4527 N   0  0  0  0  0  0  0  0  0  0  0  0
   21.4238   -8.9989  -16.2068 C   0  0  0  0  0  0  0  0  0  0  0  0
   22.3655   -8.9460  -17.0764 O   0  0  0  0  0  0  0  0  0  0  0  0
   18.2114   -6.9832  -20.2456 N   0  0  0  0  0  0  0  0  0  0  0  0
   18.9086   -5.7472  -20.0534 C   0  0  0  0  0  0  0  0  0  0  0  0
   18.7103   -4.8440  -20.9261 O   0  0  0  0  0  0  0  0  0  0  0  0
   19.7986   -5.5451  -18.8975 C   0  0  0  0  0  0  0  0  0  0  0  0
   19.9137   -6.7033  -17.9834 C   0  0  0  0  0  0  0  0  0  0  0  0
   20.9091   -6.6610  -16.8836 C   0  0  2  0  0  0  0  0  0  0  0  0
   20.6487   -7.8491  -16.0344 N   0  0  0  0  0  0  0  0  0  0  0  0
   20.8387   -5.4713  -16.0522 C   0  0  0  0  0  0  0  0  0  0  0  0
   20.2267   -5.4431  -14.9356 O   0  0  0  0  0  0  0  0  0  0  0  0
   21.4351   -4.2589  -16.4056 O   0  0  0  0  0  0  0  0  0  0  0  0
  2  1  1  0
  2  3  2  0
  4  5  1  0
  4  2  1  0
  6  7  1  1
  6  5  1  0
  8  6  1  0
  9  8  2  0
 11 10  1  6
 11 12  1  0
 11 13  1  0
 13 14  1  6
 14  8  1  0
 15 16  2  0
 15 13  1  0
 18 17  1  0
 19 18  2  0
 20 18  1  0
 22 21  1  6
 21 20  1  0
 22 23  1  0
 23 15  1  0
 24 22  1  0
 25 24  2  0
 26 24  1  0
M  END
$$$$
