QVQ.pdb
     RDKit          3D

 26 25  0  0  1  0  0  0  0  0999 V2000
   18.5532  -16.1119  -15.2432 N   0  0  0  0  0  0  0  0  0  0  0  0
   18.8735  -17.4152  -15.6534 C   0  0  0  0  0  0  0  0  0  0  0  0
   17.9562  -18.1984  -15.9787 O   0  0  0  0  0  0  0  0  0  0  0  0
   20.2654  -17.8438  -15.6969 C   0  0  0  0  0  0  0  0  0  0  0  0
   21.2442  -16.7746  -15.2829 C   0  0  0  0  0  0  0  0  0  0  0  0
   22.3020  -16.7181  -16.3721 C   0  0  2  0  0  0  0  0  0  0  0  0
   21.7326  -16.7276  -17.6954 N   0  0  0  0  0  0  0  0  0  0  0  0
   23.3402  -17.7532  -16.2018 C   0  0  0  0  0  0  0  0  0  0  0  0
   23.2904  -18.8489  -16.7896 O   0  0  0  0  0  0  0  0  0  0  0  0
   27.2713  -16.7433  -15.7037 C   0  0  0  0  0  0  0  0  0  0  0  0
   26.6934  -17.6795  -14.6715 C   0  0  2  0  0  0  0  0  0  0  0  0
   27.7440  -18.5165  -14.0063 C   0  0  0  0  0  0  0  0  0  0  0  0
   25.5151  -18.4804  -15.1471 C   0  0  2  0  0  0  0  0  0  0  0  0
   24.4333  -17.4994  -15.3426 N   0  0  0  0  0  0  0  0  0  0  0  0
   25.0257  -19.4953  -14.2163 C   0  0  0  0  0  0  0  0  0  0  0  0
   24.3926  -19.0810  -13.1802 O   0  0  0  0  0  0  0  0  0  0  0  0
   23.8676  -25.5527  -15.1813 N   0  0  0  0  0  0  0  0  0  0  0  0
   23.7795  -25.4827  -13.7537 C   0  0  0  0  0  0  0  0  0  0  0  0
   23.3947  -26.5380  -13.1580 O   0  0  0  0  0  0  0  0  0  0  0  0
   24.1268  -24.2494  -13.0275 C   0  0  0  0  0  0  0  0  0  0  0  0
   24.5586  -23.1191  -13.8798 C   0  0  0  0  0  0  0  0  0  0  0  0
   24.7282  -21.7768  -13.2703 C   0  0  2  0  0  0  0  0  0  0  0  0
   25.1865  -20.8763  -14.3564 N   0  0  0  0  0  0  0  0  0  0  0  0
   25.6935  -21.7249  -12.1854 C   0  0  0  0  0  0  0  0  0  0  0  0
   26.9435  -21.5751  -12.3785 O   0  0  0  0  0  0  0  0  0  0  0  0
   25.3342  -21.8347  -10.8403 O   0  0  0  0  0  0  0  0  0  0  0  0
  2  1  1  0
  2  3  2  0
  4  5  1  0
  4  2  1  0
  6  7  1  6
  6  5  1  0
  8  6  1  0
  9  8  2  0
 11 10  1  6
 11 12  1  0
 11 13  1  0
 13 14  1  1
 14  8  1  0
 15 16  2  0
 15 13  1  0
 18 17  1  0
 19 18  2  0
 20 18  1  0
 22 21  1  6
 21 20  1  0
 22 23  1  0
 23 15  1  0
 24 22  1  0
 25 24  2  0
 26 24  1  0
M  END
$$$$
