QVQ.pdb
     RDKit          3D

 26 25  0  0  1  0  0  0  0  0999 V2000
   25.2158  -37.5722  -13.6302 N   0  0  0  0  0  0  0  0  0  0  0  0
   25.0466  -37.2600  -14.9879 C   0  0  0  0  0  0  0  0  0  0  0  0
   24.8372  -38.1797  -15.8070 O   0  0  0  0  0  0  0  0  0  0  0  0
   25.1160  -35.8736  -15.4307 C   0  0  0  0  0  0  0  0  0  0  0  0
   25.4856  -34.9037  -14.3374 C   0  0  0  0  0  0  0  0  0  0  0  0
   24.3430  -33.9065  -14.2458 C   0  0  2  0  0  0  0  0  0  0  0  0
   24.2612  -33.0530  -15.4035 N   0  0  0  0  0  0  0  0  0  0  0  0
   24.3661  -33.1393  -12.9851 C   0  0  0  0  0  0  0  0  0  0  0  0
   24.8656  -32.0023  -12.9069 O   0  0  0  0  0  0  0  0  0  0  0  0
   21.4459  -32.0739  -11.2915 C   0  0  0  0  0  0  0  0  0  0  0  0
   22.2305  -32.8611  -10.2714 C   0  0  2  0  0  0  0  0  0  0  0  0
   21.9303  -32.4353   -8.8658 C   0  0  0  0  0  0  0  0  0  0  0  0
   23.7020  -32.9581  -10.5566 C   0  0  2  0  0  0  0  0  0  0  0  0
   23.8030  -33.7087  -11.8205 N   0  0  0  0  0  0  0  0  0  0  0  0
   24.4922  -33.6726   -9.5563 C   0  0  0  0  0  0  0  0  0  0  0  0
   24.7275  -34.9146   -9.7758 O   0  0  0  0  0  0  0  0  0  0  0  0
   27.1642  -32.2581   -4.4427 N   0  0  0  0  0  0  0  0  0  0  0  0
   28.0611  -33.2905   -4.8675 C   0  0  0  0  0  0  0  0  0  0  0  0
   28.8330  -33.7706   -3.9785 O   0  0  0  0  0  0  0  0  0  0  0  0
   28.0720  -33.7657   -6.2614 C   0  0  0  0  0  0  0  0  0  0  0  0
   27.0376  -33.1696   -7.1363 C   0  0  0  0  0  0  0  0  0  0  0  0
   25.8360  -33.9680   -7.4835 C   0  0  2  0  0  0  0  0  0  0  0  0
   25.0139  -33.1217   -8.3828 N   0  0  0  0  0  0  0  0  0  0  0  0
   25.0235  -34.3612   -6.3447 C   0  0  0  0  0  0  0  0  0  0  0  0
   24.1252  -33.6101   -5.8438 O   0  0  0  0  0  0  0  0  0  0  0  0
   25.1579  -35.5942   -5.7028 O   0  0  0  0  0  0  0  0  0  0  0  0
  2  1  1  0
  2  3  2  0
  4  5  1  0
  4  2  1  0
  6  7  1  6
  6  5  1  0
  8  6  1  0
  9  8  2  0
 11 10  1  6
 11 12  1  0
 11 13  1  0
 13 14  1  6
 14  8  1  0
 15 16  2  0
 15 13  1  0
 18 17  1  0
 19 18  2  0
 20 18  1  0
 22 21  1  1
 21 20  1  0
 22 23  1  0
 23 15  1  0
 24 22  1  0
 25 24  2  0
 26 24  1  0
M  END
$$$$
