QVQ.pdb
     RDKit          3D

 26 25  0  0  1  0  0  0  0  0999 V2000
   24.8892  -20.5548  -10.3655 N   0  0  0  0  0  0  0  0  0  0  0  0
   24.4158  -20.3374   -9.0625 C   0  0  0  0  0  0  0  0  0  0  0  0
   25.1467  -19.7544   -8.2339 O   0  0  0  0  0  0  0  0  0  0  0  0
   23.0829  -20.7901   -8.6867 C   0  0  0  0  0  0  0  0  0  0  0  0
   22.3255  -21.4504   -9.8106 C   0  0  0  0  0  0  0  0  0  0  0  0
   21.2228  -20.4841  -10.2091 C   0  0  2  0  0  0  0  0  0  0  0  0
   20.0230  -20.6653   -9.4326 N   0  0  0  0  0  0  0  0  0  0  0  0
   20.9580  -20.5011  -11.6610 C   0  0  0  0  0  0  0  0  0  0  0  0
   20.1374  -21.2800  -12.1789 O   0  0  0  0  0  0  0  0  0  0  0  0
   21.3469  -17.1381  -14.0604 C   0  0  0  0  0  0  0  0  0  0  0  0
   20.7047  -18.4731  -14.3457 C   0  0  2  0  0  0  0  0  0  0  0  0
   19.3006  -18.5550  -13.8273 C   0  0  0  0  0  0  0  0  0  0  0  0
   21.5429  -19.6609  -13.9683 C   0  0  2  0  0  0  0  0  0  0  0  0
   21.6569  -19.6041  -12.5004 N   0  0  0  0  0  0  0  0  0  0  0  0
   22.8984  -19.6750  -14.5145 C   0  0  0  0  0  0  0  0  0  0  0  0
   23.7666  -18.9235  -13.9424 O   0  0  0  0  0  0  0  0  0  0  0  0
   26.0734  -24.5224  -15.9050 N   0  0  0  0  0  0  0  0  0  0  0  0
   26.9974  -23.5264  -16.3577 C   0  0  0  0  0  0  0  0  0  0  0  0
   28.1483  -23.9391  -16.7067 O   0  0  0  0  0  0  0  0  0  0  0  0
   26.6179  -22.1046  -16.4175 C   0  0  0  0  0  0  0  0  0  0  0  0
   25.2448  -21.8011  -15.9559 C   0  0  0  0  0  0  0  0  0  0  0  0
   24.7615  -20.3987  -15.9957 C   0  0  2  0  0  0  0  0  0  0  0  0
   23.3311  -20.4353  -15.6042 N   0  0  0  0  0  0  0  0  0  0  0  0
   24.8709  -19.7600  -17.2964 C   0  0  0  0  0  0  0  0  0  0  0  0
   23.8787  -19.6159  -18.0817 O   0  0  0  0  0  0  0  0  0  0  0  0
   26.0714  -19.2503  -17.7959 O   0  0  0  0  0  0  0  0  0  0  0  0
  2  1  1  0
  2  3  2  0
  4  5  1  0
  4  2  1  0
  6  7  1  1
  6  5  1  0
  8  6  1  0
  9  8  2  0
 11 10  1  1
 11 12  1  0
 11 13  1  0
 13 14  1  1
 14  8  1  0
 15 16  2  0
 15 13  1  0
 18 17  1  0
 19 18  2  0
 20 18  1  0
 22 21  1  6
 21 20  1  0
 22 23  1  0
 23 15  1  0
 24 22  1  0
 25 24  2  0
 26 24  1  0
M  END
$$$$
