SCY.pdb
     RDKit          3D

 25 25  0  0  1  0  0  0  0  0999 V2000
    8.0781  -13.4134   20.1988 O   0  0  0  0  0  0  0  0  0  0  0  0
    8.9524  -14.4679   19.9940 C   0  0  0  0  0  0  0  0  0  0  0  0
    8.1424  -15.7506   19.9753 C   0  0  2  0  0  0  0  0  0  0  0  0
    6.9625  -15.4769   19.1571 N   0  0  0  0  0  0  0  0  0  0  0  0
    7.6435  -16.0757   21.3341 C   0  0  0  0  0  0  0  0  0  0  0  0
    6.4635  -15.7160   21.6349 O   0  0  0  0  0  0  0  0  0  0  0  0
    8.4133  -16.7647   22.3105 N   0  0  0  0  0  0  0  0  0  0  0  0
    7.8299  -17.1165   23.6053 C   0  0  1  0  0  0  0  0  0  0  0  0
    7.7775  -18.6287   23.6656 C   0  0  0  0  0  0  0  0  0  0  0  0
    7.0697  -19.1054   25.2659 S   0  0  0  0  0  0  0  0  0  0  0  0
    8.8005  -16.6759   24.6555 C   0  0  0  0  0  0  0  0  0  0  0  0
   10.0516  -16.6863   24.4590 O   0  0  0  0  0  0  0  0  0  0  0  0
    6.2304  -10.3223   25.3932 O   0  0  0  0  0  0  0  0  0  0  0  0
    6.7554  -11.4616   26.0235 C   0  0  0  0  0  0  0  0  0  0  0  0
    8.1208  -11.6459   26.0707 C   0  0  0  0  0  0  0  0  0  0  0  0
    8.6577  -12.7521   26.6816 C   0  0  0  0  0  0  0  0  0  0  0  0
    7.8622  -13.7278   27.2747 C   0  0  0  0  0  0  0  0  0  0  0  0
    8.4629  -14.9170   27.9248 C   0  0  0  0  0  0  0  0  0  0  0  0
    9.2718  -15.7727   26.9758 C   0  0  2  0  0  0  0  0  0  0  0  0
    8.3698  -16.2217   25.9312 N   0  0  0  0  0  0  0  0  0  0  0  0
    9.8411  -16.9732   27.6281 C   0  0  0  0  0  0  0  0  0  0  0  0
   10.8728  -16.8642   28.5450 O   0  0  0  0  0  0  0  0  0  0  0  0
    6.4991  -13.5307   27.2199 C   0  0  0  0  0  0  0  0  0  0  0  0
    5.9427  -12.4070   26.5999 C   0  0  0  0  0  0  0  0  0  0  0  0
    9.4036  -18.1211   27.3672 O   0  0  0  0  0  0  0  0  0  0  0  0
  1  2  1  0
  2  3  1  0
  3  5  1  0
  3  4  1  6
  5  6  2  0
  7  5  1  0
  7  8  1  0
  8 11  1  0
  8  9  1  6
 10  9  1  0
 11 20  1  0
 11 12  2  0
 14 13  1  0
 15 14  2  0
 16 15  1  0
 17 16  2  0
 17 23  1  0
 18 17  1  0
 19 18  1  1
 19 21  1  0
 20 19  1  0
 21 25  2  0
 21 22  1  0
 23 24  2  0
 24 14  1  0
M  END
$$$$
