SCY.pdb
     RDKit          3D

 25 25  0  0  1  0  0  0  0  0999 V2000
   17.5302  -22.4178    8.7618 O   0  0  0  0  0  0  0  0  0  0  0  0
   16.7396  -22.4049    9.8990 C   0  0  0  0  0  0  0  0  0  0  0  0
   15.2875  -22.4153    9.4596 C   0  0  2  0  0  0  0  0  0  0  0  0
   15.1690  -21.3990    8.4159 N   0  0  0  0  0  0  0  0  0  0  0  0
   14.4010  -21.9829   10.5677 C   0  0  0  0  0  0  0  0  0  0  0  0
   13.8721  -20.8311   10.4898 O   0  0  0  0  0  0  0  0  0  0  0  0
   14.1149  -22.7861   11.7051 N   0  0  0  0  0  0  0  0  0  0  0  0
   13.1424  -22.3420   12.7039 C   0  0  1  0  0  0  0  0  0  0  0  0
   11.7756  -22.4447   12.0601 C   0  0  0  0  0  0  0  0  0  0  0  0
   11.6283  -24.0882   11.3076 S   0  0  0  0  0  0  0  0  0  0  0  0
   13.1717  -23.3420   13.8166 C   0  0  0  0  0  0  0  0  0  0  0  0
   12.7364  -24.5222   13.6691 O   0  0  0  0  0  0  0  0  0  0  0  0
   19.7428  -21.4024   16.8102 O   0  0  0  0  0  0  0  0  0  0  0  0
   18.6194  -22.2070   16.5623 C   0  0  0  0  0  0  0  0  0  0  0  0
   18.0183  -22.8781   17.6057 C   0  0  0  0  0  0  0  0  0  0  0  0
   16.9186  -23.6708   17.3880 C   0  0  0  0  0  0  0  0  0  0  0  0
   16.3641  -23.8338   16.1221 C   0  0  0  0  0  0  0  0  0  0  0  0
   15.1791  -24.6984   15.9087 C   0  0  0  0  0  0  0  0  0  0  0  0
   13.8679  -23.9900   16.1655 C   0  0  2  0  0  0  0  0  0  0  0  0
   13.6903  -23.0207   15.0999 N   0  0  0  0  0  0  0  0  0  0  0  0
   13.8534  -23.2562   17.4509 C   0  0  0  0  0  0  0  0  0  0  0  0
   13.8648  -23.9338   18.6582 O   0  0  0  0  0  0  0  0  0  0  0  0
   16.9753  -23.1572   15.0884 C   0  0  0  0  0  0  0  0  0  0  0  0
   18.0960  -22.3472   15.3002 C   0  0  0  0  0  0  0  0  0  0  0  0
   13.8304  -22.0009   17.4800 O   0  0  0  0  0  0  0  0  0  0  0  0
  1  2  1  0
  2  3  1  0
  3  5  1  0
  3  4  1  6
  5  6  2  0
  7  5  1  0
  7  8  1  0
  8 11  1  0
  8  9  1  6
 10  9  1  0
 11 20  1  0
 11 12  2  0
 14 13  1  0
 15 14  2  0
 16 15  1  0
 17 16  2  0
 17 23  1  0
 18 17  1  0
 19 18  1  6
 19 21  1  0
 20 19  1  0
 21 25  2  0
 21 22  1  0
 23 24  2  0
 24 14  1  0
M  END
$$$$
