SCY.pdb
     RDKit          3D

 25 25  0  0  1  0  0  0  0  0999 V2000
   10.5995  -13.3041   19.5315 O   0  0  0  0  0  0  0  0  0  0  0  0
   10.0651  -14.0781   18.5147 C   0  0  0  0  0  0  0  0  0  0  0  0
    8.5599  -13.8880   18.5237 C   0  0  2  0  0  0  0  0  0  0  0  0
    8.3301  -12.4448   18.4966 N   0  0  0  0  0  0  0  0  0  0  0  0
    7.9765  -14.3812   19.7953 C   0  0  0  0  0  0  0  0  0  0  0  0
    7.5139  -13.5226   20.6085 O   0  0  0  0  0  0  0  0  0  0  0  0
    7.9090  -15.7565   20.1484 N   0  0  0  0  0  0  0  0  0  0  0  0
    7.2597  -16.1745   21.3912 C   0  0  1  0  0  0  0  0  0  0  0  0
    6.9917  -17.6597   21.2670 C   0  0  0  0  0  0  0  0  0  0  0  0
    8.5604  -18.4864   20.8865 S   0  0  0  0  0  0  0  0  0  0  0  0
    8.2652  -16.0074   22.4866 C   0  0  0  0  0  0  0  0  0  0  0  0
    9.4978  -15.8436   22.2461 O   0  0  0  0  0  0  0  0  0  0  0  0
    6.1249  -10.2409   26.6094 O   0  0  0  0  0  0  0  0  0  0  0  0
    6.6132  -11.5522   26.4957 C   0  0  0  0  0  0  0  0  0  0  0  0
    5.8624  -12.6031   26.9778 C   0  0  0  0  0  0  0  0  0  0  0  0
    6.3189  -13.8941   26.8779 C   0  0  0  0  0  0  0  0  0  0  0  0
    7.5439  -14.2016   26.2937 C   0  0  0  0  0  0  0  0  0  0  0  0
    8.0197  -15.6025   26.2005 C   0  0  0  0  0  0  0  0  0  0  0  0
    8.8301  -15.8771   24.9535 C   0  0  2  0  0  0  0  0  0  0  0  0
    7.8905  -16.0236   23.8572 N   0  0  0  0  0  0  0  0  0  0  0  0
    9.6175  -17.1272   25.0438 C   0  0  0  0  0  0  0  0  0  0  0  0
   10.8737  -17.1376   25.6259 O   0  0  0  0  0  0  0  0  0  0  0  0
    8.2840  -13.1413   25.8162 C   0  0  0  0  0  0  0  0  0  0  0  0
    7.8273  -11.8226   25.9133 C   0  0  0  0  0  0  0  0  0  0  0  0
    9.1672  -18.2103   24.5952 O   0  0  0  0  0  0  0  0  0  0  0  0
  1  2  1  0
  2  3  1  0
  3  5  1  0
  3  4  1  1
  5  6  2  0
  7  5  1  0
  7  8  1  0
  8 11  1  0
  8  9  1  6
 10  9  1  0
 11 20  1  0
 11 12  2  0
 14 13  1  0
 15 14  2  0
 16 15  1  0
 17 16  2  0
 17 23  1  0
 18 17  1  0
 19 18  1  1
 19 21  1  0
 20 19  1  0
 21 25  2  0
 21 22  1  0
 23 24  2  0
 24 14  1  0
M  END
$$$$
