SCY.pdb
     RDKit          3D

 25 25  0  0  1  0  0  0  0  0999 V2000
    8.8613  -12.8758   20.3784 O   0  0  0  0  0  0  0  0  0  0  0  0
    9.1504  -14.0541   19.7101 C   0  0  0  0  0  0  0  0  0  0  0  0
    7.8478  -14.8014   19.4943 C   0  0  2  0  0  0  0  0  0  0  0  0
    6.8913  -13.8181   18.9900 N   0  0  0  0  0  0  0  0  0  0  0  0
    7.3041  -15.2910   20.7847 C   0  0  0  0  0  0  0  0  0  0  0  0
    6.1797  -14.8394   21.1646 O   0  0  0  0  0  0  0  0  0  0  0  0
    7.9724  -16.2336   21.6128 N   0  0  0  0  0  0  0  0  0  0  0  0
    7.3263  -16.7554   22.8174 C   0  0  1  0  0  0  0  0  0  0  0  0
    7.1257  -18.2403   22.5983 C   0  0  0  0  0  0  0  0  0  0  0  0
    6.2668  -18.9135   24.0468 S   0  0  0  0  0  0  0  0  0  0  0  0
    8.3094  -16.6131   23.9364 C   0  0  0  0  0  0  0  0  0  0  0  0
    9.5594  -16.6767   23.7430 O   0  0  0  0  0  0  0  0  0  0  0  0
    5.9465  -10.3665   25.9608 O   0  0  0  0  0  0  0  0  0  0  0  0
    6.4265  -11.6324   26.3320 C   0  0  0  0  0  0  0  0  0  0  0  0
    7.7708  -11.8040   26.5852 C   0  0  0  0  0  0  0  0  0  0  0  0
    8.2638  -13.0325   26.9499 C   0  0  0  0  0  0  0  0  0  0  0  0
    7.4433  -14.1489   27.0801 C   0  0  0  0  0  0  0  0  0  0  0  0
    7.9974  -15.4673   27.4703 C   0  0  0  0  0  0  0  0  0  0  0  0
    8.8043  -16.1253   26.3735 C   0  0  2  0  0  0  0  0  0  0  0  0
    7.8925  -16.3986   25.2778 N   0  0  0  0  0  0  0  0  0  0  0  0
    9.4038  -17.4116   26.7940 C   0  0  0  0  0  0  0  0  0  0  0  0
    8.9839  -18.6085   26.2390 O   0  0  0  0  0  0  0  0  0  0  0  0
    6.1018  -13.9629   26.8238 C   0  0  0  0  0  0  0  0  0  0  0  0
    5.5901  -12.7152   26.4517 C   0  0  0  0  0  0  0  0  0  0  0  0
   10.3081  -17.4510   27.6644 O   0  0  0  0  0  0  0  0  0  0  0  0
  1  2  1  0
  2  3  1  0
  3  5  1  0
  3  4  1  1
  5  6  2  0
  7  5  1  0
  7  8  1  0
  8 11  1  0
  8  9  1  6
 10  9  1  0
 11 20  1  0
 11 12  2  0
 14 13  1  0
 15 14  2  0
 16 15  1  0
 17 16  2  0
 17 23  1  0
 18 17  1  0
 19 18  1  1
 19 21  1  0
 20 19  1  0
 21 25  2  0
 21 22  1  0
 23 24  2  0
 24 14  1  0
M  END
$$$$
