SCY.pdb
     RDKit          3D

 25 25  0  0  1  0  0  0  0  0999 V2000
    6.3812  -18.3868   23.5801 O   0  0  0  0  0  0  0  0  0  0  0  0
    5.2815  -18.0799   22.7959 C   0  0  0  0  0  0  0  0  0  0  0  0
    5.7724  -17.8142   21.3851 C   0  0  2  0  0  0  0  0  0  0  0  0
    6.1859  -19.1083   20.8459 N   0  0  0  0  0  0  0  0  0  0  0  0
    6.9860  -16.9613   21.4039 C   0  0  0  0  0  0  0  0  0  0  0  0
    8.1168  -17.5384   21.4299 O   0  0  0  0  0  0  0  0  0  0  0  0
    6.9487  -15.5402   21.3944 N   0  0  0  0  0  0  0  0  0  0  0  0
    8.1886  -14.7635   21.3942 C   0  0  1  0  0  0  0  0  0  0  0  0
    7.8265  -13.3608   20.9534 C   0  0  0  0  0  0  0  0  0  0  0  0
    7.4552  -13.4051   19.1787 S   0  0  0  0  0  0  0  0  0  0  0  0
    8.6423  -14.6654   22.8167 C   0  0  0  0  0  0  0  0  0  0  0  0
    8.1735  -13.7982   23.6118 O   0  0  0  0  0  0  0  0  0  0  0  0
    5.9841  -11.1467   27.1900 O   0  0  0  0  0  0  0  0  0  0  0  0
    6.7227  -12.2778   26.8084 C   0  0  0  0  0  0  0  0  0  0  0  0
    6.0799  -13.3428   26.2141 C   0  0  0  0  0  0  0  0  0  0  0  0
    6.7809  -14.4598   25.8322 C   0  0  0  0  0  0  0  0  0  0  0  0
    8.1548  -14.5711   26.0232 C   0  0  0  0  0  0  0  0  0  0  0  0
    8.8914  -15.7885   25.6076 C   0  0  0  0  0  0  0  0  0  0  0  0
   10.0857  -15.4939   24.7278 C   0  0  2  0  0  0  0  0  0  0  0  0
    9.6249  -15.5411   23.3523 N   0  0  0  0  0  0  0  0  0  0  0  0
   11.1686  -16.4918   24.8761 C   0  0  0  0  0  0  0  0  0  0  0  0
   11.4125  -17.4307   23.8882 O   0  0  0  0  0  0  0  0  0  0  0  0
    8.7845  -13.4992   26.6186 C   0  0  0  0  0  0  0  0  0  0  0  0
    8.0789  -12.3568   27.0111 C   0  0  0  0  0  0  0  0  0  0  0  0
   11.8940  -16.5131   25.9010 O   0  0  0  0  0  0  0  0  0  0  0  0
  1  2  1  0
  2  3  1  0
  3  5  1  0
  3  4  1  1
  5  6  2  0
  7  5  1  0
  7  8  1  0
  8 11  1  0
  8  9  1  1
 10  9  1  0
 11 20  1  0
 11 12  2  0
 14 13  1  0
 15 14  2  0
 16 15  1  0
 17 16  2  0
 17 23  1  0
 18 17  1  0
 19 18  1  1
 19 21  1  0
 20 19  1  0
 21 25  2  0
 21 22  1  0
 23 24  2  0
 24 14  1  0
M  END
$$$$
