SCY.pdb
     RDKit          3D

 25 25  0  0  1  0  0  0  0  0999 V2000
    9.6632  -17.7747   16.2170 O   0  0  0  0  0  0  0  0  0  0  0  0
    8.7166  -17.1914   15.3910 C   0  0  0  0  0  0  0  0  0  0  0  0
    9.0636  -15.7215   15.2466 C   0  0  2  0  0  0  0  0  0  0  0  0
   10.1489  -15.6518   14.2702 N   0  0  0  0  0  0  0  0  0  0  0  0
    9.6085  -15.1840   16.5174 C   0  0  0  0  0  0  0  0  0  0  0  0
   10.8611  -14.9892   16.5908 O   0  0  0  0  0  0  0  0  0  0  0  0
    8.8060  -14.8778   17.6501 N   0  0  0  0  0  0  0  0  0  0  0  0
    9.3924  -14.2318   18.8246 C   0  0  1  0  0  0  0  0  0  0  0  0
    8.5331  -13.0240   19.1347 C   0  0  0  0  0  0  0  0  0  0  0  0
    7.0447  -13.5970   19.9979 S   0  0  0  0  0  0  0  0  0  0  0  0
    9.2324  -15.1809   19.9702 C   0  0  0  0  0  0  0  0  0  0  0  0
    8.2434  -15.1194   20.7589 O   0  0  0  0  0  0  0  0  0  0  0  0
   16.5061  -14.4228   17.9794 O   0  0  0  0  0  0  0  0  0  0  0  0
   15.3306  -14.4807   18.7446 C   0  0  0  0  0  0  0  0  0  0  0  0
   15.3741  -14.9959   20.0226 C   0  0  0  0  0  0  0  0  0  0  0  0
   14.2376  -15.0629   20.7901 C   0  0  0  0  0  0  0  0  0  0  0  0
   13.0035  -14.6206   20.3231 C   0  0  0  0  0  0  0  0  0  0  0  0
   11.7879  -14.7067   21.1671 C   0  0  0  0  0  0  0  0  0  0  0  0
   11.2153  -16.1039   21.2503 C   0  0  2  0  0  0  0  0  0  0  0  0
   10.1830  -16.2035   20.2349 N   0  0  0  0  0  0  0  0  0  0  0  0
   10.5896  -16.3913   22.5605 C   0  0  0  0  0  0  0  0  0  0  0  0
    9.2163  -16.5191   22.6816 O   0  0  0  0  0  0  0  0  0  0  0  0
   12.9747  -14.1082   19.0439 C   0  0  0  0  0  0  0  0  0  0  0  0
   14.1273  -14.0357   18.2543 C   0  0  0  0  0  0  0  0  0  0  0  0
   11.2874  -16.5267   23.5958 O   0  0  0  0  0  0  0  0  0  0  0  0
  1  2  1  0
  2  3  1  0
  3  5  1  0
  3  4  1  6
  5  6  2  0
  7  5  1  0
  7  8  1  0
  8 11  1  0
  8  9  1  1
 10  9  1  0
 11 20  1  0
 11 12  2  0
 14 13  1  0
 15 14  2  0
 16 15  1  0
 17 16  2  0
 17 23  1  0
 18 17  1  0
 19 18  1  1
 19 21  1  0
 20 19  1  0
 21 25  2  0
 21 22  1  0
 23 24  2  0
 24 14  1  0
M  END
$$$$
