SCY.pdb
     RDKit          3D

 25 25  0  0  1  0  0  0  0  0999 V2000
    9.9616  -12.6070   20.5278 O   0  0  0  0  0  0  0  0  0  0  0  0
    8.7085  -12.3354   20.0039 C   0  0  0  0  0  0  0  0  0  0  0  0
    8.1884  -13.6036   19.3535 C   0  0  2  0  0  0  0  0  0  0  0  0
    6.9050  -13.2551   18.7471 N   0  0  0  0  0  0  0  0  0  0  0  0
    7.9008  -14.6381   20.3771 C   0  0  0  0  0  0  0  0  0  0  0  0
    6.7948  -14.5682   20.9972 O   0  0  0  0  0  0  0  0  0  0  0  0
    8.7935  -15.6969   20.6978 N   0  0  0  0  0  0  0  0  0  0  0  0
    8.4709  -16.6447   21.7646 C   0  0  1  0  0  0  0  0  0  0  0  0
    9.0006  -17.9940   21.3264 C   0  0  0  0  0  0  0  0  0  0  0  0
    7.7706  -18.7549   20.2322 S   0  0  0  0  0  0  0  0  0  0  0  0
    9.2660  -16.2379   22.9651 C   0  0  0  0  0  0  0  0  0  0  0  0
   10.4563  -15.8162   22.8696 O   0  0  0  0  0  0  0  0  0  0  0  0
    5.4233  -10.9000   25.8435 O   0  0  0  0  0  0  0  0  0  0  0  0
    6.1896  -12.0626   26.0217 C   0  0  0  0  0  0  0  0  0  0  0  0
    5.5714  -13.2948   26.0091 C   0  0  0  0  0  0  0  0  0  0  0  0
    6.2997  -14.4458   26.1813 C   0  0  0  0  0  0  0  0  0  0  0  0
    7.6777  -14.4264   26.3742 C   0  0  0  0  0  0  0  0  0  0  0  0
    8.4441  -15.6813   26.5628 C   0  0  0  0  0  0  0  0  0  0  0  0
    9.4625  -15.9297   25.4728 C   0  0  2  0  0  0  0  0  0  0  0  0
    8.7272  -16.3030   24.2784 N   0  0  0  0  0  0  0  0  0  0  0  0
   10.3914  -17.0358   25.7957 C   0  0  0  0  0  0  0  0  0  0  0  0
   11.5049  -16.8221   26.5903 O   0  0  0  0  0  0  0  0  0  0  0  0
    8.2826  -13.1879   26.3846 C   0  0  0  0  0  0  0  0  0  0  0  0
    7.5490  -12.0095   26.2100 C   0  0  0  0  0  0  0  0  0  0  0  0
   10.1941  -18.1962   25.3578 O   0  0  0  0  0  0  0  0  0  0  0  0
  1  2  1  0
  2  3  1  0
  3  5  1  0
  3  4  1  1
  5  6  2  0
  7  5  1  0
  7  8  1  0
  8 11  1  0
  8  9  1  6
 10  9  1  0
 11 20  1  0
 11 12  2  0
 14 13  1  0
 15 14  2  0
 16 15  1  0
 17 16  2  0
 17 23  1  0
 18 17  1  0
 19 18  1  1
 19 21  1  0
 20 19  1  0
 21 25  2  0
 21 22  1  0
 23 24  2  0
 24 14  1  0
M  END
$$$$
