SCY.pdb
     RDKit          3D

 25 25  0  0  1  0  0  0  0  0999 V2000
    8.8051  -12.0460   19.2524 O   0  0  0  0  0  0  0  0  0  0  0  0
    8.3615  -12.8316   20.3034 C   0  0  0  0  0  0  0  0  0  0  0  0
    8.4494  -14.2835   19.8720 C   0  0  2  0  0  0  0  0  0  0  0  0
    7.2843  -14.5291   19.0242 N   0  0  0  0  0  0  0  0  0  0  0  0
    8.3147  -15.1870   21.0409 C   0  0  0  0  0  0  0  0  0  0  0  0
    7.1471  -15.5635   21.3686 O   0  0  0  0  0  0  0  0  0  0  0  0
    9.4181  -15.6501   21.8082 N   0  0  0  0  0  0  0  0  0  0  0  0
    9.2409  -16.7092   22.8020 C   0  0  1  0  0  0  0  0  0  0  0  0
   10.0892  -17.8795   22.3507 C   0  0  0  0  0  0  0  0  0  0  0  0
    8.9896  -19.2890   22.0455 S   0  0  0  0  0  0  0  0  0  0  0  0
    9.8372  -16.2116   24.0810 C   0  0  0  0  0  0  0  0  0  0  0  0
   10.9789  -15.6650   24.1206 O   0  0  0  0  0  0  0  0  0  0  0  0
    5.8571  -10.6641   25.7008 O   0  0  0  0  0  0  0  0  0  0  0  0
    6.4724  -11.8529   26.1235 C   0  0  0  0  0  0  0  0  0  0  0  0
    7.8186  -11.8550   26.4211 C   0  0  0  0  0  0  0  0  0  0  0  0
    8.4425  -13.0053   26.8364 C   0  0  0  0  0  0  0  0  0  0  0  0
    7.7574  -14.2086   26.9757 C   0  0  0  0  0  0  0  0  0  0  0  0
    8.4520  -15.4401   27.4211 C   0  0  0  0  0  0  0  0  0  0  0  0
    9.6546  -15.7885   26.5729 C   0  0  2  0  0  0  0  0  0  0  0  0
    9.1533  -16.3260   25.3214 N   0  0  0  0  0  0  0  0  0  0  0  0
   10.5167  -16.8189   27.1941 C   0  0  0  0  0  0  0  0  0  0  0  0
   11.3939  -16.4933   28.2147 O   0  0  0  0  0  0  0  0  0  0  0  0
    6.4124  -14.1920   26.6747 C   0  0  0  0  0  0  0  0  0  0  0  0
    5.7678  -13.0250   26.2508 C   0  0  0  0  0  0  0  0  0  0  0  0
   10.4751  -18.0145   26.8121 O   0  0  0  0  0  0  0  0  0  0  0  0
  1  2  1  0
  2  3  1  0
  3  5  1  0
  3  4  1  6
  5  6  2  0
  7  5  1  0
  7  8  1  0
  8 11  1  0
  8  9  1  6
 10  9  1  0
 11 20  1  0
 11 12  2  0
 14 13  1  0
 15 14  2  0
 16 15  1  0
 17 16  2  0
 17 23  1  0
 18 17  1  0
 19 18  1  1
 19 21  1  0
 20 19  1  0
 21 25  2  0
 21 22  1  0
 23 24  2  0
 24 14  1  0
M  END
$$$$
