SCY.pdb
     RDKit          3D

 25 25  0  0  1  0  0  0  0  0999 V2000
    9.4963  -19.2697   20.5699 O   0  0  0  0  0  0  0  0  0  0  0  0
    9.0290  -19.3948   19.2721 C   0  0  0  0  0  0  0  0  0  0  0  0
    9.3399  -18.1048   18.5364 C   0  0  2  0  0  0  0  0  0  0  0  0
   10.6798  -18.2671   17.9754 N   0  0  0  0  0  0  0  0  0  0  0  0
    9.4178  -16.9662   19.4841 C   0  0  0  0  0  0  0  0  0  0  0  0
   10.5699  -16.5632   19.8343 O   0  0  0  0  0  0  0  0  0  0  0  0
    8.2766  -16.3072   20.0172 N   0  0  0  0  0  0  0  0  0  0  0  0
    8.4299  -15.1418   20.8885 C   0  0  1  0  0  0  0  0  0  0  0  0
    7.1949  -14.2867   20.6971 C   0  0  0  0  0  0  0  0  0  0  0  0
    5.8032  -15.1145   21.5137 S   0  0  0  0  0  0  0  0  0  0  0  0
    8.3939  -15.6429   22.2979 C   0  0  0  0  0  0  0  0  0  0  0  0
    7.8027  -16.7179   22.6125 O   0  0  0  0  0  0  0  0  0  0  0  0
   10.7346  -16.0517   30.9224 O   0  0  0  0  0  0  0  0  0  0  0  0
   10.5181  -15.6355   29.5993 C   0  0  0  0  0  0  0  0  0  0  0  0
   11.0531  -16.3652   28.5592 C   0  0  0  0  0  0  0  0  0  0  0  0
   10.8550  -15.9780   27.2569 C   0  0  0  0  0  0  0  0  0  0  0  0
   10.1152  -14.8465   26.9269 C   0  0  0  0  0  0  0  0  0  0  0  0
    9.9176  -14.4439   25.5140 C   0  0  0  0  0  0  0  0  0  0  0  0
    9.0459  -15.4033   24.7350 C   0  0  2  0  0  0  0  0  0  0  0  0
    9.0219  -14.9385   23.3603 N   0  0  0  0  0  0  0  0  0  0  0  0
    7.6496  -15.4379   25.2248 C   0  0  0  0  0  0  0  0  0  0  0  0
    7.2236  -16.4282   26.0936 O   0  0  0  0  0  0  0  0  0  0  0  0
    9.5863  -14.1265   27.9766 C   0  0  0  0  0  0  0  0  0  0  0  0
    9.7827  -14.5130   29.3066 C   0  0  0  0  0  0  0  0  0  0  0  0
    6.8154  -14.5707   24.8655 O   0  0  0  0  0  0  0  0  0  0  0  0
  1  2  1  0
  2  3  1  0
  3  5  1  0
  3  4  1  1
  5  6  2  0
  7  5  1  0
  7  8  1  0
  8 11  1  0
  8  9  1  1
 10  9  1  0
 11 20  1  0
 11 12  2  0
 14 13  1  0
 15 14  2  0
 16 15  1  0
 17 16  2  0
 17 23  1  0
 18 17  1  0
 19 18  1  1
 19 21  1  0
 20 19  1  0
 21 25  2  0
 21 22  1  0
 23 24  2  0
 24 14  1  0
M  END
$$$$
