FAI.pdb
     RDKit          3D

 25 25  0  0  1  0  0  0  0  0999 V2000
    6.2853  -18.2289   22.7359 N   0  0  0  0  0  0  0  0  0  0  0  0
    6.8882  -16.9876   23.2456 C   0  0  1  0  0  0  0  0  0  0  0  0
    6.0842  -16.4586   24.3691 C   0  0  0  0  0  0  0  0  0  0  0  0
    6.6047  -15.1894   24.9250 C   0  0  0  0  0  0  0  0  0  0  0  0
    7.2543  -15.1332   26.1568 C   0  0  0  0  0  0  0  0  0  0  0  0
    7.7296  -13.9497   26.6857 C   0  0  0  0  0  0  0  0  0  0  0  0
    7.5756  -12.7529   26.0023 C   0  0  0  0  0  0  0  0  0  0  0  0
    6.9397  -12.7908   24.7904 C   0  0  0  0  0  0  0  0  0  0  0  0
    6.4627  -13.9952   24.2638 C   0  0  0  0  0  0  0  0  0  0  0  0
    8.3050  -17.1845   23.4251 C   0  0  0  0  0  0  0  0  0  0  0  0
    8.7038  -18.2158   24.0593 O   0  0  0  0  0  0  0  0  0  0  0  0
   11.6600  -15.6476   22.4774 C   0  0  0  0  0  0  0  0  0  0  0  0
   10.7461  -16.5867   23.2580 C   0  0  2  0  0  0  0  0  0  0  0  0
    9.3728  -16.3527   22.9678 N   0  0  0  0  0  0  0  0  0  0  0  0
   11.1734  -16.5309   24.6452 C   0  0  0  0  0  0  0  0  0  0  0  0
   12.4270  -16.7172   24.8386 O   0  0  0  0  0  0  0  0  0  0  0  0
    8.9366  -13.0881   28.1873 C   0  0  0  0  0  0  0  0  0  0  0  0
    9.9012  -13.9421   27.4524 C   0  0  0  0  0  0  0  0  0  0  0  0
   10.2007  -15.2788   28.0067 C   0  0  2  0  0  0  0  0  0  0  0  0
   10.5528  -15.2134   29.4709 C   0  0  0  0  0  0  0  0  0  0  0  0
   10.9699  -16.1909   27.1527 C   0  0  2  0  0  0  0  0  0  0  0  0
   10.4038  -16.3019   25.8014 N   0  0  0  0  0  0  0  0  0  0  0  0
   11.3636  -17.5021   27.6774 C   0  0  0  0  0  0  0  0  0  0  0  0
   10.5709  -18.6582   27.4072 O   0  0  0  0  0  0  0  0  0  0  0  0
   12.3613  -17.7742   28.3756 O   0  0  0  0  0  0  0  0  0  0  0  0
  2 10  1  0
  2  1  1  1
  3  2  1  0
  4  3  1  0
  5  4  2  0
  6  5  1  0
  7  6  2  0
  7  8  1  0
  8  9  2  0
  9  4  1  0
 10 11  2  0
 13 12  1  6
 14 13  1  0
 14 10  1  0
 15 22  1  0
 15 13  1  0
 16 15  2  0
 18 17  1  0
 19 18  1  0
 19 20  1  1
 21 19  1  0
 21 22  1  6
 23 21  1  0
 23 24  1  0
 25 23  2  0
M  END
$$$$
