FAI.pdb
     RDKit          3D

 25 25  0  0  1  0  0  0  0  0999 V2000
    6.5133  -18.2554   21.8554 N   0  0  0  0  0  0  0  0  0  0  0  0
    7.0747  -17.0561   22.4963 C   0  0  1  0  0  0  0  0  0  0  0  0
    6.1341  -16.5391   23.5145 C   0  0  0  0  0  0  0  0  0  0  0  0
    6.6118  -15.3151   24.1959 C   0  0  0  0  0  0  0  0  0  0  0  0
    6.7073  -15.2311   25.5838 C   0  0  0  0  0  0  0  0  0  0  0  0
    7.1394  -14.0870   26.2248 C   0  0  0  0  0  0  0  0  0  0  0  0
    7.4993  -12.9598   25.5017 C   0  0  0  0  0  0  0  0  0  0  0  0
    7.4115  -13.0258   24.1370 C   0  0  0  0  0  0  0  0  0  0  0  0
    6.9730  -14.1899   23.4982 C   0  0  0  0  0  0  0  0  0  0  0  0
    8.4441  -17.3110   22.8678 C   0  0  0  0  0  0  0  0  0  0  0  0
    8.6940  -18.2823   23.6547 O   0  0  0  0  0  0  0  0  0  0  0  0
   11.9880  -16.1208   22.1411 C   0  0  0  0  0  0  0  0  0  0  0  0
   10.9264  -16.8876   22.9232 C   0  0  2  0  0  0  0  0  0  0  0  0
    9.6132  -16.6003   22.4563 N   0  0  0  0  0  0  0  0  0  0  0  0
   11.2138  -16.6828   24.3322 C   0  0  0  0  0  0  0  0  0  0  0  0
   12.3466  -17.1328   24.7297 O   0  0  0  0  0  0  0  0  0  0  0  0
   10.3703  -13.0194   29.2526 C   0  0  0  0  0  0  0  0  0  0  0  0
   10.6505  -14.3681   28.7027 C   0  0  0  0  0  0  0  0  0  0  0  0
   10.4390  -14.5807   27.2558 C   0  0  2  0  0  0  0  0  0  0  0  0
    9.1313  -13.9953   26.7876 C   0  0  0  0  0  0  0  0  0  0  0  0
   10.8456  -15.8818   26.7129 C   0  0  2  0  0  0  0  0  0  0  0  0
   10.4230  -16.0615   25.3172 N   0  0  0  0  0  0  0  0  0  0  0  0
   10.6093  -17.0934   27.5039 C   0  0  0  0  0  0  0  0  0  0  0  0
    9.6236  -18.0427   27.0978 O   0  0  0  0  0  0  0  0  0  0  0  0
   11.1848  -17.4403   28.5553 O   0  0  0  0  0  0  0  0  0  0  0  0
  2 10  1  0
  2  1  1  1
  3  2  1  0
  4  3  1  0
  5  4  2  0
  6  5  1  0
  7  6  2  0
  7  8  1  0
  8  9  2  0
  9  4  1  0
 10 11  2  0
 13 12  1  6
 14 13  1  0
 14 10  1  0
 15 22  1  0
 15 13  1  0
 16 15  2  0
 18 17  1  0
 19 18  1  0
 19 20  1  1
 21 19  1  0
 21 22  1  6
 23 21  1  0
 23 24  1  0
 25 23  2  0
M  END
$$$$
