FAI.pdb
     RDKit          3D

 25 25  0  0  1  0  0  0  0  0999 V2000
    9.0733  -19.4811   28.3666 N   0  0  0  0  0  0  0  0  0  0  0  0
    8.9175  -18.4289   27.3504 C   0  0  1  0  0  0  0  0  0  0  0  0
   10.1634  -17.6384   27.2451 C   0  0  0  0  0  0  0  0  0  0  0  0
   10.1519  -16.4020   28.0588 C   0  0  0  0  0  0  0  0  0  0  0  0
   10.8590  -16.2978   29.2553 C   0  0  0  0  0  0  0  0  0  0  0  0
   10.8405  -15.1514   30.0246 C   0  0  0  0  0  0  0  0  0  0  0  0
   10.1057  -14.0431   29.6315 C   0  0  0  0  0  0  0  0  0  0  0  0
    9.4054  -14.1288   28.4581 C   0  0  0  0  0  0  0  0  0  0  0  0
    9.4316  -15.2948   27.6865 C   0  0  0  0  0  0  0  0  0  0  0  0
    8.3427  -18.9995   26.1578 C   0  0  0  0  0  0  0  0  0  0  0  0
    9.0544  -19.7874   25.4523 O   0  0  0  0  0  0  0  0  0  0  0  0
    5.2423  -18.6529   23.9737 C   0  0  0  0  0  0  0  0  0  0  0  0
    6.7407  -18.6041   24.2548 C   0  0  2  0  0  0  0  0  0  0  0  0
    7.0282  -18.8019   25.6343 N   0  0  0  0  0  0  0  0  0  0  0  0
    7.2490  -17.4041   23.6131 C   0  0  0  0  0  0  0  0  0  0  0  0
    7.1688  -17.3930   22.3336 O   0  0  0  0  0  0  0  0  0  0  0  0
    6.9309  -12.0617   25.4547 C   0  0  0  0  0  0  0  0  0  0  0  0
    7.6333  -13.3268   25.1290 C   0  0  0  0  0  0  0  0  0  0  0  0
    7.4596  -13.8822   23.7707 C   0  0  2  0  0  0  0  0  0  0  0  0
    6.0203  -13.8361   23.3251 C   0  0  0  0  0  0  0  0  0  0  0  0
    8.2459  -15.0759   23.4395 C   0  0  2  0  0  0  0  0  0  0  0  0
    7.8156  -16.2571   24.2002 N   0  0  0  0  0  0  0  0  0  0  0  0
    9.7077  -14.9780   23.3845 C   0  0  0  0  0  0  0  0  0  0  0  0
   10.5219  -15.8443   24.1748 O   0  0  0  0  0  0  0  0  0  0  0  0
   10.3927  -14.1918   22.6993 O   0  0  0  0  0  0  0  0  0  0  0  0
  2 10  1  0
  2  1  1  1
  3  2  1  0
  4  3  1  0
  5  4  2  0
  6  5  1  0
  7  6  2  0
  7  8  1  0
  8  9  2  0
  9  4  1  0
 10 11  2  0
 13 12  1  1
 14 13  1  0
 14 10  1  0
 15 22  1  0
 15 13  1  0
 16 15  2  0
 18 17  1  0
 19 18  1  0
 19 20  1  1
 21 19  1  0
 21 22  1  1
 23 21  1  0
 23 24  1  0
 25 23  2  0
M  END
$$$$
