FAI.pdb
     RDKit          3D

 25 25  0  0  1  0  0  0  0  0999 V2000
    6.1688  -17.9228   21.8869 N   0  0  0  0  0  0  0  0  0  0  0  0
    7.1245  -16.8483   22.1972 C   0  0  1  0  0  0  0  0  0  0  0  0
    6.4137  -15.5559   22.3107 C   0  0  0  0  0  0  0  0  0  0  0  0
    6.9933  -14.4844   21.4699 C   0  0  0  0  0  0  0  0  0  0  0  0
    6.7943  -14.4374   20.0913 C   0  0  0  0  0  0  0  0  0  0  0  0
    7.3440  -13.4477   19.3009 C   0  0  0  0  0  0  0  0  0  0  0  0
    8.1282  -12.4478   19.8562 C   0  0  0  0  0  0  0  0  0  0  0  0
    8.3334  -12.4794   21.2095 C   0  0  0  0  0  0  0  0  0  0  0  0
    7.7714  -13.4863   22.0006 C   0  0  0  0  0  0  0  0  0  0  0  0
    7.9879  -17.2737   23.2704 C   0  0  0  0  0  0  0  0  0  0  0  0
    7.4592  -17.7319   24.3360 O   0  0  0  0  0  0  0  0  0  0  0  0
   11.6074  -18.0625   24.0297 C   0  0  0  0  0  0  0  0  0  0  0  0
   10.1884  -17.6712   24.4297 C   0  0  2  0  0  0  0  0  0  0  0  0
    9.4160  -17.2583   23.3082 N   0  0  0  0  0  0  0  0  0  0  0  0
   10.3060  -16.7599   25.5548 C   0  0  0  0  0  0  0  0  0  0  0  0
   10.9765  -17.2067   26.5520 O   0  0  0  0  0  0  0  0  0  0  0  0
    6.4835  -12.9515   26.4281 C   0  0  0  0  0  0  0  0  0  0  0  0
    7.7939  -13.5748   26.1213 C   0  0  0  0  0  0  0  0  0  0  0  0
    8.6583  -13.9579   27.2569 C   0  0  2  0  0  0  0  0  0  0  0  0
    8.7112  -12.8812   28.3105 C   0  0  0  0  0  0  0  0  0  0  0  0
    9.9018  -14.6655   26.9314 C   0  0  2  0  0  0  0  0  0  0  0  0
    9.7868  -15.4596   25.7005 N   0  0  0  0  0  0  0  0  0  0  0  0
   10.5995  -15.4092   27.9848 C   0  0  0  0  0  0  0  0  0  0  0  0
   10.0596  -16.6313   28.4877 O   0  0  0  0  0  0  0  0  0  0  0  0
   11.6724  -15.1080   28.5461 O   0  0  0  0  0  0  0  0  0  0  0  0
  2 10  1  0
  2  1  1  1
  3  2  1  0
  4  3  1  0
  5  4  2  0
  6  5  1  0
  7  6  2  0
  7  8  1  0
  8  9  2  0
  9  4  1  0
 10 11  2  0
 13 12  1  6
 14 13  1  0
 14 10  1  0
 15 22  1  0
 15 13  1  0
 16 15  2  0
 18 17  1  0
 19 18  1  0
 19 20  1  6
 21 19  1  0
 21 22  1  6
 23 21  1  0
 23 24  1  0
 25 23  2  0
M  END
$$$$
