FAI.pdb
     RDKit          3D

 25 25  0  0  1  0  0  0  0  0999 V2000
    8.7393  -20.3234   28.7320 N   0  0  0  0  0  0  0  0  0  0  0  0
    8.7799  -18.9555   28.1922 C   0  0  1  0  0  0  0  0  0  0  0  0
    9.9841  -18.2522   28.6857 C   0  0  0  0  0  0  0  0  0  0  0  0
   10.0145  -16.8135   28.3390 C   0  0  0  0  0  0  0  0  0  0  0  0
    8.8853  -16.1409   27.8752 C   0  0  0  0  0  0  0  0  0  0  0  0
    8.9119  -14.8023   27.5377 C   0  0  0  0  0  0  0  0  0  0  0  0
   10.0809  -14.0644   27.6475 C   0  0  0  0  0  0  0  0  0  0  0  0
   11.1994  -14.7103   28.1018 C   0  0  0  0  0  0  0  0  0  0  0  0
   11.1610  -16.0663   28.4413 C   0  0  0  0  0  0  0  0  0  0  0  0
    8.5184  -18.9944   26.7750 C   0  0  0  0  0  0  0  0  0  0  0  0
    9.4937  -19.1907   25.9781 O   0  0  0  0  0  0  0  0  0  0  0  0
    5.6996  -18.9073   24.2327 C   0  0  0  0  0  0  0  0  0  0  0  0
    7.1254  -18.6434   24.7061 C   0  0  2  0  0  0  0  0  0  0  0  0
    7.2640  -18.8424   26.1083 N   0  0  0  0  0  0  0  0  0  0  0  0
    7.5201  -17.3595   24.1530 C   0  0  0  0  0  0  0  0  0  0  0  0
    7.5779  -17.3105   22.8731 O   0  0  0  0  0  0  0  0  0  0  0  0
    6.3654  -11.9872   25.8584 C   0  0  0  0  0  0  0  0  0  0  0  0
    7.2428  -13.1685   25.6723 C   0  0  0  0  0  0  0  0  0  0  0  0
    7.2013  -13.8597   24.3669 C   0  0  2  0  0  0  0  0  0  0  0  0
    5.7873  -14.1157   23.9119 C   0  0  0  0  0  0  0  0  0  0  0  0
    8.1983  -14.9132   24.1452 C   0  0  2  0  0  0  0  0  0  0  0  0
    7.8470  -16.1670   24.8258 N   0  0  0  0  0  0  0  0  0  0  0  0
    9.6212  -14.5978   24.3053 C   0  0  0  0  0  0  0  0  0  0  0  0
   10.2226  -13.5547   23.5384 O   0  0  0  0  0  0  0  0  0  0  0  0
   10.4415  -15.1476   25.0680 O   0  0  0  0  0  0  0  0  0  0  0  0
  2 10  1  0
  2  1  1  6
  3  2  1  0
  4  3  1  0
  5  4  2  0
  6  5  1  0
  7  6  2  0
  7  8  1  0
  8  9  2  0
  9  4  1  0
 10 11  2  0
 13 12  1  1
 14 13  1  0
 14 10  1  0
 15 22  1  0
 15 13  1  0
 16 15  2  0
 18 17  1  0
 19 18  1  0
 19 20  1  1
 21 19  1  0
 21 22  1  1
 23 21  1  0
 23 24  1  0
 25 23  2  0
M  END
$$$$
