FAI.pdb
     RDKit          3D

 25 25  0  0  1  0  0  0  0  0999 V2000
    7.2388  -16.9025   19.9361 N   0  0  0  0  0  0  0  0  0  0  0  0
    7.6650  -15.8912   20.9157 C   0  0  1  0  0  0  0  0  0  0  0  0
    6.5963  -14.8855   21.1026 C   0  0  0  0  0  0  0  0  0  0  0  0
    6.9400  -13.8298   22.0815 C   0  0  0  0  0  0  0  0  0  0  0  0
    6.5805  -13.9220   23.4249 C   0  0  0  0  0  0  0  0  0  0  0  0
    6.8869  -12.9337   24.3391 C   0  0  0  0  0  0  0  0  0  0  0  0
    7.5734  -11.7934   23.9501 C   0  0  0  0  0  0  0  0  0  0  0  0
    7.9342  -11.6872   22.6336 C   0  0  0  0  0  0  0  0  0  0  0  0
    7.6191  -12.6946   21.7163 C   0  0  0  0  0  0  0  0  0  0  0  0
    8.2207  -16.5510   22.0708 C   0  0  0  0  0  0  0  0  0  0  0  0
    7.4874  -17.3653   22.7220 O   0  0  0  0  0  0  0  0  0  0  0  0
   11.1997  -18.0429   23.3640 C   0  0  0  0  0  0  0  0  0  0  0  0
   10.0170  -17.1522   23.7309 C   0  0  2  0  0  0  0  0  0  0  0  0
    9.5373  -16.4191   22.6096 N   0  0  0  0  0  0  0  0  0  0  0  0
   10.4020  -16.4127   24.9205 C   0  0  0  0  0  0  0  0  0  0  0  0
   11.3031  -15.5188   24.7402 O   0  0  0  0  0  0  0  0  0  0  0  0
    7.8388  -13.1167   27.6996 C   0  0  0  0  0  0  0  0  0  0  0  0
    8.8838  -13.9907   27.1131 C   0  0  0  0  0  0  0  0  0  0  0  0
    9.6056  -14.9070   28.0202 C   0  0  2  0  0  0  0  0  0  0  0  0
   10.0557  -14.2113   29.2794 C   0  0  0  0  0  0  0  0  0  0  0  0
   10.5243  -15.8661   27.3965 C   0  0  2  0  0  0  0  0  0  0  0  0
    9.9243  -16.5423   26.2382 N   0  0  0  0  0  0  0  0  0  0  0  0
   11.2598  -16.8090   28.2449 C   0  0  0  0  0  0  0  0  0  0  0  0
   10.7661  -18.1319   28.4543 O   0  0  0  0  0  0  0  0  0  0  0  0
   12.3302  -16.6093   28.8542 O   0  0  0  0  0  0  0  0  0  0  0  0
  2 10  1  0
  2  1  1  6
  3  2  1  0
  4  3  1  0
  5  4  2  0
  6  5  1  0
  7  6  2  0
  7  8  1  0
  8  9  2  0
  9  4  1  0
 10 11  2  0
 13 12  1  6
 14 13  1  0
 14 10  1  0
 15 22  1  0
 15 13  1  0
 16 15  2  0
 18 17  1  0
 19 18  1  0
 19 20  1  1
 21 19  1  0
 21 22  1  6
 23 21  1  0
 23 24  1  0
 25 23  2  0
M  END
$$$$
