FAI.pdb
     RDKit          3D

 25 25  0  0  1  0  0  0  0  0999 V2000
    6.8375  -16.7479   20.9685 N   0  0  0  0  0  0  0  0  0  0  0  0
    7.8378  -16.0379   21.7804 C   0  0  1  0  0  0  0  0  0  0  0  0
    7.4744  -14.6085   21.8953 C   0  0  0  0  0  0  0  0  0  0  0  0
    7.5812  -13.8650   20.6199 C   0  0  0  0  0  0  0  0  0  0  0  0
    8.8087  -13.4506   20.1064 C   0  0  0  0  0  0  0  0  0  0  0  0
    8.9124  -12.7451   18.9240 C   0  0  0  0  0  0  0  0  0  0  0  0
    7.7821  -12.4155   18.1913 C   0  0  0  0  0  0  0  0  0  0  0  0
    6.5681  -12.8154   18.6819 C   0  0  0  0  0  0  0  0  0  0  0  0
    6.4748  -13.5300   19.8803 C   0  0  0  0  0  0  0  0  0  0  0  0
    8.1042  -16.7951   22.9780 C   0  0  0  0  0  0  0  0  0  0  0  0
    7.2421  -16.7784   23.9168 O   0  0  0  0  0  0  0  0  0  0  0  0
   10.7439  -19.0239   24.5772 C   0  0  0  0  0  0  0  0  0  0  0  0
    9.6532  -17.9577   24.5883 C   0  0  2  0  0  0  0  0  0  0  0  0
    9.2463  -17.6014   23.2721 N   0  0  0  0  0  0  0  0  0  0  0  0
   10.1083  -16.9012   25.4754 C   0  0  0  0  0  0  0  0  0  0  0  0
   11.1115  -16.2254   25.0503 O   0  0  0  0  0  0  0  0  0  0  0  0
    7.5933  -12.8114   26.7805 C   0  0  0  0  0  0  0  0  0  0  0  0
    8.6683  -13.8135   26.5805 C   0  0  0  0  0  0  0  0  0  0  0  0
    9.3624  -14.3290   27.7789 C   0  0  2  0  0  0  0  0  0  0  0  0
    9.8666  -13.2138   28.6588 C   0  0  0  0  0  0  0  0  0  0  0  0
   10.2241  -15.5015   27.5900 C   0  0  2  0  0  0  0  0  0  0  0  0
    9.6023  -16.5195   26.7322 N   0  0  0  0  0  0  0  0  0  0  0  0
   10.8735  -16.1083   28.7561 C   0  0  0  0  0  0  0  0  0  0  0  0
   11.9496  -15.4406   29.4149 O   0  0  0  0  0  0  0  0  0  0  0  0
   10.6039  -17.2010   29.2946 O   0  0  0  0  0  0  0  0  0  0  0  0
  2 10  1  0
  2  1  1  1
  3  2  1  0
  4  3  1  0
  5  4  2  0
  6  5  1  0
  7  6  2  0
  7  8  1  0
  8  9  2  0
  9  4  1  0
 10 11  2  0
 13 12  1  6
 14 13  1  0
 14 10  1  0
 15 22  1  0
 15 13  1  0
 16 15  2  0
 18 17  1  0
 19 18  1  0
 19 20  1  6
 21 19  1  0
 21 22  1  1
 23 21  1  0
 23 24  1  0
 25 23  2  0
M  END
$$$$
