FAI.pdb
     RDKit          3D

 25 25  0  0  1  0  0  0  0  0999 V2000
    5.7473  -16.5381   24.9582 N   0  0  0  0  0  0  0  0  0  0  0  0
    6.7056  -16.4164   23.8487 C   0  0  1  0  0  0  0  0  0  0  0  0
    6.5393  -15.1086   23.1775 C   0  0  0  0  0  0  0  0  0  0  0  0
    6.5987  -13.9551   24.1032 C   0  0  0  0  0  0  0  0  0  0  0  0
    5.9878  -13.9801   25.3556 C   0  0  0  0  0  0  0  0  0  0  0  0
    6.0288  -12.9019   26.2171 C   0  0  0  0  0  0  0  0  0  0  0  0
    6.6883  -11.7342   25.8637 C   0  0  0  0  0  0  0  0  0  0  0  0
    7.2939  -11.6932   24.6366 C   0  0  0  0  0  0  0  0  0  0  0  0
    7.2465  -12.7914   23.7721 C   0  0  0  0  0  0  0  0  0  0  0  0
    8.0148  -16.8127   24.3040 C   0  0  0  0  0  0  0  0  0  0  0  0
    8.1740  -17.0964   25.5365 O   0  0  0  0  0  0  0  0  0  0  0  0
   11.5774  -17.2913   23.0360 C   0  0  0  0  0  0  0  0  0  0  0  0
   10.4513  -17.4020   24.0589 C   0  0  2  0  0  0  0  0  0  0  0  0
    9.2109  -16.9433   23.5337 N   0  0  0  0  0  0  0  0  0  0  0  0
   10.9403  -16.8013   25.2877 C   0  0  0  0  0  0  0  0  0  0  0  0
   10.9286  -15.5195   25.3115 O   0  0  0  0  0  0  0  0  0  0  0  0
    8.7326  -14.1931   28.0433 C   0  0  0  0  0  0  0  0  0  0  0  0
   10.0291  -14.7978   27.6516 C   0  0  0  0  0  0  0  0  0  0  0  0
   10.3740  -16.1178   28.2192 C   0  0  2  0  0  0  0  0  0  0  0  0
   10.0742  -16.1901   29.6947 C   0  0  0  0  0  0  0  0  0  0  0  0
   11.6106  -16.7422   27.7355 C   0  0  2  0  0  0  0  0  0  0  0  0
   11.4236  -17.4300   26.4507 N   0  0  0  0  0  0  0  0  0  0  0  0
   12.4166  -17.5453   28.6603 C   0  0  0  0  0  0  0  0  0  0  0  0
   12.3795  -18.9711   28.6027 O   0  0  0  0  0  0  0  0  0  0  0  0
   13.1845  -17.1350   29.5540 O   0  0  0  0  0  0  0  0  0  0  0  0
  2 10  1  0
  2  1  1  1
  3  2  1  0
  4  3  1  0
  5  4  2  0
  6  5  1  0
  7  6  2  0
  7  8  1  0
  8  9  2  0
  9  4  1  0
 10 11  2  0
 13 12  1  6
 14 13  1  0
 14 10  1  0
 15 22  1  0
 15 13  1  0
 16 15  2  0
 18 17  1  0
 19 18  1  0
 19 20  1  1
 21 19  1  0
 21 22  1  6
 23 21  1  0
 23 24  1  0
 25 23  2  0
M  END
$$$$
