EHG.pdb
     RDKit          3D

 24 24  0  0  1  0  0  0  0  0999 V2000
   24.6795  -20.0251  -14.6892 N   0  0  0  0  0  0  0  0  0  0  0  0
   23.5447  -20.8677  -14.5627 C   0  0  1  0  0  0  0  0  0  0  0  0
   23.6452  -21.7533  -13.3725 C   0  0  0  0  0  0  0  0  0  0  0  0
   23.3517  -23.2076  -13.6270 C   0  0  0  0  0  0  0  0  0  0  0  0
   24.3276  -23.8385  -14.5437 C   0  0  0  0  0  0  0  0  0  0  0  0
   25.3537  -23.2169  -14.9798 O   0  0  0  0  0  0  0  0  0  0  0  0
   22.2579  -20.1230  -14.5353 C   0  0  0  0  0  0  0  0  0  0  0  0
   22.1803  -19.1797  -13.6837 O   0  0  0  0  0  0  0  0  0  0  0  0
   24.2039  -25.1452  -14.9966 O   0  0  0  0  0  0  0  0  0  0  0  0
   21.1691  -20.4034  -15.3736 N   0  0  0  0  0  0  0  0  0  0  0  0
   19.9494  -19.5612  -15.2888 C   0  0  1  0  0  0  0  0  0  0  0  0
   19.8755  -18.7185  -16.5427 C   0  0  0  0  0  0  0  0  0  0  0  0
   20.8068  -17.5950  -16.6062 C   0  0  0  0  0  0  0  0  0  0  0  0
   20.6269  -16.2528  -16.2989 C   0  0  0  0  0  0  0  0  0  0  0  0
   21.7675  -15.6294  -16.5556 N   0  0  0  0  0  0  0  0  0  0  0  0
   22.6658  -16.5076  -17.0113 C   0  0  0  0  0  0  0  0  0  0  0  0
   22.0789  -17.6955  -17.0398 N   0  0  0  0  0  0  0  0  0  0  0  0
   18.7954  -20.4468  -15.1027 C   0  0  0  0  0  0  0  0  0  0  0  0
   18.7823  -21.5699  -15.6832 O   0  0  0  0  0  0  0  0  0  0  0  0
   17.6569  -20.1608  -14.3069 N   0  0  0  0  0  0  0  0  0  0  0  0
   16.5352  -21.0727  -14.2340 C   0  0  0  0  0  0  0  0  0  0  0  0
   15.4018  -20.5022  -13.4726 C   0  0  0  0  0  0  0  0  0  0  0  0
   14.1504  -21.0825  -13.4276 O   0  0  0  0  0  0  0  0  0  0  0  0
   15.5741  -19.4403  -12.8332 O   0  0  0  0  0  0  0  0  0  0  0  0
  2  1  1  1
  3  2  1  0
  4  5  1  0
  4  3  1  0
  5  9  1  0
  6  5  2  0
  7  2  1  0
  7 10  1  0
  8  7  2  0
 11 10  1  0
 11 18  1  0
 12 13  1  0
 11 12  1  6
 13 14  2  0
 14 15  1  0
 16 15  1  0
 17 13  1  0
 17 16  2  0
 18 20  1  0
 18 19  2  0
 20 21  1  0
 22 21  1  0
 22 23  1  0
 24 22  2  0
M  END
$$$$
