EHG.pdb
     RDKit          3D

 24 24  0  0  1  0  0  0  0  0999 V2000
   18.9892  -13.7266  -15.8134 N   0  0  0  0  0  0  0  0  0  0  0  0
   19.7227  -12.8614  -16.6662 C   0  0  1  0  0  0  0  0  0  0  0  0
   19.6104  -13.2672  -18.0923 C   0  0  0  0  0  0  0  0  0  0  0  0
   20.2347  -14.5936  -18.4339 C   0  0  0  0  0  0  0  0  0  0  0  0
   21.6455  -14.6937  -17.9978 C   0  0  0  0  0  0  0  0  0  0  0  0
   22.5126  -13.8021  -18.2849 O   0  0  0  0  0  0  0  0  0  0  0  0
   19.3508  -11.4297  -16.5141 C   0  0  0  0  0  0  0  0  0  0  0  0
   18.2251  -11.0932  -17.0047 O   0  0  0  0  0  0  0  0  0  0  0  0
   22.1315  -15.7567  -17.2483 O   0  0  0  0  0  0  0  0  0  0  0  0
   20.1544  -10.4718  -15.8790 N   0  0  0  0  0  0  0  0  0  0  0  0
   19.6424   -9.0884  -15.7104 C   0  0  1  0  0  0  0  0  0  0  0  0
   18.3833   -9.1549  -14.8748 C   0  0  0  0  0  0  0  0  0  0  0  0
   17.1492   -9.4209  -15.6094 C   0  0  0  0  0  0  0  0  0  0  0  0
   16.5016   -8.6788  -16.5883 C   0  0  0  0  0  0  0  0  0  0  0  0
   15.3971   -9.3322  -16.9177 N   0  0  0  0  0  0  0  0  0  0  0  0
   15.3082  -10.4543  -16.1973 C   0  0  0  0  0  0  0  0  0  0  0  0
   16.3713  -10.5028  -15.4073 N   0  0  0  0  0  0  0  0  0  0  0  0
   20.7074   -8.2775  -15.1115 C   0  0  0  0  0  0  0  0  0  0  0  0
   21.3030   -8.7077  -14.0825 O   0  0  0  0  0  0  0  0  0  0  0  0
   21.1529   -7.0189  -15.5898 N   0  0  0  0  0  0  0  0  0  0  0  0
   22.2482   -6.3134  -14.9592 C   0  0  0  0  0  0  0  0  0  0  0  0
   21.8163   -5.5838  -13.7463 C   0  0  0  0  0  0  0  0  0  0  0  0
   22.6603   -4.7849  -13.0017 O   0  0  0  0  0  0  0  0  0  0  0  0
   20.6285   -5.6884  -13.3664 O   0  0  0  0  0  0  0  0  0  0  0  0
  2  1  1  1
  3  2  1  0
  4  5  1  0
  4  3  1  0
  5  9  1  0
  6  5  2  0
  7  2  1  0
  7 10  1  0
  8  7  2  0
 11 10  1  0
 11 18  1  0
 12 13  1  0
 11 12  1  1
 13 14  2  0
 14 15  1  0
 16 15  1  0
 17 13  1  0
 17 16  2  0
 18 20  1  0
 18 19  2  0
 20 21  1  0
 22 21  1  0
 22 23  1  0
 24 22  2  0
M  END
$$$$
