EHG.pdb
     RDKit          3D

 24 24  0  0  1  0  0  0  0  0999 V2000
   20.1215  -10.2937  -20.2575 N   0  0  0  0  0  0  0  0  0  0  0  0
   21.0208   -9.3961  -19.6254 C   0  0  1  0  0  0  0  0  0  0  0  0
   21.1989   -8.1477  -20.4132 C   0  0  0  0  0  0  0  0  0  0  0  0
   21.9296   -8.3107  -21.7191 C   0  0  0  0  0  0  0  0  0  0  0  0
   22.1420   -7.0259  -22.4225 C   0  0  0  0  0  0  0  0  0  0  0  0
   23.2465   -6.3892  -22.3603 O   0  0  0  0  0  0  0  0  0  0  0  0
   20.6374   -9.0649  -18.2273 C   0  0  0  0  0  0  0  0  0  0  0  0
   19.3879   -9.0488  -17.9832 O   0  0  0  0  0  0  0  0  0  0  0  0
   21.1641   -6.4184  -23.1987 O   0  0  0  0  0  0  0  0  0  0  0  0
   21.5559   -8.7808  -17.2064 N   0  0  0  0  0  0  0  0  0  0  0  0
   21.0549   -8.3989  -15.8620 C   0  0  1  0  0  0  0  0  0  0  0  0
   21.1593   -9.6108  -14.9629 C   0  0  0  0  0  0  0  0  0  0  0  0
   20.2128  -10.6881  -15.2401 C   0  0  0  0  0  0  0  0  0  0  0  0
   18.8541  -10.7895  -14.9716 C   0  0  0  0  0  0  0  0  0  0  0  0
   18.4536  -11.9812  -15.3895 N   0  0  0  0  0  0  0  0  0  0  0  0
   19.4896  -12.6449  -15.9111 C   0  0  0  0  0  0  0  0  0  0  0  0
   20.5516  -11.8575  -15.8180 N   0  0  0  0  0  0  0  0  0  0  0  0
   21.8336   -7.2473  -15.3950 C   0  0  0  0  0  0  0  0  0  0  0  0
   23.0953   -7.3265  -15.3728 O   0  0  0  0  0  0  0  0  0  0  0  0
   21.2945   -6.0116  -14.9549 N   0  0  0  0  0  0  0  0  0  0  0  0
   22.1470   -4.9202  -14.5341 C   0  0  0  0  0  0  0  0  0  0  0  0
   21.3672   -3.7426  -14.0920 C   0  0  0  0  0  0  0  0  0  0  0  0
   21.9395   -2.6299  -13.5098 O   0  0  0  0  0  0  0  0  0  0  0  0
   20.1256   -3.7440  -14.2485 O   0  0  0  0  0  0  0  0  0  0  0  0
  2  1  1  6
  3  2  1  0
  4  5  1  0
  4  3  1  0
  5  9  1  0
  6  5  2  0
  7  2  1  0
  7 10  1  0
  8  7  2  0
 11 10  1  0
 11 18  1  0
 12 13  1  0
 11 12  1  1
 13 14  2  0
 14 15  1  0
 16 15  1  0
 17 13  1  0
 17 16  2  0
 18 20  1  0
 18 19  2  0
 20 21  1  0
 22 21  1  0
 22 23  1  0
 24 22  2  0
M  END
$$$$
