EHG.pdb
     RDKit          3D

 24 24  0  0  1  0  0  0  0  0999 V2000
   22.3143  -19.0189  -19.6349 N   0  0  0  0  0  0  0  0  0  0  0  0
   21.7759  -18.8285  -18.3357 C   0  0  1  0  0  0  0  0  0  0  0  0
   20.3638  -19.2863  -18.2513 C   0  0  0  0  0  0  0  0  0  0  0  0
   19.3275  -18.2191  -18.4819 C   0  0  0  0  0  0  0  0  0  0  0  0
   19.0436  -17.4223  -17.2672 C   0  0  0  0  0  0  0  0  0  0  0  0
   19.2513  -16.1641  -17.2134 O   0  0  0  0  0  0  0  0  0  0  0  0
   22.5831  -19.4691  -17.2637 C   0  0  0  0  0  0  0  0  0  0  0  0
   23.1339  -20.5757  -17.5695 O   0  0  0  0  0  0  0  0  0  0  0  0
   18.5332  -17.9774  -16.1013 O   0  0  0  0  0  0  0  0  0  0  0  0
   22.7573  -18.9290  -15.9813 N   0  0  0  0  0  0  0  0  0  0  0  0
   23.6703  -19.6043  -15.0248 C   0  0  1  0  0  0  0  0  0  0  0  0
   24.7160  -18.6016  -14.5900 C   0  0  0  0  0  0  0  0  0  0  0  0
   25.7643  -18.3163  -15.5663 C   0  0  0  0  0  0  0  0  0  0  0  0
   26.0344  -18.8964  -16.7987 C   0  0  0  0  0  0  0  0  0  0  0  0
   27.1161  -18.3078  -17.2872 N   0  0  0  0  0  0  0  0  0  0  0  0
   27.5493  -17.3810  -16.4273 C   0  0  0  0  0  0  0  0  0  0  0  0
   26.7273  -17.3906  -15.3877 N   0  0  0  0  0  0  0  0  0  0  0  0
   22.8637  -20.1340  -13.9206 C   0  0  0  0  0  0  0  0  0  0  0  0
   23.4466  -20.6777  -12.9392 O   0  0  0  0  0  0  0  0  0  0  0  0
   21.4485  -20.0924  -13.8398 N   0  0  0  0  0  0  0  0  0  0  0  0
   20.7431  -20.5529  -12.6627 C   0  0  0  0  0  0  0  0  0  0  0  0
   20.2572  -21.9427  -12.8124 C   0  0  0  0  0  0  0  0  0  0  0  0
   19.4847  -22.5816  -11.8638 O   0  0  0  0  0  0  0  0  0  0  0  0
   20.5552  -22.5812  -13.8466 O   0  0  0  0  0  0  0  0  0  0  0  0
  2  1  1  6
  3  2  1  0
  4  5  1  0
  4  3  1  0
  5  9  1  0
  6  5  2  0
  7  2  1  0
  7 10  1  0
  8  7  2  0
 11 10  1  0
 11 18  1  0
 12 13  1  0
 11 12  1  1
 13 14  2  0
 14 15  1  0
 16 15  1  0
 17 13  1  0
 17 16  2  0
 18 20  1  0
 18 19  2  0
 20 21  1  0
 22 21  1  0
 22 23  1  0
 24 22  2  0
M  END
$$$$
