EHG.pdb
     RDKit          3D

 24 24  0  0  1  0  0  0  0  0999 V2000
   15.6222   -7.7101   -8.9064 N   0  0  0  0  0  0  0  0  0  0  0  0
   16.1540   -7.0817  -10.0624 C   0  0  1  0  0  0  0  0  0  0  0  0
   16.4090   -5.6345   -9.8355 C   0  0  0  0  0  0  0  0  0  0  0  0
   15.1971   -4.8171   -9.4767 C   0  0  0  0  0  0  0  0  0  0  0  0
   15.5137   -3.3888   -9.2519 C   0  0  0  0  0  0  0  0  0  0  0  0
   15.8507   -2.6074  -10.2033 O   0  0  0  0  0  0  0  0  0  0  0  0
   17.3836   -7.7401  -10.5779 C   0  0  0  0  0  0  0  0  0  0  0  0
   18.1261   -8.2924   -9.7034 O   0  0  0  0  0  0  0  0  0  0  0  0
   15.4691   -2.7928   -7.9987 O   0  0  0  0  0  0  0  0  0  0  0  0
   17.7467   -7.7777  -11.9320 N   0  0  0  0  0  0  0  0  0  0  0  0
   18.9611   -8.5283  -12.3394 C   0  0  1  0  0  0  0  0  0  0  0  0
   18.6049   -9.3773  -13.5395 C   0  0  0  0  0  0  0  0  0  0  0  0
   17.8023  -10.5650  -13.2590 C   0  0  0  0  0  0  0  0  0  0  0  0
   17.4424  -11.1488  -12.0516 C   0  0  0  0  0  0  0  0  0  0  0  0
   16.7339  -12.2333  -12.3293 N   0  0  0  0  0  0  0  0  0  0  0  0
   16.6241  -12.3701  -13.6541 C   0  0  0  0  0  0  0  0  0  0  0  0
   17.2726  -11.3576  -14.2117 N   0  0  0  0  0  0  0  0  0  0  0  0
   20.0314   -7.5595  -12.5972 C   0  0  0  0  0  0  0  0  0  0  0  0
   21.1694   -7.9806  -12.9523 O   0  0  0  0  0  0  0  0  0  0  0  0
   19.9117   -6.1506  -12.4879 N   0  0  0  0  0  0  0  0  0  0  0  0
   21.0218   -5.2707  -12.7854 C   0  0  0  0  0  0  0  0  0  0  0  0
   20.9436   -4.7192  -14.1565 C   0  0  0  0  0  0  0  0  0  0  0  0
   21.8266   -3.7783  -14.6463 O   0  0  0  0  0  0  0  0  0  0  0  0
   20.0356   -5.1180  -14.9197 O   0  0  0  0  0  0  0  0  0  0  0  0
  2  1  1  1
  3  2  1  0
  4  5  1  0
  4  3  1  0
  5  9  1  0
  6  5  2  0
  7  2  1  0
  7 10  1  0
  8  7  2  0
 11 10  1  0
 11 18  1  0
 12 13  1  0
 11 12  1  6
 13 14  2  0
 14 15  1  0
 16 15  1  0
 17 13  1  0
 17 16  2  0
 18 20  1  0
 18 19  2  0
 20 21  1  0
 22 21  1  0
 22 23  1  0
 24 22  2  0
M  END
$$$$
