EHG.pdb
     RDKit          3D

 24 24  0  0  1  0  0  0  0  0999 V2000
   19.2093  -27.1672  -17.8602 N   0  0  0  0  0  0  0  0  0  0  0  0
   19.1606  -26.4394  -16.6429 C   0  0  1  0  0  0  0  0  0  0  0  0
   17.7617  -26.1855  -16.2076 C   0  0  0  0  0  0  0  0  0  0  0  0
   16.9785  -25.2418  -17.0805 C   0  0  0  0  0  0  0  0  0  0  0  0
   15.6010  -25.7141  -17.3454 C   0  0  0  0  0  0  0  0  0  0  0  0
   14.7664  -25.9425  -16.4069 O   0  0  0  0  0  0  0  0  0  0  0  0
   19.9273  -27.0806  -15.5419 C   0  0  0  0  0  0  0  0  0  0  0  0
   20.0200  -28.3494  -15.5954 O   0  0  0  0  0  0  0  0  0  0  0  0
   15.1134  -25.9434  -18.6250 O   0  0  0  0  0  0  0  0  0  0  0  0
   20.5289  -26.3766  -14.4887 N   0  0  0  0  0  0  0  0  0  0  0  0
   21.3484  -27.1143  -13.4944 C   0  0  1  0  0  0  0  0  0  0  0  0
   22.6619  -26.3811  -13.3356 C   0  0  0  0  0  0  0  0  0  0  0  0
   23.5893  -26.4931  -14.4586 C   0  0  0  0  0  0  0  0  0  0  0  0
   23.5324  -27.2765  -15.6037 C   0  0  0  0  0  0  0  0  0  0  0  0
   24.6341  -27.0423  -16.3014 N   0  0  0  0  0  0  0  0  0  0  0  0
   25.3908  -26.1482  -15.6579 C   0  0  0  0  0  0  0  0  0  0  0  0
   24.7534  -25.8194  -14.5433 N   0  0  0  0  0  0  0  0  0  0  0  0
   20.5753  -27.2181  -12.2527 C   0  0  0  0  0  0  0  0  0  0  0  0
   20.0903  -26.1686  -11.7408 O   0  0  0  0  0  0  0  0  0  0  0  0
   20.3053  -28.4186  -11.5477 N   0  0  0  0  0  0  0  0  0  0  0  0
   19.6068  -28.4120  -10.2800 C   0  0  0  0  0  0  0  0  0  0  0  0
   19.4009  -29.7784   -9.7502 C   0  0  0  0  0  0  0  0  0  0  0  0
   18.8595  -30.0354   -8.5069 O   0  0  0  0  0  0  0  0  0  0  0  0
   19.7303  -30.7583  -10.4554 O   0  0  0  0  0  0  0  0  0  0  0  0
  2  1  1  6
  3  2  1  0
  4  5  1  0
  4  3  1  0
  5  9  1  0
  6  5  2  0
  7  2  1  0
  7 10  1  0
  8  7  2  0
 11 10  1  0
 11 18  1  0
 12 13  1  0
 11 12  1  1
 13 14  2  0
 14 15  1  0
 16 15  1  0
 17 13  1  0
 17 16  2  0
 18 20  1  0
 18 19  2  0
 20 21  1  0
 22 21  1  0
 22 23  1  0
 24 22  2  0
M  END
$$$$
