EHG.pdb
     RDKit          3D

 24 24  0  0  1  0  0  0  0  0999 V2000
   27.5339  -20.8110  -16.0140 N   0  0  0  0  0  0  0  0  0  0  0  0
   27.0177  -19.8979  -15.0582 C   0  0  1  0  0  0  0  0  0  0  0  0
   26.0510  -18.9476  -15.6691 C   0  0  0  0  0  0  0  0  0  0  0  0
   24.9197  -19.5835  -16.4318 C   0  0  0  0  0  0  0  0  0  0  0  0
   24.0102  -18.5896  -17.0449 C   0  0  0  0  0  0  0  0  0  0  0  0
   24.0868  -18.2642  -18.2767 O   0  0  0  0  0  0  0  0  0  0  0  0
   26.4009  -20.5638  -13.8803 C   0  0  0  0  0  0  0  0  0  0  0  0
   25.9838  -21.7518  -14.0693 O   0  0  0  0  0  0  0  0  0  0  0  0
   23.0109  -17.9393  -16.3332 O   0  0  0  0  0  0  0  0  0  0  0  0
   26.2640  -19.9639  -12.6201 N   0  0  0  0  0  0  0  0  0  0  0  0
   25.7284  -20.7617  -11.4884 C   0  0  1  0  0  0  0  0  0  0  0  0
   26.6233  -20.5328  -10.2906 C   0  0  0  0  0  0  0  0  0  0  0  0
   28.0090  -20.9689  -10.4430 C   0  0  0  0  0  0  0  0  0  0  0  0
   28.6403  -21.6256  -11.4912 C   0  0  0  0  0  0  0  0  0  0  0  0
   29.8996  -21.8285  -11.1330 N   0  0  0  0  0  0  0  0  0  0  0  0
   30.1027  -21.3337   -9.9083 C   0  0  0  0  0  0  0  0  0  0  0  0
   28.9551  -20.8147   -9.4957 N   0  0  0  0  0  0  0  0  0  0  0  0
   24.3340  -20.3640  -11.2693 C   0  0  0  0  0  0  0  0  0  0  0  0
   23.9279  -19.2624  -11.7383 O   0  0  0  0  0  0  0  0  0  0  0  0
   23.3627  -21.1190  -10.5637 N   0  0  0  0  0  0  0  0  0  0  0  0
   21.9960  -20.6609  -10.4324 C   0  0  0  0  0  0  0  0  0  0  0  0
   21.1878  -20.9672  -11.6338 C   0  0  0  0  0  0  0  0  0  0  0  0
   19.8696  -20.5846  -11.7781 O   0  0  0  0  0  0  0  0  0  0  0  0
   21.7150  -21.6047  -12.5729 O   0  0  0  0  0  0  0  0  0  0  0  0
  2  1  1  6
  3  2  1  0
  4  5  1  0
  4  3  1  0
  5  9  1  0
  6  5  2  0
  7  2  1  0
  7 10  1  0
  8  7  2  0
 11 10  1  0
 11 18  1  0
 12 13  1  0
 11 12  1  1
 13 14  2  0
 14 15  1  0
 16 15  1  0
 17 13  1  0
 17 16  2  0
 18 20  1  0
 18 19  2  0
 20 21  1  0
 22 21  1  0
 22 23  1  0
 24 22  2  0
M  END
$$$$
