EHG.pdb
     RDKit          3D

 24 24  0  0  1  0  0  0  0  0999 V2000
   17.7604  -12.1244  -16.5065 N   0  0  0  0  0  0  0  0  0  0  0  0
   18.5455  -10.9441  -16.5721 C   0  0  1  0  0  0  0  0  0  0  0  0
   18.8482  -10.5604  -17.9764 C   0  0  0  0  0  0  0  0  0  0  0  0
   19.6704  -11.5550  -18.7513 C   0  0  0  0  0  0  0  0  0  0  0  0
   20.0887  -11.0457  -20.0766 C   0  0  0  0  0  0  0  0  0  0  0  0
   20.8073  -11.7344  -20.8758 O   0  0  0  0  0  0  0  0  0  0  0  0
   17.9413   -9.7935  -15.8495 C   0  0  0  0  0  0  0  0  0  0  0  0
   16.6829   -9.6530  -15.9828 O   0  0  0  0  0  0  0  0  0  0  0  0
   19.7346   -9.7893  -20.5498 O   0  0  0  0  0  0  0  0  0  0  0  0
   18.6684   -8.8921  -15.0587 N   0  0  0  0  0  0  0  0  0  0  0  0
   17.9481   -7.8172  -14.3306 C   0  0  1  0  0  0  0  0  0  0  0  0
   18.2498   -7.9686  -12.8561 C   0  0  0  0  0  0  0  0  0  0  0  0
   17.5478   -9.0530  -12.1743 C   0  0  0  0  0  0  0  0  0  0  0  0
   16.6308   -9.9790  -12.6539 C   0  0  0  0  0  0  0  0  0  0  0  0
   16.2581  -10.7359  -11.6323 N   0  0  0  0  0  0  0  0  0  0  0  0
   16.8921  -10.3384  -10.5250 C   0  0  0  0  0  0  0  0  0  0  0  0
   17.6713   -9.3197  -10.8590 N   0  0  0  0  0  0  0  0  0  0  0  0
   18.3658   -6.5278  -14.8903 C   0  0  0  0  0  0  0  0  0  0  0  0
   19.5708   -6.3704  -15.2392 O   0  0  0  0  0  0  0  0  0  0  0  0
   17.5239   -5.4040  -15.0892 N   0  0  0  0  0  0  0  0  0  0  0  0
   18.0151   -4.1886  -15.7028 C   0  0  0  0  0  0  0  0  0  0  0  0
   16.9673   -3.1475  -15.7938 C   0  0  0  0  0  0  0  0  0  0  0  0
   17.2236   -1.8455  -16.1733 O   0  0  0  0  0  0  0  0  0  0  0  0
   15.7855   -3.4505  -15.5151 O   0  0  0  0  0  0  0  0  0  0  0  0
  2  1  1  6
  3  2  1  0
  4  5  1  0
  4  3  1  0
  5  9  1  0
  6  5  2  0
  7  2  1  0
  7 10  1  0
  8  7  2  0
 11 10  1  0
 11 18  1  0
 12 13  1  0
 11 12  1  1
 13 14  2  0
 14 15  1  0
 16 15  1  0
 17 13  1  0
 17 16  2  0
 18 20  1  0
 18 19  2  0
 20 21  1  0
 22 21  1  0
 22 23  1  0
 24 22  2  0
M  END
$$$$
