EHG.pdb
     RDKit          3D

 24 24  0  0  1  0  0  0  0  0999 V2000
   22.0475  -11.3799  -19.0641 N   0  0  0  0  0  0  0  0  0  0  0  0
   22.1913  -10.8740  -17.7460 C   0  0  1  0  0  0  0  0  0  0  0  0
   23.5372  -10.2815  -17.5264 C   0  0  0  0  0  0  0  0  0  0  0  0
   24.6896  -11.2425  -17.6459 C   0  0  0  0  0  0  0  0  0  0  0  0
   25.6481  -11.1322  -16.5234 C   0  0  0  0  0  0  0  0  0  0  0  0
   26.3386  -10.0786  -16.3176 O   0  0  0  0  0  0  0  0  0  0  0  0
   21.1371   -9.8939  -17.3728 C   0  0  0  0  0  0  0  0  0  0  0  0
   20.8114   -9.0578  -18.2761 O   0  0  0  0  0  0  0  0  0  0  0  0
   25.8687  -12.1582  -15.6142 O   0  0  0  0  0  0  0  0  0  0  0  0
   20.5107   -9.8522  -16.1188 N   0  0  0  0  0  0  0  0  0  0  0  0
   19.4596   -8.8352  -15.8636 C   0  0  1  0  0  0  0  0  0  0  0  0
   18.2177   -9.5561  -15.3883 C   0  0  0  0  0  0  0  0  0  0  0  0
   17.0476   -8.7139  -15.1532 C   0  0  0  0  0  0  0  0  0  0  0  0
   16.8579   -7.3530  -15.3541 C   0  0  0  0  0  0  0  0  0  0  0  0
   15.6292   -7.0593  -14.9549 N   0  0  0  0  0  0  0  0  0  0  0  0
   15.0259   -8.1654  -14.5094 C   0  0  0  0  0  0  0  0  0  0  0  0
   15.8891   -9.1637  -14.6318 N   0  0  0  0  0  0  0  0  0  0  0  0
   19.9870   -7.8662  -14.8975 C   0  0  0  0  0  0  0  0  0  0  0  0
   19.2073   -6.9998  -14.4075 O   0  0  0  0  0  0  0  0  0  0  0  0
   21.3280   -7.8046  -14.4402 N   0  0  0  0  0  0  0  0  0  0  0  0
   21.7675   -6.7795  -13.5177 C   0  0  0  0  0  0  0  0  0  0  0  0
   22.0399   -5.4951  -14.2005 C   0  0  0  0  0  0  0  0  0  0  0  0
   22.6553   -4.4247  -13.5838 O   0  0  0  0  0  0  0  0  0  0  0  0
   21.6997   -5.3604  -15.3973 O   0  0  0  0  0  0  0  0  0  0  0  0
  2  1  1  6
  3  2  1  0
  4  5  1  0
  4  3  1  0
  5  9  1  0
  6  5  2  0
  7  2  1  0
  7 10  1  0
  8  7  2  0
 11 10  1  0
 11 18  1  0
 12 13  1  0
 11 12  1  1
 13 14  2  0
 14 15  1  0
 16 15  1  0
 17 13  1  0
 17 16  2  0
 18 20  1  0
 18 19  2  0
 20 21  1  0
 22 21  1  0
 22 23  1  0
 24 22  2  0
M  END
$$$$
