MLH.pdb
     RDKit          3D

 27 27  0  0  1  0  0  0  0  0999 V2000
    6.5393  -20.4962   24.5661 C   0  0  0  0  0  0  0  0  0  0  0  0
    7.4938  -20.5195   23.0404 S   0  0  0  0  0  0  0  0  0  0  0  0
    7.9581  -18.8637   22.4979 C   0  0  0  0  0  0  0  0  0  0  0  0
    6.7213  -17.9818   22.3113 C   0  0  0  0  0  0  0  0  0  0  0  0
    7.1944  -16.6447   21.8045 C   0  0  2  0  0  0  0  0  0  0  0  0
    8.1886  -16.8821   20.7745 N   0  0  0  0  0  0  0  0  0  0  0  0
    7.8650  -15.8791   22.8906 C   0  0  0  0  0  0  0  0  0  0  0  0
    9.1149  -15.7541   22.9611 O   0  0  0  0  0  0  0  0  0  0  0  0
    6.3150  -12.0415   27.6817 C   0  0  0  0  0  0  0  0  0  0  0  0
    7.2775  -12.6901   26.7638 C   0  0  2  0  0  0  0  0  0  0  0  0
    8.1265  -11.5792   26.1206 C   0  0  0  0  0  0  0  0  0  0  0  0
    6.7553  -13.5053   25.6640 C   0  0  0  0  0  0  0  0  0  0  0  0
    7.6785  -14.4338   24.9539 C   0  0  2  0  0  0  0  0  0  0  0  0
    7.1020  -15.2338   23.9305 N   0  0  0  0  0  0  0  0  0  0  0  0
    8.5204  -15.2441   25.8573 C   0  0  0  0  0  0  0  0  0  0  0  0
    7.9722  -16.2024   26.4459 O   0  0  0  0  0  0  0  0  0  0  0  0
    9.8942  -15.0136   26.1013 N   0  0  0  0  0  0  0  0  0  0  0  0
   10.6560  -15.9552   26.9356 C   0  0  1  0  0  0  0  0  0  0  0  0
   12.1017  -15.7719   26.5054 C   0  0  0  0  0  0  0  0  0  0  0  0
   12.2901  -16.3492   25.1594 C   0  0  0  0  0  0  0  0  0  0  0  0
   11.4439  -17.0770   24.3759 C   0  0  0  0  0  0  0  0  0  0  0  0
   12.1003  -17.3736   23.2451 N   0  0  0  0  0  0  0  0  0  0  0  0
   13.3187  -16.8544   23.3066 C   0  0  0  0  0  0  0  0  0  0  0  0
   13.4459  -16.2273   24.4697 N   0  0  0  0  0  0  0  0  0  0  0  0
   10.4592  -15.5810   28.3363 C   0  0  0  0  0  0  0  0  0  0  0  0
   10.6723  -16.4922   29.3898 O   0  0  0  0  0  0  0  0  0  0  0  0
   10.0901  -14.4235   28.6289 O   0  0  0  0  0  0  0  0  0  0  0  0
  2  1  1  0
  3  2  1  0
  4  3  1  0
  4  5  1  0
  5  7  1  0
  5  6  1  6
  7  8  2  0
 10  9  1  6
 11 10  1  0
 13 12  1  1
 12 10  1  0
 14  7  1  0
 14 13  1  0
 15 16  2  0
 15 13  1  0
 17 15  1  0
 18 25  1  0
 18 17  1  0
 18 19  1  6
 20 19  1  0
 21 20  2  0
 22 21  1  0
 23 22  1  0
 23 24  2  0
 24 20  1  0
 25 26  1  0
 27 25  2  0
M  END
$$$$
