MLH.pdb
     RDKit          3D

 27 27  0  0  1  0  0  0  0  0999 V2000
   10.7169  -15.1592   28.4575 C   0  0  0  0  0  0  0  0  0  0  0  0
    9.7983  -13.6311   28.7037 S   0  0  0  0  0  0  0  0  0  0  0  0
    8.4319  -13.4585   27.5397 C   0  0  0  0  0  0  0  0  0  0  0  0
    8.5843  -14.4317   26.3685 C   0  0  0  0  0  0  0  0  0  0  0  0
    7.4131  -14.2134   25.4469 C   0  0  2  0  0  0  0  0  0  0  0  0
    6.2156  -14.6680   26.1286 N   0  0  0  0  0  0  0  0  0  0  0  0
    7.5539  -15.0370   24.2151 C   0  0  0  0  0  0  0  0  0  0  0  0
    7.0124  -16.1655   24.0876 O   0  0  0  0  0  0  0  0  0  0  0  0
    6.3665  -13.3917   20.5031 C   0  0  0  0  0  0  0  0  0  0  0  0
    7.8454  -13.3558   20.5353 C   0  0  2  0  0  0  0  0  0  0  0  0
    8.3217  -12.6739   19.2405 C   0  0  0  0  0  0  0  0  0  0  0  0
    8.5744  -14.6232   20.6315 C   0  0  0  0  0  0  0  0  0  0  0  0
    8.5831  -15.3528   21.9299 C   0  0  2  0  0  0  0  0  0  0  0  0
    8.3298  -14.5737   23.0912 N   0  0  0  0  0  0  0  0  0  0  0  0
    9.7605  -16.2249   22.1160 C   0  0  0  0  0  0  0  0  0  0  0  0
    9.9308  -17.1435   21.2839 O   0  0  0  0  0  0  0  0  0  0  0  0
   10.7027  -16.0944   23.1626 N   0  0  0  0  0  0  0  0  0  0  0  0
   11.7523  -17.1106   23.3315 C   0  0  1  0  0  0  0  0  0  0  0  0
   13.0540  -16.3269   23.3314 C   0  0  0  0  0  0  0  0  0  0  0  0
   13.2894  -15.7666   21.9855 C   0  0  0  0  0  0  0  0  0  0  0  0
   12.9832  -16.2572   20.7504 C   0  0  0  0  0  0  0  0  0  0  0  0
   13.4221  -15.3695   19.8467 N   0  0  0  0  0  0  0  0  0  0  0  0
   13.9867  -14.3522   20.4825 C   0  0  0  0  0  0  0  0  0  0  0  0
   13.9117  -14.5835   21.7875 N   0  0  0  0  0  0  0  0  0  0  0  0
   11.5292  -17.7840   24.6112 C   0  0  0  0  0  0  0  0  0  0  0  0
   10.4050  -17.5073   25.4147 O   0  0  0  0  0  0  0  0  0  0  0  0
   12.3487  -18.6327   25.0231 O   0  0  0  0  0  0  0  0  0  0  0  0
  2  1  1  0
  3  2  1  0
  4  3  1  0
  4  5  1  0
  5  7  1  0
  5  6  1  1
  7  8  2  0
 10  9  1  6
 11 10  1  0
 13 12  1  6
 12 10  1  0
 14  7  1  0
 14 13  1  0
 15 16  2  0
 15 13  1  0
 17 15  1  0
 18 25  1  0
 18 17  1  0
 18 19  1  1
 20 19  1  0
 21 20  2  0
 22 21  1  0
 23 22  1  0
 23 24  2  0
 24 20  1  0
 25 26  1  0
 27 25  2  0
M  END
$$$$
