MLH.pdb
     RDKit          3D

 27 27  0  0  1  0  0  0  0  0999 V2000
    8.2263  -11.7580   18.7034 C   0  0  0  0  0  0  0  0  0  0  0  0
    7.7535  -13.3306   17.9669 S   0  0  0  0  0  0  0  0  0  0  0  0
    8.1885  -14.7344   19.0119 C   0  0  0  0  0  0  0  0  0  0  0  0
    8.4877  -14.2801   20.4423 C   0  0  0  0  0  0  0  0  0  0  0  0
    8.9296  -15.4940   21.2167 C   0  0  2  0  0  0  0  0  0  0  0  0
    7.8638  -16.4769   21.1558 N   0  0  0  0  0  0  0  0  0  0  0  0
    9.1306  -15.1562   22.6524 C   0  0  0  0  0  0  0  0  0  0  0  0
   10.1405  -14.5312   23.0677 O   0  0  0  0  0  0  0  0  0  0  0  0
    5.9572  -12.9892   27.2159 C   0  0  0  0  0  0  0  0  0  0  0  0
    7.1884  -13.5898   26.6564 C   0  0  2  0  0  0  0  0  0  0  0  0
    7.9672  -12.4714   25.9415 C   0  0  0  0  0  0  0  0  0  0  0  0
    7.0571  -14.6870   25.6941 C   0  0  0  0  0  0  0  0  0  0  0  0
    8.2820  -15.2142   25.0309 C   0  0  2  0  0  0  0  0  0  0  0  0
    8.1623  -15.5352   23.6516 N   0  0  0  0  0  0  0  0  0  0  0  0
    8.9436  -16.3026   25.7788 C   0  0  0  0  0  0  0  0  0  0  0  0
    8.5204  -16.5463   26.9307 O   0  0  0  0  0  0  0  0  0  0  0  0
   10.0150  -17.0834   25.2865 N   0  0  0  0  0  0  0  0  0  0  0  0
   10.5370  -18.1980   26.0915 C   0  0  1  0  0  0  0  0  0  0  0  0
   11.0172  -19.2192   25.0742 C   0  0  0  0  0  0  0  0  0  0  0  0
    9.8885  -19.6195   24.2102 C   0  0  0  0  0  0  0  0  0  0  0  0
    8.7381  -20.2913   24.5021 C   0  0  0  0  0  0  0  0  0  0  0  0
    8.0457  -20.4146   23.3606 N   0  0  0  0  0  0  0  0  0  0  0  0
    8.7298  -19.8432   22.3791 C   0  0  0  0  0  0  0  0  0  0  0  0
    9.8555  -19.3548   22.8854 N   0  0  0  0  0  0  0  0  0  0  0  0
   11.6406  -17.6899   26.9070 C   0  0  0  0  0  0  0  0  0  0  0  0
   12.2304  -18.4604   27.9288 O   0  0  0  0  0  0  0  0  0  0  0  0
   12.0877  -16.5401   26.7083 O   0  0  0  0  0  0  0  0  0  0  0  0
  2  1  1  0
  3  2  1  0
  4  3  1  0
  4  5  1  0
  5  7  1  0
  5  6  1  1
  7  8  2  0
 10  9  1  6
 11 10  1  0
 13 12  1  1
 12 10  1  0
 14  7  1  0
 14 13  1  0
 15 16  2  0
 15 13  1  0
 17 15  1  0
 18 25  1  0
 18 17  1  0
 18 19  1  6
 20 19  1  0
 21 20  2  0
 22 21  1  0
 23 22  1  0
 23 24  2  0
 24 20  1  0
 25 26  1  0
 27 25  2  0
M  END
$$$$
