MLH.pdb
     RDKit          3D

 27 27  0  0  1  0  0  0  0  0999 V2000
    8.6851  -11.4762   20.0408 C   0  0  0  0  0  0  0  0  0  0  0  0
    7.4794  -12.6089   19.3317 S   0  0  0  0  0  0  0  0  0  0  0  0
    8.0938  -14.3025   19.2543 C   0  0  0  0  0  0  0  0  0  0  0  0
    9.2872  -14.4953   20.1927 C   0  0  0  0  0  0  0  0  0  0  0  0
    8.9824  -15.6806   21.0706 C   0  0  2  0  0  0  0  0  0  0  0  0
    7.5717  -15.9907   20.9308 N   0  0  0  0  0  0  0  0  0  0  0  0
    9.2165  -15.3475   22.5022 C   0  0  0  0  0  0  0  0  0  0  0  0
   10.3413  -14.9947   22.9419 O   0  0  0  0  0  0  0  0  0  0  0  0
    6.1542  -12.9283   27.3265 C   0  0  0  0  0  0  0  0  0  0  0  0
    7.3175  -13.6142   26.7216 C   0  0  2  0  0  0  0  0  0  0  0  0
    8.4678  -12.5950   26.6423 C   0  0  0  0  0  0  0  0  0  0  0  0
    7.1733  -14.1853   25.3800 C   0  0  0  0  0  0  0  0  0  0  0  0
    8.2826  -15.0098   24.8249 C   0  0  2  0  0  0  0  0  0  0  0  0
    8.1485  -15.4142   23.4691 N   0  0  0  0  0  0  0  0  0  0  0  0
    8.6709  -16.1448   25.6866 C   0  0  0  0  0  0  0  0  0  0  0  0
    7.7515  -16.8657   26.1341 O   0  0  0  0  0  0  0  0  0  0  0  0
   10.0012  -16.4711   26.0386 N   0  0  0  0  0  0  0  0  0  0  0  0
   10.2610  -17.5977   26.9477 C   0  0  1  0  0  0  0  0  0  0  0  0
   11.5164  -18.2557   26.4005 C   0  0  0  0  0  0  0  0  0  0  0  0
   11.2158  -18.8766   25.0948 C   0  0  0  0  0  0  0  0  0  0  0  0
   10.0578  -18.9226   24.3759 C   0  0  0  0  0  0  0  0  0  0  0  0
   10.3074  -19.6206   23.2588 N   0  0  0  0  0  0  0  0  0  0  0  0
   11.5763  -20.0047   23.2664 C   0  0  0  0  0  0  0  0  0  0  0  0
   12.1404  -19.5567   24.3814 N   0  0  0  0  0  0  0  0  0  0  0  0
   10.4777  -17.0563   28.2896 C   0  0  0  0  0  0  0  0  0  0  0  0
   10.4495  -17.8727   29.4379 O   0  0  0  0  0  0  0  0  0  0  0  0
   10.6950  -15.8354   28.4443 O   0  0  0  0  0  0  0  0  0  0  0  0
  2  1  1  0
  3  2  1  0
  4  3  1  0
  4  5  1  0
  5  7  1  0
  5  6  1  1
  7  8  2  0
 10  9  1  6
 11 10  1  0
 13 12  1  1
 12 10  1  0
 14  7  1  0
 14 13  1  0
 15 16  2  0
 15 13  1  0
 17 15  1  0
 18 25  1  0
 18 17  1  0
 18 19  1  6
 20 19  1  0
 21 20  2  0
 22 21  1  0
 23 22  1  0
 23 24  2  0
 24 20  1  0
 25 26  1  0
 27 25  2  0
M  END
$$$$
