MLH.pdb
     RDKit          3D

 27 27  0  0  1  0  0  0  0  0999 V2000
    3.7696  -20.1506   23.0294 C   0  0  0  0  0  0  0  0  0  0  0  0
    2.8523  -20.1383   21.4809 S   0  0  0  0  0  0  0  0  0  0  0  0
    3.7274  -19.2569   20.1737 C   0  0  0  0  0  0  0  0  0  0  0  0
    5.1094  -18.8033   20.6495 C   0  0  0  0  0  0  0  0  0  0  0  0
    5.7451  -18.0367   19.5196 C   0  0  2  0  0  0  0  0  0  0  0  0
    6.0596  -18.9777   18.4607 N   0  0  0  0  0  0  0  0  0  0  0  0
    7.0301  -17.4260   19.9571 C   0  0  0  0  0  0  0  0  0  0  0  0
    8.1354  -18.0162   19.8438 O   0  0  0  0  0  0  0  0  0  0  0  0
    8.5140  -12.9542   18.9528 C   0  0  0  0  0  0  0  0  0  0  0  0
    7.6818  -13.1336   20.1632 C   0  0  2  0  0  0  0  0  0  0  0  0
    7.4754  -11.7454   20.7947 C   0  0  0  0  0  0  0  0  0  0  0  0
    8.1772  -14.0073   21.2300 C   0  0  0  0  0  0  0  0  0  0  0  0
    8.2637  -15.4729   20.9791 C   0  0  2  0  0  0  0  0  0  0  0  0
    7.0702  -16.1079   20.5409 N   0  0  0  0  0  0  0  0  0  0  0  0
    8.9012  -16.2291   22.0760 C   0  0  0  0  0  0  0  0  0  0  0  0
    8.2036  -16.4726   23.0856 O   0  0  0  0  0  0  0  0  0  0  0  0
   10.2368  -16.6940   22.0644 N   0  0  0  0  0  0  0  0  0  0  0  0
   10.7614  -17.4381   23.2194 C   0  0  1  0  0  0  0  0  0  0  0  0
   11.7958  -18.3843   22.6335 C   0  0  0  0  0  0  0  0  0  0  0  0
   11.1205  -19.3811   21.7786 C   0  0  0  0  0  0  0  0  0  0  0  0
   10.0245  -20.1584   22.0120 C   0  0  0  0  0  0  0  0  0  0  0  0
    9.8246  -20.9078   20.9185 N   0  0  0  0  0  0  0  0  0  0  0  0
   10.7584  -20.6188   20.0228 C   0  0  0  0  0  0  0  0  0  0  0  0
   11.5545  -19.6889   20.5363 N   0  0  0  0  0  0  0  0  0  0  0  0
   11.3706  -16.4766   24.1389 C   0  0  0  0  0  0  0  0  0  0  0  0
   11.8657  -16.8607   25.4011 O   0  0  0  0  0  0  0  0  0  0  0  0
   11.4634  -15.2732   23.8149 O   0  0  0  0  0  0  0  0  0  0  0  0
  2  1  1  0
  3  2  1  0
  4  3  1  0
  4  5  1  0
  5  7  1  0
  5  6  1  6
  7  8  2  0
 10  9  1  6
 11 10  1  0
 13 12  1  1
 12 10  1  0
 14  7  1  0
 14 13  1  0
 15 16  2  0
 15 13  1  0
 17 15  1  0
 18 25  1  0
 18 17  1  0
 18 19  1  6
 20 19  1  0
 21 20  2  0
 22 21  1  0
 23 22  1  0
 23 24  2  0
 24 20  1  0
 25 26  1  0
 27 25  2  0
M  END
$$$$
