MLH.pdb
     RDKit          3D

 27 27  0  0  1  0  0  0  0  0999 V2000
    8.8125  -11.9416   18.7302 C   0  0  0  0  0  0  0  0  0  0  0  0
    7.2275  -12.7888   18.8261 S   0  0  0  0  0  0  0  0  0  0  0  0
    7.3193  -14.3054   19.7972 C   0  0  0  0  0  0  0  0  0  0  0  0
    8.5927  -14.3359   20.6456 C   0  0  0  0  0  0  0  0  0  0  0  0
    8.6076  -15.6466   21.3876 C   0  0  2  0  0  0  0  0  0  0  0  0
    7.2579  -16.1795   21.3831 N   0  0  0  0  0  0  0  0  0  0  0  0
    8.9907  -15.4397   22.8109 C   0  0  0  0  0  0  0  0  0  0  0  0
   10.1800  -15.2454   23.1724 O   0  0  0  0  0  0  0  0  0  0  0  0
    8.3697  -12.1095   25.9777 C   0  0  0  0  0  0  0  0  0  0  0  0
    7.1925  -12.9665   25.7143 C   0  0  2  0  0  0  0  0  0  0  0  0
    6.0331  -12.4414   26.5794 C   0  0  0  0  0  0  0  0  0  0  0  0
    7.2976  -14.4026   25.9853 C   0  0  0  0  0  0  0  0  0  0  0  0
    8.2967  -15.2074   25.2286 C   0  0  2  0  0  0  0  0  0  0  0  0
    8.0014  -15.4522   23.8602 N   0  0  0  0  0  0  0  0  0  0  0  0
    8.7091  -16.4469   25.9179 C   0  0  0  0  0  0  0  0  0  0  0  0
    7.8014  -17.1932   26.3473 O   0  0  0  0  0  0  0  0  0  0  0  0
   10.0499  -16.8463   26.1245 N   0  0  0  0  0  0  0  0  0  0  0  0
   10.3369  -18.1428   26.7567 C   0  0  1  0  0  0  0  0  0  0  0  0
   11.7394  -18.4982   26.2927 C   0  0  0  0  0  0  0  0  0  0  0  0
   11.7303  -18.7280   24.8340 C   0  0  0  0  0  0  0  0  0  0  0  0
   10.6922  -18.8516   23.9583 C   0  0  0  0  0  0  0  0  0  0  0  0
   11.2167  -19.0640   22.7428 N   0  0  0  0  0  0  0  0  0  0  0  0
   12.5388  -19.0755   22.8412 C   0  0  0  0  0  0  0  0  0  0  0  0
   12.8636  -18.8716   24.1120 N   0  0  0  0  0  0  0  0  0  0  0  0
   10.2790  -17.9621   28.2075 C   0  0  0  0  0  0  0  0  0  0  0  0
   10.3351  -19.0522   29.0987 O   0  0  0  0  0  0  0  0  0  0  0  0
   10.1757  -16.8147   28.6916 O   0  0  0  0  0  0  0  0  0  0  0  0
  2  1  1  0
  3  2  1  0
  4  3  1  0
  4  5  1  0
  5  7  1  0
  5  6  1  1
  7  8  2  0
 10  9  1  1
 11 10  1  0
 13 12  1  1
 12 10  1  0
 14  7  1  0
 14 13  1  0
 15 16  2  0
 15 13  1  0
 17 15  1  0
 18 25  1  0
 18 17  1  0
 18 19  1  1
 20 19  1  0
 21 20  2  0
 22 21  1  0
 23 22  1  0
 23 24  2  0
 24 20  1  0
 25 26  1  0
 27 25  2  0
M  END
$$$$
