MLH.pdb
     RDKit          3D

 27 27  0  0  1  0  0  0  0  0999 V2000
    6.4838  -18.7810   24.5647 C   0  0  0  0  0  0  0  0  0  0  0  0
    7.0860  -19.7450   23.1692 S   0  0  0  0  0  0  0  0  0  0  0  0
    7.2473  -18.7542   21.6712 C   0  0  0  0  0  0  0  0  0  0  0  0
    8.4228  -17.7807   21.7827 C   0  0  0  0  0  0  0  0  0  0  0  0
    7.8520  -16.3871   21.8079 C   0  0  2  0  0  0  0  0  0  0  0  0
    8.2350  -15.7237   20.5755 N   0  0  0  0  0  0  0  0  0  0  0  0
    8.4374  -15.6002   22.9276 C   0  0  0  0  0  0  0  0  0  0  0  0
    9.6039  -15.1305   22.8900 O   0  0  0  0  0  0  0  0  0  0  0  0
    7.8096  -11.5537   25.1716 C   0  0  0  0  0  0  0  0  0  0  0  0
    6.8289  -12.6161   25.4863 C   0  0  2  0  0  0  0  0  0  0  0  0
    5.8086  -12.0275   26.4768 C   0  0  0  0  0  0  0  0  0  0  0  0
    7.3152  -13.8637   26.0810 C   0  0  0  0  0  0  0  0  0  0  0  0
    8.2340  -14.7289   25.2899 C   0  0  2  0  0  0  0  0  0  0  0  0
    7.6835  -15.3345   24.1280 N   0  0  0  0  0  0  0  0  0  0  0  0
    8.9777  -15.7108   26.1048 C   0  0  0  0  0  0  0  0  0  0  0  0
    9.4940  -15.3000   27.1678 O   0  0  0  0  0  0  0  0  0  0  0  0
    9.1454  -17.0745   25.7694 N   0  0  0  0  0  0  0  0  0  0  0  0
    9.9007  -17.9604   26.6680 C   0  0  1  0  0  0  0  0  0  0  0  0
    9.6231  -19.3627   26.1531 C   0  0  0  0  0  0  0  0  0  0  0  0
    8.3900  -19.8802   26.7794 C   0  0  0  0  0  0  0  0  0  0  0  0
    7.9439  -19.8021   28.0658 C   0  0  0  0  0  0  0  0  0  0  0  0
    6.7692  -20.4460   28.1222 N   0  0  0  0  0  0  0  0  0  0  0  0
    6.4787  -20.9165   26.9171 C   0  0  0  0  0  0  0  0  0  0  0  0
    7.4601  -20.5776   26.0900 N   0  0  0  0  0  0  0  0  0  0  0  0
   11.3185  -17.6165   26.5567 C   0  0  0  0  0  0  0  0  0  0  0  0
   11.7817  -16.6419   25.6503 O   0  0  0  0  0  0  0  0  0  0  0  0
   12.1609  -18.1935   27.2771 O   0  0  0  0  0  0  0  0  0  0  0  0
  2  1  1  0
  3  2  1  0
  4  3  1  0
  4  5  1  0
  5  7  1  0
  5  6  1  6
  7  8  2  0
 10  9  1  1
 11 10  1  0
 13 12  1  1
 12 10  1  0
 14  7  1  0
 14 13  1  0
 15 16  2  0
 15 13  1  0
 17 15  1  0
 18 25  1  0
 18 17  1  0
 18 19  1  6
 20 19  1  0
 21 20  2  0
 22 21  1  0
 23 22  1  0
 23 24  2  0
 24 20  1  0
 25 26  1  0
 27 25  2  0
M  END
$$$$
