MLH.pdb
     RDKit          3D

 27 27  0  0  1  0  0  0  0  0999 V2000
    8.4256  -20.3240   20.2664 C   0  0  0  0  0  0  0  0  0  0  0  0
    6.9883  -19.4610   19.6116 S   0  0  0  0  0  0  0  0  0  0  0  0
    7.2115  -17.6716   19.5980 C   0  0  0  0  0  0  0  0  0  0  0  0
    7.8933  -17.1953   20.8827 C   0  0  0  0  0  0  0  0  0  0  0  0
    7.9645  -15.6920   20.8234 C   0  0  2  0  0  0  0  0  0  0  0  0
    8.9517  -15.3291   19.8237 N   0  0  0  0  0  0  0  0  0  0  0  0
    8.4339  -15.1371   22.1224 C   0  0  0  0  0  0  0  0  0  0  0  0
    9.6530  -15.0333   22.4153 O   0  0  0  0  0  0  0  0  0  0  0  0
    6.1007  -12.2758   27.2479 C   0  0  0  0  0  0  0  0  0  0  0  0
    7.1990  -12.8895   26.4691 C   0  0  2  0  0  0  0  0  0  0  0  0
    8.3577  -11.8777   26.4236 C   0  0  0  0  0  0  0  0  0  0  0  0
    6.9375  -13.2865   25.0831 C   0  0  0  0  0  0  0  0  0  0  0  0
    7.8815  -14.2223   24.4112 C   0  0  2  0  0  0  0  0  0  0  0  0
    7.4990  -14.6848   23.1230 N   0  0  0  0  0  0  0  0  0  0  0  0
    8.3280  -15.3377   25.2703 C   0  0  0  0  0  0  0  0  0  0  0  0
    7.4567  -16.1486   25.6560 O   0  0  0  0  0  0  0  0  0  0  0  0
    9.6632  -15.5515   25.6844 N   0  0  0  0  0  0  0  0  0  0  0  0
    9.9832  -16.6882   26.5610 C   0  0  1  0  0  0  0  0  0  0  0  0
   11.3555  -17.1547   26.1054 C   0  0  0  0  0  0  0  0  0  0  0  0
   11.2245  -17.9001   24.8374 C   0  0  0  0  0  0  0  0  0  0  0  0
   10.1194  -18.2412   24.1148 C   0  0  0  0  0  0  0  0  0  0  0  0
   10.5382  -18.9296   23.0432 N   0  0  0  0  0  0  0  0  0  0  0  0
   11.8601  -19.0235   23.0824 C   0  0  0  0  0  0  0  0  0  0  0  0
   12.2898  -18.3992   24.1723 N   0  0  0  0  0  0  0  0  0  0  0  0
   10.0100  -16.2025   27.9410 C   0  0  0  0  0  0  0  0  0  0  0  0
   10.0016  -17.0815   29.0424 O   0  0  0  0  0  0  0  0  0  0  0  0
   10.0403  -14.9748   28.1718 O   0  0  0  0  0  0  0  0  0  0  0  0
  2  1  1  0
  3  2  1  0
  4  3  1  0
  4  5  1  0
  5  7  1  0
  5  6  1  6
  7  8  2  0
 10  9  1  6
 11 10  1  0
 13 12  1  1
 12 10  1  0
 14  7  1  0
 14 13  1  0
 15 16  2  0
 15 13  1  0
 17 15  1  0
 18 25  1  0
 18 17  1  0
 18 19  1  6
 20 19  1  0
 21 20  2  0
 22 21  1  0
 23 22  1  0
 23 24  2  0
 24 20  1  0
 25 26  1  0
 27 25  2  0
M  END
$$$$
