YPS.pdb
     RDKit          3D

 26 27  0  0  1  0  0  0  0  0999 V2000
    5.8325  -10.1721   27.0982 O   0  0  0  0  0  0  0  0  0  0  0  0
    6.3002  -11.4102   26.7050 C   0  0  0  0  0  0  0  0  0  0  0  0
    5.5496  -12.5484   26.9861 C   0  0  0  0  0  0  0  0  0  0  0  0
    6.0614  -13.7573   26.5722 C   0  0  0  0  0  0  0  0  0  0  0  0
    7.2684  -13.9016   25.8990 C   0  0  0  0  0  0  0  0  0  0  0  0
    7.7770  -15.2124   25.4600 C   0  0  0  0  0  0  0  0  0  0  0  0
    6.8760  -15.8480   24.4146 C   0  0  2  0  0  0  0  0  0  0  0  0
    5.9784  -16.7459   25.0674 N   0  0  0  0  0  0  0  0  0  0  0  0
    7.6427  -16.3824   23.2868 C   0  0  0  0  0  0  0  0  0  0  0  0
    8.2822  -17.4667   23.5944 O   0  0  0  0  0  0  0  0  0  0  0  0
    7.9646  -12.7115   25.6530 C   0  0  0  0  0  0  0  0  0  0  0  0
    7.4984  -11.4983   26.0428 C   0  0  0  0  0  0  0  0  0  0  0  0
    7.7771  -15.9111   21.9840 N   0  0  0  0  0  0  0  0  0  0  0  0
    6.6908  -15.2660   21.1871 C   0  0  0  0  0  0  0  0  0  0  0  0
    7.4056  -13.9525   20.8743 C   0  0  0  0  0  0  0  0  0  0  0  0
    8.9001  -14.3151   20.8319 C   0  0  0  0  0  0  0  0  0  0  0  0
    8.8358  -15.8289   21.0171 C   0  0  1  0  0  0  0  0  0  0  0  0
   10.1048  -16.4481   21.2367 C   0  0  0  0  0  0  0  0  0  0  0  0
   10.9466  -16.1177   22.0981 O   0  0  0  0  0  0  0  0  0  0  0  0
   10.8395  -20.3737   20.5266 O   0  0  0  0  0  0  0  0  0  0  0  0
   11.7138  -19.5489   19.8481 C   0  0  0  0  0  0  0  0  0  0  0  0
   11.8107  -18.1831   20.5321 C   0  0  2  0  0  0  0  0  0  0  0  0
   10.5210  -17.5708   20.4197 N   0  0  0  0  0  0  0  0  0  0  0  0
   12.9018  -17.3798   19.9974 C   0  0  0  0  0  0  0  0  0  0  0  0
   12.7148  -16.6354   19.0128 O   0  0  0  0  0  0  0  0  0  0  0  0
   14.1559  -17.4295   20.5701 O   0  0  0  0  0  0  0  0  0  0  0  0
  1  2  1  0
  2  3  2  0
  3  4  1  0
  5  4  2  0
  5  6  1  0
  7  6  1  0
  7  8  1  1
  9  7  1  0
  9 13  1  0
 10  9  2  0
 11  5  1  0
 12  2  1  0
 12 11  2  0
 13 14  1  0
 14 15  1  0
 16 15  1  0
 17 13  1  0
 17 16  1  0
 17 18  1  1
 19 18  2  0
 20 21  1  0
 22 21  1  6
 22 24  1  0
 22 23  1  0
 23 18  1  0
 24 26  1  0
 25 24  2  0
M  END
$$$$
