YPS.pdb
     RDKit          3D

 26 27  0  0  1  0  0  0  0  0999 V2000
    6.2142  -10.4454   26.9726 O   0  0  0  0  0  0  0  0  0  0  0  0
    6.5263  -11.7623   26.6993 C   0  0  0  0  0  0  0  0  0  0  0  0
    7.8480  -12.1150   26.4414 C   0  0  0  0  0  0  0  0  0  0  0  0
    8.1045  -13.4408   26.1748 C   0  0  0  0  0  0  0  0  0  0  0  0
    7.1307  -14.4318   26.1493 C   0  0  0  0  0  0  0  0  0  0  0  0
    7.4465  -15.8437   25.8727 C   0  0  0  0  0  0  0  0  0  0  0  0
    6.6676  -16.3750   24.6812 C   0  0  2  0  0  0  0  0  0  0  0  0
    5.7661  -17.3843   25.1356 N   0  0  0  0  0  0  0  0  0  0  0  0
    7.5503  -16.7292   23.5674 C   0  0  0  0  0  0  0  0  0  0  0  0
    8.3174  -17.7358   23.8463 O   0  0  0  0  0  0  0  0  0  0  0  0
    5.8263  -13.9987   26.4186 C   0  0  0  0  0  0  0  0  0  0  0  0
    5.5274  -12.7025   26.6864 C   0  0  0  0  0  0  0  0  0  0  0  0
    7.6779  -16.1621   22.3026 N   0  0  0  0  0  0  0  0  0  0  0  0
    6.5596  -15.5683   21.5102 C   0  0  0  0  0  0  0  0  0  0  0  0
    7.1564  -14.1767   21.3068 C   0  0  0  0  0  0  0  0  0  0  0  0
    8.6790  -14.3965   21.2944 C   0  0  0  0  0  0  0  0  0  0  0  0
    8.7521  -15.9187   21.3809 C   0  0  1  0  0  0  0  0  0  0  0  0
   10.0668  -16.4317   21.6056 C   0  0  0  0  0  0  0  0  0  0  0  0
   10.9173  -15.9609   22.3897 O   0  0  0  0  0  0  0  0  0  0  0  0
   10.9718  -20.3497   20.9889 O   0  0  0  0  0  0  0  0  0  0  0  0
   11.8542  -19.5038   20.3478 C   0  0  0  0  0  0  0  0  0  0  0  0
   11.8555  -18.1224   21.0067 C   0  0  2  0  0  0  0  0  0  0  0  0
   10.5247  -17.6065   20.8905 N   0  0  0  0  0  0  0  0  0  0  0  0
   12.8837  -17.2527   20.4516 C   0  0  0  0  0  0  0  0  0  0  0  0
   12.6690  -16.6096   19.4034 O   0  0  0  0  0  0  0  0  0  0  0  0
   14.1079  -17.1268   21.0751 O   0  0  0  0  0  0  0  0  0  0  0  0
  1  2  1  0
  2  3  2  0
  3  4  1  0
  5  4  2  0
  5  6  1  0
  7  6  1  0
  7  8  1  1
  9  7  1  0
  9 13  1  0
 10  9  2  0
 11  5  1  0
 12  2  1  0
 12 11  2  0
 13 14  1  0
 14 15  1  0
 16 15  1  0
 17 13  1  0
 17 16  1  0
 17 18  1  1
 19 18  2  0
 20 21  1  0
 22 21  1  6
 22 24  1  0
 22 23  1  0
 23 18  1  0
 24 26  1  0
 25 24  2  0
M  END
$$$$
