YPS.pdb
     RDKit          3D

 26 27  0  0  1  0  0  0  0  0999 V2000
    5.7633  -10.7781   27.7497 O   0  0  0  0  0  0  0  0  0  0  0  0
    6.3382  -11.7063   26.9045 C   0  0  0  0  0  0  0  0  0  0  0  0
    6.9474  -11.2787   25.7281 C   0  0  0  0  0  0  0  0  0  0  0  0
    7.5049  -12.2448   24.9216 C   0  0  0  0  0  0  0  0  0  0  0  0
    7.4930  -13.6034   25.2130 C   0  0  0  0  0  0  0  0  0  0  0  0
    8.1125  -14.6068   24.3304 C   0  0  0  0  0  0  0  0  0  0  0  0
    7.0741  -15.3750   23.5301 C   0  0  2  0  0  0  0  0  0  0  0  0
    6.4616  -16.3425   24.3826 N   0  0  0  0  0  0  0  0  0  0  0  0
    7.6161  -15.8616   22.2594 C   0  0  0  0  0  0  0  0  0  0  0  0
    8.2533  -16.9823   22.3914 O   0  0  0  0  0  0  0  0  0  0  0  0
    6.8622  -13.9544   26.4132 C   0  0  0  0  0  0  0  0  0  0  0  0
    6.2993  -13.0362   27.2386 C   0  0  0  0  0  0  0  0  0  0  0  0
    7.5473  -15.3144   20.9814 N   0  0  0  0  0  0  0  0  0  0  0  0
    6.4242  -14.4761   20.4647 C   0  0  0  0  0  0  0  0  0  0  0  0
    7.2393  -13.2459   20.0692 C   0  0  0  0  0  0  0  0  0  0  0  0
    8.6267  -13.7941   19.6931 C   0  0  0  0  0  0  0  0  0  0  0  0
    8.3871  -15.2966   19.8165 C   0  0  1  0  0  0  0  0  0  0  0  0
    9.5731  -16.0893   19.7320 C   0  0  0  0  0  0  0  0  0  0  0  0
   10.6956  -15.7865   20.1882 O   0  0  0  0  0  0  0  0  0  0  0  0
    9.1805  -19.8885   18.1420 O   0  0  0  0  0  0  0  0  0  0  0  0
   10.2090  -19.6622   19.0343 C   0  0  0  0  0  0  0  0  0  0  0  0
   10.6992  -18.2155   18.9396 C   0  0  2  0  0  0  0  0  0  0  0  0
    9.5451  -17.3774   19.0679 N   0  0  0  0  0  0  0  0  0  0  0  0
   11.4770  -17.9795   17.7308 C   0  0  0  0  0  0  0  0  0  0  0  0
   11.0084  -17.2885   16.8027 O   0  0  0  0  0  0  0  0  0  0  0  0
   12.7409  -18.5152   17.5939 O   0  0  0  0  0  0  0  0  0  0  0  0
  1  2  1  0
  2  3  2  0
  3  4  1  0
  5  4  2  0
  5  6  1  0
  7  6  1  0
  7  8  1  1
  9  7  1  0
  9 13  1  0
 10  9  2  0
 11  5  1  0
 12  2  1  0
 12 11  2  0
 13 14  1  0
 14 15  1  0
 16 15  1  0
 17 13  1  0
 17 16  1  0
 17 18  1  1
 19 18  2  0
 20 21  1  0
 22 21  1  6
 22 24  1  0
 22 23  1  0
 23 18  1  0
 24 26  1  0
 25 24  2  0
M  END
$$$$
