YPS.pdb
     RDKit          3D

 26 27  0  0  1  0  0  0  0  0999 V2000
    5.7733  -10.8052   28.5661 O   0  0  0  0  0  0  0  0  0  0  0  0
    6.3906  -11.7129   27.7286 C   0  0  0  0  0  0  0  0  0  0  0  0
    7.7637  -11.9179   27.8314 C   0  0  0  0  0  0  0  0  0  0  0  0
    8.3288  -12.8334   26.9729 C   0  0  0  0  0  0  0  0  0  0  0  0
    7.6143  -13.5536   26.0233 C   0  0  0  0  0  0  0  0  0  0  0  0
    8.2532  -14.5355   25.1304 C   0  0  0  0  0  0  0  0  0  0  0  0
    7.2654  -15.5800   24.6384 C   0  0  2  0  0  0  0  0  0  0  0  0
    6.8448  -16.3726   25.7487 N   0  0  0  0  0  0  0  0  0  0  0  0
    7.7709  -16.2984   23.4664 C   0  0  0  0  0  0  0  0  0  0  0  0
    8.2872  -17.4461   23.7757 O   0  0  0  0  0  0  0  0  0  0  0  0
    6.2390  -13.2922   25.9815 C   0  0  0  0  0  0  0  0  0  0  0  0
    5.6396  -12.3985   26.8080 C   0  0  0  0  0  0  0  0  0  0  0  0
    7.7756  -15.9393   22.1216 N   0  0  0  0  0  0  0  0  0  0  0  0
    6.5690  -15.5504   21.3317 C   0  0  0  0  0  0  0  0  0  0  0  0
    7.0514  -14.1779   20.8651 C   0  0  0  0  0  0  0  0  0  0  0  0
    8.5817  -14.3062   20.7728 C   0  0  0  0  0  0  0  0  0  0  0  0
    8.7677  -15.7868   21.0944 C   0  0  1  0  0  0  0  0  0  0  0  0
   10.1271  -16.1773   21.2978 C   0  0  0  0  0  0  0  0  0  0  0  0
   10.9846  -15.5476   21.9521 O   0  0  0  0  0  0  0  0  0  0  0  0
   13.2244  -19.1365   22.5278 O   0  0  0  0  0  0  0  0  0  0  0  0
   11.9513  -18.7087   22.2093 C   0  0  0  0  0  0  0  0  0  0  0  0
   11.9648  -17.8800   20.9226 C   0  0  2  0  0  0  0  0  0  0  0  0
   10.6280  -17.4084   20.7192 N   0  0  0  0  0  0  0  0  0  0  0  0
   12.5126  -18.6256   19.7975 C   0  0  0  0  0  0  0  0  0  0  0  0
   11.7584  -19.2681   19.0380 O   0  0  0  0  0  0  0  0  0  0  0  0
   13.8706  -18.6328   19.5550 O   0  0  0  0  0  0  0  0  0  0  0  0
  1  2  1  0
  2  3  2  0
  3  4  1  0
  5  4  2  0
  5  6  1  0
  7  6  1  0
  7  8  1  1
  9  7  1  0
  9 13  1  0
 10  9  2  0
 11  5  1  0
 12  2  1  0
 12 11  2  0
 13 14  1  0
 14 15  1  0
 16 15  1  0
 17 13  1  0
 17 16  1  0
 17 18  1  1
 19 18  2  0
 20 21  1  0
 22 21  1  1
 22 24  1  0
 22 23  1  0
 23 18  1  0
 24 26  1  0
 25 24  2  0
M  END
$$$$
