YPS.pdb
     RDKit          3D

 26 27  0  0  1  0  0  0  0  0999 V2000
    5.7090  -11.3003   28.3843 O   0  0  0  0  0  0  0  0  0  0  0  0
    6.3280  -11.9690   27.3469 C   0  0  0  0  0  0  0  0  0  0  0  0
    7.5945  -12.5134   27.5401 C   0  0  0  0  0  0  0  0  0  0  0  0
    8.1663  -13.1696   26.4737 C   0  0  0  0  0  0  0  0  0  0  0  0
    7.5574  -13.3161   25.2333 C   0  0  0  0  0  0  0  0  0  0  0  0
    8.1963  -14.0374   24.1192 C   0  0  0  0  0  0  0  0  0  0  0  0
    7.2782  -15.0942   23.5283 C   0  0  2  0  0  0  0  0  0  0  0  0
    6.9820  -16.0603   24.5367 N   0  0  0  0  0  0  0  0  0  0  0  0
    7.7846  -15.6039   22.2521 C   0  0  0  0  0  0  0  0  0  0  0  0
    8.4432  -16.7116   22.3894 O   0  0  0  0  0  0  0  0  0  0  0  0
    6.2853  -12.7418   25.1174 C   0  0  0  0  0  0  0  0  0  0  0  0
    5.6836  -12.0860   26.1416 C   0  0  0  0  0  0  0  0  0  0  0  0
    7.6643  -15.0895   20.9643 N   0  0  0  0  0  0  0  0  0  0  0  0
    6.4505  -14.4101   20.4201 C   0  0  0  0  0  0  0  0  0  0  0  0
    7.1068  -13.0917   20.0137 C   0  0  0  0  0  0  0  0  0  0  0  0
    8.5581  -13.4630   19.6636 C   0  0  0  0  0  0  0  0  0  0  0  0
    8.5113  -14.9817   19.8094 C   0  0  1  0  0  0  0  0  0  0  0  0
    9.7901  -15.6169   19.7526 C   0  0  0  0  0  0  0  0  0  0  0  0
   10.8619  -15.1563   20.1985 O   0  0  0  0  0  0  0  0  0  0  0  0
   12.3669  -19.3439   20.2277 O   0  0  0  0  0  0  0  0  0  0  0  0
   11.2085  -18.5936   20.2425 C   0  0  0  0  0  0  0  0  0  0  0  0
   11.1793  -17.6196   19.0622 C   0  0  2  0  0  0  0  0  0  0  0  0
    9.9318  -16.9197   19.1331 N   0  0  0  0  0  0  0  0  0  0  0  0
   11.4152  -18.2922   17.7920 C   0  0  0  0  0  0  0  0  0  0  0  0
   10.4753  -18.4794   16.9919 O   0  0  0  0  0  0  0  0  0  0  0  0
   12.6787  -18.7317   17.4547 O   0  0  0  0  0  0  0  0  0  0  0  0
  1  2  1  0
  2  3  2  0
  3  4  1  0
  5  4  2  0
  5  6  1  0
  7  6  1  0
  7  8  1  1
  9  7  1  0
  9 13  1  0
 10  9  2  0
 11  5  1  0
 12  2  1  0
 12 11  2  0
 13 14  1  0
 14 15  1  0
 16 15  1  0
 17 13  1  0
 17 16  1  0
 17 18  1  1
 19 18  2  0
 20 21  1  0
 22 21  1  1
 22 24  1  0
 22 23  1  0
 23 18  1  0
 24 26  1  0
 25 24  2  0
M  END
$$$$
