YPS.pdb
     RDKit          3D

 26 27  0  0  1  0  0  0  0  0999 V2000
    7.6181  -11.3122   27.0855 O   0  0  0  0  0  0  0  0  0  0  0  0
    7.3694  -12.6495   26.8488 C   0  0  0  0  0  0  0  0  0  0  0  0
    6.0559  -13.0890   26.7090 C   0  0  0  0  0  0  0  0  0  0  0  0
    5.8637  -14.4316   26.4743 C   0  0  0  0  0  0  0  0  0  0  0  0
    6.8938  -15.3586   26.3709 C   0  0  0  0  0  0  0  0  0  0  0  0
    6.6486  -16.7866   26.1056 C   0  0  0  0  0  0  0  0  0  0  0  0
    6.3603  -17.0482   24.6368 C   0  0  2  0  0  0  0  0  0  0  0  0
    5.6197  -18.2633   24.5241 N   0  0  0  0  0  0  0  0  0  0  0  0
    7.5672  -16.9303   23.8154 C   0  0  0  0  0  0  0  0  0  0  0  0
    8.4909  -17.7662   24.1724 O   0  0  0  0  0  0  0  0  0  0  0  0
    8.1858  -14.8398   26.5227 C   0  0  0  0  0  0  0  0  0  0  0  0
    8.4222  -13.5240   26.7552 C   0  0  0  0  0  0  0  0  0  0  0  0
    7.8524  -16.0828   22.7486 N   0  0  0  0  0  0  0  0  0  0  0  0
    6.8331  -15.4239   21.8781 C   0  0  0  0  0  0  0  0  0  0  0  0
    7.2712  -13.9761   22.0930 C   0  0  0  0  0  0  0  0  0  0  0  0
    8.7851  -14.0551   22.3552 C   0  0  0  0  0  0  0  0  0  0  0  0
    9.0381  -15.5453   22.1421 C   0  0  1  0  0  0  0  0  0  0  0  0
   10.3436  -15.9803   22.5274 C   0  0  0  0  0  0  0  0  0  0  0  0
   10.9482  -15.6603   23.5723 O   0  0  0  0  0  0  0  0  0  0  0  0
   12.5784  -18.2503   19.7861 O   0  0  0  0  0  0  0  0  0  0  0  0
   12.6675  -18.5782   21.1239 C   0  0  0  0  0  0  0  0  0  0  0  0
   12.4078  -17.3509   22.0006 C   0  0  2  0  0  0  0  0  0  0  0  0
   11.0961  -16.8780   21.6736 N   0  0  0  0  0  0  0  0  0  0  0  0
   13.4555  -16.3485   21.8625 C   0  0  0  0  0  0  0  0  0  0  0  0
   13.2789  -15.3450   21.1410 O   0  0  0  0  0  0  0  0  0  0  0  0
   14.6565  -16.4927   22.5258 O   0  0  0  0  0  0  0  0  0  0  0  0
  1  2  1  0
  2  3  2  0
  3  4  1  0
  5  4  2  0
  5  6  1  0
  7  6  1  0
  7  8  1  1
  9  7  1  0
  9 13  1  0
 10  9  2  0
 11  5  1  0
 12  2  1  0
 12 11  2  0
 13 14  1  0
 14 15  1  0
 16 15  1  0
 17 13  1  0
 17 16  1  0
 17 18  1  1
 19 18  2  0
 20 21  1  0
 22 21  1  6
 22 24  1  0
 22 23  1  0
 23 18  1  0
 24 26  1  0
 25 24  2  0
M  END
$$$$
