YPS.pdb
     RDKit          3D

 26 27  0  0  1  0  0  0  0  0999 V2000
    5.9793  -10.6189   27.6532 O   0  0  0  0  0  0  0  0  0  0  0  0
    6.4816  -11.6803   26.9270 C   0  0  0  0  0  0  0  0  0  0  0  0
    7.5535  -11.4746   26.0630 C   0  0  0  0  0  0  0  0  0  0  0  0
    8.0155  -12.5661   25.3631 C   0  0  0  0  0  0  0  0  0  0  0  0
    7.4782  -13.8432   25.4701 C   0  0  0  0  0  0  0  0  0  0  0  0
    8.0091  -14.9902   24.7136 C   0  0  0  0  0  0  0  0  0  0  0  0
    6.9729  -15.5723   23.7669 C   0  0  2  0  0  0  0  0  0  0  0  0
    6.1828  -16.5234   24.4802 N   0  0  0  0  0  0  0  0  0  0  0  0
    7.5753  -16.0223   22.5100 C   0  0  0  0  0  0  0  0  0  0  0  0
    8.1324  -17.1873   22.6189 O   0  0  0  0  0  0  0  0  0  0  0  0
    6.4033  -13.9697   26.3589 C   0  0  0  0  0  0  0  0  0  0  0  0
    5.9152  -12.9216   27.0692 C   0  0  0  0  0  0  0  0  0  0  0  0
    7.6325  -15.4025   21.2649 N   0  0  0  0  0  0  0  0  0  0  0  0
    6.5371  -14.5874   20.6595 C   0  0  0  0  0  0  0  0  0  0  0  0
    7.3272  -13.2991   20.4354 C   0  0  0  0  0  0  0  0  0  0  0  0
    8.7772  -13.7587   20.2048 C   0  0  0  0  0  0  0  0  0  0  0  0
    8.6050  -15.2754   20.2157 C   0  0  1  0  0  0  0  0  0  0  0  0
    9.8331  -16.0057   20.2358 C   0  0  0  0  0  0  0  0  0  0  0  0
   10.8899  -15.6545   20.8012 O   0  0  0  0  0  0  0  0  0  0  0  0
    9.7771  -19.9010   18.7973 O   0  0  0  0  0  0  0  0  0  0  0  0
   10.6962  -19.5279   19.7571 C   0  0  0  0  0  0  0  0  0  0  0  0
   11.1287  -18.0736   19.5560 C   0  0  2  0  0  0  0  0  0  0  0  0
    9.9351  -17.2822   19.5566 N   0  0  0  0  0  0  0  0  0  0  0  0
   11.9543  -17.9079   18.3674 C   0  0  0  0  0  0  0  0  0  0  0  0
   11.5247  -17.2708   17.3834 O   0  0  0  0  0  0  0  0  0  0  0  0
   13.2210  -18.4514   18.3115 O   0  0  0  0  0  0  0  0  0  0  0  0
  1  2  1  0
  2  3  2  0
  3  4  1  0
  5  4  2  0
  5  6  1  0
  7  6  1  0
  7  8  1  1
  9  7  1  0
  9 13  1  0
 10  9  2  0
 11  5  1  0
 12  2  1  0
 12 11  2  0
 13 14  1  0
 14 15  1  0
 16 15  1  0
 17 13  1  0
 17 16  1  0
 17 18  1  1
 19 18  2  0
 20 21  1  0
 22 21  1  6
 22 24  1  0
 22 23  1  0
 23 18  1  0
 24 26  1  0
 25 24  2  0
M  END
$$$$
