YPS.pdb
     RDKit          3D

 26 27  0  0  1  0  0  0  0  0999 V2000
    5.9759  -10.8828   28.6304 O   0  0  0  0  0  0  0  0  0  0  0  0
    6.5306  -11.7460   27.7065 C   0  0  0  0  0  0  0  0  0  0  0  0
    7.4537  -12.6998   28.1261 C   0  0  0  0  0  0  0  0  0  0  0  0
    7.9760  -13.5351   27.1648 C   0  0  0  0  0  0  0  0  0  0  0  0
    7.6374  -13.4791   25.8183 C   0  0  0  0  0  0  0  0  0  0  0  0
    8.2085  -14.3999   24.8205 C   0  0  0  0  0  0  0  0  0  0  0  0
    7.1468  -15.2934   24.2016 C   0  0  2  0  0  0  0  0  0  0  0  0
    6.5736  -16.1033   25.2279 N   0  0  0  0  0  0  0  0  0  0  0  0
    7.6447  -15.9874   23.0118 C   0  0  0  0  0  0  0  0  0  0  0  0
    8.0581  -17.1867   23.2767 O   0  0  0  0  0  0  0  0  0  0  0  0
    6.7030  -12.4940   25.4747 C   0  0  0  0  0  0  0  0  0  0  0  0
    6.1623  -11.6493   26.3886 C   0  0  0  0  0  0  0  0  0  0  0  0
    7.7336  -15.5602   21.6900 N   0  0  0  0  0  0  0  0  0  0  0  0
    6.6633  -14.8267   20.9500 C   0  0  0  0  0  0  0  0  0  0  0  0
    7.4806  -13.5986   20.5526 C   0  0  0  0  0  0  0  0  0  0  0  0
    8.9254  -14.1102   20.4199 C   0  0  0  0  0  0  0  0  0  0  0  0
    8.7252  -15.6055   20.6520 C   0  0  1  0  0  0  0  0  0  0  0  0
    9.9391  -16.3441   20.8031 C   0  0  0  0  0  0  0  0  0  0  0  0
   10.8667  -16.0824   21.5973 O   0  0  0  0  0  0  0  0  0  0  0  0
   10.1971  -20.3191   20.0558 O   0  0  0  0  0  0  0  0  0  0  0  0
   11.1465  -19.6015   19.3566 C   0  0  0  0  0  0  0  0  0  0  0  0
   11.4134  -18.2546   20.0327 C   0  0  2  0  0  0  0  0  0  0  0  0
   10.1852  -17.5192   19.9908 N   0  0  0  0  0  0  0  0  0  0  0  0
   12.5465  -17.5590   19.4378 C   0  0  0  0  0  0  0  0  0  0  0  0
   12.4019  -16.8972   18.3891 O   0  0  0  0  0  0  0  0  0  0  0  0
   13.7940  -17.6209   20.0234 O   0  0  0  0  0  0  0  0  0  0  0  0
  1  2  1  0
  2  3  2  0
  3  4  1  0
  5  4  2  0
  5  6  1  0
  7  6  1  0
  7  8  1  1
  9  7  1  0
  9 13  1  0
 10  9  2  0
 11  5  1  0
 12  2  1  0
 12 11  2  0
 13 14  1  0
 14 15  1  0
 16 15  1  0
 17 13  1  0
 17 16  1  0
 17 18  1  1
 19 18  2  0
 20 21  1  0
 22 21  1  6
 22 24  1  0
 22 23  1  0
 23 18  1  0
 24 26  1  0
 25 24  2  0
M  END
$$$$
