YPS.pdb
     RDKit          3D

 26 27  0  0  1  0  0  0  0  0999 V2000
    6.0375  -11.2073   28.4024 O   0  0  0  0  0  0  0  0  0  0  0  0
    6.6012  -11.9878   27.4127 C   0  0  0  0  0  0  0  0  0  0  0  0
    6.9894  -13.2923   27.7052 C   0  0  0  0  0  0  0  0  0  0  0  0
    7.5460  -14.0269   26.6829 C   0  0  0  0  0  0  0  0  0  0  0  0
    7.7387  -13.5448   25.3939 C   0  0  0  0  0  0  0  0  0  0  0  0
    8.3261  -14.3668   24.3221 C   0  0  0  0  0  0  0  0  0  0  0  0
    7.2776  -15.2101   23.6162 C   0  0  2  0  0  0  0  0  0  0  0  0
    6.7973  -16.2004   24.5253 N   0  0  0  0  0  0  0  0  0  0  0  0
    7.7461  -15.6817   22.3111 C   0  0  0  0  0  0  0  0  0  0  0  0
    8.3814  -16.8083   22.3923 O   0  0  0  0  0  0  0  0  0  0  0  0
    7.3228  -12.2250   25.1782 C   0  0  0  0  0  0  0  0  0  0  0  0
    6.7696  -11.4641   26.1561 C   0  0  0  0  0  0  0  0  0  0  0  0
    7.6117  -15.1157   21.0465 N   0  0  0  0  0  0  0  0  0  0  0  0
    6.4225  -14.3472   20.5709 C   0  0  0  0  0  0  0  0  0  0  0  0
    7.1420  -13.0561   20.1845 C   0  0  0  0  0  0  0  0  0  0  0  0
    8.5553  -13.4995   19.7684 C   0  0  0  0  0  0  0  0  0  0  0  0
    8.4224  -15.0170   19.8651 C   0  0  1  0  0  0  0  0  0  0  0  0
    9.6579  -15.7239   19.7396 C   0  0  0  0  0  0  0  0  0  0  0  0
   10.8016  -15.2272   19.8117 O   0  0  0  0  0  0  0  0  0  0  0  0
    9.4089  -19.8197   19.6271 O   0  0  0  0  0  0  0  0  0  0  0  0
   10.5852  -19.2669   20.0917 C   0  0  0  0  0  0  0  0  0  0  0  0
   10.8621  -17.9274   19.4051 C   0  0  2  0  0  0  0  0  0  0  0  0
    9.6607  -17.1543   19.5048 N   0  0  0  0  0  0  0  0  0  0  0  0
   11.3490  -18.1011   18.0434 C   0  0  0  0  0  0  0  0  0  0  0  0
   10.6588  -17.7266   17.0729 O   0  0  0  0  0  0  0  0  0  0  0  0
   12.5782  -18.6810   17.8063 O   0  0  0  0  0  0  0  0  0  0  0  0
  1  2  1  0
  2  3  2  0
  3  4  1  0
  5  4  2  0
  5  6  1  0
  7  6  1  0
  7  8  1  1
  9  7  1  0
  9 13  1  0
 10  9  2  0
 11  5  1  0
 12  2  1  0
 12 11  2  0
 13 14  1  0
 14 15  1  0
 16 15  1  0
 17 13  1  0
 17 16  1  0
 17 18  1  1
 19 18  2  0
 20 21  1  0
 22 21  1  6
 22 24  1  0
 22 23  1  0
 23 18  1  0
 24 26  1  0
 25 24  2  0
M  END
$$$$
