YPS.pdb
     RDKit          3D

 26 27  0  0  1  0  0  0  0  0999 V2000
    5.8272  -10.5547   27.5801 O   0  0  0  0  0  0  0  0  0  0  0  0
    6.3249  -11.6950   26.9816 C   0  0  0  0  0  0  0  0  0  0  0  0
    5.4427  -12.6392   26.4637 C   0  0  0  0  0  0  0  0  0  0  0  0
    5.9911  -13.7574   25.8778 C   0  0  0  0  0  0  0  0  0  0  0  0
    7.3570  -13.9920   25.7765 C   0  0  0  0  0  0  0  0  0  0  0  0
    7.9066  -15.1960   25.1298 C   0  0  0  0  0  0  0  0  0  0  0  0
    6.9098  -15.8303   24.1743 C   0  0  2  0  0  0  0  0  0  0  0  0
    6.1951  -16.8523   24.8690 N   0  0  0  0  0  0  0  0  0  0  0  0
    7.5358  -16.2067   22.9049 C   0  0  0  0  0  0  0  0  0  0  0  0
    8.2193  -17.3039   22.9978 O   0  0  0  0  0  0  0  0  0  0  0  0
    8.1790  -12.9969   26.3201 C   0  0  0  0  0  0  0  0  0  0  0  0
    7.6823  -11.8788   26.9069 C   0  0  0  0  0  0  0  0  0  0  0  0
    7.5028  -15.5799   21.6625 N   0  0  0  0  0  0  0  0  0  0  0  0
    6.3430  -14.8122   21.1178 C   0  0  0  0  0  0  0  0  0  0  0  0
    7.0626  -13.4889   20.8627 C   0  0  0  0  0  0  0  0  0  0  0  0
    8.5182  -13.8820   20.5570 C   0  0  0  0  0  0  0  0  0  0  0  0
    8.4146  -15.4049   20.5668 C   0  0  1  0  0  0  0  0  0  0  0  0
    9.6735  -16.0795   20.5208 C   0  0  0  0  0  0  0  0  0  0  0  0
   10.7305  -15.7050   21.0705 O   0  0  0  0  0  0  0  0  0  0  0  0
    9.8140  -20.0431   19.5522 O   0  0  0  0  0  0  0  0  0  0  0  0
   10.8737  -19.4139   20.1738 C   0  0  0  0  0  0  0  0  0  0  0  0
   11.0618  -17.9986   19.6226 C   0  0  2  0  0  0  0  0  0  0  0  0
    9.8107  -17.3208   19.7850 N   0  0  0  0  0  0  0  0  0  0  0  0
   11.5635  -18.0064   18.2551 C   0  0  0  0  0  0  0  0  0  0  0  0
   12.6910  -18.4769   17.9983 O   0  0  0  0  0  0  0  0  0  0  0  0
   10.8014  -17.4948   17.2251 O   0  0  0  0  0  0  0  0  0  0  0  0
  1  2  1  0
  2  3  2  0
  3  4  1  0
  5  4  2  0
  5  6  1  0
  7  6  1  0
  7  8  1  1
  9  7  1  0
  9 13  1  0
 10  9  2  0
 11  5  1  0
 12  2  1  0
 12 11  2  0
 13 14  1  0
 14 15  1  0
 16 15  1  0
 17 13  1  0
 17 16  1  0
 17 18  1  1
 19 18  2  0
 20 21  1  0
 22 21  1  6
 22 24  1  0
 22 23  1  0
 23 18  1  0
 24 26  1  0
 25 24  2  0
M  END
$$$$
