RFP.pdb
     RDKit          3D

 30 31  0  0  1  0  0  0  0  0999 V2000
   20.8466  -22.8871   -8.3677 N   0  0  0  0  0  0  0  0  0  0  0  0
   19.8804  -22.5577   -9.3586 C   0  0  0  0  0  0  0  0  0  0  0  0
   18.6490  -22.8210   -9.0825 N   0  0  0  0  0  0  0  0  0  0  0  0
   20.2460  -21.9663  -10.5988 N   0  0  0  0  0  0  0  0  0  0  0  0
   21.6298  -21.8033  -10.9304 C   0  0  0  0  0  0  0  0  0  0  0  0
   22.2051  -20.7198  -10.0888 C   0  0  0  0  0  0  0  0  0  0  0  0
   23.6486  -20.9810   -9.7908 C   0  0  0  0  0  0  0  0  0  0  0  0
   24.5248  -20.0997  -10.6185 C   0  0  2  0  0  0  0  0  0  0  0  0
   24.5093  -20.4808  -12.0180 N   0  0  0  0  0  0  0  0  0  0  0  0
   25.9547  -20.1710  -10.1565 C   0  0  0  0  0  0  0  0  0  0  0  0
   26.8292  -20.4774  -10.9867 O   0  0  0  0  0  0  0  0  0  0  0  0
   17.8908  -22.6615   -9.7681 N   0  0  0  0  0  0  0  0  0  0  0  0
   26.3423  -19.9054   -8.8233 C   0  0  2  0  0  0  0  0  0  0  0  0
   27.7973  -19.8112   -8.4550 C   0  0  0  0  0  0  0  0  0  0  0  0
   27.8805  -18.4474   -7.8587 C   0  0  0  0  0  0  0  0  0  0  0  0
   28.0229  -18.2682   -6.4444 C   0  0  0  0  0  0  0  0  0  0  0  0
   27.0249  -18.6274   -5.5663 C   0  0  0  0  0  0  0  0  0  0  0  0
   27.1686  -18.4251   -4.1881 C   0  0  0  0  0  0  0  0  0  0  0  0
   28.3164  -17.8602   -3.6756 C   0  0  0  0  0  0  0  0  0  0  0  0
   29.3196  -17.4983   -4.5413 C   0  0  0  0  0  0  0  0  0  0  0  0
   29.1593  -17.7036   -5.8776 C   0  0  0  0  0  0  0  0  0  0  0  0
   28.0327  -20.9188   -7.5264 O   0  0  0  0  0  0  0  0  0  0  0  0
   26.9825  -21.6158   -7.2194 N   0  0  0  0  0  0  0  0  0  0  0  0
   29.2485  -21.3150   -6.9422 C   0  0  0  0  0  0  0  0  0  0  0  0
   30.4911  -20.6052   -7.0692 C   0  0  0  0  0  0  0  0  0  0  0  0
   31.5219  -21.6927   -7.0711 C   0  0  0  0  0  0  0  0  0  0  0  0
   30.8240  -22.9492   -6.5985 C   0  0  1  0  0  0  0  0  0  0  0  0
   29.4833  -22.4424   -6.1119 C   0  0  0  0  0  0  0  0  0  0  0  0
   29.6629  -22.0150   -4.6622 O   0  0  0  0  0  0  0  0  0  0  0  0
   29.8010  -22.9884   -3.6882 O   0  0  0  0  0  0  0  0  0  0  0  0
  1  2  1  0
  2  3  2  0
  4  2  1  0
  4  5  1  0
  6  5  1  0
  7  8  1  0
  7  6  1  0
  8  9  1  6
 10  8  1  0
 11 10  2  0
 12 10  1  0
 13 12  1  0
 13 14  1  6
 15 14  1  0
 16 15  2  0
 17 16  1  0
 18 17  2  0
 18 19  1  0
 19 20  2  0
 20 15  1  0
 21 13  1  0
 21 23  1  0
 22 21  2  0
 23 27  1  0
 24 23  1  0
 24 25  1  0
 25 26  1  0
 27 26  1  0
 27 28  1  1
 28 29  1  0
 30 28  2  0
M  END
$$$$
