RFP.pdb
     RDKit          3D

 30 31  0  0  1  0  0  0  0  0999 V2000
   24.3827  -20.4202  -16.2263 N   0  0  0  0  0  0  0  0  0  0  0  0
   23.4726  -19.3673  -15.9314 C   0  0  0  0  0  0  0  0  0  0  0  0
   22.5541  -19.1290  -16.8040 N   0  0  0  0  0  0  0  0  0  0  0  0
   23.5641  -18.6073  -14.7332 N   0  0  0  0  0  0  0  0  0  0  0  0
   24.3186  -19.1113  -13.6251 C   0  0  0  0  0  0  0  0  0  0  0  0
   23.5560  -20.2152  -12.9821 C   0  0  0  0  0  0  0  0  0  0  0  0
   24.1152  -20.5380  -11.6316 C   0  0  0  0  0  0  0  0  0  0  0  0
   25.6053  -20.6178  -11.6842 C   0  0  2  0  0  0  0  0  0  0  0  0
   26.0615  -21.5910  -12.6585 N   0  0  0  0  0  0  0  0  0  0  0  0
   26.1725  -21.0263  -10.3521 C   0  0  0  0  0  0  0  0  0  0  0  0
   26.0623  -22.2152  -10.0026 O   0  0  0  0  0  0  0  0  0  0  0  0
   21.8651  -18.3679  -16.6758 N   0  0  0  0  0  0  0  0  0  0  0  0
   26.8222  -20.1175   -9.4859 C   0  0  2  0  0  0  0  0  0  0  0  0
   27.3080  -20.5644   -8.1348 C   0  0  0  0  0  0  0  0  0  0  0  0
   28.3721  -19.5629   -7.8389 C   0  0  0  0  0  0  0  0  0  0  0  0
   28.9298  -19.4458   -6.5245 C   0  0  0  0  0  0  0  0  0  0  0  0
   29.8518  -20.3504   -6.0472 C   0  0  0  0  0  0  0  0  0  0  0  0
   30.3712  -20.2365   -4.7518 C   0  0  0  0  0  0  0  0  0  0  0  0
   29.9713  -19.2125   -3.9206 C   0  0  0  0  0  0  0  0  0  0  0  0
   29.0527  -18.3032   -4.3855 C   0  0  0  0  0  0  0  0  0  0  0  0
   28.5602  -18.4325   -5.6482 C   0  0  0  0  0  0  0  0  0  0  0  0
   26.1321  -20.5081   -7.2638 O   0  0  0  0  0  0  0  0  0  0  0  0
   25.2104  -19.6729   -7.6325 N   0  0  0  0  0  0  0  0  0  0  0  0
   25.8846  -21.2486   -6.0948 C   0  0  0  0  0  0  0  0  0  0  0  0
   26.8401  -22.1026   -5.4452 C   0  0  0  0  0  0  0  0  0  0  0  0
   26.0016  -23.2110   -4.8852 C   0  0  0  0  0  0  0  0  0  0  0  0
   24.5645  -22.7432   -4.9570 C   0  0  1  0  0  0  0  0  0  0  0  0
   24.6910  -21.2809   -5.3267 C   0  0  0  0  0  0  0  0  0  0  0  0
   24.8641  -20.5022   -4.0305 O   0  0  0  0  0  0  0  0  0  0  0  0
   23.7386  -20.1326   -3.3148 O   0  0  0  0  0  0  0  0  0  0  0  0
  1  2  1  0
  2  3  2  0
  4  2  1  0
  4  5  1  0
  6  5  1  0
  7  8  1  0
  7  6  1  0
  8  9  1  6
 10  8  1  0
 11 10  2  0
 12 10  1  0
 13 12  1  0
 13 14  1  6
 15 14  1  0
 16 15  2  0
 17 16  1  0
 18 17  2  0
 18 19  1  0
 19 20  2  0
 20 15  1  0
 21 13  1  0
 21 23  1  0
 22 21  2  0
 23 27  1  0
 24 23  1  0
 24 25  1  0
 25 26  1  0
 27 26  1  0
 27 28  1  1
 28 29  1  0
 30 28  2  0
M  END
$$$$
