RFP.pdb
     RDKit          3D

 30 31  0  0  1  0  0  0  0  0999 V2000
   27.9232  -17.2055  -20.9844 N   0  0  0  0  0  0  0  0  0  0  0  0
   28.2133  -18.5943  -21.0898 C   0  0  0  0  0  0  0  0  0  0  0  0
   29.4001  -18.9142  -21.4785 N   0  0  0  0  0  0  0  0  0  0  0  0
   27.2459  -19.5903  -20.7837 N   0  0  0  0  0  0  0  0  0  0  0  0
   25.9596  -19.2054  -20.2852 C   0  0  0  0  0  0  0  0  0  0  0  0
   26.0508  -19.0036  -18.8141 C   0  0  0  0  0  0  0  0  0  0  0  0
   26.0946  -20.3153  -18.0943 C   0  0  0  0  0  0  0  0  0  0  0  0
   27.2676  -20.3708  -17.1721 C   0  0  2  0  0  0  0  0  0  0  0  0
   28.3312  -21.2054  -17.6981 N   0  0  0  0  0  0  0  0  0  0  0  0
   26.8783  -20.9406  -15.8353 C   0  0  0  0  0  0  0  0  0  0  0  0
   26.3259  -22.0550  -15.8064 O   0  0  0  0  0  0  0  0  0  0  0  0
   29.6647  -19.8960  -21.6695 N   0  0  0  0  0  0  0  0  0  0  0  0
   27.1138  -20.2636  -14.6170 C   0  0  1  0  0  0  0  0  0  0  0  0
   26.6444  -20.8497  -13.3141 C   0  0  0  0  0  0  0  0  0  0  0  0
   27.5176  -20.1538  -12.3263 C   0  0  0  0  0  0  0  0  0  0  0  0
   27.2371  -20.2142  -10.9226 C   0  0  0  0  0  0  0  0  0  0  0  0
   26.3917  -19.3128  -10.3151 C   0  0  0  0  0  0  0  0  0  0  0  0
   26.1448  -19.3697   -8.9379 C   0  0  0  0  0  0  0  0  0  0  0  0
   26.7434  -20.3328   -8.1547 C   0  0  0  0  0  0  0  0  0  0  0  0
   27.5881  -21.2383   -8.7492 C   0  0  0  0  0  0  0  0  0  0  0  0
   27.8146  -21.1650  -10.0897 C   0  0  0  0  0  0  0  0  0  0  0  0
   25.2194  -20.5215  -13.2345 O   0  0  0  0  0  0  0  0  0  0  0  0
   24.8873  -19.3737  -13.7396 N   0  0  0  0  0  0  0  0  0  0  0  0
   24.1817  -21.2974  -12.6891 C   0  0  0  0  0  0  0  0  0  0  0  0
   24.3540  -22.5839  -12.0732 C   0  0  0  0  0  0  0  0  0  0  0  0
   23.0951  -23.3166  -12.4249 C   0  0  0  0  0  0  0  0  0  0  0  0
   22.1212  -22.2788  -12.9385 C   0  0  1  0  0  0  0  0  0  0  0  0
   22.8030  -20.9676  -12.6114 C   0  0  0  0  0  0  0  0  0  0  0  0
   22.4165  -20.6028  -11.1853 O   0  0  0  0  0  0  0  0  0  0  0  0
   21.2140  -19.9555  -10.9610 O   0  0  0  0  0  0  0  0  0  0  0  0
  1  2  1  0
  2  3  2  0
  4  2  1  0
  4  5  1  0
  6  5  1  0
  7  8  1  0
  7  6  1  0
  8  9  1  6
 10  8  1  0
 11 10  2  0
 12 10  1  0
 13 12  1  0
 13 14  1  6
 15 14  1  0
 16 15  2  0
 17 16  1  0
 18 17  2  0
 18 19  1  0
 19 20  2  0
 20 15  1  0
 21 13  1  0
 21 23  1  0
 22 21  2  0
 23 27  1  0
 24 23  1  0
 24 25  1  0
 25 26  1  0
 27 26  1  0
 27 28  1  1
 28 29  1  0
 30 28  2  0
M  END
$$$$
