RFP.pdb
     RDKit          3D

 30 31  0  0  1  0  0  0  0  0999 V2000
   24.8018  -19.5426  -15.4697 N   0  0  0  0  0  0  0  0  0  0  0  0
   23.4300  -19.2009  -15.3110 C   0  0  0  0  0  0  0  0  0  0  0  0
   22.6996  -19.2125  -16.3732 N   0  0  0  0  0  0  0  0  0  0  0  0
   22.8812  -18.8603  -14.0444 N   0  0  0  0  0  0  0  0  0  0  0  0
   23.6704  -19.0182  -12.8597 C   0  0  0  0  0  0  0  0  0  0  0  0
   23.4904  -20.4000  -12.3386 C   0  0  0  0  0  0  0  0  0  0  0  0
   24.1948  -20.5757  -11.0295 C   0  0  0  0  0  0  0  0  0  0  0  0
   25.6750  -20.5834  -11.2251 C   0  0  2  0  0  0  0  0  0  0  0  0
   26.0807  -21.5221  -12.2540 N   0  0  0  0  0  0  0  0  0  0  0  0
   26.3858  -20.9797   -9.9598 C   0  0  0  0  0  0  0  0  0  0  0  0
   26.3301  -22.1688   -9.5985 O   0  0  0  0  0  0  0  0  0  0  0  0
   21.6909  -18.9845  -16.3433 N   0  0  0  0  0  0  0  0  0  0  0  0
   27.1106  -20.0592   -9.1688 C   0  0  2  0  0  0  0  0  0  0  0  0
   27.6336  -20.4594   -7.8169 C   0  0  0  0  0  0  0  0  0  0  0  0
   28.6352  -19.3902   -7.5408 C   0  0  0  0  0  0  0  0  0  0  0  0
   29.2615  -19.2800   -6.2569 C   0  0  0  0  0  0  0  0  0  0  0  0
   30.2321  -20.1670   -5.8477 C   0  0  0  0  0  0  0  0  0  0  0  0
   30.8191  -20.0608   -4.5808 C   0  0  0  0  0  0  0  0  0  0  0  0
   30.4389  -19.0623   -3.7103 C   0  0  0  0  0  0  0  0  0  0  0  0
   29.4723  -18.1708   -4.1073 C   0  0  0  0  0  0  0  0  0  0  0  0
   28.9142  -18.2922   -5.3432 C   0  0  0  0  0  0  0  0  0  0  0  0
   26.4630  -20.4667   -6.9370 O   0  0  0  0  0  0  0  0  0  0  0  0
   25.4569  -19.7591   -7.3493 N   0  0  0  0  0  0  0  0  0  0  0  0
   26.3009  -21.1476   -5.7179 C   0  0  0  0  0  0  0  0  0  0  0  0
   27.3574  -21.7970   -4.9924 C   0  0  0  0  0  0  0  0  0  0  0  0
   26.6809  -22.9749   -4.3598 C   0  0  0  0  0  0  0  0  0  0  0  0
   25.1922  -22.7362   -4.4857 C   0  0  1  0  0  0  0  0  0  0  0  0
   25.1073  -21.3030   -4.9649 C   0  0  0  0  0  0  0  0  0  0  0  0
   25.1304  -20.4134   -3.7302 O   0  0  0  0  0  0  0  0  0  0  0  0
   26.3307  -19.8526   -3.3300 O   0  0  0  0  0  0  0  0  0  0  0  0
  1  2  1  0
  2  3  2  0
  4  2  1  0
  4  5  1  0
  6  5  1  0
  7  8  1  0
  7  6  1  0
  8  9  1  6
 10  8  1  0
 11 10  2  0
 12 10  1  0
 13 12  1  0
 13 14  1  6
 15 14  1  0
 16 15  2  0
 17 16  1  0
 18 17  2  0
 18 19  1  0
 19 20  2  0
 20 15  1  0
 21 13  1  0
 21 23  1  0
 22 21  2  0
 23 27  1  0
 24 23  1  0
 24 25  1  0
 25 26  1  0
 27 26  1  0
 27 28  1  1
 28 29  1  0
 30 28  2  0
M  END
$$$$
