RFP.pdb
     RDKit          3D

 30 31  0  0  1  0  0  0  0  0999 V2000
   26.6550  -22.0459  -21.6121 N   0  0  0  0  0  0  0  0  0  0  0  0
   26.0952  -20.8025  -22.0174 C   0  0  0  0  0  0  0  0  0  0  0  0
   25.1537  -20.8459  -22.8970 N   0  0  0  0  0  0  0  0  0  0  0  0
   26.5468  -19.5644  -21.4837 N   0  0  0  0  0  0  0  0  0  0  0  0
   27.3650  -19.5509  -20.3083 C   0  0  0  0  0  0  0  0  0  0  0  0
   26.5640  -20.0423  -19.1550 C   0  0  0  0  0  0  0  0  0  0  0  0
   26.7441  -19.1578  -17.9609 C   0  0  0  0  0  0  0  0  0  0  0  0
   27.8897  -19.6271  -17.1261 C   0  0  2  0  0  0  0  0  0  0  0  0
   28.7579  -20.5309  -17.8568 N   0  0  0  0  0  0  0  0  0  0  0  0
   27.4049  -20.3668  -15.9091 C   0  0  0  0  0  0  0  0  0  0  0  0
   27.0498  -21.5518  -16.0406 O   0  0  0  0  0  0  0  0  0  0  0  0
   24.7242  -19.9854  -23.2784 N   0  0  0  0  0  0  0  0  0  0  0  0
   27.3369  -19.7718  -14.6287 C   0  0  1  0  0  0  0  0  0  0  0  0
   26.8574  -20.5629  -13.4431 C   0  0  0  0  0  0  0  0  0  0  0  0
   27.5595  -19.8891  -12.3137 C   0  0  0  0  0  0  0  0  0  0  0  0
   27.1712  -20.1288  -10.9556 C   0  0  0  0  0  0  0  0  0  0  0  0
   26.1358  -19.4376  -10.3672 C   0  0  0  0  0  0  0  0  0  0  0  0
   25.7823  -19.6661   -9.0316 C   0  0  0  0  0  0  0  0  0  0  0  0
   26.4639  -20.5917   -8.2715 C   0  0  0  0  0  0  0  0  0  0  0  0
   27.4983  -21.2883   -8.8475 C   0  0  0  0  0  0  0  0  0  0  0  0
   27.8257  -21.0506  -10.1475 C   0  0  0  0  0  0  0  0  0  0  0  0
   25.3997  -20.4232  -13.4501 O   0  0  0  0  0  0  0  0  0  0  0  0
   24.9543  -19.2968  -13.9146 N   0  0  0  0  0  0  0  0  0  0  0  0
   24.4386  -21.3572  -13.0254 C   0  0  0  0  0  0  0  0  0  0  0  0
   24.7369  -22.6398  -12.4507 C   0  0  0  0  0  0  0  0  0  0  0  0
   23.6206  -23.5137  -12.9358 C   0  0  0  0  0  0  0  0  0  0  0  0
   22.5567  -22.5890  -13.4856 C   0  0  1  0  0  0  0  0  0  0  0  0
   23.0260  -21.2178  -13.0493 C   0  0  0  0  0  0  0  0  0  0  0  0
   22.4847  -20.9821  -11.6464 O   0  0  0  0  0  0  0  0  0  0  0  0
   21.1918  -20.5118  -11.4967 O   0  0  0  0  0  0  0  0  0  0  0  0
  1  2  1  0
  2  3  2  0
  4  2  1  0
  4  5  1  0
  6  5  1  0
  7  8  1  0
  7  6  1  0
  8  9  1  6
 10  8  1  0
 11 10  2  0
 12 10  1  0
 13 12  1  0
 13 14  1  1
 15 14  1  0
 16 15  2  0
 17 16  1  0
 18 17  2  0
 18 19  1  0
 19 20  2  0
 20 15  1  0
 21 13  1  0
 21 23  1  0
 22 21  2  0
 23 27  1  0
 24 23  1  0
 24 25  1  0
 25 26  1  0
 27 26  1  0
 27 28  1  1
 28 29  1  0
 30 28  2  0
M  END
$$$$
