RFP.pdb
     RDKit          3D

 30 31  0  0  1  0  0  0  0  0999 V2000
   10.0272  -16.1730   -0.0753 N   0  0  0  0  0  0  0  0  0  0  0  0
    9.6387  -17.4681   -0.5175 C   0  0  0  0  0  0  0  0  0  0  0  0
    8.9710  -17.5325   -1.6184 N   0  0  0  0  0  0  0  0  0  0  0  0
    9.9662  -18.6425    0.2140 N   0  0  0  0  0  0  0  0  0  0  0  0
   10.9184  -18.5750    1.2818 C   0  0  0  0  0  0  0  0  0  0  0  0
   12.2202  -19.1144    0.8046 C   0  0  0  0  0  0  0  0  0  0  0  0
   13.2348  -19.1192    1.9052 C   0  0  0  0  0  0  0  0  0  0  0  0
   14.5889  -19.4522    1.3714 C   0  0  2  0  0  0  0  0  0  0  0  0
   14.7211  -20.8658    1.0734 N   0  0  0  0  0  0  0  0  0  0  0  0
   15.6627  -19.1079    2.3672 C   0  0  0  0  0  0  0  0  0  0  0  0
   16.1951  -20.0334    3.0056 O   0  0  0  0  0  0  0  0  0  0  0  0
    8.6606  -18.4361   -2.0153 N   0  0  0  0  0  0  0  0  0  0  0  0
   16.0883  -17.7811    2.6054 C   0  0  2  0  0  0  0  0  0  0  0  0
   17.1818  -17.4961    3.5975 C   0  0  0  0  0  0  0  0  0  0  0  0
   18.0141  -16.4983    2.8665 C   0  0  0  0  0  0  0  0  0  0  0  0
   17.9066  -15.0982    3.1509 C   0  0  0  0  0  0  0  0  0  0  0  0
   16.7932  -14.3713    2.7927 C   0  0  0  0  0  0  0  0  0  0  0  0
   16.7119  -12.9985    3.0566 C   0  0  0  0  0  0  0  0  0  0  0  0
   17.7472  -12.3396    3.6837 C   0  0  0  0  0  0  0  0  0  0  0  0
   18.8629  -13.0540    4.0467 C   0  0  0  0  0  0  0  0  0  0  0  0
   18.9216  -14.3879    3.7805 C   0  0  0  0  0  0  0  0  0  0  0  0
   16.4986  -16.9916    4.7905 O   0  0  0  0  0  0  0  0  0  0  0  0
   15.2707  -16.6154    4.6070 N   0  0  0  0  0  0  0  0  0  0  0  0
   17.0079  -16.8757    6.0957 C   0  0  0  0  0  0  0  0  0  0  0  0
   18.3492  -17.2103    6.4871 C   0  0  0  0  0  0  0  0  0  0  0  0
   18.1917  -17.7288    7.8842 C   0  0  0  0  0  0  0  0  0  0  0  0
   16.8011  -17.3383    8.3349 C   0  0  1  0  0  0  0  0  0  0  0  0
   16.3340  -16.3936    7.2485 C   0  0  0  0  0  0  0  0  0  0  0  0
   16.8284  -15.0025    7.6184 O   0  0  0  0  0  0  0  0  0  0  0  0
   16.1190  -14.2642    8.5496 O   0  0  0  0  0  0  0  0  0  0  0  0
  1  2  1  0
  2  3  2  0
  4  2  1  0
  4  5  1  0
  6  5  1  0
  7  8  1  0
  7  6  1  0
  8  9  1  1
 10  8  1  0
 11 10  2  0
 12 10  1  0
 13 12  1  0
 13 14  1  6
 15 14  1  0
 16 15  2  0
 17 16  1  0
 18 17  2  0
 18 19  1  0
 19 20  2  0
 20 15  1  0
 21 13  1  0
 21 23  1  0
 22 21  2  0
 23 27  1  0
 24 23  1  0
 24 25  1  0
 25 26  1  0
 27 26  1  0
 27 28  1  1
 28 29  1  0
 30 28  2  0
M  END
$$$$
