PRA.pdb
     RDKit          3D

 24 24  0  0  1  0  0  0  0  0999 V2000
    8.9726  -14.6118   19.5816 N   0  0  0  0  0  0  0  0  0  0  0  0
    8.6504  -14.2444   18.2114 C   0  0  0  0  0  0  0  0  0  0  0  0
    7.7030  -13.0779   18.2852 C   0  0  0  0  0  0  0  0  0  0  0  0
    6.9978  -13.3413   19.6256 C   0  0  0  0  0  0  0  0  0  0  0  0
    8.2499  -13.7253   20.4322 C   0  0  1  0  0  0  0  0  0  0  0  0
    7.8972  -14.2031   21.7582 C   0  0  0  0  0  0  0  0  0  0  0  0
    7.1517  -13.4936   22.4964 O   0  0  0  0  0  0  0  0  0  0  0  0
   10.7955  -18.7482   20.8449 N   0  0  0  0  0  0  0  0  0  0  0  0
   11.5232  -19.4353   21.8546 C   0  0  0  0  0  0  0  0  0  0  0  0
   12.7360  -19.8421   21.6347 N   0  0  0  0  0  0  0  0  0  0  0  0
   10.9867  -19.7134   23.1360 N   0  0  0  0  0  0  0  0  0  0  0  0
    9.7558  -19.1766   23.5896 C   0  0  0  0  0  0  0  0  0  0  0  0
    9.5690  -17.7000   23.3720 C   0  0  0  0  0  0  0  0  0  0  0  0
    8.1940  -17.3109   23.9230 C   0  0  0  0  0  0  0  0  0  0  0  0
    7.9691  -15.8450   23.6687 C   0  0  2  0  0  0  0  0  0  0  0  0
    8.3134  -15.4267   22.3418 N   0  0  0  0  0  0  0  0  0  0  0  0
    8.6917  -15.0084   24.6438 C   0  0  0  0  0  0  0  0  0  0  0  0
    9.9224  -14.8384   24.5256 O   0  0  0  0  0  0  0  0  0  0  0  0
   13.2596  -20.2572   22.4300 C   0  0  0  0  0  0  0  0  0  0  0  0
    7.7192  -12.5286   27.1911 C   0  0  2  0  0  0  0  0  0  0  0  0
    8.7114  -13.5510   26.6529 N   0  0  0  0  0  0  0  0  0  0  0  0
    8.0113  -14.3901   25.7181 C   0  0  0  0  0  0  0  0  0  0  0  0
    9.2297  -14.3832   27.7568 O   0  0  0  0  0  0  0  0  0  0  0  0
    9.9178  -13.8645   28.6956 O   0  0  0  0  0  0  0  0  0  0  0  0
  1  2  1  0
  3  2  1  0
  4  3  1  0
  4  5  1  0
  5  1  1  0
  5  6  1  1
  6  7  2  0
  8  9  1  0
  9 11  1  0
  9 10  2  0
 11 12  1  0
 12 13  1  0
 14 13  1  0
 15 14  1  6
 16  6  1  0
 16 15  1  0
 17 18  2  0
 17 15  1  0
 20 19  1  6
 20 21  1  0
 21 17  1  0
 22 20  1  0
 22 24  1  0
 23 22  2  0
M  END
$$$$
