PRA.pdb
     RDKit          3D

 24 24  0  0  1  0  0  0  0  0999 V2000
    7.2754  -11.8502   25.3802 N   0  0  0  0  0  0  0  0  0  0  0  0
    6.4456  -10.7171   25.7593 C   0  0  0  0  0  0  0  0  0  0  0  0
    5.5279  -11.1962   26.8512 C   0  0  0  0  0  0  0  0  0  0  0  0
    5.3889  -12.6867   26.5014 C   0  0  0  0  0  0  0  0  0  0  0  0
    6.8712  -12.9524   26.1886 C   0  0  1  0  0  0  0  0  0  0  0  0
    7.0657  -14.2883   25.6512 C   0  0  0  0  0  0  0  0  0  0  0  0
    6.8140  -15.2937   26.3792 O   0  0  0  0  0  0  0  0  0  0  0  0
    7.2500  -12.4755   19.4296 N   0  0  0  0  0  0  0  0  0  0  0  0
    8.5426  -13.0221   19.2025 C   0  0  0  0  0  0  0  0  0  0  0  0
    9.5379  -12.2540   18.8795 N   0  0  0  0  0  0  0  0  0  0  0  0
    8.8233  -14.4064   19.3124 N   0  0  0  0  0  0  0  0  0  0  0  0
    8.1156  -15.2696   20.1858 C   0  0  0  0  0  0  0  0  0  0  0  0
    8.3615  -15.0555   21.6543 C   0  0  0  0  0  0  0  0  0  0  0  0
    7.6016  -16.1398   22.4241 C   0  0  0  0  0  0  0  0  0  0  0  0
    7.8241  -15.9315   23.8976 C   0  0  2  0  0  0  0  0  0  0  0  0
    7.5261  -14.6038   24.3476 N   0  0  0  0  0  0  0  0  0  0  0  0
    9.2010  -16.2799   24.2926 C   0  0  0  0  0  0  0  0  0  0  0  0
   10.0240  -15.3753   24.5411 O   0  0  0  0  0  0  0  0  0  0  0  0
   10.4451  -12.7061   18.6526 C   0  0  0  0  0  0  0  0  0  0  0  0
   10.8820  -17.5028   26.4171 C   0  0  2  0  0  0  0  0  0  0  0  0
   10.8817  -17.9762   24.9696 N   0  0  0  0  0  0  0  0  0  0  0  0
    9.6092  -17.6297   24.3963 C   0  0  0  0  0  0  0  0  0  0  0  0
   11.0541  -19.4415   24.9162 O   0  0  0  0  0  0  0  0  0  0  0  0
   10.0924  -20.1977   24.5594 O   0  0  0  0  0  0  0  0  0  0  0  0
  1  2  1  0
  3  2  1  0
  4  3  1  0
  4  5  1  0
  5  1  1  0
  5  6  1  6
  6  7  2  0
  8  9  1  0
  9 11  1  0
  9 10  2  0
 11 12  1  0
 12 13  1  0
 14 13  1  0
 15 14  1  6
 16  6  1  0
 16 15  1  0
 17 18  2  0
 17 15  1  0
 20 19  1  6
 20 21  1  0
 21 17  1  0
 22 20  1  0
 22 24  1  0
 23 22  2  0
M  END
$$$$
