EWK.pdb
     RDKit          3D

 33 34  0  0  1  0  0  0  0  0999 V2000
    6.7324  -16.0105   20.7420 N   0  0  0  0  0  0  0  0  0  0  0  0
    8.1313  -16.4530   20.6164 C   0  0  1  0  0  0  0  0  0  0  0  0
    8.7376  -15.5347   19.5881 C   0  0  0  0  0  0  0  0  0  0  0  0
    8.2400  -15.7253   18.1894 C   0  0  0  0  0  0  0  0  0  0  0  0
    9.3835  -15.6366   17.2526 C   0  0  0  0  0  0  0  0  0  0  0  0
   10.5410  -15.4218   17.7133 O   0  0  0  0  0  0  0  0  0  0  0  0
    8.8427  -16.2199   21.9098 C   0  0  0  0  0  0  0  0  0  0  0  0
    9.7131  -15.3269   22.0139 O   0  0  0  0  0  0  0  0  0  0  0  0
    9.2878  -15.7713   15.8804 O   0  0  0  0  0  0  0  0  0  0  0  0
    8.5727  -16.9883   23.0724 N   0  0  0  0  0  0  0  0  0  0  0  0
    9.2997  -16.7829   24.3093 C   0  0  1  0  0  0  0  0  0  0  0  0
    8.3584  -16.7956   25.4901 C   0  0  0  0  0  0  0  0  0  0  0  0
    7.3835  -15.7005   25.4540 C   0  0  0  0  0  0  0  0  0  0  0  0
    6.0133  -15.8058   25.2379 C   0  0  0  0  0  0  0  0  0  0  0  0
    5.4639  -14.5802   25.2807 N   0  0  0  0  0  0  0  0  0  0  0  0
    6.4551  -13.7026   25.5187 C   0  0  0  0  0  0  0  0  0  0  0  0
    6.4899  -12.3253   25.6644 C   0  0  0  0  0  0  0  0  0  0  0  0
    7.6820  -11.6795   25.9089 C   0  0  0  0  0  0  0  0  0  0  0  0
    8.8760  -12.3475   26.0195 C   0  0  0  0  0  0  0  0  0  0  0  0
    8.8543  -13.7164   25.8767 C   0  0  0  0  0  0  0  0  0  0  0  0
    7.6666  -14.3721   25.6319 C   0  0  0  0  0  0  0  0  0  0  0  0
   10.3044  -17.8502   24.5196 C   0  0  0  0  0  0  0  0  0  0  0  0
   10.1889  -18.9322   23.9047 O   0  0  0  0  0  0  0  0  0  0  0  0
   11.4185  -17.7312   25.3921 N   0  0  0  0  0  0  0  0  0  0  0  0
   12.0481  -18.8511   25.9851 C   0  0  1  0  0  0  0  0  0  0  0  0
   13.0090  -18.3577   27.0676 C   0  0  0  0  0  0  0  0  0  0  0  0
   13.7253  -19.5399   27.6237 C   0  0  0  0  0  0  0  0  0  0  0  0
   15.0098  -19.2018   28.3483 C   0  0  0  0  0  0  0  0  0  0  0  0
   14.8428  -19.4011   29.8168 C   0  0  0  0  0  0  0  0  0  0  0  0
   16.1271  -19.1628   30.4821 N   0  0  0  0  0  0  0  0  0  0  0  0
   11.1805  -19.8589   26.5676 C   0  0  0  0  0  0  0  0  0  0  0  0
   10.0535  -19.6636   27.0925 O   0  0  0  0  0  0  0  0  0  0  0  0
   11.6189  -21.1788   26.5552 O   0  0  0  0  0  0  0  0  0  0  0  0
  2  1  1  1
  2  3  1  0
  3  4  1  0
  4  5  1  0
  5  6  2  0
  7  2  1  0
  7  8  2  0
  9  5  1  0
 10  7  1  0
 11 12  1  1
 11 10  1  0
 12 13  1  0
 13 14  2  0
 13 21  1  0
 14 15  1  0
 15 16  1  0
 16 17  2  0
 18 17  1  0
 19 18  2  0
 20 19  1  0
 21 20  2  0
 21 16  1  0
 22 11  1  0
 23 22  2  0
 24 22  1  0
 25 24  1  0
 25 26  1  1
 26 27  1  0
 27 28  1  0
 28 29  1  0
 30 29  1  0
 31 33  1  0
 31 25  1  0
 32 31  2  0
M  END
$$$$
