EWK.pdb
     RDKit          3D

 33 34  0  0  1  0  0  0  0  0999 V2000
    9.2571  -16.4284   20.5398 N   0  0  0  0  0  0  0  0  0  0  0  0
   10.0695  -17.3157   21.3889 C   0  0  1  0  0  0  0  0  0  0  0  0
   11.4798  -17.1473   20.8877 C   0  0  0  0  0  0  0  0  0  0  0  0
   11.7260  -17.6403   19.4961 C   0  0  0  0  0  0  0  0  0  0  0  0
   13.0308  -18.3396   19.4541 C   0  0  0  0  0  0  0  0  0  0  0  0
   13.9442  -17.9863   20.2536 O   0  0  0  0  0  0  0  0  0  0  0  0
   10.0272  -16.8262   22.8002 C   0  0  0  0  0  0  0  0  0  0  0  0
   10.7660  -15.8902   23.1795 O   0  0  0  0  0  0  0  0  0  0  0  0
   13.3415  -19.3726   18.5902 O   0  0  0  0  0  0  0  0  0  0  0  0
    9.1588  -17.3892   23.7719 N   0  0  0  0  0  0  0  0  0  0  0  0
    9.1239  -16.9043   25.1373 C   0  0  1  0  0  0  0  0  0  0  0  0
    7.7300  -16.4584   25.5096 C   0  0  0  0  0  0  0  0  0  0  0  0
    7.3326  -15.2134   24.8441 C   0  0  0  0  0  0  0  0  0  0  0  0
    6.8930  -15.0684   23.5322 C   0  0  0  0  0  0  0  0  0  0  0  0
    6.6234  -13.7730   23.2973 N   0  0  0  0  0  0  0  0  0  0  0  0
    6.8823  -13.0959   24.4304 C   0  0  0  0  0  0  0  0  0  0  0  0
    6.7921  -11.7582   24.7794 C   0  0  0  0  0  0  0  0  0  0  0  0
    7.1337  -11.3435   26.0479 C   0  0  0  0  0  0  0  0  0  0  0  0
    7.5727  -12.2112   27.0166 C   0  0  0  0  0  0  0  0  0  0  0  0
    7.6665  -13.5432   26.6819 C   0  0  0  0  0  0  0  0  0  0  0  0
    7.3271  -13.9683   25.4152 C   0  0  0  0  0  0  0  0  0  0  0  0
    9.5299  -17.9636   26.0889 C   0  0  0  0  0  0  0  0  0  0  0  0
    8.7306  -18.8857   26.3592 O   0  0  0  0  0  0  0  0  0  0  0  0
   10.7941  -18.0094   26.7340 N   0  0  0  0  0  0  0  0  0  0  0  0
   11.1041  -18.9527   27.7421 C   0  0  1  0  0  0  0  0  0  0  0  0
   12.3541  -19.7271   27.3219 C   0  0  0  0  0  0  0  0  0  0  0  0
   13.1576  -18.8543   26.4206 C   0  0  0  0  0  0  0  0  0  0  0  0
   14.5080  -19.4253   26.0468 C   0  0  0  0  0  0  0  0  0  0  0  0
   15.2634  -18.4559   25.2021 C   0  0  0  0  0  0  0  0  0  0  0  0
   16.5670  -19.0324   24.8597 N   0  0  0  0  0  0  0  0  0  0  0  0
   11.3150  -18.4352   29.0820 C   0  0  0  0  0  0  0  0  0  0  0  0
   11.5659  -19.1100   30.1142 O   0  0  0  0  0  0  0  0  0  0  0  0
   11.2364  -17.0588   29.2662 O   0  0  0  0  0  0  0  0  0  0  0  0
  2  1  1  6
  2  3  1  0
  3  4  1  0
  4  5  1  0
  5  6  2  0
  7  2  1  0
  7  8  2  0
  9  5  1  0
 10  7  1  0
 11 12  1  1
 11 10  1  0
 12 13  1  0
 13 14  2  0
 13 21  1  0
 14 15  1  0
 15 16  1  0
 16 17  2  0
 18 17  1  0
 19 18  2  0
 20 19  1  0
 21 20  2  0
 21 16  1  0
 22 11  1  0
 23 22  2  0
 24 22  1  0
 25 24  1  0
 25 26  1  6
 26 27  1  0
 27 28  1  0
 28 29  1  0
 30 29  1  0
 31 33  1  0
 31 25  1  0
 32 31  2  0
M  END
$$$$
