EWK.pdb
     RDKit          3D

 33 34  0  0  1  0  0  0  0  0999 V2000
    9.5396  -18.9556   21.3253 N   0  0  0  0  0  0  0  0  0  0  0  0
   10.7885  -18.4499   21.9193 C   0  0  1  0  0  0  0  0  0  0  0  0
   11.4093  -17.5943   20.8464 C   0  0  0  0  0  0  0  0  0  0  0  0
   11.6503  -18.2835   19.5399 C   0  0  0  0  0  0  0  0  0  0  0  0
   12.3370  -17.3489   18.6191 C   0  0  0  0  0  0  0  0  0  0  0  0
   13.6001  -17.2957   18.6256 O   0  0  0  0  0  0  0  0  0  0  0  0
   10.4629  -17.5625   23.0767 C   0  0  0  0  0  0  0  0  0  0  0  0
   11.3351  -16.8250   23.5879 O   0  0  0  0  0  0  0  0  0  0  0  0
   11.6951  -16.5069   17.7308 O   0  0  0  0  0  0  0  0  0  0  0  0
    9.1653  -17.5098   23.6497 N   0  0  0  0  0  0  0  0  0  0  0  0
    8.8638  -16.6541   24.7801 C   0  0  1  0  0  0  0  0  0  0  0  0
    7.4253  -16.1966   24.7343 C   0  0  0  0  0  0  0  0  0  0  0  0
    7.2870  -14.7872   24.3532 C   0  0  0  0  0  0  0  0  0  0  0  0
    7.3698  -14.2543   23.0708 C   0  0  0  0  0  0  0  0  0  0  0  0
    7.1874  -12.9244   23.1324 N   0  0  0  0  0  0  0  0  0  0  0  0
    6.9913  -12.6042   24.4240 C   0  0  0  0  0  0  0  0  0  0  0  0
    6.7554  -11.4075   25.0809 C   0  0  0  0  0  0  0  0  0  0  0  0
    6.5892  -11.3831   26.4483 C   0  0  0  0  0  0  0  0  0  0  0  0
    6.6463  -12.5163   27.2207 C   0  0  0  0  0  0  0  0  0  0  0  0
    6.8801  -13.7117   26.5794 C   0  0  0  0  0  0  0  0  0  0  0  0
    7.0478  -13.7468   25.2115 C   0  0  0  0  0  0  0  0  0  0  0  0
    9.0708  -17.3699   26.0597 C   0  0  0  0  0  0  0  0  0  0  0  0
    8.6250  -18.5298   26.1937 O   0  0  0  0  0  0  0  0  0  0  0  0
    9.7567  -16.8202   27.1750 N   0  0  0  0  0  0  0  0  0  0  0  0
   10.5771  -17.5971   28.0267 C   0  0  1  0  0  0  0  0  0  0  0  0
   11.6954  -18.2241   27.1929 C   0  0  0  0  0  0  0  0  0  0  0  0
   11.4328  -19.6872   27.0929 C   0  0  0  0  0  0  0  0  0  0  0  0
   12.3921  -20.4286   26.1877 C   0  0  0  0  0  0  0  0  0  0  0  0
   12.2112  -21.9012   26.3380 C   0  0  0  0  0  0  0  0  0  0  0  0
   13.0669  -22.5909   25.3679 N   0  0  0  0  0  0  0  0  0  0  0  0
   11.1775  -16.9157   29.1594 C   0  0  0  0  0  0  0  0  0  0  0  0
   11.4753  -15.6948   29.2265 O   0  0  0  0  0  0  0  0  0  0  0  0
   11.4602  -17.6682   30.2945 O   0  0  0  0  0  0  0  0  0  0  0  0
  2  1  1  6
  2  3  1  0
  3  4  1  0
  4  5  1  0
  5  6  2  0
  7  2  1  0
  7  8  2  0
  9  5  1  0
 10  7  1  0
 11 12  1  6
 11 10  1  0
 12 13  1  0
 13 14  2  0
 13 21  1  0
 14 15  1  0
 15 16  1  0
 16 17  2  0
 18 17  1  0
 19 18  2  0
 20 19  1  0
 21 20  2  0
 21 16  1  0
 22 11  1  0
 23 22  2  0
 24 22  1  0
 25 24  1  0
 25 26  1  6
 26 27  1  0
 27 28  1  0
 28 29  1  0
 30 29  1  0
 31 33  1  0
 31 25  1  0
 32 31  2  0
M  END
$$$$
