EWK.pdb
     RDKit          3D

 33 34  0  0  1  0  0  0  0  0999 V2000
    8.1822  -15.7516   20.7294 N   0  0  0  0  0  0  0  0  0  0  0  0
    8.4731  -16.9774   21.4917 C   0  0  1  0  0  0  0  0  0  0  0  0
    9.5746  -17.6593   20.7236 C   0  0  0  0  0  0  0  0  0  0  0  0
   10.0944  -18.9215   21.3376 C   0  0  0  0  0  0  0  0  0  0  0  0
   11.2371  -19.4151   20.5352 C   0  0  0  0  0  0  0  0  0  0  0  0
   12.1638  -18.6128   20.2258 O   0  0  0  0  0  0  0  0  0  0  0  0
    9.0160  -16.6088   22.8343 C   0  0  0  0  0  0  0  0  0  0  0  0
    9.8381  -15.6740   22.9618 O   0  0  0  0  0  0  0  0  0  0  0  0
   11.3776  -20.7137   20.0837 O   0  0  0  0  0  0  0  0  0  0  0  0
    8.6334  -17.2898   24.0195 N   0  0  0  0  0  0  0  0  0  0  0  0
    9.2203  -16.9722   25.3061 C   0  0  1  0  0  0  0  0  0  0  0  0
    8.1512  -16.5819   26.2987 C   0  0  0  0  0  0  0  0  0  0  0  0
    7.3164  -15.4709   25.8302 C   0  0  0  0  0  0  0  0  0  0  0  0
    6.1814  -15.5555   25.0302 C   0  0  0  0  0  0  0  0  0  0  0  0
    5.6958  -14.3202   24.8203 N   0  0  0  0  0  0  0  0  0  0  0  0
    6.4976  -13.4567   25.4691 C   0  0  0  0  0  0  0  0  0  0  0  0
    6.4933  -12.0785   25.6097 C   0  0  0  0  0  0  0  0  0  0  0  0
    7.4674  -11.4500   26.3541 C   0  0  0  0  0  0  0  0  0  0  0  0
    8.4746  -12.1369   26.9848 C   0  0  0  0  0  0  0  0  0  0  0  0
    8.4895  -13.5070   26.8525 C   0  0  0  0  0  0  0  0  0  0  0  0
    7.5194  -14.1453   26.1098 C   0  0  0  0  0  0  0  0  0  0  0  0
    9.9497  -18.1357   25.8602 C   0  0  0  0  0  0  0  0  0  0  0  0
    9.3945  -19.2553   25.8815 O   0  0  0  0  0  0  0  0  0  0  0  0
   11.2683  -18.0706   26.3831 N   0  0  0  0  0  0  0  0  0  0  0  0
   11.8067  -19.0716   27.2258 C   0  0  1  0  0  0  0  0  0  0  0  0
   13.3177  -19.1421   27.0007 C   0  0  0  0  0  0  0  0  0  0  0  0
   13.5655  -19.1725   25.5319 C   0  0  0  0  0  0  0  0  0  0  0  0
   15.0227  -19.3192   25.1521 C   0  0  0  0  0  0  0  0  0  0  0  0
   15.1809  -19.2447   23.6710 C   0  0  0  0  0  0  0  0  0  0  0  0
   16.6085  -19.1843   23.3438 N   0  0  0  0  0  0  0  0  0  0  0  0
   11.5620  -18.9312   28.6500 C   0  0  0  0  0  0  0  0  0  0  0  0
   10.9915  -17.9650   29.2197 O   0  0  0  0  0  0  0  0  0  0  0  0
   11.9929  -19.9552   29.4869 O   0  0  0  0  0  0  0  0  0  0  0  0
  2  1  1  6
  2  3  1  0
  3  4  1  0
  4  5  1  0
  5  6  2  0
  7  2  1  0
  7  8  2  0
  9  5  1  0
 10  7  1  0
 11 12  1  1
 11 10  1  0
 12 13  1  0
 13 14  2  0
 13 21  1  0
 14 15  1  0
 15 16  1  0
 16 17  2  0
 18 17  1  0
 19 18  2  0
 20 19  1  0
 21 20  2  0
 21 16  1  0
 22 11  1  0
 23 22  2  0
 24 22  1  0
 25 24  1  0
 25 26  1  1
 26 27  1  0
 27 28  1  0
 28 29  1  0
 30 29  1  0
 31 33  1  0
 31 25  1  0
 32 31  2  0
M  END
$$$$
