EWK.pdb
     RDKit          3D

 33 34  0  0  1  0  0  0  0  0999 V2000
    9.4481  -18.2079   21.0472 N   0  0  0  0  0  0  0  0  0  0  0  0
   10.7614  -17.7210   21.5016 C   0  0  1  0  0  0  0  0  0  0  0  0
   11.1016  -16.5919   20.5647 C   0  0  0  0  0  0  0  0  0  0  0  0
   11.3658  -16.9955   19.1478 C   0  0  0  0  0  0  0  0  0  0  0  0
   12.8245  -16.9513   18.8961 C   0  0  0  0  0  0  0  0  0  0  0  0
   13.6062  -16.6837   19.8530 O   0  0  0  0  0  0  0  0  0  0  0  0
   10.6291  -17.1476   22.8753 C   0  0  0  0  0  0  0  0  0  0  0  0
   11.5870  -16.5551   23.4206 O   0  0  0  0  0  0  0  0  0  0  0  0
   13.4179  -17.1832   17.6696 O   0  0  0  0  0  0  0  0  0  0  0  0
    9.4268  -17.2433   23.6239 N   0  0  0  0  0  0  0  0  0  0  0  0
    9.3204  -16.7134   24.9687 C   0  0  1  0  0  0  0  0  0  0  0  0
    7.8899  -16.3489   25.2869 C   0  0  0  0  0  0  0  0  0  0  0  0
    7.4819  -15.0706   24.6950 C   0  0  0  0  0  0  0  0  0  0  0  0
    7.1777  -14.8250   23.3599 C   0  0  0  0  0  0  0  0  0  0  0  0
    6.8464  -13.5310   23.2131 N   0  0  0  0  0  0  0  0  0  0  0  0
    6.9340  -12.9530   24.4245 C   0  0  0  0  0  0  0  0  0  0  0  0
    6.7146  -11.6630   24.8798 C   0  0  0  0  0  0  0  0  0  0  0  0
    6.8876  -11.3541   26.2111 C   0  0  0  0  0  0  0  0  0  0  0  0
    7.2781  -12.2845   27.1416 C   0  0  0  0  0  0  0  0  0  0  0  0
    7.4992  -13.5698   26.7014 C   0  0  0  0  0  0  0  0  0  0  0  0
    7.3288  -13.8892   25.3713 C   0  0  0  0  0  0  0  0  0  0  0  0
    9.7676  -17.7084   25.9699 C   0  0  0  0  0  0  0  0  0  0  0  0
    9.0787  -18.7322   26.1685 O   0  0  0  0  0  0  0  0  0  0  0  0
   10.9530  -17.5810   26.7413 N   0  0  0  0  0  0  0  0  0  0  0  0
   11.3387  -18.5343   27.7132 C   0  0  1  0  0  0  0  0  0  0  0  0
   12.8625  -18.6625   27.6973 C   0  0  0  0  0  0  0  0  0  0  0  0
   13.2057  -20.0449   27.2604 C   0  0  0  0  0  0  0  0  0  0  0  0
   14.6897  -20.3393   27.2440 C   0  0  0  0  0  0  0  0  0  0  0  0
   14.9428  -21.6878   26.6595 C   0  0  0  0  0  0  0  0  0  0  0  0
   16.3817  -21.8483   26.4295 N   0  0  0  0  0  0  0  0  0  0  0  0
   10.9143  -18.2865   29.0794 C   0  0  0  0  0  0  0  0  0  0  0  0
   10.7991  -17.1634   29.6352 O   0  0  0  0  0  0  0  0  0  0  0  0
   10.5987  -19.3859   29.8707 O   0  0  0  0  0  0  0  0  0  0  0  0
  2  1  1  6
  2  3  1  0
  3  4  1  0
  4  5  1  0
  5  6  2  0
  7  2  1  0
  7  8  2  0
  9  5  1  0
 10  7  1  0
 11 12  1  1
 11 10  1  0
 12 13  1  0
 13 14  2  0
 13 21  1  0
 14 15  1  0
 15 16  1  0
 16 17  2  0
 18 17  1  0
 19 18  2  0
 20 19  1  0
 21 20  2  0
 21 16  1  0
 22 11  1  0
 23 22  2  0
 24 22  1  0
 25 24  1  0
 25 26  1  1
 26 27  1  0
 27 28  1  0
 28 29  1  0
 30 29  1  0
 31 33  1  0
 31 25  1  0
 32 31  2  0
M  END
$$$$
