EWK.pdb
     RDKit          3D

 33 34  0  0  1  0  0  0  0  0999 V2000
    9.8018  -18.5461   21.9448 N   0  0  0  0  0  0  0  0  0  0  0  0
   11.1402  -18.0216   22.2641 C   0  0  1  0  0  0  0  0  0  0  0  0
   11.5101  -17.1598   21.0855 C   0  0  0  0  0  0  0  0  0  0  0  0
   11.2124  -17.7516   19.7434 C   0  0  0  0  0  0  0  0  0  0  0  0
   11.5892  -16.7797   18.6915 C   0  0  0  0  0  0  0  0  0  0  0  0
   12.1801  -15.7124   19.0231 O   0  0  0  0  0  0  0  0  0  0  0  0
   11.0519  -17.1361   23.4647 C   0  0  0  0  0  0  0  0  0  0  0  0
   12.0121  -16.4066   23.7987 O   0  0  0  0  0  0  0  0  0  0  0  0
   11.3410  -16.9461   17.3421 O   0  0  0  0  0  0  0  0  0  0  0  0
    9.8903  -17.0765   24.2785 N   0  0  0  0  0  0  0  0  0  0  0  0
    9.8548  -16.3018   25.5029 C   0  0  1  0  0  0  0  0  0  0  0  0
    8.4309  -15.9804   25.8899 C   0  0  0  0  0  0  0  0  0  0  0  0
    7.8184  -14.9691   25.0223 C   0  0  0  0  0  0  0  0  0  0  0  0
    7.5325  -15.0911   23.6663 C   0  0  0  0  0  0  0  0  0  0  0  0
    6.9729  -13.9505   23.2284 N   0  0  0  0  0  0  0  0  0  0  0  0
    6.8986  -13.1103   24.2763 C   0  0  0  0  0  0  0  0  0  0  0  0
    6.4234  -11.8176   24.4255 C   0  0  0  0  0  0  0  0  0  0  0  0
    6.4777  -11.1914   25.6514 C   0  0  0  0  0  0  0  0  0  0  0  0
    6.9935  -11.7979   26.7696 C   0  0  0  0  0  0  0  0  0  0  0  0
    7.4688  -13.0826   26.6339 C   0  0  0  0  0  0  0  0  0  0  0  0
    7.4190  -13.7179   25.4115 C   0  0  0  0  0  0  0  0  0  0  0  0
   10.4711  -17.0485   26.6233 C   0  0  0  0  0  0  0  0  0  0  0  0
   10.5335  -16.5189   27.7537 O   0  0  0  0  0  0  0  0  0  0  0  0
   11.0109  -18.3565   26.5040 N   0  0  0  0  0  0  0  0  0  0  0  0
   11.6035  -19.0410   27.5914 C   0  0  1  0  0  0  0  0  0  0  0  0
   10.9179  -20.3988   27.7490 C   0  0  0  0  0  0  0  0  0  0  0  0
   11.4078  -21.0205   29.0112 C   0  0  0  0  0  0  0  0  0  0  0  0
   10.8203  -22.3848   29.2989 C   0  0  0  0  0  0  0  0  0  0  0  0
   11.3463  -22.9121   30.5909 C   0  0  0  0  0  0  0  0  0  0  0  0
   10.6602  -24.1674   30.9113 N   0  0  0  0  0  0  0  0  0  0  0  0
   13.0377  -19.2569   27.5271 C   0  0  0  0  0  0  0  0  0  0  0  0
   13.7098  -19.5184   26.4957 O   0  0  0  0  0  0  0  0  0  0  0  0
   13.7611  -19.1710   28.7120 O   0  0  0  0  0  0  0  0  0  0  0  0
  2  1  1  6
  2  3  1  0
  3  4  1  0
  4  5  1  0
  5  6  2  0
  7  2  1  0
  7  8  2  0
  9  5  1  0
 10  7  1  0
 11 12  1  1
 11 10  1  0
 12 13  1  0
 13 14  2  0
 13 21  1  0
 14 15  1  0
 15 16  1  0
 16 17  2  0
 18 17  1  0
 19 18  2  0
 20 19  1  0
 21 20  2  0
 21 16  1  0
 22 11  1  0
 23 22  2  0
 24 22  1  0
 25 24  1  0
 25 26  1  6
 26 27  1  0
 27 28  1  0
 28 29  1  0
 30 29  1  0
 31 33  1  0
 31 25  1  0
 32 31  2  0
M  END
$$$$
