EWK.pdb
     RDKit          3D

 33 34  0  0  1  0  0  0  0  0999 V2000
    9.2881  -18.6423   19.5616 N   0  0  0  0  0  0  0  0  0  0  0  0
   10.4925  -17.8618   19.8909 C   0  0  1  0  0  0  0  0  0  0  0  0
   10.7340  -16.9938   18.6840 C   0  0  0  0  0  0  0  0  0  0  0  0
   11.6375  -17.5813   17.6454 C   0  0  0  0  0  0  0  0  0  0  0  0
   11.7760  -16.6220   16.5257 C   0  0  0  0  0  0  0  0  0  0  0  0
   11.2113  -15.4939   16.6087 O   0  0  0  0  0  0  0  0  0  0  0  0
   10.1988  -16.9615   21.0469 C   0  0  0  0  0  0  0  0  0  0  0  0
   11.0813  -16.2095   21.5177 O   0  0  0  0  0  0  0  0  0  0  0  0
   12.4889  -16.8642   15.3668 O   0  0  0  0  0  0  0  0  0  0  0  0
    8.9212  -16.9123   21.6636 N   0  0  0  0  0  0  0  0  0  0  0  0
    8.6999  -16.1994   22.9060 C   0  0  1  0  0  0  0  0  0  0  0  0
    7.2702  -15.7222   23.0001 C   0  0  0  0  0  0  0  0  0  0  0  0
    6.9448  -15.1508   24.3110 C   0  0  0  0  0  0  0  0  0  0  0  0
    6.3568  -15.8066   25.3878 C   0  0  0  0  0  0  0  0  0  0  0  0
    6.2236  -14.9450   26.4104 N   0  0  0  0  0  0  0  0  0  0  0  0
    6.7136  -13.7598   26.0049 C   0  0  0  0  0  0  0  0  0  0  0  0
    6.8397  -12.5239   26.6181 C   0  0  0  0  0  0  0  0  0  0  0  0
    7.3960  -11.4618   25.9396 C   0  0  0  0  0  0  0  0  0  0  0  0
    7.8469  -11.5643   24.6472 C   0  0  0  0  0  0  0  0  0  0  0  0
    7.7271  -12.7874   24.0271 C   0  0  0  0  0  0  0  0  0  0  0  0
    7.1719  -13.8564   24.6974 C   0  0  0  0  0  0  0  0  0  0  0  0
    8.9643  -17.0706   24.0739 C   0  0  0  0  0  0  0  0  0  0  0  0
    8.3022  -18.1207   24.2192 O   0  0  0  0  0  0  0  0  0  0  0  0
    9.9406  -16.7927   25.0669 N   0  0  0  0  0  0  0  0  0  0  0  0
   10.2141  -17.6756   26.1382 C   0  0  1  0  0  0  0  0  0  0  0  0
   11.6627  -18.1522   26.0238 C   0  0  0  0  0  0  0  0  0  0  0  0
   11.8434  -18.7637   24.6774 C   0  0  0  0  0  0  0  0  0  0  0  0
   13.2533  -19.2343   24.3945 C   0  0  0  0  0  0  0  0  0  0  0  0
   13.3433  -19.7988   23.0170 C   0  0  0  0  0  0  0  0  0  0  0  0
   14.7381  -20.1487   22.7324 N   0  0  0  0  0  0  0  0  0  0  0  0
   10.0053  -17.1627   27.4803 C   0  0  0  0  0  0  0  0  0  0  0  0
    9.6291  -16.0019   27.7878 O   0  0  0  0  0  0  0  0  0  0  0  0
   10.2387  -18.0233   28.5478 O   0  0  0  0  0  0  0  0  0  0  0  0
  2  1  1  6
  2  3  1  0
  3  4  1  0
  4  5  1  0
  5  6  2  0
  7  2  1  0
  7  8  2  0
  9  5  1  0
 10  7  1  0
 11 12  1  6
 11 10  1  0
 12 13  1  0
 13 14  2  0
 13 21  1  0
 14 15  1  0
 15 16  1  0
 16 17  2  0
 18 17  1  0
 19 18  2  0
 20 19  1  0
 21 20  2  0
 21 16  1  0
 22 11  1  0
 23 22  2  0
 24 22  1  0
 25 24  1  0
 25 26  1  1
 26 27  1  0
 27 28  1  0
 28 29  1  0
 30 29  1  0
 31 33  1  0
 31 25  1  0
 32 31  2  0
M  END
$$$$
