EWK.pdb
     RDKit          3D

 33 34  0  0  1  0  0  0  0  0999 V2000
    9.9967  -18.6381   20.1743 N   0  0  0  0  0  0  0  0  0  0  0  0
   11.1589  -17.9164   20.7191 C   0  0  1  0  0  0  0  0  0  0  0  0
   11.6488  -17.0571   19.5832 C   0  0  0  0  0  0  0  0  0  0  0  0
   11.4807  -17.6469   18.2179 C   0  0  0  0  0  0  0  0  0  0  0  0
   12.1546  -16.7756   17.2280 C   0  0  0  0  0  0  0  0  0  0  0  0
   12.8023  -15.7689   17.6346 O   0  0  0  0  0  0  0  0  0  0  0  0
   10.7078  -17.0067   21.8155 C   0  0  0  0  0  0  0  0  0  0  0  0
   11.5067  -16.2162   22.3658 O   0  0  0  0  0  0  0  0  0  0  0  0
   12.1328  -16.9760   15.8608 O   0  0  0  0  0  0  0  0  0  0  0  0
    9.3681  -16.9912   22.2844 N   0  0  0  0  0  0  0  0  0  0  0  0
    8.9792  -16.2385   23.4603 C   0  0  1  0  0  0  0  0  0  0  0  0
    7.5567  -15.7478   23.3335 C   0  0  0  0  0  0  0  0  0  0  0  0
    7.0746  -15.0770   24.5453 C   0  0  0  0  0  0  0  0  0  0  0  0
    6.3817  -15.6558   25.6037 C   0  0  0  0  0  0  0  0  0  0  0  0
    6.1175  -14.7148   26.5260 N   0  0  0  0  0  0  0  0  0  0  0  0
    6.6274  -13.5546   26.0751 C   0  0  0  0  0  0  0  0  0  0  0  0
    6.6598  -12.2681   26.5880 C   0  0  0  0  0  0  0  0  0  0  0  0
    7.2685  -11.2517   25.8849 C   0  0  0  0  0  0  0  0  0  0  0  0
    7.8641  -11.4503   24.6642 C   0  0  0  0  0  0  0  0  0  0  0  0
    7.8384  -12.7245   24.1441 C   0  0  0  0  0  0  0  0  0  0  0  0
    7.2318  -13.7484   24.8398 C   0  0  0  0  0  0  0  0  0  0  0  0
    9.0628  -17.0749   24.6794 C   0  0  0  0  0  0  0  0  0  0  0  0
    8.4247  -18.1482   24.7328 O   0  0  0  0  0  0  0  0  0  0  0  0
    9.8352  -16.7376   25.8223 N   0  0  0  0  0  0  0  0  0  0  0  0
    9.9888  -17.6100   26.9257 C   0  0  1  0  0  0  0  0  0  0  0  0
   10.6615  -18.8963   26.4445 C   0  0  0  0  0  0  0  0  0  0  0  0
   11.9881  -18.5371   25.8694 C   0  0  0  0  0  0  0  0  0  0  0  0
   12.8123  -19.7249   25.4231 C   0  0  0  0  0  0  0  0  0  0  0  0
   14.1283  -19.2697   24.8893 C   0  0  0  0  0  0  0  0  0  0  0  0
   14.8913  -20.4364   24.4358 N   0  0  0  0  0  0  0  0  0  0  0  0
   10.7330  -17.1024   28.0643 C   0  0  0  0  0  0  0  0  0  0  0  0
   11.0181  -17.7348   29.1142 O   0  0  0  0  0  0  0  0  0  0  0  0
   11.1855  -15.7883   28.0106 O   0  0  0  0  0  0  0  0  0  0  0  0
  2  1  1  6
  2  3  1  0
  3  4  1  0
  4  5  1  0
  5  6  2  0
  7  2  1  0
  7  8  2  0
  9  5  1  0
 10  7  1  0
 11 12  1  6
 11 10  1  0
 12 13  1  0
 13 14  2  0
 13 21  1  0
 14 15  1  0
 15 16  1  0
 16 17  2  0
 18 17  1  0
 19 18  2  0
 20 19  1  0
 21 20  2  0
 21 16  1  0
 22 11  1  0
 23 22  2  0
 24 22  1  0
 25 24  1  0
 25 26  1  6
 26 27  1  0
 27 28  1  0
 28 29  1  0
 30 29  1  0
 31 33  1  0
 31 25  1  0
 32 31  2  0
M  END
$$$$
