EWK.pdb
     RDKit          3D

 33 34  0  0  1  0  0  0  0  0999 V2000
    8.5692  -16.2792   21.0371 N   0  0  0  0  0  0  0  0  0  0  0  0
    9.6110  -17.1116   21.6616 C   0  0  1  0  0  0  0  0  0  0  0  0
   10.8763  -16.7706   20.9192 C   0  0  0  0  0  0  0  0  0  0  0  0
   10.9321  -17.2452   19.5008 C   0  0  0  0  0  0  0  0  0  0  0  0
   12.2048  -17.9702   19.2827 C   0  0  0  0  0  0  0  0  0  0  0  0
   13.0056  -18.1124   20.2506 O   0  0  0  0  0  0  0  0  0  0  0  0
    9.7922  -16.6935   23.0848 C   0  0  0  0  0  0  0  0  0  0  0  0
   10.5092  -15.7116   23.3810 O   0  0  0  0  0  0  0  0  0  0  0  0
   12.6010  -18.5176   18.0771 O   0  0  0  0  0  0  0  0  0  0  0  0
    9.1695  -17.3783   24.1610 N   0  0  0  0  0  0  0  0  0  0  0  0
    9.3844  -16.9888   25.5404 C   0  0  1  0  0  0  0  0  0  0  0  0
    8.0666  -16.7710   26.2449 C   0  0  0  0  0  0  0  0  0  0  0  0
    7.3137  -15.6330   25.7072 C   0  0  0  0  0  0  0  0  0  0  0  0
    6.2241  -15.6826   24.8438 C   0  0  0  0  0  0  0  0  0  0  0  0
    5.8105  -14.4311   24.5822 N   0  0  0  0  0  0  0  0  0  0  0  0
    6.6135  -13.5916   25.2603 C   0  0  0  0  0  0  0  0  0  0  0  0
    6.6664  -12.2119   25.3740 C   0  0  0  0  0  0  0  0  0  0  0  0
    7.6246  -11.6130   26.1622 C   0  0  0  0  0  0  0  0  0  0  0  0
    8.5601  -12.3317   26.8638 C   0  0  0  0  0  0  0  0  0  0  0  0
    8.5177  -13.7036   26.7588 C   0  0  0  0  0  0  0  0  0  0  0  0
    7.5629  -14.3125   25.9728 C   0  0  0  0  0  0  0  0  0  0  0  0
   10.1256  -18.0360   26.2799 C   0  0  0  0  0  0  0  0  0  0  0  0
    9.7215  -19.2181   26.2408 O   0  0  0  0  0  0  0  0  0  0  0  0
   11.2923  -17.7887   27.0507 N   0  0  0  0  0  0  0  0  0  0  0  0
   11.8535  -18.7543   27.9194 C   0  0  1  0  0  0  0  0  0  0  0  0
   13.3748  -18.7274   27.7661 C   0  0  0  0  0  0  0  0  0  0  0  0
   13.7092  -19.1923   26.3907 C   0  0  0  0  0  0  0  0  0  0  0  0
   15.1929  -19.3237   26.1245 C   0  0  0  0  0  0  0  0  0  0  0  0
   15.4264  -19.8620   24.7534 C   0  0  0  0  0  0  0  0  0  0  0  0
   16.8694  -19.9837   24.5255 N   0  0  0  0  0  0  0  0  0  0  0  0
   11.5332  -18.6322   29.3302 C   0  0  0  0  0  0  0  0  0  0  0  0
   11.8748  -19.4241   30.2466 O   0  0  0  0  0  0  0  0  0  0  0  0
   10.7738  -17.5380   29.7312 O   0  0  0  0  0  0  0  0  0  0  0  0
  2  1  1  6
  2  3  1  0
  3  4  1  0
  4  5  1  0
  5  6  2  0
  7  2  1  0
  7  8  2  0
  9  5  1  0
 10  7  1  0
 11 12  1  1
 11 10  1  0
 12 13  1  0
 13 14  2  0
 13 21  1  0
 14 15  1  0
 15 16  1  0
 16 17  2  0
 18 17  1  0
 19 18  2  0
 20 19  1  0
 21 20  2  0
 21 16  1  0
 22 11  1  0
 23 22  2  0
 24 22  1  0
 25 24  1  0
 25 26  1  1
 26 27  1  0
 27 28  1  0
 28 29  1  0
 30 29  1  0
 31 33  1  0
 31 25  1  0
 32 31  2  0
M  END
$$$$
