QHL.pdb
     RDKit          3D

 28 28  0  0  1  0  0  0  0  0999 V2000
   18.9246  -25.6885  -14.9557 N   0  0  0  0  0  0  0  0  0  0  0  0
   18.2986  -24.8765  -15.9260 C   0  0  0  0  0  0  0  0  0  0  0  0
   17.2376  -25.2913  -16.4341 O   0  0  0  0  0  0  0  0  0  0  0  0
   18.8887  -23.5742  -16.3241 C   0  0  0  0  0  0  0  0  0  0  0  0
   20.2418  -23.3231  -15.7417 C   0  0  0  0  0  0  0  0  0  0  0  0
   20.2445  -22.6352  -14.4016 C   0  0  2  0  0  0  0  0  0  0  0  0
   18.8428  -22.1555  -14.2508 N   0  0  0  0  0  0  0  0  0  0  0  0
   21.1025  -21.4255  -14.3487 C   0  0  0  0  0  0  0  0  0  0  0  0
   20.5985  -20.2665  -14.5821 O   0  0  0  0  0  0  0  0  0  0  0  0
   22.4884  -21.4171  -14.0478 N   0  0  0  0  0  0  0  0  0  0  0  0
   23.2299  -20.1482  -14.0156 C   0  0  1  0  0  0  0  0  0  0  0  0
   24.3304  -20.2389  -13.0143 C   0  0  0  0  0  0  0  0  0  0  0  0
   23.9338  -20.5627  -11.6330 C   0  0  0  0  0  0  0  0  0  0  0  0
   22.6051  -20.7258  -11.1896 C   0  0  0  0  0  0  0  0  0  0  0  0
   22.6036  -21.0111   -9.8914 N   0  0  0  0  0  0  0  0  0  0  0  0
   23.8598  -21.0432   -9.4628 C   0  0  0  0  0  0  0  0  0  0  0  0
   24.6376  -20.7747  -10.5096 N   0  0  0  0  0  0  0  0  0  0  0  0
   23.7837  -19.8483  -15.3479 C   0  0  0  0  0  0  0  0  0  0  0  0
   23.9697  -20.7955  -16.1405 O   0  0  0  0  0  0  0  0  0  0  0  0
   22.5855  -19.1971  -19.8984 C   0  0  0  0  0  0  0  0  0  0  0  0
   22.2674  -17.9976  -19.0310 C   0  0  1  0  0  0  0  0  0  0  0  0
   20.7734  -17.6941  -19.2998 C   0  0  0  0  0  0  0  0  0  0  0  0
   22.4748  -18.2816  -17.5738 C   0  0  0  0  0  0  0  0  0  0  0  0
   23.9190  -18.2249  -17.2155 C   0  0  2  0  0  0  0  0  0  0  0  0
   24.1200  -18.5413  -15.7915 N   0  0  0  0  0  0  0  0  0  0  0  0
   24.4611  -16.8715  -17.4330 C   0  0  0  0  0  0  0  0  0  0  0  0
   24.1789  -15.8727  -16.7176 O   0  0  0  0  0  0  0  0  0  0  0  0
   25.3520  -16.6723  -18.5061 O   0  0  0  0  0  0  0  0  0  0  0  0
  1  2  1  0
  2  4  1  0
  2  3  2  0
  4  5  1  0
  5  6  1  0
  6  8  1  0
  6  7  1  6
  8 10  1  0
  8  9  2  0
 10 11  1  0
 11 12  1  1
 11 18  1  0
 13 12  1  0
 13 14  2  0
 15 14  1  0
 16 15  1  0
 17 16  2  0
 17 13  1  0
 18 19  2  0
 21 20  1  6
 21 23  1  0
 21 22  1  0
 24 23  1  1
 24 26  1  0
 25 24  1  0
 25 18  1  0
 26 28  1  0
 27 26  2  0
M  END
$$$$
