QHL.pdb
     RDKit          3D

 28 28  0  0  1  0  0  0  0  0999 V2000
   16.1613  -14.1058  -15.0694 N   0  0  0  0  0  0  0  0  0  0  0  0
   16.1989  -15.0351  -16.1313 C   0  0  0  0  0  0  0  0  0  0  0  0
   15.2834  -15.8798  -16.1970 O   0  0  0  0  0  0  0  0  0  0  0  0
   17.2941  -15.0029  -17.1324 C   0  0  0  0  0  0  0  0  0  0  0  0
   18.3147  -13.9422  -16.8744 C   0  0  0  0  0  0  0  0  0  0  0  0
   19.4250  -13.8617  -17.8891 C   0  0  2  0  0  0  0  0  0  0  0  0
   20.3482  -14.9586  -17.4866 N   0  0  0  0  0  0  0  0  0  0  0  0
   20.2166  -12.6085  -17.8158 C   0  0  0  0  0  0  0  0  0  0  0  0
   21.1200  -12.4681  -16.9125 O   0  0  0  0  0  0  0  0  0  0  0  0
   20.0739  -11.4978  -18.6861 N   0  0  0  0  0  0  0  0  0  0  0  0
   20.8750  -10.2839  -18.4723 C   0  0  1  0  0  0  0  0  0  0  0  0
   20.8932   -9.4719  -19.7222 C   0  0  0  0  0  0  0  0  0  0  0  0
   21.7601   -9.9611  -20.8083 C   0  0  0  0  0  0  0  0  0  0  0  0
   22.6416  -11.0573  -20.7086 C   0  0  0  0  0  0  0  0  0  0  0  0
   23.2703  -11.2264  -21.8675 N   0  0  0  0  0  0  0  0  0  0  0  0
   22.8468  -10.2997  -22.7189 C   0  0  0  0  0  0  0  0  0  0  0  0
   21.9500   -9.5562  -22.0741 N   0  0  0  0  0  0  0  0  0  0  0  0
   20.3128   -9.4916  -17.3643 C   0  0  0  0  0  0  0  0  0  0  0  0
   19.1143   -9.6650  -17.0588 O   0  0  0  0  0  0  0  0  0  0  0  0
   18.0161   -8.2470  -13.2308 C   0  0  0  0  0  0  0  0  0  0  0  0
   19.5293   -8.2316  -13.1798 C   0  0  1  0  0  0  0  0  0  0  0  0
   19.8949   -9.0247  -11.9017 C   0  0  0  0  0  0  0  0  0  0  0  0
   20.1430   -8.8883  -14.3794 C   0  0  0  0  0  0  0  0  0  0  0  0
   20.3894   -7.9004  -15.4658 C   0  0  2  0  0  0  0  0  0  0  0  0
   21.0530   -8.5380  -16.6155 N   0  0  0  0  0  0  0  0  0  0  0  0
   21.2808   -6.8218  -15.0023 C   0  0  0  0  0  0  0  0  0  0  0  0
   22.5126   -6.7604  -15.2633 O   0  0  0  0  0  0  0  0  0  0  0  0
   20.7299   -5.7897  -14.2174 O   0  0  0  0  0  0  0  0  0  0  0  0
  1  2  1  0
  2  4  1  0
  2  3  2  0
  4  5  1  0
  5  6  1  0
  6  8  1  0
  6  7  1  1
  8 10  1  0
  8  9  2  0
 10 11  1  0
 11 12  1  6
 11 18  1  0
 13 12  1  0
 13 14  2  0
 15 14  1  0
 16 15  1  0
 17 16  2  0
 17 13  1  0
 18 19  2  0
 21 20  1  6
 21 23  1  0
 21 22  1  0
 24 23  1  1
 24 26  1  0
 25 24  1  0
 25 18  1  0
 26 28  1  0
 27 26  2  0
M  END
$$$$
