QHL.pdb
     RDKit          3D

 28 28  0  0  1  0  0  0  0  0999 V2000
   27.9904  -17.4668  -16.4111 N   0  0  0  0  0  0  0  0  0  0  0  0
   28.7989  -18.6143  -16.5607 C   0  0  0  0  0  0  0  0  0  0  0  0
   29.4837  -18.7112  -17.5988 O   0  0  0  0  0  0  0  0  0  0  0  0
   28.8283  -19.6663  -15.5143 C   0  0  0  0  0  0  0  0  0  0  0  0
   28.0759  -19.3041  -14.2750 C   0  0  0  0  0  0  0  0  0  0  0  0
   26.9887  -20.2693  -13.8809 C   0  0  2  0  0  0  0  0  0  0  0  0
   25.9441  -20.0653  -14.9224 N   0  0  0  0  0  0  0  0  0  0  0  0
   26.3443  -19.9514  -12.5824 C   0  0  0  0  0  0  0  0  0  0  0  0
   25.9936  -18.7443  -12.3148 O   0  0  0  0  0  0  0  0  0  0  0  0
   26.0582  -20.8903  -11.5587 N   0  0  0  0  0  0  0  0  0  0  0  0
   25.4262  -20.4490  -10.3070 C   0  0  1  0  0  0  0  0  0  0  0  0
   24.1393  -21.1762  -10.1148 C   0  0  0  0  0  0  0  0  0  0  0  0
   23.0048  -20.7292  -10.9414 C   0  0  0  0  0  0  0  0  0  0  0  0
   23.0743  -19.7399  -11.9440 C   0  0  0  0  0  0  0  0  0  0  0  0
   21.8740  -19.5808  -12.4927 N   0  0  0  0  0  0  0  0  0  0  0  0
   21.0243  -20.4129  -11.9025 C   0  0  0  0  0  0  0  0  0  0  0  0
   21.7117  -21.0878  -10.9834 N   0  0  0  0  0  0  0  0  0  0  0  0
   26.3240  -20.7027   -9.1663 C   0  0  0  0  0  0  0  0  0  0  0  0
   26.9269  -21.7954   -9.1169 O   0  0  0  0  0  0  0  0  0  0  0  0
   29.5391  -18.2809   -4.5825 C   0  0  0  0  0  0  0  0  0  0  0  0
   29.2940  -19.4190   -5.5506 C   0  0  1  0  0  0  0  0  0  0  0  0
   28.6595  -20.5425   -4.6953 C   0  0  0  0  0  0  0  0  0  0  0  0
   28.3587  -19.0307   -6.6558 C   0  0  0  0  0  0  0  0  0  0  0  0
   27.4781  -20.1685   -7.0392 C   0  0  2  0  0  0  0  0  0  0  0  0
   26.5503  -19.7764   -8.1134 N   0  0  0  0  0  0  0  0  0  0  0  0
   26.6518  -20.6008   -5.8977 C   0  0  0  0  0  0  0  0  0  0  0  0
   25.7206  -19.9138   -5.3977 O   0  0  0  0  0  0  0  0  0  0  0  0
   26.9120  -21.8604   -5.3226 O   0  0  0  0  0  0  0  0  0  0  0  0
  1  2  1  0
  2  4  1  0
  2  3  2  0
  4  5  1  0
  5  6  1  0
  6  8  1  0
  6  7  1  6
  8 10  1  0
  8  9  2  0
 10 11  1  0
 11 12  1  1
 11 18  1  0
 13 12  1  0
 13 14  2  0
 15 14  1  0
 16 15  1  0
 17 16  2  0
 17 13  1  0
 18 19  2  0
 21 20  1  1
 21 23  1  0
 21 22  1  0
 24 23  1  1
 24 26  1  0
 25 24  1  0
 25 18  1  0
 26 28  1  0
 27 26  2  0
M  END
$$$$
