QHL.pdb
     RDKit          3D

 28 28  0  0  1  0  0  0  0  0999 V2000
   26.6482  -14.6623  -15.2665 N   0  0  0  0  0  0  0  0  0  0  0  0
   27.0087  -14.1322  -16.5241 C   0  0  0  0  0  0  0  0  0  0  0  0
   27.4601  -12.9699  -16.5570 O   0  0  0  0  0  0  0  0  0  0  0  0
   26.8527  -14.9361  -17.7620 C   0  0  0  0  0  0  0  0  0  0  0  0
   26.2837  -16.2980  -17.5278 C   0  0  0  0  0  0  0  0  0  0  0  0
   27.1332  -17.2100  -16.6818 C   0  0  2  0  0  0  0  0  0  0  0  0
   28.3688  -17.3909  -17.4932 N   0  0  0  0  0  0  0  0  0  0  0  0
   26.5590  -18.5658  -16.4966 C   0  0  0  0  0  0  0  0  0  0  0  0
   25.2857  -18.7220  -16.4189 O   0  0  0  0  0  0  0  0  0  0  0  0
   27.3084  -19.7657  -16.3962 N   0  0  0  0  0  0  0  0  0  0  0  0
   26.6297  -21.0398  -16.1188 C   0  0  1  0  0  0  0  0  0  0  0  0
   27.5461  -22.1721  -16.4348 C   0  0  0  0  0  0  0  0  0  0  0  0
   26.9751  -23.5259  -16.3286 C   0  0  0  0  0  0  0  0  0  0  0  0
   25.6434  -23.8164  -15.9666 C   0  0  0  0  0  0  0  0  0  0  0  0
   25.4617  -25.1331  -15.9675 N   0  0  0  0  0  0  0  0  0  0  0  0
   26.6030  -25.7185  -16.3107 C   0  0  0  0  0  0  0  0  0  0  0  0
   27.4918  -24.7498  -16.5218 N   0  0  0  0  0  0  0  0  0  0  0  0
   26.2208  -21.1015  -14.7044 C   0  0  0  0  0  0  0  0  0  0  0  0
   27.0367  -20.7321  -13.8339 O   0  0  0  0  0  0  0  0  0  0  0  0
   26.4408  -19.9819   -9.9482 C   0  0  0  0  0  0  0  0  0  0  0  0
   26.3205  -20.9052  -11.1422 C   0  0  1  0  0  0  0  0  0  0  0  0
   25.6636  -22.1927  -10.5879 C   0  0  0  0  0  0  0  0  0  0  0  0
   25.4635  -20.3220  -12.2249 C   0  0  0  0  0  0  0  0  0  0  0  0
   24.6009  -21.3639  -12.8474 C   0  0  2  0  0  0  0  0  0  0  0  0
   24.9484  -21.5557  -14.2654 N   0  0  0  0  0  0  0  0  0  0  0  0
   23.1824  -20.9649  -12.8054 C   0  0  0  0  0  0  0  0  0  0  0  0
   22.4327  -21.1211  -11.8042 O   0  0  0  0  0  0  0  0  0  0  0  0
   22.6206  -20.3704  -13.9524 O   0  0  0  0  0  0  0  0  0  0  0  0
  1  2  1  0
  2  4  1  0
  2  3  2  0
  4  5  1  0
  5  6  1  0
  6  8  1  0
  6  7  1  6
  8 10  1  0
  8  9  2  0
 10 11  1  0
 11 12  1  1
 11 18  1  0
 13 12  1  0
 13 14  2  0
 15 14  1  0
 16 15  1  0
 17 16  2  0
 17 13  1  0
 18 19  2  0
 21 20  1  1
 21 23  1  0
 21 22  1  0
 24 23  1  6
 24 26  1  0
 25 24  1  0
 25 18  1  0
 26 28  1  0
 27 26  2  0
M  END
$$$$
