QHL.pdb
     RDKit          3D

 28 28  0  0  1  0  0  0  0  0999 V2000
   23.9911  -14.5436  -22.9851 N   0  0  0  0  0  0  0  0  0  0  0  0
   23.8429  -13.3338  -22.2730 C   0  0  0  0  0  0  0  0  0  0  0  0
   23.9165  -12.2678  -22.9166 O   0  0  0  0  0  0  0  0  0  0  0  0
   23.6079  -13.3372  -20.8075 C   0  0  0  0  0  0  0  0  0  0  0  0
   23.4922  -14.7062  -20.2194 C   0  0  0  0  0  0  0  0  0  0  0  0
   24.5404  -15.0535  -19.1950 C   0  0  2  0  0  0  0  0  0  0  0  0
   25.7970  -15.1290  -19.9906 N   0  0  0  0  0  0  0  0  0  0  0  0
   24.3601  -16.3923  -18.5806 C   0  0  0  0  0  0  0  0  0  0  0  0
   23.6821  -17.2967  -19.1922 O   0  0  0  0  0  0  0  0  0  0  0  0
   24.8891  -16.7965  -17.3283 N   0  0  0  0  0  0  0  0  0  0  0  0
   24.7539  -18.1914  -16.8846 C   0  0  1  0  0  0  0  0  0  0  0  0
   26.0132  -18.6264  -16.2162 C   0  0  0  0  0  0  0  0  0  0  0  0
   27.1650  -18.8885  -17.0964 C   0  0  0  0  0  0  0  0  0  0  0  0
   27.1446  -18.8001  -18.5037 C   0  0  0  0  0  0  0  0  0  0  0  0
   28.3474  -19.1003  -18.9835 N   0  0  0  0  0  0  0  0  0  0  0  0
   29.1524  -19.3800  -17.9653 C   0  0  0  0  0  0  0  0  0  0  0  0
   28.4346  -19.2495  -16.8515 N   0  0  0  0  0  0  0  0  0  0  0  0
   23.6182  -18.3220  -15.9547 C   0  0  0  0  0  0  0  0  0  0  0  0
   23.2545  -17.3120  -15.3163 O   0  0  0  0  0  0  0  0  0  0  0  0
   18.1718  -18.2850  -15.9026 C   0  0  0  0  0  0  0  0  0  0  0  0
   19.3451  -18.5427  -14.9808 C   0  0  1  0  0  0  0  0  0  0  0  0
   19.0420  -19.9091  -14.3194 C   0  0  0  0  0  0  0  0  0  0  0  0
   20.6445  -18.6143  -15.7247 C   0  0  0  0  0  0  0  0  0  0  0  0
   21.6338  -19.4576  -14.9986 C   0  0  2  0  0  0  0  0  0  0  0  0
   22.9050  -19.5313  -15.7382 N   0  0  0  0  0  0  0  0  0  0  0  0
   21.1415  -20.8398  -14.8565 C   0  0  0  0  0  0  0  0  0  0  0  0
   20.5943  -21.2926  -13.8151 O   0  0  0  0  0  0  0  0  0  0  0  0
   21.2875  -21.7174  -15.9489 O   0  0  0  0  0  0  0  0  0  0  0  0
  1  2  1  0
  2  4  1  0
  2  3  2  0
  4  5  1  0
  5  6  1  0
  6  8  1  0
  6  7  1  6
  8 10  1  0
  8  9  2  0
 10 11  1  0
 11 12  1  1
 11 18  1  0
 13 12  1  0
 13 14  2  0
 15 14  1  0
 16 15  1  0
 17 16  2  0
 17 13  1  0
 18 19  2  0
 21 20  1  6
 21 23  1  0
 21 22  1  0
 24 23  1  6
 24 26  1  0
 25 24  1  0
 25 18  1  0
 26 28  1  0
 27 26  2  0
M  END
$$$$
