QHL.pdb
     RDKit          3D

 28 28  0  0  1  0  0  0  0  0999 V2000
   19.5967  -25.0966   -7.0483 N   0  0  0  0  0  0  0  0  0  0  0  0
   18.7615  -24.0780   -7.5559 C   0  0  0  0  0  0  0  0  0  0  0  0
   18.9878  -23.6623   -8.7099 O   0  0  0  0  0  0  0  0  0  0  0  0
   17.6533  -23.5246   -6.7384 C   0  0  0  0  0  0  0  0  0  0  0  0
   17.5103  -24.1734   -5.3998 C   0  0  0  0  0  0  0  0  0  0  0  0
   17.1249  -25.6292   -5.4318 C   0  0  2  0  0  0  0  0  0  0  0  0
   15.6796  -25.6015   -5.7897 N   0  0  0  0  0  0  0  0  0  0  0  0
   17.2103  -26.3028   -4.1122 C   0  0  0  0  0  0  0  0  0  0  0  0
   16.3010  -26.1034   -3.2261 O   0  0  0  0  0  0  0  0  0  0  0  0
   18.2409  -27.1907   -3.7114 N   0  0  0  0  0  0  0  0  0  0  0  0
   18.1115  -27.9582   -2.4643 C   0  0  1  0  0  0  0  0  0  0  0  0
   18.6664  -29.3275   -2.6616 C   0  0  0  0  0  0  0  0  0  0  0  0
   18.5762  -30.2426   -1.5106 C   0  0  0  0  0  0  0  0  0  0  0  0
   18.1352  -29.8801   -0.2212 C   0  0  0  0  0  0  0  0  0  0  0  0
   18.1784  -30.9426    0.5764 N   0  0  0  0  0  0  0  0  0  0  0  0
   18.6240  -31.9797   -0.1228 C   0  0  0  0  0  0  0  0  0  0  0  0
   18.8556  -31.5471   -1.3605 N   0  0  0  0  0  0  0  0  0  0  0  0
   18.8268  -27.2769   -1.3708 C   0  0  0  0  0  0  0  0  0  0  0  0
   19.7919  -26.5394   -1.6615 O   0  0  0  0  0  0  0  0  0  0  0  0
   19.6499  -23.4167    2.4495 C   0  0  0  0  0  0  0  0  0  0  0  0
   19.7193  -24.1562    1.1300 C   0  0  1  0  0  0  0  0  0  0  0  0
   21.1038  -24.8486    1.1316 C   0  0  0  0  0  0  0  0  0  0  0  0
   18.6362  -25.1842    0.9995 C   0  0  0  0  0  0  0  0  0  0  0  0
   19.2025  -26.5610    0.9719 C   0  0  2  0  0  0  0  0  0  0  0  0
   18.4848  -27.4052    0.0021 N   0  0  0  0  0  0  0  0  0  0  0  0
   19.0658  -27.2114    2.2877 C   0  0  0  0  0  0  0  0  0  0  0  0
   17.9790  -27.6520    2.7498 O   0  0  0  0  0  0  0  0  0  0  0  0
   20.2177  -27.3539    3.0862 O   0  0  0  0  0  0  0  0  0  0  0  0
  1  2  1  0
  2  4  1  0
  2  3  2  0
  4  5  1  0
  5  6  1  0
  6  8  1  0
  6  7  1  1
  8 10  1  0
  8  9  2  0
 10 11  1  0
 11 12  1  6
 11 18  1  0
 13 12  1  0
 13 14  2  0
 15 14  1  0
 16 15  1  0
 17 16  2  0
 17 13  1  0
 18 19  2  0
 21 20  1  1
 21 23  1  0
 21 22  1  0
 24 23  1  1
 24 26  1  0
 25 24  1  0
 25 18  1  0
 26 28  1  0
 27 26  2  0
M  END
$$$$
