QHL.pdb
     RDKit          3D

 28 28  0  0  1  0  0  0  0  0999 V2000
   27.7175  -15.2773  -21.5616 N   0  0  0  0  0  0  0  0  0  0  0  0
   26.8324  -16.2059  -22.1506 C   0  0  0  0  0  0  0  0  0  0  0  0
   27.3136  -17.2703  -22.5883 O   0  0  0  0  0  0  0  0  0  0  0  0
   25.3792  -15.9191  -22.2430 C   0  0  0  0  0  0  0  0  0  0  0  0
   25.0012  -14.5598  -21.7502 C   0  0  0  0  0  0  0  0  0  0  0  0
   24.2002  -14.5411  -20.4747 C   0  0  2  0  0  0  0  0  0  0  0  0
   23.0180  -15.3898  -20.7905 N   0  0  0  0  0  0  0  0  0  0  0  0
   23.6647  -13.2031  -20.1207 C   0  0  0  0  0  0  0  0  0  0  0  0
   24.4646  -12.2101  -19.9595 O   0  0  0  0  0  0  0  0  0  0  0  0
   22.2931  -12.8923  -19.9375 N   0  0  0  0  0  0  0  0  0  0  0  0
   21.8808  -11.5116  -19.6468 C   0  0  1  0  0  0  0  0  0  0  0  0
   20.3930  -11.4356  -19.5965 C   0  0  0  0  0  0  0  0  0  0  0  0
   19.8119  -10.0954  -19.4051 C   0  0  0  0  0  0  0  0  0  0  0  0
   20.5452   -8.8911  -19.3825 C   0  0  0  0  0  0  0  0  0  0  0  0
   19.7151   -7.8710  -19.1900 N   0  0  0  0  0  0  0  0  0  0  0  0
   18.4789   -8.3442  -19.0856 C   0  0  0  0  0  0  0  0  0  0  0  0
   18.5538   -9.6671  -19.2156 N   0  0  0  0  0  0  0  0  0  0  0  0
   22.4520  -11.0695  -18.3623 C   0  0  0  0  0  0  0  0  0  0  0  0
   22.5074  -11.8909  -17.4231 O   0  0  0  0  0  0  0  0  0  0  0  0
   26.2841  -11.1440  -14.9010 C   0  0  0  0  0  0  0  0  0  0  0  0
   25.6306   -9.9051  -15.4760 C   0  0  1  0  0  0  0  0  0  0  0  0
   26.7927   -8.9075  -15.7013 C   0  0  0  0  0  0  0  0  0  0  0  0
   24.9381  -10.1819  -16.7763 C   0  0  0  0  0  0  0  0  0  0  0  0
   23.6153   -9.5010  -16.8364 C   0  0  2  0  0  0  0  0  0  0  0  0
   22.9487   -9.7602  -18.1236 N   0  0  0  0  0  0  0  0  0  0  0  0
   23.7713   -8.0397  -16.7227 C   0  0  0  0  0  0  0  0  0  0  0  0
   23.8306   -7.2555  -17.7078 O   0  0  0  0  0  0  0  0  0  0  0  0
   23.8603   -7.4746  -15.4352 O   0  0  0  0  0  0  0  0  0  0  0  0
  1  2  1  0
  2  4  1  0
  2  3  2  0
  4  5  1  0
  5  6  1  0
  6  8  1  0
  6  7  1  6
  8 10  1  0
  8  9  2  0
 10 11  1  0
 11 12  1  1
 11 18  1  0
 13 12  1  0
 13 14  2  0
 15 14  1  0
 16 15  1  0
 17 16  2  0
 17 13  1  0
 18 19  2  0
 21 20  1  6
 21 23  1  0
 21 22  1  0
 24 23  1  6
 24 26  1  0
 25 24  1  0
 25 18  1  0
 26 28  1  0
 27 26  2  0
M  END
$$$$
