QHL.pdb
     RDKit          3D

 28 28  0  0  1  0  0  0  0  0999 V2000
   27.2483  -23.1445  -19.3942 N   0  0  0  0  0  0  0  0  0  0  0  0
   27.1317  -24.5165  -19.7052 C   0  0  0  0  0  0  0  0  0  0  0  0
   26.2863  -24.8488  -20.5601 O   0  0  0  0  0  0  0  0  0  0  0  0
   27.9891  -25.5246  -19.0334 C   0  0  0  0  0  0  0  0  0  0  0  0
   28.8977  -24.9475  -17.9967 C   0  0  0  0  0  0  0  0  0  0  0  0
   28.6455  -25.4209  -16.5892 C   0  0  2  0  0  0  0  0  0  0  0  0
   28.9457  -26.8782  -16.6501 N   0  0  0  0  0  0  0  0  0  0  0  0
   27.2287  -25.3090  -16.1622 C   0  0  0  0  0  0  0  0  0  0  0  0
   26.4667  -26.3439  -16.1776 O   0  0  0  0  0  0  0  0  0  0  0  0
   26.6003  -24.1197  -15.7128 N   0  0  0  0  0  0  0  0  0  0  0  0
   25.2024  -24.1485  -15.2592 C   0  0  1  0  0  0  0  0  0  0  0  0
   24.8897  -22.8885  -14.5266 C   0  0  0  0  0  0  0  0  0  0  0  0
   23.5193  -22.7591  -14.0018 C   0  0  0  0  0  0  0  0  0  0  0  0
   22.9822  -23.5222  -12.9445 C   0  0  0  0  0  0  0  0  0  0  0  0
   21.7242  -23.1524  -12.7263 N   0  0  0  0  0  0  0  0  0  0  0  0
   21.4107  -22.1887  -13.5842 C   0  0  0  0  0  0  0  0  0  0  0  0
   22.4878  -21.9669  -14.3347 N   0  0  0  0  0  0  0  0  0  0  0  0
   24.2963  -24.3001  -16.4114 C   0  0  0  0  0  0  0  0  0  0  0  0
   24.7804  -24.2304  -17.5606 O   0  0  0  0  0  0  0  0  0  0  0  0
   21.4726  -27.0481  -19.2112 C   0  0  0  0  0  0  0  0  0  0  0  0
   22.3021  -27.7502  -18.1568 C   0  0  1  0  0  0  0  0  0  0  0  0
   23.3868  -28.5205  -18.9483 C   0  0  0  0  0  0  0  0  0  0  0  0
   22.9511  -26.7848  -17.2114 C   0  0  0  0  0  0  0  0  0  0  0  0
   22.2713  -25.4605  -17.2449 C   0  0  2  0  0  0  0  0  0  0  0  0
   22.8981  -24.5238  -16.2972 N   0  0  0  0  0  0  0  0  0  0  0  0
   20.8569  -25.5861  -16.8490 C   0  0  0  0  0  0  0  0  0  0  0  0
   19.8892  -25.1630  -17.5371 O   0  0  0  0  0  0  0  0  0  0  0  0
   20.5583  -26.2179  -15.6257 O   0  0  0  0  0  0  0  0  0  0  0  0
  1  2  1  0
  2  4  1  0
  2  3  2  0
  4  5  1  0
  5  6  1  0
  6  8  1  0
  6  7  1  6
  8 10  1  0
  8  9  2  0
 10 11  1  0
 11 12  1  6
 11 18  1  0
 13 12  1  0
 13 14  2  0
 15 14  1  0
 16 15  1  0
 17 16  2  0
 17 13  1  0
 18 19  2  0
 21 20  1  6
 21 23  1  0
 21 22  1  0
 24 23  1  1
 24 26  1  0
 25 24  1  0
 25 18  1  0
 26 28  1  0
 27 26  2  0
M  END
$$$$
