QHL.pdb
     RDKit          3D

 28 28  0  0  1  0  0  0  0  0999 V2000
   29.3383  -18.1133  -19.3769 N   0  0  0  0  0  0  0  0  0  0  0  0
   29.6690  -19.3671  -19.9347 C   0  0  0  0  0  0  0  0  0  0  0  0
   30.6090  -19.4091  -20.7536 O   0  0  0  0  0  0  0  0  0  0  0  0
   28.9191  -20.5904  -19.5556 C   0  0  0  0  0  0  0  0  0  0  0  0
   27.9130  -20.3687  -18.4729 C   0  0  0  0  0  0  0  0  0  0  0  0
   28.4208  -20.5896  -17.0721 C   0  0  2  0  0  0  0  0  0  0  0  0
   28.4513  -22.0726  -16.9399 N   0  0  0  0  0  0  0  0  0  0  0  0
   27.5012  -20.0999  -16.0152 C   0  0  0  0  0  0  0  0  0  0  0  0
   27.1764  -18.8574  -15.9678 O   0  0  0  0  0  0  0  0  0  0  0  0
   26.9123  -20.9033  -15.0057 N   0  0  0  0  0  0  0  0  0  0  0  0
   25.8431  -20.3577  -14.1572 C   0  0  1  0  0  0  0  0  0  0  0  0
   24.5165  -20.7431  -14.7171 C   0  0  0  0  0  0  0  0  0  0  0  0
   23.3338  -20.3353  -13.9391 C   0  0  0  0  0  0  0  0  0  0  0  0
   22.5757  -21.1892  -13.1116 C   0  0  0  0  0  0  0  0  0  0  0  0
   21.5810  -20.5019  -12.5595 N   0  0  0  0  0  0  0  0  0  0  0  0
   21.6485  -19.2449  -12.9817 C   0  0  0  0  0  0  0  0  0  0  0  0
   22.6952  -19.1626  -13.8005 N   0  0  0  0  0  0  0  0  0  0  0  0
   25.9763  -20.8660  -12.7805 C   0  0  0  0  0  0  0  0  0  0  0  0
   26.1743  -22.0881  -12.6154 O   0  0  0  0  0  0  0  0  0  0  0  0
   27.8105  -19.6521   -7.0853 C   0  0  0  0  0  0  0  0  0  0  0  0
   26.9190  -20.4468   -8.0161 C   0  0  1  0  0  0  0  0  0  0  0  0
   25.5144  -20.3930   -7.3677 C   0  0  0  0  0  0  0  0  0  0  0  0
   26.8673  -19.8554   -9.3925 C   0  0  0  0  0  0  0  0  0  0  0  0
   26.0504  -20.6978  -10.3090 C   0  0  2  0  0  0  0  0  0  0  0  0
   25.8952  -20.0485  -11.6216 N   0  0  0  0  0  0  0  0  0  0  0  0
   24.6937  -20.8982   -9.7686 C   0  0  0  0  0  0  0  0  0  0  0  0
   23.7519  -20.0700   -9.8955 O   0  0  0  0  0  0  0  0  0  0  0  0
   24.4232  -22.0879   -9.0641 O   0  0  0  0  0  0  0  0  0  0  0  0
  1  2  1  0
  2  4  1  0
  2  3  2  0
  4  5  1  0
  5  6  1  0
  6  8  1  0
  6  7  1  1
  8 10  1  0
  8  9  2  0
 10 11  1  0
 11 12  1  6
 11 18  1  0
 13 12  1  0
 13 14  2  0
 15 14  1  0
 16 15  1  0
 17 16  2  0
 17 13  1  0
 18 19  2  0
 21 20  1  1
 21 23  1  0
 21 22  1  0
 24 23  1  1
 24 26  1  0
 25 24  1  0
 25 18  1  0
 26 28  1  0
 27 26  2  0
M  END
$$$$
