QQA.pdb
     RDKit          3D

 24 23  0  0  1  0  0  0  0  0999 V2000
   18.0747  -16.7345  -15.4334 N   0  0  0  0  0  0  0  0  0  0  0  0
   16.8431  -16.5188  -14.7830 C   0  0  0  0  0  0  0  0  0  0  0  0
   16.3153  -17.5353  -14.2273 O   0  0  0  0  0  0  0  0  0  0  0  0
   16.1881  -15.1699  -14.7454 C   0  0  0  0  0  0  0  0  0  0  0  0
   17.1094  -14.2095  -15.4153 C   0  0  0  0  0  0  0  0  0  0  0  0
   16.5036  -13.3751  -16.4927 C   0  0  2  0  0  0  0  0  0  0  0  0
   16.3326  -14.2238  -17.6579 N   0  0  0  0  0  0  0  0  0  0  0  0
   17.2777  -12.1523  -16.8209 C   0  0  0  0  0  0  0  0  0  0  0  0
   18.0562  -12.1358  -17.8069 O   0  0  0  0  0  0  0  0  0  0  0  0
   15.3941   -6.4069  -17.2105 N   0  0  0  0  0  0  0  0  0  0  0  0
   15.2299   -7.5206  -18.0763 C   0  0  0  0  0  0  0  0  0  0  0  0
   14.3664   -7.3964  -18.9738 O   0  0  0  0  0  0  0  0  0  0  0  0
   16.0749   -8.7121  -17.8598 C   0  0  0  0  0  0  0  0  0  0  0  0
   17.0585   -8.5983  -16.7745 C   0  0  0  0  0  0  0  0  0  0  0  0
   17.9001   -9.7625  -16.4179 C   0  0  2  0  0  0  0  0  0  0  0  0
   17.1882  -10.9576  -16.0603 N   0  0  0  0  0  0  0  0  0  0  0  0
   18.9295   -9.4418  -15.3801 C   0  0  0  0  0  0  0  0  0  0  0  0
   18.6559   -9.4486  -14.1596 O   0  0  0  0  0  0  0  0  0  0  0  0
   22.6105   -8.6519  -15.3105 C   0  0  0  0  0  0  0  0  0  0  0  0
   21.2117   -8.7447  -14.7375 C   0  0  2  0  0  0  0  0  0  0  0  0
   20.2535   -9.1189  -15.7604 N   0  0  0  0  0  0  0  0  0  0  0  0
   20.8452   -7.3745  -14.2817 C   0  0  0  0  0  0  0  0  0  0  0  0
   20.1025   -6.6190  -14.9861 O   0  0  0  0  0  0  0  0  0  0  0  0
   21.2855   -6.8406  -13.0734 O   0  0  0  0  0  0  0  0  0  0  0  0
  1  2  1  0
  2  4  1  0
  2  3  2  0
  4  5  1  0
  6  8  1  0
  6  5  1  0
  6  7  1  6
  8 16  1  0
  9  8  2  0
 11 10  1  0
 11 13  1  0
 12 11  2  0
 14 13  1  0
 15 14  1  1
 15 17  1  0
 16 15  1  0
 17 18  2  0
 20 19  1  6
 20 22  1  0
 21 20  1  0
 21 17  1  0
 22 23  2  0
 22 24  1  0
M  END
$$$$
