QQA.pdb
     RDKit          3D

 24 23  0  0  1  0  0  0  0  0999 V2000
   21.2481  -14.1081  -20.6894 N   0  0  0  0  0  0  0  0  0  0  0  0
   22.4817  -14.2686  -20.0269 C   0  0  0  0  0  0  0  0  0  0  0  0
   22.6237  -15.3406  -19.3553 O   0  0  0  0  0  0  0  0  0  0  0  0
   23.5680  -13.2372  -20.1062 C   0  0  0  0  0  0  0  0  0  0  0  0
   22.9378  -11.9084  -19.8677 C   0  0  0  0  0  0  0  0  0  0  0  0
   23.5016  -11.1178  -18.7359 C   0  0  2  0  0  0  0  0  0  0  0  0
   23.7492  -12.0383  -17.6412 N   0  0  0  0  0  0  0  0  0  0  0  0
   22.6504   -9.9805  -18.3067 C   0  0  0  0  0  0  0  0  0  0  0  0
   22.3167   -9.0888  -19.1264 O   0  0  0  0  0  0  0  0  0  0  0  0
   17.8257  -10.2703  -14.5291 N   0  0  0  0  0  0  0  0  0  0  0  0
   17.8324   -8.8761  -14.7998 C   0  0  0  0  0  0  0  0  0  0  0  0
   16.8563   -8.2266  -14.3618 O   0  0  0  0  0  0  0  0  0  0  0  0
   18.9674   -8.3106  -15.5563 C   0  0  0  0  0  0  0  0  0  0  0  0
   19.9746   -9.2829  -16.0021 C   0  0  0  0  0  0  0  0  0  0  0  0
   21.2411   -8.8085  -16.6034 C   0  0  2  0  0  0  0  0  0  0  0  0
   22.1736   -9.8347  -16.9780 N   0  0  0  0  0  0  0  0  0  0  0  0
   21.9235   -7.7640  -15.7771 C   0  0  0  0  0  0  0  0  0  0  0  0
   22.6685   -8.0675  -14.8192 O   0  0  0  0  0  0  0  0  0  0  0  0
   22.2539   -4.0115  -15.8398 C   0  0  0  0  0  0  0  0  0  0  0  0
   22.4451   -5.4020  -15.2710 C   0  0  2  0  0  0  0  0  0  0  0  0
   21.7395   -6.3908  -16.0640 N   0  0  0  0  0  0  0  0  0  0  0  0
   21.8159   -5.4011  -13.9205 C   0  0  0  0  0  0  0  0  0  0  0  0
   20.6448   -5.8625  -13.7355 O   0  0  0  0  0  0  0  0  0  0  0  0
   22.4595   -4.9027  -12.7909 O   0  0  0  0  0  0  0  0  0  0  0  0
  1  2  1  0
  2  4  1  0
  2  3  2  0
  4  5  1  0
  6  8  1  0
  6  5  1  0
  6  7  1  1
  8 16  1  0
  9  8  2  0
 11 10  1  0
 11 13  1  0
 12 11  2  0
 14 13  1  0
 15 14  1  1
 15 17  1  0
 16 15  1  0
 17 18  2  0
 20 19  1  6
 20 22  1  0
 21 20  1  0
 21 17  1  0
 22 23  2  0
 22 24  1  0
M  END
$$$$
