QQA.pdb
     RDKit          3D

 24 23  0  0  1  0  0  0  0  0999 V2000
   28.6074  -18.4062   -6.8868 N   0  0  0  0  0  0  0  0  0  0  0  0
   27.7994  -19.1387   -5.9939 C   0  0  0  0  0  0  0  0  0  0  0  0
   27.7458  -18.7041   -4.7986 O   0  0  0  0  0  0  0  0  0  0  0  0
   27.0442  -20.3614   -6.4238 C   0  0  0  0  0  0  0  0  0  0  0  0
   27.3018  -20.5546   -7.8785 C   0  0  0  0  0  0  0  0  0  0  0  0
   26.2424  -20.0468   -8.7970 C   0  0  2  0  0  0  0  0  0  0  0  0
   24.9799  -20.6190   -8.3657 N   0  0  0  0  0  0  0  0  0  0  0  0
   26.5007  -20.3218  -10.2322 C   0  0  0  0  0  0  0  0  0  0  0  0
   27.6316  -20.0965  -10.7312 O   0  0  0  0  0  0  0  0  0  0  0  0
   23.5972  -24.4540  -14.0175 N   0  0  0  0  0  0  0  0  0  0  0  0
   24.4056  -23.7594  -14.9562 C   0  0  0  0  0  0  0  0  0  0  0  0
   24.3972  -24.2059  -16.1254 O   0  0  0  0  0  0  0  0  0  0  0  0
   25.1738  -22.5864  -14.4929 C   0  0  0  0  0  0  0  0  0  0  0  0
   24.9885  -22.2300  -13.0797 C   0  0  0  0  0  0  0  0  0  0  0  0
   25.7783  -21.1264  -12.4886 C   0  0  2  0  0  0  0  0  0  0  0  0
   25.5113  -20.8426  -11.1062 N   0  0  0  0  0  0  0  0  0  0  0  0
   25.7187  -19.8687  -13.2973 C   0  0  0  0  0  0  0  0  0  0  0  0
   24.8046  -19.0294  -13.1400 O   0  0  0  0  0  0  0  0  0  0  0  0
   27.9461  -18.0159  -15.6665 C   0  0  0  0  0  0  0  0  0  0  0  0
   26.6074  -18.3832  -15.0610 C   0  0  2  0  0  0  0  0  0  0  0  0
   26.7079  -19.5960  -14.2714 N   0  0  0  0  0  0  0  0  0  0  0  0
   25.6920  -18.6815  -16.1980 C   0  0  0  0  0  0  0  0  0  0  0  0
   25.5027  -19.8735  -16.6003 O   0  0  0  0  0  0  0  0  0  0  0  0
   24.9952  -17.6897  -16.8831 O   0  0  0  0  0  0  0  0  0  0  0  0
  1  2  1  0
  2  4  1  0
  2  3  2  0
  4  5  1  0
  6  8  1  0
  6  5  1  0
  6  7  1  1
  8 16  1  0
  9  8  2  0
 11 10  1  0
 11 13  1  0
 12 11  2  0
 14 13  1  0
 15 14  1  6
 15 17  1  0
 16 15  1  0
 17 18  2  0
 20 19  1  6
 20 22  1  0
 21 20  1  0
 21 17  1  0
 22 23  2  0
 22 24  1  0
M  END
$$$$
