QQA.pdb
     RDKit          3D

 24 23  0  0  1  0  0  0  0  0999 V2000
   20.8625  -23.9446  -14.8289 N   0  0  0  0  0  0  0  0  0  0  0  0
   20.7200  -23.0640  -13.7377 C   0  0  0  0  0  0  0  0  0  0  0  0
   21.2973  -21.9347  -13.8478 O   0  0  0  0  0  0  0  0  0  0  0  0
   19.9338  -23.4326  -12.5146 C   0  0  0  0  0  0  0  0  0  0  0  0
   19.3990  -24.8068  -12.7273 C   0  0  0  0  0  0  0  0  0  0  0  0
   19.6576  -25.7800  -11.6273 C   0  0  2  0  0  0  0  0  0  0  0  0
   20.0119  -27.0473  -12.2402 N   0  0  0  0  0  0  0  0  0  0  0  0
   18.5295  -25.9340  -10.6756 C   0  0  0  0  0  0  0  0  0  0  0  0
   17.4829  -26.5380  -11.0196 O   0  0  0  0  0  0  0  0  0  0  0  0
   18.6434  -26.2652   -4.4027 N   0  0  0  0  0  0  0  0  0  0  0  0
   17.2545  -26.0589   -4.6158 C   0  0  0  0  0  0  0  0  0  0  0  0
   16.5292  -26.1054   -3.5968 O   0  0  0  0  0  0  0  0  0  0  0  0
   16.7827  -25.8061   -5.9920 C   0  0  0  0  0  0  0  0  0  0  0  0
   17.8327  -25.7514   -7.0181 C   0  0  0  0  0  0  0  0  0  0  0  0
   17.4643  -25.5728   -8.4405 C   0  0  2  0  0  0  0  0  0  0  0  0
   18.5633  -25.4214   -9.3527 N   0  0  0  0  0  0  0  0  0  0  0  0
   16.4618  -24.4818   -8.6505 C   0  0  0  0  0  0  0  0  0  0  0  0
   16.8095  -23.2884   -8.7905 O   0  0  0  0  0  0  0  0  0  0  0  0
   12.8495  -24.2602   -9.5538 C   0  0  0  0  0  0  0  0  0  0  0  0
   14.1356  -23.7118   -8.9718 C   0  0  2  0  0  0  0  0  0  0  0  0
   15.0792  -24.7787   -8.6962 N   0  0  0  0  0  0  0  0  0  0  0  0
   13.7831  -23.0964   -7.6616 C   0  0  0  0  0  0  0  0  0  0  0  0
   13.0010  -22.0956   -7.5892 O   0  0  0  0  0  0  0  0  0  0  0  0
   14.2797  -23.5700   -6.4500 O   0  0  0  0  0  0  0  0  0  0  0  0
  1  2  1  0
  2  4  1  0
  2  3  2  0
  4  5  1  0
  6  8  1  0
  6  5  1  0
  6  7  1  6
  8 16  1  0
  9  8  2  0
 11 10  1  0
 11 13  1  0
 12 11  2  0
 14 13  1  0
 15 14  1  1
 15 17  1  0
 16 15  1  0
 17 18  2  0
 20 19  1  1
 20 22  1  0
 21 20  1  0
 21 17  1  0
 22 23  2  0
 22 24  1  0
M  END
$$$$
