QQA.pdb
     RDKit          3D

 24 23  0  0  1  0  0  0  0  0999 V2000
   20.3193  -12.2970  -17.0185 N   0  0  0  0  0  0  0  0  0  0  0  0
   19.5101  -13.3507  -16.5479 C   0  0  0  0  0  0  0  0  0  0  0  0
   19.9240  -14.5295  -16.7921 O   0  0  0  0  0  0  0  0  0  0  0  0
   18.2331  -13.1014  -15.8014 C   0  0  0  0  0  0  0  0  0  0  0  0
   18.1475  -11.6365  -15.5437 C   0  0  0  0  0  0  0  0  0  0  0  0
   16.9657  -11.1858  -14.7536 C   0  0  2  0  0  0  0  0  0  0  0  0
   15.7824  -11.4387  -15.5554 N   0  0  0  0  0  0  0  0  0  0  0  0
   17.0324   -9.7693  -14.3165 C   0  0  0  0  0  0  0  0  0  0  0  0
   16.5519   -8.8570  -15.0344 O   0  0  0  0  0  0  0  0  0  0  0  0
   15.9107   -7.0393   -8.9933 N   0  0  0  0  0  0  0  0  0  0  0  0
   16.6425   -5.9889   -9.6083 C   0  0  0  0  0  0  0  0  0  0  0  0
   16.6897   -4.9092   -8.9772 O   0  0  0  0  0  0  0  0  0  0  0  0
   17.2818   -6.2463  -10.9142 C   0  0  0  0  0  0  0  0  0  0  0  0
   17.1155   -7.6081  -11.4399 C   0  0  0  0  0  0  0  0  0  0  0  0
   17.7612   -7.9892  -12.7161 C   0  0  2  0  0  0  0  0  0  0  0  0
   17.6279   -9.3690  -13.0920 N   0  0  0  0  0  0  0  0  0  0  0  0
   19.1947   -7.5667  -12.7931 C   0  0  0  0  0  0  0  0  0  0  0  0
   20.0552   -8.0162  -12.0044 O   0  0  0  0  0  0  0  0  0  0  0  0
   21.3094   -5.5379  -15.1512 C   0  0  0  0  0  0  0  0  0  0  0  0
   21.0258   -6.3146  -13.8823 C   0  0  2  0  0  0  0  0  0  0  0  0
   19.6156   -6.6368  -13.7729 N   0  0  0  0  0  0  0  0  0  0  0  0
   21.3524   -5.4089  -12.7454 C   0  0  0  0  0  0  0  0  0  0  0  0
   20.4389   -4.9011  -12.0200 O   0  0  0  0  0  0  0  0  0  0  0  0
   22.6590   -5.0650  -12.4088 O   0  0  0  0  0  0  0  0  0  0  0  0
  1  2  1  0
  2  4  1  0
  2  3  2  0
  4  5  1  0
  6  8  1  0
  6  5  1  0
  6  7  1  6
  8 16  1  0
  9  8  2  0
 11 10  1  0
 11 13  1  0
 12 11  2  0
 14 13  1  0
 15 14  1  1
 15 17  1  0
 16 15  1  0
 17 18  2  0
 20 19  1  6
 20 22  1  0
 21 20  1  0
 21 17  1  0
 22 23  2  0
 22 24  1  0
M  END
$$$$
