QQA.pdb
     RDKit          3D

 24 23  0  0  1  0  0  0  0  0999 V2000
   17.0920  -13.2421  -18.1643 N   0  0  0  0  0  0  0  0  0  0  0  0
   18.4006  -13.3988  -17.6648 C   0  0  0  0  0  0  0  0  0  0  0  0
   19.0754  -14.3634  -18.1493 O   0  0  0  0  0  0  0  0  0  0  0  0
   18.9695  -12.4834  -16.6215 C   0  0  0  0  0  0  0  0  0  0  0  0
   17.9194  -11.4796  -16.2905 C   0  0  0  0  0  0  0  0  0  0  0  0
   17.6816  -11.2463  -14.8369 C   0  0  2  0  0  0  0  0  0  0  0  0
   16.4540  -11.9338  -14.4797 N   0  0  0  0  0  0  0  0  0  0  0  0
   17.6330   -9.8139  -14.4522 C   0  0  0  0  0  0  0  0  0  0  0  0
   16.8683   -9.0179  -15.0524 O   0  0  0  0  0  0  0  0  0  0  0  0
   16.7394   -6.7920   -9.2483 N   0  0  0  0  0  0  0  0  0  0  0  0
   15.8279   -7.3773  -10.1667 C   0  0  0  0  0  0  0  0  0  0  0  0
   14.6513   -7.5134   -9.7621 O   0  0  0  0  0  0  0  0  0  0  0  0
   16.3252   -7.7678  -11.5012 C   0  0  0  0  0  0  0  0  0  0  0  0
   17.7711   -7.6077  -11.7065 C   0  0  0  0  0  0  0  0  0  0  0  0
   18.3617   -7.8846  -13.0352 C   0  0  2  0  0  0  0  0  0  0  0  0
   18.4271   -9.2698  -13.4095 N   0  0  0  0  0  0  0  0  0  0  0  0
   19.6942   -7.2316  -13.2285 C   0  0  0  0  0  0  0  0  0  0  0  0
   20.7488   -7.7524  -12.8029 O   0  0  0  0  0  0  0  0  0  0  0  0
   21.0133   -4.2986  -15.1769 C   0  0  0  0  0  0  0  0  0  0  0  0
   21.1065   -5.4505  -14.1981 C   0  0  2  0  0  0  0  0  0  0  0  0
   19.7934   -5.9935  -13.9061 N   0  0  0  0  0  0  0  0  0  0  0  0
   21.6349   -4.8867  -12.9243 C   0  0  0  0  0  0  0  0  0  0  0  0
   20.8803   -4.7092  -11.9156 O   0  0  0  0  0  0  0  0  0  0  0  0
   22.9687   -4.5233  -12.7585 O   0  0  0  0  0  0  0  0  0  0  0  0
  1  2  1  0
  2  4  1  0
  2  3  2  0
  4  5  1  0
  6  8  1  0
  6  5  1  0
  6  7  1  6
  8 16  1  0
  9  8  2  0
 11 10  1  0
 11 13  1  0
 12 11  2  0
 14 13  1  0
 15 14  1  1
 15 17  1  0
 16 15  1  0
 17 18  2  0
 20 19  1  6
 20 22  1  0
 21 20  1  0
 21 17  1  0
 22 23  2  0
 22 24  1  0
M  END
$$$$
