QQA.pdb
     RDKit          3D

 24 23  0  0  1  0  0  0  0  0999 V2000
   12.6459  -11.2640  -13.7345 N   0  0  0  0  0  0  0  0  0  0  0  0
   13.0811  -11.4802  -15.0576 C   0  0  0  0  0  0  0  0  0  0  0  0
   12.1924  -11.8588  -15.8867 O   0  0  0  0  0  0  0  0  0  0  0  0
   14.5091  -11.2768  -15.4692 C   0  0  0  0  0  0  0  0  0  0  0  0
   15.2427  -10.7502  -14.2841 C   0  0  0  0  0  0  0  0  0  0  0  0
   16.6733  -10.3964  -14.5126 C   0  0  2  0  0  0  0  0  0  0  0  0
   17.4019  -11.6351  -14.7176 N   0  0  0  0  0  0  0  0  0  0  0  0
   17.2782   -9.5842  -13.4279 C   0  0  0  0  0  0  0  0  0  0  0  0
   17.7965  -10.1406  -12.4278 O   0  0  0  0  0  0  0  0  0  0  0  0
   22.1311   -5.7023  -12.7707 N   0  0  0  0  0  0  0  0  0  0  0  0
   20.9591   -4.9772  -12.4279 C   0  0  0  0  0  0  0  0  0  0  0  0
   21.0037   -3.7404  -12.6145 O   0  0  0  0  0  0  0  0  0  0  0  0
   19.8010   -5.7215  -11.8937 C   0  0  0  0  0  0  0  0  0  0  0  0
   19.0810   -6.5514  -12.8690 C   0  0  0  0  0  0  0  0  0  0  0  0
   17.9447   -7.3903  -12.4262 C   0  0  2  0  0  0  0  0  0  0  0  0
   17.3074   -8.1655  -13.4536 N   0  0  0  0  0  0  0  0  0  0  0  0
   16.9234   -6.6238  -11.6459 C   0  0  0  0  0  0  0  0  0  0  0  0
   16.0904   -5.8790  -12.2082 O   0  0  0  0  0  0  0  0  0  0  0  0
   15.7811   -6.4600   -8.0658 C   0  0  0  0  0  0  0  0  0  0  0  0
   15.8449   -6.0073   -9.5096 C   0  0  2  0  0  0  0  0  0  0  0  0
   16.8757   -6.7249  -10.2355 N   0  0  0  0  0  0  0  0  0  0  0  0
   16.2480   -4.5732   -9.4899 C   0  0  0  0  0  0  0  0  0  0  0  0
   17.3621   -4.1920   -9.9716 O   0  0  0  0  0  0  0  0  0  0  0  0
   15.4432   -3.5728   -8.9512 O   0  0  0  0  0  0  0  0  0  0  0  0
  1  2  1  0
  2  4  1  0
  2  3  2  0
  4  5  1  0
  6  8  1  0
  6  5  1  0
  6  7  1  1
  8 16  1  0
  9  8  2  0
 11 10  1  0
 11 13  1  0
 12 11  2  0
 14 13  1  0
 15 14  1  6
 15 17  1  0
 16 15  1  0
 17 18  2  0
 20 19  1  1
 20 22  1  0
 21 20  1  0
 21 17  1  0
 22 23  2  0
 22 24  1  0
M  END
$$$$
