QQA.pdb
     RDKit          3D

 24 23  0  0  1  0  0  0  0  0999 V2000
   26.2927  -21.6781  -10.8007 N   0  0  0  0  0  0  0  0  0  0  0  0
   24.9059  -21.4299  -10.7569 C   0  0  0  0  0  0  0  0  0  0  0  0
   24.3533  -21.5270   -9.6143 O   0  0  0  0  0  0  0  0  0  0  0  0
   24.1223  -21.0713  -11.9847 C   0  0  0  0  0  0  0  0  0  0  0  0
   25.0474  -21.1731  -13.1481 C   0  0  0  0  0  0  0  0  0  0  0  0
   25.5930  -19.8818  -13.6568 C   0  0  2  0  0  0  0  0  0  0  0  0
   24.9618  -18.8140  -12.9026 N   0  0  0  0  0  0  0  0  0  0  0  0
   25.4260  -19.6861  -15.1182 C   0  0  0  0  0  0  0  0  0  0  0  0
   25.9284  -20.5006  -15.9323 O   0  0  0  0  0  0  0  0  0  0  0  0
   20.8901  -17.7356  -16.2365 N   0  0  0  0  0  0  0  0  0  0  0  0
   21.0731  -19.0845  -16.6413 C   0  0  0  0  0  0  0  0  0  0  0  0
   20.1564  -19.8796  -16.3347 O   0  0  0  0  0  0  0  0  0  0  0  0
   22.3013  -19.4378  -17.3810 C   0  0  0  0  0  0  0  0  0  0  0  0
   23.2288  -18.3259  -17.6300 C   0  0  0  0  0  0  0  0  0  0  0  0
   24.6050  -18.3790  -17.0877 C   0  0  2  0  0  0  0  0  0  0  0  0
   24.7068  -18.5948  -15.6713 N   0  0  0  0  0  0  0  0  0  0  0  0
   25.4376  -17.2039  -17.4944 C   0  0  0  0  0  0  0  0  0  0  0  0
   25.4680  -16.1539  -16.8154 O   0  0  0  0  0  0  0  0  0  0  0  0
   28.3582  -16.5488  -19.6248 C   0  0  0  0  0  0  0  0  0  0  0  0
   27.0378  -16.1095  -19.0271 C   0  0  2  0  0  0  0  0  0  0  0  0
   26.2202  -17.2541  -18.6722 N   0  0  0  0  0  0  0  0  0  0  0  0
   26.3091  -15.3721  -20.0970 C   0  0  0  0  0  0  0  0  0  0  0  0
   25.3124  -15.8884  -20.6959 O   0  0  0  0  0  0  0  0  0  0  0  0
   26.6668  -14.0895  -20.5042 O   0  0  0  0  0  0  0  0  0  0  0  0
  1  2  1  0
  2  4  1  0
  2  3  2  0
  4  5  1  0
  6  8  1  0
  6  5  1  0
  6  7  1  1
  8 16  1  0
  9  8  2  0
 11 10  1  0
 11 13  1  0
 12 11  2  0
 14 13  1  0
 15 14  1  1
 15 17  1  0
 16 15  1  0
 17 18  2  0
 20 19  1  6
 20 22  1  0
 21 20  1  0
 21 17  1  0
 22 23  2  0
 22 24  1  0
M  END
$$$$
