QQA.pdb
     RDKit          3D

 24 23  0  0  1  0  0  0  0  0999 V2000
   25.9052  -19.9288   -8.2606 N   0  0  0  0  0  0  0  0  0  0  0  0
   24.9426  -20.9413   -8.4473 C   0  0  0  0  0  0  0  0  0  0  0  0
   24.1739  -21.1751   -7.4599 O   0  0  0  0  0  0  0  0  0  0  0  0
   24.8272  -21.7023   -9.7348 C   0  0  0  0  0  0  0  0  0  0  0  0
   25.7960  -21.1021  -10.6945 C   0  0  0  0  0  0  0  0  0  0  0  0
   25.1976  -20.4242  -11.8803 C   0  0  2  0  0  0  0  0  0  0  0  0
   24.4239  -21.4156  -12.6054 N   0  0  0  0  0  0  0  0  0  0  0  0
   26.1877  -19.7574  -12.7619 C   0  0  0  0  0  0  0  0  0  0  0  0
   27.0412  -18.9704  -12.2817 O   0  0  0  0  0  0  0  0  0  0  0  0
   29.4326  -21.6556  -17.7403 N   0  0  0  0  0  0  0  0  0  0  0  0
   28.6144  -22.3711  -16.8261 C   0  0  0  0  0  0  0  0  0  0  0  0
   28.6669  -23.6193  -16.9022 O   0  0  0  0  0  0  0  0  0  0  0  0
   27.7861  -21.6053  -15.8733 C   0  0  0  0  0  0  0  0  0  0  0  0
   27.9340  -20.1452  -15.9418 C   0  0  0  0  0  0  0  0  0  0  0  0
   27.1669  -19.2827  -15.0151 C   0  0  2  0  0  0  0  0  0  0  0  0
   26.2296  -19.9630  -14.1655 N   0  0  0  0  0  0  0  0  0  0  0  0
   26.5023  -18.1327  -15.7044 C   0  0  0  0  0  0  0  0  0  0  0  0
   25.3965  -18.2591  -16.2752 O   0  0  0  0  0  0  0  0  0  0  0  0
   27.0564  -14.4295  -15.9938 C   0  0  0  0  0  0  0  0  0  0  0  0
   26.4376  -15.7566  -16.3806 C   0  0  2  0  0  0  0  0  0  0  0  0
   27.1174  -16.8587  -15.7267 N   0  0  0  0  0  0  0  0  0  0  0  0
   26.6579  -15.9198  -17.8450 C   0  0  0  0  0  0  0  0  0  0  0  0
   27.6673  -16.5490  -18.2965 O   0  0  0  0  0  0  0  0  0  0  0  0
   25.7864  -15.4018  -18.7993 O   0  0  0  0  0  0  0  0  0  0  0  0
  1  2  1  0
  2  4  1  0
  2  3  2  0
  4  5  1  0
  6  8  1  0
  6  5  1  0
  6  7  1  6
  8 16  1  0
  9  8  2  0
 11 10  1  0
 11 13  1  0
 12 11  2  0
 14 13  1  0
 15 14  1  6
 15 17  1  0
 16 15  1  0
 17 18  2  0
 20 19  1  1
 20 22  1  0
 21 20  1  0
 21 17  1  0
 22 23  2  0
 22 24  1  0
M  END
$$$$
