QQA.pdb
     RDKit          3D

 24 23  0  0  1  0  0  0  0  0999 V2000
   21.0872   -6.3674  -14.2479 N   0  0  0  0  0  0  0  0  0  0  0  0
   21.5891   -7.6614  -14.0025 C   0  0  0  0  0  0  0  0  0  0  0  0
   22.7761   -7.8890  -14.4022 O   0  0  0  0  0  0  0  0  0  0  0  0
   20.7741   -8.7131  -13.3099 C   0  0  0  0  0  0  0  0  0  0  0  0
   19.4681   -8.0955  -12.9458 C   0  0  0  0  0  0  0  0  0  0  0  0
   18.4556   -9.0200  -12.3591 C   0  0  2  0  0  0  0  0  0  0  0  0
   18.2047  -10.0671  -13.3326 N   0  0  0  0  0  0  0  0  0  0  0  0
   17.1967   -8.3547  -11.9410 C   0  0  0  0  0  0  0  0  0  0  0  0
   16.2378   -8.2414  -12.7449 O   0  0  0  0  0  0  0  0  0  0  0  0
   13.5207   -9.0988   -7.2622 N   0  0  0  0  0  0  0  0  0  0  0  0
   12.9700   -7.8901   -7.7649 C   0  0  0  0  0  0  0  0  0  0  0  0
   11.8690   -7.5445   -7.2803 O   0  0  0  0  0  0  0  0  0  0  0  0
   13.7236   -7.1470   -8.7946 C   0  0  0  0  0  0  0  0  0  0  0  0
   14.9907   -7.7610   -9.2140 C   0  0  0  0  0  0  0  0  0  0  0  0
   15.8082   -7.1176  -10.2669 C   0  0  2  0  0  0  0  0  0  0  0  0
   17.0041   -7.8197  -10.6408 N   0  0  0  0  0  0  0  0  0  0  0  0
   16.1196   -5.6845   -9.9691 C   0  0  0  0  0  0  0  0  0  0  0  0
   16.9931   -5.3621   -9.1339 O   0  0  0  0  0  0  0  0  0  0  0  0
   15.2764   -2.3784  -11.5319 C   0  0  0  0  0  0  0  0  0  0  0  0
   15.8690   -3.2768  -10.4665 C   0  0  2  0  0  0  0  0  0  0  0  0
   15.4239   -4.6473  -10.6341 N   0  0  0  0  0  0  0  0  0  0  0  0
   15.3303   -2.8033   -9.1607 C   0  0  0  0  0  0  0  0  0  0  0  0
   15.6269   -1.6555   -8.6992 O   0  0  0  0  0  0  0  0  0  0  0  0
   14.4800   -3.5751   -8.3732 O   0  0  0  0  0  0  0  0  0  0  0  0
  1  2  1  0
  2  4  1  0
  2  3  2  0
  4  5  1  0
  6  8  1  0
  6  5  1  0
  6  7  1  6
  8 16  1  0
  9  8  2  0
 11 10  1  0
 11 13  1  0
 12 11  2  0
 14 13  1  0
 15 14  1  1
 15 17  1  0
 16 15  1  0
 17 18  2  0
 20 19  1  6
 20 22  1  0
 21 20  1  0
 21 17  1  0
 22 23  2  0
 22 24  1  0
M  END
$$$$
