QQA.pdb
     RDKit          3D

 24 23  0  0  1  0  0  0  0  0999 V2000
   15.9378  -20.2430  -13.5439 N   0  0  0  0  0  0  0  0  0  0  0  0
   16.3546  -21.3912  -14.2471 C   0  0  0  0  0  0  0  0  0  0  0  0
   15.5063  -22.3365  -14.3329 O   0  0  0  0  0  0  0  0  0  0  0  0
   17.7192  -21.4972  -14.8609 C   0  0  0  0  0  0  0  0  0  0  0  0
   18.3814  -20.1718  -14.7041 C   0  0  0  0  0  0  0  0  0  0  0  0
   19.7479  -20.0571  -15.2901 C   0  0  2  0  0  0  0  0  0  0  0  0
   20.6388  -20.8700  -14.4822 N   0  0  0  0  0  0  0  0  0  0  0  0
   20.2426  -18.6630  -15.4080 C   0  0  0  0  0  0  0  0  0  0  0  0
   20.8207  -18.1075  -14.4407 O   0  0  0  0  0  0  0  0  0  0  0  0
   23.6823  -16.1078  -19.6066 N   0  0  0  0  0  0  0  0  0  0  0  0
   23.3157  -14.9269  -18.9078 C   0  0  0  0  0  0  0  0  0  0  0  0
   23.9041  -13.8781  -19.2545 O   0  0  0  0  0  0  0  0  0  0  0  0
   22.2878  -15.0233  -17.8522 C   0  0  0  0  0  0  0  0  0  0  0  0
   21.7294  -16.3650  -17.6368 C   0  0  0  0  0  0  0  0  0  0  0  0
   20.5975  -16.5506  -16.7012 C   0  0  2  0  0  0  0  0  0  0  0  0
   20.0965  -17.8921  -16.5905 N   0  0  0  0  0  0  0  0  0  0  0  0
   19.4726  -15.5957  -16.9505 C   0  0  0  0  0  0  0  0  0  0  0  0
   18.6152  -15.8076  -17.8363 O   0  0  0  0  0  0  0  0  0  0  0  0
   17.9991  -12.5804  -15.2960 C   0  0  0  0  0  0  0  0  0  0  0  0
   18.2814  -13.4823  -16.4794 C   0  0  2  0  0  0  0  0  0  0  0  0
   19.3510  -14.4153  -16.1798 N   0  0  0  0  0  0  0  0  0  0  0  0
   18.7689  -12.6035  -17.5792 C   0  0  0  0  0  0  0  0  0  0  0  0
   19.9769  -12.6478  -17.9759 O   0  0  0  0  0  0  0  0  0  0  0  0
   17.9461  -11.6908  -18.2339 O   0  0  0  0  0  0  0  0  0  0  0  0
  1  2  1  0
  2  4  1  0
  2  3  2  0
  4  5  1  0
  6  8  1  0
  6  5  1  0
  6  7  1  1
  8 16  1  0
  9  8  2  0
 11 10  1  0
 11 13  1  0
 12 11  2  0
 14 13  1  0
 15 14  1  6
 15 17  1  0
 16 15  1  0
 17 18  2  0
 20 19  1  1
 20 22  1  0
 21 20  1  0
 21 17  1  0
 22 23  2  0
 22 24  1  0
M  END
$$$$
