DPE.pdb
     RDKit          3D

 25 25  0  0  1  0  0  0  0  0999 V2000
   18.7182  -12.6290  -16.9705 N   0  0  0  0  0  0  0  0  0  0  0  0
   20.0056  -12.0387  -17.1530 C   0  0  1  0  0  0  0  0  0  0  0  0
   20.1948  -11.4446  -18.5097 C   0  0  0  0  0  0  0  0  0  0  0  0
   19.8591  -12.3182  -19.6404 C   0  0  0  0  0  0  0  0  0  0  0  0
   20.4471  -13.4252  -19.7577 O   0  0  0  0  0  0  0  0  0  0  0  0
   20.4384  -11.1575  -16.0532 C   0  0  0  0  0  0  0  0  0  0  0  0
   19.4875  -10.5618  -15.4358 O   0  0  0  0  0  0  0  0  0  0  0  0
   18.9250  -12.0198  -20.6164 O   0  0  0  0  0  0  0  0  0  0  0  0
   21.7593  -10.9245  -15.6422 N   0  0  0  0  0  0  0  0  0  0  0  0
   22.9142  -11.5925  -16.2669 C   0  0  0  0  0  0  0  0  0  0  0  0
   24.1042  -11.2540  -15.3883 C   0  0  0  0  0  0  0  0  0  0  0  0
   23.4379  -10.8541  -14.1025 C   0  0  0  0  0  0  0  0  0  0  0  0
   22.2527  -10.0550  -14.6036 C   0  0  1  0  0  0  0  0  0  0  0  0
   22.6599   -8.7224  -15.1042 C   0  0  0  0  0  0  0  0  0  0  0  0
   23.0573   -8.6482  -16.2942 O   0  0  0  0  0  0  0  0  0  0  0  0
   22.6278   -7.5512  -14.3336 N   0  0  0  0  0  0  0  0  0  0  0  0
   22.1439   -6.2475  -14.8169 C   0  0  1  0  0  0  0  0  0  0  0  0
   20.8017   -6.3760  -15.4315 C   0  0  0  0  0  0  0  0  0  0  0  0
   20.2257   -5.0626  -15.8382 C   0  0  0  0  0  0  0  0  0  0  0  0
   18.8998   -5.2067  -16.4728 C   0  0  0  0  0  0  0  0  0  0  0  0
   18.6785   -5.8717  -17.5044 O   0  0  0  0  0  0  0  0  0  0  0  0
   22.2511   -5.3067  -13.6898 C   0  0  0  0  0  0  0  0  0  0  0  0
   22.0584   -5.7732  -12.5139 O   0  0  0  0  0  0  0  0  0  0  0  0
   17.7759   -4.5669  -15.9101 O   0  0  0  0  0  0  0  0  0  0  0  0
   22.5431   -3.9708  -13.8018 O   0  0  0  0  0  0  0  0  0  0  0  0
  2  1  1  1
  2  3  1  0
  3  4  1  0
  4  5  2  0
  4  8  1  0
  6  2  1  0
  6  9  1  0
  7  6  2  0
  9 13  1  0
 10  9  1  0
 10 11  1  0
 11 12  1  0
 13 12  1  0
 14 16  1  0
 13 14  1  6
 15 14  2  0
 17 18  1  1
 17 22  1  0
 17 16  1  0
 19 20  1  0
 19 18  1  0
 20 24  1  0
 21 20  2  0
 22 25  1  0
 23 22  2  0
M  END
$$$$
