DPE.pdb
     RDKit          3D

 25 25  0  0  1  0  0  0  0  0999 V2000
   18.9727  -13.3414  -15.7609 N   0  0  0  0  0  0  0  0  0  0  0  0
   18.7962  -11.9751  -16.1365 C   0  0  1  0  0  0  0  0  0  0  0  0
   17.3621  -11.5777  -16.2578 C   0  0  0  0  0  0  0  0  0  0  0  0
   16.5256  -12.4546  -17.0858 C   0  0  0  0  0  0  0  0  0  0  0  0
   15.4248  -12.8626  -16.6312 O   0  0  0  0  0  0  0  0  0  0  0  0
   19.6152  -11.0174  -15.3713 C   0  0  0  0  0  0  0  0  0  0  0  0
   19.6325  -11.2156  -14.1062 O   0  0  0  0  0  0  0  0  0  0  0  0
   16.8535  -12.8834  -18.3596 O   0  0  0  0  0  0  0  0  0  0  0  0
   20.3504   -9.9439  -15.8958 N   0  0  0  0  0  0  0  0  0  0  0  0
   20.4613   -9.6897  -17.3427 C   0  0  0  0  0  0  0  0  0  0  0  0
   21.5152   -8.6075  -17.4861 C   0  0  0  0  0  0  0  0  0  0  0  0
   22.2441   -8.7076  -16.1762 C   0  0  0  0  0  0  0  0  0  0  0  0
   21.1040   -8.9284  -15.2036 C   0  0  1  0  0  0  0  0  0  0  0  0
   20.3316   -7.6869  -14.9706 C   0  0  0  0  0  0  0  0  0  0  0  0
   19.5059   -7.3451  -15.8543 O   0  0  0  0  0  0  0  0  0  0  0  0
   20.4680   -6.8798  -13.8321 N   0  0  0  0  0  0  0  0  0  0  0  0
   19.4518   -5.9253  -13.3594 C   0  0  1  0  0  0  0  0  0  0  0  0
   18.9876   -6.2780  -11.9971 C   0  0  0  0  0  0  0  0  0  0  0  0
   17.9496   -5.3408  -11.4809 C   0  0  0  0  0  0  0  0  0  0  0  0
   17.5870   -5.6267  -10.0780 C   0  0  0  0  0  0  0  0  0  0  0  0
   18.0204   -6.5927   -9.4187 O   0  0  0  0  0  0  0  0  0  0  0  0
   20.0232   -4.5781  -13.5186 C   0  0  0  0  0  0  0  0  0  0  0  0
   21.2977   -4.4714  -13.4789 O   0  0  0  0  0  0  0  0  0  0  0  0
   16.6924   -4.7774   -9.3942 O   0  0  0  0  0  0  0  0  0  0  0  0
   19.2965   -3.4298  -13.7081 O   0  0  0  0  0  0  0  0  0  0  0  0
  2  1  1  1
  2  3  1  0
  3  4  1  0
  4  5  2  0
  4  8  1  0
  6  2  1  0
  6  9  1  0
  7  6  2  0
  9 13  1  0
 10  9  1  0
 10 11  1  0
 11 12  1  0
 13 12  1  0
 14 16  1  0
 13 14  1  6
 15 14  2  0
 17 18  1  1
 17 22  1  0
 17 16  1  0
 19 20  1  0
 19 18  1  0
 20 24  1  0
 21 20  2  0
 22 25  1  0
 23 22  2  0
M  END
$$$$
