DPE.pdb
     RDKit          3D

 25 25  0  0  1  0  0  0  0  0999 V2000
   27.5526  -22.6246  -15.9723 N   0  0  0  0  0  0  0  0  0  0  0  0
   26.8629  -21.5630  -15.3117 C   0  0  1  0  0  0  0  0  0  0  0  0
   26.5033  -20.4364  -16.2234 C   0  0  0  0  0  0  0  0  0  0  0  0
   27.4992  -19.3641  -16.3349 C   0  0  0  0  0  0  0  0  0  0  0  0
   28.7068  -19.6641  -16.5266 O   0  0  0  0  0  0  0  0  0  0  0  0
   25.7562  -21.9983  -14.4404 C   0  0  0  0  0  0  0  0  0  0  0  0
   25.0500  -22.9589  -14.9080 O   0  0  0  0  0  0  0  0  0  0  0  0
   27.2157  -18.0129  -16.2444 O   0  0  0  0  0  0  0  0  0  0  0  0
   25.4236  -21.4652  -13.1861 N   0  0  0  0  0  0  0  0  0  0  0  0
   26.1700  -20.3527  -12.5735 C   0  0  0  0  0  0  0  0  0  0  0  0
   25.6506  -20.2485  -11.1515 C   0  0  0  0  0  0  0  0  0  0  0  0
   25.0360  -21.6037  -10.9448 C   0  0  0  0  0  0  0  0  0  0  0  0
   24.3678  -21.8478  -12.2821 C   0  0  1  0  0  0  0  0  0  0  0  0
   23.1413  -21.0338  -12.4410 C   0  0  0  0  0  0  0  0  0  0  0  0
   23.2873  -19.8086  -12.6799 O   0  0  0  0  0  0  0  0  0  0  0  0
   21.8403  -21.5472  -12.3408 N   0  0  0  0  0  0  0  0  0  0  0  0
   20.6915  -21.0682  -13.1270 C   0  0  1  0  0  0  0  0  0  0  0  0
   19.9956  -22.1968  -13.7885 C   0  0  0  0  0  0  0  0  0  0  0  0
   18.7319  -21.7806  -14.4608 C   0  0  0  0  0  0  0  0  0  0  0  0
   18.7835  -21.9846  -15.9227 C   0  0  0  0  0  0  0  0  0  0  0  0
   19.8153  -21.8786  -16.6152 O   0  0  0  0  0  0  0  0  0  0  0  0
   19.8711  -20.2421  -12.2262 C   0  0  0  0  0  0  0  0  0  0  0  0
   19.9740  -20.4619  -10.9698 O   0  0  0  0  0  0  0  0  0  0  0  0
   17.6107  -22.3243  -16.6287 O   0  0  0  0  0  0  0  0  0  0  0  0
   19.0075  -19.2548  -12.6284 O   0  0  0  0  0  0  0  0  0  0  0  0
  2  1  1  6
  2  3  1  0
  3  4  1  0
  4  5  2  0
  4  8  1  0
  6  2  1  0
  6  9  1  0
  7  6  2  0
  9 13  1  0
 10  9  1  0
 10 11  1  0
 11 12  1  0
 13 12  1  0
 14 16  1  0
 13 14  1  6
 15 14  2  0
 17 18  1  1
 17 22  1  0
 17 16  1  0
 19 20  1  0
 19 18  1  0
 20 24  1  0
 21 20  2  0
 22 25  1  0
 23 22  2  0
M  END
$$$$
