DPE.pdb
     RDKit          3D

 25 25  0  0  1  0  0  0  0  0999 V2000
   21.0800  -21.0929  -14.0088 N   0  0  0  0  0  0  0  0  0  0  0  0
   20.8128  -20.5513  -12.7149 C   0  0  1  0  0  0  0  0  0  0  0  0
   19.5954  -19.6876  -12.6773 C   0  0  0  0  0  0  0  0  0  0  0  0
   19.5419  -18.6177  -13.6806 C   0  0  0  0  0  0  0  0  0  0  0  0
   20.4724  -17.7710  -13.7267 O   0  0  0  0  0  0  0  0  0  0  0  0
   20.8813  -21.5293  -11.6139 C   0  0  0  0  0  0  0  0  0  0  0  0
   20.6942  -22.7469  -11.9641 O   0  0  0  0  0  0  0  0  0  0  0  0
   18.5265  -18.4559  -14.6064 O   0  0  0  0  0  0  0  0  0  0  0  0
   21.1246  -21.2465  -10.2615 N   0  0  0  0  0  0  0  0  0  0  0  0
   21.2706  -19.8719   -9.7521 C   0  0  0  0  0  0  0  0  0  0  0  0
   21.7529  -20.0175   -8.3208 C   0  0  0  0  0  0  0  0  0  0  0  0
   22.3038  -21.4152   -8.3188 C   0  0  0  0  0  0  0  0  0  0  0  0
   21.2767  -22.1540   -9.1517 C   0  0  1  0  0  0  0  0  0  0  0  0
   20.0182  -22.3755   -8.4038 C   0  0  0  0  0  0  0  0  0  0  0  0
   19.2422  -21.3954   -8.2743 O   0  0  0  0  0  0  0  0  0  0  0  0
   19.6476  -23.6038   -7.8377 N   0  0  0  0  0  0  0  0  0  0  0  0
   18.2774  -23.9547   -7.4294 C   0  0  1  0  0  0  0  0  0  0  0  0
   17.7790  -25.1205   -8.1964 C   0  0  0  0  0  0  0  0  0  0  0  0
   17.2202  -24.7404   -9.5251 C   0  0  0  0  0  0  0  0  0  0  0  0
   16.4708  -25.8473  -10.1532 C   0  0  0  0  0  0  0  0  0  0  0  0
   16.9861  -26.9062  -10.5639 O   0  0  0  0  0  0  0  0  0  0  0  0
   18.2920  -24.1031   -5.9649 C   0  0  0  0  0  0  0  0  0  0  0  0
   19.4177  -24.3539   -5.4104 O   0  0  0  0  0  0  0  0  0  0  0  0
   15.0742  -25.7464  -10.3220 O   0  0  0  0  0  0  0  0  0  0  0  0
   17.1944  -23.9917   -5.1493 O   0  0  0  0  0  0  0  0  0  0  0  0
  2  1  1  6
  2  3  1  0
  3  4  1  0
  4  5  2  0
  4  8  1  0
  6  2  1  0
  6  9  1  0
  7  6  2  0
  9 13  1  0
 10  9  1  0
 10 11  1  0
 11 12  1  0
 13 12  1  0
 14 16  1  0
 13 14  1  1
 15 14  2  0
 17 18  1  6
 17 22  1  0
 17 16  1  0
 19 20  1  0
 19 18  1  0
 20 24  1  0
 21 20  2  0
 22 25  1  0
 23 22  2  0
M  END
$$$$
