DPE.pdb
     RDKit          3D

 25 25  0  0  1  0  0  0  0  0999 V2000
   14.4308  -20.2589    3.9331 N   0  0  0  0  0  0  0  0  0  0  0  0
   15.7524  -20.7987    3.9048 C   0  0  1  0  0  0  0  0  0  0  0  0
   16.8144  -19.7685    4.1057 C   0  0  0  0  0  0  0  0  0  0  0  0
   16.7478  -18.6028    3.2163 C   0  0  0  0  0  0  0  0  0  0  0  0
   16.4789  -18.7734    1.9983 O   0  0  0  0  0  0  0  0  0  0  0  0
   15.9383  -22.0107    4.7233 C   0  0  0  0  0  0  0  0  0  0  0  0
   15.2075  -22.0672    5.7735 O   0  0  0  0  0  0  0  0  0  0  0  0
   16.9620  -17.2951    3.6140 O   0  0  0  0  0  0  0  0  0  0  0  0
   16.8193  -23.0694    4.4570 N   0  0  0  0  0  0  0  0  0  0  0  0
   17.7505  -23.0589    3.3155 C   0  0  0  0  0  0  0  0  0  0  0  0
   18.3327  -24.4588    3.2526 C   0  0  0  0  0  0  0  0  0  0  0  0
   17.3230  -25.2511    4.0333 C   0  0  0  0  0  0  0  0  0  0  0  0
   17.0030  -24.3068    5.1736 C   0  0  1  0  0  0  0  0  0  0  0  0
   18.1018  -24.2486    6.1643 C   0  0  0  0  0  0  0  0  0  0  0  0
   19.1616  -23.6679    5.8192 O   0  0  0  0  0  0  0  0  0  0  0  0
   18.0274  -24.7990    7.4519 N   0  0  0  0  0  0  0  0  0  0  0  0
   19.0162  -24.5659    8.5174 C   0  0  1  0  0  0  0  0  0  0  0  0
   18.5770  -23.4736    9.4171 C   0  0  0  0  0  0  0  0  0  0  0  0
   19.5155  -23.2500   10.5535 C   0  0  0  0  0  0  0  0  0  0  0  0
   19.0451  -22.1880   11.4657 C   0  0  0  0  0  0  0  0  0  0  0  0
   18.8613  -21.0002   11.1325 O   0  0  0  0  0  0  0  0  0  0  0  0
   19.2708  -25.8670    9.1571 C   0  0  0  0  0  0  0  0  0  0  0  0
   20.4906  -26.1873    9.3735 O   0  0  0  0  0  0  0  0  0  0  0  0
   18.7716  -22.4890   12.8162 O   0  0  0  0  0  0  0  0  0  0  0  0
   18.3030  -26.7607    9.5407 O   0  0  0  0  0  0  0  0  0  0  0  0
  2  1  1  1
  2  3  1  0
  3  4  1  0
  4  5  2  0
  4  8  1  0
  6  2  1  0
  6  9  1  0
  7  6  2  0
  9 13  1  0
 10  9  1  0
 10 11  1  0
 11 12  1  0
 13 12  1  0
 14 16  1  0
 13 14  1  1
 15 14  2  0
 17 18  1  1
 17 22  1  0
 17 16  1  0
 19 20  1  0
 19 18  1  0
 20 24  1  0
 21 20  2  0
 22 25  1  0
 23 22  2  0
M  END
$$$$
