DPE.pdb
     RDKit          3D

 25 25  0  0  1  0  0  0  0  0999 V2000
   26.1611  -22.1247  -12.8826 N   0  0  0  0  0  0  0  0  0  0  0  0
   26.3146  -21.3173  -14.0503 C   0  0  1  0  0  0  0  0  0  0  0  0
   26.1242  -22.0771  -15.3215 C   0  0  0  0  0  0  0  0  0  0  0  0
   26.9771  -23.2594  -15.4911 C   0  0  0  0  0  0  0  0  0  0  0  0
   26.4939  -24.4020  -15.2763 O   0  0  0  0  0  0  0  0  0  0  0  0
   25.5878  -20.0353  -14.0101 C   0  0  0  0  0  0  0  0  0  0  0  0
   24.5570  -20.0254  -13.2502 O   0  0  0  0  0  0  0  0  0  0  0  0
   28.3051  -23.2241  -15.8778 O   0  0  0  0  0  0  0  0  0  0  0  0
   25.9194  -18.8667  -14.7118 N   0  0  0  0  0  0  0  0  0  0  0  0
   27.1121  -18.7684  -15.5709 C   0  0  0  0  0  0  0  0  0  0  0  0
   27.2287  -17.3009  -15.9389 C   0  0  0  0  0  0  0  0  0  0  0  0
   26.4030  -16.6453  -14.8687 C   0  0  0  0  0  0  0  0  0  0  0  0
   25.2327  -17.5998  -14.7523 C   0  0  1  0  0  0  0  0  0  0  0  0
   24.3057  -17.4761  -15.9002 C   0  0  0  0  0  0  0  0  0  0  0  0
   24.7072  -17.8940  -17.0154 O   0  0  0  0  0  0  0  0  0  0  0  0
   23.0193  -16.9246  -15.8141 N   0  0  0  0  0  0  0  0  0  0  0  0
   21.8127  -17.5254  -16.4062 C   0  0  1  0  0  0  0  0  0  0  0  0
   21.0078  -18.2217  -15.3752 C   0  0  0  0  0  0  0  0  0  0  0  0
   19.7113  -18.7331  -15.9039 C   0  0  0  0  0  0  0  0  0  0  0  0
   18.9022  -19.3911  -14.8582 C   0  0  0  0  0  0  0  0  0  0  0  0
   19.2605  -19.5333  -13.6720 O   0  0  0  0  0  0  0  0  0  0  0  0
   21.1248  -16.4582  -17.1511 C   0  0  0  0  0  0  0  0  0  0  0  0
   21.4239  -15.2492  -16.8575 O   0  0  0  0  0  0  0  0  0  0  0  0
   17.6296  -19.9106  -15.1743 O   0  0  0  0  0  0  0  0  0  0  0  0
   20.1906  -16.6590  -18.1357 O   0  0  0  0  0  0  0  0  0  0  0  0
  2  1  1  1
  2  3  1  0
  3  4  1  0
  4  5  2  0
  4  8  1  0
  6  2  1  0
  6  9  1  0
  7  6  2  0
  9 13  1  0
 10  9  1  0
 10 11  1  0
 11 12  1  0
 13 12  1  0
 14 16  1  0
 13 14  1  6
 15 14  2  0
 17 18  1  1
 17 22  1  0
 17 16  1  0
 19 20  1  0
 19 18  1  0
 20 24  1  0
 21 20  2  0
 22 25  1  0
 23 22  2  0
M  END
$$$$
