EEF.pdb
     RDKit          3D

 30 30  0  0  1  0  0  0  0  0999 V2000
    7.0979  -20.6939   22.8956 N   0  0  0  0  0  0  0  0  0  0  0  0
    6.6142  -19.3975   23.3477 C   0  0  1  0  0  0  0  0  0  0  0  0
    6.3900  -19.5072   24.8223 C   0  0  0  0  0  0  0  0  0  0  0  0
    7.6106  -19.6690   25.6553 C   0  0  0  0  0  0  0  0  0  0  0  0
    7.3840  -20.5457   26.8017 C   0  0  0  0  0  0  0  0  0  0  0  0
    8.2622  -20.8085   27.6412 O   0  0  0  0  0  0  0  0  0  0  0  0
    7.5909  -18.3301   22.9716 C   0  0  0  0  0  0  0  0  0  0  0  0
    8.7951  -18.5655   22.8335 O   0  0  0  0  0  0  0  0  0  0  0  0
    6.1324  -21.1125   26.9629 O   0  0  0  0  0  0  0  0  0  0  0  0
    7.1419  -17.0101   22.7654 N   0  0  0  0  0  0  0  0  0  0  0  0
    8.0125  -15.9136   22.3800 C   0  0  1  0  0  0  0  0  0  0  0  0
    7.1699  -14.9203   21.6666 C   0  0  0  0  0  0  0  0  0  0  0  0
    7.9276  -13.7760   21.0576 C   0  0  0  0  0  0  0  0  0  0  0  0
    7.5972  -13.5053   19.6591 C   0  0  0  0  0  0  0  0  0  0  0  0
    8.1168  -12.5693   19.0446 O   0  0  0  0  0  0  0  0  0  0  0  0
    8.7778  -15.3892   23.5287 C   0  0  0  0  0  0  0  0  0  0  0  0
    9.6609  -14.5126   23.3814 O   0  0  0  0  0  0  0  0  0  0  0  0
    6.6759  -14.2953   18.9508 O   0  0  0  0  0  0  0  0  0  0  0  0
    8.5019  -15.8948   24.8267 N   0  0  0  0  0  0  0  0  0  0  0  0
    9.2055  -15.4232   26.0373 C   0  0  1  0  0  0  0  0  0  0  0  0
    8.2348  -15.1057   27.1202 C   0  0  0  0  0  0  0  0  0  0  0  0
    7.5355  -13.8524   26.8442 C   0  0  0  0  0  0  0  0  0  0  0  0
    6.1753  -13.8288   26.7121 C   0  0  0  0  0  0  0  0  0  0  0  0
    5.4983  -12.6510   26.4510 C   0  0  0  0  0  0  0  0  0  0  0  0
    6.1853  -11.4593   26.3163 C   0  0  0  0  0  0  0  0  0  0  0  0
    7.5412  -11.4785   26.4473 C   0  0  0  0  0  0  0  0  0  0  0  0
    8.2278  -12.6648   26.7107 C   0  0  0  0  0  0  0  0  0  0  0  0
   10.2879  -16.3505   26.3998 C   0  0  0  0  0  0  0  0  0  0  0  0
   10.4230  -17.4166   25.7062 O   0  0  0  0  0  0  0  0  0  0  0  0
   11.1822  -16.1717   27.4323 O   0  0  0  0  0  0  0  0  0  0  0  0
  2  1  1  1
  2  3  1  0
  3  4  1  0
  4  5  1  0
  5  6  2  0
  5  9  1  0
  7  8  2  0
  7  2  1  0
 10  7  1  0
 11 10  1  0
 11 12  1  1
 13 14  1  0
 13 12  1  0
 14 15  2  0
 16 11  1  0
 16 19  1  0
 17 16  2  0
 18 14  1  0
 20 19  1  0
 20 28  1  0
 20 21  1  1
 22 21  1  0
 23 22  2  0
 24 23  1  0
 25 26  1  0
 25 24  2  0
 26 27  2  0
 27 22  1  0
 28 29  2  0
 28 30  1  0
M  END
$$$$
