EEF.pdb
     RDKit          3D

 30 30  0  0  1  0  0  0  0  0999 V2000
    6.8665  -20.1221   21.2580 N   0  0  0  0  0  0  0  0  0  0  0  0
    6.9234  -19.3716   22.5041 C   0  0  1  0  0  0  0  0  0  0  0  0
    6.5824  -20.3272   23.6030 C   0  0  0  0  0  0  0  0  0  0  0  0
    6.5554  -19.7568   24.9755 C   0  0  0  0  0  0  0  0  0  0  0  0
    6.3098  -20.7769   25.9921 C   0  0  0  0  0  0  0  0  0  0  0  0
    6.0981  -21.9712   25.7203 O   0  0  0  0  0  0  0  0  0  0  0  0
    8.2705  -18.7424   22.6587 C   0  0  0  0  0  0  0  0  0  0  0  0
    9.2968  -19.4178   22.7820 O   0  0  0  0  0  0  0  0  0  0  0  0
    6.3119  -20.3977   27.3226 O   0  0  0  0  0  0  0  0  0  0  0  0
    8.3916  -17.3382   22.6671 N   0  0  0  0  0  0  0  0  0  0  0  0
    9.6347  -16.6380   22.9379 C   0  0  1  0  0  0  0  0  0  0  0  0
    9.8093  -15.6311   21.8604 C   0  0  0  0  0  0  0  0  0  0  0  0
   11.0529  -14.7974   21.9754 C   0  0  0  0  0  0  0  0  0  0  0  0
   12.2056  -15.3234   21.2455 C   0  0  0  0  0  0  0  0  0  0  0  0
   12.2363  -15.3328   20.0116 O   0  0  0  0  0  0  0  0  0  0  0  0
    9.6789  -16.1086   24.3155 C   0  0  0  0  0  0  0  0  0  0  0  0
   10.0793  -14.9463   24.5574 O   0  0  0  0  0  0  0  0  0  0  0  0
   13.3293  -15.8408   21.9119 O   0  0  0  0  0  0  0  0  0  0  0  0
    9.2569  -16.9414   25.3856 N   0  0  0  0  0  0  0  0  0  0  0  0
    9.2812  -16.5068   26.7975 C   0  0  1  0  0  0  0  0  0  0  0  0
    7.9276  -16.0704   27.2371 C   0  0  0  0  0  0  0  0  0  0  0  0
    7.6289  -14.7247   26.7512 C   0  0  0  0  0  0  0  0  0  0  0  0
    6.4549  -14.4638   26.1018 C   0  0  0  0  0  0  0  0  0  0  0  0
    6.1571  -13.1958   25.6358 C   0  0  0  0  0  0  0  0  0  0  0  0
    7.0456  -12.1528   25.8167 C   0  0  0  0  0  0  0  0  0  0  0  0
    8.2170  -12.4086   26.4635 C   0  0  0  0  0  0  0  0  0  0  0  0
    8.5212  -13.6866   26.9350 C   0  0  0  0  0  0  0  0  0  0  0  0
    9.9309  -17.5225   27.6395 C   0  0  0  0  0  0  0  0  0  0  0  0
   10.1934  -18.6590   27.1150 O   0  0  0  0  0  0  0  0  0  0  0  0
   10.2880  -17.3578   28.9598 O   0  0  0  0  0  0  0  0  0  0  0  0
  2  1  1  6
  2  3  1  0
  3  4  1  0
  4  5  1  0
  5  6  2  0
  5  9  1  0
  7  8  2  0
  7  2  1  0
 10  7  1  0
 11 10  1  0
 11 12  1  6
 13 14  1  0
 13 12  1  0
 14 15  2  0
 16 11  1  0
 16 19  1  0
 17 16  2  0
 18 14  1  0
 20 19  1  0
 20 28  1  0
 20 21  1  1
 22 21  1  0
 23 22  2  0
 24 23  1  0
 25 26  1  0
 25 24  2  0
 26 27  2  0
 27 22  1  0
 28 29  2  0
 28 30  1  0
M  END
$$$$
