EEF.pdb
     RDKit          3D

 30 30  0  0  1  0  0  0  0  0999 V2000
    8.2919  -14.9421   19.6017 N   0  0  0  0  0  0  0  0  0  0  0  0
    7.3658  -15.5283   20.5598 C   0  0  1  0  0  0  0  0  0  0  0  0
    6.5741  -16.5614   19.8230 C   0  0  0  0  0  0  0  0  0  0  0  0
    7.3629  -17.5490   19.0405 C   0  0  0  0  0  0  0  0  0  0  0  0
    6.5219  -18.5976   18.4682 C   0  0  0  0  0  0  0  0  0  0  0  0
    5.9445  -19.4575   19.1553 O   0  0  0  0  0  0  0  0  0  0  0  0
    8.1208  -16.0774   21.7273 C   0  0  0  0  0  0  0  0  0  0  0  0
    7.5550  -16.6702   22.6510 O   0  0  0  0  0  0  0  0  0  0  0  0
    6.3590  -18.6380   17.0949 O   0  0  0  0  0  0  0  0  0  0  0  0
    9.5202  -15.9225   21.7929 N   0  0  0  0  0  0  0  0  0  0  0  0
   10.3355  -16.4181   22.8877 C   0  0  1  0  0  0  0  0  0  0  0  0
   11.7544  -16.2169   22.4979 C   0  0  0  0  0  0  0  0  0  0  0  0
   12.7557  -16.6233   23.5403 C   0  0  0  0  0  0  0  0  0  0  0  0
   14.1512  -16.4227   23.1521 C   0  0  0  0  0  0  0  0  0  0  0  0
   14.8926  -17.3768   22.9004 O   0  0  0  0  0  0  0  0  0  0  0  0
    9.9411  -15.8230   24.1802 C   0  0  0  0  0  0  0  0  0  0  0  0
    9.8880  -14.5814   24.3399 O   0  0  0  0  0  0  0  0  0  0  0  0
   14.7121  -15.1386   23.0474 O   0  0  0  0  0  0  0  0  0  0  0  0
    9.6166  -16.6834   25.2623 N   0  0  0  0  0  0  0  0  0  0  0  0
    9.1287  -16.1847   26.5647 C   0  0  1  0  0  0  0  0  0  0  0  0
    7.6544  -15.9813   26.5315 C   0  0  0  0  0  0  0  0  0  0  0  0
    7.3254  -14.5640   26.3931 C   0  0  0  0  0  0  0  0  0  0  0  0
    7.9981  -13.6195   27.1166 C   0  0  0  0  0  0  0  0  0  0  0  0
    7.6990  -12.2741   26.9971 C   0  0  0  0  0  0  0  0  0  0  0  0
    6.7052  -11.8477   26.1364 C   0  0  0  0  0  0  0  0  0  0  0  0
    6.0324  -12.7861   25.4133 C   0  0  0  0  0  0  0  0  0  0  0  0
    6.3311  -14.1443   25.5311 C   0  0  0  0  0  0  0  0  0  0  0  0
    9.6343  -17.0240   27.6614 C   0  0  0  0  0  0  0  0  0  0  0  0
    9.3393  -16.6882   28.8598 O   0  0  0  0  0  0  0  0  0  0  0  0
   10.4066  -18.1549   27.5125 O   0  0  0  0  0  0  0  0  0  0  0  0
  2  1  1  6
  2  3  1  0
  3  4  1  0
  4  5  1  0
  5  6  2  0
  5  9  1  0
  7  8  2  0
  7  2  1  0
 10  7  1  0
 11 10  1  0
 11 12  1  6
 13 14  1  0
 13 12  1  0
 14 15  2  0
 16 11  1  0
 16 19  1  0
 17 16  2  0
 18 14  1  0
 20 19  1  0
 20 28  1  0
 20 21  1  6
 22 21  1  0
 23 22  2  0
 24 23  1  0
 25 26  1  0
 25 24  2  0
 26 27  2  0
 27 22  1  0
 28 29  2  0
 28 30  1  0
M  END
$$$$
