EEF.pdb
     RDKit          3D

 30 30  0  0  1  0  0  0  0  0999 V2000
    5.6424  -16.9346   20.2826 N   0  0  0  0  0  0  0  0  0  0  0  0
    6.9418  -16.8260   20.9300 C   0  0  1  0  0  0  0  0  0  0  0  0
    7.6209  -15.6294   20.3437 C   0  0  0  0  0  0  0  0  0  0  0  0
    8.1422  -15.7901   18.9609 C   0  0  0  0  0  0  0  0  0  0  0  0
    8.9317  -14.6383   18.5315 C   0  0  0  0  0  0  0  0  0  0  0  0
    9.1740  -13.6669   19.2681 O   0  0  0  0  0  0  0  0  0  0  0  0
    6.7670  -16.7449   22.4123 C   0  0  0  0  0  0  0  0  0  0  0  0
    5.8526  -16.0947   22.9279 O   0  0  0  0  0  0  0  0  0  0  0  0
    9.4348  -14.6255   17.2429 O   0  0  0  0  0  0  0  0  0  0  0  0
    7.6636  -17.4236   23.2621 N   0  0  0  0  0  0  0  0  0  0  0  0
    7.5293  -17.4650   24.7075 C   0  0  1  0  0  0  0  0  0  0  0  0
    7.3882  -18.8932   25.0896 C   0  0  0  0  0  0  0  0  0  0  0  0
    7.2745  -19.1399   26.5664 C   0  0  0  0  0  0  0  0  0  0  0  0
    7.2980  -20.5509   26.9494 C   0  0  0  0  0  0  0  0  0  0  0  0
    6.6226  -21.3919   26.3494 O   0  0  0  0  0  0  0  0  0  0  0  0
    8.6187  -16.7314   25.3822 C   0  0  0  0  0  0  0  0  0  0  0  0
    9.7801  -16.7072   24.9128 O   0  0  0  0  0  0  0  0  0  0  0  0
    8.0880  -21.0146   28.0150 O   0  0  0  0  0  0  0  0  0  0  0  0
    8.3365  -16.0403   26.5903 N   0  0  0  0  0  0  0  0  0  0  0  0
    9.3720  -15.3283   27.3674 C   0  0  1  0  0  0  0  0  0  0  0  0
    8.7889  -14.1495   28.0649 C   0  0  0  0  0  0  0  0  0  0  0  0
    8.0408  -13.3082   27.1328 C   0  0  0  0  0  0  0  0  0  0  0  0
    8.6943  -12.5383   26.2119 C   0  0  0  0  0  0  0  0  0  0  0  0
    8.0011  -11.7367   25.3227 C   0  0  0  0  0  0  0  0  0  0  0  0
    6.6198  -11.6940   25.3430 C   0  0  0  0  0  0  0  0  0  0  0  0
    5.9646  -12.4600   26.2595 C   0  0  0  0  0  0  0  0  0  0  0  0
    6.6604  -13.2699   27.1583 C   0  0  0  0  0  0  0  0  0  0  0  0
   10.1190  -16.2689   28.2160 C   0  0  0  0  0  0  0  0  0  0  0  0
    9.7036  -17.4766   28.2839 O   0  0  0  0  0  0  0  0  0  0  0  0
   11.2416  -15.9628   28.9534 O   0  0  0  0  0  0  0  0  0  0  0  0
  2  1  1  6
  2  3  1  0
  3  4  1  0
  4  5  1  0
  5  6  2  0
  5  9  1  0
  7  8  2  0
  7  2  1  0
 10  7  1  0
 11 10  1  0
 11 12  1  1
 13 14  1  0
 13 12  1  0
 14 15  2  0
 16 11  1  0
 16 19  1  0
 17 16  2  0
 18 14  1  0
 20 19  1  0
 20 28  1  0
 20 21  1  1
 22 21  1  0
 23 22  2  0
 24 23  1  0
 25 26  1  0
 25 24  2  0
 26 27  2  0
 27 22  1  0
 28 29  2  0
 28 30  1  0
M  END
$$$$
