EEF.pdb
     RDKit          3D

 30 30  0  0  1  0  0  0  0  0999 V2000
    6.5747  -20.4118   22.8230 N   0  0  0  0  0  0  0  0  0  0  0  0
    6.6324  -19.1191   23.4899 C   0  0  1  0  0  0  0  0  0  0  0  0
    7.2077  -19.3569   24.8498 C   0  0  0  0  0  0  0  0  0  0  0  0
    6.5428  -20.4094   25.6621 C   0  0  0  0  0  0  0  0  0  0  0  0
    7.2046  -20.6140   26.9484 C   0  0  0  0  0  0  0  0  0  0  0  0
    6.6246  -20.4846   28.0401 O   0  0  0  0  0  0  0  0  0  0  0  0
    7.4268  -18.1566   22.6671 C   0  0  0  0  0  0  0  0  0  0  0  0
    8.4591  -18.4954   22.0804 O   0  0  0  0  0  0  0  0  0  0  0  0
    8.5418  -20.9686   26.9544 O   0  0  0  0  0  0  0  0  0  0  0  0
    7.0004  -16.8186   22.5468 N   0  0  0  0  0  0  0  0  0  0  0  0
    7.8320  -15.7520   22.0181 C   0  0  1  0  0  0  0  0  0  0  0  0
    6.9241  -14.7820   21.3545 C   0  0  0  0  0  0  0  0  0  0  0  0
    7.6186  -13.6534   20.6486 C   0  0  0  0  0  0  0  0  0  0  0  0
    7.9766  -13.9354   19.2592 C   0  0  0  0  0  0  0  0  0  0  0  0
    7.6948  -15.0134   18.7281 O   0  0  0  0  0  0  0  0  0  0  0  0
    8.7220  -15.1852   23.0510 C   0  0  0  0  0  0  0  0  0  0  0  0
    9.6073  -14.3466   22.7633 O   0  0  0  0  0  0  0  0  0  0  0  0
    8.6559  -12.9957   18.4654 O   0  0  0  0  0  0  0  0  0  0  0  0
    8.5656  -15.6050   24.3985 N   0  0  0  0  0  0  0  0  0  0  0  0
    9.4094  -15.0968   25.4998 C   0  0  1  0  0  0  0  0  0  0  0  0
    8.5925  -14.8563   26.7207 C   0  0  0  0  0  0  0  0  0  0  0  0
    7.7370  -13.6830   26.5544 C   0  0  0  0  0  0  0  0  0  0  0  0
    6.3876  -13.8234   26.3889 C   0  0  0  0  0  0  0  0  0  0  0  0
    5.5641  -12.7232   26.2303 C   0  0  0  0  0  0  0  0  0  0  0  0
    6.0888  -11.4446   26.2354 C   0  0  0  0  0  0  0  0  0  0  0  0
    7.4335  -11.3003   26.4001 C   0  0  0  0  0  0  0  0  0  0  0  0
    8.2677  -12.4078   26.5604 C   0  0  0  0  0  0  0  0  0  0  0  0
   10.5931  -15.9506   25.6798 C   0  0  0  0  0  0  0  0  0  0  0  0
   10.6404  -17.0552   25.0368 O   0  0  0  0  0  0  0  0  0  0  0  0
   11.6708  -15.6638   26.4886 O   0  0  0  0  0  0  0  0  0  0  0  0
  2  1  1  6
  2  3  1  0
  3  4  1  0
  4  5  1  0
  5  6  2  0
  5  9  1  0
  7  8  2  0
  7  2  1  0
 10  7  1  0
 11 10  1  0
 11 12  1  1
 13 14  1  0
 13 12  1  0
 14 15  2  0
 16 11  1  0
 16 19  1  0
 17 16  2  0
 18 14  1  0
 20 19  1  0
 20 28  1  0
 20 21  1  1
 22 21  1  0
 23 22  2  0
 24 23  1  0
 25 26  1  0
 25 24  2  0
 26 27  2  0
 27 22  1  0
 28 29  2  0
 28 30  1  0
M  END
$$$$
