EEF.pdb
     RDKit          3D

 30 30  0  0  1  0  0  0  0  0999 V2000
    7.8172  -18.0065   19.1369 N   0  0  0  0  0  0  0  0  0  0  0  0
    7.5755  -17.0997   20.2498 C   0  0  1  0  0  0  0  0  0  0  0  0
    6.1458  -17.2760   20.6516 C   0  0  0  0  0  0  0  0  0  0  0  0
    5.4948  -18.5349   20.2028 C   0  0  0  0  0  0  0  0  0  0  0  0
    4.1012  -18.6191   20.6330 C   0  0  0  0  0  0  0  0  0  0  0  0
    3.5504  -17.7492   21.3294 O   0  0  0  0  0  0  0  0  0  0  0  0
    8.5434  -17.3794   21.3541 C   0  0  0  0  0  0  0  0  0  0  0  0
    8.6581  -18.5029   21.8534 O   0  0  0  0  0  0  0  0  0  0  0  0
    3.3563  -19.7196   20.2483 O   0  0  0  0  0  0  0  0  0  0  0  0
    9.3565  -16.3420   21.8532 N   0  0  0  0  0  0  0  0  0  0  0  0
   10.3167  -16.5170   22.9285 C   0  0  1  0  0  0  0  0  0  0  0  0
   11.6056  -15.9505   22.4560 C   0  0  0  0  0  0  0  0  0  0  0  0
   12.7604  -16.1481   23.3952 C   0  0  0  0  0  0  0  0  0  0  0  0
   14.0563  -15.7340   22.8591 C   0  0  0  0  0  0  0  0  0  0  0  0
   14.6245  -14.7158   23.2639 O   0  0  0  0  0  0  0  0  0  0  0  0
    9.8152  -15.9751   24.2072 C   0  0  0  0  0  0  0  0  0  0  0  0
    9.3133  -14.8294   24.2804 O   0  0  0  0  0  0  0  0  0  0  0  0
   14.7139  -16.4733   21.8613 O   0  0  0  0  0  0  0  0  0  0  0  0
    9.9075  -16.7758   25.3763 N   0  0  0  0  0  0  0  0  0  0  0  0
    9.3402  -16.3642   26.6770 C   0  0  1  0  0  0  0  0  0  0  0  0
    7.8580  -16.2554   26.5938 C   0  0  0  0  0  0  0  0  0  0  0  0
    7.4493  -14.8778   26.3265 C   0  0  0  0  0  0  0  0  0  0  0  0
    8.1631  -13.8290   26.8350 C   0  0  0  0  0  0  0  0  0  0  0  0
    7.7897  -12.5194   26.5912 C   0  0  0  0  0  0  0  0  0  0  0  0
    6.6774  -12.2363   25.8213 C   0  0  0  0  0  0  0  0  0  0  0  0
    5.9632  -13.2790   25.3125 C   0  0  0  0  0  0  0  0  0  0  0  0
    6.3366  -14.6015   25.5563 C   0  0  0  0  0  0  0  0  0  0  0  0
    9.8598  -17.2138   27.7592 C   0  0  0  0  0  0  0  0  0  0  0  0
    9.4717  -16.9699   28.9532 O   0  0  0  0  0  0  0  0  0  0  0  0
   10.7378  -18.2634   27.6007 O   0  0  0  0  0  0  0  0  0  0  0  0
  2  1  1  6
  2  3  1  0
  3  4  1  0
  4  5  1  0
  5  6  2  0
  5  9  1  0
  7  8  2  0
  7  2  1  0
 10  7  1  0
 11 10  1  0
 11 12  1  6
 13 14  1  0
 13 12  1  0
 14 15  2  0
 16 11  1  0
 16 19  1  0
 17 16  2  0
 18 14  1  0
 20 19  1  0
 20 28  1  0
 20 21  1  6
 22 21  1  0
 23 22  2  0
 24 23  1  0
 25 26  1  0
 25 24  2  0
 26 27  2  0
 27 22  1  0
 28 29  2  0
 28 30  1  0
M  END
$$$$
