EES.pdb
     RDKit          3D

 25 24  0  0  1  0  0  0  0  0999 V2000
   19.2189  -11.2171  -15.3698 N   0  0  0  0  0  0  0  0  0  0  0  0
   18.2478  -10.1559  -15.3960 C   0  0  1  0  0  0  0  0  0  0  0  0
   16.9155  -10.6981  -14.9980 C   0  0  0  0  0  0  0  0  0  0  0  0
   16.2964  -11.6648  -15.9667 C   0  0  0  0  0  0  0  0  0  0  0  0
   16.2808  -13.0439  -15.4966 C   0  0  0  0  0  0  0  0  0  0  0  0
   15.5002  -13.4055  -14.5879 O   0  0  0  0  0  0  0  0  0  0  0  0
   18.6167   -9.1816  -14.2941 C   0  0  0  0  0  0  0  0  0  0  0  0
   18.9239   -9.6753  -13.1810 O   0  0  0  0  0  0  0  0  0  0  0  0
   17.1342  -13.9881  -16.0441 O   0  0  0  0  0  0  0  0  0  0  0  0
   18.6073   -7.8012  -14.5333 N   0  0  0  0  0  0  0  0  0  0  0  0
   18.9822   -6.8639  -13.4915 C   0  0  1  0  0  0  0  0  0  0  0  0
   19.9331   -5.9013  -14.1459 C   0  0  0  0  0  0  0  0  0  0  0  0
   21.3610   -6.3659  -14.2317 C   0  0  0  0  0  0  0  0  0  0  0  0
   21.9519   -6.2142  -12.8529 C   0  0  0  0  0  0  0  0  0  0  0  0
   21.9663   -5.0995  -12.2962 O   0  0  0  0  0  0  0  0  0  0  0  0
   17.7808   -6.2567  -12.9002 C   0  0  0  0  0  0  0  0  0  0  0  0
   16.8098   -5.8185  -13.6083 O   0  0  0  0  0  0  0  0  0  0  0  0
   22.4796   -7.3057  -12.2007 O   0  0  0  0  0  0  0  0  0  0  0  0
   17.0127   -6.7370   -8.9351 O   0  0  0  0  0  0  0  0  0  0  0  0
   15.9124   -6.5871   -9.7972 C   0  0  0  0  0  0  0  0  0  0  0  0
   16.3116   -5.6770  -10.9454 C   0  0  2  0  0  0  0  0  0  0  0  0
   17.5988   -6.1129  -11.4930 N   0  0  0  0  0  0  0  0  0  0  0  0
   16.4488   -4.3019  -10.4403 C   0  0  0  0  0  0  0  0  0  0  0  0
   15.4267   -3.5997   -9.8370 O   0  0  0  0  0  0  0  0  0  0  0  0
   17.5500   -3.7018  -10.5493 O   0  0  0  0  0  0  0  0  0  0  0  0
  2  1  1  1
  3  2  1  0
  4  5  1  0
  4  3  1  0
  5  6  2  0
  7  2  1  0
  7 10  1  0
  8  7  2  0
  9  5  1  0
 10 11  1  0
 11 12  1  6
 13 14  1  0
 13 12  1  0
 14 15  2  0
 16 22  1  0
 16 11  1  0
 17 16  2  0
 18 14  1  0
 19 20  1  0
 21 20  1  1
 21 22  1  0
 23 21  1  0
 23 24  1  0
 25 23  2  0
M  END
$$$$
