EES.pdb
     RDKit          3D

 25 24  0  0  1  0  0  0  0  0999 V2000
   19.1226  -13.3076  -16.2965 N   0  0  0  0  0  0  0  0  0  0  0  0
   18.5501  -12.0086  -16.5302 C   0  0  1  0  0  0  0  0  0  0  0  0
   17.5545  -11.7095  -15.4594 C   0  0  0  0  0  0  0  0  0  0  0  0
   16.2654  -12.4759  -15.5441 C   0  0  0  0  0  0  0  0  0  0  0  0
   15.2610  -12.0514  -14.5776 C   0  0  0  0  0  0  0  0  0  0  0  0
   14.3383  -11.2735  -14.9077 O   0  0  0  0  0  0  0  0  0  0  0  0
   19.6542  -10.9883  -16.3315 C   0  0  0  0  0  0  0  0  0  0  0  0
   20.4458  -11.1891  -15.3774 O   0  0  0  0  0  0  0  0  0  0  0  0
   15.3067  -12.4981  -13.2668 O   0  0  0  0  0  0  0  0  0  0  0  0
   19.7634   -9.8834  -17.1859 N   0  0  0  0  0  0  0  0  0  0  0  0
   20.8411   -8.9253  -17.0278 C   0  0  1  0  0  0  0  0  0  0  0  0
   21.1902   -8.4857  -18.4221 C   0  0  0  0  0  0  0  0  0  0  0  0
   22.3182   -7.4957  -18.5208 C   0  0  0  0  0  0  0  0  0  0  0  0
   22.4372   -7.1147  -19.9747 C   0  0  0  0  0  0  0  0  0  0  0  0
   22.0937   -5.9788  -20.3551 O   0  0  0  0  0  0  0  0  0  0  0  0
   20.4320   -7.8492  -16.1133 C   0  0  0  0  0  0  0  0  0  0  0  0
   19.2522   -7.3552  -16.1136 O   0  0  0  0  0  0  0  0  0  0  0  0
   22.9252   -8.0188  -20.8909 O   0  0  0  0  0  0  0  0  0  0  0  0
   21.2119   -7.3310  -12.2475 O   0  0  0  0  0  0  0  0  0  0  0  0
   21.6315   -6.2078  -12.9814 C   0  0  0  0  0  0  0  0  0  0  0  0
   20.8710   -6.1705  -14.2952 C   0  0  2  0  0  0  0  0  0  0  0  0
   21.3136   -7.2748  -15.1505 N   0  0  0  0  0  0  0  0  0  0  0  0
   21.1538   -4.8969  -14.9756 C   0  0  0  0  0  0  0  0  0  0  0  0
   21.7411   -4.8048  -16.2199 O   0  0  0  0  0  0  0  0  0  0  0  0
   20.8547   -3.8090  -14.4174 O   0  0  0  0  0  0  0  0  0  0  0  0
  2  1  1  1
  3  2  1  0
  4  5  1  0
  4  3  1  0
  5  6  2  0
  7  2  1  0
  7 10  1  0
  8  7  2  0
  9  5  1  0
 10 11  1  0
 11 12  1  6
 13 14  1  0
 13 12  1  0
 14 15  2  0
 16 22  1  0
 16 11  1  0
 17 16  2  0
 18 14  1  0
 19 20  1  0
 21 20  1  1
 21 22  1  0
 23 21  1  0
 23 24  1  0
 25 23  2  0
M  END
$$$$
