EES.pdb
     RDKit          3D

 25 24  0  0  1  0  0  0  0  0999 V2000
   21.3639  -12.7849  -16.3150 N   0  0  0  0  0  0  0  0  0  0  0  0
   20.7509  -11.5803  -16.8080 C   0  0  1  0  0  0  0  0  0  0  0  0
   19.3717  -11.4657  -16.2496 C   0  0  0  0  0  0  0  0  0  0  0  0
   18.3448  -12.3653  -16.8759 C   0  0  0  0  0  0  0  0  0  0  0  0
   16.9853  -12.1240  -16.4105 C   0  0  0  0  0  0  0  0  0  0  0  0
   16.3900  -11.0584  -16.6862 O   0  0  0  0  0  0  0  0  0  0  0  0
   21.5113  -10.4121  -16.2108 C   0  0  0  0  0  0  0  0  0  0  0  0
   21.8446  -10.5108  -15.0041 O   0  0  0  0  0  0  0  0  0  0  0  0
   16.3199  -13.0698  -15.6473 O   0  0  0  0  0  0  0  0  0  0  0  0
   21.8145   -9.2882  -16.9904 N   0  0  0  0  0  0  0  0  0  0  0  0
   22.6231   -8.2090  -16.4557 C   0  0  1  0  0  0  0  0  0  0  0  0
   23.6564   -7.9262  -17.5099 C   0  0  0  0  0  0  0  0  0  0  0  0
   24.5957   -6.7926  -17.2020 C   0  0  0  0  0  0  0  0  0  0  0  0
   25.5659   -6.7061  -18.3529 C   0  0  0  0  0  0  0  0  0  0  0  0
   25.7647   -5.6169  -18.9247 O   0  0  0  0  0  0  0  0  0  0  0  0
   21.7691   -7.0692  -16.0907 C   0  0  0  0  0  0  0  0  0  0  0  0
   20.7929   -6.6779  -16.8187 O   0  0  0  0  0  0  0  0  0  0  0  0
   26.2377   -7.8295  -18.7795 O   0  0  0  0  0  0  0  0  0  0  0  0
   19.1082   -4.7260  -13.2410 O   0  0  0  0  0  0  0  0  0  0  0  0
   19.8684   -5.7943  -13.7481 C   0  0  0  0  0  0  0  0  0  0  0  0
   21.0336   -5.2312  -14.5425 C   0  0  2  0  0  0  0  0  0  0  0  0
   21.9560   -6.3135  -14.8956 N   0  0  0  0  0  0  0  0  0  0  0  0
   21.7471   -4.2474  -13.7131 C   0  0  0  0  0  0  0  0  0  0  0  0
   21.3643   -2.9288  -13.5854 O   0  0  0  0  0  0  0  0  0  0  0  0
   22.7708   -4.5966  -13.0690 O   0  0  0  0  0  0  0  0  0  0  0  0
  2  1  1  1
  3  2  1  0
  4  5  1  0
  4  3  1  0
  5  6  2  0
  7  2  1  0
  7 10  1  0
  8  7  2  0
  9  5  1  0
 10 11  1  0
 11 12  1  6
 13 14  1  0
 13 12  1  0
 14 15  2  0
 16 22  1  0
 16 11  1  0
 17 16  2  0
 18 14  1  0
 19 20  1  0
 21 20  1  1
 21 22  1  0
 23 21  1  0
 23 24  1  0
 25 23  2  0
M  END
$$$$
