EES.pdb
     RDKit          3D

 25 24  0  0  1  0  0  0  0  0999 V2000
   17.2687  -12.7804  -15.8946 N   0  0  0  0  0  0  0  0  0  0  0  0
   17.4406  -11.5522  -16.6241 C   0  0  1  0  0  0  0  0  0  0  0  0
   16.2785  -10.6546  -16.3573 C   0  0  0  0  0  0  0  0  0  0  0  0
   15.8835  -10.5214  -14.9143 C   0  0  0  0  0  0  0  0  0  0  0  0
   14.6834   -9.7229  -14.7015 C   0  0  0  0  0  0  0  0  0  0  0  0
   14.7329   -8.4726  -14.7058 O   0  0  0  0  0  0  0  0  0  0  0  0
   18.6331  -10.8348  -16.0220 C   0  0  0  0  0  0  0  0  0  0  0  0
   18.8498  -11.0240  -14.7995 O   0  0  0  0  0  0  0  0  0  0  0  0
   13.4574  -10.3313  -14.4857 O   0  0  0  0  0  0  0  0  0  0  0  0
   19.4386  -10.0063  -16.8142 N   0  0  0  0  0  0  0  0  0  0  0  0
   20.6429   -9.4041  -16.2743 C   0  0  1  0  0  0  0  0  0  0  0  0
   21.5974   -9.3169  -17.4321 C   0  0  0  0  0  0  0  0  0  0  0  0
   22.9467   -8.7352  -17.1108 C   0  0  0  0  0  0  0  0  0  0  0  0
   23.7419   -8.7462  -18.3917 C   0  0  0  0  0  0  0  0  0  0  0  0
   24.0741   -7.6739  -18.9325 O   0  0  0  0  0  0  0  0  0  0  0  0
   20.3223   -8.1240  -15.6261 C   0  0  0  0  0  0  0  0  0  0  0  0
   19.3820   -7.3598  -16.0360 O   0  0  0  0  0  0  0  0  0  0  0  0
   24.1055   -9.9405  -18.9720 O   0  0  0  0  0  0  0  0  0  0  0  0
   19.8835   -7.2264  -11.8532 O   0  0  0  0  0  0  0  0  0  0  0  0
   20.8756   -6.3912  -12.3959 C   0  0  0  0  0  0  0  0  0  0  0  0
   20.6952   -6.3333  -13.9025 C   0  0  2  0  0  0  0  0  0  0  0  0
   21.0282   -7.6349  -14.4874 N   0  0  0  0  0  0  0  0  0  0  0  0
   21.6034   -5.3157  -14.4543 C   0  0  0  0  0  0  0  0  0  0  0  0
   21.5063   -3.9683  -14.1771 O   0  0  0  0  0  0  0  0  0  0  0  0
   22.5346   -5.6610  -15.2279 O   0  0  0  0  0  0  0  0  0  0  0  0
  2  1  1  1
  3  2  1  0
  4  5  1  0
  4  3  1  0
  5  6  2  0
  7  2  1  0
  7 10  1  0
  8  7  2  0
  9  5  1  0
 10 11  1  0
 11 12  1  6
 13 14  1  0
 13 12  1  0
 14 15  2  0
 16 22  1  0
 16 11  1  0
 17 16  2  0
 18 14  1  0
 19 20  1  0
 21 20  1  1
 21 22  1  0
 23 21  1  0
 23 24  1  0
 25 23  2  0
M  END
$$$$
