EES.pdb
     RDKit          3D

 25 24  0  0  1  0  0  0  0  0999 V2000
   20.8387   -8.3638  -16.7238 N   0  0  0  0  0  0  0  0  0  0  0  0
   20.8989   -8.0052  -15.3318 C   0  0  1  0  0  0  0  0  0  0  0  0
   21.4819   -6.6377  -15.2006 C   0  0  0  0  0  0  0  0  0  0  0  0
   22.4935   -6.4697  -14.1030 C   0  0  0  0  0  0  0  0  0  0  0  0
   21.9778   -5.7870  -12.9236 C   0  0  0  0  0  0  0  0  0  0  0  0
   21.5957   -6.4322  -11.9219 O   0  0  0  0  0  0  0  0  0  0  0  0
   19.4709   -7.8687  -14.8405 C   0  0  0  0  0  0  0  0  0  0  0  0
   18.6872   -7.1979  -15.5569 O   0  0  0  0  0  0  0  0  0  0  0  0
   21.8954   -4.4044  -12.8854 O   0  0  0  0  0  0  0  0  0  0  0  0
   19.0710   -8.4721  -13.6411 N   0  0  0  0  0  0  0  0  0  0  0  0
   17.6927   -8.3973  -13.1949 C   0  0  1  0  0  0  0  0  0  0  0  0
   17.1804   -9.8094  -13.2473 C   0  0  0  0  0  0  0  0  0  0  0  0
   15.7608   -9.9961  -12.7868 C   0  0  0  0  0  0  0  0  0  0  0  0
   15.3971  -11.4320  -13.0677 C   0  0  0  0  0  0  0  0  0  0  0  0
   16.2407  -12.2083  -13.5562 O   0  0  0  0  0  0  0  0  0  0  0  0
   17.6216   -7.7514  -11.8760 C   0  0  0  0  0  0  0  0  0  0  0  0
   18.4537   -8.0049  -10.9382 O   0  0  0  0  0  0  0  0  0  0  0  0
   14.1312  -11.8945  -12.7871 O   0  0  0  0  0  0  0  0  0  0  0  0
   15.9212   -4.2473   -8.9966 O   0  0  0  0  0  0  0  0  0  0  0  0
   15.9755   -4.7980  -10.2889 C   0  0  0  0  0  0  0  0  0  0  0  0
   16.5897   -6.1842  -10.2041 C   0  0  2  0  0  0  0  0  0  0  0  0
   16.6254   -6.7881  -11.5386 N   0  0  0  0  0  0  0  0  0  0  0  0
   15.7607   -7.0217   -9.3231 C   0  0  0  0  0  0  0  0  0  0  0  0
   15.7611   -6.9244   -7.9475 O   0  0  0  0  0  0  0  0  0  0  0  0
   14.9947   -7.8876   -9.8214 O   0  0  0  0  0  0  0  0  0  0  0  0
  2  1  1  6
  3  2  1  0
  4  5  1  0
  4  3  1  0
  5  6  2  0
  7  2  1  0
  7 10  1  0
  8  7  2  0
  9  5  1  0
 10 11  1  0
 11 12  1  1
 13 14  1  0
 13 12  1  0
 14 15  2  0
 16 22  1  0
 16 11  1  0
 17 16  2  0
 18 14  1  0
 19 20  1  0
 21 20  1  6
 21 22  1  0
 23 21  1  0
 23 24  1  0
 25 23  2  0
M  END
$$$$
