EES.pdb
     RDKit          3D

 25 24  0  0  1  0  0  0  0  0999 V2000
   20.1271  -12.1332  -18.6315 N   0  0  0  0  0  0  0  0  0  0  0  0
   21.2448  -11.3303  -18.2120 C   0  0  1  0  0  0  0  0  0  0  0  0
   22.2269  -11.2307  -19.3313 C   0  0  0  0  0  0  0  0  0  0  0  0
   23.4420  -10.3931  -19.0514 C   0  0  0  0  0  0  0  0  0  0  0  0
   24.3416  -10.2582  -20.1896 C   0  0  0  0  0  0  0  0  0  0  0  0
   24.7583   -9.1352  -20.5513 O   0  0  0  0  0  0  0  0  0  0  0  0
   20.7338   -9.9163  -18.0152 C   0  0  0  0  0  0  0  0  0  0  0  0
   20.2807   -9.3315  -19.0300 O   0  0  0  0  0  0  0  0  0  0  0  0
   24.7548  -11.3729  -20.9014 O   0  0  0  0  0  0  0  0  0  0  0  0
   20.7768   -9.3144  -16.7508 N   0  0  0  0  0  0  0  0  0  0  0  0
   20.1712   -8.0157  -16.5250 C   0  0  1  0  0  0  0  0  0  0  0  0
   18.8544   -8.3011  -15.8590 C   0  0  0  0  0  0  0  0  0  0  0  0
   18.0739   -7.0887  -15.4311 C   0  0  0  0  0  0  0  0  0  0  0  0
   16.8939   -7.5884  -14.6367 C   0  0  0  0  0  0  0  0  0  0  0  0
   16.0603   -6.7833  -14.1787 O   0  0  0  0  0  0  0  0  0  0  0  0
   21.0878   -7.1552  -15.7625 C   0  0  0  0  0  0  0  0  0  0  0  0
   21.9562   -7.6233  -14.9483 O   0  0  0  0  0  0  0  0  0  0  0  0
   16.7301   -8.9367  -14.4119 O   0  0  0  0  0  0  0  0  0  0  0  0
   22.9997   -2.7472  -14.9629 O   0  0  0  0  0  0  0  0  0  0  0  0
   22.0020   -3.4877  -15.6206 C   0  0  0  0  0  0  0  0  0  0  0  0
   22.0561   -4.9239  -15.1304 C   0  0  2  0  0  0  0  0  0  0  0  0
   21.0865   -5.7333  -15.8731 N   0  0  0  0  0  0  0  0  0  0  0  0
   21.7085   -4.9549  -13.7010 C   0  0  0  0  0  0  0  0  0  0  0  0
   22.6301   -4.8249  -12.6835 O   0  0  0  0  0  0  0  0  0  0  0  0
   20.5087   -5.1073  -13.3517 O   0  0  0  0  0  0  0  0  0  0  0  0
  2  1  1  6
  3  2  1  0
  4  5  1  0
  4  3  1  0
  5  6  2  0
  7  2  1  0
  7 10  1  0
  8  7  2  0
  9  5  1  0
 10 11  1  0
 11 12  1  1
 13 14  1  0
 13 12  1  0
 14 15  2  0
 16 22  1  0
 16 11  1  0
 17 16  2  0
 18 14  1  0
 19 20  1  0
 21 20  1  6
 21 22  1  0
 23 21  1  0
 23 24  1  0
 25 23  2  0
M  END
$$$$
