EES.pdb
     RDKit          3D

 25 24  0  0  1  0  0  0  0  0999 V2000
   14.0590   -8.9655  -12.2395 N   0  0  0  0  0  0  0  0  0  0  0  0
   14.4855   -8.5507  -10.9296 C   0  0  1  0  0  0  0  0  0  0  0  0
   15.1407   -9.6997  -10.2385 C   0  0  0  0  0  0  0  0  0  0  0  0
   14.2281  -10.8313   -9.8602 C   0  0  0  0  0  0  0  0  0  0  0  0
   13.1134  -10.4325   -9.0108 C   0  0  0  0  0  0  0  0  0  0  0  0
   12.9838   -9.2467   -8.6331 O   0  0  0  0  0  0  0  0  0  0  0  0
   15.5898   -7.5290  -11.1189 C   0  0  0  0  0  0  0  0  0  0  0  0
   16.1779   -7.5298  -12.2286 O   0  0  0  0  0  0  0  0  0  0  0  0
   12.1707  -11.3603   -8.5981 O   0  0  0  0  0  0  0  0  0  0  0  0
   15.9183   -6.6381  -10.0888 N   0  0  0  0  0  0  0  0  0  0  0  0
   16.7981   -5.5109  -10.3334 C   0  0  1  0  0  0  0  0  0  0  0  0
   16.4233   -4.4829   -9.3029 C   0  0  0  0  0  0  0  0  0  0  0  0
   15.0959   -3.8096   -9.5193 C   0  0  0  0  0  0  0  0  0  0  0  0
   14.9248   -2.8143   -8.3998 C   0  0  0  0  0  0  0  0  0  0  0  0
   14.1588   -3.0652   -7.4495 O   0  0  0  0  0  0  0  0  0  0  0  0
   18.2016   -5.9480  -10.3038 C   0  0  0  0  0  0  0  0  0  0  0  0
   18.7532   -6.4253   -9.2531 O   0  0  0  0  0  0  0  0  0  0  0  0
   15.6131   -1.6222   -8.4205 O   0  0  0  0  0  0  0  0  0  0  0  0
   21.7837   -8.1313  -12.3861 O   0  0  0  0  0  0  0  0  0  0  0  0
   20.4542   -7.6807  -12.3109 C   0  0  0  0  0  0  0  0  0  0  0  0
   20.4013   -6.4634  -11.4047 C   0  0  2  0  0  0  0  0  0  0  0  0
   19.0573   -5.8808  -11.4428 N   0  0  0  0  0  0  0  0  0  0  0  0
   21.3681   -5.4650  -11.8878 C   0  0  0  0  0  0  0  0  0  0  0  0
   22.6963   -5.4404  -11.5175 O   0  0  0  0  0  0  0  0  0  0  0  0
   20.9944   -4.5670  -12.6869 O   0  0  0  0  0  0  0  0  0  0  0  0
  2  1  1  6
  3  2  1  0
  4  5  1  0
  4  3  1  0
  5  6  2  0
  7  2  1  0
  7 10  1  0
  8  7  2  0
  9  5  1  0
 10 11  1  0
 11 12  1  1
 13 14  1  0
 13 12  1  0
 14 15  2  0
 16 22  1  0
 16 11  1  0
 17 16  2  0
 18 14  1  0
 19 20  1  0
 21 20  1  6
 21 22  1  0
 23 21  1  0
 23 24  1  0
 25 23  2  0
M  END
$$$$
