EES.pdb
     RDKit          3D

 25 24  0  0  1  0  0  0  0  0999 V2000
   17.3924  -10.9288  -18.5285 N   0  0  0  0  0  0  0  0  0  0  0  0
   17.0979  -10.2778  -17.2798 C   0  0  1  0  0  0  0  0  0  0  0  0
   17.3772  -11.2192  -16.1560 C   0  0  0  0  0  0  0  0  0  0  0  0
   16.3439  -12.2871  -15.9365 C   0  0  0  0  0  0  0  0  0  0  0  0
   16.6241  -13.1558  -14.8007 C   0  0  0  0  0  0  0  0  0  0  0  0
   15.7003  -13.7494  -14.2008 O   0  0  0  0  0  0  0  0  0  0  0  0
   18.1049   -9.1571  -17.1086 C   0  0  0  0  0  0  0  0  0  0  0  0
   19.3050   -9.4313  -17.3573 O   0  0  0  0  0  0  0  0  0  0  0  0
   17.9230  -13.3425  -14.3558 O   0  0  0  0  0  0  0  0  0  0  0  0
   17.6897   -7.8858  -16.6915 N   0  0  0  0  0  0  0  0  0  0  0  0
   18.6334   -6.7876  -16.6027 C   0  0  1  0  0  0  0  0  0  0  0  0
   17.8329   -5.5503  -16.8981 C   0  0  0  0  0  0  0  0  0  0  0  0
   18.5740   -4.2513  -16.7378 C   0  0  0  0  0  0  0  0  0  0  0  0
   17.6142   -3.1525  -17.1179 C   0  0  0  0  0  0  0  0  0  0  0  0
   16.6666   -2.8592  -16.3636 O   0  0  0  0  0  0  0  0  0  0  0  0
   19.3073   -6.8034  -15.2960 C   0  0  0  0  0  0  0  0  0  0  0  0
   18.7504   -7.2585  -14.2383 O   0  0  0  0  0  0  0  0  0  0  0  0
   17.7779   -2.4670  -18.3004 O   0  0  0  0  0  0  0  0  0  0  0  0
   23.0389   -7.6806  -14.7910 O   0  0  0  0  0  0  0  0  0  0  0  0
   22.1128   -7.6911  -13.7334 C   0  0  0  0  0  0  0  0  0  0  0  0
   21.2861   -6.4188  -13.7951 C   0  0  2  0  0  0  0  0  0  0  0  0
   20.6350   -6.3191  -15.1040 N   0  0  0  0  0  0  0  0  0  0  0  0
   22.1759   -5.2610  -13.6152 C   0  0  0  0  0  0  0  0  0  0  0  0
   22.8406   -4.9784  -12.4405 O   0  0  0  0  0  0  0  0  0  0  0  0
   22.3637   -4.4614  -14.5692 O   0  0  0  0  0  0  0  0  0  0  0  0
  2  1  1  6
  3  2  1  0
  4  5  1  0
  4  3  1  0
  5  6  2  0
  7  2  1  0
  7 10  1  0
  8  7  2  0
  9  5  1  0
 10 11  1  0
 11 12  1  1
 13 14  1  0
 13 12  1  0
 14 15  2  0
 16 22  1  0
 16 11  1  0
 17 16  2  0
 18 14  1  0
 19 20  1  0
 21 20  1  6
 21 22  1  0
 23 21  1  0
 23 24  1  0
 25 23  2  0
M  END
$$$$
