EES.pdb
     RDKit          3D

 25 24  0  0  1  0  0  0  0  0999 V2000
   14.7490   -9.2646   -9.2093 N   0  0  0  0  0  0  0  0  0  0  0  0
   15.0763   -7.9683   -9.7407 C   0  0  1  0  0  0  0  0  0  0  0  0
   15.5707   -7.0943   -8.6367 C   0  0  0  0  0  0  0  0  0  0  0  0
   14.5186   -6.5949   -7.6881 C   0  0  0  0  0  0  0  0  0  0  0  0
   13.7137   -5.5029   -8.2202 C   0  0  0  0  0  0  0  0  0  0  0  0
   14.2320   -4.6001   -8.9144 O   0  0  0  0  0  0  0  0  0  0  0  0
   16.2691   -8.1472  -10.6597 C   0  0  0  0  0  0  0  0  0  0  0  0
   17.1672   -8.9364  -10.2750 O   0  0  0  0  0  0  0  0  0  0  0  0
   12.3532   -5.4374   -7.9663 O   0  0  0  0  0  0  0  0  0  0  0  0
   16.3409   -7.4532  -11.8746 N   0  0  0  0  0  0  0  0  0  0  0  0
   17.3993   -7.7301  -12.8273 C   0  0  1  0  0  0  0  0  0  0  0  0
   16.7210   -7.7990  -14.1667 C   0  0  0  0  0  0  0  0  0  0  0  0
   17.6396   -7.9743  -15.3447 C   0  0  0  0  0  0  0  0  0  0  0  0
   16.7642   -8.0801  -16.5676 C   0  0  0  0  0  0  0  0  0  0  0  0
   16.2424   -7.0590  -17.0554 O   0  0  0  0  0  0  0  0  0  0  0  0
   18.4616   -6.7200  -12.7118 C   0  0  0  0  0  0  0  0  0  0  0  0
   18.2237   -5.5008  -12.4068 O   0  0  0  0  0  0  0  0  0  0  0  0
   16.5354   -9.3051  -17.1528 O   0  0  0  0  0  0  0  0  0  0  0  0
   22.4639   -7.6576  -13.2963 O   0  0  0  0  0  0  0  0  0  0  0  0
   22.1881   -6.5813  -12.4350 C   0  0  0  0  0  0  0  0  0  0  0  0
   20.8566   -5.9677  -12.8305 C   0  0  2  0  0  0  0  0  0  0  0  0
   19.8399   -7.0187  -12.9243 N   0  0  0  0  0  0  0  0  0  0  0  0
   20.9989   -5.3225  -14.1452 C   0  0  0  0  0  0  0  0  0  0  0  0
   21.6877   -4.1461  -14.3528 O   0  0  0  0  0  0  0  0  0  0  0  0
   20.4735   -5.8487  -15.1610 O   0  0  0  0  0  0  0  0  0  0  0  0
  2  1  1  1
  3  2  1  0
  4  5  1  0
  4  3  1  0
  5  6  2  0
  7  2  1  0
  7 10  1  0
  8  7  2  0
  9  5  1  0
 10 11  1  0
 11 12  1  6
 13 14  1  0
 13 12  1  0
 14 15  2  0
 16 22  1  0
 16 11  1  0
 17 16  2  0
 18 14  1  0
 19 20  1  0
 21 20  1  6
 21 22  1  0
 23 21  1  0
 23 24  1  0
 25 23  2  0
M  END
$$$$
