EES.pdb
     RDKit          3D

 25 24  0  0  1  0  0  0  0  0999 V2000
   19.9031  -11.3076  -15.4234 N   0  0  0  0  0  0  0  0  0  0  0  0
   19.6731  -10.4222  -16.5339 C   0  0  1  0  0  0  0  0  0  0  0  0
   18.3927  -10.7951  -17.2038 C   0  0  0  0  0  0  0  0  0  0  0  0
   18.2672  -12.2390  -17.5984 C   0  0  0  0  0  0  0  0  0  0  0  0
   17.0430  -12.5485  -18.3254 C   0  0  0  0  0  0  0  0  0  0  0  0
   15.9390  -12.5921  -17.7382 O   0  0  0  0  0  0  0  0  0  0  0  0
   19.4256   -9.0396  -15.9626 C   0  0  0  0  0  0  0  0  0  0  0  0
   18.3747   -8.8833  -15.2929 O   0  0  0  0  0  0  0  0  0  0  0  0
   17.0739  -12.8055  -19.6866 O   0  0  0  0  0  0  0  0  0  0  0  0
   20.3417   -8.0035  -16.1863 N   0  0  0  0  0  0  0  0  0  0  0  0
   20.0744   -6.6595  -15.7104 C   0  0  1  0  0  0  0  0  0  0  0  0
   21.0815   -6.4154  -14.6217 C   0  0  0  0  0  0  0  0  0  0  0  0
   21.0689   -5.0317  -14.0323 C   0  0  0  0  0  0  0  0  0  0  0  0
   22.1579   -4.9922  -12.9903 C   0  0  0  0  0  0  0  0  0  0  0  0
   22.5223   -3.9036  -12.5054 O   0  0  0  0  0  0  0  0  0  0  0  0
   20.1163   -5.7079  -16.8304 C   0  0  0  0  0  0  0  0  0  0  0  0
   20.9218   -5.8374  -17.8156 O   0  0  0  0  0  0  0  0  0  0  0  0
   22.7568   -6.1577  -12.5686 O   0  0  0  0  0  0  0  0  0  0  0  0
   17.0443   -3.9747  -18.5980 O   0  0  0  0  0  0  0  0  0  0  0  0
   17.9892   -2.9889  -18.2639 C   0  0  0  0  0  0  0  0  0  0  0  0
   19.3374   -3.6554  -18.0539 C   0  0  2  0  0  0  0  0  0  0  0  0
   19.2606   -4.5698  -16.9115 N   0  0  0  0  0  0  0  0  0  0  0  0
   20.3437   -2.6203  -17.7700 C   0  0  0  0  0  0  0  0  0  0  0  0
   20.6661   -1.6027  -18.6430 O   0  0  0  0  0  0  0  0  0  0  0  0
   20.9653   -2.6349  -16.6754 O   0  0  0  0  0  0  0  0  0  0  0  0
  2  1  1  1
  3  2  1  0
  4  5  1  0
  4  3  1  0
  5  6  2  0
  7  2  1  0
  7 10  1  0
  8  7  2  0
  9  5  1  0
 10 11  1  0
 11 12  1  1
 13 14  1  0
 13 12  1  0
 14 15  2  0
 16 22  1  0
 16 11  1  0
 17 16  2  0
 18 14  1  0
 19 20  1  0
 21 20  1  1
 21 22  1  0
 23 21  1  0
 23 24  1  0
 25 23  2  0
M  END
$$$$
