FMV.pdb
     RDKit          3D

 27 27  0  0  1  0  0  0  0  0999 V2000
   27.9631  -19.4901  -15.6608 N   0  0  0  0  0  0  0  0  0  0  0  0
   27.1025  -18.8981  -14.6721 C   0  0  1  0  0  0  0  0  0  0  0  0
   26.0934  -18.0288  -15.3914 C   0  0  0  0  0  0  0  0  0  0  0  0
   26.6842  -16.7655  -15.8637 C   0  0  0  0  0  0  0  0  0  0  0  0
   26.9934  -16.6253  -17.1863 C   0  0  0  0  0  0  0  0  0  0  0  0
   27.5526  -15.4230  -17.6159 C   0  0  0  0  0  0  0  0  0  0  0  0
   27.8058  -14.3715  -16.7624 C   0  0  0  0  0  0  0  0  0  0  0  0
   27.4767  -14.5580  -15.4321 C   0  0  0  0  0  0  0  0  0  0  0  0
   26.9187  -15.7484  -14.9836 C   0  0  0  0  0  0  0  0  0  0  0  0
   26.3355  -19.9391  -13.9344 C   0  0  0  0  0  0  0  0  0  0  0  0
   26.0108  -21.0008  -14.5689 O   0  0  0  0  0  0  0  0  0  0  0  0
   25.3192  -20.7948   -7.4103 C   0  0  0  0  0  0  0  0  0  0  0  0
   26.9832  -20.6520   -8.1434 S   0  0  0  0  0  0  0  0  0  0  0  0
   26.8020  -20.9790   -9.9390 C   0  0  0  0  0  0  0  0  0  0  0  0
   25.4180  -20.6139  -10.3862 C   0  0  0  0  0  0  0  0  0  0  0  0
   25.1745  -20.7229  -11.8639 C   0  0  2  0  0  0  0  0  0  0  0  0
   25.9862  -19.7474  -12.5836 N   0  0  0  0  0  0  0  0  0  0  0  0
   23.7497  -20.5561  -12.1618 C   0  0  0  0  0  0  0  0  0  0  0  0
   23.2668  -19.4021  -12.2424 O   0  0  0  0  0  0  0  0  0  0  0  0
   22.1085  -23.1652  -14.7151 C   0  0  0  0  0  0  0  0  0  0  0  0
   21.6157  -21.7673  -14.4375 C   0  0  1  0  0  0  0  0  0  0  0  0
   20.1600  -21.7012  -14.8935 C   0  0  0  0  0  0  0  0  0  0  0  0
   21.6142  -21.5010  -12.9421 C   0  0  2  0  0  0  0  0  0  0  0  0
   22.9118  -21.7117  -12.3602 N   0  0  0  0  0  0  0  0  0  0  0  0
   20.6531  -22.4002  -12.2424 C   0  0  0  0  0  0  0  0  0  0  0  0
   19.4527  -21.8836  -11.7965 O   0  0  0  0  0  0  0  0  0  0  0  0
   20.9036  -23.6192  -12.0454 O   0  0  0  0  0  0  0  0  0  0  0  0
  2  1  1  6
  2  3  1  0
  4  3  1  0
  5  4  2  0
  6  5  1  0
  7  6  2  0
  7  8  1  0
  8  9  2  0
  9  4  1  0
 10 17  1  0
 10  2  1  0
 11 10  2  0
 13 12  1  0
 14 13  1  0
 15 14  1  0
 16 15  1  1
 16 17  1  0
 18 19  2  0
 18 16  1  0
 21 20  1  1
 21 22  1  0
 23 21  1  0
 23 24  1  1
 24 18  1  0
 25 23  1  0
 26 25  1  0
 27 25  2  0
M  END
$$$$
