FMV.pdb
     RDKit          3D

 27 27  0  0  1  0  0  0  0  0999 V2000
   24.7569  -31.6894  -15.7461 N   0  0  0  0  0  0  0  0  0  0  0  0
   24.0366  -30.6212  -16.3857 C   0  0  1  0  0  0  0  0  0  0  0  0
   22.6700  -31.1450  -16.7719 C   0  0  0  0  0  0  0  0  0  0  0  0
   22.7115  -31.9539  -18.0015 C   0  0  0  0  0  0  0  0  0  0  0  0
   23.1641  -31.3883  -19.1589 C   0  0  0  0  0  0  0  0  0  0  0  0
   23.1959  -32.1684  -20.3136 C   0  0  0  0  0  0  0  0  0  0  0  0
   22.7901  -33.4848  -20.3354 C   0  0  0  0  0  0  0  0  0  0  0  0
   22.3394  -34.0158  -19.1404 C   0  0  0  0  0  0  0  0  0  0  0  0
   22.2997  -33.2554  -17.9786 C   0  0  0  0  0  0  0  0  0  0  0  0
   23.8204  -29.4832  -15.4505 C   0  0  0  0  0  0  0  0  0  0  0  0
   23.8294  -29.7333  -14.1965 O   0  0  0  0  0  0  0  0  0  0  0  0
   26.7642  -23.6054  -15.8696 C   0  0  0  0  0  0  0  0  0  0  0  0
   24.9865  -23.2208  -15.7332 S   0  0  0  0  0  0  0  0  0  0  0  0
   24.2130  -24.6055  -14.8122 C   0  0  0  0  0  0  0  0  0  0  0  0
   24.1833  -25.8347  -15.6706 C   0  0  0  0  0  0  0  0  0  0  0  0
   23.5280  -27.0335  -15.0475 C   0  0  2  0  0  0  0  0  0  0  0  0
   23.6142  -28.1807  -15.9446 N   0  0  0  0  0  0  0  0  0  0  0  0
   22.1375  -26.7327  -14.6969 C   0  0  0  0  0  0  0  0  0  0  0  0
   21.2485  -26.8093  -15.5774 O   0  0  0  0  0  0  0  0  0  0  0  0
   18.6282  -26.2942  -11.3161 C   0  0  0  0  0  0  0  0  0  0  0  0
   20.1037  -26.4541  -11.5830 C   0  0  1  0  0  0  0  0  0  0  0  0
   20.4494  -27.9233  -11.3519 C   0  0  0  0  0  0  0  0  0  0  0  0
   20.4055  -26.1621  -13.0428 C   0  0  2  0  0  0  0  0  0  0  0  0
   21.7972  -26.3518  -13.3494 N   0  0  0  0  0  0  0  0  0  0  0  0
   20.0539  -24.7553  -13.3877 C   0  0  0  0  0  0  0  0  0  0  0  0
   18.7990  -24.4815  -13.8949 O   0  0  0  0  0  0  0  0  0  0  0  0
   20.8684  -23.8070  -13.2302 O   0  0  0  0  0  0  0  0  0  0  0  0
  2  1  1  1
  2  3  1  0
  4  3  1  0
  5  4  2  0
  6  5  1  0
  7  6  2  0
  7  8  1  0
  8  9  2  0
  9  4  1  0
 10 17  1  0
 10  2  1  0
 11 10  2  0
 13 12  1  0
 14 13  1  0
 15 14  1  0
 16 15  1  6
 16 17  1  0
 18 19  2  0
 18 16  1  0
 21 20  1  6
 21 22  1  0
 23 21  1  0
 23 24  1  1
 24 18  1  0
 25 23  1  0
 26 25  1  0
 27 25  2  0
M  END
$$$$
