FMV.pdb
     RDKit          3D

 27 27  0  0  1  0  0  0  0  0999 V2000
   29.8883  -22.2791   -9.5800 N   0  0  0  0  0  0  0  0  0  0  0  0
   28.9957  -21.6670   -8.6327 C   0  0  1  0  0  0  0  0  0  0  0  0
   29.6860  -20.4474   -8.0608 C   0  0  0  0  0  0  0  0  0  0  0  0
   29.1679  -20.0877   -6.7304 C   0  0  0  0  0  0  0  0  0  0  0  0
   28.2624  -19.0718   -6.6177 C   0  0  0  0  0  0  0  0  0  0  0  0
   27.7830  -18.7442   -5.3506 C   0  0  0  0  0  0  0  0  0  0  0  0
   28.1843  -19.4021   -4.2085 C   0  0  0  0  0  0  0  0  0  0  0  0
   29.1024  -20.4239   -4.3703 C   0  0  0  0  0  0  0  0  0  0  0  0
   29.5925  -20.7660   -5.6243 C   0  0  0  0  0  0  0  0  0  0  0  0
   27.7501  -21.1933   -9.2964 C   0  0  0  0  0  0  0  0  0  0  0  0
   27.8073  -20.9207  -10.5444 O   0  0  0  0  0  0  0  0  0  0  0  0
   22.5656  -21.2012   -5.7247 C   0  0  0  0  0  0  0  0  0  0  0  0
   21.6321  -21.7148   -7.2052 S   0  0  0  0  0  0  0  0  0  0  0  0
   22.8191  -21.7265   -8.6034 C   0  0  0  0  0  0  0  0  0  0  0  0
   24.1917  -21.3793   -8.1094 C   0  0  0  0  0  0  0  0  0  0  0  0
   25.2573  -21.3295   -9.1661 C   0  0  2  0  0  0  0  0  0  0  0  0
   26.5565  -21.0547   -8.5619 N   0  0  0  0  0  0  0  0  0  0  0  0
   24.9210  -20.3329  -10.1861 C   0  0  0  0  0  0  0  0  0  0  0  0
   24.9312  -19.1156   -9.8869 O   0  0  0  0  0  0  0  0  0  0  0  0
   24.7747  -18.8528  -14.7688 C   0  0  0  0  0  0  0  0  0  0  0  0
   25.1239  -19.9188  -13.7611 C   0  0  1  0  0  0  0  0  0  0  0  0
   26.5873  -19.7159  -13.3756 C   0  0  0  0  0  0  0  0  0  0  0  0
   24.3107  -19.7257  -12.4927 C   0  0  2  0  0  0  0  0  0  0  0  0
   24.5814  -20.7515  -11.5226 N   0  0  0  0  0  0  0  0  0  0  0  0
   22.8498  -19.7561  -12.7876 C   0  0  0  0  0  0  0  0  0  0  0  0
   22.1326  -20.9033  -12.5116 O   0  0  0  0  0  0  0  0  0  0  0  0
   22.2490  -18.7649  -13.2818 O   0  0  0  0  0  0  0  0  0  0  0  0
  2  1  1  6
  2  3  1  0
  4  3  1  0
  5  4  2  0
  6  5  1  0
  7  6  2  0
  7  8  1  0
  8  9  2  0
  9  4  1  0
 10 17  1  0
 10  2  1  0
 11 10  2  0
 13 12  1  0
 14 13  1  0
 15 14  1  0
 16 15  1  1
 16 17  1  0
 18 19  2  0
 18 16  1  0
 21 20  1  6
 21 22  1  0
 23 21  1  0
 23 24  1  1
 24 18  1  0
 25 23  1  0
 26 25  1  0
 27 25  2  0
M  END
$$$$
