FMV.pdb
     RDKit          3D

 27 27  0  0  1  0  0  0  0  0999 V2000
   27.9861  -20.7383  -13.9697 N   0  0  0  0  0  0  0  0  0  0  0  0
   27.3984  -19.7892  -13.0627 C   0  0  1  0  0  0  0  0  0  0  0  0
   26.2407  -19.1201  -13.7721 C   0  0  0  0  0  0  0  0  0  0  0  0
   26.6933  -18.1804  -14.8113 C   0  0  0  0  0  0  0  0  0  0  0  0
   27.1771  -16.9579  -14.4424 C   0  0  0  0  0  0  0  0  0  0  0  0
   27.6005  -16.0806  -15.4393 C   0  0  0  0  0  0  0  0  0  0  0  0
   27.5512  -16.3953  -16.7797 C   0  0  0  0  0  0  0  0  0  0  0  0
   27.0540  -17.6439  -17.1067 C   0  0  0  0  0  0  0  0  0  0  0  0
   26.6269  -18.5329  -16.1286 C   0  0  0  0  0  0  0  0  0  0  0  0
   26.8412  -20.4682  -11.8608 C   0  0  0  0  0  0  0  0  0  0  0  0
   26.3200  -21.6251  -12.0188 O   0  0  0  0  0  0  0  0  0  0  0  0
   29.0818  -20.0368   -5.5938 C   0  0  0  0  0  0  0  0  0  0  0  0
   27.2995  -19.6700   -5.4681 S   0  0  0  0  0  0  0  0  0  0  0  0
   26.4843  -20.5073   -6.8817 C   0  0  0  0  0  0  0  0  0  0  0  0
   26.9292  -19.8818   -8.1699 C   0  0  0  0  0  0  0  0  0  0  0  0
   26.3422  -20.4892   -9.4113 C   0  0  2  0  0  0  0  0  0  0  0  0
   26.8932  -19.8453  -10.5988 N   0  0  0  0  0  0  0  0  0  0  0  0
   24.8801  -20.3983   -9.3840 C   0  0  0  0  0  0  0  0  0  0  0  0
   24.3253  -19.3005   -9.6257 O   0  0  0  0  0  0  0  0  0  0  0  0
   20.5670  -22.1398  -10.2775 C   0  0  0  0  0  0  0  0  0  0  0  0
   22.0735  -22.1820  -10.3288 C   0  0  1  0  0  0  0  0  0  0  0  0
   22.5055  -21.4241  -11.5819 C   0  0  0  0  0  0  0  0  0  0  0  0
   22.6581  -21.4312   -9.1448 C   0  0  2  0  0  0  0  0  0  0  0  0
   24.0882  -21.5636   -9.0811 N   0  0  0  0  0  0  0  0  0  0  0  0
   22.0988  -21.9432   -7.8615 C   0  0  0  0  0  0  0  0  0  0  0  0
   20.8627  -21.4937   -7.4407 O   0  0  0  0  0  0  0  0  0  0  0  0
   22.7208  -22.7748   -7.1481 O   0  0  0  0  0  0  0  0  0  0  0  0
  2  1  1  6
  2  3  1  0
  4  3  1  0
  5  4  2  0
  6  5  1  0
  7  6  2  0
  7  8  1  0
  8  9  2  0
  9  4  1  0
 10 17  1  0
 10  2  1  0
 11 10  2  0
 13 12  1  0
 14 13  1  0
 15 14  1  0
 16 15  1  1
 16 17  1  0
 18 19  2  0
 18 16  1  0
 21 20  1  1
 21 22  1  0
 23 21  1  0
 23 24  1  1
 24 18  1  0
 25 23  1  0
 26 25  1  0
 27 25  2  0
M  END
$$$$
