FMV.pdb
     RDKit          3D

 27 27  0  0  1  0  0  0  0  0999 V2000
   28.1338  -19.6428  -16.0961 N   0  0  0  0  0  0  0  0  0  0  0  0
   27.2916  -18.9652  -15.1472 C   0  0  1  0  0  0  0  0  0  0  0  0
   26.3151  -18.1049  -15.9201 C   0  0  0  0  0  0  0  0  0  0  0  0
   26.8486  -16.7583  -16.1847 C   0  0  0  0  0  0  0  0  0  0  0  0
   27.1968  -15.9587  -15.1341 C   0  0  0  0  0  0  0  0  0  0  0  0
   27.6995  -14.6868  -15.4029 C   0  0  0  0  0  0  0  0  0  0  0  0
   27.8595  -14.2036  -16.6831 C   0  0  0  0  0  0  0  0  0  0  0  0
   27.4939  -15.0478  -17.7160 C   0  0  0  0  0  0  0  0  0  0  0  0
   26.9909  -16.3189  -17.4695 C   0  0  0  0  0  0  0  0  0  0  0  0
   26.4873  -19.9346  -14.3538 C   0  0  0  0  0  0  0  0  0  0  0  0
   26.1970  -21.0541  -14.8992 O   0  0  0  0  0  0  0  0  0  0  0  0
   27.1142  -20.5466   -8.1616 C   0  0  0  0  0  0  0  0  0  0  0  0
   25.3881  -21.1359   -8.1762 S   0  0  0  0  0  0  0  0  0  0  0  0
   24.9525  -21.4594   -9.9282 C   0  0  0  0  0  0  0  0  0  0  0  0
   25.5665  -20.4115  -10.8077 C   0  0  0  0  0  0  0  0  0  0  0  0
   25.2453  -20.5358  -12.2692 C   0  0  2  0  0  0  0  0  0  0  0  0
   26.0674  -19.6158  -13.0479 N   0  0  0  0  0  0  0  0  0  0  0  0
   23.8174  -20.3036  -12.5014 C   0  0  0  0  0  0  0  0  0  0  0  0
   23.3724  -19.1318  -12.4880 O   0  0  0  0  0  0  0  0  0  0  0  0
   22.0141  -21.1448  -15.5228 C   0  0  0  0  0  0  0  0  0  0  0  0
   21.1721  -21.7279  -14.4161 C   0  0  1  0  0  0  0  0  0  0  0  0
   21.5026  -23.2162  -14.3314 C   0  0  0  0  0  0  0  0  0  0  0  0
   21.5681  -21.1192  -13.0819 C   0  0  2  0  0  0  0  0  0  0  0  0
   22.9334  -21.4158  -12.7431 N   0  0  0  0  0  0  0  0  0  0  0  0
   20.7059  -21.6395  -11.9829 C   0  0  0  0  0  0  0  0  0  0  0  0
   19.4045  -21.1894  -11.8796 O   0  0  0  0  0  0  0  0  0  0  0  0
   21.1296  -22.4788  -11.1440 O   0  0  0  0  0  0  0  0  0  0  0  0
  2  1  1  6
  2  3  1  0
  4  3  1  0
  5  4  2  0
  6  5  1  0
  7  6  2  0
  7  8  1  0
  8  9  2  0
  9  4  1  0
 10 17  1  0
 10  2  1  0
 11 10  2  0
 13 12  1  0
 14 13  1  0
 15 14  1  0
 16 15  1  1
 16 17  1  0
 18 19  2  0
 18 16  1  0
 21 20  1  6
 21 22  1  0
 23 21  1  0
 23 24  1  1
 24 18  1  0
 25 23  1  0
 26 25  1  0
 27 25  2  0
M  END
$$$$
