FMV.pdb
     RDKit          3D

 27 27  0  0  1  0  0  0  0  0999 V2000
   26.2744  -18.2933  -17.2299 N   0  0  0  0  0  0  0  0  0  0  0  0
   25.9206  -17.9287  -15.8843 C   0  0  1  0  0  0  0  0  0  0  0  0
   25.1067  -16.6539  -15.9443 C   0  0  0  0  0  0  0  0  0  0  0  0
   25.9497  -15.4652  -16.1547 C   0  0  0  0  0  0  0  0  0  0  0  0
   26.7189  -15.0006  -15.1266 C   0  0  0  0  0  0  0  0  0  0  0  0
   27.5103  -13.8738  -15.3431 C   0  0  0  0  0  0  0  0  0  0  0  0
   27.5485  -13.2102  -16.5500 C   0  0  0  0  0  0  0  0  0  0  0  0
   26.7534  -13.7160  -17.5624 C   0  0  0  0  0  0  0  0  0  0  0  0
   25.9576  -14.8377  -17.3672 C   0  0  0  0  0  0  0  0  0  0  0  0
   25.0601  -18.9675  -15.2546 C   0  0  0  0  0  0  0  0  0  0  0  0
   24.4191  -19.7585  -16.0282 O   0  0  0  0  0  0  0  0  0  0  0  0
   26.4628  -21.5033   -9.5274 C   0  0  0  0  0  0  0  0  0  0  0  0
   24.6499  -21.5020   -9.3271 S   0  0  0  0  0  0  0  0  0  0  0  0
   23.9304  -21.3556  -11.0078 C   0  0  0  0  0  0  0  0  0  0  0  0
   24.6915  -20.3355  -11.8008 C   0  0  0  0  0  0  0  0  0  0  0  0
   24.2239  -20.1469  -13.2152 C   0  0  2  0  0  0  0  0  0  0  0  0
   24.9649  -19.0639  -13.8528 N   0  0  0  0  0  0  0  0  0  0  0  0
   22.7803  -19.8985  -13.2485 C   0  0  0  0  0  0  0  0  0  0  0  0
   22.3383  -18.7788  -12.8985 O   0  0  0  0  0  0  0  0  0  0  0  0
   20.7025  -19.6866  -16.0987 C   0  0  0  0  0  0  0  0  0  0  0  0
   19.9998  -20.7046  -15.2362 C   0  0  1  0  0  0  0  0  0  0  0  0
   20.4162  -22.0861  -15.7355 C   0  0  0  0  0  0  0  0  0  0  0  0
   20.4852  -20.5978  -13.8008 C   0  0  2  0  0  0  0  0  0  0  0  0
   21.8775  -20.9352  -13.6807 N   0  0  0  0  0  0  0  0  0  0  0  0
   19.7188  -21.5152  -12.9104 C   0  0  0  0  0  0  0  0  0  0  0  0
   18.4355  -21.1702  -12.5350 O   0  0  0  0  0  0  0  0  0  0  0  0
   20.2076  -22.5975  -12.4893 O   0  0  0  0  0  0  0  0  0  0  0  0
  2  1  1  6
  2  3  1  0
  4  3  1  0
  5  4  2  0
  6  5  1  0
  7  6  2  0
  7  8  1  0
  8  9  2  0
  9  4  1  0
 10 17  1  0
 10  2  1  0
 11 10  2  0
 13 12  1  0
 14 13  1  0
 15 14  1  0
 16 15  1  1
 16 17  1  0
 18 19  2  0
 18 16  1  0
 21 20  1  6
 21 22  1  0
 23 21  1  0
 23 24  1  6
 24 18  1  0
 25 23  1  0
 26 25  1  0
 27 25  2  0
M  END
$$$$
