FMV.pdb
     RDKit          3D

 27 27  0  0  1  0  0  0  0  0999 V2000
   25.2651  -18.8936  -16.3435 N   0  0  0  0  0  0  0  0  0  0  0  0
   26.0508  -18.8088  -15.1417 C   0  0  1  0  0  0  0  0  0  0  0  0
   26.6875  -17.4364  -15.0955 C   0  0  0  0  0  0  0  0  0  0  0  0
   27.7005  -17.2575  -16.1490 C   0  0  0  0  0  0  0  0  0  0  0  0
   27.5006  -16.3139  -17.1155 C   0  0  0  0  0  0  0  0  0  0  0  0
   28.4695  -16.1586  -18.1054 C   0  0  0  0  0  0  0  0  0  0  0  0
   29.6191  -16.9167  -18.1490 C   0  0  0  0  0  0  0  0  0  0  0  0
   29.7794  -17.8599  -17.1502 C   0  0  0  0  0  0  0  0  0  0  0  0
   28.8259  -18.0305  -16.1546 C   0  0  0  0  0  0  0  0  0  0  0  0
   25.1950  -18.9347  -13.9300 C   0  0  0  0  0  0  0  0  0  0  0  0
   24.0882  -18.2945  -13.9140 O   0  0  0  0  0  0  0  0  0  0  0  0
   21.5459  -22.4276  -13.5935 C   0  0  0  0  0  0  0  0  0  0  0  0
   20.9230  -21.4467  -12.1876 S   0  0  0  0  0  0  0  0  0  0  0  0
   22.2282  -20.2272  -11.7716 C   0  0  0  0  0  0  0  0  0  0  0  0
   23.5804  -20.8153  -12.0439 C   0  0  0  0  0  0  0  0  0  0  0  0
   24.7436  -19.9364  -11.6846 C   0  0  2  0  0  0  0  0  0  0  0  0
   25.6035  -19.7353  -12.8458 N   0  0  0  0  0  0  0  0  0  0  0  0
   25.4893  -20.5078  -10.5602 C   0  0  0  0  0  0  0  0  0  0  0  0
   26.1302  -21.5729  -10.7222 O   0  0  0  0  0  0  0  0  0  0  0  0
   27.4634  -20.0757   -6.0834 C   0  0  0  0  0  0  0  0  0  0  0  0
   26.7000  -19.4074   -7.1990 C   0  0  1  0  0  0  0  0  0  0  0  0
   27.6703  -18.4699   -7.9137 C   0  0  0  0  0  0  0  0  0  0  0  0
   26.2606  -20.4397   -8.2231 C   0  0  2  0  0  0  0  0  0  0  0  0
   25.4842  -19.8485   -9.2788 N   0  0  0  0  0  0  0  0  0  0  0  0
   25.4268  -21.4989   -7.5869 C   0  0  0  0  0  0  0  0  0  0  0  0
   26.0461  -22.4894   -6.8506 O   0  0  0  0  0  0  0  0  0  0  0  0
   24.1721  -21.5176   -7.7011 O   0  0  0  0  0  0  0  0  0  0  0  0
  2  1  1  6
  2  3  1  0
  4  3  1  0
  5  4  2  0
  6  5  1  0
  7  6  2  0
  7  8  1  0
  8  9  2  0
  9  4  1  0
 10 17  1  0
 10  2  1  0
 11 10  2  0
 13 12  1  0
 14 13  1  0
 15 14  1  0
 16 15  1  6
 16 17  1  0
 18 19  2  0
 18 16  1  0
 21 20  1  1
 21 22  1  0
 23 21  1  0
 23 24  1  6
 24 18  1  0
 25 23  1  0
 26 25  1  0
 27 25  2  0
M  END
$$$$
