FMV.pdb
     RDKit          3D

 27 27  0  0  1  0  0  0  0  0999 V2000
   24.6631  -13.4066  -20.7963 N   0  0  0  0  0  0  0  0  0  0  0  0
   23.5071  -12.7317  -20.2701 C   0  0  1  0  0  0  0  0  0  0  0  0
   22.6858  -13.7433  -19.4999 C   0  0  0  0  0  0  0  0  0  0  0  0
   22.0310  -14.7192  -20.3870 C   0  0  0  0  0  0  0  0  0  0  0  0
   20.7722  -14.4628  -20.8499 C   0  0  0  0  0  0  0  0  0  0  0  0
   20.1672  -15.3978  -21.6880 C   0  0  0  0  0  0  0  0  0  0  0  0
   20.7859  -16.5686  -22.0683 C   0  0  0  0  0  0  0  0  0  0  0  0
   22.0598  -16.7865  -21.5756 C   0  0  0  0  0  0  0  0  0  0  0  0
   22.6804  -15.8674  -20.7392 C   0  0  0  0  0  0  0  0  0  0  0  0
   23.8989  -11.6642  -19.3093 C   0  0  0  0  0  0  0  0  0  0  0  0
   25.1329  -11.5787  -18.9852 O   0  0  0  0  0  0  0  0  0  0  0  0
   24.5651   -5.6251  -20.2306 C   0  0  0  0  0  0  0  0  0  0  0  0
   25.7419   -6.4858  -19.1347 S   0  0  0  0  0  0  0  0  0  0  0  0
   24.7469   -7.5394  -18.0105 C   0  0  0  0  0  0  0  0  0  0  0  0
   24.2694   -8.7574  -18.7435 C   0  0  0  0  0  0  0  0  0  0  0  0
   23.3148   -9.6293  -17.9798 C   0  0  2  0  0  0  0  0  0  0  0  0
   22.9323  -10.7854  -18.7833 N   0  0  0  0  0  0  0  0  0  0  0  0
   22.1415   -8.8589  -17.5596 C   0  0  0  0  0  0  0  0  0  0  0  0
   21.3880   -8.3591  -18.4278 O   0  0  0  0  0  0  0  0  0  0  0  0
   19.3263   -9.9856  -16.5389 C   0  0  0  0  0  0  0  0  0  0  0  0
   19.5423   -8.9918  -15.4255 C   0  0  1  0  0  0  0  0  0  0  0  0
   20.0583   -9.7700  -14.2174 C   0  0  0  0  0  0  0  0  0  0  0  0
   20.6356   -8.0087  -15.8072 C   0  0  2  0  0  0  0  0  0  0  0  0
   21.8582   -8.6786  -16.1582 N   0  0  0  0  0  0  0  0  0  0  0  0
   20.9352   -7.0818  -14.6790 C   0  0  0  0  0  0  0  0  0  0  0  0
   22.1662   -7.1559  -14.0576 O   0  0  0  0  0  0  0  0  0  0  0  0
   20.0979   -6.2315  -14.2747 O   0  0  0  0  0  0  0  0  0  0  0  0
  2  1  1  1
  2  3  1  0
  4  3  1  0
  5  4  2  0
  6  5  1  0
  7  6  2  0
  7  8  1  0
  8  9  2  0
  9  4  1  0
 10 17  1  0
 10  2  1  0
 11 10  2  0
 13 12  1  0
 14 13  1  0
 15 14  1  0
 16 15  1  6
 16 17  1  0
 18 19  2  0
 18 16  1  0
 21 20  1  6
 21 22  1  0
 23 21  1  0
 23 24  1  1
 24 18  1  0
 25 23  1  0
 26 25  1  0
 27 25  2  0
M  END
$$$$
