CNG.pdb
     RDKit          3D

 19 18  0  0  1  0  0  0  0  0999 V2000
    9.2335  -12.3405   18.9655 N   0  0  0  0  0  0  0  0  0  0  0  0
    8.3949  -13.4970   19.0180 C   0  0  1  0  0  0  0  0  0  0  0  0
    7.2845  -13.3588   18.0009 C   0  0  0  0  0  0  0  0  0  0  0  0
    6.1688  -12.0269   18.5587 S   0  0  0  0  0  0  0  0  0  0  0  0
    9.1629  -14.7535   18.7637 C   0  0  0  0  0  0  0  0  0  0  0  0
    8.5580  -15.8694   18.6932 O   0  0  0  0  0  0  0  0  0  0  0  0
   11.0174  -17.1254   15.7411 N   0  0  0  0  0  0  0  0  0  0  0  0
   11.6175  -15.8432   15.9856 C   0  0  0  0  0  0  0  0  0  0  0  0
   11.5885  -15.0380   15.0563 O   0  0  0  0  0  0  0  0  0  0  0  0
   12.1879  -15.6227   17.2741 C   0  0  0  0  0  0  0  0  0  0  0  0
   11.3903  -15.8999   18.5187 C   0  0  2  0  0  0  0  0  0  0  0  0
   10.5489  -14.6683   18.6072 N   0  0  0  0  0  0  0  0  0  0  0  0
   12.1327  -15.8981   19.7768 C   0  0  0  0  0  0  0  0  0  0  0  0
   12.7442  -16.9671   20.1629 O   0  0  0  0  0  0  0  0  0  0  0  0
   12.2762  -14.8117   20.6695 N   0  0  0  0  0  0  0  0  0  0  0  0
   13.0674  -14.9311   21.9105 C   0  0  0  0  0  0  0  0  0  0  0  0
   14.4694  -14.6249   21.5697 C   0  0  0  0  0  0  0  0  0  0  0  0
   14.8364  -14.4137   20.3833 O   0  0  0  0  0  0  0  0  0  0  0  0
   15.4174  -14.5635   22.5625 O   0  0  0  0  0  0  0  0  0  0  0  0
  2  1  1  6
  3  2  1  0
  3  4  1  0
  5  6  2  0
  5  2  1  0
  7  8  1  0
  8  9  2  0
 10  8  1  0
 11 10  1  6
 11 12  1  0
 12  5  1  0
 13 15  1  0
 13 11  1  0
 14 13  2  0
 16 17  1  0
 16 15  1  0
 17 19  1  0
 18 17  2  0
M  END
$$$$
