CNG.pdb
     RDKit          3D

 19 18  0  0  1  0  0  0  0  0999 V2000
    5.6182  -13.4684   26.1559 N   0  0  0  0  0  0  0  0  0  0  0  0
    6.8868  -13.2810   25.5244 C   0  0  1  0  0  0  0  0  0  0  0  0
    7.9579  -13.1374   26.5821 C   0  0  0  0  0  0  0  0  0  0  0  0
    7.6428  -11.5922   27.5003 S   0  0  0  0  0  0  0  0  0  0  0  0
    7.2256  -14.4129   24.6092 C   0  0  0  0  0  0  0  0  0  0  0  0
    6.6978  -15.5561   24.7837 O   0  0  0  0  0  0  0  0  0  0  0  0
    7.6260  -12.6073   20.0206 N   0  0  0  0  0  0  0  0  0  0  0  0
    7.5204  -13.9278   20.5767 C   0  0  0  0  0  0  0  0  0  0  0  0
    6.4688  -14.5295   20.3649 O   0  0  0  0  0  0  0  0  0  0  0  0
    8.6363  -14.4165   21.3183 C   0  0  0  0  0  0  0  0  0  0  0  0
    8.4256  -15.2419   22.5578 C   0  0  2  0  0  0  0  0  0  0  0  0
    8.1286  -14.1818   23.5681 N   0  0  0  0  0  0  0  0  0  0  0  0
    9.6068  -15.9093   23.0994 C   0  0  0  0  0  0  0  0  0  0  0  0
   10.0135  -17.0178   22.5783 O   0  0  0  0  0  0  0  0  0  0  0  0
   10.4055  -15.4659   24.1780 N   0  0  0  0  0  0  0  0  0  0  0  0
   11.5591  -16.2519   24.6590 C   0  0  0  0  0  0  0  0  0  0  0  0
   12.6177  -16.1504   23.6370 C   0  0  0  0  0  0  0  0  0  0  0  0
   13.2399  -15.0757   23.4259 O   0  0  0  0  0  0  0  0  0  0  0  0
   12.9490  -17.2504   22.8831 O   0  0  0  0  0  0  0  0  0  0  0  0
  2  1  1  1
  3  2  1  0
  3  4  1  0
  5  6  2  0
  5  2  1  0
  7  8  1  0
  8  9  2  0
 10  8  1  0
 11 10  1  6
 11 12  1  0
 12  5  1  0
 13 15  1  0
 13 11  1  0
 14 13  2  0
 16 17  1  0
 16 15  1  0
 17 19  1  0
 18 17  2  0
M  END
$$$$
