CNG.pdb
     RDKit          3D

 19 18  0  0  1  0  0  0  0  0999 V2000
    3.2098  -19.8369   22.0492 N   0  0  0  0  0  0  0  0  0  0  0  0
    4.2298  -18.8663   21.8021 C   0  0  1  0  0  0  0  0  0  0  0  0
    3.7232  -17.8481   20.8055 C   0  0  0  0  0  0  0  0  0  0  0  0
    2.4453  -18.6491   19.7782 S   0  0  0  0  0  0  0  0  0  0  0  0
    4.6591  -18.1781   23.0573 C   0  0  0  0  0  0  0  0  0  0  0  0
    3.7997  -17.8622   23.9392 O   0  0  0  0  0  0  0  0  0  0  0  0
    7.6738  -17.4064   27.3044 N   0  0  0  0  0  0  0  0  0  0  0  0
    7.9606  -18.3876   26.2950 C   0  0  0  0  0  0  0  0  0  0  0  0
    8.9937  -19.0388   26.4410 O   0  0  0  0  0  0  0  0  0  0  0  0
    7.0281  -18.5158   25.2235 C   0  0  0  0  0  0  0  0  0  0  0  0
    6.5191  -17.2961   24.5056 C   0  0  2  0  0  0  0  0  0  0  0  0
    6.0162  -17.8948   23.2323 N   0  0  0  0  0  0  0  0  0  0  0  0
    7.5290  -16.3399   24.0585 C   0  0  0  0  0  0  0  0  0  0  0  0
    7.3810  -15.0834   24.3137 O   0  0  0  0  0  0  0  0  0  0  0  0
    8.7140  -16.6359   23.3471 N   0  0  0  0  0  0  0  0  0  0  0  0
    9.6855  -15.5821   22.9923 C   0  0  0  0  0  0  0  0  0  0  0  0
   11.0352  -16.1433   23.1897 C   0  0  0  0  0  0  0  0  0  0  0  0
   11.2480  -17.1101   23.9686 O   0  0  0  0  0  0  0  0  0  0  0  0
   12.1045  -15.6088   22.5121 O   0  0  0  0  0  0  0  0  0  0  0  0
  2  1  1  1
  3  2  1  0
  3  4  1  0
  5  6  2  0
  5  2  1  0
  7  8  1  0
  8  9  2  0
 10  8  1  0
 11 10  1  1
 11 12  1  0
 12  5  1  0
 13 15  1  0
 13 11  1  0
 14 13  2  0
 16 17  1  0
 16 15  1  0
 17 19  1  0
 18 17  2  0
M  END
$$$$
