CNG.pdb
     RDKit          3D

 19 18  0  0  1  0  0  0  0  0999 V2000
    6.1623  -14.8785   20.7616 N   0  0  0  0  0  0  0  0  0  0  0  0
    7.5403  -14.6912   21.0923 C   0  0  1  0  0  0  0  0  0  0  0  0
    7.9685  -13.2979   20.6896 C   0  0  0  0  0  0  0  0  0  0  0  0
    7.9653  -13.2097   18.8669 S   0  0  0  0  0  0  0  0  0  0  0  0
    7.7964  -14.8997   22.5498 C   0  0  0  0  0  0  0  0  0  0  0  0
    7.0541  -14.3386   23.4159 O   0  0  0  0  0  0  0  0  0  0  0  0
    6.2208  -15.7645   25.7167 N   0  0  0  0  0  0  0  0  0  0  0  0
    6.6746  -16.6171   24.6532 C   0  0  0  0  0  0  0  0  0  0  0  0
    5.8370  -16.9366   23.8111 O   0  0  0  0  0  0  0  0  0  0  0  0
    8.0448  -17.0126   24.6711 C   0  0  0  0  0  0  0  0  0  0  0  0
    9.1301  -16.0159   24.3693 C   0  0  2  0  0  0  0  0  0  0  0  0
    8.8626  -15.7193   22.9295 N   0  0  0  0  0  0  0  0  0  0  0  0
   10.4975  -16.5299   24.3643 C   0  0  0  0  0  0  0  0  0  0  0  0
   11.0128  -16.9943   25.4527 O   0  0  0  0  0  0  0  0  0  0  0  0
   11.3718  -16.5895   23.2553 N   0  0  0  0  0  0  0  0  0  0  0  0
   12.7525  -17.0960   23.3867 C   0  0  0  0  0  0  0  0  0  0  0  0
   13.6296  -15.9307   23.6066 C   0  0  0  0  0  0  0  0  0  0  0  0
   13.6116  -15.2762   24.6827 O   0  0  0  0  0  0  0  0  0  0  0  0
   14.4991  -15.5325   22.6199 O   0  0  0  0  0  0  0  0  0  0  0  0
  2  1  1  1
  3  2  1  0
  3  4  1  0
  5  6  2  0
  5  2  1  0
  7  8  1  0
  8  9  2  0
 10  8  1  0
 11 10  1  6
 11 12  1  0
 12  5  1  0
 13 15  1  0
 13 11  1  0
 14 13  2  0
 16 17  1  0
 16 15  1  0
 17 19  1  0
 18 17  2  0
M  END
$$$$
