CNG.pdb
     RDKit          3D

 19 18  0  0  1  0  0  0  0  0999 V2000
   12.0754  -15.6909   13.0739 N   0  0  0  0  0  0  0  0  0  0  0  0
   13.0793  -16.4706   13.7280 C   0  0  1  0  0  0  0  0  0  0  0  0
   14.4335  -15.8361   13.5035 C   0  0  0  0  0  0  0  0  0  0  0  0
   15.2385  -16.6982   12.1112 S   0  0  0  0  0  0  0  0  0  0  0  0
   12.8162  -16.6008   15.1933 C   0  0  0  0  0  0  0  0  0  0  0  0
   12.2478  -15.6568   15.8271 O   0  0  0  0  0  0  0  0  0  0  0  0
    9.9508  -18.2432   18.1919 N   0  0  0  0  0  0  0  0  0  0  0  0
   10.7108  -18.8973   17.1630 C   0  0  0  0  0  0  0  0  0  0  0  0
   10.0910  -19.2401   16.1575 O   0  0  0  0  0  0  0  0  0  0  0  0
   12.1042  -19.0880   17.3999 C   0  0  0  0  0  0  0  0  0  0  0  0
   13.0573  -17.9274   17.3187 C   0  0  2  0  0  0  0  0  0  0  0  0
   13.2082  -17.7760   15.8399 N   0  0  0  0  0  0  0  0  0  0  0  0
   14.4215  -18.1770   17.7779 C   0  0  0  0  0  0  0  0  0  0  0  0
   14.6387  -18.4693   19.0161 O   0  0  0  0  0  0  0  0  0  0  0  0
   15.5956  -18.1410   16.9918 N   0  0  0  0  0  0  0  0  0  0  0  0
   16.9329  -18.3172   17.5924 C   0  0  0  0  0  0  0  0  0  0  0  0
   17.4661  -16.9728   17.8815 C   0  0  0  0  0  0  0  0  0  0  0  0
   17.1280  -16.3281   18.9095 O   0  0  0  0  0  0  0  0  0  0  0  0
   18.3597  -16.3900   17.0154 O   0  0  0  0  0  0  0  0  0  0  0  0
  2  1  1  1
  3  2  1  0
  3  4  1  0
  5  6  2  0
  5  2  1  0
  7  8  1  0
  8  9  2  0
 10  8  1  0
 11 10  1  6
 11 12  1  0
 12  5  1  0
 13 15  1  0
 13 11  1  0
 14 13  2  0
 16 17  1  0
 16 15  1  0
 17 19  1  0
 18 17  2  0
M  END
$$$$
