CNG.pdb
     RDKit          3D

 19 18  0  0  1  0  0  0  0  0999 V2000
    6.9901  -13.8534   19.2951 N   0  0  0  0  0  0  0  0  0  0  0  0
    8.2990  -14.1254   19.8014 C   0  0  1  0  0  0  0  0  0  0  0  0
    8.7733  -12.9492   20.6250 C   0  0  0  0  0  0  0  0  0  0  0  0
    9.0266  -11.5356   19.4992 S   0  0  0  0  0  0  0  0  0  0  0  0
    8.3283  -15.3695   20.6290 C   0  0  0  0  0  0  0  0  0  0  0  0
    7.2876  -15.7457   21.2547 O   0  0  0  0  0  0  0  0  0  0  0  0
    9.1538  -18.6029   18.1516 N   0  0  0  0  0  0  0  0  0  0  0  0
    8.8290  -18.7102   19.5470 C   0  0  0  0  0  0  0  0  0  0  0  0
    7.6867  -19.0772   19.8174 O   0  0  0  0  0  0  0  0  0  0  0  0
    9.8532  -18.3835   20.4842 C   0  0  0  0  0  0  0  0  0  0  0  0
    9.6193  -17.3317   21.5335 C   0  0  2  0  0  0  0  0  0  0  0  0
    9.5182  -16.0993   20.6948 N   0  0  0  0  0  0  0  0  0  0  0  0
   10.7404  -17.0472   22.4258 C   0  0  0  0  0  0  0  0  0  0  0  0
   10.9107  -17.7580   23.4896 O   0  0  0  0  0  0  0  0  0  0  0  0
   11.7171  -16.0394   22.2577 N   0  0  0  0  0  0  0  0  0  0  0  0
   12.4575  -15.4820   23.4071 C   0  0  0  0  0  0  0  0  0  0  0  0
   13.7207  -16.2345   23.5236 C   0  0  0  0  0  0  0  0  0  0  0  0
   14.8120  -15.7762   23.0926 O   0  0  0  0  0  0  0  0  0  0  0  0
   13.7270  -17.4738   24.1172 O   0  0  0  0  0  0  0  0  0  0  0  0
  2  1  1  1
  3  2  1  0
  3  4  1  0
  5  6  2  0
  5  2  1  0
  7  8  1  0
  8  9  2  0
 10  8  1  0
 11 10  1  6
 11 12  1  0
 12  5  1  0
 13 15  1  0
 13 11  1  0
 14 13  2  0
 16 17  1  0
 16 15  1  0
 17 19  1  0
 18 17  2  0
M  END
$$$$
