CNG.pdb
     RDKit          3D

 19 18  0  0  1  0  0  0  0  0999 V2000
    5.9812  -15.8756   26.1397 N   0  0  0  0  0  0  0  0  0  0  0  0
    6.8335  -14.9169   25.5087 C   0  0  1  0  0  0  0  0  0  0  0  0
    7.9634  -14.5554   26.4465 C   0  0  0  0  0  0  0  0  0  0  0  0
    8.0941  -12.7361   26.5000 S   0  0  0  0  0  0  0  0  0  0  0  0
    7.3883  -15.4289   24.2190 C   0  0  0  0  0  0  0  0  0  0  0  0
    7.4256  -16.6789   23.9905 O   0  0  0  0  0  0  0  0  0  0  0  0
    8.3377  -12.4261   19.1851 N   0  0  0  0  0  0  0  0  0  0  0  0
    7.7552  -13.6335   19.7016 C   0  0  0  0  0  0  0  0  0  0  0  0
    7.4466  -14.4906   18.8753 O   0  0  0  0  0  0  0  0  0  0  0  0
    7.5890  -13.7272   21.1150 C   0  0  0  0  0  0  0  0  0  0  0  0
    8.1276  -14.9118   21.8692 C   0  0  2  0  0  0  0  0  0  0  0  0
    7.8595  -14.5055   23.2819 N   0  0  0  0  0  0  0  0  0  0  0  0
    9.5763  -15.0963   21.8354 C   0  0  0  0  0  0  0  0  0  0  0  0
   10.1509  -15.4678   20.7411 O   0  0  0  0  0  0  0  0  0  0  0  0
   10.4760  -14.9037   22.9084 N   0  0  0  0  0  0  0  0  0  0  0  0
   11.2908  -16.0135   23.4418 C   0  0  0  0  0  0  0  0  0  0  0  0
   12.4795  -16.1415   22.5781 C   0  0  0  0  0  0  0  0  0  0  0  0
   12.4796  -16.8644   21.5466 O   0  0  0  0  0  0  0  0  0  0  0  0
   13.6303  -15.4591   22.8918 O   0  0  0  0  0  0  0  0  0  0  0  0
  2  1  1  1
  3  2  1  0
  3  4  1  0
  5  6  2  0
  5  2  1  0
  7  8  1  0
  8  9  2  0
 10  8  1  0
 11 10  1  6
 11 12  1  0
 12  5  1  0
 13 15  1  0
 13 11  1  0
 14 13  2  0
 16 17  1  0
 16 15  1  0
 17 19  1  0
 18 17  2  0
M  END
$$$$
