CNG.pdb
     RDKit          3D

 19 18  0  0  1  0  0  0  0  0999 V2000
    7.2257  -13.4551   18.5644 N   0  0  0  0  0  0  0  0  0  0  0  0
    8.1616  -14.1831   19.3628 C   0  0  1  0  0  0  0  0  0  0  0  0
    9.2096  -13.2339   19.8990 C   0  0  0  0  0  0  0  0  0  0  0  0
    8.3518  -11.8658   20.7490 S   0  0  0  0  0  0  0  0  0  0  0  0
    7.4932  -14.8936   20.4951 C   0  0  0  0  0  0  0  0  0  0  0  0
    6.2483  -14.7391   20.7010 O   0  0  0  0  0  0  0  0  0  0  0  0
    4.8285  -18.2761   22.6451 N   0  0  0  0  0  0  0  0  0  0  0  0
    5.4129  -17.5723   21.5374 C   0  0  0  0  0  0  0  0  0  0  0  0
    4.6304  -17.0517   20.7441 O   0  0  0  0  0  0  0  0  0  0  0  0
    6.8367  -17.5420   21.4592 C   0  0  0  0  0  0  0  0  0  0  0  0
    7.6286  -16.6082   22.3327 C   0  0  2  0  0  0  0  0  0  0  0  0
    8.2663  -15.7231   21.3118 N   0  0  0  0  0  0  0  0  0  0  0  0
    8.7668  -17.1915   23.0386 C   0  0  0  0  0  0  0  0  0  0  0  0
    8.5654  -18.0215   24.0062 O   0  0  0  0  0  0  0  0  0  0  0  0
   10.1348  -16.9508   22.7766 N   0  0  0  0  0  0  0  0  0  0  0  0
   10.9798  -16.1913   23.7198 C   0  0  0  0  0  0  0  0  0  0  0  0
   11.4689  -17.1419   24.7359 C   0  0  0  0  0  0  0  0  0  0  0  0
   11.9309  -18.2717   24.4246 O   0  0  0  0  0  0  0  0  0  0  0  0
   11.4275  -16.8025   26.0668 O   0  0  0  0  0  0  0  0  0  0  0  0
  2  1  1  1
  3  2  1  0
  3  4  1  0
  5  6  2  0
  5  2  1  0
  7  8  1  0
  8  9  2  0
 10  8  1  0
 11 10  1  6
 11 12  1  0
 12  5  1  0
 13 15  1  0
 13 11  1  0
 14 13  2  0
 16 17  1  0
 16 15  1  0
 17 19  1  0
 18 17  2  0
M  END
$$$$
