CNG.pdb
     RDKit          3D

 19 18  0  0  1  0  0  0  0  0999 V2000
    8.6406  -14.1125   17.5239 N   0  0  0  0  0  0  0  0  0  0  0  0
    9.4724  -13.7460   18.6271 C   0  0  1  0  0  0  0  0  0  0  0  0
    8.6087  -13.4697   19.8372 C   0  0  0  0  0  0  0  0  0  0  0  0
    7.5944  -11.9945   19.4834 S   0  0  0  0  0  0  0  0  0  0  0  0
   10.4713  -14.8100   18.9487 C   0  0  0  0  0  0  0  0  0  0  0  0
   10.2817  -16.0043   18.5568 O   0  0  0  0  0  0  0  0  0  0  0  0
   14.7399  -14.0025   17.3903 N   0  0  0  0  0  0  0  0  0  0  0  0
   14.6636  -14.9964   18.4249 C   0  0  0  0  0  0  0  0  0  0  0  0
   15.2556  -16.0537   18.2144 O   0  0  0  0  0  0  0  0  0  0  0  0
   13.9138  -14.6687   19.5930 C   0  0  0  0  0  0  0  0  0  0  0  0
   12.6853  -15.4566   19.9564 C   0  0  2  0  0  0  0  0  0  0  0  0
   11.6068  -14.4591   19.6838 N   0  0  0  0  0  0  0  0  0  0  0  0
   12.5124  -15.7688   21.3730 C   0  0  0  0  0  0  0  0  0  0  0  0
   12.5937  -14.8276   22.2524 O   0  0  0  0  0  0  0  0  0  0  0  0
   12.2482  -17.0408   21.9299 N   0  0  0  0  0  0  0  0  0  0  0  0
   11.9581  -17.2092   23.3679 C   0  0  0  0  0  0  0  0  0  0  0  0
   13.2043  -17.6547   24.0190 C   0  0  0  0  0  0  0  0  0  0  0  0
   14.2782  -17.7978   23.3764 O   0  0  0  0  0  0  0  0  0  0  0  0
   13.2136  -17.9261   25.3660 O   0  0  0  0  0  0  0  0  0  0  0  0
  2  1  1  6
  3  2  1  0
  3  4  1  0
  5  6  2  0
  5  2  1  0
  7  8  1  0
  8  9  2  0
 10  8  1  0
 11 10  1  1
 11 12  1  0
 12  5  1  0
 13 15  1  0
 13 11  1  0
 14 13  2  0
 16 17  1  0
 16 15  1  0
 17 19  1  0
 18 17  2  0
M  END
$$$$
