CNG.pdb
     RDKit          3D

 19 18  0  0  1  0  0  0  0  0999 V2000
    7.1072  -14.1608   17.6688 N   0  0  0  0  0  0  0  0  0  0  0  0
    8.0575  -14.1878   18.7364 C   0  0  1  0  0  0  0  0  0  0  0  0
    7.5562  -13.3304   19.8767 C   0  0  0  0  0  0  0  0  0  0  0  0
    7.6877  -11.5822   19.3702 S   0  0  0  0  0  0  0  0  0  0  0  0
    8.3114  -15.5787   19.2206 C   0  0  0  0  0  0  0  0  0  0  0  0
    7.3626  -16.4237   19.2640 O   0  0  0  0  0  0  0  0  0  0  0  0
   11.2090  -19.9947   18.7179 N   0  0  0  0  0  0  0  0  0  0  0  0
   11.8246  -18.8544   19.3381 C   0  0  0  0  0  0  0  0  0  0  0  0
   12.8885  -19.0553   19.9216 O   0  0  0  0  0  0  0  0  0  0  0  0
   11.1507  -17.6028   19.2215 C   0  0  0  0  0  0  0  0  0  0  0  0
    9.9347  -17.3109   20.0571 C   0  0  2  0  0  0  0  0  0  0  0  0
    9.6063  -15.9204   19.6197 N   0  0  0  0  0  0  0  0  0  0  0  0
   10.1550  -17.1741   21.4947 C   0  0  0  0  0  0  0  0  0  0  0  0
   10.1819  -18.2253   22.2430 O   0  0  0  0  0  0  0  0  0  0  0  0
   10.3581  -15.9695   22.2058 N   0  0  0  0  0  0  0  0  0  0  0  0
   10.5960  -15.9635   23.6630 C   0  0  0  0  0  0  0  0  0  0  0  0
   11.9769  -16.4314   23.8854 C   0  0  0  0  0  0  0  0  0  0  0  0
   12.9251  -16.0953   23.1274 O   0  0  0  0  0  0  0  0  0  0  0  0
   12.2568  -17.2590   24.9461 O   0  0  0  0  0  0  0  0  0  0  0  0
  2  1  1  6
  3  2  1  0
  3  4  1  0
  5  6  2  0
  5  2  1  0
  7  8  1  0
  8  9  2  0
 10  8  1  0
 11 10  1  6
 11 12  1  0
 12  5  1  0
 13 15  1  0
 13 11  1  0
 14 13  2  0
 16 17  1  0
 16 15  1  0
 17 19  1  0
 18 17  2  0
M  END
$$$$
