QMV.pdb
     RDKit          3D

 25 24  0  0  1  0  0  0  0  0999 V2000
   18.5671  -21.5708  -11.2104 N   0  0  0  0  0  0  0  0  0  0  0  0
   17.8936  -21.9745  -12.4009 C   0  0  0  0  0  0  0  0  0  0  0  0
   17.0259  -22.8820  -12.2795 O   0  0  0  0  0  0  0  0  0  0  0  0
   18.2164  -21.3377  -13.6955 C   0  0  0  0  0  0  0  0  0  0  0  0
   19.2661  -20.3079  -13.6632 C   0  0  0  0  0  0  0  0  0  0  0  0
   20.4165  -20.3915  -14.5858 C   0  0  2  0  0  0  0  0  0  0  0  0
   20.5483  -21.8699  -14.8432 N   0  0  0  0  0  0  0  0  0  0  0  0
   21.7405  -19.9916  -14.1265 C   0  0  0  0  0  0  0  0  0  0  0  0
   21.9777  -18.7714  -13.8388 O   0  0  0  0  0  0  0  0  0  0  0  0
   25.3531  -20.8017   -8.8545 C   0  0  0  0  0  0  0  0  0  0  0  0
   26.3137  -21.5065  -10.2107 S   0  0  0  0  0  0  0  0  0  0  0  0
   25.9107  -20.7505  -11.7875 C   0  0  0  0  0  0  0  0  0  0  0  0
   24.5756  -21.2262  -12.3235 C   0  0  0  0  0  0  0  0  0  0  0  0
   24.1580  -20.3632  -13.5278 C   0  0  2  0  0  0  0  0  0  0  0  0
   22.8659  -20.8651  -13.9435 N   0  0  0  0  0  0  0  0  0  0  0  0
   25.1561  -20.6282  -14.5752 C   0  0  0  0  0  0  0  0  0  0  0  0
   25.1318  -21.7197  -15.1858 O   0  0  0  0  0  0  0  0  0  0  0  0
   28.5347  -18.0834  -15.5579 C   0  0  0  0  0  0  0  0  0  0  0  0
   27.6110  -18.6467  -16.6157 C   0  0  2  0  0  0  0  0  0  0  0  0
   26.5714  -17.5943  -16.9112 C   0  0  0  0  0  0  0  0  0  0  0  0
   27.0009  -19.9154  -16.0535 C   0  0  2  0  0  0  0  0  0  0  0  0
   26.1646  -19.6643  -14.9200 N   0  0  0  0  0  0  0  0  0  0  0  0
   28.0537  -20.9403  -15.7396 C   0  0  0  0  0  0  0  0  0  0  0  0
   28.4677  -21.1185  -14.5689 O   0  0  0  0  0  0  0  0  0  0  0  0
   28.6176  -21.7390  -16.7346 O   0  0  0  0  0  0  0  0  0  0  0  0
  1  2  1  0
  2  4  1  0
  3  2  2  0
  4  5  1  0
  6  8  1  0
  6  7  1  1
  6  5  1  0
  8  9  2  0
 11 10  1  0
 12 11  1  0
 12 13  1  0
 14 13  1  1
 14 16  1  0
 15 14  1  0
 15  8  1  0
 16 17  2  0
 16 22  1  0
 19 18  1  1
 19 21  1  0
 20 19  1  0
 21 23  1  0
 21 22  1  1
 23 24  2  0
 23 25  1  0
M  END
$$$$
