QMV.pdb
     RDKit          3D

 25 24  0  0  1  0  0  0  0  0999 V2000
   27.6156  -16.5720  -15.4634 N   0  0  0  0  0  0  0  0  0  0  0  0
   28.3650  -17.3535  -16.3917 C   0  0  0  0  0  0  0  0  0  0  0  0
   29.5331  -16.9554  -16.6523 O   0  0  0  0  0  0  0  0  0  0  0  0
   27.7744  -18.5663  -16.9964 C   0  0  0  0  0  0  0  0  0  0  0  0
   27.0415  -19.4524  -16.0791 C   0  0  0  0  0  0  0  0  0  0  0  0
   27.7579  -20.1546  -14.9950 C   0  0  2  0  0  0  0  0  0  0  0  0
   28.3975  -21.3217  -15.7006 N   0  0  0  0  0  0  0  0  0  0  0  0
   27.0026  -20.7665  -13.9091 C   0  0  0  0  0  0  0  0  0  0  0  0
   26.3212  -21.8246  -14.1191 O   0  0  0  0  0  0  0  0  0  0  0  0
   27.6098  -20.1846   -7.1533 C   0  0  0  0  0  0  0  0  0  0  0  0
   25.8524  -20.0615   -7.5475 S   0  0  0  0  0  0  0  0  0  0  0  0
   25.4715  -20.7571   -9.1573 C   0  0  0  0  0  0  0  0  0  0  0  0
   26.3517  -20.1835  -10.2492 C   0  0  0  0  0  0  0  0  0  0  0  0
   26.0034  -20.8366  -11.5989 C   0  0  2  0  0  0  0  0  0  0  0  0
   26.9431  -20.2915  -12.5550 N   0  0  0  0  0  0  0  0  0  0  0  0
   24.6424  -20.3830  -11.9235 C   0  0  0  0  0  0  0  0  0  0  0  0
   24.4420  -19.1757  -12.1825 O   0  0  0  0  0  0  0  0  0  0  0  0
   21.7606  -22.8713  -13.6184 C   0  0  0  0  0  0  0  0  0  0  0  0
   21.8827  -21.3703  -13.7648 C   0  0  2  0  0  0  0  0  0  0  0  0
   22.9419  -21.1049  -14.8056 C   0  0  0  0  0  0  0  0  0  0  0  0
   22.2594  -20.8131  -12.4063 C   0  0  2  0  0  0  0  0  0  0  0  0
   23.5292  -21.2913  -11.9521 N   0  0  0  0  0  0  0  0  0  0  0  0
   21.1836  -21.0684  -11.3890 C   0  0  0  0  0  0  0  0  0  0  0  0
   21.3760  -21.8232  -10.4057 O   0  0  0  0  0  0  0  0  0  0  0  0
   19.9239  -20.4781  -11.4919 O   0  0  0  0  0  0  0  0  0  0  0  0
  1  2  1  0
  2  4  1  0
  3  2  2  0
  4  5  1  0
  6  8  1  0
  6  7  1  6
  6  5  1  0
  8  9  2  0
 11 10  1  0
 12 11  1  0
 12 13  1  0
 14 13  1  1
 14 16  1  0
 15 14  1  0
 15  8  1  0
 16 17  2  0
 16 22  1  0
 19 18  1  1
 19 21  1  0
 20 19  1  0
 21 23  1  0
 21 22  1  1
 23 24  2  0
 23 25  1  0
M  END
$$$$
