QMV.pdb
     RDKit          3D

 25 24  0  0  1  0  0  0  0  0999 V2000
   28.9292  -18.6586  -16.0952 N   0  0  0  0  0  0  0  0  0  0  0  0
   28.6449  -18.9516  -17.4617 C   0  0  0  0  0  0  0  0  0  0  0  0
   29.4432  -18.4828  -18.3183 O   0  0  0  0  0  0  0  0  0  0  0  0
   27.4681  -19.7708  -17.8217 C   0  0  0  0  0  0  0  0  0  0  0  0
   26.7111  -20.3409  -16.6968 C   0  0  0  0  0  0  0  0  0  0  0  0
   27.4173  -21.0495  -15.6102 C   0  0  2  0  0  0  0  0  0  0  0  0
   27.7700  -22.3754  -16.2322 N   0  0  0  0  0  0  0  0  0  0  0  0
   26.6973  -21.4076  -14.3948 C   0  0  0  0  0  0  0  0  0  0  0  0
   25.7409  -22.2509  -14.4413 O   0  0  0  0  0  0  0  0  0  0  0  0
   25.6052  -20.2797   -6.5792 C   0  0  0  0  0  0  0  0  0  0  0  0
   26.5146  -19.8508   -8.0784 S   0  0  0  0  0  0  0  0  0  0  0  0
   25.8232  -20.6375   -9.5356 C   0  0  0  0  0  0  0  0  0  0  0  0
   26.6555  -20.3755  -10.7744 C   0  0  0  0  0  0  0  0  0  0  0  0
   26.0527  -21.1232  -11.9773 C   0  0  2  0  0  0  0  0  0  0  0  0
   26.9634  -20.8969  -13.0790 N   0  0  0  0  0  0  0  0  0  0  0  0
   24.7653  -20.4670  -12.2521 C   0  0  0  0  0  0  0  0  0  0  0  0
   24.7430  -19.2461  -12.5238 O   0  0  0  0  0  0  0  0  0  0  0  0
   22.6270  -20.8718  -14.9541 C   0  0  0  0  0  0  0  0  0  0  0  0
   21.6629  -21.0754  -13.8059 C   0  0  2  0  0  0  0  0  0  0  0  0
   20.3844  -20.3571  -14.1598 C   0  0  0  0  0  0  0  0  0  0  0  0
   22.3159  -20.5073  -12.5615 C   0  0  2  0  0  0  0  0  0  0  0  0
   23.5247  -21.1913  -12.2174 N   0  0  0  0  0  0  0  0  0  0  0  0
   21.3587  -20.4735  -11.4040 C   0  0  0  0  0  0  0  0  0  0  0  0
   21.3214  -21.3971  -10.5560 O   0  0  0  0  0  0  0  0  0  0  0  0
   20.4691  -19.4147  -11.2204 O   0  0  0  0  0  0  0  0  0  0  0  0
  1  2  1  0
  2  4  1  0
  3  2  2  0
  4  5  1  0
  6  8  1  0
  6  7  1  6
  6  5  1  0
  8  9  2  0
 11 10  1  0
 12 11  1  0
 12 13  1  0
 14 13  1  1
 14 16  1  0
 15 14  1  0
 15  8  1  0
 16 17  2  0
 16 22  1  0
 19 18  1  6
 19 21  1  0
 20 19  1  0
 21 23  1  0
 21 22  1  1
 23 24  2  0
 23 25  1  0
M  END
$$$$
