QMV.pdb
     RDKit          3D

 25 24  0  0  1  0  0  0  0  0999 V2000
   15.3825  -11.5912  -19.8167 N   0  0  0  0  0  0  0  0  0  0  0  0
   15.3227  -10.6478  -18.7488 C   0  0  0  0  0  0  0  0  0  0  0  0
   14.7717   -9.5418  -19.0018 O   0  0  0  0  0  0  0  0  0  0  0  0
   15.8836  -10.9829  -17.4227 C   0  0  0  0  0  0  0  0  0  0  0  0
   16.4545  -12.3316  -17.2864 C   0  0  0  0  0  0  0  0  0  0  0  0
   17.9051  -12.5450  -17.4645 C   0  0  2  0  0  0  0  0  0  0  0  0
   18.0854  -14.0025  -17.1293 N   0  0  0  0  0  0  0  0  0  0  0  0
   18.8481  -11.8601  -16.5895 C   0  0  0  0  0  0  0  0  0  0  0  0
   18.7180  -11.9355  -15.3225 O   0  0  0  0  0  0  0  0  0  0  0  0
   26.2809  -10.1104  -15.0501 C   0  0  0  0  0  0  0  0  0  0  0  0
   25.0252  -10.7232  -16.1931 S   0  0  0  0  0  0  0  0  0  0  0  0
   23.3629  -10.3283  -15.6445 C   0  0  0  0  0  0  0  0  0  0  0  0
   22.3068  -10.8885  -16.5756 C   0  0  0  0  0  0  0  0  0  0  0  0
   20.9052  -10.5046  -16.0679 C   0  0  2  0  0  0  0  0  0  0  0  0
   19.9724  -11.0748  -17.0163 N   0  0  0  0  0  0  0  0  0  0  0  0
   20.8450   -9.0364  -16.1310 C   0  0  0  0  0  0  0  0  0  0  0  0
   20.9839   -8.4620  -17.2336 O   0  0  0  0  0  0  0  0  0  0  0  0
   18.5021   -6.6586  -13.9062 C   0  0  0  0  0  0  0  0  0  0  0  0
   19.2374   -6.2315  -15.1577 C   0  0  2  0  0  0  0  0  0  0  0  0
   18.4622   -6.7627  -16.3378 C   0  0  0  0  0  0  0  0  0  0  0  0
   20.6357   -6.8117  -15.0803 C   0  0  2  0  0  0  0  0  0  0  0  0
   20.6301   -8.2372  -14.9562 N   0  0  0  0  0  0  0  0  0  0  0  0
   21.4378   -6.1708  -13.9834 C   0  0  0  0  0  0  0  0  0  0  0  0
   21.7054   -6.7836  -12.9221 O   0  0  0  0  0  0  0  0  0  0  0  0
   21.9205   -4.8668  -14.0957 O   0  0  0  0  0  0  0  0  0  0  0  0
  1  2  1  0
  2  4  1  0
  3  2  2  0
  4  5  1  0
  6  8  1  0
  6  7  1  1
  6  5  1  0
  8  9  2  0
 11 10  1  0
 12 11  1  0
 12 13  1  0
 14 13  1  6
 14 16  1  0
 15 14  1  0
 15  8  1  0
 16 17  2  0
 16 22  1  0
 19 18  1  1
 19 21  1  0
 20 19  1  0
 21 23  1  0
 21 22  1  1
 23 24  2  0
 23 25  1  0
M  END
$$$$
