QMV.pdb
     RDKit          3D

 25 24  0  0  1  0  0  0  0  0999 V2000
   29.1244  -19.6645  -18.7690 N   0  0  0  0  0  0  0  0  0  0  0  0
   28.9143  -18.9358  -17.5612 C   0  0  0  0  0  0  0  0  0  0  0  0
   29.9463  -18.5665  -16.9370 O   0  0  0  0  0  0  0  0  0  0  0  0
   27.5429  -18.6406  -17.0947 C   0  0  0  0  0  0  0  0  0  0  0  0
   26.8107  -19.7653  -16.4928 C   0  0  0  0  0  0  0  0  0  0  0  0
   27.3128  -20.4021  -15.2583 C   0  0  2  0  0  0  0  0  0  0  0  0
   28.1132  -21.5706  -15.7712 N   0  0  0  0  0  0  0  0  0  0  0  0
   26.3713  -21.0007  -14.3207 C   0  0  0  0  0  0  0  0  0  0  0  0
   25.7739  -22.0880  -14.6185 O   0  0  0  0  0  0  0  0  0  0  0  0
   26.0043  -19.5602   -7.9571 C   0  0  0  0  0  0  0  0  0  0  0  0
   27.0896  -20.8596   -8.5833 S   0  0  0  0  0  0  0  0  0  0  0  0
   26.6661  -21.3435  -10.2587 C   0  0  0  0  0  0  0  0  0  0  0  0
   25.3914  -20.6800  -10.7390 C   0  0  0  0  0  0  0  0  0  0  0  0
   25.0680  -21.1435  -12.1709 C   0  0  2  0  0  0  0  0  0  0  0  0
   26.0288  -20.4806  -13.0264 N   0  0  0  0  0  0  0  0  0  0  0  0
   23.7155  -20.6417  -12.4580 C   0  0  0  0  0  0  0  0  0  0  0  0
   23.5052  -19.4085  -12.4623 O   0  0  0  0  0  0  0  0  0  0  0  0
   20.9352  -22.8216  -14.6497 C   0  0  0  0  0  0  0  0  0  0  0  0
   20.9776  -21.3133  -14.5386 C   0  0  2  0  0  0  0  0  0  0  0  0
   21.9970  -20.8177  -15.5341 C   0  0  0  0  0  0  0  0  0  0  0  0
   21.3577  -20.9759  -13.1105 C   0  0  2  0  0  0  0  0  0  0  0  0
   22.6218  -21.5315  -12.7353 N   0  0  0  0  0  0  0  0  0  0  0  0
   20.2776  -21.3737  -12.1447 C   0  0  0  0  0  0  0  0  0  0  0  0
   19.1802  -20.7677  -12.1015 O   0  0  0  0  0  0  0  0  0  0  0  0
   20.4464  -22.4337  -11.2538 O   0  0  0  0  0  0  0  0  0  0  0  0
  1  2  1  0
  2  4  1  0
  3  2  2  0
  4  5  1  0
  6  8  1  0
  6  7  1  6
  6  5  1  0
  8  9  2  0
 11 10  1  0
 12 11  1  0
 12 13  1  0
 14 13  1  1
 14 16  1  0
 15 14  1  0
 15  8  1  0
 16 17  2  0
 16 22  1  0
 19 18  1  1
 19 21  1  0
 20 19  1  0
 21 23  1  0
 21 22  1  1
 23 24  2  0
 23 25  1  0
M  END
$$$$
