QMV.pdb
     RDKit          3D

 25 24  0  0  1  0  0  0  0  0999 V2000
   27.3660  -19.7510  -17.8661 N   0  0  0  0  0  0  0  0  0  0  0  0
   28.3972  -20.6392  -18.2922 C   0  0  0  0  0  0  0  0  0  0  0  0
   29.1403  -20.2353  -19.2280 O   0  0  0  0  0  0  0  0  0  0  0  0
   28.5628  -21.9581  -17.6452 C   0  0  0  0  0  0  0  0  0  0  0  0
   27.6462  -22.2498  -16.5324 C   0  0  0  0  0  0  0  0  0  0  0  0
   27.5882  -21.3493  -15.3632 C   0  0  2  0  0  0  0  0  0  0  0  0
   28.8992  -21.6012  -14.6655 N   0  0  0  0  0  0  0  0  0  0  0  0
   26.5864  -21.5734  -14.3287 C   0  0  0  0  0  0  0  0  0  0  0  0
   25.5087  -22.1980  -14.6046 O   0  0  0  0  0  0  0  0  0  0  0  0
   26.4089  -19.0562   -7.9538 C   0  0  0  0  0  0  0  0  0  0  0  0
   25.7729  -20.7456   -7.9341 S   0  0  0  0  0  0  0  0  0  0  0  0
   25.1814  -21.2629   -9.5474 C   0  0  0  0  0  0  0  0  0  0  0  0
   26.1347  -20.8695  -10.6575 C   0  0  0  0  0  0  0  0  0  0  0  0
   25.6416  -21.4430  -11.9982 C   0  0  2  0  0  0  0  0  0  0  0  0
   26.6856  -21.1552  -12.9582 N   0  0  0  0  0  0  0  0  0  0  0  0
   24.4293  -20.6822  -12.3372 C   0  0  0  0  0  0  0  0  0  0  0  0
   24.4991  -19.4399  -12.4667 O   0  0  0  0  0  0  0  0  0  0  0  0
   21.1940  -22.2944  -14.3934 C   0  0  0  0  0  0  0  0  0  0  0  0
   21.5917  -20.8355  -14.3428 C   0  0  2  0  0  0  0  0  0  0  0  0
   22.7033  -20.6377  -15.3434 C   0  0  0  0  0  0  0  0  0  0  0  0
   22.0354  -20.5370  -12.9244 C   0  0  2  0  0  0  0  0  0  0  0  0
   23.1592  -21.3276  -12.5252 N   0  0  0  0  0  0  0  0  0  0  0  0
   20.8983  -20.6733  -11.9518 C   0  0  0  0  0  0  0  0  0  0  0  0
   20.8755  -21.5870  -11.0927 O   0  0  0  0  0  0  0  0  0  0  0  0
   19.8180  -19.7908  -11.9603 O   0  0  0  0  0  0  0  0  0  0  0  0
  1  2  1  0
  2  4  1  0
  3  2  2  0
  4  5  1  0
  6  8  1  0
  6  7  1  1
  6  5  1  0
  8  9  2  0
 11 10  1  0
 12 11  1  0
 12 13  1  0
 14 13  1  1
 14 16  1  0
 15 14  1  0
 15  8  1  0
 16 17  2  0
 16 22  1  0
 19 18  1  1
 19 21  1  0
 20 19  1  0
 21 23  1  0
 21 22  1  1
 23 24  2  0
 23 25  1  0
M  END
$$$$
