QMV.pdb
     RDKit          3D

 25 24  0  0  1  0  0  0  0  0999 V2000
   19.5336  -11.3662  -20.9623 N   0  0  0  0  0  0  0  0  0  0  0  0
   18.5204  -12.3632  -20.8466 C   0  0  0  0  0  0  0  0  0  0  0  0
   18.2937  -13.0606  -21.8729 O   0  0  0  0  0  0  0  0  0  0  0  0
   17.7945  -12.5473  -19.5720 C   0  0  0  0  0  0  0  0  0  0  0  0
   18.1707  -11.6379  -18.4788 C   0  0  0  0  0  0  0  0  0  0  0  0
   19.3505  -11.9330  -17.6406 C   0  0  2  0  0  0  0  0  0  0  0  0
   18.8094  -12.8783  -16.6001 N   0  0  0  0  0  0  0  0  0  0  0  0
   19.9690  -10.8661  -16.8639 C   0  0  0  0  0  0  0  0  0  0  0  0
   19.4805  -10.5298  -15.7342 O   0  0  0  0  0  0  0  0  0  0  0  0
   25.8251  -10.7618  -15.0167 C   0  0  0  0  0  0  0  0  0  0  0  0
   25.5716   -8.9764  -14.9340 S   0  0  0  0  0  0  0  0  0  0  0  0
   23.8684   -8.5203  -15.2680 C   0  0  0  0  0  0  0  0  0  0  0  0
   23.1624   -9.5456  -16.1319 C   0  0  0  0  0  0  0  0  0  0  0  0
   21.7064   -9.1098  -16.3764 C   0  0  2  0  0  0  0  0  0  0  0  0
   21.1338  -10.1167  -17.2441 N   0  0  0  0  0  0  0  0  0  0  0  0
   21.7873   -7.8256  -17.0888 C   0  0  0  0  0  0  0  0  0  0  0  0
   22.3852   -7.7677  -18.1862 O   0  0  0  0  0  0  0  0  0  0  0  0
   18.9961   -4.8123  -16.6038 C   0  0  0  0  0  0  0  0  0  0  0  0
   19.8650   -5.0086  -17.8268 C   0  0  2  0  0  0  0  0  0  0  0  0
   19.2085   -6.0655  -18.6797 C   0  0  0  0  0  0  0  0  0  0  0  0
   21.2377   -5.4318  -17.3425 C   0  0  2  0  0  0  0  0  0  0  0  0
   21.1961   -6.6280  -16.5585 N   0  0  0  0  0  0  0  0  0  0  0  0
   21.9288   -4.3194  -16.6060 C   0  0  0  0  0  0  0  0  0  0  0  0
   22.0453   -4.3323  -15.3570 O   0  0  0  0  0  0  0  0  0  0  0  0
   22.4713   -3.2234  -17.2770 O   0  0  0  0  0  0  0  0  0  0  0  0
  1  2  1  0
  2  4  1  0
  3  2  2  0
  4  5  1  0
  6  8  1  0
  6  7  1  1
  6  5  1  0
  8  9  2  0
 11 10  1  0
 12 11  1  0
 12 13  1  0
 14 13  1  6
 14 16  1  0
 15 14  1  0
 15  8  1  0
 16 17  2  0
 16 22  1  0
 19 18  1  1
 19 21  1  0
 20 19  1  0
 21 23  1  0
 21 22  1  1
 23 24  2  0
 23 25  1  0
M  END
$$$$
