QMV.pdb
     RDKit          3D

 25 24  0  0  1  0  0  0  0  0999 V2000
   29.4255  -24.7815  -16.4726 N   0  0  0  0  0  0  0  0  0  0  0  0
   29.9447  -23.6633  -17.1895 C   0  0  0  0  0  0  0  0  0  0  0  0
   30.5168  -23.9108  -18.2860 O   0  0  0  0  0  0  0  0  0  0  0  0
   29.7987  -22.2951  -16.6488 C   0  0  0  0  0  0  0  0  0  0  0  0
   29.1029  -22.1831  -15.3578 C   0  0  0  0  0  0  0  0  0  0  0  0
   27.7949  -21.5018  -15.2763 C   0  0  2  0  0  0  0  0  0  0  0  0
   28.1684  -20.0534  -15.0977 N   0  0  0  0  0  0  0  0  0  0  0  0
   26.9049  -21.7798  -14.1562 C   0  0  0  0  0  0  0  0  0  0  0  0
   26.1195  -22.7846  -14.1957 O   0  0  0  0  0  0  0  0  0  0  0  0
   27.4991  -20.3501   -7.7465 C   0  0  0  0  0  0  0  0  0  0  0  0
   25.7429  -20.0367   -8.0230 S   0  0  0  0  0  0  0  0  0  0  0  0
   25.1847  -20.6732   -9.6053 C   0  0  0  0  0  0  0  0  0  0  0  0
   26.2466  -20.5446  -10.6785 C   0  0  0  0  0  0  0  0  0  0  0  0
   25.7918  -21.2756  -11.9545 C   0  0  2  0  0  0  0  0  0  0  0  0
   26.8142  -21.0137  -12.9448 N   0  0  0  0  0  0  0  0  0  0  0  0
   24.5319  -20.6321  -12.3568 C   0  0  0  0  0  0  0  0  0  0  0  0
   24.5271  -19.4141  -12.6420 O   0  0  0  0  0  0  0  0  0  0  0  0
   20.5188  -20.6091  -14.8136 C   0  0  0  0  0  0  0  0  0  0  0  0
   21.7708  -21.3195  -14.3474 C   0  0  2  0  0  0  0  0  0  0  0  0
   21.4456  -22.7897  -14.2556 C   0  0  0  0  0  0  0  0  0  0  0  0
   22.1509  -20.7298  -13.0036 C   0  0  2  0  0  0  0  0  0  0  0  0
   23.2985  -21.3656  -12.4325 N   0  0  0  0  0  0  0  0  0  0  0  0
   20.9899  -20.7391  -12.0501 C   0  0  0  0  0  0  0  0  0  0  0  0
   20.9661  -21.4990  -11.0523 O   0  0  0  0  0  0  0  0  0  0  0  0
   19.8872  -19.9041  -12.2312 O   0  0  0  0  0  0  0  0  0  0  0  0
  1  2  1  0
  2  4  1  0
  3  2  2  0
  4  5  1  0
  6  8  1  0
  6  7  1  1
  6  5  1  0
  8  9  2  0
 11 10  1  0
 12 11  1  0
 12 13  1  0
 14 13  1  1
 14 16  1  0
 15 14  1  0
 15  8  1  0
 16 17  2  0
 16 22  1  0
 19 18  1  1
 19 21  1  0
 20 19  1  0
 21 23  1  0
 21 22  1  1
 23 24  2  0
 23 25  1  0
M  END
$$$$
