QMV.pdb
     RDKit          3D

 25 24  0  0  1  0  0  0  0  0999 V2000
   22.9748  -22.1342  -13.9857 N   0  0  0  0  0  0  0  0  0  0  0  0
   23.3186  -20.8262  -14.4383 C   0  0  0  0  0  0  0  0  0  0  0  0
   24.2693  -20.7452  -15.2634 O   0  0  0  0  0  0  0  0  0  0  0  0
   22.5749  -19.6459  -13.9491 C   0  0  0  0  0  0  0  0  0  0  0  0
   21.3890  -19.9272  -13.1255 C   0  0  0  0  0  0  0  0  0  0  0  0
   20.2925  -20.7582  -13.6627 C   0  0  2  0  0  0  0  0  0  0  0  0
   19.5877  -19.8290  -14.6160 N   0  0  0  0  0  0  0  0  0  0  0  0
   19.2359  -21.2221  -12.7725 C   0  0  0  0  0  0  0  0  0  0  0  0
   18.5464  -20.3823  -12.1038 O   0  0  0  0  0  0  0  0  0  0  0  0
   13.9656  -24.5383  -14.0379 C   0  0  0  0  0  0  0  0  0  0  0  0
   14.4593  -25.2312  -12.4458 S   0  0  0  0  0  0  0  0  0  0  0  0
   15.6220  -24.1731  -11.5805 C   0  0  0  0  0  0  0  0  0  0  0  0
   16.8000  -23.7875  -12.4521 C   0  0  0  0  0  0  0  0  0  0  0  0
   17.8038  -22.9535  -11.6358 C   0  0  2  0  0  0  0  0  0  0  0  0
   18.8581  -22.5912  -12.5587 N   0  0  0  0  0  0  0  0  0  0  0  0
   18.3330  -23.8602  -10.6057 C   0  0  0  0  0  0  0  0  0  0  0  0
   19.2000  -24.7063  -10.9178 O   0  0  0  0  0  0  0  0  0  0  0  0
   18.9636  -25.2241   -5.9628 C   0  0  0  0  0  0  0  0  0  0  0  0
   18.2058  -24.2699   -6.8598 C   0  0  2  0  0  0  0  0  0  0  0  0
   16.7506  -24.3457   -6.4693 C   0  0  0  0  0  0  0  0  0  0  0  0
   18.4406  -24.7122   -8.2906 C   0  0  2  0  0  0  0  0  0  0  0  0
   17.8807  -23.8027   -9.2429 N   0  0  0  0  0  0  0  0  0  0  0  0
   17.9516  -26.1140   -8.5209 C   0  0  0  0  0  0  0  0  0  0  0  0
   16.7843  -26.3450   -8.9177 O   0  0  0  0  0  0  0  0  0  0  0  0
   18.7728  -27.2206   -8.3039 O   0  0  0  0  0  0  0  0  0  0  0  0
  1  2  1  0
  2  4  1  0
  3  2  2  0
  4  5  1  0
  6  8  1  0
  6  7  1  6
  6  5  1  0
  8  9  2  0
 11 10  1  0
 12 11  1  0
 12 13  1  0
 14 13  1  6
 14 16  1  0
 15 14  1  0
 15  8  1  0
 16 17  2  0
 16 22  1  0
 19 18  1  1
 19 21  1  0
 20 19  1  0
 21 23  1  0
 21 22  1  6
 23 24  2  0
 23 25  1  0
M  END
$$$$
