QSI.pdb
     RDKit          3D

 24 23  0  0  1  0  0  0  0  0999 V2000
   12.8855  -17.1031   18.4934 N   0  0  0  0  0  0  0  0  0  0  0  0
   11.6163  -17.7018   18.1549 C   0  0  0  0  0  0  0  0  0  0  0  0
   11.1125  -17.3582   17.0677 O   0  0  0  0  0  0  0  0  0  0  0  0
   10.9875  -18.6519   19.0671 C   0  0  0  0  0  0  0  0  0  0  0  0
   10.2555  -18.0498   20.2262 C   0  0  0  0  0  0  0  0  0  0  0  0
    8.9793  -18.7545   20.5299 C   0  0  2  0  0  0  0  0  0  0  0  0
    8.2377  -19.2406   19.4024 N   0  0  0  0  0  0  0  0  0  0  0  0
    8.0802  -17.8299   21.2929 C   0  0  0  0  0  0  0  0  0  0  0  0
    7.3074  -17.0810   20.6636 O   0  0  0  0  0  0  0  0  0  0  0  0
    7.4763  -18.7839   25.1030 O   0  0  0  0  0  0  0  0  0  0  0  0
    6.5333  -17.9883   24.4619 C   0  0  0  0  0  0  0  0  0  0  0  0
    7.2195  -17.0003   23.5101 C   0  0  2  0  0  0  0  0  0  0  0  0
    8.1131  -17.8134   22.6908 N   0  0  0  0  0  0  0  0  0  0  0  0
    8.0621  -16.1316   24.3603 C   0  0  0  0  0  0  0  0  0  0  0  0
    9.2835  -16.4066   24.5492 O   0  0  0  0  0  0  0  0  0  0  0  0
    5.9714  -11.5664   27.1968 C   0  0  0  0  0  0  0  0  0  0  0  0
    6.4956  -12.9330   26.8045 C   0  0  0  0  0  0  0  0  0  0  0  0
    7.7991  -12.7682   26.0606 C   0  0  2  0  0  0  0  0  0  0  0  0
    7.6133  -12.0420   24.7523 C   0  0  0  0  0  0  0  0  0  0  0  0
    8.4437  -14.1246   25.8660 C   0  0  2  0  0  0  0  0  0  0  0  0
    7.5990  -14.9694   25.0082 N   0  0  0  0  0  0  0  0  0  0  0  0
    8.6219  -14.8700   27.1349 C   0  0  0  0  0  0  0  0  0  0  0  0
    7.9093  -16.0078   27.4721 O   0  0  0  0  0  0  0  0  0  0  0  0
    9.4650  -14.4990   28.0174 O   0  0  0  0  0  0  0  0  0  0  0  0
  1  2  1  0
  2  4  1  0
  2  3  2  0
  4  5  1  0
  6  5  1  0
  6  7  1  6
  8  9  2  0
  8  6  1  0
 10 11  1  0
 12 11  1  1
 12 13  1  0
 13  8  1  0
 14 12  1  0
 14 21  1  0
 15 14  2  0
 17 16  1  0
 18 17  1  0
 18 19  1  6
 20 21  1  6
 20 18  1  0
 22 20  1  0
 23 22  1  0
 24 22  2  0
M  END
$$$$
