QSI.pdb
     RDKit          3D

 24 23  0  0  1  0  0  0  0  0999 V2000
    7.0287  -15.5182   16.8746 N   0  0  0  0  0  0  0  0  0  0  0  0
    7.6410  -14.2852   16.4400 C   0  0  0  0  0  0  0  0  0  0  0  0
    7.9145  -14.1984   15.2270 O   0  0  0  0  0  0  0  0  0  0  0  0
    7.9127  -13.2225   17.4029 C   0  0  0  0  0  0  0  0  0  0  0  0
    7.5267  -13.5173   18.8192 C   0  0  0  0  0  0  0  0  0  0  0  0
    8.6933  -13.8819   19.6698 C   0  0  2  0  0  0  0  0  0  0  0  0
    9.5980  -14.8529   19.1255 N   0  0  0  0  0  0  0  0  0  0  0  0
    8.1959  -14.4166   20.9783 C   0  0  0  0  0  0  0  0  0  0  0  0
    7.4029  -13.7291   21.6511 O   0  0  0  0  0  0  0  0  0  0  0  0
   10.1368  -17.6236   22.4672 O   0  0  0  0  0  0  0  0  0  0  0  0
    8.7652  -17.6864   22.6865 C   0  0  0  0  0  0  0  0  0  0  0  0
    8.1524  -16.2802   22.6723 C   0  0  2  0  0  0  0  0  0  0  0  0
    8.6197  -15.6697   21.4314 N   0  0  0  0  0  0  0  0  0  0  0  0
    8.7819  -15.5485   23.7931 C   0  0  0  0  0  0  0  0  0  0  0  0
    9.9391  -15.0508   23.6665 O   0  0  0  0  0  0  0  0  0  0  0  0
    6.3299  -11.7708   26.1684 C   0  0  0  0  0  0  0  0  0  0  0  0
    7.4064  -12.6899   25.6273 C   0  0  0  0  0  0  0  0  0  0  0  0
    7.8838  -13.5984   26.7346 C   0  0  2  0  0  0  0  0  0  0  0  0
    8.5225  -12.8263   27.8612 C   0  0  0  0  0  0  0  0  0  0  0  0
    8.8218  -14.6407   26.1626 C   0  0  2  0  0  0  0  0  0  0  0  0
    8.1741  -15.3492   25.0484 N   0  0  0  0  0  0  0  0  0  0  0  0
    9.2049  -15.6800   27.1478 C   0  0  0  0  0  0  0  0  0  0  0  0
    8.6295  -16.9375   27.2112 O   0  0  0  0  0  0  0  0  0  0  0  0
   10.1119  -15.4742   28.0207 O   0  0  0  0  0  0  0  0  0  0  0  0
  1  2  1  0
  2  4  1  0
  2  3  2  0
  4  5  1  0
  6  5  1  0
  6  7  1  6
  8  9  2  0
  8  6  1  0
 10 11  1  0
 12 11  1  6
 12 13  1  0
 13  8  1  0
 14 12  1  0
 14 21  1  0
 15 14  2  0
 17 16  1  0
 18 17  1  0
 18 19  1  1
 20 21  1  6
 20 18  1  0
 22 20  1  0
 23 22  1  0
 24 22  2  0
M  END
$$$$
