QSI.pdb
     RDKit          3D

 24 23  0  0  1  0  0  0  0  0999 V2000
   12.8351  -15.7321   15.9453 N   0  0  0  0  0  0  0  0  0  0  0  0
   11.5603  -16.3867   16.1189 C   0  0  0  0  0  0  0  0  0  0  0  0
   11.1046  -16.9872   15.1261 O   0  0  0  0  0  0  0  0  0  0  0  0
   10.8717  -16.3216   17.4041 C   0  0  0  0  0  0  0  0  0  0  0  0
   11.5595  -15.5232   18.4678 C   0  0  0  0  0  0  0  0  0  0  0  0
   11.5098  -16.1800   19.8033 C   0  0  2  0  0  0  0  0  0  0  0  0
   11.4566  -17.6135   19.8050 N   0  0  0  0  0  0  0  0  0  0  0  0
   10.3060  -15.6859   20.5464 C   0  0  0  0  0  0  0  0  0  0  0  0
    9.9975  -14.4807   20.4661 O   0  0  0  0  0  0  0  0  0  0  0  0
    8.5742  -18.1720   23.3382 O   0  0  0  0  0  0  0  0  0  0  0  0
    7.6972  -17.5086   22.4873 C   0  0  0  0  0  0  0  0  0  0  0  0
    8.3123  -16.1902   22.0009 C   0  0  2  0  0  0  0  0  0  0  0  0
    9.5445  -16.5703   21.3168 N   0  0  0  0  0  0  0  0  0  0  0  0
    8.6919  -15.4421   23.2190 C   0  0  0  0  0  0  0  0  0  0  0  0
    9.8993  -15.4004   23.5977 O   0  0  0  0  0  0  0  0  0  0  0  0
    6.7425  -10.8520   26.8272 C   0  0  0  0  0  0  0  0  0  0  0  0
    7.6062  -12.0920   26.7140 C   0  0  0  0  0  0  0  0  0  0  0  0
    7.1503  -12.9059   25.5269 C   0  0  2  0  0  0  0  0  0  0  0  0
    5.7746  -13.4864   25.7365 C   0  0  0  0  0  0  0  0  0  0  0  0
    8.1757  -13.9794   25.2277 C   0  0  2  0  0  0  0  0  0  0  0  0
    7.7808  -14.7388   24.0318 N   0  0  0  0  0  0  0  0  0  0  0  0
    8.3141  -14.9708   26.3210 C   0  0  0  0  0  0  0  0  0  0  0  0
    7.8115  -16.2595   26.2671 O   0  0  0  0  0  0  0  0  0  0  0  0
    8.9205  -14.6899   27.4076 O   0  0  0  0  0  0  0  0  0  0  0  0
  1  2  1  0
  2  4  1  0
  2  3  2  0
  4  5  1  0
  6  5  1  0
  6  7  1  6
  8  9  2  0
  8  6  1  0
 10 11  1  0
 12 11  1  1
 12 13  1  0
 13  8  1  0
 14 12  1  0
 14 21  1  0
 15 14  2  0
 17 16  1  0
 18 17  1  0
 18 19  1  1
 20 21  1  6
 20 18  1  0
 22 20  1  0
 23 22  1  0
 24 22  2  0
M  END
$$$$
