QSI.pdb
     RDKit          3D

 24 23  0  0  1  0  0  0  0  0999 V2000
    8.0409  -20.2533   16.9277 N   0  0  0  0  0  0  0  0  0  0  0  0
    8.7415  -18.9917   16.8894 C   0  0  0  0  0  0  0  0  0  0  0  0
    9.5857  -18.8526   15.9829 O   0  0  0  0  0  0  0  0  0  0  0  0
    8.4501  -17.9611   17.8809 C   0  0  0  0  0  0  0  0  0  0  0  0
    9.6430  -17.2834   18.4807 C   0  0  0  0  0  0  0  0  0  0  0  0
    9.8508  -17.6430   19.9107 C   0  0  2  0  0  0  0  0  0  0  0  0
    9.5821  -19.0058   20.2689 N   0  0  0  0  0  0  0  0  0  0  0  0
    8.9781  -16.7746   20.7649 C   0  0  0  0  0  0  0  0  0  0  0  0
    9.0270  -15.5375   20.6191 O   0  0  0  0  0  0  0  0  0  0  0  0
    6.9639  -18.4550   24.0694 O   0  0  0  0  0  0  0  0  0  0  0  0
    6.2905  -17.5966   23.2074 C   0  0  0  0  0  0  0  0  0  0  0  0
    7.2601  -16.5770   22.5964 C   0  0  2  0  0  0  0  0  0  0  0  0
    8.1234  -17.3511   21.7096 N   0  0  0  0  0  0  0  0  0  0  0  0
    8.0953  -16.0862   23.7140 C   0  0  0  0  0  0  0  0  0  0  0  0
    9.2439  -16.5766   23.9218 O   0  0  0  0  0  0  0  0  0  0  0  0
    6.1905  -11.9946   27.1921 C   0  0  0  0  0  0  0  0  0  0  0  0
    6.6170  -13.3244   26.6037 C   0  0  0  0  0  0  0  0  0  0  0  0
    8.0676  -13.2415   26.1935 C   0  0  2  0  0  0  0  0  0  0  0  0
    8.2982  -12.1780   25.1498 C   0  0  0  0  0  0  0  0  0  0  0  0
    8.5378  -14.6026   25.7249 C   0  0  2  0  0  0  0  0  0  0  0  0
    7.7025  -15.0714   24.6089 N   0  0  0  0  0  0  0  0  0  0  0  0
    8.4451  -15.6427   26.7771 C   0  0  0  0  0  0  0  0  0  0  0  0
    9.3870  -15.8211   27.7757 O   0  0  0  0  0  0  0  0  0  0  0  0
    7.4661  -16.4589   26.8284 O   0  0  0  0  0  0  0  0  0  0  0  0
  1  2  1  0
  2  4  1  0
  2  3  2  0
  4  5  1  0
  6  5  1  0
  6  7  1  6
  8  9  2  0
  8  6  1  0
 10 11  1  0
 12 11  1  1
 12 13  1  0
 13  8  1  0
 14 12  1  0
 14 21  1  0
 15 14  2  0
 17 16  1  0
 18 17  1  0
 18 19  1  6
 20 21  1  6
 20 18  1  0
 22 20  1  0
 23 22  1  0
 24 22  2  0
M  END
$$$$
