QSI.pdb
     RDKit          3D

 24 23  0  0  1  0  0  0  0  0999 V2000
   10.1179  -13.3631   18.5899 N   0  0  0  0  0  0  0  0  0  0  0  0
    8.6901  -13.3951   18.8005 C   0  0  0  0  0  0  0  0  0  0  0  0
    8.1094  -12.2927   18.8375 O   0  0  0  0  0  0  0  0  0  0  0  0
    8.0013  -14.6717   18.9612 C   0  0  0  0  0  0  0  0  0  0  0  0
    8.8554  -15.8168   19.4099 C   0  0  0  0  0  0  0  0  0  0  0  0
    8.0665  -17.0485   19.6893 C   0  0  2  0  0  0  0  0  0  0  0  0
    7.2100  -17.5077   18.6341 N   0  0  0  0  0  0  0  0  0  0  0  0
    7.2074  -16.8157   20.8947 C   0  0  0  0  0  0  0  0  0  0  0  0
    6.0629  -16.3461   20.7409 O   0  0  0  0  0  0  0  0  0  0  0  0
    7.8765  -18.8817   24.2710 O   0  0  0  0  0  0  0  0  0  0  0  0
    6.6849  -18.2042   24.0377 C   0  0  0  0  0  0  0  0  0  0  0  0
    6.9590  -16.8357   23.4012 C   0  0  2  0  0  0  0  0  0  0  0  0
    7.6896  -17.1235   22.1707 N   0  0  0  0  0  0  0  0  0  0  0  0
    7.8869  -16.1372   24.3170 C   0  0  0  0  0  0  0  0  0  0  0  0
    9.1379  -16.3025   24.2138 O   0  0  0  0  0  0  0  0  0  0  0  0
    6.0772  -11.6343   26.7189 C   0  0  0  0  0  0  0  0  0  0  0  0
    6.9227  -12.6508   25.9785 C   0  0  0  0  0  0  0  0  0  0  0  0
    7.7160  -13.4570   26.9786 C   0  0  2  0  0  0  0  0  0  0  0  0
    8.6904  -12.6004   27.7469 C   0  0  0  0  0  0  0  0  0  0  0  0
    8.4092  -14.6007   26.2682 C   0  0  2  0  0  0  0  0  0  0  0  0
    7.4772  -15.2623   25.3426 N   0  0  0  0  0  0  0  0  0  0  0  0
    8.8900  -15.6534   27.1946 C   0  0  0  0  0  0  0  0  0  0  0  0
   10.1493  -15.6638   27.7694 O   0  0  0  0  0  0  0  0  0  0  0  0
    8.1538  -16.6404   27.5276 O   0  0  0  0  0  0  0  0  0  0  0  0
  1  2  1  0
  2  4  1  0
  2  3  2  0
  4  5  1  0
  6  5  1  0
  6  7  1  6
  8  9  2  0
  8  6  1  0
 10 11  1  0
 12 11  1  1
 12 13  1  0
 13  8  1  0
 14 12  1  0
 14 21  1  0
 15 14  2  0
 17 16  1  0
 18 17  1  0
 18 19  1  6
 20 21  1  6
 20 18  1  0
 22 20  1  0
 23 22  1  0
 24 22  2  0
M  END
$$$$
