QSI.pdb
     RDKit          3D

 24 23  0  0  1  0  0  0  0  0999 V2000
   13.9207  -14.2146   19.6053 N   0  0  0  0  0  0  0  0  0  0  0  0
   13.1998  -14.7205   18.4616 C   0  0  0  0  0  0  0  0  0  0  0  0
   13.8727  -14.9484   17.4374 O   0  0  0  0  0  0  0  0  0  0  0  0
   11.7584  -14.9360   18.5403 C   0  0  0  0  0  0  0  0  0  0  0  0
   11.2885  -15.7567   19.7011 C   0  0  0  0  0  0  0  0  0  0  0  0
    9.9914  -16.4387   19.4364 C   0  0  2  0  0  0  0  0  0  0  0  0
    9.3714  -16.1571   18.1739 N   0  0  0  0  0  0  0  0  0  0  0  0
    9.0145  -16.0640   20.5090 C   0  0  0  0  0  0  0  0  0  0  0  0
    8.4290  -14.9657   20.4380 O   0  0  0  0  0  0  0  0  0  0  0  0
    8.5175  -18.6242   23.8357 O   0  0  0  0  0  0  0  0  0  0  0  0
    7.4261  -18.0543   23.1897 C   0  0  0  0  0  0  0  0  0  0  0  0
    7.7934  -16.6759   22.6256 C   0  0  2  0  0  0  0  0  0  0  0  0
    8.7681  -16.9394   21.5713 N   0  0  0  0  0  0  0  0  0  0  0  0
    8.4965  -15.9627   23.7139 C   0  0  0  0  0  0  0  0  0  0  0  0
    9.7565  -16.0306   23.8180 O   0  0  0  0  0  0  0  0  0  0  0  0
    5.7943  -12.3430   27.2872 C   0  0  0  0  0  0  0  0  0  0  0  0
    6.5049  -13.5889   26.7983 C   0  0  0  0  0  0  0  0  0  0  0  0
    7.7923  -13.1896   26.1181 C   0  0  2  0  0  0  0  0  0  0  0  0
    7.5475  -12.2951   24.9293 C   0  0  0  0  0  0  0  0  0  0  0  0
    8.5684  -14.4331   25.7377 C   0  0  2  0  0  0  0  0  0  0  0  0
    7.8526  -15.1773   24.6904 N   0  0  0  0  0  0  0  0  0  0  0  0
    8.7453  -15.3755   26.8683 C   0  0  0  0  0  0  0  0  0  0  0  0
    8.1049  -16.5989   26.9650 O   0  0  0  0  0  0  0  0  0  0  0  0
    9.5185  -15.1099   27.8474 O   0  0  0  0  0  0  0  0  0  0  0  0
  1  2  1  0
  2  4  1  0
  2  3  2  0
  4  5  1  0
  6  5  1  0
  6  7  1  6
  8  9  2  0
  8  6  1  0
 10 11  1  0
 12 11  1  1
 12 13  1  0
 13  8  1  0
 14 12  1  0
 14 21  1  0
 15 14  2  0
 17 16  1  0
 18 17  1  0
 18 19  1  6
 20 21  1  6
 20 18  1  0
 22 20  1  0
 23 22  1  0
 24 22  2  0
M  END
$$$$
