QSI.pdb
     RDKit          3D

 24 23  0  0  1  0  0  0  0  0999 V2000
    8.4854  -12.7682   17.2576 N   0  0  0  0  0  0  0  0  0  0  0  0
    8.1320  -13.9653   16.5323 C   0  0  0  0  0  0  0  0  0  0  0  0
    7.7660  -13.8110   15.3507 O   0  0  0  0  0  0  0  0  0  0  0  0
    8.2088  -15.2680   17.1859 C   0  0  0  0  0  0  0  0  0  0  0  0
    8.6294  -15.2481   18.6227 C   0  0  0  0  0  0  0  0  0  0  0  0
    8.6167  -16.6009   19.2451 C   0  0  2  0  0  0  0  0  0  0  0  0
    8.1426  -17.6751   18.4211 N   0  0  0  0  0  0  0  0  0  0  0  0
    7.7589  -16.5658   20.4732 C   0  0  0  0  0  0  0  0  0  0  0  0
    6.5480  -16.2926   20.3583 O   0  0  0  0  0  0  0  0  0  0  0  0
    9.0002  -18.6342   23.5478 O   0  0  0  0  0  0  0  0  0  0  0  0
    7.6765  -18.2087   23.5633 C   0  0  0  0  0  0  0  0  0  0  0  0
    7.5572  -16.7978   22.9732 C   0  0  2  0  0  0  0  0  0  0  0  0
    8.3159  -16.8371   21.7268 N   0  0  0  0  0  0  0  0  0  0  0  0
    8.2773  -15.9027   23.9048 C   0  0  0  0  0  0  0  0  0  0  0  0
    9.5358  -15.7823   23.8369 O   0  0  0  0  0  0  0  0  0  0  0  0
    5.5801  -11.7540   26.2236 C   0  0  0  0  0  0  0  0  0  0  0  0
    6.6376  -12.5847   25.5251 C   0  0  0  0  0  0  0  0  0  0  0  0
    7.4346  -13.3425   26.5595 C   0  0  2  0  0  0  0  0  0  0  0  0
    8.1579  -12.4157   27.5036 C   0  0  0  0  0  0  0  0  0  0  0  0
    8.3857  -14.2947   25.8652 C   0  0  2  0  0  0  0  0  0  0  0  0
    7.6519  -15.1367   24.9084 N   0  0  0  0  0  0  0  0  0  0  0  0
    9.0625  -15.2242   26.8009 C   0  0  0  0  0  0  0  0  0  0  0  0
    8.5339  -16.4379   27.2055 O   0  0  0  0  0  0  0  0  0  0  0  0
   10.2033  -14.9555   27.3044 O   0  0  0  0  0  0  0  0  0  0  0  0
  1  2  1  0
  2  4  1  0
  2  3  2  0
  4  5  1  0
  6  5  1  0
  6  7  1  6
  8  9  2  0
  8  6  1  0
 10 11  1  0
 12 11  1  1
 12 13  1  0
 13  8  1  0
 14 12  1  0
 14 21  1  0
 15 14  2  0
 17 16  1  0
 18 17  1  0
 18 19  1  6
 20 21  1  6
 20 18  1  0
 22 20  1  0
 23 22  1  0
 24 22  2  0
M  END
$$$$
