QSI.pdb
     RDKit          3D

 24 23  0  0  1  0  0  0  0  0999 V2000
    8.3550  -12.8767   16.3407 N   0  0  0  0  0  0  0  0  0  0  0  0
    8.1414  -14.2835   16.0976 C   0  0  0  0  0  0  0  0  0  0  0  0
    8.0010  -14.6263   14.9074 O   0  0  0  0  0  0  0  0  0  0  0  0
    8.0948  -15.2216   17.2147 C   0  0  0  0  0  0  0  0  0  0  0  0
    8.1401  -14.6069   18.5793 C   0  0  0  0  0  0  0  0  0  0  0  0
    8.7333  -15.5145   19.6000 C   0  0  2  0  0  0  0  0  0  0  0  0
    8.7727  -16.9087   19.2647 N   0  0  0  0  0  0  0  0  0  0  0  0
    7.9625  -15.3825   20.8782 C   0  0  0  0  0  0  0  0  0  0  0  0
    7.6811  -14.2439   21.3007 O   0  0  0  0  0  0  0  0  0  0  0  0
    7.7908  -18.5193   23.6579 O   0  0  0  0  0  0  0  0  0  0  0  0
    6.5990  -17.9520   23.2210 C   0  0  0  0  0  0  0  0  0  0  0  0
    6.8126  -16.4841   22.8299 C   0  0  2  0  0  0  0  0  0  0  0  0
    7.5677  -16.5250   21.5813 N   0  0  0  0  0  0  0  0  0  0  0  0
    7.6971  -15.9093   23.8666 C   0  0  0  0  0  0  0  0  0  0  0  0
    8.9556  -15.9575   23.7367 O   0  0  0  0  0  0  0  0  0  0  0  0
    5.7523  -11.6192   26.3799 C   0  0  0  0  0  0  0  0  0  0  0  0
    6.6834  -12.5812   25.6701 C   0  0  0  0  0  0  0  0  0  0  0  0
    7.3410  -13.4778   26.6915 C   0  0  2  0  0  0  0  0  0  0  0  0
    8.2139  -12.7010   27.6443 C   0  0  0  0  0  0  0  0  0  0  0  0
    8.1138  -14.5694   25.9812 C   0  0  2  0  0  0  0  0  0  0  0  0
    7.2361  -15.2832   25.0416 N   0  0  0  0  0  0  0  0  0  0  0  0
    8.6522  -15.5952   26.9060 C   0  0  0  0  0  0  0  0  0  0  0  0
    7.9725  -16.7454   27.2684 O   0  0  0  0  0  0  0  0  0  0  0  0
    9.8052  -15.4780   27.4390 O   0  0  0  0  0  0  0  0  0  0  0  0
  1  2  1  0
  2  4  1  0
  2  3  2  0
  4  5  1  0
  6  5  1  0
  6  7  1  6
  8  9  2  0
  8  6  1  0
 10 11  1  0
 12 11  1  1
 12 13  1  0
 13  8  1  0
 14 12  1  0
 14 21  1  0
 15 14  2  0
 17 16  1  0
 18 17  1  0
 18 19  1  6
 20 21  1  6
 20 18  1  0
 22 20  1  0
 23 22  1  0
 24 22  2  0
M  END
$$$$
