QSI.pdb
     RDKit          3D

 24 23  0  0  1  0  0  0  0  0999 V2000
   13.4027  -18.0518   18.1166 N   0  0  0  0  0  0  0  0  0  0  0  0
   12.3575  -18.8551   17.5283 C   0  0  0  0  0  0  0  0  0  0  0  0
   12.7244  -19.8426   16.8619 O   0  0  0  0  0  0  0  0  0  0  0  0
   10.9571  -18.4935   17.7239 C   0  0  0  0  0  0  0  0  0  0  0  0
   10.7070  -17.3565   18.6655 C   0  0  0  0  0  0  0  0  0  0  0  0
   10.5003  -17.8067   20.0698 C   0  0  2  0  0  0  0  0  0  0  0  0
    9.9771  -19.1311   20.2421 N   0  0  0  0  0  0  0  0  0  0  0  0
    9.5601  -16.8609   20.7529 C   0  0  0  0  0  0  0  0  0  0  0  0
    9.6750  -15.6371   20.5447 O   0  0  0  0  0  0  0  0  0  0  0  0
    7.0328  -18.4701   23.5162 O   0  0  0  0  0  0  0  0  0  0  0  0
    6.4609  -17.4988   22.7021 C   0  0  0  0  0  0  0  0  0  0  0  0
    7.5289  -16.5175   22.2025 C   0  0  2  0  0  0  0  0  0  0  0  0
    8.5702  -17.3516   21.6101 N   0  0  0  0  0  0  0  0  0  0  0  0
    8.0996  -15.8841   23.4111 C   0  0  0  0  0  0  0  0  0  0  0  0
    9.1828  -16.3099   23.9094 O   0  0  0  0  0  0  0  0  0  0  0  0
    7.1645  -11.0314   27.2101 C   0  0  0  0  0  0  0  0  0  0  0  0
    7.9132  -12.3104   26.8940 C   0  0  0  0  0  0  0  0  0  0  0  0
    7.2474  -12.9976   25.7261 C   0  0  2  0  0  0  0  0  0  0  0  0
    5.8283  -13.3973   26.0417 C   0  0  0  0  0  0  0  0  0  0  0  0
    8.0846  -14.1836   25.2949 C   0  0  2  0  0  0  0  0  0  0  0  0
    7.5123  -14.7960   24.0864 N   0  0  0  0  0  0  0  0  0  0  0  0
    8.1407  -15.2565   26.3162 C   0  0  0  0  0  0  0  0  0  0  0  0
    9.1639  -15.3965   27.2380 O   0  0  0  0  0  0  0  0  0  0  0  0
    7.2257  -16.1402   26.4109 O   0  0  0  0  0  0  0  0  0  0  0  0
  1  2  1  0
  2  4  1  0
  2  3  2  0
  4  5  1  0
  6  5  1  0
  6  7  1  6
  8  9  2  0
  8  6  1  0
 10 11  1  0
 12 11  1  1
 12 13  1  0
 13  8  1  0
 14 12  1  0
 14 21  1  0
 15 14  2  0
 17 16  1  0
 18 17  1  0
 18 19  1  1
 20 21  1  6
 20 18  1  0
 22 20  1  0
 23 22  1  0
 24 22  2  0
M  END
$$$$
