QSI.pdb
     RDKit          3D

 24 23  0  0  1  0  0  0  0  0999 V2000
   12.7853  -19.1989   17.1054 N   0  0  0  0  0  0  0  0  0  0  0  0
   13.4269  -18.1747   17.8948 C   0  0  0  0  0  0  0  0  0  0  0  0
   14.6715  -18.1312   17.8423 O   0  0  0  0  0  0  0  0  0  0  0  0
   12.6244  -17.2606   18.7014 C   0  0  0  0  0  0  0  0  0  0  0  0
   12.5041  -17.6118   20.1519 C   0  0  0  0  0  0  0  0  0  0  0  0
   11.2228  -18.2991   20.4735 C   0  0  2  0  0  0  0  0  0  0  0  0
   10.6077  -19.0300   19.4034 N   0  0  0  0  0  0  0  0  0  0  0  0
   10.2300  -17.2836   20.9515 C   0  0  0  0  0  0  0  0  0  0  0  0
   10.3447  -16.1008   20.5745 O   0  0  0  0  0  0  0  0  0  0  0  0
    7.4099  -18.5714   23.6487 O   0  0  0  0  0  0  0  0  0  0  0  0
    6.9724  -17.6921   22.6645 C   0  0  0  0  0  0  0  0  0  0  0  0
    8.1148  -16.7703   22.2191 C   0  0  2  0  0  0  0  0  0  0  0  0
    9.1924  -17.6649   21.8078 N   0  0  0  0  0  0  0  0  0  0  0  0
    8.5654  -16.0603   23.4358 C   0  0  0  0  0  0  0  0  0  0  0  0
    9.6661  -16.3605   23.9848 O   0  0  0  0  0  0  0  0  0  0  0  0
    7.0041  -11.2870   27.1356 C   0  0  0  0  0  0  0  0  0  0  0  0
    7.8880  -12.4840   26.8488 C   0  0  0  0  0  0  0  0  0  0  0  0
    7.4027  -13.1679   25.5933 C   0  0  2  0  0  0  0  0  0  0  0  0
    5.9396  -13.5230   25.6746 C   0  0  0  0  0  0  0  0  0  0  0  0
    8.2632  -14.3828   25.3160 C   0  0  2  0  0  0  0  0  0  0  0  0
    7.8393  -15.0299   24.0652 N   0  0  0  0  0  0  0  0  0  0  0  0
    8.1636  -15.4179   26.3725 C   0  0  0  0  0  0  0  0  0  0  0  0
    9.0207  -15.5046   27.4560 O   0  0  0  0  0  0  0  0  0  0  0  0
    7.2584  -16.3164   26.3472 O   0  0  0  0  0  0  0  0  0  0  0  0
  1  2  1  0
  2  4  1  0
  2  3  2  0
  4  5  1  0
  6  5  1  0
  6  7  1  6
  8  9  2  0
  8  6  1  0
 10 11  1  0
 12 11  1  1
 12 13  1  0
 13  8  1  0
 14 12  1  0
 14 21  1  0
 15 14  2  0
 17 16  1  0
 18 17  1  0
 18 19  1  1
 20 21  1  6
 20 18  1  0
 22 20  1  0
 23 22  1  0
 24 22  2  0
M  END
$$$$
