QSI.pdb
     RDKit          3D

 24 23  0  0  1  0  0  0  0  0999 V2000
    9.8540  -12.3941   18.7307 N   0  0  0  0  0  0  0  0  0  0  0  0
    9.1506  -13.1219   17.7014 C   0  0  0  0  0  0  0  0  0  0  0  0
    9.8379  -13.5430   16.7506 O   0  0  0  0  0  0  0  0  0  0  0  0
    7.7094  -13.3285   17.8043 C   0  0  0  0  0  0  0  0  0  0  0  0
    7.2072  -13.7279   19.1571 C   0  0  0  0  0  0  0  0  0  0  0  0
    7.8918  -14.9377   19.6912 C   0  0  2  0  0  0  0  0  0  0  0  0
    7.7977  -16.1257   18.8929 N   0  0  0  0  0  0  0  0  0  0  0  0
    7.3306  -15.2601   21.0427 C   0  0  0  0  0  0  0  0  0  0  0  0
    6.2653  -14.7204   21.4004 O   0  0  0  0  0  0  0  0  0  0  0  0
    9.4123  -17.9997   23.2810 O   0  0  0  0  0  0  0  0  0  0  0  0
    8.0439  -17.8970   23.5055 C   0  0  0  0  0  0  0  0  0  0  0  0
    7.5610  -16.4649   23.2428 C   0  0  2  0  0  0  0  0  0  0  0  0
    7.9980  -16.1549   21.8849 N   0  0  0  0  0  0  0  0  0  0  0  0
    8.3269  -15.5992   24.1656 C   0  0  0  0  0  0  0  0  0  0  0  0
    9.5158  -15.2608   23.8917 O   0  0  0  0  0  0  0  0  0  0  0  0
    5.7364  -11.9910   27.5075 C   0  0  0  0  0  0  0  0  0  0  0  0
    6.4684  -13.2709   27.1579 C   0  0  0  0  0  0  0  0  0  0  0  0
    7.7888  -12.9253   26.5125 C   0  0  2  0  0  0  0  0  0  0  0  0
    7.6057  -12.1226   25.2494 C   0  0  0  0  0  0  0  0  0  0  0  0
    8.5766  -14.1947   26.2645 C   0  0  2  0  0  0  0  0  0  0  0  0
    7.8217  -15.0957   25.3806 N   0  0  0  0  0  0  0  0  0  0  0  0
    8.8473  -14.9613   27.5041 C   0  0  0  0  0  0  0  0  0  0  0  0
    8.3327  -16.2196   27.7653 O   0  0  0  0  0  0  0  0  0  0  0  0
    9.5903  -14.4963   28.4309 O   0  0  0  0  0  0  0  0  0  0  0  0
  1  2  1  0
  2  4  1  0
  2  3  2  0
  4  5  1  0
  6  5  1  0
  6  7  1  6
  8  9  2  0
  8  6  1  0
 10 11  1  0
 12 11  1  1
 12 13  1  0
 13  8  1  0
 14 12  1  0
 14 21  1  0
 15 14  2  0
 17 16  1  0
 18 17  1  0
 18 19  1  6
 20 21  1  6
 20 18  1  0
 22 20  1  0
 23 22  1  0
 24 22  2  0
M  END
$$$$
