QSI.pdb
     RDKit          3D

 24 23  0  0  1  0  0  0  0  0999 V2000
   13.1551  -19.0006   22.7215 N   0  0  0  0  0  0  0  0  0  0  0  0
   13.0958  -17.7816   21.9505 C   0  0  0  0  0  0  0  0  0  0  0  0
   14.1074  -17.0541   21.9833 O   0  0  0  0  0  0  0  0  0  0  0  0
   11.8944  -17.4533   21.1896 C   0  0  0  0  0  0  0  0  0  0  0  0
   10.8163  -18.4922   21.2008 C   0  0  0  0  0  0  0  0  0  0  0  0
    9.6379  -18.1078   20.3755 C   0  0  2  0  0  0  0  0  0  0  0  0
    9.9186  -17.4231   19.1467 N   0  0  0  0  0  0  0  0  0  0  0  0
    8.7408  -17.2232   21.1867 C   0  0  0  0  0  0  0  0  0  0  0  0
    8.3894  -16.1232   20.7169 O   0  0  0  0  0  0  0  0  0  0  0  0
    7.5676  -18.6217   24.9068 O   0  0  0  0  0  0  0  0  0  0  0  0
    6.6577  -17.8960   24.1460 C   0  0  0  0  0  0  0  0  0  0  0  0
    7.3853  -16.8609   23.2786 C   0  0  2  0  0  0  0  0  0  0  0  0
    8.3080  -17.6328   22.4517 N   0  0  0  0  0  0  0  0  0  0  0  0
    8.1963  -16.0456   24.2086 C   0  0  0  0  0  0  0  0  0  0  0  0
    9.4182  -16.3153   24.4019 O   0  0  0  0  0  0  0  0  0  0  0  0
    5.9680  -11.7261   27.3026 C   0  0  0  0  0  0  0  0  0  0  0  0
    6.5208  -13.0533   26.8239 C   0  0  0  0  0  0  0  0  0  0  0  0
    7.8476  -12.8199   26.1424 C   0  0  2  0  0  0  0  0  0  0  0  0
    7.6998  -11.9964   24.8881 C   0  0  0  0  0  0  0  0  0  0  0  0
    8.5145  -14.1514   25.8674 C   0  0  2  0  0  0  0  0  0  0  0  0
    7.7010  -14.9424   24.9317 N   0  0  0  0  0  0  0  0  0  0  0  0
    8.6732  -14.9834   27.0840 C   0  0  0  0  0  0  0  0  0  0  0  0
    7.9690  -16.1512   27.3217 O   0  0  0  0  0  0  0  0  0  0  0  0
    9.4897  -14.6659   28.0111 O   0  0  0  0  0  0  0  0  0  0  0  0
  1  2  1  0
  2  4  1  0
  2  3  2  0
  4  5  1  0
  6  5  1  0
  6  7  1  6
  8  9  2  0
  8  6  1  0
 10 11  1  0
 12 11  1  1
 12 13  1  0
 13  8  1  0
 14 12  1  0
 14 21  1  0
 15 14  2  0
 17 16  1  0
 18 17  1  0
 18 19  1  6
 20 21  1  6
 20 18  1  0
 22 20  1  0
 23 22  1  0
 24 22  2  0
M  END
$$$$
