QSI.pdb
     RDKit          3D

 24 23  0  0  1  0  0  0  0  0999 V2000
    8.1525  -12.6164   17.3436 N   0  0  0  0  0  0  0  0  0  0  0  0
    8.4311  -13.8922   16.7283 C   0  0  0  0  0  0  0  0  0  0  0  0
    8.3428  -13.9407   15.4859 O   0  0  0  0  0  0  0  0  0  0  0  0
    8.7899  -15.0413   17.5536 C   0  0  0  0  0  0  0  0  0  0  0  0
    7.9476  -15.2509   18.7737 C   0  0  0  0  0  0  0  0  0  0  0  0
    8.4127  -16.3958   19.6045 C   0  0  2  0  0  0  0  0  0  0  0  0
    8.2768  -17.6999   19.0227 N   0  0  0  0  0  0  0  0  0  0  0  0
    7.6554  -16.4008   20.8975 C   0  0  0  0  0  0  0  0  0  0  0  0
    6.4994  -15.9347   20.9238 O   0  0  0  0  0  0  0  0  0  0  0  0
    9.2162  -18.6660   23.8305 O   0  0  0  0  0  0  0  0  0  0  0  0
    7.8551  -18.3880   23.8883 C   0  0  0  0  0  0  0  0  0  0  0  0
    7.5690  -16.9815   23.3470 C   0  0  2  0  0  0  0  0  0  0  0  0
    8.2435  -16.9227   22.0538 N   0  0  0  0  0  0  0  0  0  0  0  0
    8.2652  -16.0444   24.2553 C   0  0  0  0  0  0  0  0  0  0  0  0
    9.5048  -15.8232   24.1237 O   0  0  0  0  0  0  0  0  0  0  0  0
    5.8880  -11.5853   25.8468 C   0  0  0  0  0  0  0  0  0  0  0  0
    6.8648  -12.6624   25.4201 C   0  0  0  0  0  0  0  0  0  0  0  0
    7.4585  -13.3072   26.6495 C   0  0  2  0  0  0  0  0  0  0  0  0
    8.1921  -12.3101   27.5102 C   0  0  0  0  0  0  0  0  0  0  0  0
    8.3511  -14.4579   26.2342 C   0  0  2  0  0  0  0  0  0  0  0  0
    7.6360  -15.3443   25.3036 N   0  0  0  0  0  0  0  0  0  0  0  0
    8.7718  -15.3069   27.3743 C   0  0  0  0  0  0  0  0  0  0  0  0
    8.1893  -16.5216   27.6926 O   0  0  0  0  0  0  0  0  0  0  0  0
    9.7212  -14.9610   28.1529 O   0  0  0  0  0  0  0  0  0  0  0  0
  1  2  1  0
  2  4  1  0
  2  3  2  0
  4  5  1  0
  6  5  1  0
  6  7  1  6
  8  9  2  0
  8  6  1  0
 10 11  1  0
 12 11  1  1
 12 13  1  0
 13  8  1  0
 14 12  1  0
 14 21  1  0
 15 14  2  0
 17 16  1  0
 18 17  1  0
 18 19  1  6
 20 21  1  6
 20 18  1  0
 22 20  1  0
 23 22  1  0
 24 22  2  0
M  END
$$$$
