QSI.pdb
     RDKit          3D

 24 23  0  0  1  0  0  0  0  0999 V2000
    8.1844  -12.5338   16.0239 N   0  0  0  0  0  0  0  0  0  0  0  0
    8.2162  -13.9297   15.6576 C   0  0  0  0  0  0  0  0  0  0  0  0
    8.5128  -14.1868   14.4745 O   0  0  0  0  0  0  0  0  0  0  0  0
    7.9069  -14.9550   16.6492 C   0  0  0  0  0  0  0  0  0  0  0  0
    7.6203  -14.4545   18.0309 C   0  0  0  0  0  0  0  0  0  0  0  0
    8.6950  -14.7990   19.0025 C   0  0  2  0  0  0  0  0  0  0  0  0
    9.5160  -15.9269   18.6686 N   0  0  0  0  0  0  0  0  0  0  0  0
    8.0757  -15.0753   20.3387 C   0  0  0  0  0  0  0  0  0  0  0  0
    7.1760  -14.3203   20.7567 O   0  0  0  0  0  0  0  0  0  0  0  0
    9.9072  -17.8283   22.7573 O   0  0  0  0  0  0  0  0  0  0  0  0
    8.5198  -17.9115   22.7180 C   0  0  0  0  0  0  0  0  0  0  0  0
    7.9079  -16.5470   22.3760 C   0  0  2  0  0  0  0  0  0  0  0  0
    8.5060  -16.1665   21.0999 N   0  0  0  0  0  0  0  0  0  0  0  0
    8.4089  -15.6057   23.4009 C   0  0  0  0  0  0  0  0  0  0  0  0
    9.5558  -15.0818   23.2868 O   0  0  0  0  0  0  0  0  0  0  0  0
    6.6379  -10.9979   26.8210 C   0  0  0  0  0  0  0  0  0  0  0  0
    7.6863  -12.0733   26.6191 C   0  0  0  0  0  0  0  0  0  0  0  0
    7.1336  -13.1370   25.7011 C   0  0  2  0  0  0  0  0  0  0  0  0
    5.8171  -13.6801   26.1963 C   0  0  0  0  0  0  0  0  0  0  0  0
    8.1635  -14.2325   25.5209 C   0  0  2  0  0  0  0  0  0  0  0  0
    7.6837  -15.2247   24.5472 N   0  0  0  0  0  0  0  0  0  0  0  0
    8.4412  -14.9794   26.7709 C   0  0  0  0  0  0  0  0  0  0  0  0
    9.2044  -14.4864   27.8152 O   0  0  0  0  0  0  0  0  0  0  0  0
    7.9821  -16.1534   26.9662 O   0  0  0  0  0  0  0  0  0  0  0  0
  1  2  1  0
  2  4  1  0
  2  3  2  0
  4  5  1  0
  6  5  1  0
  6  7  1  6
  8  9  2  0
  8  6  1  0
 10 11  1  0
 12 11  1  1
 12 13  1  0
 13  8  1  0
 14 12  1  0
 14 21  1  0
 15 14  2  0
 17 16  1  0
 18 17  1  0
 18 19  1  1
 20 21  1  6
 20 18  1  0
 22 20  1  0
 23 22  1  0
 24 22  2  0
M  END
$$$$
