QSI.pdb
     RDKit          3D

 24 23  0  0  1  0  0  0  0  0999 V2000
    9.3752  -12.8399   17.1388 N   0  0  0  0  0  0  0  0  0  0  0  0
    8.3338  -13.6896   16.6121 C   0  0  0  0  0  0  0  0  0  0  0  0
    8.5546  -14.2173   15.5045 O   0  0  0  0  0  0  0  0  0  0  0  0
    7.1005  -13.8908   17.3662 C   0  0  0  0  0  0  0  0  0  0  0  0
    7.2235  -13.7702   18.8535 C   0  0  0  0  0  0  0  0  0  0  0  0
    8.3277  -14.6008   19.4090 C   0  0  2  0  0  0  0  0  0  0  0  0
    8.6767  -15.7753   18.6630 N   0  0  0  0  0  0  0  0  0  0  0  0
    7.9589  -15.0418   20.7928 C   0  0  0  0  0  0  0  0  0  0  0  0
    7.0104  -14.4798   21.3747 O   0  0  0  0  0  0  0  0  0  0  0  0
    9.0573  -18.4052   24.1576 O   0  0  0  0  0  0  0  0  0  0  0  0
    9.2157  -17.8584   22.8891 C   0  0  0  0  0  0  0  0  0  0  0  0
    8.3169  -16.6272   22.7171 C   0  0  2  0  0  0  0  0  0  0  0  0
    8.6731  -16.0700   21.4158 N   0  0  0  0  0  0  0  0  0  0  0  0
    8.7475  -15.6591   23.7491 C   0  0  0  0  0  0  0  0  0  0  0  0
    9.8363  -15.0258   23.6219 O   0  0  0  0  0  0  0  0  0  0  0  0
    6.9695  -11.0402   26.7875 C   0  0  0  0  0  0  0  0  0  0  0  0
    7.6022  -12.3652   27.1622 C   0  0  0  0  0  0  0  0  0  0  0  0
    7.2119  -13.4063   26.1408 C   0  0  2  0  0  0  0  0  0  0  0  0
    5.9889  -14.1800   26.5637 C   0  0  0  0  0  0  0  0  0  0  0  0
    8.3914  -14.3178   25.8738 C   0  0  2  0  0  0  0  0  0  0  0  0
    8.0141  -15.3685   24.9164 N   0  0  0  0  0  0  0  0  0  0  0  0
    8.8708  -15.0179   27.0895 C   0  0  0  0  0  0  0  0  0  0  0  0
    8.7123  -16.3742   27.3161 O   0  0  0  0  0  0  0  0  0  0  0  0
    9.4744  -14.3971   28.0262 O   0  0  0  0  0  0  0  0  0  0  0  0
  1  2  1  0
  2  4  1  0
  2  3  2  0
  4  5  1  0
  6  5  1  0
  6  7  1  6
  8  9  2  0
  8  6  1  0
 10 11  1  0
 12 11  1  1
 12 13  1  0
 13  8  1  0
 14 12  1  0
 14 21  1  0
 15 14  2  0
 17 16  1  0
 18 17  1  0
 18 19  1  1
 20 21  1  6
 20 18  1  0
 22 20  1  0
 23 22  1  0
 24 22  2  0
M  END
$$$$
