AFE.pdb
     RDKit          3D

 26 26  0  0  1  0  0  0  0  0999 V2000
    9.3633  -18.0889   20.5661 C   0  0  0  0  0  0  0  0  0  0  0  0
    9.4143  -16.5835   20.3261 C   0  0  2  0  0  0  0  0  0  0  0  0
   10.6077  -16.3183   19.5501 N   0  0  0  0  0  0  0  0  0  0  0  0
    9.4571  -15.8732   21.6158 C   0  0  0  0  0  0  0  0  0  0  0  0
   10.5447  -15.5762   22.1711 O   0  0  0  0  0  0  0  0  0  0  0  0
    8.2594  -15.5013   22.2731 N   0  0  0  0  0  0  0  0  0  0  0  0
    8.3233  -14.7166   23.4900 C   0  0  1  0  0  0  0  0  0  0  0  0
    6.9911  -14.0807   23.8074 C   0  0  0  0  0  0  0  0  0  0  0  0
    6.9720  -13.3552   25.0784 C   0  0  0  0  0  0  0  0  0  0  0  0
    7.6973  -12.1995   25.2612 C   0  0  0  0  0  0  0  0  0  0  0  0
    7.7192  -11.4751   26.4297 C   0  0  0  0  0  0  0  0  0  0  0  0
    6.9564  -11.9446   27.4959 C   0  0  0  0  0  0  0  0  0  0  0  0
    6.2193  -13.0986   27.3446 C   0  0  0  0  0  0  0  0  0  0  0  0
    6.2198  -13.8046   26.1524 C   0  0  0  0  0  0  0  0  0  0  0  0
    8.6118  -15.6717   24.6024 C   0  0  0  0  0  0  0  0  0  0  0  0
    7.9138  -16.7015   24.7928 O   0  0  0  0  0  0  0  0  0  0  0  0
    9.6791  -15.4665   25.4927 N   0  0  0  0  0  0  0  0  0  0  0  0
   10.1415  -16.4795   26.4552 C   0  0  1  0  0  0  0  0  0  0  0  0
   11.4449  -17.0475   26.0377 C   0  0  0  0  0  0  0  0  0  0  0  0
   12.4487  -15.9910   25.7125 C   0  0  0  0  0  0  0  0  0  0  0  0
   13.6532  -16.4657   25.0232 C   0  0  0  0  0  0  0  0  0  0  0  0
   14.6516  -16.8443   25.6562 O   0  0  0  0  0  0  0  0  0  0  0  0
   10.2280  -15.8508   27.7914 C   0  0  0  0  0  0  0  0  0  0  0  0
   10.0146  -14.5179   28.0611 O   0  0  0  0  0  0  0  0  0  0  0  0
   13.6721  -16.4901   23.6404 O   0  0  0  0  0  0  0  0  0  0  0  0
   10.5257  -16.5670   28.8102 O   0  0  0  0  0  0  0  0  0  0  0  0
  2  4  1  0
  2  1  1  1
  3  2  1  0
  4  5  2  0
  6  7  1  0
  6  4  1  0
  7  8  1  1
  8  9  1  0
  9 14  2  0
 10 11  2  0
 10  9  1  0
 11 12  1  0
 12 13  2  0
 14 13  1  0
 15 16  2  0
 15  7  1  0
 17 15  1  0
 18 23  1  0
 18 17  1  0
 18 19  1  6
 20 19  1  0
 20 21  1  0
 21 25  1  0
 22 21  2  0
 23 24  1  0
 26 23  2  0
M  END
$$$$
