AFE.pdb
     RDKit          3D

 26 26  0  0  1  0  0  0  0  0999 V2000
    9.2636  -18.6106   20.7100 C   0  0  0  0  0  0  0  0  0  0  0  0
    9.0668  -17.1631   20.2712 C   0  0  2  0  0  0  0  0  0  0  0  0
   10.0756  -16.8827   19.2711 N   0  0  0  0  0  0  0  0  0  0  0  0
    9.2119  -16.2658   21.4304 C   0  0  0  0  0  0  0  0  0  0  0  0
   10.3247  -15.7808   21.7557 O   0  0  0  0  0  0  0  0  0  0  0  0
    8.0877  -15.9211   22.2192 N   0  0  0  0  0  0  0  0  0  0  0  0
    8.2577  -15.0592   23.3719 C   0  0  1  0  0  0  0  0  0  0  0  0
    6.9687  -14.3617   23.7347 C   0  0  0  0  0  0  0  0  0  0  0  0
    7.0538  -13.5653   24.9597 C   0  0  0  0  0  0  0  0  0  0  0  0
    7.7582  -12.3835   25.0052 C   0  0  0  0  0  0  0  0  0  0  0  0
    7.8740  -11.5930   26.1243 C   0  0  0  0  0  0  0  0  0  0  0  0
    7.2352  -12.0193   27.2859 C   0  0  0  0  0  0  0  0  0  0  0  0
    6.5221  -13.1980   27.2728 C   0  0  0  0  0  0  0  0  0  0  0  0
    6.4258  -13.9709   26.1269 C   0  0  0  0  0  0  0  0  0  0  0  0
    8.5979  -15.9462   24.5252 C   0  0  0  0  0  0  0  0  0  0  0  0
    7.9961  -17.0327   24.7289 O   0  0  0  0  0  0  0  0  0  0  0  0
    9.6088  -15.6103   25.4413 N   0  0  0  0  0  0  0  0  0  0  0  0
   10.1662  -16.5571   26.4206 C   0  0  1  0  0  0  0  0  0  0  0  0
   11.4867  -17.0605   25.9750 C   0  0  0  0  0  0  0  0  0  0  0  0
   12.5012  -15.9713   25.8566 C   0  0  0  0  0  0  0  0  0  0  0  0
   13.6706  -16.2947   25.0326 C   0  0  0  0  0  0  0  0  0  0  0  0
   14.5667  -15.4601   24.8289 O   0  0  0  0  0  0  0  0  0  0  0  0
   10.2606  -15.8751   27.7300 C   0  0  0  0  0  0  0  0  0  0  0  0
   10.5367  -16.4886   28.9309 O   0  0  0  0  0  0  0  0  0  0  0  0
   13.7726  -17.5557   24.4736 O   0  0  0  0  0  0  0  0  0  0  0  0
   10.0747  -14.6101   27.7999 O   0  0  0  0  0  0  0  0  0  0  0  0
  2  4  1  0
  2  1  1  1
  3  2  1  0
  4  5  2  0
  6  7  1  0
  6  4  1  0
  7  8  1  1
  8  9  1  0
  9 14  2  0
 10 11  2  0
 10  9  1  0
 11 12  1  0
 12 13  2  0
 14 13  1  0
 15 16  2  0
 15  7  1  0
 17 15  1  0
 18 23  1  0
 18 17  1  0
 18 19  1  6
 20 19  1  0
 20 21  1  0
 21 25  1  0
 22 21  2  0
 23 24  1  0
 26 23  2  0
M  END
$$$$
