AFE.pdb
     RDKit          3D

 26 26  0  0  1  0  0  0  0  0999 V2000
    9.6250  -15.9826   18.6568 C   0  0  0  0  0  0  0  0  0  0  0  0
    9.2343  -16.8158   19.8732 C   0  0  2  0  0  0  0  0  0  0  0  0
    7.8499  -17.2013   19.6957 N   0  0  0  0  0  0  0  0  0  0  0  0
    9.4049  -16.0188   21.1002 C   0  0  0  0  0  0  0  0  0  0  0  0
   10.5385  -15.6438   21.4924 O   0  0  0  0  0  0  0  0  0  0  0  0
    8.2828  -15.6491   21.8805 N   0  0  0  0  0  0  0  0  0  0  0  0
    8.4770  -14.9004   23.1062 C   0  0  1  0  0  0  0  0  0  0  0  0
    7.2401  -14.1181   23.4771 C   0  0  0  0  0  0  0  0  0  0  0  0
    7.3236  -13.4689   24.7863 C   0  0  0  0  0  0  0  0  0  0  0  0
    8.1798  -12.4160   25.0169 C   0  0  0  0  0  0  0  0  0  0  0  0
    8.3025  -11.7667   26.2227 C   0  0  0  0  0  0  0  0  0  0  0  0
    7.5066  -12.2060   27.2775 C   0  0  0  0  0  0  0  0  0  0  0  0
    6.6393  -13.2578   27.0787 C   0  0  0  0  0  0  0  0  0  0  0  0
    6.5407  -13.8900   25.8497 C   0  0  0  0  0  0  0  0  0  0  0  0
    8.6852  -15.9034   24.1940 C   0  0  0  0  0  0  0  0  0  0  0  0
    7.9237  -16.8948   24.3393 O   0  0  0  0  0  0  0  0  0  0  0  0
    9.7441  -15.7889   25.1103 N   0  0  0  0  0  0  0  0  0  0  0  0
   10.1926  -16.8910   25.9767 C   0  0  1  0  0  0  0  0  0  0  0  0
   11.3993  -17.5442   25.4173 C   0  0  0  0  0  0  0  0  0  0  0  0
   12.5865  -16.6386   25.4122 C   0  0  0  0  0  0  0  0  0  0  0  0
   13.6278  -16.9804   24.4375 C   0  0  0  0  0  0  0  0  0  0  0  0
   13.5154  -17.9674   23.6931 O   0  0  0  0  0  0  0  0  0  0  0  0
   10.4481  -16.3489   27.3292 C   0  0  0  0  0  0  0  0  0  0  0  0
   10.6961  -17.1000   28.4559 O   0  0  0  0  0  0  0  0  0  0  0  0
   14.7555  -16.1842   24.3497 O   0  0  0  0  0  0  0  0  0  0  0  0
   10.4453  -15.0820   27.5145 O   0  0  0  0  0  0  0  0  0  0  0  0
  2  4  1  0
  2  1  1  6
  3  2  1  0
  4  5  2  0
  6  7  1  0
  6  4  1  0
  7  8  1  1
  8  9  1  0
  9 14  2  0
 10 11  2  0
 10  9  1  0
 11 12  1  0
 12 13  2  0
 14 13  1  0
 15 16  2  0
 15  7  1  0
 17 15  1  0
 18 23  1  0
 18 17  1  0
 18 19  1  6
 20 19  1  0
 20 21  1  0
 21 25  1  0
 22 21  2  0
 23 24  1  0
 26 23  2  0
M  END
$$$$
