AFE.pdb
     RDKit          3D

 26 26  0  0  1  0  0  0  0  0999 V2000
   10.0450  -16.3593   18.7075 C   0  0  0  0  0  0  0  0  0  0  0  0
    9.6390  -17.1116   19.9707 C   0  0  2  0  0  0  0  0  0  0  0  0
    8.3116  -17.6420   19.7398 N   0  0  0  0  0  0  0  0  0  0  0  0
    9.6453  -16.1934   21.1226 C   0  0  0  0  0  0  0  0  0  0  0  0
   10.7103  -15.6908   21.5614 O   0  0  0  0  0  0  0  0  0  0  0  0
    8.4368  -15.8481   21.7747 N   0  0  0  0  0  0  0  0  0  0  0  0
    8.4789  -15.0758   23.0004 C   0  0  1  0  0  0  0  0  0  0  0  0
    7.1919  -14.3171   23.2192 C   0  0  0  0  0  0  0  0  0  0  0  0
    7.1305  -13.6186   24.5040 C   0  0  0  0  0  0  0  0  0  0  0  0
    7.8291  -12.4535   24.7266 C   0  0  0  0  0  0  0  0  0  0  0  0
    7.8110  -11.7532   25.9098 C   0  0  0  0  0  0  0  0  0  0  0  0
    7.0338  -12.2589   26.9486 C   0  0  0  0  0  0  0  0  0  0  0  0
    6.3226  -13.4232   26.7572 C   0  0  0  0  0  0  0  0  0  0  0  0
    6.3633  -14.1042   25.5513 C   0  0  0  0  0  0  0  0  0  0  0  0
    8.5879  -16.0564   24.1225 C   0  0  0  0  0  0  0  0  0  0  0  0
    7.8334  -17.0605   24.2041 O   0  0  0  0  0  0  0  0  0  0  0  0
    9.5403  -15.9055   25.1443 N   0  0  0  0  0  0  0  0  0  0  0  0
   10.0945  -17.0321   25.9124 C   0  0  1  0  0  0  0  0  0  0  0  0
   11.4473  -17.3887   25.4241 C   0  0  0  0  0  0  0  0  0  0  0  0
   12.0302  -18.5506   26.1588 C   0  0  0  0  0  0  0  0  0  0  0  0
   13.3606  -18.9710   25.7065 C   0  0  0  0  0  0  0  0  0  0  0  0
   13.8384  -18.5590   24.6374 O   0  0  0  0  0  0  0  0  0  0  0  0
   10.1168  -16.6572   27.3433 C   0  0  0  0  0  0  0  0  0  0  0  0
   10.1456  -17.5403   28.3989 O   0  0  0  0  0  0  0  0  0  0  0  0
   14.0935  -19.8439   26.4901 O   0  0  0  0  0  0  0  0  0  0  0  0
   10.1068  -15.4203   27.6740 O   0  0  0  0  0  0  0  0  0  0  0  0
  2  4  1  0
  2  1  1  6
  3  2  1  0
  4  5  2  0
  6  7  1  0
  6  4  1  0
  7  8  1  1
  8  9  1  0
  9 14  2  0
 10 11  2  0
 10  9  1  0
 11 12  1  0
 12 13  2  0
 14 13  1  0
 15 16  2  0
 15  7  1  0
 17 15  1  0
 18 23  1  0
 18 17  1  0
 18 19  1  6
 20 19  1  0
 20 21  1  0
 21 25  1  0
 22 21  2  0
 23 24  1  0
 26 23  2  0
M  END
$$$$
