AFE.pdb
     RDKit          3D

 26 26  0  0  1  0  0  0  0  0999 V2000
    9.0817  -15.8214   18.4181 C   0  0  0  0  0  0  0  0  0  0  0  0
    9.0737  -16.6664   19.6879 C   0  0  2  0  0  0  0  0  0  0  0  0
    7.8279  -17.4042   19.6980 N   0  0  0  0  0  0  0  0  0  0  0  0
    9.1773  -15.7932   20.8696 C   0  0  0  0  0  0  0  0  0  0  0  0
   10.2025  -15.1014   21.0924 O   0  0  0  0  0  0  0  0  0  0  0  0
    8.1116  -15.7087   21.7980 N   0  0  0  0  0  0  0  0  0  0  0  0
    8.2601  -14.8945   22.9878 C   0  0  1  0  0  0  0  0  0  0  0  0
    6.9209  -14.4376   23.5147 C   0  0  0  0  0  0  0  0  0  0  0  0
    7.0023  -13.7171   24.7862 C   0  0  0  0  0  0  0  0  0  0  0  0
    7.5891  -12.4751   24.8761 C   0  0  0  0  0  0  0  0  0  0  0  0
    7.6951  -11.7505   26.0399 C   0  0  0  0  0  0  0  0  0  0  0  0
    7.1732  -12.3134   27.2017 C   0  0  0  0  0  0  0  0  0  0  0  0
    6.5794  -13.5553   27.1448 C   0  0  0  0  0  0  0  0  0  0  0  0
    6.4894  -14.2587   25.9544 C   0  0  0  0  0  0  0  0  0  0  0  0
    8.8506  -15.7754   24.0404 C   0  0  0  0  0  0  0  0  0  0  0  0
    8.3821  -16.9159   24.2930 O   0  0  0  0  0  0  0  0  0  0  0  0
    9.9607  -15.3729   24.8017 N   0  0  0  0  0  0  0  0  0  0  0  0
   10.9138  -16.3148   25.4107 C   0  0  1  0  0  0  0  0  0  0  0  0
   12.3088  -15.9440   25.0758 C   0  0  0  0  0  0  0  0  0  0  0  0
   13.3066  -16.8771   25.6785 C   0  0  0  0  0  0  0  0  0  0  0  0
   14.6398  -16.8444   25.0678 C   0  0  0  0  0  0  0  0  0  0  0  0
   14.9930  -15.9026   24.3404 O   0  0  0  0  0  0  0  0  0  0  0  0
   10.6924  -16.3247   26.8734 C   0  0  0  0  0  0  0  0  0  0  0  0
   11.0924  -17.3219   27.7339 O   0  0  0  0  0  0  0  0  0  0  0  0
   15.5172  -17.8858   25.3103 O   0  0  0  0  0  0  0  0  0  0  0  0
   10.0800  -15.3464   27.4277 O   0  0  0  0  0  0  0  0  0  0  0  0
  2  4  1  0
  2  1  1  6
  3  2  1  0
  4  5  2  0
  6  7  1  0
  6  4  1  0
  7  8  1  1
  8  9  1  0
  9 14  2  0
 10 11  2  0
 10  9  1  0
 11 12  1  0
 12 13  2  0
 14 13  1  0
 15 16  2  0
 15  7  1  0
 17 15  1  0
 18 23  1  0
 18 17  1  0
 18 19  1  1
 20 19  1  0
 20 21  1  0
 21 25  1  0
 22 21  2  0
 23 24  1  0
 26 23  2  0
M  END
$$$$
