AFE.pdb
     RDKit          3D

 26 26  0  0  1  0  0  0  0  0999 V2000
    7.9496  -17.5503   20.3859 C   0  0  0  0  0  0  0  0  0  0  0  0
    8.1555  -16.0473   20.5449 C   0  0  2  0  0  0  0  0  0  0  0  0
    8.9453  -15.6059   19.4144 N   0  0  0  0  0  0  0  0  0  0  0  0
    8.8517  -15.7700   21.8130 C   0  0  0  0  0  0  0  0  0  0  0  0
   10.1057  -15.7224   21.8819 O   0  0  0  0  0  0  0  0  0  0  0  0
    8.1181  -15.5469   23.0034 N   0  0  0  0  0  0  0  0  0  0  0  0
    8.8208  -15.2200   24.2281 C   0  0  1  0  0  0  0  0  0  0  0  0
    7.8705  -14.7396   25.2985 C   0  0  0  0  0  0  0  0  0  0  0  0
    8.5186  -14.4624   26.5812 C   0  0  0  0  0  0  0  0  0  0  0  0
    8.9478  -13.1978   26.9150 C   0  0  0  0  0  0  0  0  0  0  0  0
    9.5618  -12.8761   28.1025 C   0  0  0  0  0  0  0  0  0  0  0  0
    9.7608  -13.8996   29.0254 C   0  0  0  0  0  0  0  0  0  0  0  0
    9.3425  -15.1765   28.7211 C   0  0  0  0  0  0  0  0  0  0  0  0
    8.7266  -15.4661   27.5142 C   0  0  0  0  0  0  0  0  0  0  0  0
    9.4186  -16.4929   24.7333 C   0  0  0  0  0  0  0  0  0  0  0  0
    8.7873  -17.5813   24.7053 O   0  0  0  0  0  0  0  0  0  0  0  0
   10.7180  -16.5373   25.2658 N   0  0  0  0  0  0  0  0  0  0  0  0
   11.3997  -17.7859   25.6437 C   0  0  1  0  0  0  0  0  0  0  0  0
   12.7888  -17.8052   25.1281 C   0  0  0  0  0  0  0  0  0  0  0  0
   12.8716  -18.3336   23.7339 C   0  0  0  0  0  0  0  0  0  0  0  0
   14.1664  -18.1454   23.0712 C   0  0  0  0  0  0  0  0  0  0  0  0
   14.3948  -18.6313   21.9520 O   0  0  0  0  0  0  0  0  0  0  0  0
   11.3674  -17.9093   27.1175 C   0  0  0  0  0  0  0  0  0  0  0  0
   10.7860  -17.0086   27.9809 O   0  0  0  0  0  0  0  0  0  0  0  0
   15.1493  -17.4111   23.7100 O   0  0  0  0  0  0  0  0  0  0  0  0
   11.9156  -18.9204   27.6804 O   0  0  0  0  0  0  0  0  0  0  0  0
  2  4  1  0
  2  1  1  6
  3  2  1  0
  4  5  2  0
  6  7  1  0
  6  4  1  0
  7  8  1  1
  8  9  1  0
  9 14  2  0
 10 11  2  0
 10  9  1  0
 11 12  1  0
 12 13  2  0
 14 13  1  0
 15 16  2  0
 15  7  1  0
 17 15  1  0
 18 23  1  0
 18 17  1  0
 18 19  1  1
 20 19  1  0
 20 21  1  0
 21 25  1  0
 22 21  2  0
 23 24  1  0
 26 23  2  0
M  END
$$$$
