IKY.pdb
     RDKit          3D

 30 30  0  0  1  0  0  0  0  0999 V2000
   28.2725  -12.6775  -15.3322 C   0  0  0  0  0  0  0  0  0  0  0  0
   27.2941  -12.4114  -16.4144 C   0  0  0  0  0  0  0  0  0  0  0  0
   25.9898  -13.1036  -16.3605 C   0  0  2  0  0  0  0  0  0  0  0  0
   26.2253  -14.5955  -16.0906 C   0  0  0  0  0  0  0  0  0  0  0  0
   24.9888  -12.8783  -17.4115 C   0  0  2  0  0  0  0  0  0  0  0  0
   24.7996  -11.4136  -17.4937 N   0  0  0  0  0  0  0  0  0  0  0  0
   23.7175  -13.5749  -17.3799 C   0  0  0  0  0  0  0  0  0  0  0  0
   22.9443  -13.5197  -16.3607 O   0  0  0  0  0  0  0  0  0  0  0  0
   23.1919  -14.3713  -18.4284 N   0  0  0  0  0  0  0  0  0  0  0  0
   21.9240  -15.1174  -18.3309 C   0  0  1  0  0  0  0  0  0  0  0  0
   21.3360  -14.9907  -19.6932 C   0  0  0  0  0  0  0  0  0  0  0  0
   20.0761  -15.7105  -19.9800 C   0  0  0  0  0  0  0  0  0  0  0  0
   19.7602  -15.3938  -21.4561 C   0  0  0  0  0  0  0  0  0  0  0  0
   18.4562  -16.0246  -21.8694 C   0  0  0  0  0  0  0  0  0  0  0  0
   18.3428  -15.9007  -23.3136 N   0  0  0  0  0  0  0  0  0  0  0  0
   22.1375  -16.4610  -17.8222 C   0  0  0  0  0  0  0  0  0  0  0  0
   23.2015  -17.0972  -18.0694 O   0  0  0  0  0  0  0  0  0  0  0  0
   15.2807  -18.4045  -14.7018 O   0  0  0  0  0  0  0  0  0  0  0  0
   16.6663  -18.3817  -14.7809 C   0  0  0  0  0  0  0  0  0  0  0  0
   17.3168  -19.5879  -14.8842 C   0  0  0  0  0  0  0  0  0  0  0  0
   18.6921  -19.5833  -14.9638 C   0  0  0  0  0  0  0  0  0  0  0  0
   19.4288  -18.4174  -14.9430 C   0  0  0  0  0  0  0  0  0  0  0  0
   20.9019  -18.4863  -15.0187 C   0  0  0  0  0  0  0  0  0  0  0  0
   21.4074  -18.4378  -16.4539 C   0  0  2  0  0  0  0  0  0  0  0  0
   21.1706  -17.1186  -17.0250 N   0  0  0  0  0  0  0  0  0  0  0  0
   20.8660  -19.4866  -17.3103 C   0  0  0  0  0  0  0  0  0  0  0  0
   21.1894  -20.8084  -17.0791 O   0  0  0  0  0  0  0  0  0  0  0  0
   18.7385  -17.2420  -14.8390 C   0  0  0  0  0  0  0  0  0  0  0  0
   17.3492  -17.1974  -14.7560 C   0  0  0  0  0  0  0  0  0  0  0  0
   20.1030  -19.1830  -18.2610 O   0  0  0  0  0  0  0  0  0  0  0  0
  2  1  1  0
  3  2  1  0
  3  5  1  0
  3  4  1  6
  5  6  1  1
  7  5  1  0
  8  7  2  0
  9  7  1  0
 10 16  1  0
 10  9  1  0
 10 11  1  6
 12 11  1  0
 13 12  1  0
 13 14  1  0
 14 15  1  0
 16 17  2  0
 18 19  1  0
 19 20  2  0
 19 29  1  0
 20 21  1  0
 21 22  2  0
 22 23  1  0
 24 23  1  1
 25 16  1  0
 25 24  1  0
 26 27  1  0
 26 24  1  0
 28 22  1  0
 29 28  2  0
 30 26  2  0
M  END
$$$$
