IKY.pdb
     RDKit          3D

 30 30  0  0  1  0  0  0  0  0999 V2000
  -42.6550  -65.0095  -30.0846 C   0  0  0  0  0  0  0  0  0  0  0  0
  -43.4212  -64.4494  -31.2241 C   0  0  0  0  0  0  0  0  0  0  0  0
  -44.3256  -63.3105  -30.9633 C   0  0  2  0  0  0  0  0  0  0  0  0
  -43.9428  -62.1455  -31.8855 C   0  0  0  0  0  0  0  0  0  0  0  0
  -44.5823  -62.8701  -29.5858 C   0  0  2  0  0  0  0  0  0  0  0  0
  -46.0488  -62.7161  -29.4685 N   0  0  0  0  0  0  0  0  0  0  0  0
  -43.8845  -61.7240  -29.0363 C   0  0  0  0  0  0  0  0  0  0  0  0
  -42.7783  -61.3088  -29.5297 O   0  0  0  0  0  0  0  0  0  0  0  0
  -44.3198  -60.9510  -27.9305 N   0  0  0  0  0  0  0  0  0  0  0  0
  -43.4040  -60.3363  -26.9521 C   0  0  1  0  0  0  0  0  0  0  0  0
  -42.1523  -60.1209  -27.7294 C   0  0  0  0  0  0  0  0  0  0  0  0
  -42.2434  -59.3902  -29.0122 C   0  0  0  0  0  0  0  0  0  0  0  0
  -42.7601  -57.9859  -28.6382 C   0  0  0  0  0  0  0  0  0  0  0  0
  -42.2301  -56.9505  -29.5953 C   0  0  0  0  0  0  0  0  0  0  0  0
  -42.6753  -57.3135  -30.9310 N   0  0  0  0  0  0  0  0  0  0  0  0
  -44.0037  -59.1724  -26.3233 C   0  0  0  0  0  0  0  0  0  0  0  0
  -43.4141  -58.0543  -26.3101 O   0  0  0  0  0  0  0  0  0  0  0  0
  -45.2392  -64.5983  -23.2445 O   0  0  0  0  0  0  0  0  0  0  0  0
  -45.5614  -63.2542  -23.3711 C   0  0  0  0  0  0  0  0  0  0  0  0
  -45.3060  -62.4356  -22.2970 C   0  0  0  0  0  0  0  0  0  0  0  0
  -45.6197  -61.0986  -22.4059 C   0  0  0  0  0  0  0  0  0  0  0  0
  -46.1764  -60.5616  -23.5479 C   0  0  0  0  0  0  0  0  0  0  0  0
  -46.5001  -59.1216  -23.5915 C   0  0  0  0  0  0  0  0  0  0  0  0
  -45.6294  -58.3657  -24.5856 C   0  0  2  0  0  0  0  0  0  0  0  0
  -45.2735  -59.2324  -25.7013 N   0  0  0  0  0  0  0  0  0  0  0  0
  -44.4439  -57.7567  -23.9939 C   0  0  0  0  0  0  0  0  0  0  0  0
  -43.7829  -58.3859  -22.9583 O   0  0  0  0  0  0  0  0  0  0  0  0
  -46.4125  -61.4142  -24.5902 C   0  0  0  0  0  0  0  0  0  0  0  0
  -46.1121  -62.7724  -24.5262 C   0  0  0  0  0  0  0  0  0  0  0  0
  -44.0251  -56.6555  -24.4301 O   0  0  0  0  0  0  0  0  0  0  0  0
  2  1  1  0
  3  2  1  0
  3  5  1  0
  3  4  1  6
  5  6  1  6
  7  5  1  0
  8  7  2  0
  9  7  1  0
 10 16  1  0
 10  9  1  0
 10 11  1  6
 12 11  1  0
 13 12  1  0
 13 14  1  0
 14 15  1  0
 16 17  2  0
 18 19  1  0
 19 20  2  0
 19 29  1  0
 20 21  1  0
 21 22  2  0
 22 23  1  0
 24 23  1  1
 25 16  1  0
 25 24  1  0
 26 27  1  0
 26 24  1  0
 28 22  1  0
 29 28  2  0
 30 26  2  0
M  END
$$$$
