IKY.pdb
     RDKit          3D

 30 30  0  0  1  0  0  0  0  0999 V2000
   27.6432  -20.8109   -8.6526 C   0  0  0  0  0  0  0  0  0  0  0  0
   27.6980  -21.1504  -10.0952 C   0  0  0  0  0  0  0  0  0  0  0  0
   26.5444  -20.7828  -10.9420 C   0  0  2  0  0  0  0  0  0  0  0  0
   25.2609  -21.3333  -10.3067 C   0  0  0  0  0  0  0  0  0  0  0  0
   26.5897  -21.0089  -12.3927 C   0  0  2  0  0  0  0  0  0  0  0  0
   27.9365  -20.5857  -12.8341 N   0  0  0  0  0  0  0  0  0  0  0  0
   25.5566  -20.4695  -13.2553 C   0  0  0  0  0  0  0  0  0  0  0  0
   25.4489  -19.2122  -13.4723 O   0  0  0  0  0  0  0  0  0  0  0  0
   24.5768  -21.2330  -13.9385 N   0  0  0  0  0  0  0  0  0  0  0  0
   23.4821  -20.6392  -14.7276 C   0  0  1  0  0  0  0  0  0  0  0  0
   23.7598  -21.0994  -16.1163 C   0  0  0  0  0  0  0  0  0  0  0  0
   24.9421  -20.5467  -16.8122 C   0  0  0  0  0  0  0  0  0  0  0  0
   24.9693  -21.2558  -18.1817 C   0  0  0  0  0  0  0  0  0  0  0  0
   25.8941  -22.4444  -18.1482 C   0  0  0  0  0  0  0  0  0  0  0  0
   25.9218  -23.0214  -19.4825 N   0  0  0  0  0  0  0  0  0  0  0  0
   22.1841  -20.9696  -14.1657 C   0  0  0  0  0  0  0  0  0  0  0  0
   21.9514  -22.1098  -13.6720 O   0  0  0  0  0  0  0  0  0  0  0  0
   13.9953  -20.0687  -11.0374 O   0  0  0  0  0  0  0  0  0  0  0  0
   15.2979  -19.8457  -11.4620 C   0  0  0  0  0  0  0  0  0  0  0  0
   15.4753  -19.3263  -12.7221 C   0  0  0  0  0  0  0  0  0  0  0  0
   16.7618  -19.0987  -13.1592 C   0  0  0  0  0  0  0  0  0  0  0  0
   17.8659  -19.3733  -12.3794 C   0  0  0  0  0  0  0  0  0  0  0  0
   19.2174  -19.1172  -12.9162 C   0  0  0  0  0  0  0  0  0  0  0  0
   19.8234  -20.3543  -13.5642 C   0  0  2  0  0  0  0  0  0  0  0  0
   21.1227  -20.0338  -14.1400 N   0  0  0  0  0  0  0  0  0  0  0  0
   18.9567  -20.9956  -14.5462 C   0  0  0  0  0  0  0  0  0  0  0  0
   18.0669  -21.9748  -14.1532 O   0  0  0  0  0  0  0  0  0  0  0  0
   17.6402  -19.8888  -11.1335 C   0  0  0  0  0  0  0  0  0  0  0  0
   16.3582  -20.1355  -10.6489 C   0  0  0  0  0  0  0  0  0  0  0  0
   19.0227  -20.6537  -15.7533 O   0  0  0  0  0  0  0  0  0  0  0  0
  2  1  1  0
  3  2  1  0
  3  5  1  0
  3  4  1  1
  5  6  1  6
  7  5  1  0
  8  7  2  0
  9  7  1  0
 10 16  1  0
 10  9  1  0
 10 11  1  6
 12 11  1  0
 13 12  1  0
 13 14  1  0
 14 15  1  0
 16 17  2  0
 18 19  1  0
 19 20  2  0
 19 29  1  0
 20 21  1  0
 21 22  2  0
 22 23  1  0
 24 23  1  6
 25 16  1  0
 25 24  1  0
 26 27  1  0
 26 24  1  0
 28 22  1  0
 29 28  2  0
 30 26  2  0
M  END
$$$$
