IKY.pdb
     RDKit          3D

 30 30  0  0  1  0  0  0  0  0999 V2000
   25.0014  -18.3991  -17.0745 C   0  0  0  0  0  0  0  0  0  0  0  0
   24.8340  -19.5555  -16.1611 C   0  0  0  0  0  0  0  0  0  0  0  0
   23.5037  -19.7812  -15.5591 C   0  0  2  0  0  0  0  0  0  0  0  0
   23.0073  -18.4705  -14.9349 C   0  0  0  0  0  0  0  0  0  0  0  0
   23.2747  -20.9378  -14.6831 C   0  0  2  0  0  0  0  0  0  0  0  0
   23.8221  -22.1114  -15.3979 N   0  0  0  0  0  0  0  0  0  0  0  0
   21.9530  -21.2106  -14.1529 C   0  0  0  0  0  0  0  0  0  0  0  0
   21.0358  -21.7424  -14.8709 O   0  0  0  0  0  0  0  0  0  0  0  0
   21.5268  -20.9349  -12.8292 N   0  0  0  0  0  0  0  0  0  0  0  0
   20.1446  -21.1358  -12.3573 C   0  0  1  0  0  0  0  0  0  0  0  0
   20.3087  -21.9657  -11.1318 C   0  0  0  0  0  0  0  0  0  0  0  0
   19.1793  -22.8239  -10.7128 C   0  0  0  0  0  0  0  0  0  0  0  0
   19.6394  -23.4765   -9.3931 C   0  0  0  0  0  0  0  0  0  0  0  0
   18.5932  -24.4292   -8.8765 C   0  0  0  0  0  0  0  0  0  0  0  0
   19.0453  -24.9263   -7.5871 N   0  0  0  0  0  0  0  0  0  0  0  0
   19.4444  -19.8713  -12.2140 C   0  0  0  0  0  0  0  0  0  0  0  0
   20.0552  -18.8140  -11.8868 O   0  0  0  0  0  0  0  0  0  0  0  0
   16.6628  -18.2517  -19.9371 O   0  0  0  0  0  0  0  0  0  0  0  0
   17.1292  -18.6363  -18.6876 C   0  0  0  0  0  0  0  0  0  0  0  0
   17.3195  -17.6503  -17.7493 C   0  0  0  0  0  0  0  0  0  0  0  0
   17.7818  -18.0148  -16.5038 C   0  0  0  0  0  0  0  0  0  0  0  0
   18.0570  -19.3253  -16.1729 C   0  0  0  0  0  0  0  0  0  0  0  0
   18.5630  -19.6438  -14.8228 C   0  0  0  0  0  0  0  0  0  0  0  0
   17.5007  -19.4505  -13.7495 C   0  0  2  0  0  0  0  0  0  0  0  0
   18.0512  -19.7612  -12.4369 N   0  0  0  0  0  0  0  0  0  0  0  0
   16.2690  -20.1925  -13.9923 C   0  0  0  0  0  0  0  0  0  0  0  0
   16.2832  -21.5724  -14.0198 O   0  0  0  0  0  0  0  0  0  0  0  0
   17.8526  -20.2713  -17.1385 C   0  0  0  0  0  0  0  0  0  0  0  0
   17.3867  -19.9503  -18.4108 C   0  0  0  0  0  0  0  0  0  0  0  0
   15.1929  -19.5709  -14.1768 O   0  0  0  0  0  0  0  0  0  0  0  0
  2  1  1  0
  3  2  1  0
  3  5  1  0
  3  4  1  1
  5  6  1  6
  7  5  1  0
  8  7  2  0
  9  7  1  0
 10 16  1  0
 10  9  1  0
 10 11  1  1
 12 11  1  0
 13 12  1  0
 13 14  1  0
 14 15  1  0
 16 17  2  0
 18 19  1  0
 19 20  2  0
 19 29  1  0
 20 21  1  0
 21 22  2  0
 22 23  1  0
 24 23  1  6
 25 16  1  0
 25 24  1  0
 26 27  1  0
 26 24  1  0
 28 22  1  0
 29 28  2  0
 30 26  2  0
M  END
$$$$
