IKY.pdb
     RDKit          3D

 30 30  0  0  1  0  0  0  0  0999 V2000
   16.0876  -14.5224  -14.2948 C   0  0  0  0  0  0  0  0  0  0  0  0
   16.7308  -14.8438  -15.5919 C   0  0  0  0  0  0  0  0  0  0  0  0
   17.8413  -13.9842  -16.0511 C   0  0  2  0  0  0  0  0  0  0  0  0
   19.1088  -14.3393  -15.2627 C   0  0  0  0  0  0  0  0  0  0  0  0
   17.6507  -12.5331  -16.1760 C   0  0  2  0  0  0  0  0  0  0  0  0
   16.4552  -12.3459  -17.0267 N   0  0  0  0  0  0  0  0  0  0  0  0
   18.7428  -11.6804  -16.6033 C   0  0  0  0  0  0  0  0  0  0  0  0
   19.7803  -11.4989  -15.8752 O   0  0  0  0  0  0  0  0  0  0  0  0
   18.7980  -10.9699  -17.8289 N   0  0  0  0  0  0  0  0  0  0  0  0
   19.9452  -10.1411  -18.2420 C   0  0  1  0  0  0  0  0  0  0  0  0
   19.9189  -10.2204  -19.7287 C   0  0  0  0  0  0  0  0  0  0  0  0
   20.9229   -9.4433  -20.4877 C   0  0  0  0  0  0  0  0  0  0  0  0
   20.6110   -9.7261  -21.9715 C   0  0  0  0  0  0  0  0  0  0  0  0
   21.5639   -8.9796  -22.8681 C   0  0  0  0  0  0  0  0  0  0  0  0
   21.2035   -9.2795  -24.2444 N   0  0  0  0  0  0  0  0  0  0  0  0
   19.8847   -8.8177  -17.6465 C   0  0  0  0  0  0  0  0  0  0  0  0
   18.7820   -8.2919  -17.3213 O   0  0  0  0  0  0  0  0  0  0  0  0
   21.1733   -1.4771  -13.2752 O   0  0  0  0  0  0  0  0  0  0  0  0
   21.0712   -2.7641  -13.7850 C   0  0  0  0  0  0  0  0  0  0  0  0
   22.2351   -3.3965  -14.1515 C   0  0  0  0  0  0  0  0  0  0  0  0
   22.1518   -4.6745  -14.6592 C   0  0  0  0  0  0  0  0  0  0  0  0
   20.9487   -5.3320  -14.8098 C   0  0  0  0  0  0  0  0  0  0  0  0
   20.9311   -6.6966  -15.3735 C   0  0  0  0  0  0  0  0  0  0  0  0
   20.9933   -6.6919  -16.8947 C   0  0  2  0  0  0  0  0  0  0  0  0
   21.0525   -8.0576  -17.3986 N   0  0  0  0  0  0  0  0  0  0  0  0
   22.0751   -5.8819  -17.4425 C   0  0  0  0  0  0  0  0  0  0  0  0
   21.8342   -4.5855  -17.8506 O   0  0  0  0  0  0  0  0  0  0  0  0
   19.8178   -4.6632  -14.4320 C   0  0  0  0  0  0  0  0  0  0  0  0
   19.8529   -3.3711  -13.9138 C   0  0  0  0  0  0  0  0  0  0  0  0
   23.2291   -6.3684  -17.5423 O   0  0  0  0  0  0  0  0  0  0  0  0
  2  1  1  0
  3  2  1  0
  3  5  1  0
  3  4  1  1
  5  6  1  6
  7  5  1  0
  8  7  2  0
  9  7  1  0
 10 16  1  0
 10  9  1  0
 10 11  1  6
 12 11  1  0
 13 12  1  0
 13 14  1  0
 14 15  1  0
 16 17  2  0
 18 19  1  0
 19 20  2  0
 19 29  1  0
 20 21  1  0
 21 22  2  0
 22 23  1  0
 24 23  1  1
 25 16  1  0
 25 24  1  0
 26 27  1  0
 26 24  1  0
 28 22  1  0
 29 28  2  0
 30 26  2  0
M  END
$$$$
