IKY.pdb
     RDKit          3D

 30 30  0  0  1  0  0  0  0  0999 V2000
   23.4239  -11.5405  -22.6283 C   0  0  0  0  0  0  0  0  0  0  0  0
   22.6873  -12.2984  -21.5879 C   0  0  0  0  0  0  0  0  0  0  0  0
   21.7956  -11.5485  -20.6794 C   0  0  2  0  0  0  0  0  0  0  0  0
   22.5808  -10.3901  -20.0503 C   0  0  0  0  0  0  0  0  0  0  0  0
   20.9716  -12.2628  -19.6955 C   0  0  2  0  0  0  0  0  0  0  0  0
   20.3186  -13.3686  -20.4294 N   0  0  0  0  0  0  0  0  0  0  0  0
   20.0223  -11.5438  -18.8682 C   0  0  0  0  0  0  0  0  0  0  0  0
   18.9901  -10.9738  -19.3675 O   0  0  0  0  0  0  0  0  0  0  0  0
   20.1127  -11.3873  -17.4621 N   0  0  0  0  0  0  0  0  0  0  0  0
   19.1469  -10.6119  -16.6625 C   0  0  1  0  0  0  0  0  0  0  0  0
   18.5055  -11.6376  -15.7942 C   0  0  0  0  0  0  0  0  0  0  0  0
   17.4594  -12.4993  -16.3865 C   0  0  0  0  0  0  0  0  0  0  0  0
   16.9795  -13.4002  -15.2302 C   0  0  0  0  0  0  0  0  0  0  0  0
   15.9194  -14.3588  -15.7060 C   0  0  0  0  0  0  0  0  0  0  0  0
   15.4020  -15.0599  -14.5420 N   0  0  0  0  0  0  0  0  0  0  0  0
   19.7874   -9.4885  -16.0010 C   0  0  0  0  0  0  0  0  0  0  0  0
   21.0432   -9.4319  -15.8678 O   0  0  0  0  0  0  0  0  0  0  0  0
   22.8619   -1.7097  -14.3816 O   0  0  0  0  0  0  0  0  0  0  0  0
   22.3401   -2.9469  -14.7334 C   0  0  0  0  0  0  0  0  0  0  0  0
   21.7086   -3.0476  -15.9499 C   0  0  0  0  0  0  0  0  0  0  0  0
   21.1850   -4.2686  -16.3147 C   0  0  0  0  0  0  0  0  0  0  0  0
   21.2741   -5.3816  -15.5049 C   0  0  0  0  0  0  0  0  0  0  0  0
   20.6787   -6.6565  -15.9528 C   0  0  0  0  0  0  0  0  0  0  0  0
   19.6806   -7.2108  -14.9457 C   0  0  2  0  0  0  0  0  0  0  0  0
   19.0402   -8.4056  -15.4795 N   0  0  0  0  0  0  0  0  0  0  0  0
   18.6900   -6.2401  -14.4949 C   0  0  0  0  0  0  0  0  0  0  0  0
   18.8698   -5.5661  -13.3039 O   0  0  0  0  0  0  0  0  0  0  0  0
   21.9109   -5.2334  -14.3044 C   0  0  0  0  0  0  0  0  0  0  0  0
   22.4555   -4.0195  -13.8933 C   0  0  0  0  0  0  0  0  0  0  0  0
   17.6706   -6.0188  -15.1950 O   0  0  0  0  0  0  0  0  0  0  0  0
  2  1  1  0
  3  2  1  0
  3  5  1  0
  3  4  1  1
  5  6  1  6
  7  5  1  0
  8  7  2  0
  9  7  1  0
 10 16  1  0
 10  9  1  0
 10 11  1  1
 12 11  1  0
 13 12  1  0
 13 14  1  0
 14 15  1  0
 16 17  2  0
 18 19  1  0
 19 20  2  0
 19 29  1  0
 20 21  1  0
 21 22  2  0
 22 23  1  0
 24 23  1  6
 25 16  1  0
 25 24  1  0
 26 27  1  0
 26 24  1  0
 28 22  1  0
 29 28  2  0
 30 26  2  0
M  END
$$$$
