IKY.pdb
     RDKit          3D

 30 30  0  0  1  0  0  0  0  0999 V2000
   20.9208  -16.3188  -16.4951 C   0  0  0  0  0  0  0  0  0  0  0  0
   21.9718  -16.8481  -17.3977 C   0  0  0  0  0  0  0  0  0  0  0  0
   22.7770  -17.9961  -16.9322 C   0  0  2  0  0  0  0  0  0  0  0  0
   21.8689  -19.2264  -16.8058 C   0  0  0  0  0  0  0  0  0  0  0  0
   23.6797  -17.8490  -15.7830 C   0  0  2  0  0  0  0  0  0  0  0  0
   24.4553  -16.6126  -16.0233 N   0  0  0  0  0  0  0  0  0  0  0  0
   24.5407  -18.9429  -15.3773 C   0  0  0  0  0  0  0  0  0  0  0  0
   24.0644  -20.0573  -14.9641 O   0  0  0  0  0  0  0  0  0  0  0  0
   25.9581  -18.9183  -15.3862 N   0  0  0  0  0  0  0  0  0  0  0  0
   26.7976  -20.0111  -14.8621 C   0  0  1  0  0  0  0  0  0  0  0  0
   28.0416  -19.9198  -15.6754 C   0  0  0  0  0  0  0  0  0  0  0  0
   28.0458  -20.5406  -17.0179 C   0  0  0  0  0  0  0  0  0  0  0  0
   28.2729  -22.0449  -16.7636 C   0  0  0  0  0  0  0  0  0  0  0  0
   28.4353  -22.7868  -18.0645 C   0  0  0  0  0  0  0  0  0  0  0  0
   28.8566  -24.1426  -17.7511 N   0  0  0  0  0  0  0  0  0  0  0  0
   26.9399  -19.9247  -13.4192 C   0  0  0  0  0  0  0  0  0  0  0  0
   27.7838  -19.1491  -12.8862 O   0  0  0  0  0  0  0  0  0  0  0  0
   27.8407  -19.5765   -5.0170 O   0  0  0  0  0  0  0  0  0  0  0  0
   27.4943  -19.5562   -6.3610 C   0  0  0  0  0  0  0  0  0  0  0  0
   28.4622  -19.1794   -7.2610 C   0  0  0  0  0  0  0  0  0  0  0  0
   28.1351  -19.1539   -8.5990 C   0  0  0  0  0  0  0  0  0  0  0  0
   26.8791  -19.4913   -9.0585 C   0  0  0  0  0  0  0  0  0  0  0  0
   26.5930  -19.4291  -10.5058 C   0  0  0  0  0  0  0  0  0  0  0  0
   26.4404  -20.8127  -11.1224 C   0  0  2  0  0  0  0  0  0  0  0  0
   26.1412  -20.6984  -12.5436 N   0  0  0  0  0  0  0  0  0  0  0  0
   25.4651  -21.6602  -10.4462 C   0  0  0  0  0  0  0  0  0  0  0  0
   24.1155  -21.4886  -10.6793 O   0  0  0  0  0  0  0  0  0  0  0  0
   25.9493  -19.8596   -8.1265 C   0  0  0  0  0  0  0  0  0  0  0  0
   26.2339  -19.9003   -6.7640 C   0  0  0  0  0  0  0  0  0  0  0  0
   25.8577  -22.5484   -9.6492 O   0  0  0  0  0  0  0  0  0  0  0  0
  2  1  1  0
  3  2  1  0
  3  5  1  0
  3  4  1  1
  5  6  1  6
  7  5  1  0
  8  7  2  0
  9  7  1  0
 10 16  1  0
 10  9  1  0
 10 11  1  6
 12 11  1  0
 13 12  1  0
 13 14  1  0
 14 15  1  0
 16 17  2  0
 18 19  1  0
 19 20  2  0
 19 29  1  0
 20 21  1  0
 21 22  2  0
 22 23  1  0
 24 23  1  1
 25 16  1  0
 25 24  1  0
 26 27  1  0
 26 24  1  0
 28 22  1  0
 29 28  2  0
 30 26  2  0
M  END
$$$$
