IKY.pdb
     RDKit          3D

 30 30  0  0  1  0  0  0  0  0999 V2000
   19.9281  -17.3064  -19.4398 C   0  0  0  0  0  0  0  0  0  0  0  0
   19.5194  -16.5418  -18.2366 C   0  0  0  0  0  0  0  0  0  0  0  0
   19.8587  -15.1051  -18.1753 C   0  0  2  0  0  0  0  0  0  0  0  0
   21.3441  -14.9262  -18.5156 C   0  0  0  0  0  0  0  0  0  0  0  0
   19.4506  -14.2972  -17.0184 C   0  0  2  0  0  0  0  0  0  0  0  0
   18.0057  -14.5501  -16.8280 N   0  0  0  0  0  0  0  0  0  0  0  0
   19.7507  -12.8797  -16.9666 C   0  0  0  0  0  0  0  0  0  0  0  0
   20.9368  -12.4499  -16.7475 O   0  0  0  0  0  0  0  0  0  0  0  0
   18.8095  -11.8345  -17.1444 N   0  0  0  0  0  0  0  0  0  0  0  0
   19.1336  -10.4060  -16.9779 C   0  0  1  0  0  0  0  0  0  0  0  0
   18.0492   -9.7101  -17.7244 C   0  0  0  0  0  0  0  0  0  0  0  0
   17.9950   -8.2333  -17.6628 C   0  0  0  0  0  0  0  0  0  0  0  0
   16.7567   -7.8422  -18.4951 C   0  0  0  0  0  0  0  0  0  0  0  0
   16.5629   -6.3484  -18.4927 C   0  0  0  0  0  0  0  0  0  0  0  0
   15.4021   -6.0513  -19.3162 N   0  0  0  0  0  0  0  0  0  0  0  0
   19.3027  -10.0606  -15.5773 C   0  0  0  0  0  0  0  0  0  0  0  0
   18.5780  -10.5773  -14.6797 O   0  0  0  0  0  0  0  0  0  0  0  0
   22.9951   -3.2689  -15.5638 O   0  0  0  0  0  0  0  0  0  0  0  0
   22.7239   -4.5168  -15.0199 C   0  0  0  0  0  0  0  0  0  0  0  0
   23.0005   -5.6200  -15.7916 C   0  0  0  0  0  0  0  0  0  0  0  0
   22.7374   -6.8663  -15.2669 C   0  0  0  0  0  0  0  0  0  0  0  0
   22.2102   -7.0394  -14.0041 C   0  0  0  0  0  0  0  0  0  0  0  0
   21.9403   -8.4042  -13.5093 C   0  0  0  0  0  0  0  0  0  0  0  0
   20.4963   -8.8262  -13.7429 C   0  0  2  0  0  0  0  0  0  0  0  0
   20.2857   -9.1359  -15.1509 N   0  0  0  0  0  0  0  0  0  0  0  0
   19.5111   -7.8641  -13.2630 C   0  0  0  0  0  0  0  0  0  0  0  0
   19.2709   -7.7319  -11.9102 O   0  0  0  0  0  0  0  0  0  0  0  0
   21.9514   -5.9132  -13.2736 C   0  0  0  0  0  0  0  0  0  0  0  0
   22.2009   -4.6332  -13.7620 C   0  0  0  0  0  0  0  0  0  0  0  0
   18.8803   -7.1548  -14.0859 O   0  0  0  0  0  0  0  0  0  0  0  0
  2  1  1  0
  3  2  1  0
  3  5  1  0
  3  4  1  1
  5  6  1  6
  7  5  1  0
  8  7  2  0
  9  7  1  0
 10 16  1  0
 10  9  1  0
 10 11  1  1
 12 11  1  0
 13 12  1  0
 13 14  1  0
 14 15  1  0
 16 17  2  0
 18 19  1  0
 19 20  2  0
 19 29  1  0
 20 21  1  0
 21 22  2  0
 22 23  1  0
 24 23  1  6
 25 16  1  0
 25 24  1  0
 26 27  1  0
 26 24  1  0
 28 22  1  0
 29 28  2  0
 30 26  2  0
M  END
$$$$
