IKY.pdb
     RDKit          3D

 30 30  0  0  1  0  0  0  0  0999 V2000
   25.8857  -13.5798  -15.6301 C   0  0  0  0  0  0  0  0  0  0  0  0
   26.1049  -14.5898  -16.6937 C   0  0  0  0  0  0  0  0  0  0  0  0
   26.0058  -16.0183  -16.3295 C   0  0  2  0  0  0  0  0  0  0  0  0
   26.8946  -16.2866  -15.1079 C   0  0  0  0  0  0  0  0  0  0  0  0
   26.1459  -17.0558  -17.3596 C   0  0  2  0  0  0  0  0  0  0  0  0
   25.2256  -16.6774  -18.4541 N   0  0  0  0  0  0  0  0  0  0  0  0
   26.0112  -18.4581  -17.0165 C   0  0  0  0  0  0  0  0  0  0  0  0
   24.8755  -18.9754  -16.7302 O   0  0  0  0  0  0  0  0  0  0  0  0
   27.0743  -19.3942  -16.9569 N   0  0  0  0  0  0  0  0  0  0  0  0
   26.9239  -20.7703  -16.4497 C   0  0  1  0  0  0  0  0  0  0  0  0
   27.8248  -21.5685  -17.3265 C   0  0  0  0  0  0  0  0  0  0  0  0
   27.8534  -23.0364  -17.1473 C   0  0  0  0  0  0  0  0  0  0  0  0
   29.3216  -23.3714  -16.8138 C   0  0  0  0  0  0  0  0  0  0  0  0
   29.5409  -24.8617  -16.8109 C   0  0  0  0  0  0  0  0  0  0  0  0
   30.9590  -25.0999  -16.5954 N   0  0  0  0  0  0  0  0  0  0  0  0
   27.1609  -20.8365  -15.0183 C   0  0  0  0  0  0  0  0  0  0  0  0
   28.1568  -20.2657  -14.4888 O   0  0  0  0  0  0  0  0  0  0  0  0
   20.6186  -19.5815  -11.4030 O   0  0  0  0  0  0  0  0  0  0  0  0
   21.9801  -19.7620  -11.6040 C   0  0  0  0  0  0  0  0  0  0  0  0
   22.7801  -19.8537  -10.4902 C   0  0  0  0  0  0  0  0  0  0  0  0
   24.1339  -20.0332  -10.6717 C   0  0  0  0  0  0  0  0  0  0  0  0
   24.7053  -20.1224  -11.9240 C   0  0  0  0  0  0  0  0  0  0  0  0
   26.1659  -20.3015  -12.0459 C   0  0  0  0  0  0  0  0  0  0  0  0
   26.5305  -21.6192  -12.7155 C   0  0  2  0  0  0  0  0  0  0  0  0
   26.2898  -21.5366  -14.1500 N   0  0  0  0  0  0  0  0  0  0  0  0
   25.8681  -22.7826  -12.1373 C   0  0  0  0  0  0  0  0  0  0  0  0
   26.0798  -23.1168  -10.8149 O   0  0  0  0  0  0  0  0  0  0  0  0
   23.8702  -20.0256  -13.0019 C   0  0  0  0  0  0  0  0  0  0  0  0
   22.4961  -19.8442  -12.8675 C   0  0  0  0  0  0  0  0  0  0  0  0
   25.1029  -23.4813  -12.8476 O   0  0  0  0  0  0  0  0  0  0  0  0
  2  1  1  0
  3  2  1  0
  3  5  1  0
  3  4  1  1
  5  6  1  6
  7  5  1  0
  8  7  2  0
  9  7  1  0
 10 16  1  0
 10  9  1  0
 10 11  1  6
 12 11  1  0
 13 12  1  0
 13 14  1  0
 14 15  1  0
 16 17  2  0
 18 19  1  0
 19 20  2  0
 19 29  1  0
 20 21  1  0
 21 22  2  0
 22 23  1  0
 24 23  1  1
 25 16  1  0
 25 24  1  0
 26 27  1  0
 26 24  1  0
 28 22  1  0
 29 28  2  0
 30 26  2  0
M  END
$$$$
