IKY.pdb
     RDKit          3D

 30 30  0  0  1  0  0  0  0  0999 V2000
   19.8828  -28.3231  -17.6397 C   0  0  0  0  0  0  0  0  0  0  0  0
   21.2860  -28.4609  -18.0992 C   0  0  0  0  0  0  0  0  0  0  0  0
   22.0668  -29.6190  -17.6172 C   0  0  2  0  0  0  0  0  0  0  0  0
   21.9442  -29.7050  -16.0901 C   0  0  0  0  0  0  0  0  0  0  0  0
   23.4461  -29.8250  -18.0783 C   0  0  2  0  0  0  0  0  0  0  0  0
   23.3797  -29.9075  -19.5536 N   0  0  0  0  0  0  0  0  0  0  0  0
   24.2566  -30.8922  -17.5248 C   0  0  0  0  0  0  0  0  0  0  0  0
   24.0547  -32.1191  -17.8304 O   0  0  0  0  0  0  0  0  0  0  0  0
   25.3294  -30.7200  -16.6141 N   0  0  0  0  0  0  0  0  0  0  0  0
   26.1282  -31.8344  -16.0724 C   0  0  1  0  0  0  0  0  0  0  0  0
   27.4765  -31.6226  -16.6681 C   0  0  0  0  0  0  0  0  0  0  0  0
   27.6949  -32.0415  -18.0697 C   0  0  0  0  0  0  0  0  0  0  0  0
   29.1687  -31.6968  -18.3665 C   0  0  0  0  0  0  0  0  0  0  0  0
   30.0921  -32.6688  -17.6797 C   0  0  0  0  0  0  0  0  0  0  0  0
   31.4459  -32.3852  -18.1279 N   0  0  0  0  0  0  0  0  0  0  0  0
   26.0440  -31.8918  -14.6235 C   0  0  0  0  0  0  0  0  0  0  0  0
   26.0620  -30.8410  -13.9210 O   0  0  0  0  0  0  0  0  0  0  0  0
   24.4397  -32.7940   -6.2982 O   0  0  0  0  0  0  0  0  0  0  0  0
   24.4732  -32.7767   -7.6858 C   0  0  0  0  0  0  0  0  0  0  0  0
   25.1604  -31.7525   -8.2921 C   0  0  0  0  0  0  0  0  0  0  0  0
   25.2038  -31.7205   -9.6687 C   0  0  0  0  0  0  0  0  0  0  0  0
   24.5849  -32.6746  -10.4492 C   0  0  0  0  0  0  0  0  0  0  0  0
   24.6604  -32.5718  -11.9202 C   0  0  0  0  0  0  0  0  0  0  0  0
   25.9351  -33.1915  -12.4760 C   0  0  2  0  0  0  0  0  0  0  0  0
   25.9340  -33.1212  -13.9312 N   0  0  0  0  0  0  0  0  0  0  0  0
   26.1837  -34.5526  -12.0154 C   0  0  0  0  0  0  0  0  0  0  0  0
   26.9258  -34.7748  -10.8730 O   0  0  0  0  0  0  0  0  0  0  0  0
   23.9134  -33.6740   -9.8018 C   0  0  0  0  0  0  0  0  0  0  0  0
   23.8425  -33.7477   -8.4130 C   0  0  0  0  0  0  0  0  0  0  0  0
   25.7198  -35.5242  -12.6628 O   0  0  0  0  0  0  0  0  0  0  0  0
  2  1  1  0
  3  2  1  0
  3  5  1  0
  3  4  1  1
  5  6  1  6
  7  5  1  0
  8  7  2  0
  9  7  1  0
 10 16  1  0
 10  9  1  0
 10 11  1  1
 12 11  1  0
 13 12  1  0
 13 14  1  0
 14 15  1  0
 16 17  2  0
 18 19  1  0
 19 20  2  0
 19 29  1  0
 20 21  1  0
 21 22  2  0
 22 23  1  0
 24 23  1  6
 25 16  1  0
 25 24  1  0
 26 27  1  0
 26 24  1  0
 28 22  1  0
 29 28  2  0
 30 26  2  0
M  END
$$$$
