IKY.pdb
     RDKit          3D

 30 30  0  0  1  0  0  0  0  0999 V2000
   14.9660  -10.2727  -18.3213 C   0  0  0  0  0  0  0  0  0  0  0  0
   16.1263  -10.2304  -19.2440 C   0  0  0  0  0  0  0  0  0  0  0  0
   17.3721   -9.5941  -18.7684 C   0  0  2  0  0  0  0  0  0  0  0  0
   17.0485   -8.1888  -18.2443 C   0  0  0  0  0  0  0  0  0  0  0  0
   18.5787   -9.6126  -19.6059 C   0  0  2  0  0  0  0  0  0  0  0  0
   18.7610  -11.0162  -20.0355 N   0  0  0  0  0  0  0  0  0  0  0  0
   19.8206   -9.0420  -19.1219 C   0  0  0  0  0  0  0  0  0  0  0  0
   20.6208   -9.7060  -18.3746 O   0  0  0  0  0  0  0  0  0  0  0  0
   20.2865   -7.7328  -19.4025 N   0  0  0  0  0  0  0  0  0  0  0  0
   21.5432   -7.1800  -18.8652 C   0  0  1  0  0  0  0  0  0  0  0  0
   22.2901   -6.7575  -20.0822 C   0  0  0  0  0  0  0  0  0  0  0  0
   23.0756   -7.7782  -20.8095 C   0  0  0  0  0  0  0  0  0  0  0  0
   23.6984   -7.0285  -22.0049 C   0  0  0  0  0  0  0  0  0  0  0  0
   24.5237   -7.9640  -22.8493 C   0  0  0  0  0  0  0  0  0  0  0  0
   25.4612   -8.6433  -21.9698 N   0  0  0  0  0  0  0  0  0  0  0  0
   21.2880   -6.1658  -17.8573 C   0  0  0  0  0  0  0  0  0  0  0  0
   20.5068   -5.1975  -18.0809 O   0  0  0  0  0  0  0  0  0  0  0  0
   17.7971   -9.3531  -12.7524 O   0  0  0  0  0  0  0  0  0  0  0  0
   18.3758   -8.2895  -13.4311 C   0  0  0  0  0  0  0  0  0  0  0  0
   19.0451   -7.3487  -12.6856 C   0  0  0  0  0  0  0  0  0  0  0  0
   19.6255   -6.2865  -13.3435 C   0  0  0  0  0  0  0  0  0  0  0  0
   19.5562   -6.1396  -14.7133 C   0  0  0  0  0  0  0  0  0  0  0  0
   20.1899   -4.9690  -15.3523 C   0  0  0  0  0  0  0  0  0  0  0  0
   21.6807   -5.1753  -15.5818 C   0  0  2  0  0  0  0  0  0  0  0  0
   21.8956   -6.2145  -16.5801 N   0  0  0  0  0  0  0  0  0  0  0  0
   22.4367   -5.4501  -14.3654 C   0  0  0  0  0  0  0  0  0  0  0  0
   22.4654   -4.5252  -13.3414 O   0  0  0  0  0  0  0  0  0  0  0  0
   18.8800   -7.1000  -15.4128 C   0  0  0  0  0  0  0  0  0  0  0  0
   18.2777   -8.1909  -14.7913 C   0  0  0  0  0  0  0  0  0  0  0  0
   23.0631   -6.5332  -14.2522 O   0  0  0  0  0  0  0  0  0  0  0  0
  2  1  1  0
  3  2  1  0
  3  5  1  0
  3  4  1  6
  5  6  1  1
  7  5  1  0
  8  7  2  0
  9  7  1  0
 10 16  1  0
 10  9  1  0
 10 11  1  6
 12 11  1  0
 13 12  1  0
 13 14  1  0
 14 15  1  0
 16 17  2  0
 18 19  1  0
 19 20  2  0
 19 29  1  0
 20 21  1  0
 21 22  2  0
 22 23  1  0
 24 23  1  1
 25 16  1  0
 25 24  1  0
 26 27  1  0
 26 24  1  0
 28 22  1  0
 29 28  2  0
 30 26  2  0
M  END
$$$$
