IKY.pdb
     RDKit          3D

 30 30  0  0  1  0  0  0  0  0999 V2000
   28.6549  -27.8284  -17.3390 C   0  0  0  0  0  0  0  0  0  0  0  0
   28.6920  -26.5464  -18.0837 C   0  0  0  0  0  0  0  0  0  0  0  0
   28.1607  -25.3386  -17.4190 C   0  0  2  0  0  0  0  0  0  0  0  0
   26.7311  -25.6196  -16.9377 C   0  0  0  0  0  0  0  0  0  0  0  0
   28.2838  -24.0246  -18.0638 C   0  0  2  0  0  0  0  0  0  0  0  0
   29.7311  -23.8016  -18.2725 N   0  0  0  0  0  0  0  0  0  0  0  0
   27.6467  -22.8574  -17.4858 C   0  0  0  0  0  0  0  0  0  0  0  0
   28.2011  -22.1813  -16.5504 O   0  0  0  0  0  0  0  0  0  0  0  0
   26.3834  -22.3389  -17.8667 N   0  0  0  0  0  0  0  0  0  0  0  0
   25.7903  -21.1216  -17.2837 C   0  0  1  0  0  0  0  0  0  0  0  0
   24.9647  -20.5672  -18.3922 C   0  0  0  0  0  0  0  0  0  0  0  0
   24.1433  -19.3678  -18.1192 C   0  0  0  0  0  0  0  0  0  0  0  0
   23.4353  -19.0544  -19.4532 C   0  0  0  0  0  0  0  0  0  0  0  0
   22.5688  -17.8293  -19.3217 C   0  0  0  0  0  0  0  0  0  0  0  0
   21.8819  -17.6350  -20.5884 N   0  0  0  0  0  0  0  0  0  0  0  0
   25.1132  -21.4093  -16.0314 C   0  0  0  0  0  0  0  0  0  0  0  0
   24.4345  -22.4645  -15.8773 O   0  0  0  0  0  0  0  0  0  0  0  0
   22.6779  -20.7855   -7.5481 O   0  0  0  0  0  0  0  0  0  0  0  0
   23.2445  -20.5638   -8.7957 C   0  0  0  0  0  0  0  0  0  0  0  0
   24.5146  -21.0428   -9.0109 C   0  0  0  0  0  0  0  0  0  0  0  0
   25.0919  -20.8315  -10.2438 C   0  0  0  0  0  0  0  0  0  0  0  0
   24.4413  -20.1607  -11.2584 C   0  0  0  0  0  0  0  0  0  0  0  0
   25.1248  -19.9579  -12.5514 C   0  0  0  0  0  0  0  0  0  0  0  0
   24.5418  -20.8310  -13.6539 C   0  0  2  0  0  0  0  0  0  0  0  0
   25.1837  -20.5280  -14.9262 N   0  0  0  0  0  0  0  0  0  0  0  0
   23.0898  -20.7555  -13.7663 C   0  0  0  0  0  0  0  0  0  0  0  0
   22.2977  -21.7385  -13.2082 O   0  0  0  0  0  0  0  0  0  0  0  0
   23.1799  -19.7026  -10.9981 C   0  0  0  0  0  0  0  0  0  0  0  0
   22.5560  -19.8925   -9.7677 C   0  0  0  0  0  0  0  0  0  0  0  0
   22.5610  -19.7914  -14.3739 O   0  0  0  0  0  0  0  0  0  0  0  0
  2  1  1  0
  3  2  1  0
  3  5  1  0
  3  4  1  6
  5  6  1  1
  7  5  1  0
  8  7  2  0
  9  7  1  0
 10 16  1  0
 10  9  1  0
 10 11  1  6
 12 11  1  0
 13 12  1  0
 13 14  1  0
 14 15  1  0
 16 17  2  0
 18 19  1  0
 19 20  2  0
 19 29  1  0
 20 21  1  0
 21 22  2  0
 22 23  1  0
 24 23  1  1
 25 16  1  0
 25 24  1  0
 26 27  1  0
 26 24  1  0
 28 22  1  0
 29 28  2  0
 30 26  2  0
M  END
$$$$
