RAV.pdb
     RDKit          3D

 24 23  0  0  1  0  0  0  0  0999 V2000
   20.2245  -19.9600  -13.4800 N   0  0  0  0  0  0  0  0  0  0  0  0
   20.6689  -18.6005  -13.3875 C   0  0  0  0  0  0  0  0  0  0  0  0
   20.6656  -17.9863  -12.2469 N   0  0  0  0  0  0  0  0  0  0  0  0
   21.1187  -17.8727  -14.5217 N   0  0  0  0  0  0  0  0  0  0  0  0
   21.2199  -18.4428  -15.8462 C   0  0  0  0  0  0  0  0  0  0  0  0
   22.1329  -19.6329  -15.8800 C   0  0  0  0  0  0  0  0  0  0  0  0
   23.3100  -19.4753  -16.7682 C   0  0  0  0  0  0  0  0  0  0  0  0
   24.4210  -18.6202  -16.2693 C   0  0  2  0  0  0  0  0  0  0  0  0
   24.3387  -18.2162  -14.8966 N   0  0  0  0  0  0  0  0  0  0  0  0
   24.7397  -17.4452  -17.1050 C   0  0  0  0  0  0  0  0  0  0  0  0
   24.9481  -17.6326  -18.3400 O   0  0  0  0  0  0  0  0  0  0  0  0
   20.9566  -17.0017  -12.1646 C   0  0  0  0  0  0  0  0  0  0  0  0
   24.8094  -13.6714  -16.7200 C   0  0  2  0  0  0  0  0  0  0  0  0
   25.0988  -14.9795  -17.3508 N   0  0  0  0  0  0  0  0  0  0  0  0
   24.8141  -16.1392  -16.5532 C   0  0  0  0  0  0  0  0  0  0  0  0
   26.5052  -15.0188  -17.8812 O   0  0  0  0  0  0  0  0  0  0  0  0
   27.4844  -15.3183  -17.1344 C   0  0  0  0  0  0  0  0  0  0  0  0
   27.7248  -17.1735  -20.5164 C   0  0  2  0  0  0  0  0  0  0  0  0
   28.1523  -15.8055  -20.9602 C   0  0  0  0  0  0  0  0  0  0  0  0
   27.2248  -15.2750  -22.0169 C   0  0  2  0  0  0  0  0  0  0  0  0
   28.1830  -14.8553  -19.7676 N   0  0  0  0  0  0  0  0  0  0  0  0
   26.8275  -14.7310  -19.2338 C   0  0  0  0  0  0  0  0  0  0  0  0
   28.8287  -13.5848  -20.0599 O   0  0  0  0  0  0  0  0  0  0  0  0
   30.2080  -13.4460  -20.1881 O   0  0  0  0  0  0  0  0  0  0  0  0
  2  1  1  0
  2  3  2  0
  4  2  1  0
  5  4  1  0
  6  5  1  0
  7  6  1  0
  8 10  1  0
  8  7  1  0
  8  9  1  1
 10 11  2  0
 13 12  1  6
 14 10  1  0
 14 13  1  0
 15 21  1  0
 15 13  1  0
 16 15  2  0
 18 20  1  0
 18 17  1  6
 19 18  1  0
 20 22  1  0
 20 21  1  1
 22 23  1  0
 24 22  2  0
M  END
$$$$
