RAV.pdb
     RDKit          3D

 24 23  0  0  1  0  0  0  0  0999 V2000
   15.9352  -18.7503  -14.4946 N   0  0  0  0  0  0  0  0  0  0  0  0
   15.7300  -18.5088  -15.8925 C   0  0  0  0  0  0  0  0  0  0  0  0
   15.6910  -19.4970  -16.7292 N   0  0  0  0  0  0  0  0  0  0  0  0
   15.5700  -17.1987  -16.4184 N   0  0  0  0  0  0  0  0  0  0  0  0
   15.6766  -15.9997  -15.6182 C   0  0  0  0  0  0  0  0  0  0  0  0
   15.4640  -14.7573  -16.4321 C   0  0  0  0  0  0  0  0  0  0  0  0
   15.6363  -13.4937  -15.6752 C   0  0  0  0  0  0  0  0  0  0  0  0
   15.3670  -12.2270  -16.4082 C   0  0  2  0  0  0  0  0  0  0  0  0
   14.4242  -12.3092  -17.4847 N   0  0  0  0  0  0  0  0  0  0  0  0
   16.5643  -11.4924  -16.8638 C   0  0  0  0  0  0  0  0  0  0  0  0
   17.0296  -11.7656  -18.0094 O   0  0  0  0  0  0  0  0  0  0  0  0
   15.5011  -19.3476  -17.7305 C   0  0  0  0  0  0  0  0  0  0  0  0
   17.8479   -8.4628  -17.2754 C   0  0  2  0  0  0  0  0  0  0  0  0
   18.2539   -9.6753  -16.5286 N   0  0  0  0  0  0  0  0  0  0  0  0
   17.1852  -10.5074  -16.0514 C   0  0  0  0  0  0  0  0  0  0  0  0
   19.2062   -9.3268  -15.4185 O   0  0  0  0  0  0  0  0  0  0  0  0
   18.7901   -9.0546  -14.2527 C   0  0  0  0  0  0  0  0  0  0  0  0
   22.6408  -11.1489  -14.8718 C   0  0  2  0  0  0  0  0  0  0  0  0
   22.8631   -9.6687  -14.7689 C   0  0  0  0  0  0  0  0  0  0  0  0
   23.4953   -9.1373  -16.0244 C   0  0  2  0  0  0  0  0  0  0  0  0
   21.5386   -8.9582  -14.5103 N   0  0  0  0  0  0  0  0  0  0  0  0
   20.6144   -9.2824  -15.5959 C   0  0  0  0  0  0  0  0  0  0  0  0
   21.6887   -7.5332  -14.2592 O   0  0  0  0  0  0  0  0  0  0  0  0
   21.9979   -7.0116  -13.0060 O   0  0  0  0  0  0  0  0  0  0  0  0
  2  1  1  0
  2  3  2  0
  4  2  1  0
  5  4  1  0
  6  5  1  0
  7  6  1  0
  8 10  1  0
  8  7  1  0
  8  9  1  6
 10 11  2  0
 13 12  1  6
 14 10  1  0
 14 13  1  0
 15 21  1  0
 15 13  1  0
 16 15  2  0
 18 20  1  0
 18 17  1  1
 19 18  1  0
 20 22  1  0
 20 21  1  1
 22 23  1  0
 24 22  2  0
M  END
$$$$
