RAV.pdb
     RDKit          3D

 24 23  0  0  1  0  0  0  0  0999 V2000
   28.7331  -27.3462  -16.0285 N   0  0  0  0  0  0  0  0  0  0  0  0
   27.9101  -27.0189  -17.1554 C   0  0  0  0  0  0  0  0  0  0  0  0
   26.9492  -27.8092  -17.5163 N   0  0  0  0  0  0  0  0  0  0  0  0
   28.1096  -25.8386  -17.9206 N   0  0  0  0  0  0  0  0  0  0  0  0
   28.7374  -24.6460  -17.3980 C   0  0  0  0  0  0  0  0  0  0  0  0
   27.9506  -24.0412  -16.2727 C   0  0  0  0  0  0  0  0  0  0  0  0
   26.9745  -23.0078  -16.6956 C   0  0  0  0  0  0  0  0  0  0  0  0
   27.0939  -21.6677  -16.0598 C   0  0  2  0  0  0  0  0  0  0  0  0
   28.2425  -21.4646  -15.2269 N   0  0  0  0  0  0  0  0  0  0  0  0
   25.8880  -21.1936  -15.3514 C   0  0  0  0  0  0  0  0  0  0  0  0
   25.4818  -21.8621  -14.3555 O   0  0  0  0  0  0  0  0  0  0  0  0
   26.3525  -27.5956  -18.3283 C   0  0  0  0  0  0  0  0  0  0  0  0
   23.7251  -18.1017  -15.2572 C   0  0  1  0  0  0  0  0  0  0  0  0
   24.0252  -19.5417  -15.0864 N   0  0  0  0  0  0  0  0  0  0  0  0
   25.1951  -20.0252  -15.7644 C   0  0  0  0  0  0  0  0  0  0  0  0
   22.8225  -20.3821  -15.4151 O   0  0  0  0  0  0  0  0  0  0  0  0
   22.6072  -20.7941  -16.5941 C   0  0  0  0  0  0  0  0  0  0  0  0
   21.8782  -23.4809  -13.6682 C   0  0  2  0  0  0  0  0  0  0  0  0
   20.5929  -22.7091  -13.7276 C   0  0  0  0  0  0  0  0  0  0  0  0
   20.2576  -22.1300  -12.3821 C   0  0  2  0  0  0  0  0  0  0  0  0
   20.7000  -21.5949  -14.7635 N   0  0  0  0  0  0  0  0  0  0  0  0
   21.8625  -20.7683  -14.4427 C   0  0  0  0  0  0  0  0  0  0  0  0
   19.4641  -20.8468  -14.9347 O   0  0  0  0  0  0  0  0  0  0  0  0
   18.3520  -21.3594  -15.5971 O   0  0  0  0  0  0  0  0  0  0  0  0
  2  1  1  0
  2  3  2  0
  4  2  1  0
  5  4  1  0
  6  5  1  0
  7  6  1  0
  8 10  1  0
  8  7  1  0
  8  9  1  1
 10 11  2  0
 13 12  1  1
 14 10  1  0
 14 13  1  0
 15 21  1  0
 15 13  1  0
 16 15  2  0
 18 20  1  0
 18 17  1  1
 19 18  1  0
 20 22  1  0
 20 21  1  6
 22 23  1  0
 24 22  2  0
M  END
$$$$
