RAV.pdb
     RDKit          3D

 24 23  0  0  1  0  0  0  0  0999 V2000
   18.6592  -23.3801  -13.4825 N   0  0  0  0  0  0  0  0  0  0  0  0
   18.7590  -22.7432  -12.2023 C   0  0  0  0  0  0  0  0  0  0  0  0
   18.2074  -23.2786  -11.1596 N   0  0  0  0  0  0  0  0  0  0  0  0
   19.4478  -21.5140  -12.0204 N   0  0  0  0  0  0  0  0  0  0  0  0
   20.0661  -20.7790  -13.1007 C   0  0  0  0  0  0  0  0  0  0  0  0
   21.3330  -21.4292  -13.5730 C   0  0  0  0  0  0  0  0  0  0  0  0
   22.0468  -20.6782  -14.6340 C   0  0  0  0  0  0  0  0  0  0  0  0
   23.3137  -21.2702  -15.1428 C   0  0  2  0  0  0  0  0  0  0  0  0
   24.0014  -22.1535  -14.2477 N   0  0  0  0  0  0  0  0  0  0  0  0
   24.2772  -20.3082  -15.7145 C   0  0  0  0  0  0  0  0  0  0  0  0
   25.1065  -19.7597  -14.9302 O   0  0  0  0  0  0  0  0  0  0  0  0
   18.1971  -22.7973  -10.2490 C   0  0  0  0  0  0  0  0  0  0  0  0
   25.3821  -19.1067  -19.1292 C   0  0  1  0  0  0  0  0  0  0  0  0
   25.1668  -19.0174  -17.6668 N   0  0  0  0  0  0  0  0  0  0  0  0
   24.2841  -19.9982  -17.1000 C   0  0  0  0  0  0  0  0  0  0  0  0
   24.7574  -17.6262  -17.2697 O   0  0  0  0  0  0  0  0  0  0  0  0
   23.5400  -17.3213  -17.0930 C   0  0  0  0  0  0  0  0  0  0  0  0
   26.0995  -15.3575  -14.4703 C   0  0  2  0  0  0  0  0  0  0  0  0
   26.2219  -14.6005  -15.7599 C   0  0  0  0  0  0  0  0  0  0  0  0
   27.6382  -14.6296  -16.2614 C   0  0  2  0  0  0  0  0  0  0  0  0
   25.2853  -15.1959  -16.8061 N   0  0  0  0  0  0  0  0  0  0  0  0
   25.6913  -16.5762  -17.0656 C   0  0  0  0  0  0  0  0  0  0  0  0
   25.1602  -14.3753  -18.0008 O   0  0  0  0  0  0  0  0  0  0  0  0
   24.2804  -13.3005  -18.0949 O   0  0  0  0  0  0  0  0  0  0  0  0
  2  1  1  0
  2  3  2  0
  4  2  1  0
  5  4  1  0
  6  5  1  0
  7  6  1  0
  8 10  1  0
  8  7  1  0
  8  9  1  1
 10 11  2  0
 13 12  1  1
 14 10  1  0
 14 13  1  0
 15 21  1  0
 15 13  1  0
 16 15  2  0
 18 20  1  0
 18 17  1  1
 19 18  1  0
 20 22  1  0
 20 21  1  6
 22 23  1  0
 24 22  2  0
M  END
$$$$
