RAV.pdb
     RDKit          3D

 24 23  0  0  1  0  0  0  0  0999 V2000
   18.6015  -20.5735  -10.1289 N   0  0  0  0  0  0  0  0  0  0  0  0
   18.4306  -21.4789  -11.2269 C   0  0  0  0  0  0  0  0  0  0  0  0
   17.5253  -22.4043  -11.1781 N   0  0  0  0  0  0  0  0  0  0  0  0
   19.2353  -21.4110  -12.3958 N   0  0  0  0  0  0  0  0  0  0  0  0
   20.3483  -20.5010  -12.5459 C   0  0  0  0  0  0  0  0  0  0  0  0
   20.9708  -20.5908  -13.9081 C   0  0  0  0  0  0  0  0  0  0  0  0
   20.0318  -20.3356  -15.0273 C   0  0  0  0  0  0  0  0  0  0  0  0
   20.5643  -20.5075  -16.4062 C   0  0  2  0  0  0  0  0  0  0  0  0
   20.7682  -21.8583  -16.8398 N   0  0  0  0  0  0  0  0  0  0  0  0
   21.7627  -19.7064  -16.7264 C   0  0  0  0  0  0  0  0  0  0  0  0
   22.8968  -20.2545  -16.5959 O   0  0  0  0  0  0  0  0  0  0  0  0
   17.3961  -23.0724  -11.9513 C   0  0  0  0  0  0  0  0  0  0  0  0
   22.5227  -16.2431  -18.1110 C   0  0  1  0  0  0  0  0  0  0  0  0
   22.8055  -17.5898  -17.5641 N   0  0  0  0  0  0  0  0  0  0  0  0
   21.6607  -18.3608  -17.1677 C   0  0  0  0  0  0  0  0  0  0  0  0
   23.8190  -17.5159  -16.4559 O   0  0  0  0  0  0  0  0  0  0  0  0
   23.4722  -17.2894  -15.2581 C   0  0  0  0  0  0  0  0  0  0  0  0
   28.2650  -18.4580  -14.6267 C   0  0  2  0  0  0  0  0  0  0  0  0
   27.1785  -18.6721  -15.6390 C   0  0  0  0  0  0  0  0  0  0  0  0
   26.4429  -19.9539  -15.3667 C   0  0  1  0  0  0  0  0  0  0  0  0
   26.2059  -17.4975  -15.6177 N   0  0  0  0  0  0  0  0  0  0  0  0
   25.2111  -17.6950  -16.6708 C   0  0  0  0  0  0  0  0  0  0  0  0
   26.8665  -16.2019  -15.6554 O   0  0  0  0  0  0  0  0  0  0  0  0
   27.2241  -15.4983  -14.5085 O   0  0  0  0  0  0  0  0  0  0  0  0
  2  1  1  0
  2  3  2  0
  4  2  1  0
  5  4  1  0
  6  5  1  0
  7  6  1  0
  8 10  1  0
  8  7  1  0
  8  9  1  1
 10 11  2  0
 13 12  1  6
 14 10  1  0
 14 13  1  0
 15 21  1  0
 15 13  1  0
 16 15  2  0
 18 20  1  0
 18 17  1  6
 19 18  1  0
 20 22  1  0
 20 21  1  6
 22 23  1  0
 24 22  2  0
M  END
$$$$
