RAV.pdb
     RDKit          3D

 24 23  0  0  1  0  0  0  0  0999 V2000
   29.3831  -17.3861  -18.0931 N   0  0  0  0  0  0  0  0  0  0  0  0
   29.0961  -16.0468  -17.6709 C   0  0  0  0  0  0  0  0  0  0  0  0
   29.4289  -15.0399  -18.4150 N   0  0  0  0  0  0  0  0  0  0  0  0
   28.4520  -15.7642  -16.4365 N   0  0  0  0  0  0  0  0  0  0  0  0
   27.8876  -16.7828  -15.5801 C   0  0  0  0  0  0  0  0  0  0  0  0
   26.5935  -17.3186  -16.1178 C   0  0  0  0  0  0  0  0  0  0  0  0
   25.9643  -18.3606  -15.2707 C   0  0  0  0  0  0  0  0  0  0  0  0
   26.8451  -19.4578  -14.7863 C   0  0  2  0  0  0  0  0  0  0  0  0
   27.6094  -20.1418  -15.7875 N   0  0  0  0  0  0  0  0  0  0  0  0
   26.1949  -20.4500  -13.9069 C   0  0  0  0  0  0  0  0  0  0  0  0
   25.6393  -21.4510  -14.4482 O   0  0  0  0  0  0  0  0  0  0  0  0
   29.3340  -14.0698  -18.0822 C   0  0  0  0  0  0  0  0  0  0  0  0
   25.3908  -20.7541  -10.1977 C   0  0  1  0  0  0  0  0  0  0  0  0
   25.2216  -20.9526  -11.6554 N   0  0  0  0  0  0  0  0  0  0  0  0
   26.1851  -20.2980  -12.4953 C   0  0  0  0  0  0  0  0  0  0  0  0
   23.8181  -20.6219  -12.0815 O   0  0  0  0  0  0  0  0  0  0  0  0
   23.4805  -19.4375  -12.3805 C   0  0  0  0  0  0  0  0  0  0  0  0
   21.4319  -23.3805  -13.9725 C   0  0  2  0  0  0  0  0  0  0  0  0
   21.2560  -21.8918  -14.0360 C   0  0  0  0  0  0  0  0  0  0  0  0
   19.8975  -21.5391  -14.5728 C   0  0  1  0  0  0  0  0  0  0  0  0
   21.4434  -21.2841  -12.6497 N   0  0  0  0  0  0  0  0  0  0  0  0
   22.7918  -21.5984  -12.1798 C   0  0  0  0  0  0  0  0  0  0  0  0
   20.3869  -21.6423  -11.7161 O   0  0  0  0  0  0  0  0  0  0  0  0
   19.1587  -20.9883  -11.6720 O   0  0  0  0  0  0  0  0  0  0  0  0
  2  1  1  0
  2  3  2  0
  4  2  1  0
  5  4  1  0
  6  5  1  0
  7  6  1  0
  8 10  1  0
  8  7  1  0
  8  9  1  6
 10 11  2  0
 13 12  1  1
 14 10  1  0
 14 13  1  0
 15 21  1  0
 15 13  1  0
 16 15  2  0
 18 20  1  0
 18 17  1  6
 19 18  1  0
 20 22  1  0
 20 21  1  6
 22 23  1  0
 24 22  2  0
M  END
$$$$
