RAV.pdb
     RDKit          3D

 24 23  0  0  1  0  0  0  0  0999 V2000
   29.4272  -18.2433  -17.9649 N   0  0  0  0  0  0  0  0  0  0  0  0
   28.5135  -18.0263  -19.0477 C   0  0  0  0  0  0  0  0  0  0  0  0
   28.9567  -17.7563  -20.2347 N   0  0  0  0  0  0  0  0  0  0  0  0
   27.1049  -18.0883  -18.8731 N   0  0  0  0  0  0  0  0  0  0  0  0
   26.4679  -18.2665  -17.5878 C   0  0  0  0  0  0  0  0  0  0  0  0
   26.7261  -17.1120  -16.6651 C   0  0  0  0  0  0  0  0  0  0  0  0
   26.1373  -17.2667  -15.3128 C   0  0  0  0  0  0  0  0  0  0  0  0
   25.8388  -18.6531  -14.8623 C   0  0  2  0  0  0  0  0  0  0  0  0
   24.9709  -19.4183  -15.7082 N   0  0  0  0  0  0  0  0  0  0  0  0
   25.3907  -18.7807  -13.4610 C   0  0  0  0  0  0  0  0  0  0  0  0
   26.0013  -18.1093  -12.5778 O   0  0  0  0  0  0  0  0  0  0  0  0
   28.3165  -17.6138  -21.0290 C   0  0  0  0  0  0  0  0  0  0  0  0
   22.4795  -20.3405  -11.5974 C   0  0  2  0  0  0  0  0  0  0  0  0
   23.8122  -19.7149  -11.7566 N   0  0  0  0  0  0  0  0  0  0  0  0
   24.3095  -19.6275  -13.1010 C   0  0  0  0  0  0  0  0  0  0  0  0
   24.8198  -20.3621  -10.8473 O   0  0  0  0  0  0  0  0  0  0  0  0
   25.3793  -21.4569  -11.1548 C   0  0  0  0  0  0  0  0  0  0  0  0
   26.2001  -18.5432   -7.1318 C   0  0  2  0  0  0  0  0  0  0  0  0
   27.0085  -19.4502   -8.0120 C   0  0  0  0  0  0  0  0  0  0  0  0
   28.0849  -20.1385   -7.2209 C   0  0  1  0  0  0  0  0  0  0  0  0
   26.1012  -20.4849   -8.6695 N   0  0  0  0  0  0  0  0  0  0  0  0
   25.2098  -19.7990   -9.6035 C   0  0  0  0  0  0  0  0  0  0  0  0
   25.4188  -21.3431   -7.7133 O   0  0  0  0  0  0  0  0  0  0  0  0
   26.0233  -22.4463   -7.1169 O   0  0  0  0  0  0  0  0  0  0  0  0
  2  1  1  0
  2  3  2  0
  4  2  1  0
  5  4  1  0
  6  5  1  0
  7  6  1  0
  8 10  1  0
  8  7  1  0
  8  9  1  6
 10 11  2  0
 13 12  1  6
 14 10  1  0
 14 13  1  0
 15 21  1  0
 15 13  1  0
 16 15  2  0
 18 20  1  0
 18 17  1  6
 19 18  1  0
 20 22  1  0
 20 21  1  6
 22 23  1  0
 24 22  2  0
M  END
$$$$
