RAV.pdb
     RDKit          3D

 24 23  0  0  1  0  0  0  0  0999 V2000
   28.5792  -21.6286  -10.1328 N   0  0  0  0  0  0  0  0  0  0  0  0
   29.7054  -21.1005  -10.8450 C   0  0  0  0  0  0  0  0  0  0  0  0
   30.9059  -21.4918  -10.5552 N   0  0  0  0  0  0  0  0  0  0  0  0
   29.5626  -20.1356  -11.8780 N   0  0  0  0  0  0  0  0  0  0  0  0
   28.2842  -19.7186  -12.4084 C   0  0  0  0  0  0  0  0  0  0  0  0
   27.6160  -20.8089  -13.1930 C   0  0  0  0  0  0  0  0  0  0  0  0
   26.1340  -20.7629  -13.1637 C   0  0  0  0  0  0  0  0  0  0  0  0
   25.4625  -21.4098  -12.0039 C   0  0  2  0  0  0  0  0  0  0  0  0
   25.9212  -22.7238  -11.6617 N   0  0  0  0  0  0  0  0  0  0  0  0
   23.9863  -21.4034  -12.0429 C   0  0  0  0  0  0  0  0  0  0  0  0
   23.4048  -22.3165  -12.7000 O   0  0  0  0  0  0  0  0  0  0  0  0
   31.7348  -21.0151  -10.9382 C   0  0  0  0  0  0  0  0  0  0  0  0
   21.1393  -19.4535  -10.4550 C   0  0  2  0  0  0  0  0  0  0  0  0
   21.7954  -20.3620  -11.4230 N   0  0  0  0  0  0  0  0  0  0  0  0
   23.2297  -20.4091  -11.3688 C   0  0  0  0  0  0  0  0  0  0  0  0
   21.3147  -20.0916  -12.8218 O   0  0  0  0  0  0  0  0  0  0  0  0
   21.9675  -19.3460  -13.6117 C   0  0  0  0  0  0  0  0  0  0  0  0
   18.7881  -21.4556  -16.7625 C   0  0  2  0  0  0  0  0  0  0  0  0
   19.3314  -21.7018  -15.3858 C   0  0  0  0  0  0  0  0  0  0  0  0
   20.5656  -22.5569  -15.4460 C   0  0  1  0  0  0  0  0  0  0  0  0
   19.6486  -20.3746  -14.7044 N   0  0  0  0  0  0  0  0  0  0  0  0
   20.1176  -20.6466  -13.3466 C   0  0  0  0  0  0  0  0  0  0  0  0
   18.5586  -19.4140  -14.7786 O   0  0  0  0  0  0  0  0  0  0  0  0
   18.2972  -18.6484  -15.9117 O   0  0  0  0  0  0  0  0  0  0  0  0
  2  1  1  0
  2  3  2  0
  4  2  1  0
  5  4  1  0
  6  5  1  0
  7  6  1  0
  8 10  1  0
  8  7  1  0
  8  9  1  6
 10 11  2  0
 13 12  1  1
 14 10  1  0
 14 13  1  0
 15 21  1  0
 15 13  1  0
 16 15  2  0
 18 20  1  0
 18 17  1  1
 19 18  1  0
 20 22  1  0
 20 21  1  1
 22 23  1  0
 24 22  2  0
M  END
$$$$
