RAV.pdb
     RDKit          3D

 24 23  0  0  1  0  0  0  0  0999 V2000
   19.0383  -23.4342   -9.8356 N   0  0  0  0  0  0  0  0  0  0  0  0
   18.6337  -23.5200  -11.2079 C   0  0  0  0  0  0  0  0  0  0  0  0
   18.3697  -24.6702  -11.7423 N   0  0  0  0  0  0  0  0  0  0  0  0
   18.5123  -22.3707  -12.0342 N   0  0  0  0  0  0  0  0  0  0  0  0
   19.5767  -21.4119  -12.2280 C   0  0  0  0  0  0  0  0  0  0  0  0
   20.9323  -22.0315  -12.0566 C   0  0  0  0  0  0  0  0  0  0  0  0
   22.0628  -21.1273  -12.3786 C   0  0  0  0  0  0  0  0  0  0  0  0
   22.3914  -20.9456  -13.8185 C   0  0  2  0  0  0  0  0  0  0  0  0
   22.6039  -22.1453  -14.5733 N   0  0  0  0  0  0  0  0  0  0  0  0
   23.4813  -19.9909  -14.1035 C   0  0  0  0  0  0  0  0  0  0  0  0
   23.4459  -18.8604  -13.5337 O   0  0  0  0  0  0  0  0  0  0  0  0
   18.0818  -24.7527  -12.7279 C   0  0  0  0  0  0  0  0  0  0  0  0
   26.7938  -19.9921  -15.9600 C   0  0  2  0  0  0  0  0  0  0  0  0
   25.6209  -19.4111  -15.2675 N   0  0  0  0  0  0  0  0  0  0  0  0
   24.5427  -20.3175  -14.9880 C   0  0  0  0  0  0  0  0  0  0  0  0
   25.1267  -18.1867  -15.9868 O   0  0  0  0  0  0  0  0  0  0  0  0
   24.2449  -18.2646  -16.8937 C   0  0  0  0  0  0  0  0  0  0  0  0
   26.1205  -14.2116  -14.6829 C   0  0  2  0  0  0  0  0  0  0  0  0
   24.8454  -14.5981  -15.3726 C   0  0  0  0  0  0  0  0  0  0  0  0
   24.2204  -13.4066  -16.0419 C   0  0  1  0  0  0  0  0  0  0  0  0
   25.1182  -15.6910  -16.4009 N   0  0  0  0  0  0  0  0  0  0  0  0
   25.6036  -16.8799  -15.7020 C   0  0  0  0  0  0  0  0  0  0  0  0
   25.9699  -15.2522  -17.4956 O   0  0  0  0  0  0  0  0  0  0  0  0
   25.4755  -14.6383  -18.6432 O   0  0  0  0  0  0  0  0  0  0  0  0
  2  1  1  0
  2  3  2  0
  4  2  1  0
  5  4  1  0
  6  5  1  0
  7  6  1  0
  8 10  1  0
  8  7  1  0
  8  9  1  1
 10 11  2  0
 13 12  1  1
 14 10  1  0
 14 13  1  0
 15 21  1  0
 15 13  1  0
 16 15  2  0
 18 20  1  0
 18 17  1  1
 19 18  1  0
 20 22  1  0
 20 21  1  1
 22 23  1  0
 24 22  2  0
M  END
$$$$
