RAV.pdb
     RDKit          3D

 24 23  0  0  1  0  0  0  0  0999 V2000
   30.1981  -24.6791  -16.3412 N   0  0  0  0  0  0  0  0  0  0  0  0
   28.9196  -25.3238  -16.4050 C   0  0  0  0  0  0  0  0  0  0  0  0
   28.8085  -26.5864  -16.1369 N   0  0  0  0  0  0  0  0  0  0  0  0
   27.7367  -24.6244  -16.7656 N   0  0  0  0  0  0  0  0  0  0  0  0
   27.6415  -23.1824  -16.7982 C   0  0  0  0  0  0  0  0  0  0  0  0
   28.3911  -22.5418  -15.6674 C   0  0  0  0  0  0  0  0  0  0  0  0
   28.3053  -21.0615  -15.6380 C   0  0  0  0  0  0  0  0  0  0  0  0
   26.9739  -20.4695  -15.3357 C   0  0  2  0  0  0  0  0  0  0  0  0
   25.9080  -21.3993  -15.1041 N   0  0  0  0  0  0  0  0  0  0  0  0
   26.5161  -19.4275  -16.2765 C   0  0  0  0  0  0  0  0  0  0  0  0
   27.3361  -18.5196  -16.6035 O   0  0  0  0  0  0  0  0  0  0  0  0
   27.9012  -27.0708  -16.1924 C   0  0  0  0  0  0  0  0  0  0  0  0
   23.8632  -18.8752  -18.8120 C   0  0  2  0  0  0  0  0  0  0  0  0
   24.7227  -18.4122  -17.6986 N   0  0  0  0  0  0  0  0  0  0  0  0
   25.1986  -19.4313  -16.8057 C   0  0  0  0  0  0  0  0  0  0  0  0
   24.0621  -17.2938  -16.9414 O   0  0  0  0  0  0  0  0  0  0  0  0
   23.2421  -17.5256  -16.0033 C   0  0  0  0  0  0  0  0  0  0  0  0
   25.7576  -14.6196  -15.0958 C   0  0  2  0  0  0  0  0  0  0  0  0
   24.7941  -13.8900  -15.9850 C   0  0  0  0  0  0  0  0  0  0  0  0
   25.5058  -13.3005  -17.1700 C   0  0  2  0  0  0  0  0  0  0  0  0
   23.6958  -14.8384  -16.4545 N   0  0  0  0  0  0  0  0  0  0  0  0
   24.3098  -15.9233  -17.2184 C   0  0  0  0  0  0  0  0  0  0  0  0
   22.6079  -14.1630  -17.1448 O   0  0  0  0  0  0  0  0  0  0  0  0
   21.5522  -13.5469  -16.4783 O   0  0  0  0  0  0  0  0  0  0  0  0
  2  1  1  0
  2  3  2  0
  4  2  1  0
  5  4  1  0
  6  5  1  0
  7  6  1  0
  8 10  1  0
  8  7  1  0
  8  9  1  6
 10 11  2  0
 13 12  1  6
 14 10  1  0
 14 13  1  0
 15 21  1  0
 15 13  1  0
 16 15  2  0
 18 20  1  0
 18 17  1  1
 19 18  1  0
 20 22  1  0
 20 21  1  1
 22 23  1  0
 24 22  2  0
M  END
$$$$
