SER.pdb
     RDKit          3D

 27 26  0  0  1  0  0  0  0  0999 V2000
   16.9022  -22.9066   -8.9848 O   0  0  0  0  0  0  0  0  0  0  0  0
   16.4739  -24.1208   -9.5084 C   0  0  0  0  0  0  0  0  0  0  0  0
   17.6154  -25.1174   -9.5498 C   0  0  2  0  0  0  0  0  0  0  0  0
   18.2183  -25.1773   -8.2373 N   0  0  0  0  0  0  0  0  0  0  0  0
   18.6623  -24.7195  -10.5387 C   0  0  0  0  0  0  0  0  0  0  0  0
   19.8549  -25.1074  -10.4311 O   0  0  0  0  0  0  0  0  0  0  0  0
   18.3677  -23.8842  -11.6500 N   0  0  0  0  0  0  0  0  0  0  0  0
   19.3318  -23.6755  -12.7320 C   0  0  1  0  0  0  0  0  0  0  0  0
   18.5386  -23.5223  -13.9928 C   0  0  0  0  0  0  0  0  0  0  0  0
   18.0852  -24.7984  -14.5929 C   0  0  0  0  0  0  0  0  0  0  0  0
   17.3873  -24.6660  -15.8628 C   0  0  0  0  0  0  0  0  0  0  0  0
   16.9964  -25.7326  -16.4373 O   0  0  0  0  0  0  0  0  0  0  0  0
   20.1880  -22.4967  -12.4541 C   0  0  0  0  0  0  0  0  0  0  0  0
   19.6154  -21.4625  -12.0235 O   0  0  0  0  0  0  0  0  0  0  0  0
   17.1165  -23.4727  -16.4907 O   0  0  0  0  0  0  0  0  0  0  0  0
   28.6302  -21.7741  -10.7982 N   0  0  0  0  0  0  0  0  0  0  0  0
   28.3571  -20.6113  -11.5970 C   0  0  0  0  0  0  0  0  0  0  0  0
   29.3079  -20.0134  -12.2222 N   0  0  0  0  0  0  0  0  0  0  0  0
   27.0443  -20.0916  -11.7202 N   0  0  0  0  0  0  0  0  0  0  0  0
   25.8520  -20.8358  -11.3776 C   0  0  0  0  0  0  0  0  0  0  0  0
   24.8104  -20.5307  -12.4508 C   0  0  0  0  0  0  0  0  0  0  0  0
   23.8283  -21.6433  -12.6033 C   0  0  0  0  0  0  0  0  0  0  0  0
   22.3889  -21.2476  -12.4634 C   0  0  2  0  0  0  0  0  0  0  0  0
   21.5742  -22.4595  -12.6372 N   0  0  0  0  0  0  0  0  0  0  0  0
   21.9497  -20.1752  -13.3603 C   0  0  0  0  0  0  0  0  0  0  0  0
   21.7466  -18.8730  -12.9143 O   0  0  0  0  0  0  0  0  0  0  0  0
   21.7369  -20.3883  -14.5780 O   0  0  0  0  0  0  0  0  0  0  0  0
  2  1  1  0
  3  2  1  0
  3  4  1  1
  5  3  1  0
  5  6  2  0
  7  5  1  0
  8  7  1  0
  8  9  1  6
 10  9  1  0
 11 10  1  0
 12 11  2  0
 13  8  1  0
 14 13  2  0
 15 11  1  0
 16 17  1  0
 17 19  1  0
 17 18  2  0
 19 20  1  0
 20 21  1  0
 21 22  1  0
 23 24  1  0
 23 22  1  6
 24 13  1  0
 25 23  1  0
 26 25  1  0
 27 25  2  0
M  END
$$$$
