SER.pdb
     RDKit          3D

 27 26  0  0  1  0  0  0  0  0999 V2000
   16.0345  -10.8367  -17.0391 O   0  0  0  0  0  0  0  0  0  0  0  0
   16.5321  -10.7217  -15.7463 C   0  0  0  0  0  0  0  0  0  0  0  0
   18.0428  -10.5972  -15.7644 C   0  0  2  0  0  0  0  0  0  0  0  0
   18.6098  -11.9224  -15.8743 N   0  0  0  0  0  0  0  0  0  0  0  0
   18.5607   -9.9580  -14.5172 C   0  0  0  0  0  0  0  0  0  0  0  0
   18.4520  -10.5158  -13.3941 O   0  0  0  0  0  0  0  0  0  0  0  0
   19.2017   -8.6897  -14.5331 N   0  0  0  0  0  0  0  0  0  0  0  0
   19.6270   -8.0277  -13.2984 C   0  0  1  0  0  0  0  0  0  0  0  0
   20.6209   -6.9791  -13.6917 C   0  0  0  0  0  0  0  0  0  0  0  0
   21.1025   -6.1375  -12.5718 C   0  0  0  0  0  0  0  0  0  0  0  0
   22.0779   -5.1229  -12.9414 C   0  0  0  0  0  0  0  0  0  0  0  0
   21.9774   -3.9781  -12.3940 O   0  0  0  0  0  0  0  0  0  0  0  0
   18.4617   -7.4618  -12.5762 C   0  0  0  0  0  0  0  0  0  0  0  0
   17.6624   -6.7559  -13.2439 O   0  0  0  0  0  0  0  0  0  0  0  0
   23.1035   -5.3079  -13.8389 O   0  0  0  0  0  0  0  0  0  0  0  0
   11.4859  -10.4325   -8.5274 N   0  0  0  0  0  0  0  0  0  0  0  0
   11.6052   -9.0476   -8.1636 C   0  0  0  0  0  0  0  0  0  0  0  0
   10.6650   -8.4629   -7.5105 N   0  0  0  0  0  0  0  0  0  0  0  0
   12.7517   -8.2893   -8.5092 N   0  0  0  0  0  0  0  0  0  0  0  0
   13.8626   -8.8174   -9.2706 C   0  0  0  0  0  0  0  0  0  0  0  0
   14.8612   -7.6778   -9.4544 C   0  0  0  0  0  0  0  0  0  0  0  0
   16.0922   -8.1279  -10.1669 C   0  0  0  0  0  0  0  0  0  0  0  0
   17.0661   -7.0400  -10.5076 C   0  0  2  0  0  0  0  0  0  0  0  0
   18.1959   -7.6588  -11.2172 N   0  0  0  0  0  0  0  0  0  0  0  0
   17.5242   -6.2379   -9.3700 C   0  0  0  0  0  0  0  0  0  0  0  0
   16.7415   -5.2340   -8.8084 O   0  0  0  0  0  0  0  0  0  0  0  0
   18.6507   -6.4246   -8.8507 O   0  0  0  0  0  0  0  0  0  0  0  0
  2  1  1  0
  3  2  1  0
  3  4  1  1
  5  3  1  0
  5  6  2  0
  7  5  1  0
  8  7  1  0
  8  9  1  6
 10  9  1  0
 11 10  1  0
 12 11  2  0
 13  8  1  0
 14 13  2  0
 15 11  1  0
 16 17  1  0
 17 19  1  0
 17 18  2  0
 19 20  1  0
 20 21  1  0
 21 22  1  0
 23 24  1  0
 23 22  1  1
 24 13  1  0
 25 23  1  0
 26 25  1  0
 27 25  2  0
M  END
$$$$
