SER.pdb
     RDKit          3D

 27 26  0  0  1  0  0  0  0  0999 V2000
   17.9329  -12.7970  -16.3566 O   0  0  0  0  0  0  0  0  0  0  0  0
   18.4170  -12.0924  -15.2606 C   0  0  0  0  0  0  0  0  0  0  0  0
   17.7079  -10.7592  -15.1269 C   0  0  2  0  0  0  0  0  0  0  0  0
   18.0267   -9.9534  -16.2840 N   0  0  0  0  0  0  0  0  0  0  0  0
   18.1380  -10.0238  -13.8995 C   0  0  0  0  0  0  0  0  0  0  0  0
   17.9074  -10.4713  -12.7458 O   0  0  0  0  0  0  0  0  0  0  0  0
   18.8283   -8.7836  -13.9695 N   0  0  0  0  0  0  0  0  0  0  0  0
   19.3053   -8.1001  -12.7657 C   0  0  1  0  0  0  0  0  0  0  0  0
   20.3143   -7.0891  -13.2151 C   0  0  0  0  0  0  0  0  0  0  0  0
   20.9300   -6.3058  -12.1190 C   0  0  0  0  0  0  0  0  0  0  0  0
   21.9477   -5.3550  -12.5403 C   0  0  0  0  0  0  0  0  0  0  0  0
   23.1142   -5.4787  -12.0459 O   0  0  0  0  0  0  0  0  0  0  0  0
   18.1758   -7.4843  -12.0275 C   0  0  0  0  0  0  0  0  0  0  0  0
   17.3779   -6.7735  -12.6917 O   0  0  0  0  0  0  0  0  0  0  0  0
   21.7446   -4.3308  -13.4354 O   0  0  0  0  0  0  0  0  0  0  0  0
   11.1401  -10.0273   -8.0338 N   0  0  0  0  0  0  0  0  0  0  0  0
   11.3046   -8.6356   -7.7161 C   0  0  0  0  0  0  0  0  0  0  0  0
   10.3224   -7.9561   -7.2409 N   0  0  0  0  0  0  0  0  0  0  0  0
   12.5423   -7.9742   -7.9143 N   0  0  0  0  0  0  0  0  0  0  0  0
   13.7033   -8.6051   -8.5032 C   0  0  0  0  0  0  0  0  0  0  0  0
   14.8016   -7.5473   -8.5705 C   0  0  0  0  0  0  0  0  0  0  0  0
   16.0027   -8.0402   -9.3053 C   0  0  0  0  0  0  0  0  0  0  0  0
   16.8482   -6.9737   -9.9344 C   0  0  2  0  0  0  0  0  0  0  0  0
   17.9419   -7.6400  -10.6573 N   0  0  0  0  0  0  0  0  0  0  0  0
   17.3594   -5.9596   -9.0083 C   0  0  0  0  0  0  0  0  0  0  0  0
   18.7146   -5.8372   -8.7181 O   0  0  0  0  0  0  0  0  0  0  0  0
   16.5898   -5.1527   -8.4337 O   0  0  0  0  0  0  0  0  0  0  0  0
  2  1  1  0
  3  2  1  0
  3  4  1  6
  5  3  1  0
  5  6  2  0
  7  5  1  0
  8  7  1  0
  8  9  1  6
 10  9  1  0
 11 10  1  0
 12 11  2  0
 13  8  1  0
 14 13  2  0
 15 11  1  0
 16 17  1  0
 17 19  1  0
 17 18  2  0
 19 20  1  0
 20 21  1  0
 21 22  1  0
 23 24  1  0
 23 22  1  1
 24 13  1  0
 25 23  1  0
 26 25  1  0
 27 25  2  0
M  END
$$$$
