SER.pdb
     RDKit          3D

 27 26  0  0  1  0  0  0  0  0999 V2000
   26.7558  -21.0312  -10.3280 O   0  0  0  0  0  0  0  0  0  0  0  0
   26.7062  -22.0118  -11.3119 C   0  0  0  0  0  0  0  0  0  0  0  0
   26.4812  -21.3894  -12.6757 C   0  0  2  0  0  0  0  0  0  0  0  0
   27.5751  -20.4859  -12.9525 N   0  0  0  0  0  0  0  0  0  0  0  0
   25.2012  -20.6206  -12.7292 C   0  0  0  0  0  0  0  0  0  0  0  0
   25.1319  -19.4245  -12.3433 O   0  0  0  0  0  0  0  0  0  0  0  0
   23.9977  -21.1976  -13.2173 N   0  0  0  0  0  0  0  0  0  0  0  0
   22.7534  -20.4299  -13.2951 C   0  0  1  0  0  0  0  0  0  0  0  0
   22.8453  -19.5834  -14.5267 C   0  0  0  0  0  0  0  0  0  0  0  0
   22.7478  -20.3360  -15.7989 C   0  0  0  0  0  0  0  0  0  0  0  0
   22.8788  -19.5280  -17.0019 C   0  0  0  0  0  0  0  0  0  0  0  0
   22.8809  -20.1315  -18.1227 O   0  0  0  0  0  0  0  0  0  0  0  0
   21.5776  -21.3338  -13.3149 C   0  0  0  0  0  0  0  0  0  0  0  0
   21.7115  -22.4337  -13.9110 O   0  0  0  0  0  0  0  0  0  0  0  0
   22.9998  -18.1582  -17.0200 O   0  0  0  0  0  0  0  0  0  0  0  0
   15.2680  -23.4376   -9.6088 N   0  0  0  0  0  0  0  0  0  0  0  0
   16.0379  -24.6395   -9.7739 C   0  0  0  0  0  0  0  0  0  0  0  0
   15.4569  -25.7511  -10.0552 N   0  0  0  0  0  0  0  0  0  0  0  0
   17.4483  -24.6382   -9.6338 N   0  0  0  0  0  0  0  0  0  0  0  0
   18.2892  -23.5190   -9.9985 C   0  0  0  0  0  0  0  0  0  0  0  0
   17.4809  -22.6444  -10.9532 C   0  0  0  0  0  0  0  0  0  0  0  0
   18.3137  -21.5626  -11.5547 C   0  0  0  0  0  0  0  0  0  0  0  0
   19.2251  -21.9999  -12.6621 C   0  0  2  0  0  0  0  0  0  0  0  0
   20.3439  -21.0473  -12.7215 N   0  0  0  0  0  0  0  0  0  0  0  0
   18.5833  -22.1530  -13.9706 C   0  0  0  0  0  0  0  0  0  0  0  0
   17.9393  -23.3274  -14.3471 O   0  0  0  0  0  0  0  0  0  0  0  0
   18.5878  -21.2234  -14.8129 O   0  0  0  0  0  0  0  0  0  0  0  0
  2  1  1  0
  3  2  1  0
  3  4  1  1
  5  3  1  0
  5  6  2  0
  7  5  1  0
  8  7  1  0
  8  9  1  6
 10  9  1  0
 11 10  1  0
 12 11  2  0
 13  8  1  0
 14 13  2  0
 15 11  1  0
 16 17  1  0
 17 19  1  0
 17 18  2  0
 19 20  1  0
 20 21  1  0
 21 22  1  0
 23 24  1  0
 23 22  1  1
 24 13  1  0
 25 23  1  0
 26 25  1  0
 27 25  2  0
M  END
$$$$
