SER.pdb
     RDKit          3D

 27 26  0  0  1  0  0  0  0  0999 V2000
   17.1154  -11.9339  -17.4324 O   0  0  0  0  0  0  0  0  0  0  0  0
   17.1957  -11.4791  -16.1213 C   0  0  0  0  0  0  0  0  0  0  0  0
   18.6424  -11.2985  -15.7062 C   0  0  2  0  0  0  0  0  0  0  0  0
   19.2010  -12.5997  -15.4155 N   0  0  0  0  0  0  0  0  0  0  0  0
   18.7662  -10.4424  -14.4879 C   0  0  0  0  0  0  0  0  0  0  0  0
   18.3813  -10.8412  -13.3578 O   0  0  0  0  0  0  0  0  0  0  0  0
   19.3234   -9.1362  -14.5406 N   0  0  0  0  0  0  0  0  0  0  0  0
   19.4284   -8.2963  -13.3459 C   0  0  1  0  0  0  0  0  0  0  0  0
   20.3665   -7.1796  -13.6849 C   0  0  0  0  0  0  0  0  0  0  0  0
   20.6031   -6.2191  -12.5823 C   0  0  0  0  0  0  0  0  0  0  0  0
   21.5479   -5.1552  -12.8869 C   0  0  0  0  0  0  0  0  0  0  0  0
   22.6999   -5.2147  -12.3485 O   0  0  0  0  0  0  0  0  0  0  0  0
   18.0923   -7.8069  -12.9274 C   0  0  0  0  0  0  0  0  0  0  0  0
   17.3270   -7.3873  -13.8336 O   0  0  0  0  0  0  0  0  0  0  0  0
   21.2903   -4.0880  -13.7152 O   0  0  0  0  0  0  0  0  0  0  0  0
   14.0287   -5.6320   -6.3868 N   0  0  0  0  0  0  0  0  0  0  0  0
   12.8865   -6.4312   -6.7353 C   0  0  0  0  0  0  0  0  0  0  0  0
   11.7312   -6.1673   -6.2373 N   0  0  0  0  0  0  0  0  0  0  0  0
   12.9957   -7.5248   -7.6302 N   0  0  0  0  0  0  0  0  0  0  0  0
   14.2580   -8.0724   -8.0768 C   0  0  0  0  0  0  0  0  0  0  0  0
   14.6473   -7.3211   -9.3471 C   0  0  0  0  0  0  0  0  0  0  0  0
   15.9240   -7.8324   -9.9252 C   0  0  0  0  0  0  0  0  0  0  0  0
   16.3603   -7.1679  -11.1964 C   0  0  2  0  0  0  0  0  0  0  0  0
   17.6323   -7.7813  -11.6067 N   0  0  0  0  0  0  0  0  0  0  0  0
   16.4681   -5.7080  -11.1287 C   0  0  0  0  0  0  0  0  0  0  0  0
   17.6433   -5.0689  -10.7464 O   0  0  0  0  0  0  0  0  0  0  0  0
   15.4970   -4.9674  -11.4152 O   0  0  0  0  0  0  0  0  0  0  0  0
  2  1  1  0
  3  2  1  0
  3  4  1  1
  5  3  1  0
  5  6  2  0
  7  5  1  0
  8  7  1  0
  8  9  1  6
 10  9  1  0
 11 10  1  0
 12 11  2  0
 13  8  1  0
 14 13  2  0
 15 11  1  0
 16 17  1  0
 17 19  1  0
 17 18  2  0
 19 20  1  0
 20 21  1  0
 21 22  1  0
 23 24  1  0
 23 22  1  1
 24 13  1  0
 25 23  1  0
 26 25  1  0
 27 25  2  0
M  END
$$$$
