SER.pdb
     RDKit          3D

 27 26  0  0  1  0  0  0  0  0999 V2000
   27.0523  -18.4171   -7.6387 O   0  0  0  0  0  0  0  0  0  0  0  0
   26.0833  -18.8793   -8.5216 C   0  0  0  0  0  0  0  0  0  0  0  0
   25.8100  -20.3525   -8.2916 C   0  0  2  0  0  0  0  0  0  0  0  0
   27.0395  -21.0838   -8.4991 N   0  0  0  0  0  0  0  0  0  0  0  0
   24.7768  -20.8778   -9.2344 C   0  0  0  0  0  0  0  0  0  0  0  0
   25.0862  -21.5944  -10.2219 O   0  0  0  0  0  0  0  0  0  0  0  0
   23.3939  -20.5969   -9.0664 N   0  0  0  0  0  0  0  0  0  0  0  0
   22.3834  -21.1370   -9.9780 C   0  0  1  0  0  0  0  0  0  0  0  0
   21.0693  -21.0497   -9.2655 C   0  0  0  0  0  0  0  0  0  0  0  0
   20.7776  -22.1939   -8.3711 C   0  0  0  0  0  0  0  0  0  0  0  0
   19.5453  -22.0769   -7.6062 C   0  0  0  0  0  0  0  0  0  0  0  0
   19.2755  -23.0012   -6.7736 O   0  0  0  0  0  0  0  0  0  0  0  0
   22.3823  -20.3948  -11.2621 C   0  0  0  0  0  0  0  0  0  0  0  0
   22.5244  -19.1462  -11.2014 O   0  0  0  0  0  0  0  0  0  0  0  0
   18.6482  -21.0401   -7.7142 O   0  0  0  0  0  0  0  0  0  0  0  0
   27.2142  -21.4305  -15.8427 N   0  0  0  0  0  0  0  0  0  0  0  0
   26.8266  -20.6645  -16.9949 C   0  0  0  0  0  0  0  0  0  0  0  0
   27.6927  -19.9543  -17.6257 N   0  0  0  0  0  0  0  0  0  0  0  0
   25.4907  -20.6674  -17.4685 N   0  0  0  0  0  0  0  0  0  0  0  0
   24.4295  -21.4472  -16.8697 C   0  0  0  0  0  0  0  0  0  0  0  0
   23.6123  -20.4965  -15.9989 C   0  0  0  0  0  0  0  0  0  0  0  0
   23.2784  -21.1028  -14.6774 C   0  0  0  0  0  0  0  0  0  0  0  0
   22.4130  -20.2602  -13.7890 C   0  0  2  0  0  0  0  0  0  0  0  0
   22.2354  -20.9848  -12.5217 N   0  0  0  0  0  0  0  0  0  0  0  0
   21.1241  -19.8699  -14.3668 C   0  0  0  0  0  0  0  0  0  0  0  0
   21.0214  -18.9099  -15.3686 O   0  0  0  0  0  0  0  0  0  0  0  0
   20.0503  -20.3897  -13.9789 O   0  0  0  0  0  0  0  0  0  0  0  0
  2  1  1  0
  3  2  1  0
  3  4  1  6
  5  3  1  0
  5  6  2  0
  7  5  1  0
  8  7  1  0
  8  9  1  1
 10  9  1  0
 11 10  1  0
 12 11  2  0
 13  8  1  0
 14 13  2  0
 15 11  1  0
 16 17  1  0
 17 19  1  0
 17 18  2  0
 19 20  1  0
 20 21  1  0
 21 22  1  0
 23 24  1  0
 23 22  1  6
 24 13  1  0
 25 23  1  0
 26 25  1  0
 27 25  2  0
M  END
$$$$
