SER.pdb
     RDKit          3D

 27 26  0  0  1  0  0  0  0  0999 V2000
   19.5372  -15.2713  -14.4175 O   0  0  0  0  0  0  0  0  0  0  0  0
   19.7406  -14.0123  -14.9702 C   0  0  0  0  0  0  0  0  0  0  0  0
   18.8782  -13.8241  -16.2026 C   0  0  2  0  0  0  0  0  0  0  0  0
   19.3485  -14.7235  -17.2319 N   0  0  0  0  0  0  0  0  0  0  0  0
   18.9511  -12.4247  -16.7212 C   0  0  0  0  0  0  0  0  0  0  0  0
   19.6565  -12.1257  -17.7198 O   0  0  0  0  0  0  0  0  0  0  0  0
   18.2300  -11.3603  -16.1158 N   0  0  0  0  0  0  0  0  0  0  0  0
   18.3714   -9.9771  -16.5745 C   0  0  1  0  0  0  0  0  0  0  0  0
   17.0750   -9.2895  -16.2771 C   0  0  0  0  0  0  0  0  0  0  0  0
   15.9046   -9.8470  -16.9937 C   0  0  0  0  0  0  0  0  0  0  0  0
   14.6371   -9.1959  -16.6996 C   0  0  0  0  0  0  0  0  0  0  0  0
   14.2433   -8.2815  -17.4929 O   0  0  0  0  0  0  0  0  0  0  0  0
   19.5261   -9.3195  -15.9157 C   0  0  0  0  0  0  0  0  0  0  0  0
   19.8148   -9.7014  -14.7522 O   0  0  0  0  0  0  0  0  0  0  0  0
   13.8295   -9.4949  -15.6272 O   0  0  0  0  0  0  0  0  0  0  0  0
   26.8238   -6.1504  -19.4747 N   0  0  0  0  0  0  0  0  0  0  0  0
   26.5511   -7.2892  -18.6419 C   0  0  0  0  0  0  0  0  0  0  0  0
   27.3301   -8.3115  -18.6619 N   0  0  0  0  0  0  0  0  0  0  0  0
   25.4262   -7.3216  -17.7804 N   0  0  0  0  0  0  0  0  0  0  0  0
   24.5854   -6.1745  -17.5159 C   0  0  0  0  0  0  0  0  0  0  0  0
   23.6446   -6.5619  -16.3781 C   0  0  0  0  0  0  0  0  0  0  0  0
   22.4082   -7.2270  -16.8825 C   0  0  0  0  0  0  0  0  0  0  0  0
   21.4460   -7.6733  -15.8227 C   0  0  2  0  0  0  0  0  0  0  0  0
   20.3063   -8.3140  -16.4960 N   0  0  0  0  0  0  0  0  0  0  0  0
   21.0017   -6.6212  -14.9045 C   0  0  0  0  0  0  0  0  0  0  0  0
   21.6664   -6.3483  -13.7131 O   0  0  0  0  0  0  0  0  0  0  0  0
   19.9949   -5.9166  -15.1567 O   0  0  0  0  0  0  0  0  0  0  0  0
  2  1  1  0
  3  2  1  0
  3  4  1  6
  5  3  1  0
  5  6  2  0
  7  5  1  0
  8  7  1  0
  8  9  1  1
 10  9  1  0
 11 10  1  0
 12 11  2  0
 13  8  1  0
 14 13  2  0
 15 11  1  0
 16 17  1  0
 17 19  1  0
 17 18  2  0
 19 20  1  0
 20 21  1  0
 21 22  1  0
 23 24  1  0
 23 22  1  6
 24 13  1  0
 25 23  1  0
 26 25  1  0
 27 25  2  0
M  END
$$$$
