SER.pdb
     RDKit          3D

 27 26  0  0  1  0  0  0  0  0999 V2000
   21.5756  -15.4150  -16.4266 O   0  0  0  0  0  0  0  0  0  0  0  0
   22.3058  -16.4112  -15.7891 C   0  0  0  0  0  0  0  0  0  0  0  0
   22.5953  -17.5542  -16.7420 C   0  0  2  0  0  0  0  0  0  0  0  0
   21.3597  -17.9351  -17.3883 N   0  0  0  0  0  0  0  0  0  0  0  0
   23.1474  -18.7445  -16.0274 C   0  0  0  0  0  0  0  0  0  0  0  0
   22.4406  -19.4330  -15.2459 O   0  0  0  0  0  0  0  0  0  0  0  0
   24.4961  -19.1610  -16.1918 N   0  0  0  0  0  0  0  0  0  0  0  0
   25.0430  -20.3035  -15.4574 C   0  0  1  0  0  0  0  0  0  0  0  0
   26.2404  -20.7750  -16.2228 C   0  0  0  0  0  0  0  0  0  0  0  0
   27.0151  -21.8459  -15.5541 C   0  0  0  0  0  0  0  0  0  0  0  0
   28.1896  -22.3007  -16.2828 C   0  0  0  0  0  0  0  0  0  0  0  0
   28.4529  -21.7359  -17.3927 O   0  0  0  0  0  0  0  0  0  0  0  0
   25.3754  -19.9226  -14.0630 C   0  0  0  0  0  0  0  0  0  0  0  0
   25.9706  -18.8268  -13.8956 O   0  0  0  0  0  0  0  0  0  0  0  0
   29.0396  -23.2965  -15.8616 O   0  0  0  0  0  0  0  0  0  0  0  0
   21.0681  -21.9019   -6.9122 N   0  0  0  0  0  0  0  0  0  0  0  0
   21.0962  -21.0930   -8.0994 C   0  0  0  0  0  0  0  0  0  0  0  0
   20.0048  -20.6351   -8.6009 N   0  0  0  0  0  0  0  0  0  0  0  0
   22.3156  -20.7769   -8.7490 N   0  0  0  0  0  0  0  0  0  0  0  0
   23.6076  -21.2520   -8.3042 C   0  0  0  0  0  0  0  0  0  0  0  0
   24.6583  -20.5845   -9.1875 C   0  0  0  0  0  0  0  0  0  0  0  0
   24.4089  -20.8396  -10.6360 C   0  0  0  0  0  0  0  0  0  0  0  0
   25.4660  -20.3242  -11.5660 C   0  0  2  0  0  0  0  0  0  0  0  0
   25.0743  -20.6926  -12.9348 N   0  0  0  0  0  0  0  0  0  0  0  0
   26.8296  -20.7672  -11.2628 C   0  0  0  0  0  0  0  0  0  0  0  0
   27.5958  -20.1755  -10.2635 O   0  0  0  0  0  0  0  0  0  0  0  0
   27.3673  -21.7064  -11.8970 O   0  0  0  0  0  0  0  0  0  0  0  0
  2  1  1  0
  3  2  1  0
  3  4  1  1
  5  3  1  0
  5  6  2  0
  7  5  1  0
  8  7  1  0
  8  9  1  6
 10  9  1  0
 11 10  1  0
 12 11  2  0
 13  8  1  0
 14 13  2  0
 15 11  1  0
 16 17  1  0
 17 19  1  0
 17 18  2  0
 19 20  1  0
 20 21  1  0
 21 22  1  0
 23 24  1  0
 23 22  1  1
 24 13  1  0
 25 23  1  0
 26 25  1  0
 27 25  2  0
M  END
$$$$
