SIY.pdb
     RDKit          3D

 27 27  0  0  1  0  0  0  0  0999 V2000
    6.9225  -18.0157   21.5602 O   0  0  0  0  0  0  0  0  0  0  0  0
    7.2364  -17.5755   20.2745 C   0  0  0  0  0  0  0  0  0  0  0  0
    6.9252  -16.0900   20.2414 C   0  0  2  0  0  0  0  0  0  0  0  0
    7.1682  -15.6239   18.9198 N   0  0  0  0  0  0  0  0  0  0  0  0
    7.7642  -15.4532   21.2742 C   0  0  0  0  0  0  0  0  0  0  0  0
    9.0013  -15.3702   21.0589 O   0  0  0  0  0  0  0  0  0  0  0  0
    7.2088  -11.8862   26.4175 C   0  0  0  0  0  0  0  0  0  0  0  0
    8.0079  -12.6760   25.4485 C   0  0  0  0  0  0  0  0  0  0  0  0
    7.2530  -13.5325   24.4872 C   0  0  2  0  0  0  0  0  0  0  0  0
    6.4223  -14.5041   25.3382 C   0  0  0  0  0  0  0  0  0  0  0  0
    8.1047  -14.3007   23.5099 C   0  0  2  0  0  0  0  0  0  0  0  0
    7.2756  -14.9271   22.4939 N   0  0  0  0  0  0  0  0  0  0  0  0
    9.0347  -15.2077   24.1812 C   0  0  0  0  0  0  0  0  0  0  0  0
    8.6750  -16.4132   24.4167 O   0  0  0  0  0  0  0  0  0  0  0  0
   10.7176  -14.7090   31.6287 O   0  0  0  0  0  0  0  0  0  0  0  0
   10.6566  -15.1908   30.3192 C   0  0  0  0  0  0  0  0  0  0  0  0
   10.2176  -14.3948   29.2822 C   0  0  0  0  0  0  0  0  0  0  0  0
   10.1541  -14.8627   27.9855 C   0  0  0  0  0  0  0  0  0  0  0  0
   10.5312  -16.1584   27.6743 C   0  0  0  0  0  0  0  0  0  0  0  0
   10.4522  -16.6333   26.2994 C   0  0  0  0  0  0  0  0  0  0  0  0
   11.2192  -15.8015   25.2893 C   0  0  2  0  0  0  0  0  0  0  0  0
   10.3355  -14.8751   24.6071 N   0  0  0  0  0  0  0  0  0  0  0  0
   11.8962  -16.6240   24.2818 C   0  0  0  0  0  0  0  0  0  0  0  0
   11.2253  -17.0315   23.1494 O   0  0  0  0  0  0  0  0  0  0  0  0
   10.9763  -16.9715   28.7137 C   0  0  0  0  0  0  0  0  0  0  0  0
   11.0261  -16.4761   29.9831 C   0  0  0  0  0  0  0  0  0  0  0  0
   13.0919  -16.9680   24.4366 O   0  0  0  0  0  0  0  0  0  0  0  0
  2  1  1  0
  3  2  1  0
  3  4  1  6
  5  6  2  0
  5  3  1  0
  7  8  1  0
  9  8  1  0
  9 10  1  1
 11  9  1  0
 11 12  1  6
 12  5  1  0
 13 11  1  0
 14 13  2  0
 16 17  2  0
 16 15  1  0
 18 17  1  0
 19 18  2  0
 21 20  1  1
 20 19  1  0
 21 22  1  0
 22 13  1  0
 23 21  1  0
 23 24  1  0
 25 19  1  0
 25 26  2  0
 26 16  1  0
 27 23  2  0
M  END
$$$$
