SIY.pdb
     RDKit          3D

 27 27  0  0  1  0  0  0  0  0999 V2000
    7.5171  -18.5551   25.8919 O   0  0  0  0  0  0  0  0  0  0  0  0
    6.8835  -19.0579   24.7557 C   0  0  0  0  0  0  0  0  0  0  0  0
    5.9235  -17.9792   24.2868 C   0  0  2  0  0  0  0  0  0  0  0  0
    5.3086  -18.4352   23.0882 N   0  0  0  0  0  0  0  0  0  0  0  0
    6.7115  -16.7417   24.1327 C   0  0  0  0  0  0  0  0  0  0  0  0
    7.4035  -16.6104   23.0899 O   0  0  0  0  0  0  0  0  0  0  0  0
    5.0764  -12.3149   26.8096 C   0  0  0  0  0  0  0  0  0  0  0  0
    5.7393  -13.0362   25.6955 C   0  0  0  0  0  0  0  0  0  0  0  0
    7.1624  -13.4369   25.9000 C   0  0  2  0  0  0  0  0  0  0  0  0
    8.0025  -12.1729   25.6664 C   0  0  0  0  0  0  0  0  0  0  0  0
    7.6476  -14.5512   25.0089 C   0  0  2  0  0  0  0  0  0  0  0  0
    6.7447  -15.6880   25.0771 N   0  0  0  0  0  0  0  0  0  0  0  0
    9.0537  -14.8752   25.2453 C   0  0  0  0  0  0  0  0  0  0  0  0
    9.6600  -14.3476   26.2414 O   0  0  0  0  0  0  0  0  0  0  0  0
   10.7992  -15.2403   31.1559 O   0  0  0  0  0  0  0  0  0  0  0  0
   10.9275  -15.6919   29.8406 C   0  0  0  0  0  0  0  0  0  0  0  0
   11.1329  -17.0258   29.5574 C   0  0  0  0  0  0  0  0  0  0  0  0
   11.2608  -17.4805   28.2608 C   0  0  0  0  0  0  0  0  0  0  0  0
   11.1875  -16.6086   27.1874 C   0  0  0  0  0  0  0  0  0  0  0  0
   11.3294  -17.1094   25.8268 C   0  0  0  0  0  0  0  0  0  0  0  0
   11.2232  -16.0550   24.7417 C   0  0  2  0  0  0  0  0  0  0  0  0
    9.8348  -15.7445   24.4588 N   0  0  0  0  0  0  0  0  0  0  0  0
   11.8703  -16.4670   23.4921 C   0  0  0  0  0  0  0  0  0  0  0  0
   13.2257  -16.7123   23.4571 O   0  0  0  0  0  0  0  0  0  0  0  0
   10.9802  -15.2589   27.4614 C   0  0  0  0  0  0  0  0  0  0  0  0
   10.8582  -14.8447   28.7547 C   0  0  0  0  0  0  0  0  0  0  0  0
   11.2012  -16.6007   22.4402 O   0  0  0  0  0  0  0  0  0  0  0  0
  2  1  1  0
  3  2  1  0
  3  4  1  6
  5  6  2  0
  5  3  1  0
  7  8  1  0
  9  8  1  0
  9 10  1  6
 11  9  1  0
 11 12  1  1
 12  5  1  0
 13 11  1  0
 14 13  2  0
 16 17  2  0
 16 15  1  0
 18 17  1  0
 19 18  2  0
 21 20  1  1
 20 19  1  0
 21 22  1  0
 22 13  1  0
 23 21  1  0
 23 24  1  0
 25 19  1  0
 25 26  2  0
 26 16  1  0
 27 23  2  0
M  END
$$$$
