SIY.pdb
     RDKit          3D

 27 27  0  0  1  0  0  0  0  0999 V2000
    7.8988  -19.0342   22.7872 O   0  0  0  0  0  0  0  0  0  0  0  0
    6.8969  -19.6806   22.0637 C   0  0  0  0  0  0  0  0  0  0  0  0
    6.5377  -18.7600   20.9111 C   0  0  2  0  0  0  0  0  0  0  0  0
    6.4115  -19.5576   19.7403 N   0  0  0  0  0  0  0  0  0  0  0  0
    7.5950  -17.7341   20.8365 C   0  0  0  0  0  0  0  0  0  0  0  0
    8.6634  -18.0320   20.2419 O   0  0  0  0  0  0  0  0  0  0  0  0
    6.8363  -12.7136   19.1975 C   0  0  0  0  0  0  0  0  0  0  0  0
    7.3952  -14.0227   19.6160 C   0  0  0  0  0  0  0  0  0  0  0  0
    8.0102  -14.0934   20.9741 C   0  0  2  0  0  0  0  0  0  0  0  0
    9.1339  -13.0469   20.9919 C   0  0  0  0  0  0  0  0  0  0  0  0
    8.5565  -15.4440   21.3593 C   0  0  2  0  0  0  0  0  0  0  0  0
    7.4934  -16.4344   21.3877 N   0  0  0  0  0  0  0  0  0  0  0  0
    9.3673  -15.3859   22.5748 C   0  0  0  0  0  0  0  0  0  0  0  0
    8.8709  -14.8700   23.6357 O   0  0  0  0  0  0  0  0  0  0  0  0
    8.8509  -14.2227   29.6327 O   0  0  0  0  0  0  0  0  0  0  0  0
    9.3166  -14.8673   28.4846 C   0  0  0  0  0  0  0  0  0  0  0  0
    9.0450  -14.3744   27.2256 C   0  0  0  0  0  0  0  0  0  0  0  0
    9.5011  -15.0048   26.0860 C   0  0  0  0  0  0  0  0  0  0  0  0
   10.2540  -16.1645   26.1638 C   0  0  0  0  0  0  0  0  0  0  0  0
   10.7220  -16.8162   24.9478 C   0  0  0  0  0  0  0  0  0  0  0  0
   11.4123  -15.9004   23.9552 C   0  0  2  0  0  0  0  0  0  0  0  0
   10.6873  -15.8615   22.6993 N   0  0  0  0  0  0  0  0  0  0  0  0
   12.7938  -16.3080   23.6809 C   0  0  0  0  0  0  0  0  0  0  0  0
   13.7913  -16.0499   24.5957 O   0  0  0  0  0  0  0  0  0  0  0  0
   10.5347  -16.6716   27.4302 C   0  0  0  0  0  0  0  0  0  0  0  0
   10.0679  -16.0225   28.5348 C   0  0  0  0  0  0  0  0  0  0  0  0
   13.0864  -16.8948   22.6122 O   0  0  0  0  0  0  0  0  0  0  0  0
  2  1  1  0
  3  2  1  0
  3  4  1  6
  5  6  2  0
  5  3  1  0
  7  8  1  0
  9  8  1  0
  9 10  1  6
 11  9  1  0
 11 12  1  1
 12  5  1  0
 13 11  1  0
 14 13  2  0
 16 17  2  0
 16 15  1  0
 18 17  1  0
 19 18  2  0
 21 20  1  1
 20 19  1  0
 21 22  1  0
 22 13  1  0
 23 21  1  0
 23 24  1  0
 25 19  1  0
 25 26  2  0
 26 16  1  0
 27 23  2  0
M  END
$$$$
