SIY.pdb
     RDKit          3D

 27 27  0  0  1  0  0  0  0  0999 V2000
    8.8940  -20.1700   21.1463 O   0  0  0  0  0  0  0  0  0  0  0  0
    7.8217  -19.6543   20.4187 C   0  0  0  0  0  0  0  0  0  0  0  0
    8.4102  -18.6618   19.4320 C   0  0  2  0  0  0  0  0  0  0  0  0
    9.4292  -19.3298   18.6984 N   0  0  0  0  0  0  0  0  0  0  0  0
    8.8846  -17.5067   20.2174 C   0  0  0  0  0  0  0  0  0  0  0  0
   10.1115  -17.4445   20.4903 O   0  0  0  0  0  0  0  0  0  0  0  0
    6.8324  -12.4516   19.6507 C   0  0  0  0  0  0  0  0  0  0  0  0
    7.7141  -13.6074   19.9471 C   0  0  0  0  0  0  0  0  0  0  0  0
    7.6791  -14.1465   21.3384 C   0  0  2  0  0  0  0  0  0  0  0  0
    8.1759  -13.0151   22.2502 C   0  0  0  0  0  0  0  0  0  0  0  0
    8.5008  -15.3894   21.5636 C   0  0  2  0  0  0  0  0  0  0  0  0
    8.0558  -16.4602   20.6875 N   0  0  0  0  0  0  0  0  0  0  0  0
    8.5779  -15.7522   22.9780 C   0  0  0  0  0  0  0  0  0  0  0  0
    7.6571  -16.4787   23.4902 O   0  0  0  0  0  0  0  0  0  0  0  0
    5.8944  -10.6580   26.5979 O   0  0  0  0  0  0  0  0  0  0  0  0
    6.4603  -11.9210   26.4110 C   0  0  0  0  0  0  0  0  0  0  0  0
    7.8165  -12.1271   26.5528 C   0  0  0  0  0  0  0  0  0  0  0  0
    8.3840  -13.3716   26.3700 C   0  0  0  0  0  0  0  0  0  0  0  0
    7.6078  -14.4684   26.0348 C   0  0  0  0  0  0  0  0  0  0  0  0
    8.2280  -15.7725   25.8424 C   0  0  0  0  0  0  0  0  0  0  0  0
    9.6312  -15.7360   25.2677 C   0  0  2  0  0  0  0  0  0  0  0  0
    9.6040  -15.3702   23.8642 N   0  0  0  0  0  0  0  0  0  0  0  0
   10.3261  -17.0204   25.3990 C   0  0  0  0  0  0  0  0  0  0  0  0
   10.5300  -17.5787   26.6421 O   0  0  0  0  0  0  0  0  0  0  0  0
    6.2367  -14.2723   25.8891 C   0  0  0  0  0  0  0  0  0  0  0  0
    5.7099  -13.0288   26.0772 C   0  0  0  0  0  0  0  0  0  0  0  0
   10.7444  -17.6269   24.3845 O   0  0  0  0  0  0  0  0  0  0  0  0
  2  1  1  0
  3  2  1  0
  3  4  1  1
  5  6  2  0
  5  3  1  0
  7  8  1  0
  9  8  1  0
  9 10  1  1
 11  9  1  0
 11 12  1  6
 12  5  1  0
 13 11  1  0
 14 13  2  0
 16 17  2  0
 16 15  1  0
 18 17  1  0
 19 18  2  0
 21 20  1  6
 20 19  1  0
 21 22  1  0
 22 13  1  0
 23 21  1  0
 23 24  1  0
 25 19  1  0
 25 26  2  0
 26 16  1  0
 27 23  2  0
M  END
$$$$
