SIY.pdb
     RDKit          3D

 27 27  0  0  1  0  0  0  0  0999 V2000
    7.9364  -20.6325   19.7441 O   0  0  0  0  0  0  0  0  0  0  0  0
    8.7277  -19.7175   20.4383 C   0  0  0  0  0  0  0  0  0  0  0  0
    8.9902  -18.5662   19.4841 C   0  0  2  0  0  0  0  0  0  0  0  0
   10.0080  -18.9751   18.5787 N   0  0  0  0  0  0  0  0  0  0  0  0
    9.3459  -17.3972   20.3105 C   0  0  0  0  0  0  0  0  0  0  0  0
   10.5125  -17.3404   20.7789 O   0  0  0  0  0  0  0  0  0  0  0  0
    7.2185  -12.3698   19.4689 C   0  0  0  0  0  0  0  0  0  0  0  0
    8.1186  -13.4795   19.8685 C   0  0  0  0  0  0  0  0  0  0  0  0
    7.9343  -14.0408   21.2391 C   0  0  2  0  0  0  0  0  0  0  0  0
    8.2768  -12.9075   22.2171 C   0  0  0  0  0  0  0  0  0  0  0  0
    8.7660  -15.2587   21.5486 C   0  0  2  0  0  0  0  0  0  0  0  0
    8.4659  -16.3314   20.6151 N   0  0  0  0  0  0  0  0  0  0  0  0
    8.6865  -15.6383   22.9585 C   0  0  0  0  0  0  0  0  0  0  0  0
    7.6470  -16.2508   23.3854 O   0  0  0  0  0  0  0  0  0  0  0  0
    5.7723  -10.8281   26.8810 O   0  0  0  0  0  0  0  0  0  0  0  0
    6.3390  -12.0730   26.5984 C   0  0  0  0  0  0  0  0  0  0  0  0
    7.6929  -12.2932   26.7402 C   0  0  0  0  0  0  0  0  0  0  0  0
    8.2611  -13.5198   26.4632 C   0  0  0  0  0  0  0  0  0  0  0  0
    7.4879  -14.5836   26.0292 C   0  0  0  0  0  0  0  0  0  0  0  0
    8.1089  -15.8689   25.7384 C   0  0  0  0  0  0  0  0  0  0  0  0
    9.5638  -15.7965   25.3160 C   0  0  2  0  0  0  0  0  0  0  0  0
    9.6780  -15.3907   23.9280 N   0  0  0  0  0  0  0  0  0  0  0  0
   10.2625  -17.0745   25.4846 C   0  0  0  0  0  0  0  0  0  0  0  0
   10.3878  -17.6408   26.7345 O   0  0  0  0  0  0  0  0  0  0  0  0
    6.1191  -14.3729   25.8824 C   0  0  0  0  0  0  0  0  0  0  0  0
    5.5916  -13.1478   26.1652 C   0  0  0  0  0  0  0  0  0  0  0  0
   10.7553  -17.6683   24.4964 O   0  0  0  0  0  0  0  0  0  0  0  0
  2  1  1  0
  3  2  1  0
  3  4  1  6
  5  6  2  0
  5  3  1  0
  7  8  1  0
  9  8  1  0
  9 10  1  1
 11  9  1  0
 11 12  1  6
 12  5  1  0
 13 11  1  0
 14 13  2  0
 16 17  2  0
 16 15  1  0
 18 17  1  0
 19 18  2  0
 21 20  1  6
 20 19  1  0
 21 22  1  0
 22 13  1  0
 23 21  1  0
 23 24  1  0
 25 19  1  0
 25 26  2  0
 26 16  1  0
 27 23  2  0
M  END
$$$$
