SIY.pdb
     RDKit          3D

 27 27  0  0  1  0  0  0  0  0999 V2000
    7.4120  -18.1121   24.6623 O   0  0  0  0  0  0  0  0  0  0  0  0
    6.2319  -18.6721   24.1735 C   0  0  0  0  0  0  0  0  0  0  0  0
    6.2667  -18.4983   22.6657 C   0  0  2  0  0  0  0  0  0  0  0  0
    6.5628  -19.7641   22.0886 N   0  0  0  0  0  0  0  0  0  0  0  0
    7.2647  -17.4508   22.3779 C   0  0  0  0  0  0  0  0  0  0  0  0
    8.3966  -17.8137   21.9648 O   0  0  0  0  0  0  0  0  0  0  0  0
    5.6985  -12.9860   19.8074 C   0  0  0  0  0  0  0  0  0  0  0  0
    6.5887  -14.0656   20.3004 C   0  0  0  0  0  0  0  0  0  0  0  0
    7.2844  -13.8293   21.5995 C   0  0  2  0  0  0  0  0  0  0  0  0
    8.2873  -12.6936   21.3494 C   0  0  0  0  0  0  0  0  0  0  0  0
    7.9947  -15.0286   22.1722 C   0  0  2  0  0  0  0  0  0  0  0  0
    7.0392  -16.0622   22.5336 N   0  0  0  0  0  0  0  0  0  0  0  0
    8.9274  -14.6620   23.2370 C   0  0  0  0  0  0  0  0  0  0  0  0
    8.8152  -13.5197   23.8031 O   0  0  0  0  0  0  0  0  0  0  0  0
    8.9784  -18.2160   30.0541 O   0  0  0  0  0  0  0  0  0  0  0  0
    9.2644  -17.3021   29.0375 C   0  0  0  0  0  0  0  0  0  0  0  0
   10.2597  -16.3584   29.1809 C   0  0  0  0  0  0  0  0  0  0  0  0
   10.5489  -15.4518   28.1816 C   0  0  0  0  0  0  0  0  0  0  0  0
    9.8457  -15.4550   26.9886 C   0  0  0  0  0  0  0  0  0  0  0  0
   10.1646  -14.4862   25.9485 C   0  0  0  0  0  0  0  0  0  0  0  0
   10.9042  -15.0517   24.7511 C   0  0  2  0  0  0  0  0  0  0  0  0
    9.9729  -15.4722   23.7215 N   0  0  0  0  0  0  0  0  0  0  0  0
   11.7534  -16.1940   25.1031 C   0  0  0  0  0  0  0  0  0  0  0  0
   11.5865  -17.4073   24.4716 O   0  0  0  0  0  0  0  0  0  0  0  0
    8.8381  -16.4038   26.8324 C   0  0  0  0  0  0  0  0  0  0  0  0
    8.5795  -17.2845   27.8408 C   0  0  0  0  0  0  0  0  0  0  0  0
   12.6407  -16.0835   25.9820 O   0  0  0  0  0  0  0  0  0  0  0  0
  2  1  1  0
  3  2  1  0
  3  4  1  6
  5  6  2  0
  5  3  1  0
  7  8  1  0
  9  8  1  0
  9 10  1  6
 11  9  1  0
 11 12  1  1
 12  5  1  0
 13 11  1  0
 14 13  2  0
 16 17  2  0
 16 15  1  0
 18 17  1  0
 19 18  2  0
 21 20  1  1
 20 19  1  0
 21 22  1  0
 22 13  1  0
 23 21  1  0
 23 24  1  0
 25 19  1  0
 25 26  2  0
 26 16  1  0
 27 23  2  0
M  END
$$$$
