SIY.pdb
     RDKit          3D

 27 27  0  0  1  0  0  0  0  0999 V2000
    9.2848  -20.8631   20.5218 O   0  0  0  0  0  0  0  0  0  0  0  0
    8.5096  -19.7450   20.8285 C   0  0  0  0  0  0  0  0  0  0  0  0
    8.4513  -18.9037   19.5661 C   0  0  2  0  0  0  0  0  0  0  0  0
    9.1501  -19.6038   18.5441 N   0  0  0  0  0  0  0  0  0  0  0  0
    9.0249  -17.5867   19.9018 C   0  0  0  0  0  0  0  0  0  0  0  0
   10.2363  -17.3850   19.6273 O   0  0  0  0  0  0  0  0  0  0  0  0
    6.1685  -12.8487   19.5107 C   0  0  0  0  0  0  0  0  0  0  0  0
    7.3269  -13.7750   19.5467 C   0  0  0  0  0  0  0  0  0  0  0  0
    7.8326  -14.1749   20.8928 C   0  0  2  0  0  0  0  0  0  0  0  0
    8.3883  -12.8979   21.5398 C   0  0  0  0  0  0  0  0  0  0  0  0
    8.8873  -15.2512   20.8860 C   0  0  2  0  0  0  0  0  0  0  0  0
    8.3077  -16.5304   20.5125 N   0  0  0  0  0  0  0  0  0  0  0  0
    9.6629  -15.2726   22.1254 C   0  0  0  0  0  0  0  0  0  0  0  0
   10.3486  -14.2430   22.4540 O   0  0  0  0  0  0  0  0  0  0  0  0
   10.6471  -14.9109   30.6926 O   0  0  0  0  0  0  0  0  0  0  0  0
   10.3093  -15.0080   29.3409 C   0  0  0  0  0  0  0  0  0  0  0  0
    9.9683  -16.2172   28.7722 C   0  0  0  0  0  0  0  0  0  0  0  0
    9.6333  -16.3222   27.4377 C   0  0  0  0  0  0  0  0  0  0  0  0
    9.6267  -15.2096   26.6131 C   0  0  0  0  0  0  0  0  0  0  0  0
    9.2739  -15.3437   25.2061 C   0  0  0  0  0  0  0  0  0  0  0  0
   10.2009  -16.2284   24.3946 C   0  0  2  0  0  0  0  0  0  0  0  0
    9.7302  -16.3519   23.0281 N   0  0  0  0  0  0  0  0  0  0  0  0
   10.3343  -17.5735   24.9627 C   0  0  0  0  0  0  0  0  0  0  0  0
   11.4994  -17.9512   25.5937 O   0  0  0  0  0  0  0  0  0  0  0  0
    9.9693  -13.9829   27.1766 C   0  0  0  0  0  0  0  0  0  0  0  0
   10.2949  -13.9160   28.4990 C   0  0  0  0  0  0  0  0  0  0  0  0
    9.3926  -18.3974   24.8816 O   0  0  0  0  0  0  0  0  0  0  0  0
  2  1  1  0
  3  2  1  0
  3  4  1  6
  5  6  2  0
  5  3  1  0
  7  8  1  0
  9  8  1  0
  9 10  1  6
 11  9  1  0
 11 12  1  1
 12  5  1  0
 13 11  1  0
 14 13  2  0
 16 17  2  0
 16 15  1  0
 18 17  1  0
 19 18  2  0
 21 20  1  1
 20 19  1  0
 21 22  1  0
 22 13  1  0
 23 21  1  0
 23 24  1  0
 25 19  1  0
 25 26  2  0
 26 16  1  0
 27 23  2  0
M  END
$$$$
