SIY.pdb
     RDKit          3D

 27 27  0  0  1  0  0  0  0  0999 V2000
    7.3967  -17.2068   21.2003 O   0  0  0  0  0  0  0  0  0  0  0  0
    7.5598  -16.3732   20.0940 C   0  0  0  0  0  0  0  0  0  0  0  0
    7.0488  -15.0051   20.5083 C   0  0  2  0  0  0  0  0  0  0  0  0
    7.1689  -14.1380   19.3874 N   0  0  0  0  0  0  0  0  0  0  0  0
    7.8374  -14.5909   21.6842 C   0  0  0  0  0  0  0  0  0  0  0  0
    9.0258  -14.2224   21.4959 O   0  0  0  0  0  0  0  0  0  0  0  0
    5.5302  -12.1506   26.1081 C   0  0  0  0  0  0  0  0  0  0  0  0
    6.5256  -12.5458   25.0814 C   0  0  0  0  0  0  0  0  0  0  0  0
    7.2796  -13.8113   25.3210 C   0  0  2  0  0  0  0  0  0  0  0  0
    8.1307  -13.5732   26.5768 C   0  0  0  0  0  0  0  0  0  0  0  0
    8.1565  -14.2591   24.1803 C   0  0  2  0  0  0  0  0  0  0  0  0
    7.3513  -14.5785   23.0134 N   0  0  0  0  0  0  0  0  0  0  0  0
    9.0912  -15.3098   24.5813 C   0  0  0  0  0  0  0  0  0  0  0  0
    8.6466  -16.4849   24.8251 O   0  0  0  0  0  0  0  0  0  0  0  0
   10.2934  -15.4762   31.3494 O   0  0  0  0  0  0  0  0  0  0  0  0
   10.8071  -15.5566   30.0532 C   0  0  0  0  0  0  0  0  0  0  0  0
   11.2672  -16.7498   29.5371 C   0  0  0  0  0  0  0  0  0  0  0  0
   11.7763  -16.8382   28.2576 C   0  0  0  0  0  0  0  0  0  0  0  0
   11.8452  -15.7244   27.4376 C   0  0  0  0  0  0  0  0  0  0  0  0
   12.3903  -15.8392   26.0915 C   0  0  0  0  0  0  0  0  0  0  0  0
   11.3887  -16.2450   25.0272 C   0  0  2  0  0  0  0  0  0  0  0  0
   10.4832  -15.1519   24.7281 N   0  0  0  0  0  0  0  0  0  0  0  0
   10.5931  -17.4123   25.4197 C   0  0  0  0  0  0  0  0  0  0  0  0
   11.1983  -18.6348   25.6141 O   0  0  0  0  0  0  0  0  0  0  0  0
   11.3833  -14.5137   27.9482 C   0  0  0  0  0  0  0  0  0  0  0  0
   10.8865  -14.4630   29.2170 C   0  0  0  0  0  0  0  0  0  0  0  0
    9.3538  -17.3151   25.5828 O   0  0  0  0  0  0  0  0  0  0  0  0
  2  1  1  0
  3  2  1  0
  3  4  1  6
  5  6  2  0
  5  3  1  0
  7  8  1  0
  9  8  1  0
  9 10  1  1
 11  9  1  0
 11 12  1  6
 12  5  1  0
 13 11  1  0
 14 13  2  0
 16 17  2  0
 16 15  1  0
 18 17  1  0
 19 18  2  0
 21 20  1  1
 20 19  1  0
 21 22  1  0
 22 13  1  0
 23 21  1  0
 23 24  1  0
 25 19  1  0
 25 26  2  0
 26 16  1  0
 27 23  2  0
M  END
$$$$
