SIY.pdb
     RDKit          3D

 27 27  0  0  1  0  0  0  0  0999 V2000
    8.3452  -17.7218   22.9281 O   0  0  0  0  0  0  0  0  0  0  0  0
    8.1277  -17.4172   21.5845 C   0  0  0  0  0  0  0  0  0  0  0  0
    8.4752  -15.9490   21.4155 C   0  0  2  0  0  0  0  0  0  0  0  0
    9.4907  -15.8537   20.4243 N   0  0  0  0  0  0  0  0  0  0  0  0
    8.8739  -15.4472   22.7442 C   0  0  0  0  0  0  0  0  0  0  0  0
   10.0356  -15.7117   23.1491 O   0  0  0  0  0  0  0  0  0  0  0  0
    7.2596  -11.1677   27.0151 C   0  0  0  0  0  0  0  0  0  0  0  0
    8.0408  -12.3516   26.5801 C   0  0  0  0  0  0  0  0  0  0  0  0
    7.6048  -13.0254   25.3217 C   0  0  2  0  0  0  0  0  0  0  0  0
    6.1402  -13.4331   25.5378 C   0  0  0  0  0  0  0  0  0  0  0  0
    8.4219  -14.2274   24.9237 C   0  0  2  0  0  0  0  0  0  0  0  0
    8.0403  -14.6870   23.5989 N   0  0  0  0  0  0  0  0  0  0  0  0
    8.4158  -15.2654   25.9536 C   0  0  0  0  0  0  0  0  0  0  0  0
    7.3777  -16.0000   26.0974 O   0  0  0  0  0  0  0  0  0  0  0  0
   15.2672  -18.6383   25.8842 O   0  0  0  0  0  0  0  0  0  0  0  0
   13.9187  -18.4743   26.2087 C   0  0  0  0  0  0  0  0  0  0  0  0
   13.0558  -17.8020   25.3689 C   0  0  0  0  0  0  0  0  0  0  0  0
   11.7222  -17.6354   25.6817 C   0  0  0  0  0  0  0  0  0  0  0  0
   11.1960  -18.1403   26.8590 C   0  0  0  0  0  0  0  0  0  0  0  0
    9.7860  -17.9493   27.1715 C   0  0  0  0  0  0  0  0  0  0  0  0
    9.4468  -16.6178   27.8138 C   0  0  2  0  0  0  0  0  0  0  0  0
    9.4789  -15.5494   26.8330 N   0  0  0  0  0  0  0  0  0  0  0  0
   10.3609  -16.2717   28.9068 C   0  0  0  0  0  0  0  0  0  0  0  0
   10.5173  -17.1215   29.9800 O   0  0  0  0  0  0  0  0  0  0  0  0
   12.0582  -18.8213   27.7150 C   0  0  0  0  0  0  0  0  0  0  0  0
   13.3703  -18.9673   27.3739 C   0  0  0  0  0  0  0  0  0  0  0  0
   11.0108  -15.1998   28.8807 O   0  0  0  0  0  0  0  0  0  0  0  0
  2  1  1  0
  3  2  1  0
  3  4  1  6
  5  6  2  0
  5  3  1  0
  7  8  1  0
  9  8  1  0
  9 10  1  1
 11  9  1  0
 11 12  1  6
 12  5  1  0
 13 11  1  0
 14 13  2  0
 16 17  2  0
 16 15  1  0
 18 17  1  0
 19 18  2  0
 21 20  1  6
 20 19  1  0
 21 22  1  0
 22 13  1  0
 23 21  1  0
 23 24  1  0
 25 19  1  0
 25 26  2  0
 26 16  1  0
 27 23  2  0
M  END
$$$$
