EFL.pdb
     RDKit          3D

 29 29  0  0  1  0  0  0  0  0999 V2000
    9.5959  -18.7817   20.7254 N   0  0  0  0  0  0  0  0  0  0  0  0
   10.7929  -17.9808   20.8089 C   0  0  1  0  0  0  0  0  0  0  0  0
   11.2526  -17.4494   19.4815 C   0  0  0  0  0  0  0  0  0  0  0  0
   11.3392  -18.5112   18.4007 C   0  0  0  0  0  0  0  0  0  0  0  0
   11.7878  -17.8666   17.1493 C   0  0  0  0  0  0  0  0  0  0  0  0
   11.0820  -17.9588   16.1186 O   0  0  0  0  0  0  0  0  0  0  0  0
   10.4441  -16.7728   21.6376 C   0  0  0  0  0  0  0  0  0  0  0  0
   11.3027  -15.8616   21.6986 O   0  0  0  0  0  0  0  0  0  0  0  0
   12.9713  -17.1606   17.0903 O   0  0  0  0  0  0  0  0  0  0  0  0
    9.2070  -16.6713   22.3133 N   0  0  0  0  0  0  0  0  0  0  0  0
    8.9602  -15.6056   23.2371 C   0  0  1  0  0  0  0  0  0  0  0  0
    7.5115  -15.5886   23.6706 C   0  0  0  0  0  0  0  0  0  0  0  0
    7.0870  -14.3612   24.3497 C   0  0  0  0  0  0  0  0  0  0  0  0
    7.5956  -13.1483   23.9189 C   0  0  0  0  0  0  0  0  0  0  0  0
    7.1680  -12.0091   24.5559 C   0  0  0  0  0  0  0  0  0  0  0  0
    6.2587  -12.0811   25.5927 C   0  0  0  0  0  0  0  0  0  0  0  0
    5.7552  -13.3026   26.0166 C   0  0  0  0  0  0  0  0  0  0  0  0
    6.1810  -14.4521   25.3801 C   0  0  0  0  0  0  0  0  0  0  0  0
    9.8236  -15.7932   24.4266 C   0  0  0  0  0  0  0  0  0  0  0  0
   10.8804  -15.1038   24.5786 O   0  0  0  0  0  0  0  0  0  0  0  0
    8.9785  -14.4011   29.6023 C   0  0  0  0  0  0  0  0  0  0  0  0
   10.0085  -15.0576   28.7499 C   0  0  2  0  0  0  0  0  0  0  0  0
   11.2880  -14.2060   28.6959 C   0  0  0  0  0  0  0  0  0  0  0  0
    9.5432  -15.4350   27.4167 C   0  0  0  0  0  0  0  0  0  0  0  0
   10.1574  -16.6170   26.7650 C   0  0  2  0  0  0  0  0  0  0  0  0
    9.4932  -16.7359   25.4114 N   0  0  0  0  0  0  0  0  0  0  0  0
   10.0043  -17.9427   27.3373 C   0  0  0  0  0  0  0  0  0  0  0  0
   10.8275  -18.4387   28.1761 O   0  0  0  0  0  0  0  0  0  0  0  0
    8.9384  -18.7536   27.0124 O   0  0  0  0  0  0  0  0  0  0  0  0
  2  3  1  0
  2  1  1  6
  4  5  1  0
  4  3  1  0
  5  9  1  0
  6  5  2  0
  7  2  1  0
  8  7  2  0
 10  7  1  0
 11 10  1  0
 12 13  1  0
 11 12  1  1
 13 14  2  0
 14 15  1  0
 16 15  2  0
 17 16  1  0
 18 17  2  0
 18 13  1  0
 19 11  1  0
 19 20  2  0
 22 21  1  6
 22 23  1  0
 25 24  1  1
 24 22  1  0
 25 26  1  0
 26 19  1  0
 27 25  1  0
 28 27  2  0
 29 27  1  0
M  END
$$$$
