EFL.pdb
     RDKit          3D

 29 29  0  0  1  0  0  0  0  0999 V2000
   10.0453  -18.7224   20.6206 N   0  0  0  0  0  0  0  0  0  0  0  0
   11.2555  -18.1152   21.1187 C   0  0  1  0  0  0  0  0  0  0  0  0
   12.0433  -17.3942   20.0627 C   0  0  0  0  0  0  0  0  0  0  0  0
   13.4741  -17.8836   19.9340 C   0  0  0  0  0  0  0  0  0  0  0  0
   13.9533  -17.5688   18.5724 C   0  0  0  0  0  0  0  0  0  0  0  0
   13.8843  -16.3919   18.1492 O   0  0  0  0  0  0  0  0  0  0  0  0
   10.8314  -17.0615   22.1074 C   0  0  0  0  0  0  0  0  0  0  0  0
   11.7119  -16.2533   22.4853 O   0  0  0  0  0  0  0  0  0  0  0  0
   14.4791  -18.5460   17.7531 O   0  0  0  0  0  0  0  0  0  0  0  0
    9.5035  -16.9870   22.5853 N   0  0  0  0  0  0  0  0  0  0  0  0
    9.1610  -16.1170   23.6696 C   0  0  1  0  0  0  0  0  0  0  0  0
    7.6804  -15.8092   23.6708 C   0  0  0  0  0  0  0  0  0  0  0  0
    7.2831  -14.7016   24.5445 C   0  0  0  0  0  0  0  0  0  0  0  0
    7.7126  -13.4219   24.2393 C   0  0  0  0  0  0  0  0  0  0  0  0
    7.3110  -12.3962   25.0597 C   0  0  0  0  0  0  0  0  0  0  0  0
    6.5037  -12.6432   26.1525 C   0  0  0  0  0  0  0  0  0  0  0  0
    6.0789  -13.9303   26.4492 C   0  0  0  0  0  0  0  0  0  0  0  0
    6.4790  -14.9664   25.6281 C   0  0  0  0  0  0  0  0  0  0  0  0
    9.5237  -16.7766   24.9458 C   0  0  0  0  0  0  0  0  0  0  0  0
    9.8150  -18.0133   24.9792 O   0  0  0  0  0  0  0  0  0  0  0  0
   11.1495  -13.6557   27.4846 C   0  0  0  0  0  0  0  0  0  0  0  0
    9.9397  -14.2874   28.0812 C   0  0  2  0  0  0  0  0  0  0  0  0
    9.4139  -13.4452   29.2558 C   0  0  0  0  0  0  0  0  0  0  0  0
   10.1051  -15.6936   28.4444 C   0  0  0  0  0  0  0  0  0  0  0  0
   10.1912  -16.6965   27.3555 C   0  0  2  0  0  0  0  0  0  0  0  0
    9.5538  -16.0504   26.1456 N   0  0  0  0  0  0  0  0  0  0  0  0
    9.5025  -17.9703   27.4640 C   0  0  0  0  0  0  0  0  0  0  0  0
    9.8570  -18.8869   28.2772 O   0  0  0  0  0  0  0  0  0  0  0  0
    8.4007  -18.2666   26.6910 O   0  0  0  0  0  0  0  0  0  0  0  0
  2  3  1  0
  2  1  1  6
  4  5  1  0
  4  3  1  0
  5  9  1  0
  6  5  2  0
  7  2  1  0
  8  7  2  0
 10  7  1  0
 11 10  1  0
 12 13  1  0
 11 12  1  1
 13 14  2  0
 14 15  1  0
 16 15  2  0
 17 16  1  0
 18 17  2  0
 18 13  1  0
 19 11  1  0
 19 20  2  0
 22 21  1  1
 22 23  1  0
 25 24  1  1
 24 22  1  0
 25 26  1  0
 26 19  1  0
 27 25  1  0
 28 27  2  0
 29 27  1  0
M  END
$$$$
