EFL.pdb
     RDKit          3D

 29 29  0  0  1  0  0  0  0  0999 V2000
   10.9898  -16.5348   19.5101 N   0  0  0  0  0  0  0  0  0  0  0  0
   11.2024  -17.3419   20.6867 C   0  0  1  0  0  0  0  0  0  0  0  0
   12.6461  -17.6753   20.9324 C   0  0  0  0  0  0  0  0  0  0  0  0
   13.0130  -19.0976   20.5508 C   0  0  0  0  0  0  0  0  0  0  0  0
   14.4144  -19.3403   20.9506 C   0  0  0  0  0  0  0  0  0  0  0  0
   14.6849  -20.3053   21.7019 O   0  0  0  0  0  0  0  0  0  0  0  0
   10.7662  -16.5090   21.8630 C   0  0  0  0  0  0  0  0  0  0  0  0
   11.5508  -15.6067   22.2391 O   0  0  0  0  0  0  0  0  0  0  0  0
   15.4370  -18.5253   20.5117 O   0  0  0  0  0  0  0  0  0  0  0  0
    9.5304  -16.7336   22.5109 N   0  0  0  0  0  0  0  0  0  0  0  0
    9.1193  -15.9158   23.6118 C   0  0  1  0  0  0  0  0  0  0  0  0
    7.6398  -15.6112   23.5380 C   0  0  0  0  0  0  0  0  0  0  0  0
    7.1613  -14.6415   24.5273 C   0  0  0  0  0  0  0  0  0  0  0  0
    6.3541  -15.0835   25.5609 C   0  0  0  0  0  0  0  0  0  0  0  0
    5.9346  -14.1614   26.4884 C   0  0  0  0  0  0  0  0  0  0  0  0
    6.3114  -12.8369   26.3851 C   0  0  0  0  0  0  0  0  0  0  0  0
    7.1211  -12.4047   25.3445 C   0  0  0  0  0  0  0  0  0  0  0  0
    7.5467  -13.3268   24.4084 C   0  0  0  0  0  0  0  0  0  0  0  0
    9.4075  -16.6335   24.8756 C   0  0  0  0  0  0  0  0  0  0  0  0
    9.5644  -17.8947   24.8863 O   0  0  0  0  0  0  0  0  0  0  0  0
   11.6366  -14.0710   27.4383 C   0  0  0  0  0  0  0  0  0  0  0  0
   10.3014  -14.3121   28.0528 C   0  0  2  0  0  0  0  0  0  0  0  0
   10.0721  -13.3594   29.2381 C   0  0  0  0  0  0  0  0  0  0  0  0
   10.0393  -15.7053   28.4092 C   0  0  0  0  0  0  0  0  0  0  0  0
    9.9435  -16.7051   27.3182 C   0  0  2  0  0  0  0  0  0  0  0  0
    9.5140  -15.9366   26.0883 N   0  0  0  0  0  0  0  0  0  0  0  0
    8.9853  -17.7936   27.3916 C   0  0  0  0  0  0  0  0  0  0  0  0
    7.9091  -17.8217   26.7074 O   0  0  0  0  0  0  0  0  0  0  0  0
    9.1887  -18.8843   28.2091 O   0  0  0  0  0  0  0  0  0  0  0  0
  2  3  1  0
  2  1  1  6
  4  5  1  0
  4  3  1  0
  5  9  1  0
  6  5  2  0
  7  2  1  0
  8  7  2  0
 10  7  1  0
 11 10  1  0
 12 13  1  0
 11 12  1  6
 13 14  2  0
 14 15  1  0
 16 15  2  0
 17 16  1  0
 18 17  2  0
 18 13  1  0
 19 11  1  0
 19 20  2  0
 22 21  1  1
 22 23  1  0
 25 24  1  1
 24 22  1  0
 25 26  1  0
 26 19  1  0
 27 25  1  0
 28 27  2  0
 29 27  1  0
M  END
$$$$
