EFL.pdb
     RDKit          3D

 29 29  0  0  1  0  0  0  0  0999 V2000
   10.3719  -17.0674   18.4749 N   0  0  0  0  0  0  0  0  0  0  0  0
   10.7549  -17.7081   19.7095 C   0  0  1  0  0  0  0  0  0  0  0  0
   12.2177  -18.0400   19.7842 C   0  0  0  0  0  0  0  0  0  0  0  0
   12.6606  -19.0622   18.7536 C   0  0  0  0  0  0  0  0  0  0  0  0
   14.0804  -19.3874   19.0005 C   0  0  0  0  0  0  0  0  0  0  0  0
   14.4180  -19.8908   20.0967 O   0  0  0  0  0  0  0  0  0  0  0  0
   10.5026  -16.7091   20.8076 C   0  0  0  0  0  0  0  0  0  0  0  0
   11.0855  -15.6036   20.7114 O   0  0  0  0  0  0  0  0  0  0  0  0
   15.0474  -19.1497   18.0461 O   0  0  0  0  0  0  0  0  0  0  0  0
    9.6484  -17.0040   21.8942 N   0  0  0  0  0  0  0  0  0  0  0  0
    9.3010  -15.9959   22.8497 C   0  0  1  0  0  0  0  0  0  0  0  0
    7.8375  -15.6298   22.7436 C   0  0  0  0  0  0  0  0  0  0  0  0
    7.5272  -14.6255   21.7222 C   0  0  0  0  0  0  0  0  0  0  0  0
    7.8645  -13.3043   21.9591 C   0  0  0  0  0  0  0  0  0  0  0  0
    7.5835  -12.3835   20.9796 C   0  0  0  0  0  0  0  0  0  0  0  0
    6.9832  -12.7727   19.7983 C   0  0  0  0  0  0  0  0  0  0  0  0
    6.6493  -14.1002   19.5714 C   0  0  0  0  0  0  0  0  0  0  0  0
    6.9293  -15.0314   20.5523 C   0  0  0  0  0  0  0  0  0  0  0  0
    9.5781  -16.5106   24.2112 C   0  0  0  0  0  0  0  0  0  0  0  0
   10.2068  -17.6023   24.3785 O   0  0  0  0  0  0  0  0  0  0  0  0
   10.5323  -15.2346   29.4492 C   0  0  0  0  0  0  0  0  0  0  0  0
   10.4860  -14.1298   28.4513 C   0  0  2  0  0  0  0  0  0  0  0  0
    9.9662  -12.8363   29.1011 C   0  0  0  0  0  0  0  0  0  0  0  0
    9.7678  -14.4529   27.2200 C   0  0  0  0  0  0  0  0  0  0  0  0
   10.0889  -15.7263   26.5312 C   0  0  2  0  0  0  0  0  0  0  0  0
    9.1527  -15.8038   25.3457 N   0  0  0  0  0  0  0  0  0  0  0  0
    9.8971  -17.0006   27.2006 C   0  0  0  0  0  0  0  0  0  0  0  0
    8.7540  -17.5492   27.3400 O   0  0  0  0  0  0  0  0  0  0  0  0
   10.9559  -17.7107   27.7241 O   0  0  0  0  0  0  0  0  0  0  0  0
  2  3  1  0
  2  1  1  6
  4  5  1  0
  4  3  1  0
  5  9  1  0
  6  5  2  0
  7  2  1  0
  8  7  2  0
 10  7  1  0
 11 10  1  0
 12 13  1  0
 11 12  1  1
 13 14  2  0
 14 15  1  0
 16 15  2  0
 17 16  1  0
 18 17  2  0
 18 13  1  0
 19 11  1  0
 19 20  2  0
 22 21  1  1
 22 23  1  0
 25 24  1  1
 24 22  1  0
 25 26  1  0
 26 19  1  0
 27 25  1  0
 28 27  2  0
 29 27  1  0
M  END
$$$$
