EFL.pdb
     RDKit          3D

 29 29  0  0  1  0  0  0  0  0999 V2000
    9.1416  -18.7887   21.3480 N   0  0  0  0  0  0  0  0  0  0  0  0
   10.3747  -18.2211   20.8595 C   0  0  1  0  0  0  0  0  0  0  0  0
   10.3551  -17.9206   19.3881 C   0  0  0  0  0  0  0  0  0  0  0  0
   10.2322  -19.1582   18.5184 C   0  0  0  0  0  0  0  0  0  0  0  0
   10.8390  -18.8656   17.2036 C   0  0  0  0  0  0  0  0  0  0  0  0
   10.7616  -19.7130   16.2843 O   0  0  0  0  0  0  0  0  0  0  0  0
   10.5384  -16.8925   21.5490 C   0  0  0  0  0  0  0  0  0  0  0  0
   11.4759  -16.1611   21.1523 O   0  0  0  0  0  0  0  0  0  0  0  0
   11.4908  -17.6739   16.9635 O   0  0  0  0  0  0  0  0  0  0  0  0
    9.6751  -16.4893   22.5928 N   0  0  0  0  0  0  0  0  0  0  0  0
    9.7305  -15.1589   23.1189 C   0  0  1  0  0  0  0  0  0  0  0  0
    8.3530  -14.5364   23.1647 C   0  0  0  0  0  0  0  0  0  0  0  0
    7.8372  -14.0880   21.8682 C   0  0  0  0  0  0  0  0  0  0  0  0
    8.2739  -12.8783   21.3568 C   0  0  0  0  0  0  0  0  0  0  0  0
    7.7937  -12.4878   20.1308 C   0  0  0  0  0  0  0  0  0  0  0  0
    6.9035  -13.2835   19.4370 C   0  0  0  0  0  0  0  0  0  0  0  0
    6.4724  -14.4946   19.9592 C   0  0  0  0  0  0  0  0  0  0  0  0
    6.9516  -14.8934   21.1917 C   0  0  0  0  0  0  0  0  0  0  0  0
   10.2895  -15.2089   24.4902 C   0  0  0  0  0  0  0  0  0  0  0  0
   10.8104  -14.1769   25.0184 O   0  0  0  0  0  0  0  0  0  0  0  0
    8.9085  -14.1068   29.3032 C   0  0  0  0  0  0  0  0  0  0  0  0
    9.9277  -15.0343   28.7379 C   0  0  2  0  0  0  0  0  0  0  0  0
   11.3473  -14.5436   29.0686 C   0  0  0  0  0  0  0  0  0  0  0  0
    9.7639  -15.3223   27.3143 C   0  0  0  0  0  0  0  0  0  0  0  0
   10.6518  -16.3354   26.6943 C   0  0  2  0  0  0  0  0  0  0  0  0
   10.2559  -16.3966   25.2358 N   0  0  0  0  0  0  0  0  0  0  0  0
   10.6036  -17.7232   27.1188 C   0  0  0  0  0  0  0  0  0  0  0  0
   11.5122  -18.2658   27.8311 O   0  0  0  0  0  0  0  0  0  0  0  0
    9.5522  -18.5481   26.7821 O   0  0  0  0  0  0  0  0  0  0  0  0
  2  3  1  0
  2  1  1  1
  4  5  1  0
  4  3  1  0
  5  9  1  0
  6  5  2  0
  7  2  1  0
  8  7  2  0
 10  7  1  0
 11 10  1  0
 12 13  1  0
 11 12  1  1
 13 14  2  0
 14 15  1  0
 16 15  2  0
 17 16  1  0
 18 17  2  0
 18 13  1  0
 19 11  1  0
 19 20  2  0
 22 21  1  6
 22 23  1  0
 25 24  1  1
 24 22  1  0
 25 26  1  0
 26 19  1  0
 27 25  1  0
 28 27  2  0
 29 27  1  0
M  END
$$$$
