EFL.pdb
     RDKit          3D

 29 29  0  0  1  0  0  0  0  0999 V2000
    9.2684  -19.0569   21.1407 N   0  0  0  0  0  0  0  0  0  0  0  0
   10.4911  -18.2966   21.0508 C   0  0  1  0  0  0  0  0  0  0  0  0
   10.8294  -17.8684   19.6516 C   0  0  0  0  0  0  0  0  0  0  0  0
   10.3452  -18.8363   18.5877 C   0  0  0  0  0  0  0  0  0  0  0  0
   10.8482  -18.3772   17.2767 C   0  0  0  0  0  0  0  0  0  0  0  0
   10.2474  -17.4605   16.6703 O   0  0  0  0  0  0  0  0  0  0  0  0
   10.2645  -17.0262   21.8268 C   0  0  0  0  0  0  0  0  0  0  0  0
   11.1864  -16.1772   21.8038 O   0  0  0  0  0  0  0  0  0  0  0  0
   11.9709  -18.9367   16.7031 O   0  0  0  0  0  0  0  0  0  0  0  0
    9.0686  -16.8017   22.5458 N   0  0  0  0  0  0  0  0  0  0  0  0
    8.8740  -15.5930   23.2881 C   0  0  1  0  0  0  0  0  0  0  0  0
    7.4779  -15.5305   23.8659 C   0  0  0  0  0  0  0  0  0  0  0  0
    7.1697  -14.2988   24.5980 C   0  0  0  0  0  0  0  0  0  0  0  0
    7.5782  -13.0867   24.0695 C   0  0  0  0  0  0  0  0  0  0  0  0
    7.2603  -11.9437   24.7616 C   0  0  0  0  0  0  0  0  0  0  0  0
    6.5547  -12.0113   25.9469 C   0  0  0  0  0  0  0  0  0  0  0  0
    6.1501  -13.2321   26.4676 C   0  0  0  0  0  0  0  0  0  0  0  0
    6.4664  -14.3854   25.7764 C   0  0  0  0  0  0  0  0  0  0  0  0
    9.8618  -15.5443   24.3915 C   0  0  0  0  0  0  0  0  0  0  0  0
   10.8099  -14.6981   24.3790 O   0  0  0  0  0  0  0  0  0  0  0  0
    9.8355  -12.9778   28.0359 C   0  0  0  0  0  0  0  0  0  0  0  0
   10.1706  -14.4286   28.0732 C   0  0  2  0  0  0  0  0  0  0  0  0
   10.8603  -14.7899   29.3995 C   0  0  0  0  0  0  0  0  0  0  0  0
   10.9221  -14.9085   26.9149 C   0  0  0  0  0  0  0  0  0  0  0  0
   10.8239  -16.3444   26.5577 C   0  0  2  0  0  0  0  0  0  0  0  0
    9.7718  -16.4311   25.4746 N   0  0  0  0  0  0  0  0  0  0  0  0
   10.3869  -17.3241   27.5364 C   0  0  0  0  0  0  0  0  0  0  0  0
    9.1764  -17.7127   27.6405 O   0  0  0  0  0  0  0  0  0  0  0  0
   11.2687  -17.9105   28.4183 O   0  0  0  0  0  0  0  0  0  0  0  0
  2  3  1  0
  2  1  1  6
  4  5  1  0
  4  3  1  0
  5  9  1  0
  6  5  2  0
  7  2  1  0
  8  7  2  0
 10  7  1  0
 11 10  1  0
 12 13  1  0
 11 12  1  1
 13 14  2  0
 14 15  1  0
 16 15  2  0
 17 16  1  0
 18 17  2  0
 18 13  1  0
 19 11  1  0
 19 20  2  0
 22 21  1  6
 22 23  1  0
 25 24  1  1
 24 22  1  0
 25 26  1  0
 26 19  1  0
 27 25  1  0
 28 27  2  0
 29 27  1  0
M  END
$$$$
