EFL.pdb
     RDKit          3D

 29 29  0  0  1  0  0  0  0  0999 V2000
    9.1131  -18.6860   21.2949 N   0  0  0  0  0  0  0  0  0  0  0  0
   10.4041  -18.0851   21.0639 C   0  0  1  0  0  0  0  0  0  0  0  0
   10.7271  -17.8986   19.6091 C   0  0  0  0  0  0  0  0  0  0  0  0
   10.6351  -19.1786   18.7989 C   0  0  0  0  0  0  0  0  0  0  0  0
   10.9820  -18.8683   17.3968 C   0  0  0  0  0  0  0  0  0  0  0  0
   10.2489  -19.2864   16.4712 O   0  0  0  0  0  0  0  0  0  0  0  0
   10.3446  -16.7006   21.6532 C   0  0  0  0  0  0  0  0  0  0  0  0
   11.3527  -15.9734   21.4919 O   0  0  0  0  0  0  0  0  0  0  0  0
   12.0996  -18.1235   17.0823 O   0  0  0  0  0  0  0  0  0  0  0  0
    9.2056  -16.2430   22.3538 N   0  0  0  0  0  0  0  0  0  0  0  0
    9.0880  -14.8717   22.7483 C   0  0  1  0  0  0  0  0  0  0  0  0
    7.7335  -14.3139   22.3728 C   0  0  0  0  0  0  0  0  0  0  0  0
    7.6371  -13.8028   21.0025 C   0  0  0  0  0  0  0  0  0  0  0  0
    8.2079  -12.5778   20.7040 C   0  0  0  0  0  0  0  0  0  0  0  0
    8.1240  -12.1280   19.4090 C   0  0  0  0  0  0  0  0  0  0  0  0
    7.4883  -12.8811   18.4416 C   0  0  0  0  0  0  0  0  0  0  0  0
    6.9195  -14.1080   18.7521 C   0  0  0  0  0  0  0  0  0  0  0  0
    7.0005  -14.5663   20.0525 C   0  0  0  0  0  0  0  0  0  0  0  0
    9.2644  -14.7789   24.2165 C   0  0  0  0  0  0  0  0  0  0  0  0
    9.5210  -13.6649   24.7718 O   0  0  0  0  0  0  0  0  0  0  0  0
    8.5040  -13.0680   27.8486 C   0  0  0  0  0  0  0  0  0  0  0  0
    7.6007  -13.5815   26.7814 C   0  0  2  0  0  0  0  0  0  0  0  0
    6.1773  -13.0289   26.9662 C   0  0  0  0  0  0  0  0  0  0  0  0
    7.6096  -15.0348   26.6252 C   0  0  0  0  0  0  0  0  0  0  0  0
    8.9183  -15.7222   26.5076 C   0  0  2  0  0  0  0  0  0  0  0  0
    9.1516  -15.9188   25.0262 N   0  0  0  0  0  0  0  0  0  0  0  0
    9.1112  -17.0503   27.0621 C   0  0  0  0  0  0  0  0  0  0  0  0
    8.8419  -18.1191   26.4200 O   0  0  0  0  0  0  0  0  0  0  0  0
    9.6148  -17.2398   28.3309 O   0  0  0  0  0  0  0  0  0  0  0  0
  2  3  1  0
  2  1  1  6
  4  5  1  0
  4  3  1  0
  5  9  1  0
  6  5  2  0
  7  2  1  0
  8  7  2  0
 10  7  1  0
 11 10  1  0
 12 13  1  0
 11 12  1  1
 13 14  2  0
 14 15  1  0
 16 15  2  0
 17 16  1  0
 18 17  2  0
 18 13  1  0
 19 11  1  0
 19 20  2  0
 22 21  1  1
 22 23  1  0
 25 24  1  6
 24 22  1  0
 25 26  1  0
 26 19  1  0
 27 25  1  0
 28 27  2  0
 29 27  1  0
M  END
$$$$
