EGH.pdb
     RDKit          3D

 24 24  0  0  1  0  0  0  0  0999 V2000
    8.1334  -12.3833   19.3549 N   0  0  0  0  0  0  0  0  0  0  0  0
    7.8213  -13.7872   19.0480 C   0  0  1  0  0  0  0  0  0  0  0  0
    8.0700  -14.0332   17.5871 C   0  0  0  0  0  0  0  0  0  0  0  0
    7.8473  -15.4572   17.2014 C   0  0  0  0  0  0  0  0  0  0  0  0
    8.0960  -15.6569   15.7286 C   0  0  0  0  0  0  0  0  0  0  0  0
    8.5498  -14.7369   15.0383 O   0  0  0  0  0  0  0  0  0  0  0  0
    8.6327  -14.6084   19.9548 C   0  0  0  0  0  0  0  0  0  0  0  0
    9.8726  -14.3669   20.1571 O   0  0  0  0  0  0  0  0  0  0  0  0
    7.7916  -16.9066   15.2087 O   0  0  0  0  0  0  0  0  0  0  0  0
    8.0946  -15.7220   20.6647 N   0  0  0  0  0  0  0  0  0  0  0  0
    8.9406  -16.5758   21.4683 C   0  0  0  0  0  0  0  0  0  0  0  0
    9.2194  -15.9593   22.8001 C   0  0  0  0  0  0  0  0  0  0  0  0
    9.8738  -14.8897   22.8234 O   0  0  0  0  0  0  0  0  0  0  0  0
    8.7813  -16.5264   24.0085 N   0  0  0  0  0  0  0  0  0  0  0  0
    9.1323  -15.9823   25.3453 C   0  0  1  0  0  0  0  0  0  0  0  0
    7.9118  -15.6266   26.0991 C   0  0  0  0  0  0  0  0  0  0  0  0
    7.4238  -14.2771   25.7337 C   0  0  0  0  0  0  0  0  0  0  0  0
    6.0648  -13.9144   25.8306 C   0  0  0  0  0  0  0  0  0  0  0  0
    5.9408  -12.6428   25.4330 N   0  0  0  0  0  0  0  0  0  0  0  0
    7.1638  -12.2036   25.0945 C   0  0  0  0  0  0  0  0  0  0  0  0
    8.0419  -13.1866   25.2776 N   0  0  0  0  0  0  0  0  0  0  0  0
    9.9044  -17.0901   25.9996 C   0  0  0  0  0  0  0  0  0  0  0  0
   10.3223  -16.9680   27.1870 O   0  0  0  0  0  0  0  0  0  0  0  0
   10.1627  -18.2438   25.3164 O   0  0  0  0  0  0  0  0  0  0  0  0
  2  1  1  1
  2  3  1  0
  3  4  1  0
  5  4  1  0
  5  9  1  0
  6  5  2  0
  7  2  1  0
  7  8  2  0
 10  7  1  0
 11 10  1  0
 11 12  1  0
 12 14  1  0
 13 12  2  0
 14 15  1  0
 15 16  1  1
 15 22  1  0
 16 17  1  0
 17 18  2  0
 18 19  1  0
 20 19  1  0
 21 17  1  0
 21 20  2  0
 22 24  1  0
 23 22  2  0
M  END
$$$$
