EGH.pdb
     RDKit          3D

 24 24  0  0  1  0  0  0  0  0999 V2000
   12.8051  -17.1704   15.5009 N   0  0  0  0  0  0  0  0  0  0  0  0
   11.3678  -16.8812   15.3864 C   0  0  1  0  0  0  0  0  0  0  0  0
   10.7652  -17.8042   14.3659 C   0  0  0  0  0  0  0  0  0  0  0  0
   11.7348  -18.8277   13.8776 C   0  0  0  0  0  0  0  0  0  0  0  0
   11.0907  -19.7297   12.8567 C   0  0  0  0  0  0  0  0  0  0  0  0
   11.0156  -19.3837   11.6720 O   0  0  0  0  0  0  0  0  0  0  0  0
   10.8029  -17.0063   16.7356 C   0  0  0  0  0  0  0  0  0  0  0  0
    9.5893  -16.6926   16.9911 O   0  0  0  0  0  0  0  0  0  0  0  0
   10.5996  -20.9424   13.3178 O   0  0  0  0  0  0  0  0  0  0  0  0
   11.5658  -17.4829   17.8422 N   0  0  0  0  0  0  0  0  0  0  0  0
   10.9596  -17.6751   19.1406 C   0  0  0  0  0  0  0  0  0  0  0  0
   10.8770  -16.3874   19.8932 C   0  0  0  0  0  0  0  0  0  0  0  0
   11.7299  -15.5046   19.6362 O   0  0  0  0  0  0  0  0  0  0  0  0
    9.8931  -16.1341   20.8635 N   0  0  0  0  0  0  0  0  0  0  0  0
    9.7806  -14.8507   21.6029 C   0  0  1  0  0  0  0  0  0  0  0  0
    8.4605  -14.2290   21.3682 C   0  0  0  0  0  0  0  0  0  0  0  0
    8.2531  -13.9236   19.9342 C   0  0  0  0  0  0  0  0  0  0  0  0
    8.5800  -12.6715   19.3745 C   0  0  0  0  0  0  0  0  0  0  0  0
    8.2799  -12.7037   18.0709 N   0  0  0  0  0  0  0  0  0  0  0  0
    7.7817  -13.9210   17.8003 C   0  0  0  0  0  0  0  0  0  0  0  0
    7.7700  -14.6415   18.9190 N   0  0  0  0  0  0  0  0  0  0  0  0
    9.9821  -15.2373   23.0386 C   0  0  0  0  0  0  0  0  0  0  0  0
    9.2103  -14.7948   23.9377 O   0  0  0  0  0  0  0  0  0  0  0  0
   11.0035  -16.0735   23.3880 O   0  0  0  0  0  0  0  0  0  0  0  0
  2  1  1  1
  2  3  1  0
  3  4  1  0
  5  4  1  0
  5  9  1  0
  6  5  2  0
  7  2  1  0
  7  8  2  0
 10  7  1  0
 11 10  1  0
 11 12  1  0
 12 14  1  0
 13 12  2  0
 14 15  1  0
 15 16  1  1
 15 22  1  0
 16 17  1  0
 17 18  2  0
 18 19  1  0
 20 19  1  0
 21 17  1  0
 21 20  2  0
 22 24  1  0
 23 22  2  0
M  END
$$$$
