EGH.pdb
     RDKit          3D

 24 24  0  0  1  0  0  0  0  0999 V2000
   10.0280  -14.1110   18.2030 N   0  0  0  0  0  0  0  0  0  0  0  0
   10.5761  -15.1286   19.1122 C   0  0  1  0  0  0  0  0  0  0  0  0
   11.9992  -14.7746   19.4381 C   0  0  0  0  0  0  0  0  0  0  0  0
   12.7112  -14.1502   18.2851 C   0  0  0  0  0  0  0  0  0  0  0  0
   14.1352  -13.8206   18.6518 C   0  0  0  0  0  0  0  0  0  0  0  0
   14.5646  -14.0666   19.7849 O   0  0  0  0  0  0  0  0  0  0  0  0
    9.6779  -15.1867   20.2719 C   0  0  0  0  0  0  0  0  0  0  0  0
    8.8870  -14.2241   20.5622 O   0  0  0  0  0  0  0  0  0  0  0  0
   14.9148  -13.2383   17.6629 O   0  0  0  0  0  0  0  0  0  0  0  0
    9.6292  -16.3134   21.1448 N   0  0  0  0  0  0  0  0  0  0  0  0
    8.6215  -16.4167   22.1764 C   0  0  0  0  0  0  0  0  0  0  0  0
    9.1805  -16.0576   23.5143 C   0  0  0  0  0  0  0  0  0  0  0  0
   10.4203  -15.8912   23.6041 O   0  0  0  0  0  0  0  0  0  0  0  0
    8.3791  -15.9021   24.6578 N   0  0  0  0  0  0  0  0  0  0  0  0
    8.9268  -15.6597   26.0171 C   0  0  1  0  0  0  0  0  0  0  0  0
    7.8551  -15.2339   26.9414 C   0  0  0  0  0  0  0  0  0  0  0  0
    7.3713  -13.8721   26.6188 C   0  0  0  0  0  0  0  0  0  0  0  0
    8.2076  -12.8889   26.0515 C   0  0  0  0  0  0  0  0  0  0  0  0
    7.4873  -11.7744   25.8790 N   0  0  0  0  0  0  0  0  0  0  0  0
    6.2423  -12.0257   26.3149 C   0  0  0  0  0  0  0  0  0  0  0  0
    6.1835  -13.2804   26.7545 N   0  0  0  0  0  0  0  0  0  0  0  0
    9.5281  -16.9774   26.4090 C   0  0  0  0  0  0  0  0  0  0  0  0
   10.4617  -17.0297   27.2607 O   0  0  0  0  0  0  0  0  0  0  0  0
    9.0707  -18.1352   25.8481 O   0  0  0  0  0  0  0  0  0  0  0  0
  2  1  1  6
  2  3  1  0
  3  4  1  0
  5  4  1  0
  5  9  1  0
  6  5  2  0
  7  2  1  0
  7  8  2  0
 10  7  1  0
 11 10  1  0
 11 12  1  0
 12 14  1  0
 13 12  2  0
 14 15  1  0
 15 16  1  1
 15 22  1  0
 16 17  1  0
 17 18  2  0
 18 19  1  0
 20 19  1  0
 21 17  1  0
 21 20  2  0
 22 24  1  0
 23 22  2  0
M  END
$$$$
