EGH.pdb
     RDKit          3D

 24 24  0  0  1  0  0  0  0  0999 V2000
    8.3593  -19.2335   22.1528 N   0  0  0  0  0  0  0  0  0  0  0  0
    7.2883  -18.3646   21.6424 C   0  0  1  0  0  0  0  0  0  0  0  0
    5.9963  -18.7406   22.3101 C   0  0  0  0  0  0  0  0  0  0  0  0
    5.9261  -20.1935   22.6421 C   0  0  0  0  0  0  0  0  0  0  0  0
    4.6019  -20.7748   22.2189 C   0  0  0  0  0  0  0  0  0  0  0  0
    4.5364  -21.5572   21.2637 O   0  0  0  0  0  0  0  0  0  0  0  0
    7.7194  -16.9810   21.8764 C   0  0  0  0  0  0  0  0  0  0  0  0
    6.9590  -15.9845   21.6206 O   0  0  0  0  0  0  0  0  0  0  0  0
    3.4885  -20.3869   22.9501 O   0  0  0  0  0  0  0  0  0  0  0  0
    9.0061  -16.6599   22.4008 N   0  0  0  0  0  0  0  0  0  0  0  0
    9.4074  -15.2864   22.6080 C   0  0  0  0  0  0  0  0  0  0  0  0
    9.5175  -14.9704   24.0638 C   0  0  0  0  0  0  0  0  0  0  0  0
    9.9050  -13.8217   24.3848 O   0  0  0  0  0  0  0  0  0  0  0  0
    9.2071  -15.9000   25.0705 N   0  0  0  0  0  0  0  0  0  0  0  0
    9.3322  -15.6104   26.5220 C   0  0  1  0  0  0  0  0  0  0  0  0
    8.0016  -15.5897   27.1649 C   0  0  0  0  0  0  0  0  0  0  0  0
    7.1738  -14.4704   26.6603 C   0  0  0  0  0  0  0  0  0  0  0  0
    7.2401  -13.1745   27.2117 C   0  0  0  0  0  0  0  0  0  0  0  0
    6.3811  -12.3920   26.5483 N   0  0  0  0  0  0  0  0  0  0  0  0
    5.7865  -13.1476   25.6108 C   0  0  0  0  0  0  0  0  0  0  0  0
    6.2666  -14.3864   25.6859 N   0  0  0  0  0  0  0  0  0  0  0  0
   10.2000  -16.7183   27.0422 C   0  0  0  0  0  0  0  0  0  0  0  0
   10.5144  -16.7676   28.2663 O   0  0  0  0  0  0  0  0  0  0  0  0
   10.6589  -17.6866   26.1958 O   0  0  0  0  0  0  0  0  0  0  0  0
  2  1  1  1
  2  3  1  0
  3  4  1  0
  5  4  1  0
  5  9  1  0
  6  5  2  0
  7  2  1  0
  7  8  2  0
 10  7  1  0
 11 10  1  0
 11 12  1  0
 12 14  1  0
 13 12  2  0
 14 15  1  0
 15 16  1  1
 15 22  1  0
 16 17  1  0
 17 18  2  0
 18 19  1  0
 20 19  1  0
 21 17  1  0
 21 20  2  0
 22 24  1  0
 23 22  2  0
M  END
$$$$
