EGH.pdb
     RDKit          3D

 24 24  0  0  1  0  0  0  0  0999 V2000
   10.8632  -17.2686   19.8820 N   0  0  0  0  0  0  0  0  0  0  0  0
    9.4209  -17.5518   19.9255 C   0  0  1  0  0  0  0  0  0  0  0  0
    9.1665  -18.8842   19.2800 C   0  0  0  0  0  0  0  0  0  0  0  0
    9.9310  -19.0596   18.0108 C   0  0  0  0  0  0  0  0  0  0  0  0
    9.1361  -19.8646   17.0154 C   0  0  0  0  0  0  0  0  0  0  0  0
    8.0638  -20.3858   17.3430 O   0  0  0  0  0  0  0  0  0  0  0  0
    9.0157  -17.4656   21.3339 C   0  0  0  0  0  0  0  0  0  0  0  0
    9.5216  -18.2258   22.2297 O   0  0  0  0  0  0  0  0  0  0  0  0
    9.6696  -19.9813   15.7400 O   0  0  0  0  0  0  0  0  0  0  0  0
    8.0377  -16.5342   21.7919 N   0  0  0  0  0  0  0  0  0  0  0  0
    7.4641  -16.6424   23.1146 C   0  0  0  0  0  0  0  0  0  0  0  0
    8.4018  -16.1202   24.1535 C   0  0  0  0  0  0  0  0  0  0  0  0
    9.5288  -15.7204   23.7755 O   0  0  0  0  0  0  0  0  0  0  0  0
    8.0713  -16.0621   25.5178 N   0  0  0  0  0  0  0  0  0  0  0  0
    8.9334  -15.4229   26.5447 C   0  0  1  0  0  0  0  0  0  0  0  0
    8.1123  -14.6836   27.5263 C   0  0  0  0  0  0  0  0  0  0  0  0
    7.4587  -13.5071   26.9087 C   0  0  0  0  0  0  0  0  0  0  0  0
    7.8559  -12.9938   25.6570 C   0  0  0  0  0  0  0  0  0  0  0  0
    7.0832  -11.9392   25.3721 N   0  0  0  0  0  0  0  0  0  0  0  0
    6.2258  -11.7781   26.3929 C   0  0  0  0  0  0  0  0  0  0  0  0
    6.4581  -12.7190   27.3048 N   0  0  0  0  0  0  0  0  0  0  0  0
    9.6718  -16.5708   27.1678 C   0  0  0  0  0  0  0  0  0  0  0  0
    9.2765  -17.7595   26.9940 O   0  0  0  0  0  0  0  0  0  0  0  0
   10.7812  -16.3411   27.9302 O   0  0  0  0  0  0  0  0  0  0  0  0
  2  1  1  1
  2  3  1  0
  3  4  1  0
  5  4  1  0
  5  9  1  0
  6  5  2  0
  7  2  1  0
  7  8  2  0
 10  7  1  0
 11 10  1  0
 11 12  1  0
 12 14  1  0
 13 12  2  0
 14 15  1  0
 15 16  1  1
 15 22  1  0
 16 17  1  0
 17 18  2  0
 18 19  1  0
 20 19  1  0
 21 17  1  0
 21 20  2  0
 22 24  1  0
 23 22  2  0
M  END
$$$$
