EGH.pdb
     RDKit          3D

 24 24  0  0  1  0  0  0  0  0999 V2000
    9.0143  -18.2470   19.7564 N   0  0  0  0  0  0  0  0  0  0  0  0
   10.0421  -17.5986   20.5844 C   0  0  1  0  0  0  0  0  0  0  0  0
   11.2556  -17.3373   19.7384 C   0  0  0  0  0  0  0  0  0  0  0  0
   11.3966  -18.3181   18.6229 C   0  0  0  0  0  0  0  0  0  0  0  0
   12.7533  -18.9732   18.6559 C   0  0  0  0  0  0  0  0  0  0  0  0
   13.6306  -18.5612   19.4236 O   0  0  0  0  0  0  0  0  0  0  0  0
    9.4253  -16.3969   21.1593 C   0  0  0  0  0  0  0  0  0  0  0  0
   10.0810  -15.5944   21.9094 O   0  0  0  0  0  0  0  0  0  0  0  0
   12.9513  -20.0408   17.7924 O   0  0  0  0  0  0  0  0  0  0  0  0
    8.0633  -16.0483   20.9204 N   0  0  0  0  0  0  0  0  0  0  0  0
    7.4671  -14.8898   21.5472 C   0  0  0  0  0  0  0  0  0  0  0  0
    7.1085  -15.1710   22.9698 C   0  0  0  0  0  0  0  0  0  0  0  0
    6.9844  -16.3703   23.3151 O   0  0  0  0  0  0  0  0  0  0  0  0
    6.9085  -14.1555   23.9199 N   0  0  0  0  0  0  0  0  0  0  0  0
    7.3464  -14.2581   25.3355 C   0  0  1  0  0  0  0  0  0  0  0  0
    8.8204  -14.2045   25.4293 C   0  0  0  0  0  0  0  0  0  0  0  0
    9.2765  -14.2816   26.8360 C   0  0  0  0  0  0  0  0  0  0  0  0
    9.0397  -13.2468   27.7639 C   0  0  0  0  0  0  0  0  0  0  0  0
    9.5679  -13.6083   28.9390 N   0  0  0  0  0  0  0  0  0  0  0  0
   10.1209  -14.8213   28.7781 C   0  0  0  0  0  0  0  0  0  0  0  0
    9.9416  -15.2144   27.5194 N   0  0  0  0  0  0  0  0  0  0  0  0
    6.6890  -13.0884   26.0070 C   0  0  0  0  0  0  0  0  0  0  0  0
    6.0959  -13.2333   27.1146 O   0  0  0  0  0  0  0  0  0  0  0  0
    6.7261  -11.8531   25.4264 O   0  0  0  0  0  0  0  0  0  0  0  0
  2  1  1  6
  2  3  1  0
  3  4  1  0
  5  4  1  0
  5  9  1  0
  6  5  2  0
  7  2  1  0
  7  8  2  0
 10  7  1  0
 11 10  1  0
 11 12  1  0
 12 14  1  0
 13 12  2  0
 14 15  1  0
 15 16  1  6
 15 22  1  0
 16 17  1  0
 17 18  2  0
 18 19  1  0
 20 19  1  0
 21 17  1  0
 21 20  2  0
 22 24  1  0
 23 22  2  0
M  END
$$$$
