EGH.pdb
     RDKit          3D

 24 24  0  0  1  0  0  0  0  0999 V2000
   12.0291  -19.2142   19.6485 N   0  0  0  0  0  0  0  0  0  0  0  0
   11.5160  -17.9164   19.1852 C   0  0  1  0  0  0  0  0  0  0  0  0
   10.8527  -18.1032   17.8504 C   0  0  0  0  0  0  0  0  0  0  0  0
   11.8113  -18.5336   16.7912 C   0  0  0  0  0  0  0  0  0  0  0  0
   11.0800  -18.8970   15.5247 C   0  0  0  0  0  0  0  0  0  0  0  0
    9.8508  -18.7834   15.4550 O   0  0  0  0  0  0  0  0  0  0  0  0
   10.6331  -17.4092   20.2428 C   0  0  0  0  0  0  0  0  0  0  0  0
   10.2377  -16.1929   20.2667 O   0  0  0  0  0  0  0  0  0  0  0  0
   11.8532  -19.3556   14.4680 O   0  0  0  0  0  0  0  0  0  0  0  0
   10.1618  -18.2349   21.3058 N   0  0  0  0  0  0  0  0  0  0  0  0
    9.2215  -17.7321   22.2822 C   0  0  0  0  0  0  0  0  0  0  0  0
    9.9288  -17.1470   23.4607 C   0  0  0  0  0  0  0  0  0  0  0  0
   11.1782  -17.0536   23.4051 O   0  0  0  0  0  0  0  0  0  0  0  0
    9.2546  -16.7045   24.6111 N   0  0  0  0  0  0  0  0  0  0  0  0
    9.9367  -16.0780   25.7723 C   0  0  1  0  0  0  0  0  0  0  0  0
    8.9638  -15.3592   26.6215 C   0  0  0  0  0  0  0  0  0  0  0  0
    9.6027  -14.8305   27.8483 C   0  0  0  0  0  0  0  0  0  0  0  0
   10.8075  -14.0988   27.8162 C   0  0  0  0  0  0  0  0  0  0  0  0
   11.1270  -13.7619   29.0711 N   0  0  0  0  0  0  0  0  0  0  0  0
   10.1723  -14.2532   29.8776 C   0  0  0  0  0  0  0  0  0  0  0  0
    9.2672  -14.8893   29.1380 N   0  0  0  0  0  0  0  0  0  0  0  0
   10.5750  -17.2323   26.4876 C   0  0  0  0  0  0  0  0  0  0  0  0
    9.9871  -18.3500   26.5565 O   0  0  0  0  0  0  0  0  0  0  0  0
   11.8004  -17.0855   27.0717 O   0  0  0  0  0  0  0  0  0  0  0  0
  2  1  1  1
  2  3  1  0
  3  4  1  0
  5  4  1  0
  5  9  1  0
  6  5  2  0
  7  2  1  0
  7  8  2  0
 10  7  1  0
 11 10  1  0
 11 12  1  0
 12 14  1  0
 13 12  2  0
 14 15  1  0
 15 16  1  1
 15 22  1  0
 16 17  1  0
 17 18  2  0
 18 19  1  0
 20 19  1  0
 21 17  1  0
 21 20  2  0
 22 24  1  0
 23 22  2  0
M  END
$$$$
