EGH.pdb
     RDKit          3D

 24 24  0  0  1  0  0  0  0  0999 V2000
    9.9685  -20.4274   17.4212 N   0  0  0  0  0  0  0  0  0  0  0  0
    9.3738  -19.0887   17.5502 C   0  0  1  0  0  0  0  0  0  0  0  0
    8.3070  -18.9269   16.5051 C   0  0  0  0  0  0  0  0  0  0  0  0
    8.7225  -19.4637   15.1764 C   0  0  0  0  0  0  0  0  0  0  0  0
    7.6024  -19.3392   14.1760 C   0  0  0  0  0  0  0  0  0  0  0  0
    7.7595  -19.7140   13.0082 O   0  0  0  0  0  0  0  0  0  0  0  0
    8.8992  -18.9689   18.9342 C   0  0  0  0  0  0  0  0  0  0  0  0
    7.6909  -19.2350   19.2591 O   0  0  0  0  0  0  0  0  0  0  0  0
    6.4137  -18.7915   14.6359 O   0  0  0  0  0  0  0  0  0  0  0  0
    9.7495  -18.5505   20.0000 N   0  0  0  0  0  0  0  0  0  0  0  0
    9.2351  -18.3671   21.3387 C   0  0  0  0  0  0  0  0  0  0  0  0
    9.6452  -17.0439   21.8975 C   0  0  0  0  0  0  0  0  0  0  0  0
   10.5861  -16.4372   21.3324 O   0  0  0  0  0  0  0  0  0  0  0  0
    9.0240  -16.4641   23.0163 N   0  0  0  0  0  0  0  0  0  0  0  0
    9.4335  -15.1606   23.5989 C   0  0  1  0  0  0  0  0  0  0  0  0
    8.3203  -14.1904   23.5369 C   0  0  0  0  0  0  0  0  0  0  0  0
    7.9310  -13.9016   22.1377 C   0  0  0  0  0  0  0  0  0  0  0  0
    8.6072  -12.9495   21.3476 C   0  0  0  0  0  0  0  0  0  0  0  0
    8.0268  -12.9166   20.1424 N   0  0  0  0  0  0  0  0  0  0  0  0
    7.0214  -13.8067   20.1530 C   0  0  0  0  0  0  0  0  0  0  0  0
    6.9727  -14.3892   21.3484 N   0  0  0  0  0  0  0  0  0  0  0  0
    9.8202  -15.4960   25.0094 C   0  0  0  0  0  0  0  0  0  0  0  0
    9.5412  -16.6277   25.5003 O   0  0  0  0  0  0  0  0  0  0  0  0
   10.4793  -14.5794   25.7773 O   0  0  0  0  0  0  0  0  0  0  0  0
  2  1  1  1
  2  3  1  0
  3  4  1  0
  5  4  1  0
  5  9  1  0
  6  5  2  0
  7  2  1  0
  7  8  2  0
 10  7  1  0
 11 10  1  0
 11 12  1  0
 12 14  1  0
 13 12  2  0
 14 15  1  0
 15 16  1  1
 15 22  1  0
 16 17  1  0
 17 18  2  0
 18 19  1  0
 20 19  1  0
 21 17  1  0
 21 20  2  0
 22 24  1  0
 23 22  2  0
M  END
$$$$
