EGH.pdb
     RDKit          3D

 24 24  0  0  1  0  0  0  0  0999 V2000
   10.2346  -17.8966   18.6412 N   0  0  0  0  0  0  0  0  0  0  0  0
    9.1648  -18.7693   18.1348 C   0  0  1  0  0  0  0  0  0  0  0  0
    9.7234  -20.1459   17.9129 C   0  0  0  0  0  0  0  0  0  0  0  0
    9.4814  -20.6444   16.5276 C   0  0  0  0  0  0  0  0  0  0  0  0
   10.2004  -21.9483   16.2958 C   0  0  0  0  0  0  0  0  0  0  0  0
   11.4356  -21.9849   16.2529 O   0  0  0  0  0  0  0  0  0  0  0  0
    8.0684  -18.7022   19.1088 C   0  0  0  0  0  0  0  0  0  0  0  0
    6.9067  -19.1717   18.8510 O   0  0  0  0  0  0  0  0  0  0  0  0
    9.4094  -23.0769   16.1375 O   0  0  0  0  0  0  0  0  0  0  0  0
    8.2265  -18.1128   20.3977 N   0  0  0  0  0  0  0  0  0  0  0  0
    7.1125  -18.0081   21.3134 C   0  0  0  0  0  0  0  0  0  0  0  0
    7.3937  -17.0153   22.3936 C   0  0  0  0  0  0  0  0  0  0  0  0
    6.4820  -16.7786   23.2215 O   0  0  0  0  0  0  0  0  0  0  0  0
    8.6242  -16.3478   22.5130 N   0  0  0  0  0  0  0  0  0  0  0  0
    8.8592  -15.2215   23.4524 C   0  0  1  0  0  0  0  0  0  0  0  0
    7.8269  -14.1776   23.2816 C   0  0  0  0  0  0  0  0  0  0  0  0
    7.8545  -13.6072   21.9154 C   0  0  0  0  0  0  0  0  0  0  0  0
    8.8390  -13.9605   20.9700 C   0  0  0  0  0  0  0  0  0  0  0  0
    8.5977  -13.2844   19.8408 N   0  0  0  0  0  0  0  0  0  0  0  0
    7.5070  -12.5286   20.0468 C   0  0  0  0  0  0  0  0  0  0  0  0
    7.0711  -12.7285   21.2881 N   0  0  0  0  0  0  0  0  0  0  0  0
    8.8059  -15.8600   24.8091 C   0  0  0  0  0  0  0  0  0  0  0  0
    8.4082  -17.0532   24.9427 O   0  0  0  0  0  0  0  0  0  0  0  0
    9.1883  -15.1562   25.9150 O   0  0  0  0  0  0  0  0  0  0  0  0
  2  1  1  1
  2  3  1  0
  3  4  1  0
  5  4  1  0
  5  9  1  0
  6  5  2  0
  7  2  1  0
  7  8  2  0
 10  7  1  0
 11 10  1  0
 11 12  1  0
 12 14  1  0
 13 12  2  0
 14 15  1  0
 15 16  1  1
 15 22  1  0
 16 17  1  0
 17 18  2  0
 18 19  1  0
 20 19  1  0
 21 17  1  0
 21 20  2  0
 22 24  1  0
 23 22  2  0
M  END
$$$$
