EGH.pdb
     RDKit          3D

 24 24  0  0  1  0  0  0  0  0999 V2000
   12.0750  -15.9961   17.7378 N   0  0  0  0  0  0  0  0  0  0  0  0
   12.2803  -15.8373   19.1853 C   0  0  1  0  0  0  0  0  0  0  0  0
   13.3380  -14.7959   19.4158 C   0  0  0  0  0  0  0  0  0  0  0  0
   13.5495  -13.9226   18.2247 C   0  0  0  0  0  0  0  0  0  0  0  0
   14.9334  -14.1147   17.6603 C   0  0  0  0  0  0  0  0  0  0  0  0
   15.0886  -14.4650   16.4847 O   0  0  0  0  0  0  0  0  0  0  0  0
   10.9698  -15.5189   19.7653 C   0  0  0  0  0  0  0  0  0  0  0  0
   10.0320  -14.9973   19.0690 O   0  0  0  0  0  0  0  0  0  0  0  0
   15.9959  -13.8798   18.5209 O   0  0  0  0  0  0  0  0  0  0  0  0
   10.6592  -15.7691   21.1345 N   0  0  0  0  0  0  0  0  0  0  0  0
    9.3206  -15.5744   21.6450 C   0  0  0  0  0  0  0  0  0  0  0  0
    9.2215  -15.9974   23.0742 C   0  0  0  0  0  0  0  0  0  0  0  0
    8.1179  -15.8511   23.6517 O   0  0  0  0  0  0  0  0  0  0  0  0
   10.3038  -16.5448   23.7832 N   0  0  0  0  0  0  0  0  0  0  0  0
   10.1474  -17.4077   24.9821 C   0  0  1  0  0  0  0  0  0  0  0  0
   10.7879  -18.7217   24.7645 C   0  0  0  0  0  0  0  0  0  0  0  0
   10.8404  -19.5122   26.0155 C   0  0  0  0  0  0  0  0  0  0  0  0
   10.2285  -19.0775   27.2090 C   0  0  0  0  0  0  0  0  0  0  0  0
   10.4493  -19.9994   28.1534 N   0  0  0  0  0  0  0  0  0  0  0  0
   11.1710  -20.9851   27.5958 C   0  0  0  0  0  0  0  0  0  0  0  0
   11.3992  -20.6847   26.3197 N   0  0  0  0  0  0  0  0  0  0  0  0
   10.8053  -16.6275   26.0821 C   0  0  0  0  0  0  0  0  0  0  0  0
   11.4998  -15.6042   25.8176 O   0  0  0  0  0  0  0  0  0  0  0  0
   10.6587  -17.0167   27.3827 O   0  0  0  0  0  0  0  0  0  0  0  0
  2  1  1  6
  2  3  1  0
  3  4  1  0
  5  4  1  0
  5  9  1  0
  6  5  2  0
  7  2  1  0
  7  8  2  0
 10  7  1  0
 11 10  1  0
 11 12  1  0
 12 14  1  0
 13 12  2  0
 14 15  1  0
 15 16  1  6
 15 22  1  0
 16 17  1  0
 17 18  2  0
 18 19  1  0
 20 19  1  0
 21 17  1  0
 21 20  2  0
 22 24  1  0
 23 22  2  0
M  END
$$$$
