EGH.pdb
     RDKit          3D

 24 24  0  0  1  0  0  0  0  0999 V2000
    7.2772  -18.5256   21.6653 N   0  0  0  0  0  0  0  0  0  0  0  0
    8.7150  -18.4244   21.3739 C   0  0  1  0  0  0  0  0  0  0  0  0
    8.9636  -18.9096   19.9742 C   0  0  0  0  0  0  0  0  0  0  0  0
    8.0377  -18.2901   18.9816 C   0  0  0  0  0  0  0  0  0  0  0  0
    8.2714  -18.8587   17.6058 C   0  0  0  0  0  0  0  0  0  0  0  0
    7.5555  -18.5191   16.6565 O   0  0  0  0  0  0  0  0  0  0  0  0
    9.0977  -17.0278   21.6156 C   0  0  0  0  0  0  0  0  0  0  0  0
   10.3140  -16.6385   21.5408 O   0  0  0  0  0  0  0  0  0  0  0  0
    9.3140  -19.7644   17.4742 O   0  0  0  0  0  0  0  0  0  0  0  0
    8.1441  -16.0208   21.9476 N   0  0  0  0  0  0  0  0  0  0  0  0
    8.5500  -14.6508   22.1687 C   0  0  0  0  0  0  0  0  0  0  0  0
    8.9250  -14.4233   23.5967 C   0  0  0  0  0  0  0  0  0  0  0  0
    9.3026  -13.2735   23.9255 O   0  0  0  0  0  0  0  0  0  0  0  0
    8.8704  -15.4357   24.5691 N   0  0  0  0  0  0  0  0  0  0  0  0
    9.2640  -15.2340   25.9871 C   0  0  1  0  0  0  0  0  0  0  0  0
    8.0691  -15.1698   26.8546 C   0  0  0  0  0  0  0  0  0  0  0  0
    7.2584  -13.9635   26.5713 C   0  0  0  0  0  0  0  0  0  0  0  0
    7.6342  -12.6800   27.0177 C   0  0  0  0  0  0  0  0  0  0  0  0
    6.7079  -11.8056   26.6078 N   0  0  0  0  0  0  0  0  0  0  0  0
    5.7759  -12.4926   25.9275 C   0  0  0  0  0  0  0  0  0  0  0  0
    6.1138  -13.7796   25.9115 N   0  0  0  0  0  0  0  0  0  0  0  0
   10.1315  -16.4182   26.2976 C   0  0  0  0  0  0  0  0  0  0  0  0
   10.3301  -17.3149   25.4281 O   0  0  0  0  0  0  0  0  0  0  0  0
   10.7166  -16.5379   27.5256 O   0  0  0  0  0  0  0  0  0  0  0  0
  2  1  1  6
  2  3  1  0
  3  4  1  0
  5  4  1  0
  5  9  1  0
  6  5  2  0
  7  2  1  0
  7  8  2  0
 10  7  1  0
 11 10  1  0
 11 12  1  0
 12 14  1  0
 13 12  2  0
 14 15  1  0
 15 16  1  1
 15 22  1  0
 16 17  1  0
 17 18  2  0
 18 19  1  0
 20 19  1  0
 21 17  1  0
 21 20  2  0
 22 24  1  0
 23 22  2  0
M  END
$$$$
