EGH.pdb
     RDKit          3D

 24 24  0  0  1  0  0  0  0  0999 V2000
    8.3910  -17.9625   20.4058 N   0  0  0  0  0  0  0  0  0  0  0  0
    7.1553  -17.8053   21.1874 C   0  0  1  0  0  0  0  0  0  0  0  0
    7.1726  -18.7830   22.3277 C   0  0  0  0  0  0  0  0  0  0  0  0
    8.5511  -19.0455   22.8346 C   0  0  0  0  0  0  0  0  0  0  0  0
    8.5461  -20.1689   23.8389 C   0  0  0  0  0  0  0  0  0  0  0  0
    7.4939  -20.7537   24.1212 O   0  0  0  0  0  0  0  0  0  0  0  0
    7.0865  -16.3952   21.5898 C   0  0  0  0  0  0  0  0  0  0  0  0
    6.0477  -15.9034   22.1515 O   0  0  0  0  0  0  0  0  0  0  0  0
    9.7657  -20.4978   24.4126 O   0  0  0  0  0  0  0  0  0  0  0  0
    8.1667  -15.4877   21.3820 N   0  0  0  0  0  0  0  0  0  0  0  0
    8.0873  -14.1157   21.8310 C   0  0  0  0  0  0  0  0  0  0  0  0
    8.5341  -13.9861   23.2505 C   0  0  0  0  0  0  0  0  0  0  0  0
    8.6713  -12.8299   23.7167 O   0  0  0  0  0  0  0  0  0  0  0  0
    8.8018  -15.0961   24.0691 N   0  0  0  0  0  0  0  0  0  0  0  0
    9.2478  -14.9857   25.4816 C   0  0  1  0  0  0  0  0  0  0  0  0
    8.1147  -15.2088   26.4039 C   0  0  0  0  0  0  0  0  0  0  0  0
    7.2276  -14.0250   26.4681 C   0  0  0  0  0  0  0  0  0  0  0  0
    7.7181  -12.7272   26.7189 C   0  0  0  0  0  0  0  0  0  0  0  0
    6.6827  -11.8796   26.7155 N   0  0  0  0  0  0  0  0  0  0  0  0
    5.5735  -12.5967   26.4735 C   0  0  0  0  0  0  0  0  0  0  0  0
    5.9095  -13.8760   26.3273 N   0  0  0  0  0  0  0  0  0  0  0  0
   10.3072  -16.0400   25.6137 C   0  0  0  0  0  0  0  0  0  0  0  0
   10.8770  -16.2429   26.7245 O   0  0  0  0  0  0  0  0  0  0  0  0
   10.6660  -16.7926   24.5323 O   0  0  0  0  0  0  0  0  0  0  0  0
  2  1  1  1
  2  3  1  0
  3  4  1  0
  5  4  1  0
  5  9  1  0
  6  5  2  0
  7  2  1  0
  7  8  2  0
 10  7  1  0
 11 10  1  0
 11 12  1  0
 12 14  1  0
 13 12  2  0
 14 15  1  0
 15 16  1  1
 15 22  1  0
 16 17  1  0
 17 18  2  0
 18 19  1  0
 20 19  1  0
 21 17  1  0
 21 20  2  0
 22 24  1  0
 23 22  2  0
M  END
$$$$
