PSP.pdb
     RDKit          3D

 21 22  0  0  1  0  0  0  0  0999 V2000
   14.1329  -18.7017    4.1366 N   0  0  0  0  0  0  0  0  0  0  0  0
   13.0413  -18.6217    3.1983 C   0  0  0  0  0  0  0  0  0  0  0  0
   13.3658  -17.3822    2.4162 C   0  0  0  0  0  0  0  0  0  0  0  0
   14.8966  -17.4003    2.4053 C   0  0  0  0  0  0  0  0  0  0  0  0
   15.2937  -18.5376    3.2992 C   0  0  1  0  0  0  0  0  0  0  0  0
   16.5219  -18.2488    4.0903 C   0  0  0  0  0  0  0  0  0  0  0  0
   17.5841  -18.1394    3.4559 O   0  0  0  0  0  0  0  0  0  0  0  0
   18.2522  -16.1907    8.0631 O   0  0  0  0  0  0  0  0  0  0  0  0
   17.2707  -16.6569    7.2586 C   0  0  0  0  0  0  0  0  0  0  0  0
   17.6485  -17.7601    6.2907 C   0  0  2  0  0  0  0  0  0  0  0  0
   16.4509  -18.1105    5.5010 N   0  0  0  0  0  0  0  0  0  0  0  0
   18.2197  -18.9572    6.9105 C   0  0  0  0  0  0  0  0  0  0  0  0
   17.3598  -19.8405    7.2952 O   0  0  0  0  0  0  0  0  0  0  0  0
   19.6015  -19.2436    7.1239 N   0  0  0  0  0  0  0  0  0  0  0  0
   20.6905  -18.4138    6.6732 C   0  0  0  0  0  0  0  0  0  0  0  0
   21.8157  -19.4492    6.4137 C   0  0  0  0  0  0  0  0  0  0  0  0
   21.6362  -20.2744    7.6710 C   0  0  0  0  0  0  0  0  0  0  0  0
   20.1587  -20.3885    7.7911 C   0  0  1  0  0  0  0  0  0  0  0  0
   19.6932  -20.5123    9.1926 C   0  0  0  0  0  0  0  0  0  0  0  0
   19.8469  -21.7392    9.8107 O   0  0  0  0  0  0  0  0  0  0  0  0
   19.1789  -19.5745    9.8250 O   0  0  0  0  0  0  0  0  0  0  0  0
  2  1  1  0
  3  2  1  0
  4  3  1  0
  4  5  1  0
  5  1  1  0
  6 11  1  0
  5  6  1  1
  7  6  2  0
  9  8  1  0
 10  9  1  1
 10 11  1  0
 10 12  1  0
 12 13  2  0
 14 12  1  0
 14 15  1  0
 16 15  1  0
 17 16  1  0
 18 17  1  0
 18 14  1  0
 18 19  1  1
 19 20  1  0
 21 19  2  0
M  END
$$$$
