PSP.pdb
     RDKit          3D

 21 22  0  0  1  0  0  0  0  0999 V2000
   22.5215  -21.1224  -15.2166 N   0  0  0  0  0  0  0  0  0  0  0  0
   21.4598  -20.6854  -16.0884 C   0  0  0  0  0  0  0  0  0  0  0  0
   22.1711  -19.7761  -17.0480 C   0  0  0  0  0  0  0  0  0  0  0  0
   23.5507  -20.4319  -17.1501 C   0  0  0  0  0  0  0  0  0  0  0  0
   23.5478  -21.5390  -16.1380 C   0  0  1  0  0  0  0  0  0  0  0  0
   24.8670  -21.7138  -15.4695 C   0  0  0  0  0  0  0  0  0  0  0  0
   25.8030  -22.1238  -16.1755 O   0  0  0  0  0  0  0  0  0  0  0  0
   27.1498  -18.4384  -13.8850 O   0  0  0  0  0  0  0  0  0  0  0  0
   26.2300  -19.3316  -14.3141 C   0  0  0  0  0  0  0  0  0  0  0  0
   26.1889  -20.6662  -13.5974 C   0  0  2  0  0  0  0  0  0  0  0  0
   25.0171  -21.4179  -14.0896 N   0  0  0  0  0  0  0  0  0  0  0  0
   26.1647  -20.5823  -12.1360 C   0  0  0  0  0  0  0  0  0  0  0  0
   25.0220  -20.2691  -11.6223 O   0  0  0  0  0  0  0  0  0  0  0  0
   27.2515  -20.8114  -11.2396 N   0  0  0  0  0  0  0  0  0  0  0  0
   28.6196  -21.0164  -11.6444 C   0  0  0  0  0  0  0  0  0  0  0  0
   29.1597  -21.9573  -10.5360 C   0  0  0  0  0  0  0  0  0  0  0  0
   28.5626  -21.2408   -9.3426 C   0  0  0  0  0  0  0  0  0  0  0  0
   27.1918  -20.8990   -9.8060 C   0  0  1  0  0  0  0  0  0  0  0  0
   26.6536  -19.6668   -9.1828 C   0  0  0  0  0  0  0  0  0  0  0  0
   26.2184  -19.7508   -7.8735 O   0  0  0  0  0  0  0  0  0  0  0  0
   26.5785  -18.5789   -9.7786 O   0  0  0  0  0  0  0  0  0  0  0  0
  2  1  1  0
  3  2  1  0
  4  3  1  0
  4  5  1  0
  5  1  1  0
  6 11  1  0
  5  6  1  1
  7  6  2  0
  9  8  1  0
 10  9  1  6
 10 11  1  0
 10 12  1  0
 12 13  2  0
 14 12  1  0
 14 15  1  0
 16 15  1  0
 17 16  1  0
 18 17  1  0
 18 14  1  0
 18 19  1  1
 19 20  1  0
 21 19  2  0
M  END
$$$$
