PSP.pdb
     RDKit          3D

 21 22  0  0  1  0  0  0  0  0999 V2000
   24.1950  -20.6117  -10.3548 N   0  0  0  0  0  0  0  0  0  0  0  0
   24.6830  -20.4542   -9.0074 C   0  0  0  0  0  0  0  0  0  0  0  0
   26.0367  -21.1004   -9.0669 C   0  0  0  0  0  0  0  0  0  0  0  0
   26.4805  -20.7863  -10.4980 C   0  0  0  0  0  0  0  0  0  0  0  0
   25.2964  -20.1421  -11.1562 C   0  0  1  0  0  0  0  0  0  0  0  0
   25.1531  -20.5239  -12.5884 C   0  0  0  0  0  0  0  0  0  0  0  0
   26.0366  -20.1261  -13.3655 O   0  0  0  0  0  0  0  0  0  0  0  0
   23.7427  -23.7016  -15.7792 O   0  0  0  0  0  0  0  0  0  0  0  0
   24.0165  -23.1673  -14.5678 C   0  0  0  0  0  0  0  0  0  0  0  0
   23.8765  -21.6639  -14.4379 C   0  0  2  0  0  0  0  0  0  0  0  0
   24.0486  -21.3061  -13.0156 N   0  0  0  0  0  0  0  0  0  0  0  0
   22.6224  -21.1132  -14.9549 C   0  0  0  0  0  0  0  0  0  0  0  0
   21.6162  -21.1865  -14.1486 O   0  0  0  0  0  0  0  0  0  0  0  0
   22.4042  -20.5117  -16.2307 N   0  0  0  0  0  0  0  0  0  0  0  0
   23.4324  -20.2742  -17.2124 C   0  0  0  0  0  0  0  0  0  0  0  0
   22.9214  -18.9985  -17.9312 C   0  0  0  0  0  0  0  0  0  0  0  0
   21.4699  -19.4062  -18.0764 C   0  0  0  0  0  0  0  0  0  0  0  0
   21.1600  -20.0234  -16.7598 C   0  0  1  0  0  0  0  0  0  0  0  0
   20.1221  -21.0784  -16.8378 C   0  0  0  0  0  0  0  0  0  0  0  0
   18.8038  -20.6721  -16.9282 O   0  0  0  0  0  0  0  0  0  0  0  0
   20.3831  -22.2932  -16.8254 O   0  0  0  0  0  0  0  0  0  0  0  0
  2  1  1  0
  3  2  1  0
  4  3  1  0
  4  5  1  0
  5  1  1  0
  6 11  1  0
  5  6  1  6
  7  6  2  0
  9  8  1  0
 10  9  1  1
 10 11  1  0
 10 12  1  0
 12 13  2  0
 14 12  1  0
 14 15  1  0
 16 15  1  0
 17 16  1  0
 18 17  1  0
 18 14  1  0
 18 19  1  6
 19 20  1  0
 21 19  2  0
M  END
$$$$
