PSP.pdb
     RDKit          3D

 21 22  0  0  1  0  0  0  0  0999 V2000
   27.3503  -21.9152  -17.9539 N   0  0  0  0  0  0  0  0  0  0  0  0
   27.8585  -22.4286  -19.2014 C   0  0  0  0  0  0  0  0  0  0  0  0
   29.3073  -22.0382  -19.1555 C   0  0  0  0  0  0  0  0  0  0  0  0
   29.6178  -22.1293  -17.6592 C   0  0  0  0  0  0  0  0  0  0  0  0
   28.3035  -22.4024  -16.9897 C   0  0  1  0  0  0  0  0  0  0  0  0
   28.1725  -21.7179  -15.6736 C   0  0  0  0  0  0  0  0  0  0  0  0
   28.8832  -22.1429  -14.7478 O   0  0  0  0  0  0  0  0  0  0  0  0
   26.2233  -17.9378  -15.2071 O   0  0  0  0  0  0  0  0  0  0  0  0
   27.1475  -18.4909  -14.3899 C   0  0  0  0  0  0  0  0  0  0  0  0
   27.0778  -19.9926  -14.1989 C   0  0  2  0  0  0  0  0  0  0  0  0
   27.2700  -20.6341  -15.5150 N   0  0  0  0  0  0  0  0  0  0  0  0
   25.8492  -20.4790  -13.5684 C   0  0  0  0  0  0  0  0  0  0  0  0
   24.9618  -20.9464  -14.3818 O   0  0  0  0  0  0  0  0  0  0  0  0
   25.5408  -20.4933  -12.1749 N   0  0  0  0  0  0  0  0  0  0  0  0
   26.4690  -20.1539  -11.1257 C   0  0  0  0  0  0  0  0  0  0  0  0
   25.9896  -21.0474   -9.9521 C   0  0  0  0  0  0  0  0  0  0  0  0
   24.5020  -20.8014  -10.0946 C   0  0  0  0  0  0  0  0  0  0  0  0
   24.2906  -20.8564  -11.5652 C   0  0  1  0  0  0  0  0  0  0  0  0
   23.1656  -20.0095  -12.0270 C   0  0  0  0  0  0  0  0  0  0  0  0
   21.8832  -20.4392  -11.7408 O   0  0  0  0  0  0  0  0  0  0  0  0
   23.3243  -18.9465  -12.6506 O   0  0  0  0  0  0  0  0  0  0  0  0
  2  1  1  0
  3  2  1  0
  4  3  1  0
  4  5  1  0
  5  1  1  0
  6 11  1  0
  5  6  1  1
  7  6  2  0
  9  8  1  0
 10  9  1  6
 10 11  1  0
 10 12  1  0
 12 13  2  0
 14 12  1  0
 14 15  1  0
 16 15  1  0
 17 16  1  0
 18 17  1  0
 18 14  1  0
 18 19  1  1
 19 20  1  0
 21 19  2  0
M  END
$$$$
