PSP.pdb
     RDKit          3D

 21 22  0  0  1  0  0  0  0  0999 V2000
   26.3924  -20.2679  -13.8611 N   0  0  0  0  0  0  0  0  0  0  0  0
   27.0545  -21.0344  -14.8870 C   0  0  0  0  0  0  0  0  0  0  0  0
   28.4382  -21.2074  -14.3314 C   0  0  0  0  0  0  0  0  0  0  0  0
   28.1731  -21.2834  -12.8255 C   0  0  0  0  0  0  0  0  0  0  0  0
   26.7110  -20.9927  -12.6575 C   0  0  1  0  0  0  0  0  0  0  0  0
   26.4166  -20.2024  -11.4301 C   0  0  0  0  0  0  0  0  0  0  0  0
   26.2888  -18.9750  -11.5712 O   0  0  0  0  0  0  0  0  0  0  0  0
   24.0581  -21.2657   -8.3244 O   0  0  0  0  0  0  0  0  0  0  0  0
   24.6202  -20.0680   -8.6029 C   0  0  0  0  0  0  0  0  0  0  0  0
   26.0990  -20.0689   -8.9339 C   0  0  2  0  0  0  0  0  0  0  0  0
   26.2937  -20.8488  -10.1726 N   0  0  0  0  0  0  0  0  0  0  0  0
   26.9699  -20.5735   -7.8706 C   0  0  0  0  0  0  0  0  0  0  0  0
   27.1157  -21.8564   -7.8420 O   0  0  0  0  0  0  0  0  0  0  0  0
   27.6635  -19.8077   -6.8860 N   0  0  0  0  0  0  0  0  0  0  0  0
   27.8021  -18.3732   -6.9102 C   0  0  0  0  0  0  0  0  0  0  0  0
   29.1746  -18.1574   -6.2208 C   0  0  0  0  0  0  0  0  0  0  0  0
   28.9887  -19.1288   -5.0737 C   0  0  0  0  0  0  0  0  0  0  0  0
   28.3535  -20.3038   -5.7266 C   0  0  1  0  0  0  0  0  0  0  0  0
   27.4648  -21.0679   -4.8196 C   0  0  0  0  0  0  0  0  0  0  0  0
   28.0572  -21.7671   -3.7846 O   0  0  0  0  0  0  0  0  0  0  0  0
   26.2295  -21.1057   -4.9486 O   0  0  0  0  0  0  0  0  0  0  0  0
  2  1  1  0
  3  2  1  0
  4  3  1  0
  4  5  1  0
  5  1  1  0
  6 11  1  0
  5  6  1  1
  7  6  2  0
  9  8  1  0
 10  9  1  1
 10 11  1  0
 10 12  1  0
 12 13  2  0
 14 12  1  0
 14 15  1  0
 16 15  1  0
 17 16  1  0
 18 17  1  0
 18 14  1  0
 18 19  1  1
 19 20  1  0
 21 19  2  0
M  END
$$$$
