PSP.pdb
     RDKit          3D

 21 22  0  0  1  0  0  0  0  0999 V2000
   18.9254  -16.0462  -16.1533 N   0  0  0  0  0  0  0  0  0  0  0  0
   18.0101  -17.1524  -16.2834 C   0  0  0  0  0  0  0  0  0  0  0  0
   17.3346  -16.8720  -17.5944 C   0  0  0  0  0  0  0  0  0  0  0  0
   18.4532  -16.2005  -18.3955 C   0  0  0  0  0  0  0  0  0  0  0  0
   19.5888  -16.0213  -17.4319 C   0  0  1  0  0  0  0  0  0  0  0  0
   20.3385  -14.7536  -17.6523 C   0  0  0  0  0  0  0  0  0  0  0  0
   21.0903  -14.7117  -18.6400 O   0  0  0  0  0  0  0  0  0  0  0  0
   20.8548  -10.5835  -18.6394 O   0  0  0  0  0  0  0  0  0  0  0  0
   20.4320  -11.8284  -18.3238 C   0  0  0  0  0  0  0  0  0  0  0  0
   20.8854  -12.3848  -16.9891 C   0  0  2  0  0  0  0  0  0  0  0  0
   20.1809  -13.6621  -16.7589 N   0  0  0  0  0  0  0  0  0  0  0  0
   20.6980  -11.4857  -15.8490 C   0  0  0  0  0  0  0  0  0  0  0  0
   19.4965  -11.4385  -15.3779 O   0  0  0  0  0  0  0  0  0  0  0  0
   21.6884  -10.6766  -15.2153 N   0  0  0  0  0  0  0  0  0  0  0  0
   23.0881  -10.6733  -15.5592 C   0  0  0  0  0  0  0  0  0  0  0  0
   23.7656  -10.3448  -14.2033 C   0  0  0  0  0  0  0  0  0  0  0  0
   22.8363   -9.2308  -13.7683 C   0  0  0  0  0  0  0  0  0  0  0  0
   21.4922   -9.7517  -14.1324 C   0  0  1  0  0  0  0  0  0  0  0  0
   20.5210   -8.6832  -14.4660 C   0  0  0  0  0  0  0  0  0  0  0  0
   19.9156   -8.0195  -13.4153 O   0  0  0  0  0  0  0  0  0  0  0  0
   20.2329   -8.3641  -15.6318 O   0  0  0  0  0  0  0  0  0  0  0  0
  2  1  1  0
  3  2  1  0
  4  3  1  0
  4  5  1  0
  5  1  1  0
  6 11  1  0
  5  6  1  6
  7  6  2  0
  9  8  1  0
 10  9  1  6
 10 11  1  0
 10 12  1  0
 12 13  2  0
 14 12  1  0
 14 15  1  0
 16 15  1  0
 17 16  1  0
 18 17  1  0
 18 14  1  0
 18 19  1  6
 19 20  1  0
 21 19  2  0
M  END
$$$$
