PSP.pdb
     RDKit          3D

 21 22  0  0  1  0  0  0  0  0999 V2000
   25.0976  -22.5027  -12.3573 N   0  0  0  0  0  0  0  0  0  0  0  0
   24.5011  -22.8011  -13.6354 C   0  0  0  0  0  0  0  0  0  0  0  0
   24.9062  -21.6237  -14.4739 C   0  0  0  0  0  0  0  0  0  0  0  0
   26.2803  -21.2748  -13.8961 C   0  0  0  0  0  0  0  0  0  0  0  0
   26.4554  -22.1670  -12.7030 C   0  0  1  0  0  0  0  0  0  0  0  0
   27.1725  -21.4984  -11.5821 C   0  0  0  0  0  0  0  0  0  0  0  0
   28.2961  -21.0329  -11.8342 O   0  0  0  0  0  0  0  0  0  0  0  0
   25.3704  -18.2404   -8.9184 O   0  0  0  0  0  0  0  0  0  0  0  0
   25.5527  -19.2812   -9.7619 C   0  0  0  0  0  0  0  0  0  0  0  0
   26.7238  -20.1980   -9.4709 C   0  0  2  0  0  0  0  0  0  0  0  0
   26.5750  -21.4124  -10.2977 N   0  0  0  0  0  0  0  0  0  0  0  0
   26.8920  -20.5572   -8.0616 C   0  0  0  0  0  0  0  0  0  0  0  0
   26.0297  -21.4022   -7.6030 O   0  0  0  0  0  0  0  0  0  0  0  0
   27.8940  -20.0823   -7.1629 N   0  0  0  0  0  0  0  0  0  0  0  0
   29.0081  -19.2502   -7.5419 C   0  0  0  0  0  0  0  0  0  0  0  0
   30.1085  -19.6864   -6.5397 C   0  0  0  0  0  0  0  0  0  0  0  0
   29.2550  -19.7125   -5.2887 C   0  0  0  0  0  0  0  0  0  0  0  0
   27.9946  -20.3491   -5.7539 C   0  0  1  0  0  0  0  0  0  0  0  0
   26.7992  -19.8981   -5.0030 C   0  0  0  0  0  0  0  0  0  0  0  0
   26.6564  -20.3436   -3.7021 O   0  0  0  0  0  0  0  0  0  0  0  0
   25.9339  -19.1484   -5.4860 O   0  0  0  0  0  0  0  0  0  0  0  0
  2  1  1  0
  3  2  1  0
  4  3  1  0
  4  5  1  0
  5  1  1  0
  6 11  1  0
  5  6  1  1
  7  6  2  0
  9  8  1  0
 10  9  1  1
 10 11  1  0
 10 12  1  0
 12 13  2  0
 14 12  1  0
 14 15  1  0
 16 15  1  0
 17 16  1  0
 18 17  1  0
 18 14  1  0
 18 19  1  1
 19 20  1  0
 21 19  2  0
M  END
$$$$
