PSP.pdb
     RDKit          3D

 21 22  0  0  1  0  0  0  0  0999 V2000
   25.4009  -12.1443  -15.9605 N   0  0  0  0  0  0  0  0  0  0  0  0
   26.2728  -13.2883  -15.8646 C   0  0  0  0  0  0  0  0  0  0  0  0
   27.2858  -13.0249  -16.9406 C   0  0  0  0  0  0  0  0  0  0  0  0
   27.3824  -11.4971  -16.9246 C   0  0  0  0  0  0  0  0  0  0  0  0
   26.3203  -11.0351  -15.9713 C   0  0  1  0  0  0  0  0  0  0  0  0
   25.6682   -9.7678  -16.4031 C   0  0  0  0  0  0  0  0  0  0  0  0
   26.3831   -8.7527  -16.4358 O   0  0  0  0  0  0  0  0  0  0  0  0
   22.8810   -9.6199  -19.3450 O   0  0  0  0  0  0  0  0  0  0  0  0
   22.5344   -8.9555  -18.2197 C   0  0  0  0  0  0  0  0  0  0  0  0
   23.6638   -8.5332  -17.3017 C   0  0  2  0  0  0  0  0  0  0  0  0
   24.2933   -9.7518  -16.7546 N   0  0  0  0  0  0  0  0  0  0  0  0
   23.2740   -7.6293  -16.2180 C   0  0  0  0  0  0  0  0  0  0  0  0
   22.8854   -8.2092  -15.1315 O   0  0  0  0  0  0  0  0  0  0  0  0
   23.2842   -6.2022  -16.2379 N   0  0  0  0  0  0  0  0  0  0  0  0
   23.7575   -5.4004  -17.3382 C   0  0  0  0  0  0  0  0  0  0  0  0
   24.2996   -4.1357  -16.6225 C   0  0  0  0  0  0  0  0  0  0  0  0
   23.1527   -3.9342  -15.6541 C   0  0  0  0  0  0  0  0  0  0  0  0
   22.8564   -5.3154  -15.1904 C   0  0  1  0  0  0  0  0  0  0  0  0
   21.4356   -5.5164  -14.8200 C   0  0  0  0  0  0  0  0  0  0  0  0
   21.0673   -5.2261  -13.5196 O   0  0  0  0  0  0  0  0  0  0  0  0
   20.5756   -5.9283  -15.6167 O   0  0  0  0  0  0  0  0  0  0  0  0
  2  1  1  0
  3  2  1  0
  4  3  1  0
  4  5  1  0
  5  1  1  0
  6 11  1  0
  5  6  1  6
  7  6  2  0
  9  8  1  0
 10  9  1  1
 10 11  1  0
 10 12  1  0
 12 13  2  0
 14 12  1  0
 14 15  1  0
 16 15  1  0
 17 16  1  0
 18 17  1  0
 18 14  1  0
 18 19  1  6
 19 20  1  0
 21 19  2  0
M  END
$$$$
