PSP.pdb
     RDKit          3D

 21 22  0  0  1  0  0  0  0  0999 V2000
   20.1608  -14.0634  -19.5250 N   0  0  0  0  0  0  0  0  0  0  0  0
   19.7068  -15.1929  -20.2972 C   0  0  0  0  0  0  0  0  0  0  0  0
   20.9902  -15.7947  -20.7914 C   0  0  0  0  0  0  0  0  0  0  0  0
   21.9502  -15.4988  -19.6361 C   0  0  0  0  0  0  0  0  0  0  0  0
   21.1799  -14.6347  -18.6820 C   0  0  1  0  0  0  0  0  0  0  0  0
   22.0249  -13.5927  -18.0356 C   0  0  0  0  0  0  0  0  0  0  0  0
   22.9134  -13.9908  -17.2643 O   0  0  0  0  0  0  0  0  0  0  0  0
   23.7661   -9.1189  -18.1898 O   0  0  0  0  0  0  0  0  0  0  0  0
   23.1373  -10.2241  -18.6492 C   0  0  0  0  0  0  0  0  0  0  0  0
   22.5740  -11.1707  -17.6084 C   0  0  2  0  0  0  0  0  0  0  0  0
   21.8019  -12.2176  -18.3073 N   0  0  0  0  0  0  0  0  0  0  0  0
   21.7541  -10.5358  -16.5750 C   0  0  0  0  0  0  0  0  0  0  0  0
   20.5287  -10.3043  -16.9107 O   0  0  0  0  0  0  0  0  0  0  0  0
   22.1613  -10.1589  -15.2600 N   0  0  0  0  0  0  0  0  0  0  0  0
   23.4377  -10.4801  -14.6727 C   0  0  0  0  0  0  0  0  0  0  0  0
   23.0925  -10.6005  -13.1655 C   0  0  0  0  0  0  0  0  0  0  0  0
   22.2162   -9.3705  -13.0515 C   0  0  0  0  0  0  0  0  0  0  0  0
   21.3947   -9.4261  -14.2894 C   0  0  1  0  0  0  0  0  0  0  0  0
   20.9846   -8.0893  -14.7803 C   0  0  0  0  0  0  0  0  0  0  0  0
   20.0061   -7.4202  -14.0690 O   0  0  0  0  0  0  0  0  0  0  0  0
   21.4755   -7.5535  -15.7882 O   0  0  0  0  0  0  0  0  0  0  0  0
  2  1  1  0
  3  2  1  0
  4  3  1  0
  4  5  1  0
  5  1  1  0
  6 11  1  0
  5  6  1  6
  7  6  2  0
  9  8  1  0
 10  9  1  6
 10 11  1  0
 10 12  1  0
 12 13  2  0
 14 12  1  0
 14 15  1  0
 16 15  1  0
 17 16  1  0
 18 17  1  0
 18 14  1  0
 18 19  1  6
 19 20  1  0
 21 19  2  0
M  END
$$$$
