PSP.pdb
     RDKit          3D

 21 22  0  0  1  0  0  0  0  0999 V2000
   27.4903  -19.2436  -18.2590 N   0  0  0  0  0  0  0  0  0  0  0  0
   28.2656  -18.9892  -19.4475 C   0  0  0  0  0  0  0  0  0  0  0  0
   28.6761  -17.5556  -19.2757 C   0  0  0  0  0  0  0  0  0  0  0  0
   28.8247  -17.4433  -17.7562 C   0  0  0  0  0  0  0  0  0  0  0  0
   28.3406  -18.7518  -17.2051 C   0  0  1  0  0  0  0  0  0  0  0  0
   27.6095  -18.6007  -15.9165 C   0  0  0  0  0  0  0  0  0  0  0  0
   28.2570  -18.1579  -14.9535 O   0  0  0  0  0  0  0  0  0  0  0  0
   23.2464  -18.6865  -15.4779 O   0  0  0  0  0  0  0  0  0  0  0  0
   24.2323  -18.0357  -14.8203 C   0  0  0  0  0  0  0  0  0  0  0  0
   25.5030  -18.8161  -14.5506 C   0  0  2  0  0  0  0  0  0  0  0  0
   26.2382  -18.9543  -15.8237 N   0  0  0  0  0  0  0  0  0  0  0  0
   25.3029  -20.1277  -13.9315 C   0  0  0  0  0  0  0  0  0  0  0  0
   25.1600  -21.1096  -14.7581 O   0  0  0  0  0  0  0  0  0  0  0  0
   25.2557  -20.4262  -12.5366 N   0  0  0  0  0  0  0  0  0  0  0  0
   25.5737  -19.4916  -11.4864 C   0  0  0  0  0  0  0  0  0  0  0  0
   26.1421  -20.4145  -10.3771 C   0  0  0  0  0  0  0  0  0  0  0  0
   25.1018  -21.5120  -10.4632 C   0  0  0  0  0  0  0  0  0  0  0  0
   24.9120  -21.6823  -11.9279 C   0  0  1  0  0  0  0  0  0  0  0  0
   23.5495  -22.1370  -12.2926 C   0  0  0  0  0  0  0  0  0  0  0  0
   23.1986  -23.4326  -11.9619 O   0  0  0  0  0  0  0  0  0  0  0  0
   22.7227  -21.4140  -12.8737 O   0  0  0  0  0  0  0  0  0  0  0  0
  2  1  1  0
  3  2  1  0
  4  3  1  0
  4  5  1  0
  5  1  1  0
  6 11  1  0
  5  6  1  1
  7  6  2  0
  9  8  1  0
 10  9  1  6
 10 11  1  0
 10 12  1  0
 12 13  2  0
 14 12  1  0
 14 15  1  0
 16 15  1  0
 17 16  1  0
 18 17  1  0
 18 14  1  0
 18 19  1  1
 19 20  1  0
 21 19  2  0
M  END
$$$$
