YMW.pdb
     RDKit          3D

 35 37  0  0  1  0  0  0  0  0999 V2000
   26.4162  -12.9725  -18.2787 O   0  0  0  0  0  0  0  0  0  0  0  0
   25.7527  -14.1184  -17.8706 C   0  0  0  0  0  0  0  0  0  0  0  0
   25.8063  -14.4816  -16.5486 C   0  0  0  0  0  0  0  0  0  0  0  0
   25.1722  -15.6027  -16.0875 C   0  0  0  0  0  0  0  0  0  0  0  0
   24.4495  -16.4130  -16.9552 C   0  0  0  0  0  0  0  0  0  0  0  0
   23.7690  -17.6379  -16.4361 C   0  0  0  0  0  0  0  0  0  0  0  0
   24.8661  -18.6193  -16.0928 C   0  0  2  0  0  0  0  0  0  0  0  0
   25.4152  -19.0570  -17.3659 N   0  0  0  0  0  0  0  0  0  0  0  0
   24.4086  -19.7466  -15.2662 C   0  0  0  0  0  0  0  0  0  0  0  0
   23.6662  -20.6840  -15.7096 O   0  0  0  0  0  0  0  0  0  0  0  0
   24.4012  -16.0427  -18.2690 C   0  0  0  0  0  0  0  0  0  0  0  0
   25.0410  -14.9164  -18.7166 C   0  0  0  0  0  0  0  0  0  0  0  0
   25.3585  -20.5569   -8.1672 C   0  0  0  0  0  0  0  0  0  0  0  0
   25.4113  -22.0390   -9.2385 S   0  0  0  0  0  0  0  0  0  0  0  0
   24.3187  -21.7449  -10.6861 C   0  0  0  0  0  0  0  0  0  0  0  0
   24.9870  -20.8619  -11.6855 C   0  0  0  0  0  0  0  0  0  0  0  0
   24.1783  -20.6708  -12.9170 C   0  0  2  0  0  0  0  0  0  0  0  0
   24.8265  -19.7834  -13.8910 N   0  0  0  0  0  0  0  0  0  0  0  0
   22.7474  -20.3890  -12.7490 C   0  0  0  0  0  0  0  0  0  0  0  0
   22.3536  -19.3469  -12.2184 O   0  0  0  0  0  0  0  0  0  0  0  0
   21.7856  -21.3136  -13.1958 N   0  0  0  0  0  0  0  0  0  0  0  0
   20.3572  -21.2367  -12.9347 C   0  0  1  0  0  0  0  0  0  0  0  0
   19.6910  -20.8629  -14.2365 C   0  0  0  0  0  0  0  0  0  0  0  0
   19.9177  -21.8903  -15.2910 C   0  0  0  0  0  0  0  0  0  0  0  0
   19.7742  -23.2598  -15.2342 C   0  0  0  0  0  0  0  0  0  0  0  0
   20.0825  -23.7917  -16.4281 N   0  0  0  0  0  0  0  0  0  0  0  0
   20.4328  -22.8177  -17.2890 C   0  0  0  0  0  0  0  0  0  0  0  0
   20.8353  -22.8708  -18.6061 C   0  0  0  0  0  0  0  0  0  0  0  0
   21.1404  -21.6754  -19.2148 C   0  0  0  0  0  0  0  0  0  0  0  0
   21.0521  -20.4583  -18.5456 C   0  0  0  0  0  0  0  0  0  0  0  0
   20.6474  -20.4493  -17.2331 C   0  0  0  0  0  0  0  0  0  0  0  0
   20.3345  -21.6287  -16.5938 C   0  0  0  0  0  0  0  0  0  0  0  0
   19.8419  -22.5169  -12.3943 C   0  0  0  0  0  0  0  0  0  0  0  0
   18.5395  -22.5304  -11.8682 O   0  0  0  0  0  0  0  0  0  0  0  0
   20.4883  -23.5833  -12.3720 O   0  0  0  0  0  0  0  0  0  0  0  0
  2  1  1  0
  3  2  2  0
  4  3  1  0
  5  4  2  0
  5 11  1  0
  6  7  1  0
  6  5  1  0
  7  8  1  6
  9  7  1  0
 10  9  2  0
 11 12  2  0
 12  2  1  0
 14 13  1  0
 14 15  1  0
 15 16  1  0
 17 16  1  1
 17 19  1  0
 17 18  1  0
 18  9  1  0
 19 21  1  0
 20 19  2  0
 21 22  1  0
 22 23  1  6
 22 33  1  0
 24 23  1  0
 25 24  2  0
 26 25  1  0
 27 26  1  0
 27 32  2  0
 28 27  1  0
 29 28  2  0
 29 30  1  0
 30 31  2  0
 31 32  1  0
 32 24  1  0
 33 35  2  0
 33 34  1  0
M  END
$$$$
