YMW.pdb
     RDKit          3D

 35 37  0  0  1  0  0  0  0  0999 V2000
   31.4323  -16.5257  -19.5017 O   0  0  0  0  0  0  0  0  0  0  0  0
   30.5840  -17.1936  -18.6333 C   0  0  0  0  0  0  0  0  0  0  0  0
   29.5206  -17.8907  -19.1486 C   0  0  0  0  0  0  0  0  0  0  0  0
   28.6489  -18.5682  -18.3407 C   0  0  0  0  0  0  0  0  0  0  0  0
   28.8187  -18.5682  -16.9612 C   0  0  0  0  0  0  0  0  0  0  0  0
   27.8532  -19.3076  -16.0929 C   0  0  0  0  0  0  0  0  0  0  0  0
   28.6325  -20.4362  -15.4575 C   0  0  2  0  0  0  0  0  0  0  0  0
   28.9116  -21.3753  -16.5318 N   0  0  0  0  0  0  0  0  0  0  0  0
   27.9333  -21.0711  -14.3300 C   0  0  0  0  0  0  0  0  0  0  0  0
   26.9029  -21.8091  -14.4712 O   0  0  0  0  0  0  0  0  0  0  0  0
   29.8807  -17.8724  -16.4577 C   0  0  0  0  0  0  0  0  0  0  0  0
   30.7462  -17.1986  -17.2795 C   0  0  0  0  0  0  0  0  0  0  0  0
   27.2960  -20.6308   -6.3945 C   0  0  0  0  0  0  0  0  0  0  0  0
   28.4405  -20.5479   -7.8195 S   0  0  0  0  0  0  0  0  0  0  0  0
   27.5048  -20.9872   -9.3385 C   0  0  0  0  0  0  0  0  0  0  0  0
   28.3699  -20.8703  -10.5480 C   0  0  0  0  0  0  0  0  0  0  0  0
   27.6163  -21.0546  -11.8150 C   0  0  2  0  0  0  0  0  0  0  0  0
   28.4473  -20.8419  -13.0069 N   0  0  0  0  0  0  0  0  0  0  0  0
   26.2972  -20.4183  -11.9154 C   0  0  0  0  0  0  0  0  0  0  0  0
   26.1783  -19.2195  -12.1824 O   0  0  0  0  0  0  0  0  0  0  0  0
   25.1284  -21.1732  -11.7067 N   0  0  0  0  0  0  0  0  0  0  0  0
   23.7685  -20.6742  -11.8343 C   0  0  1  0  0  0  0  0  0  0  0  0
   23.2888  -21.0513  -13.2149 C   0  0  0  0  0  0  0  0  0  0  0  0
   21.9143  -20.5436  -13.4827 C   0  0  0  0  0  0  0  0  0  0  0  0
   21.4506  -19.2478  -13.5550 C   0  0  0  0  0  0  0  0  0  0  0  0
   20.1353  -19.2579  -13.8257 N   0  0  0  0  0  0  0  0  0  0  0  0
   19.6980  -20.5264  -13.9357 C   0  0  0  0  0  0  0  0  0  0  0  0
   18.4429  -21.0359  -14.1901 C   0  0  0  0  0  0  0  0  0  0  0  0
   18.3205  -22.4056  -14.2276 C   0  0  0  0  0  0  0  0  0  0  0  0
   19.4046  -23.2533  -14.0201 C   0  0  0  0  0  0  0  0  0  0  0  0
   20.6386  -22.7050  -13.7689 C   0  0  0  0  0  0  0  0  0  0  0  0
   20.7956  -21.3371  -13.7245 C   0  0  0  0  0  0  0  0  0  0  0  0
   22.8939  -21.2253  -10.7723 C   0  0  0  0  0  0  0  0  0  0  0  0
   21.7654  -20.4775  -10.3977 O   0  0  0  0  0  0  0  0  0  0  0  0
   23.0943  -22.3077  -10.1858 O   0  0  0  0  0  0  0  0  0  0  0  0
  2  1  1  0
  3  2  2  0
  4  3  1  0
  5  4  2  0
  5 11  1  0
  6  7  1  0
  6  5  1  0
  7  8  1  6
  9  7  1  0
 10  9  2  0
 11 12  2  0
 12  2  1  0
 14 13  1  0
 14 15  1  0
 15 16  1  0
 17 16  1  1
 17 19  1  0
 17 18  1  0
 18  9  1  0
 19 21  1  0
 20 19  2  0
 21 22  1  0
 22 23  1  6
 22 33  1  0
 24 23  1  0
 25 24  2  0
 26 25  1  0
 27 26  1  0
 27 32  2  0
 28 27  1  0
 29 28  2  0
 29 30  1  0
 30 31  2  0
 31 32  1  0
 32 24  1  0
 33 35  2  0
 33 34  1  0
M  END
$$$$
