YMW.pdb
     RDKit          3D

 35 37  0  0  1  0  0  0  0  0999 V2000
   27.4476  -13.5471  -19.7786 O   0  0  0  0  0  0  0  0  0  0  0  0
   26.8168  -14.6354  -19.1976 C   0  0  0  0  0  0  0  0  0  0  0  0
   26.7546  -14.7143  -17.8293 C   0  0  0  0  0  0  0  0  0  0  0  0
   26.1458  -15.7651  -17.1993 C   0  0  0  0  0  0  0  0  0  0  0  0
   25.5685  -16.7923  -17.9363 C   0  0  0  0  0  0  0  0  0  0  0  0
   24.9140  -17.9363  -17.2320 C   0  0  0  0  0  0  0  0  0  0  0  0
   26.0293  -18.8541  -16.7864 C   0  0  2  0  0  0  0  0  0  0  0  0
   26.5718  -19.4342  -18.0042 N   0  0  0  0  0  0  0  0  0  0  0  0
   25.5974  -19.8798  -15.8248 C   0  0  0  0  0  0  0  0  0  0  0  0
   24.8495  -20.8637  -16.1394 O   0  0  0  0  0  0  0  0  0  0  0  0
   25.6346  -16.7044  -19.2976 C   0  0  0  0  0  0  0  0  0  0  0  0
   26.2473  -15.6452  -19.9151 C   0  0  0  0  0  0  0  0  0  0  0  0
   28.2644  -20.7333   -9.9215 C   0  0  0  0  0  0  0  0  0  0  0  0
   26.9586  -22.0137   -9.8658 S   0  0  0  0  0  0  0  0  0  0  0  0
   25.7455  -21.6603  -11.1997 C   0  0  0  0  0  0  0  0  0  0  0  0
   26.3825  -20.8900  -12.3069 C   0  0  0  0  0  0  0  0  0  0  0  0
   25.4221  -20.5213  -13.3787 C   0  0  2  0  0  0  0  0  0  0  0  0
   26.0483  -19.7572  -14.4652 N   0  0  0  0  0  0  0  0  0  0  0  0
   24.1258  -19.9707  -12.9645 C   0  0  0  0  0  0  0  0  0  0  0  0
   23.9816  -18.7680  -12.7296 O   0  0  0  0  0  0  0  0  0  0  0  0
   23.0088  -20.8150  -12.8261 N   0  0  0  0  0  0  0  0  0  0  0  0
   21.6925  -20.4029  -12.3655 C   0  0  1  0  0  0  0  0  0  0  0  0
   21.1302  -19.4736  -13.4136 C   0  0  0  0  0  0  0  0  0  0  0  0
   20.9499  -20.1590  -14.7238 C   0  0  0  0  0  0  0  0  0  0  0  0
   20.3978  -21.3895  -15.0075 C   0  0  0  0  0  0  0  0  0  0  0  0
   20.4362  -21.6021  -16.3329 N   0  0  0  0  0  0  0  0  0  0  0  0
   21.0019  -20.5486  -16.9515 C   0  0  0  0  0  0  0  0  0  0  0  0
   21.2673  -20.3121  -18.2831 C   0  0  0  0  0  0  0  0  0  0  0  0
   21.8772  -19.1194  -18.5963 C   0  0  0  0  0  0  0  0  0  0  0  0
   22.2179  -18.1827  -17.6250 C   0  0  0  0  0  0  0  0  0  0  0  0
   21.9365  -18.4576  -16.3090 C   0  0  0  0  0  0  0  0  0  0  0  0
   21.3264  -19.6427  -15.9612 C   0  0  0  0  0  0  0  0  0  0  0  0
   20.8152  -21.5746  -12.1335 C   0  0  0  0  0  0  0  0  0  0  0  0
   19.5588  -21.3481  -11.5475 O   0  0  0  0  0  0  0  0  0  0  0  0
   21.1187  -22.7498  -12.4205 O   0  0  0  0  0  0  0  0  0  0  0  0
  2  1  1  0
  3  2  2  0
  4  3  1  0
  5  4  2  0
  5 11  1  0
  6  7  1  0
  6  5  1  0
  7  8  1  6
  9  7  1  0
 10  9  2  0
 11 12  2  0
 12  2  1  0
 14 13  1  0
 14 15  1  0
 15 16  1  0
 17 16  1  1
 17 19  1  0
 17 18  1  0
 18  9  1  0
 19 21  1  0
 20 19  2  0
 21 22  1  0
 22 23  1  6
 22 33  1  0
 24 23  1  0
 25 24  2  0
 26 25  1  0
 27 26  1  0
 27 32  2  0
 28 27  1  0
 29 28  2  0
 29 30  1  0
 30 31  2  0
 31 32  1  0
 32 24  1  0
 33 35  2  0
 33 34  1  0
M  END
$$$$
