YMW.pdb
     RDKit          3D

 35 37  0  0  1  0  0  0  0  0999 V2000
   27.4162  -15.1642  -20.6795 O   0  0  0  0  0  0  0  0  0  0  0  0
   26.5176  -15.9432  -19.9686 C   0  0  0  0  0  0  0  0  0  0  0  0
   25.9471  -17.0284  -20.5844 C   0  0  0  0  0  0  0  0  0  0  0  0
   25.0525  -17.8333  -19.9335 C   0  0  0  0  0  0  0  0  0  0  0  0
   24.6933  -17.5701  -18.6170 C   0  0  0  0  0  0  0  0  0  0  0  0
   23.7093  -18.4553  -17.9232 C   0  0  0  0  0  0  0  0  0  0  0  0
   24.4991  -19.2607  -16.9171 C   0  0  2  0  0  0  0  0  0  0  0  0
   25.3762  -20.1165  -17.6994 N   0  0  0  0  0  0  0  0  0  0  0  0
   23.6565  -20.0278  -15.9870 C   0  0  0  0  0  0  0  0  0  0  0  0
   22.7826  -20.8742  -16.3696 O   0  0  0  0  0  0  0  0  0  0  0  0
   25.2673  -16.4884  -18.0120 C   0  0  0  0  0  0  0  0  0  0  0  0
   26.1624  -15.6911  -18.6766 C   0  0  0  0  0  0  0  0  0  0  0  0
   24.4492  -21.2598   -9.2998 C   0  0  0  0  0  0  0  0  0  0  0  0
   25.8030  -21.1013  -10.5203 S   0  0  0  0  0  0  0  0  0  0  0  0
   25.0746  -21.1830  -12.2051 C   0  0  0  0  0  0  0  0  0  0  0  0
   23.7281  -20.5419  -12.2336 C   0  0  0  0  0  0  0  0  0  0  0  0
   23.0978  -20.5855  -13.5782 C   0  0  2  0  0  0  0  0  0  0  0  0
   23.8369  -19.8045  -14.5783 N   0  0  0  0  0  0  0  0  0  0  0  0
   21.6458  -20.3814  -13.6509 C   0  0  0  0  0  0  0  0  0  0  0  0
   21.1309  -19.3008  -13.3516 O   0  0  0  0  0  0  0  0  0  0  0  0
   20.8031  -21.4278  -14.0688 N   0  0  0  0  0  0  0  0  0  0  0  0
   19.3510  -21.3711  -14.1207 C   0  0  1  0  0  0  0  0  0  0  0  0
   18.9246  -22.1278  -15.3552 C   0  0  0  0  0  0  0  0  0  0  0  0
   17.4508  -22.0666  -15.5622 C   0  0  0  0  0  0  0  0  0  0  0  0
   16.5976  -20.9851  -15.5188 C   0  0  0  0  0  0  0  0  0  0  0  0
   15.3440  -21.3939  -15.7732 N   0  0  0  0  0  0  0  0  0  0  0  0
   15.3277  -22.7233  -15.9849 C   0  0  0  0  0  0  0  0  0  0  0  0
   14.2901  -23.5858  -16.2661 C   0  0  0  0  0  0  0  0  0  0  0  0
   14.6071  -24.9159  -16.4179 C   0  0  0  0  0  0  0  0  0  0  0  0
   15.9112  -25.3864  -16.2963 C   0  0  0  0  0  0  0  0  0  0  0  0
   16.9163  -24.4936  -16.0147 C   0  0  0  0  0  0  0  0  0  0  0  0
   16.6331  -23.1548  -15.8565 C   0  0  0  0  0  0  0  0  0  0  0  0
   18.7486  -21.9330  -12.8887 C   0  0  0  0  0  0  0  0  0  0  0  0
   17.6137  -21.2941  -12.3626 O   0  0  0  0  0  0  0  0  0  0  0  0
   19.1838  -22.9339  -12.2850 O   0  0  0  0  0  0  0  0  0  0  0  0
  2  1  1  0
  3  2  2  0
  4  3  1  0
  5  4  2  0
  5 11  1  0
  6  7  1  0
  6  5  1  0
  7  8  1  6
  9  7  1  0
 10  9  2  0
 11 12  2  0
 12  2  1  0
 14 13  1  0
 14 15  1  0
 15 16  1  0
 17 16  1  1
 17 19  1  0
 17 18  1  0
 18  9  1  0
 19 21  1  0
 20 19  2  0
 21 22  1  0
 22 23  1  6
 22 33  1  0
 24 23  1  0
 25 24  2  0
 26 25  1  0
 27 26  1  0
 27 32  2  0
 28 27  1  0
 29 28  2  0
 29 30  1  0
 30 31  2  0
 31 32  1  0
 32 24  1  0
 33 35  2  0
 33 34  1  0
M  END
$$$$
