YMW.pdb
     RDKit          3D

 35 37  0  0  1  0  0  0  0  0999 V2000
   19.2857  -22.0760  -19.6070 O   0  0  0  0  0  0  0  0  0  0  0  0
   20.2394  -22.0662  -18.6018 C   0  0  0  0  0  0  0  0  0  0  0  0
   20.7677  -23.2586  -18.1760 C   0  0  0  0  0  0  0  0  0  0  0  0
   21.7112  -23.3116  -17.1867 C   0  0  0  0  0  0  0  0  0  0  0  0
   22.1644  -22.1464  -16.5796 C   0  0  0  0  0  0  0  0  0  0  0  0
   23.1902  -22.2228  -15.4957 C   0  0  0  0  0  0  0  0  0  0  0  0
   24.4506  -21.6087  -16.0604 C   0  0  2  0  0  0  0  0  0  0  0  0
   24.9286  -22.5448  -17.0650 N   0  0  0  0  0  0  0  0  0  0  0  0
   25.4698  -21.3168  -15.0409 C   0  0  0  0  0  0  0  0  0  0  0  0
   26.2337  -22.2065  -14.5397 O   0  0  0  0  0  0  0  0  0  0  0  0
   21.6334  -20.9642  -17.0110 C   0  0  0  0  0  0  0  0  0  0  0  0
   20.6890  -20.9265  -18.0035 C   0  0  0  0  0  0  0  0  0  0  0  0
   30.2608  -18.6866  -15.8016 C   0  0  0  0  0  0  0  0  0  0  0  0
   28.9322  -19.2714  -14.6879 S   0  0  0  0  0  0  0  0  0  0  0  0
   27.7433  -17.8939  -14.4335 C   0  0  0  0  0  0  0  0  0  0  0  0
   26.7901  -18.2113  -13.3310 C   0  0  0  0  0  0  0  0  0  0  0  0
   26.3240  -19.6216  -13.3609 C   0  0  2  0  0  0  0  0  0  0  0  0
   25.6031  -19.9562  -14.5957 N   0  0  0  0  0  0  0  0  0  0  0  0
   25.6675  -20.1421  -12.1554 C   0  0  0  0  0  0  0  0  0  0  0  0
   24.4439  -20.0789  -12.0094 O   0  0  0  0  0  0  0  0  0  0  0  0
   26.4310  -20.7306  -11.1305 N   0  0  0  0  0  0  0  0  0  0  0  0
   25.9212  -21.1530   -9.8359 C   0  0  1  0  0  0  0  0  0  0  0  0
   27.1188  -21.4481   -8.9659 C   0  0  0  0  0  0  0  0  0  0  0  0
   27.3269  -20.3956   -7.9326 C   0  0  0  0  0  0  0  0  0  0  0  0
   26.5955  -19.2568   -7.6731 C   0  0  0  0  0  0  0  0  0  0  0  0
   27.1451  -18.5979   -6.6400 N   0  0  0  0  0  0  0  0  0  0  0  0
   28.2298  -19.2606   -6.1965 C   0  0  0  0  0  0  0  0  0  0  0  0
   29.1162  -18.9754   -5.1804 C   0  0  0  0  0  0  0  0  0  0  0  0
   30.1477  -19.8642   -4.9834 C   0  0  0  0  0  0  0  0  0  0  0  0
   30.3040  -21.0046   -5.7655 C   0  0  0  0  0  0  0  0  0  0  0  0
   29.3988  -21.2518   -6.7686 C   0  0  0  0  0  0  0  0  0  0  0  0
   28.3544  -20.3820   -6.9926 C   0  0  0  0  0  0  0  0  0  0  0  0
   25.0443  -20.1165   -9.2415 C   0  0  0  0  0  0  0  0  0  0  0  0
   24.0203  -20.5396   -8.3780 O   0  0  0  0  0  0  0  0  0  0  0  0
   25.1522  -18.8932   -9.4590 O   0  0  0  0  0  0  0  0  0  0  0  0
  2  1  1  0
  3  2  2  0
  4  3  1  0
  5  4  2  0
  5 11  1  0
  6  7  1  0
  6  5  1  0
  7  8  1  6
  9  7  1  0
 10  9  2  0
 11 12  2  0
 12  2  1  0
 14 13  1  0
 14 15  1  0
 15 16  1  0
 17 16  1  1
 17 19  1  0
 17 18  1  0
 18  9  1  0
 19 21  1  0
 20 19  2  0
 21 22  1  0
 22 23  1  1
 22 33  1  0
 24 23  1  0
 25 24  2  0
 26 25  1  0
 27 26  1  0
 27 32  2  0
 28 27  1  0
 29 28  2  0
 29 30  1  0
 30 31  2  0
 31 32  1  0
 32 24  1  0
 33 35  2  0
 33 34  1  0
M  END
$$$$
