YMW.pdb
     RDKit          3D

 35 37  0  0  1  0  0  0  0  0999 V2000
   29.1538  -17.3528  -18.1345 O   0  0  0  0  0  0  0  0  0  0  0  0
   28.3817  -17.9216  -17.1344 C   0  0  0  0  0  0  0  0  0  0  0  0
   28.5200  -17.4653  -15.8480 C   0  0  0  0  0  0  0  0  0  0  0  0
   27.7858  -17.9890  -14.8192 C   0  0  0  0  0  0  0  0  0  0  0  0
   26.8707  -19.0088  -15.0520 C   0  0  0  0  0  0  0  0  0  0  0  0
   26.0821  -19.5744  -13.9157 C   0  0  0  0  0  0  0  0  0  0  0  0
   26.9204  -20.6878  -13.3304 C   0  0  2  0  0  0  0  0  0  0  0  0
   26.9644  -21.7244  -14.3490 N   0  0  0  0  0  0  0  0  0  0  0  0
   26.4137  -21.1911  -12.0446 C   0  0  0  0  0  0  0  0  0  0  0  0
   25.3616  -21.9039  -11.9373 O   0  0  0  0  0  0  0  0  0  0  0  0
   26.7393  -19.4557  -16.3360 C   0  0  0  0  0  0  0  0  0  0  0  0
   27.4814  -18.9211  -17.3567 C   0  0  0  0  0  0  0  0  0  0  0  0
   27.1485  -19.9485   -4.1980 C   0  0  0  0  0  0  0  0  0  0  0  0
   27.9422  -19.7459   -5.8340 S   0  0  0  0  0  0  0  0  0  0  0  0
   26.7674  -20.3261   -7.1220 C   0  0  0  0  0  0  0  0  0  0  0  0
   27.4234  -20.3647   -8.4610 C   0  0  0  0  0  0  0  0  0  0  0  0
   26.4892  -20.7526   -9.5491 C   0  0  2  0  0  0  0  0  0  0  0  0
   27.1505  -20.8573  -10.8560 N   0  0  0  0  0  0  0  0  0  0  0  0
   25.1998  -20.0538   -9.6139 C   0  0  0  0  0  0  0  0  0  0  0  0
   25.1303  -18.8535   -9.8912 O   0  0  0  0  0  0  0  0  0  0  0  0
   24.0034  -20.7486   -9.3579 N   0  0  0  0  0  0  0  0  0  0  0  0
   22.7107  -20.4487   -9.9524 C   0  0  1  0  0  0  0  0  0  0  0  0
   22.8666  -20.6016  -11.4459 C   0  0  0  0  0  0  0  0  0  0  0  0
   21.6161  -20.2473  -12.1736 C   0  0  0  0  0  0  0  0  0  0  0  0
   20.8180  -19.1291  -12.0641 C   0  0  0  0  0  0  0  0  0  0  0  0
   19.7898  -19.2278  -12.9223 N   0  0  0  0  0  0  0  0  0  0  0  0
   19.8713  -20.3842  -13.6068 C   0  0  0  0  0  0  0  0  0  0  0  0
   19.0528  -20.9272  -14.5737 C   0  0  0  0  0  0  0  0  0  0  0  0
   19.4115  -22.1560  -15.0777 C   0  0  0  0  0  0  0  0  0  0  0  0
   20.5461  -22.8341  -14.6422 C   0  0  0  0  0  0  0  0  0  0  0  0
   21.3348  -22.2582  -13.6762 C   0  0  0  0  0  0  0  0  0  0  0  0
   21.0040  -21.0287  -13.1504 C   0  0  0  0  0  0  0  0  0  0  0  0
   21.6535  -21.3348   -9.4104 C   0  0  0  0  0  0  0  0  0  0  0  0
   20.3280  -20.8708   -9.4426 O   0  0  0  0  0  0  0  0  0  0  0  0
   21.8618  -22.4643   -8.9241 O   0  0  0  0  0  0  0  0  0  0  0  0
  2  1  1  0
  3  2  2  0
  4  3  1  0
  5  4  2  0
  5 11  1  0
  6  7  1  0
  6  5  1  0
  7  8  1  6
  9  7  1  0
 10  9  2  0
 11 12  2  0
 12  2  1  0
 14 13  1  0
 14 15  1  0
 15 16  1  0
 17 16  1  1
 17 19  1  0
 17 18  1  0
 18  9  1  0
 19 21  1  0
 20 19  2  0
 21 22  1  0
 22 23  1  6
 22 33  1  0
 24 23  1  0
 25 24  2  0
 26 25  1  0
 27 26  1  0
 27 32  2  0
 28 27  1  0
 29 28  2  0
 29 30  1  0
 30 31  2  0
 31 32  1  0
 32 24  1  0
 33 35  2  0
 33 34  1  0
M  END
$$$$
