YMW.pdb
     RDKit          3D

 35 37  0  0  1  0  0  0  0  0999 V2000
   18.4476  -17.5864  -23.6235 O   0  0  0  0  0  0  0  0  0  0  0  0
   18.9567  -17.7431  -22.3444 C   0  0  0  0  0  0  0  0  0  0  0  0
   18.6391  -16.8152  -21.3849 C   0  0  0  0  0  0  0  0  0  0  0  0
   19.1128  -16.9167  -20.1055 C   0  0  0  0  0  0  0  0  0  0  0  0
   19.9378  -17.9736  -19.7395 C   0  0  0  0  0  0  0  0  0  0  0  0
   20.4523  -18.0653  -18.3395 C   0  0  0  0  0  0  0  0  0  0  0  0
   19.7644  -19.2561  -17.7121 C   0  0  2  0  0  0  0  0  0  0  0  0
   18.3493  -18.9235  -17.6842 N   0  0  0  0  0  0  0  0  0  0  0  0
   20.2827  -19.5990  -16.3790 C   0  0  0  0  0  0  0  0  0  0  0  0
   20.5369  -18.7292  -15.4817 O   0  0  0  0  0  0  0  0  0  0  0  0
   20.2475  -18.8927  -20.7011 C   0  0  0  0  0  0  0  0  0  0  0  0
   19.7651  -18.7783  -21.9789 C   0  0  0  0  0  0  0  0  0  0  0  0
   19.6224  -22.8513   -9.9633 C   0  0  0  0  0  0  0  0  0  0  0  0
   19.0468  -22.8148  -11.6996 S   0  0  0  0  0  0  0  0  0  0  0  0
   20.5187  -22.8735  -12.7978 C   0  0  0  0  0  0  0  0  0  0  0  0
   20.1485  -22.5303  -14.2014 C   0  0  0  0  0  0  0  0  0  0  0  0
   20.9686  -21.4243  -14.7593 C   0  0  2  0  0  0  0  0  0  0  0  0
   20.5090  -20.9878  -16.0839 N   0  0  0  0  0  0  0  0  0  0  0  0
   22.4282  -21.5559  -14.6740 C   0  0  0  0  0  0  0  0  0  0  0  0
   23.0580  -22.2706  -15.4583 O   0  0  0  0  0  0  0  0  0  0  0  0
   23.1460  -20.8602  -13.6838 N   0  0  0  0  0  0  0  0  0  0  0  0
   24.5166  -21.1373  -13.2848 C   0  0  1  0  0  0  0  0  0  0  0  0
   24.9462  -20.0125  -12.3746 C   0  0  0  0  0  0  0  0  0  0  0  0
   26.2857  -20.2654  -11.7740 C   0  0  0  0  0  0  0  0  0  0  0  0
   27.5039  -20.4652  -12.3865 C   0  0  0  0  0  0  0  0  0  0  0  0
   28.4497  -20.6506  -11.4513 N   0  0  0  0  0  0  0  0  0  0  0  0
   27.9017  -20.5837  -10.2234 C   0  0  0  0  0  0  0  0  0  0  0  0
   28.4599  -20.7209   -8.9707 C   0  0  0  0  0  0  0  0  0  0  0  0
   27.6120  -20.6079   -7.8932 C   0  0  0  0  0  0  0  0  0  0  0  0
   26.2497  -20.3661   -8.0432 C   0  0  0  0  0  0  0  0  0  0  0  0
   25.7332  -20.2363   -9.3093 C   0  0  0  0  0  0  0  0  0  0  0  0
   26.5547  -20.3441  -10.4099 C   0  0  0  0  0  0  0  0  0  0  0  0
   24.6252  -22.4594  -12.6240 C   0  0  0  0  0  0  0  0  0  0  0  0
   25.8044  -23.1969  -12.8212 O   0  0  0  0  0  0  0  0  0  0  0  0
   23.7381  -22.9633  -11.9065 O   0  0  0  0  0  0  0  0  0  0  0  0
  2  1  1  0
  3  2  2  0
  4  3  1  0
  5  4  2  0
  5 11  1  0
  6  7  1  0
  6  5  1  0
  7  8  1  1
  9  7  1  0
 10  9  2  0
 11 12  2  0
 12  2  1  0
 14 13  1  0
 14 15  1  0
 15 16  1  0
 17 16  1  6
 17 19  1  0
 17 18  1  0
 18  9  1  0
 19 21  1  0
 20 19  2  0
 21 22  1  0
 22 23  1  1
 22 33  1  0
 24 23  1  0
 25 24  2  0
 26 25  1  0
 27 26  1  0
 27 32  2  0
 28 27  1  0
 29 28  2  0
 29 30  1  0
 30 31  2  0
 31 32  1  0
 32 24  1  0
 33 35  2  0
 33 34  1  0
M  END
$$$$
