ACC.pdb
     RDKit          3D

 18 17  0  0  1  0  0  0  0  0999 V2000
   18.2240  -14.0338  -16.2712 C   0  0  0  0  0  0  0  0  0  0  0  0
   18.0953  -12.6559  -16.8318 C   0  0  2  0  0  0  0  0  0  0  0  0
   18.6066  -12.6457  -18.1893 N   0  0  0  0  0  0  0  0  0  0  0  0
   18.8106  -11.6323  -15.9936 C   0  0  0  0  0  0  0  0  0  0  0  0
   18.4969  -11.4930  -14.7869 O   0  0  0  0  0  0  0  0  0  0  0  0
   19.8262  -10.8456  -16.5877 N   0  0  0  0  0  0  0  0  0  0  0  0
   20.5562   -9.8612  -15.8276 C   0  0  1  0  0  0  0  0  0  0  0  0
   22.0152  -10.0619  -16.1007 C   0  0  0  0  0  0  0  0  0  0  0  0
   23.0704   -8.7248  -15.4996 S   0  0  0  0  0  0  0  0  0  0  0  0
   20.0701   -8.5121  -16.2028 C   0  0  0  0  0  0  0  0  0  0  0  0
   19.9870   -8.1983  -17.4440 O   0  0  0  0  0  0  0  0  0  0  0  0
   19.6748   -7.5052  -15.3043 N   0  0  0  0  0  0  0  0  0  0  0  0
   19.3127   -6.1868  -15.8115 C   0  0  1  0  0  0  0  0  0  0  0  0
   17.8508   -5.8841  -15.5328 C   0  0  0  0  0  0  0  0  0  0  0  0
   16.7446   -7.1260  -16.2098 S   0  0  0  0  0  0  0  0  0  0  0  0
   20.1838   -5.1349  -15.2259 C   0  0  0  0  0  0  0  0  0  0  0  0
   21.1060   -5.3594  -14.4292 O   0  0  0  0  0  0  0  0  0  0  0  0
   19.9282   -3.8251  -15.6115 O   0  0  0  0  0  0  0  0  0  0  0  0
  2  1  1  1
  2  3  1  0
  4  5  2  0
  4  2  1  0
  6  4  1  0
  7  6  1  0
  7  8  1  6
  9  8  1  0
 10  7  1  0
 10 12  1  0
 11 10  2  0
 13 12  1  0
 13 16  1  0
 13 14  1  1
 14 15  1  0
 16 18  1  0
 17 16  2  0
M  END
$$$$
