ACC.pdb
     RDKit          3D

 18 17  0  0  1  0  0  0  0  0999 V2000
   24.2020  -14.8402  -18.2850 C   0  0  0  0  0  0  0  0  0  0  0  0
   25.2725  -15.7888  -18.7138 C   0  0  2  0  0  0  0  0  0  0  0  0
   25.2879  -15.8643  -20.1623 N   0  0  0  0  0  0  0  0  0  0  0  0
   25.0903  -17.1579  -18.1186 C   0  0  0  0  0  0  0  0  0  0  0  0
   24.1868  -17.9085  -18.5597 O   0  0  0  0  0  0  0  0  0  0  0  0
   25.9459  -17.5709  -17.0696 N   0  0  0  0  0  0  0  0  0  0  0  0
   25.8509  -18.8913  -16.4973 C   0  0  1  0  0  0  0  0  0  0  0  0
   27.1430  -19.1806  -15.7973 C   0  0  0  0  0  0  0  0  0  0  0  0
   27.1174  -20.6780  -14.7875 S   0  0  0  0  0  0  0  0  0  0  0  0
   24.6740  -18.9375  -15.5974 C   0  0  0  0  0  0  0  0  0  0  0  0
   24.4976  -17.9935  -14.7467 O   0  0  0  0  0  0  0  0  0  0  0  0
   23.6946  -19.9465  -15.5816 N   0  0  0  0  0  0  0  0  0  0  0  0
   22.5984  -19.8733  -14.6228 C   0  0  1  0  0  0  0  0  0  0  0  0
   21.5488  -18.8746  -15.0783 C   0  0  0  0  0  0  0  0  0  0  0  0
   20.0546  -18.9377  -14.0845 S   0  0  0  0  0  0  0  0  0  0  0  0
   21.9876  -21.2115  -14.4114 C   0  0  0  0  0  0  0  0  0  0  0  0
   22.1942  -22.1932  -15.1388 O   0  0  0  0  0  0  0  0  0  0  0  0
   21.1350  -21.3449  -13.3229 O   0  0  0  0  0  0  0  0  0  0  0  0
  2  1  1  6
  2  3  1  0
  4  5  2  0
  4  2  1  0
  6  4  1  0
  7  6  1  0
  7  8  1  1
  9  8  1  0
 10  7  1  0
 10 12  1  0
 11 10  2  0
 13 12  1  0
 13 16  1  0
 13 14  1  6
 14 15  1  0
 16 18  1  0
 17 16  2  0
M  END
$$$$
