ACC.pdb
     RDKit          3D

 18 17  0  0  1  0  0  0  0  0999 V2000
   13.1762  -11.5484  -10.1026 C   0  0  0  0  0  0  0  0  0  0  0  0
   13.4322  -11.6595  -11.5694 C   0  0  2  0  0  0  0  0  0  0  0  0
   13.3319  -13.0515  -11.9651 N   0  0  0  0  0  0  0  0  0  0  0  0
   14.7732  -11.0992  -11.9563 C   0  0  0  0  0  0  0  0  0  0  0  0
   15.7373  -11.8790  -12.1473 O   0  0  0  0  0  0  0  0  0  0  0  0
   14.9182   -9.6983  -12.0968 N   0  0  0  0  0  0  0  0  0  0  0  0
   16.1451   -9.1140  -12.5799 C   0  0  1  0  0  0  0  0  0  0  0  0
   16.0873   -9.1008  -14.0765 C   0  0  0  0  0  0  0  0  0  0  0  0
   14.6147   -8.3024  -14.7523 S   0  0  0  0  0  0  0  0  0  0  0  0
   16.2960   -7.7637  -11.9875 C   0  0  0  0  0  0  0  0  0  0  0  0
   15.2906   -6.9668  -11.9788 O   0  0  0  0  0  0  0  0  0  0  0  0
   17.4712   -7.2490  -11.4116 N   0  0  0  0  0  0  0  0  0  0  0  0
   17.4996   -5.8692  -10.9405 C   0  0  1  0  0  0  0  0  0  0  0  0
   17.9515   -5.8027   -9.4921 C   0  0  0  0  0  0  0  0  0  0  0  0
   18.2654   -4.1230   -8.9405 S   0  0  0  0  0  0  0  0  0  0  0  0
   18.3776   -5.0328  -11.7995 C   0  0  0  0  0  0  0  0  0  0  0  0
   19.4383   -5.4282  -12.3037 O   0  0  0  0  0  0  0  0  0  0  0  0
   17.9614   -3.7291  -12.0374 O   0  0  0  0  0  0  0  0  0  0  0  0
  2  1  1  1
  2  3  1  0
  4  5  2  0
  4  2  1  0
  6  4  1  0
  7  6  1  0
  7  8  1  6
  9  8  1  0
 10  7  1  0
 10 12  1  0
 11 10  2  0
 13 12  1  0
 13 16  1  0
 13 14  1  1
 14 15  1  0
 16 18  1  0
 17 16  2  0
M  END
$$$$
