ACC.pdb
     RDKit          3D

 18 17  0  0  1  0  0  0  0  0999 V2000
   15.9363  -12.8525  -15.9244 C   0  0  0  0  0  0  0  0  0  0  0  0
   17.1135  -13.2027  -16.7736 C   0  0  2  0  0  0  0  0  0  0  0  0
   17.2340  -14.6464  -16.8467 N   0  0  0  0  0  0  0  0  0  0  0  0
   18.3883  -12.5951  -16.2561 C   0  0  0  0  0  0  0  0  0  0  0  0
   18.9235  -13.0668  -15.2241 O   0  0  0  0  0  0  0  0  0  0  0  0
   18.9581  -11.4998  -16.9481 N   0  0  0  0  0  0  0  0  0  0  0  0
   20.1761  -10.8749  -16.4942 C   0  0  1  0  0  0  0  0  0  0  0  0
   21.0863  -10.7348  -17.6754 C   0  0  0  0  0  0  0  0  0  0  0  0
   22.6062   -9.8209  -17.3330 S   0  0  0  0  0  0  0  0  0  0  0  0
   19.8390   -9.5795  -15.8575 C   0  0  0  0  0  0  0  0  0  0  0  0
   18.9049   -8.8579  -16.3602 O   0  0  0  0  0  0  0  0  0  0  0  0
   20.4603   -9.0421  -14.7161 N   0  0  0  0  0  0  0  0  0  0  0  0
   20.0831   -7.7138  -14.2471 C   0  0  1  0  0  0  0  0  0  0  0  0
   20.2017   -7.6213  -12.7358 C   0  0  0  0  0  0  0  0  0  0  0  0
   19.1424   -8.7948  -11.8844 S   0  0  0  0  0  0  0  0  0  0  0  0
   20.9096   -6.6656  -14.9000 C   0  0  0  0  0  0  0  0  0  0  0  0
   21.8454   -6.9015  -15.6773 O   0  0  0  0  0  0  0  0  0  0  0  0
   20.5936   -5.3456  -14.6044 O   0  0  0  0  0  0  0  0  0  0  0  0
  2  1  1  1
  2  3  1  0
  4  5  2  0
  4  2  1  0
  6  4  1  0
  7  6  1  0
  7  8  1  6
  9  8  1  0
 10  7  1  0
 10 12  1  0
 11 10  2  0
 13 12  1  0
 13 16  1  0
 13 14  1  1
 14 15  1  0
 16 18  1  0
 17 16  2  0
M  END
$$$$
