ACC.pdb
     RDKit          3D

 18 17  0  0  1  0  0  0  0  0999 V2000
   20.0984  -13.3450  -19.6010 C   0  0  0  0  0  0  0  0  0  0  0  0
   21.5525  -13.2717  -19.2701 C   0  0  2  0  0  0  0  0  0  0  0  0
   22.0992  -14.6147  -19.2309 N   0  0  0  0  0  0  0  0  0  0  0  0
   21.8037  -12.5645  -17.9667 C   0  0  0  0  0  0  0  0  0  0  0  0
   21.1140  -12.8588  -16.9608 O   0  0  0  0  0  0  0  0  0  0  0  0
   22.8169  -11.5783  -17.9038 N   0  0  0  0  0  0  0  0  0  0  0  0
   23.1333  -10.9028  -16.6695 C   0  0  1  0  0  0  0  0  0  0  0  0
   24.6157  -10.9834  -16.4708 C   0  0  0  0  0  0  0  0  0  0  0  0
   25.1462  -12.3457  -15.4100 S   0  0  0  0  0  0  0  0  0  0  0  0
   22.6270   -9.5117  -16.7436 C   0  0  0  0  0  0  0  0  0  0  0  0
   22.3998   -8.9874  -17.8923 O   0  0  0  0  0  0  0  0  0  0  0  0
   22.3589   -8.6783  -15.6431 N   0  0  0  0  0  0  0  0  0  0  0  0
   21.7753   -7.3599  -15.8614 C   0  0  1  0  0  0  0  0  0  0  0  0
   20.3750   -7.4782  -16.4374 C   0  0  0  0  0  0  0  0  0  0  0  0
   19.4678   -5.9298  -16.3772 S   0  0  0  0  0  0  0  0  0  0  0  0
   21.7559   -6.5725  -14.6013 C   0  0  0  0  0  0  0  0  0  0  0  0
   21.9822   -5.3558  -14.5378 O   0  0  0  0  0  0  0  0  0  0  0  0
   21.4630   -7.2668  -13.4344 O   0  0  0  0  0  0  0  0  0  0  0  0
  2  1  1  1
  2  3  1  0
  4  5  2  0
  4  2  1  0
  6  4  1  0
  7  6  1  0
  7  8  1  6
  9  8  1  0
 10  7  1  0
 10 12  1  0
 11 10  2  0
 13 12  1  0
 13 16  1  0
 13 14  1  1
 14 15  1  0
 16 18  1  0
 17 16  2  0
M  END
$$$$
