ACC.pdb
     RDKit          3D

 18 17  0  0  1  0  0  0  0  0999 V2000
   15.5294  -11.7974  -16.2566 C   0  0  0  0  0  0  0  0  0  0  0  0
   16.4258  -10.9868  -15.3799 C   0  0  2  0  0  0  0  0  0  0  0  0
   17.4284  -11.8553  -14.7929 N   0  0  0  0  0  0  0  0  0  0  0  0
   15.6647  -10.2617  -14.3043 C   0  0  0  0  0  0  0  0  0  0  0  0
   14.7520   -9.4625  -14.6244 O   0  0  0  0  0  0  0  0  0  0  0  0
   15.9965  -10.4983  -12.9489 N   0  0  0  0  0  0  0  0  0  0  0  0
   15.2519   -9.8882  -11.8749 C   0  0  1  0  0  0  0  0  0  0  0  0
   15.0397  -10.9274  -10.8173 C   0  0  0  0  0  0  0  0  0  0  0  0
   13.4654  -10.7822   -9.9438 S   0  0  0  0  0  0  0  0  0  0  0  0
   15.9984   -8.7030  -11.3901 C   0  0  0  0  0  0  0  0  0  0  0  0
   17.2761   -8.7638  -11.2912 O   0  0  0  0  0  0  0  0  0  0  0  0
   15.4281   -7.4733  -11.0156 N   0  0  0  0  0  0  0  0  0  0  0  0
   16.2925   -6.3687  -10.6165 C   0  0  1  0  0  0  0  0  0  0  0  0
   15.6906   -5.0365  -11.0281 C   0  0  0  0  0  0  0  0  0  0  0  0
   16.6009   -3.6333  -10.3748 S   0  0  0  0  0  0  0  0  0  0  0  0
   16.5472   -6.3958   -9.1527 C   0  0  0  0  0  0  0  0  0  0  0  0
   15.8925   -7.0701   -8.3451 O   0  0  0  0  0  0  0  0  0  0  0  0
   17.5903   -5.6069   -8.6847 O   0  0  0  0  0  0  0  0  0  0  0  0
  2  1  1  1
  2  3  1  0
  4  5  2  0
  4  2  1  0
  6  4  1  0
  7  6  1  0
  7  8  1  1
  9  8  1  0
 10  7  1  0
 10 12  1  0
 11 10  2  0
 13 12  1  0
 13 16  1  0
 13 14  1  1
 14 15  1  0
 16 18  1  0
 17 16  2  0
M  END
$$$$
