SHM.pdb
     RDKit          3D

 25 25  0  0  1  0  0  0  0  0999 V2000
   28.9584  -25.2430  -17.9799 O   0  0  0  0  0  0  0  0  0  0  0  0
   28.0400  -26.0893  -17.3616 C   0  0  0  0  0  0  0  0  0  0  0  0
   26.7157  -25.3578  -17.1303 C   0  0  2  0  0  0  0  0  0  0  0  0
   26.0544  -25.1413  -18.3764 N   0  0  0  0  0  0  0  0  0  0  0  0
   26.9104  -24.1353  -16.3314 C   0  0  0  0  0  0  0  0  0  0  0  0
   27.3586  -24.2293  -15.1592 O   0  0  0  0  0  0  0  0  0  0  0  0
   26.6236  -22.8240  -16.7943 N   0  0  0  0  0  0  0  0  0  0  0  0
   26.8160  -21.6258  -16.0149 C   0  0  1  0  0  0  0  0  0  0  0  0
   26.5626  -20.3674  -16.7937 C   0  0  0  0  0  0  0  0  0  0  0  0
   26.8192  -19.1420  -16.0099 C   0  0  0  0  0  0  0  0  0  0  0  0
   27.3070  -18.9927  -14.7330 C   0  0  0  0  0  0  0  0  0  0  0  0
   27.3814  -17.6919  -14.4128 N   0  0  0  0  0  0  0  0  0  0  0  0
   26.9410  -17.0162  -15.4859 C   0  0  0  0  0  0  0  0  0  0  0  0
   26.6017  -17.8897  -16.4496 N   0  0  0  0  0  0  0  0  0  0  0  0
   25.8445  -21.6584  -14.8874 C   0  0  0  0  0  0  0  0  0  0  0  0
   24.6518  -22.0392  -15.0223 O   0  0  0  0  0  0  0  0  0  0  0  0
   25.6337  -20.4363   -6.9947 C   0  0  0  0  0  0  0  0  0  0  0  0
   26.4173  -20.4441   -8.5816 S   0  0  0  0  0  0  0  0  0  0  0  0
   25.3752  -20.8679   -9.9492 C   0  0  0  0  0  0  0  0  0  0  0  0
   26.1207  -21.0172  -11.2189 C   0  0  0  0  0  0  0  0  0  0  0  0
   25.3102  -21.3040  -12.4392 C   0  0  2  0  0  0  0  0  0  0  0  0
   26.2377  -21.2504  -13.5833 N   0  0  0  0  0  0  0  0  0  0  0  0
   24.3349  -20.1979  -12.7034 C   0  0  0  0  0  0  0  0  0  0  0  0
   24.7339  -19.0543  -13.4148 O   0  0  0  0  0  0  0  0  0  0  0  0
   23.1491  -20.2267  -12.3195 O   0  0  0  0  0  0  0  0  0  0  0  0
  2  1  1  0
  2  3  1  0
  3  4  1  6
  5  3  1  0
  5  6  2  0
  7  5  1  0
  8  7  1  0
  8  9  1  6
 10 14  1  0
 10  9  1  0
 11 10  2  0
 12 11  1  0
 12 13  1  0
 13 14  2  0
 15  8  1  0
 16 15  2  0
 18 17  1  0
 19 18  1  0
 20 19  1  0
 21 20  1  1
 21 22  1  0
 22 15  1  0
 23 21  1  0
 24 23  1  0
 25 23  2  0
M  END
$$$$
