SHM.pdb
     RDKit          3D

 25 25  0  0  1  0  0  0  0  0999 V2000
   17.8977  -10.0448  -17.5051 O   0  0  0  0  0  0  0  0  0  0  0  0
   18.7128  -10.9759  -18.1459 C   0  0  0  0  0  0  0  0  0  0  0  0
   19.4967  -11.7931  -17.1163 C   0  0  2  0  0  0  0  0  0  0  0  0
   18.5947  -12.5048  -16.2698 N   0  0  0  0  0  0  0  0  0  0  0  0
   20.4674  -10.9541  -16.3919 C   0  0  0  0  0  0  0  0  0  0  0  0
   20.2243  -10.6149  -15.2046 O   0  0  0  0  0  0  0  0  0  0  0  0
   21.6886  -10.4862  -16.9446 N   0  0  0  0  0  0  0  0  0  0  0  0
   22.6783   -9.7349  -16.2122 C   0  0  1  0  0  0  0  0  0  0  0  0
   24.0872  -10.0748  -16.6041 C   0  0  0  0  0  0  0  0  0  0  0  0
   24.5051  -11.4165  -16.1490 C   0  0  0  0  0  0  0  0  0  0  0  0
   23.8489  -12.3270  -15.3545 C   0  0  0  0  0  0  0  0  0  0  0  0
   24.5990  -13.4275  -15.1915 N   0  0  0  0  0  0  0  0  0  0  0  0
   25.7304  -13.2154  -15.8821 C   0  0  0  0  0  0  0  0  0  0  0  0
   25.6749  -12.0029  -16.4599 N   0  0  0  0  0  0  0  0  0  0  0  0
   22.4651   -8.2925  -16.5125 C   0  0  0  0  0  0  0  0  0  0  0  0
   22.2288   -7.8623  -17.6722 O   0  0  0  0  0  0  0  0  0  0  0  0
   17.9908   -2.8141  -17.3701 C   0  0  0  0  0  0  0  0  0  0  0  0
   18.6379   -4.4002  -16.9254 S   0  0  0  0  0  0  0  0  0  0  0  0
   20.3269   -4.4176  -16.3935 C   0  0  0  0  0  0  0  0  0  0  0  0
   20.8561   -5.7855  -16.1961 C   0  0  0  0  0  0  0  0  0  0  0  0
   22.2705   -5.8933  -15.7310 C   0  0  2  0  0  0  0  0  0  0  0  0
   22.5219   -7.3227  -15.4743 N   0  0  0  0  0  0  0  0  0  0  0  0
   22.4426   -5.2428  -14.3924 C   0  0  0  0  0  0  0  0  0  0  0  0
   22.6432   -3.8557  -14.2977 O   0  0  0  0  0  0  0  0  0  0  0  0
   22.4184   -5.8745  -13.3180 O   0  0  0  0  0  0  0  0  0  0  0  0
  2  1  1  0
  2  3  1  0
  3  4  1  1
  5  3  1  0
  5  6  2  0
  7  5  1  0
  8  7  1  0
  8  9  1  6
 10 14  1  0
 10  9  1  0
 11 10  2  0
 12 11  1  0
 12 13  1  0
 13 14  2  0
 15  8  1  0
 16 15  2  0
 18 17  1  0
 19 18  1  0
 20 19  1  0
 21 20  1  1
 21 22  1  0
 22 15  1  0
 23 21  1  0
 24 23  1  0
 25 23  2  0
M  END
$$$$
