SHM.pdb
     RDKit          3D

 25 25  0  0  1  0  0  0  0  0999 V2000
   11.5249  -16.3196    6.6733 O   0  0  0  0  0  0  0  0  0  0  0  0
   11.8735  -15.2628    5.8344 C   0  0  0  0  0  0  0  0  0  0  0  0
   12.5537  -15.7912    4.5693 C   0  0  2  0  0  0  0  0  0  0  0  0
   11.6809  -16.6900    3.8857 N   0  0  0  0  0  0  0  0  0  0  0  0
   13.8823  -16.3533    4.8692 C   0  0  0  0  0  0  0  0  0  0  0  0
   14.0905  -17.5798    4.6786 O   0  0  0  0  0  0  0  0  0  0  0  0
   14.9751  -15.5979    5.3701 N   0  0  0  0  0  0  0  0  0  0  0  0
   16.2963  -16.1302    5.5967 C   0  0  1  0  0  0  0  0  0  0  0  0
   17.3910  -15.1920    5.1776 C   0  0  0  0  0  0  0  0  0  0  0  0
   17.8091  -15.3833    3.7739 C   0  0  0  0  0  0  0  0  0  0  0  0
   17.4906  -16.3806    2.8825 C   0  0  0  0  0  0  0  0  0  0  0  0
   18.0946  -16.1617    1.7045 N   0  0  0  0  0  0  0  0  0  0  0  0
   18.7958  -15.0262    1.8484 C   0  0  0  0  0  0  0  0  0  0  0  0
   18.6245  -14.5558    3.0960 N   0  0  0  0  0  0  0  0  0  0  0  0
   16.4442  -16.3668    7.0590 C   0  0  0  0  0  0  0  0  0  0  0  0
   15.9678  -15.5916    7.9295 O   0  0  0  0  0  0  0  0  0  0  0  0
   17.9291  -22.4412   11.9385 C   0  0  0  0  0  0  0  0  0  0  0  0
   18.1306  -21.5746   10.4086 S   0  0  0  0  0  0  0  0  0  0  0  0
   17.6107  -19.8817   10.4122 C   0  0  0  0  0  0  0  0  0  0  0  0
   17.5695  -19.2874    9.0575 C   0  0  0  0  0  0  0  0  0  0  0  0
   17.1900  -17.8462    8.9721 C   0  0  2  0  0  0  0  0  0  0  0  0
   17.1468  -17.5060    7.5387 N   0  0  0  0  0  0  0  0  0  0  0  0
   18.2764  -16.9752    9.5249 C   0  0  0  0  0  0  0  0  0  0  0  0
   19.3753  -16.6178    8.7262 O   0  0  0  0  0  0  0  0  0  0  0  0
   18.2691  -16.5306   10.6896 O   0  0  0  0  0  0  0  0  0  0  0  0
  2  1  1  0
  2  3  1  0
  3  4  1  1
  5  3  1  0
  5  6  2  0
  7  5  1  0
  8  7  1  0
  8  9  1  1
 10 14  1  0
 10  9  1  0
 11 10  2  0
 12 11  1  0
 12 13  1  0
 13 14  2  0
 15  8  1  0
 16 15  2  0
 18 17  1  0
 19 18  1  0
 20 19  1  0
 21 20  1  6
 21 22  1  0
 22 15  1  0
 23 21  1  0
 24 23  1  0
 25 23  2  0
M  END
$$$$
