SHM.pdb
     RDKit          3D

 25 25  0  0  1  0  0  0  0  0999 V2000
   18.8737  -12.3271  -14.3746 O   0  0  0  0  0  0  0  0  0  0  0  0
   17.6773  -11.9210  -14.9626 C   0  0  0  0  0  0  0  0  0  0  0  0
   17.7507  -12.0835  -16.4827 C   0  0  2  0  0  0  0  0  0  0  0  0
   17.9331  -13.4588  -16.8176 N   0  0  0  0  0  0  0  0  0  0  0  0
   18.7568  -11.1819  -17.0708 C   0  0  0  0  0  0  0  0  0  0  0  0
   19.7770  -11.6716  -17.6215 O   0  0  0  0  0  0  0  0  0  0  0  0
   18.6617   -9.7653  -17.0640 N   0  0  0  0  0  0  0  0  0  0  0  0
   19.6315   -8.8818  -17.6634 C   0  0  1  0  0  0  0  0  0  0  0  0
   19.0785   -7.5208  -17.9734 C   0  0  0  0  0  0  0  0  0  0  0  0
   20.0381   -6.6580  -18.6920 C   0  0  0  0  0  0  0  0  0  0  0  0
   21.3576   -6.3821  -18.4204 C   0  0  0  0  0  0  0  0  0  0  0  0
   21.8551   -5.5400  -19.3388 N   0  0  0  0  0  0  0  0  0  0  0  0
   20.8521   -5.2818  -20.1927 C   0  0  0  0  0  0  0  0  0  0  0  0
   19.7559   -5.9554  -19.8037 N   0  0  0  0  0  0  0  0  0  0  0  0
   20.7432   -8.7028  -16.6896 C   0  0  0  0  0  0  0  0  0  0  0  0
   20.5543   -8.5708  -15.4517 O   0  0  0  0  0  0  0  0  0  0  0  0
   27.9837  -11.1394  -15.2068 C   0  0  0  0  0  0  0  0  0  0  0  0
   26.4744  -11.0266  -16.1241 S   0  0  0  0  0  0  0  0  0  0  0  0
   25.4404   -9.6435  -15.7318 C   0  0  0  0  0  0  0  0  0  0  0  0
   24.1600   -9.6509  -16.4739 C   0  0  0  0  0  0  0  0  0  0  0  0
   23.2183   -8.5275  -16.1915 C   0  0  2  0  0  0  0  0  0  0  0  0
   22.0939   -8.6734  -17.1331 N   0  0  0  0  0  0  0  0  0  0  0  0
   23.8346   -7.2112  -16.5548 C   0  0  0  0  0  0  0  0  0  0  0  0
   24.1882   -6.2921  -15.5531 O   0  0  0  0  0  0  0  0  0  0  0  0
   24.0628   -6.8653  -17.7306 O   0  0  0  0  0  0  0  0  0  0  0  0
  2  1  1  0
  2  3  1  0
  3  4  1  1
  5  3  1  0
  5  6  2  0
  7  5  1  0
  8  7  1  0
  8  9  1  1
 10 14  1  0
 10  9  1  0
 11 10  2  0
 12 11  1  0
 12 13  1  0
 13 14  2  0
 15  8  1  0
 16 15  2  0
 18 17  1  0
 19 18  1  0
 20 19  1  0
 21 20  1  6
 21 22  1  0
 22 15  1  0
 23 21  1  0
 24 23  1  0
 25 23  2  0
M  END
$$$$
