SHM.pdb
     RDKit          3D

 25 25  0  0  1  0  0  0  0  0999 V2000
   22.2094   -9.8543  -22.2621 O   0  0  0  0  0  0  0  0  0  0  0  0
   21.4695   -9.1556  -21.3101 C   0  0  0  0  0  0  0  0  0  0  0  0
   20.7372  -10.1313  -20.3858 C   0  0  2  0  0  0  0  0  0  0  0  0
   19.7501  -10.8527  -21.1222 N   0  0  0  0  0  0  0  0  0  0  0  0
   20.2157   -9.4480  -19.1891 C   0  0  0  0  0  0  0  0  0  0  0  0
   19.1917   -8.7234  -19.2896 O   0  0  0  0  0  0  0  0  0  0  0  0
   20.7950   -9.5464  -17.8966 N   0  0  0  0  0  0  0  0  0  0  0  0
   20.2867   -8.8777  -16.7241 C   0  0  1  0  0  0  0  0  0  0  0  0
   20.6818   -9.5514  -15.4419 C   0  0  0  0  0  0  0  0  0  0  0  0
   19.9800   -9.0049  -14.2626 C   0  0  0  0  0  0  0  0  0  0  0  0
   18.9838   -8.0603  -14.1833 C   0  0  0  0  0  0  0  0  0  0  0  0
   18.6335   -7.8605  -12.9036 N   0  0  0  0  0  0  0  0  0  0  0  0
   19.4068   -8.6777  -12.1715 C   0  0  0  0  0  0  0  0  0  0  0  0
   20.2192   -9.3684  -12.9900 N   0  0  0  0  0  0  0  0  0  0  0  0
   20.8589   -7.5035  -16.7032 C   0  0  0  0  0  0  0  0  0  0  0  0
   22.0837   -7.2692  -16.8784 O   0  0  0  0  0  0  0  0  0  0  0  0
   22.1787   -1.8115  -20.8223 C   0  0  0  0  0  0  0  0  0  0  0  0
   21.8339   -3.4261  -20.1850 S   0  0  0  0  0  0  0  0  0  0  0  0
   21.3313   -3.4893  -18.4881 C   0  0  0  0  0  0  0  0  0  0  0  0
   20.9586   -4.8518  -18.0466 C   0  0  0  0  0  0  0  0  0  0  0  0
   20.5194   -4.9967  -16.6272 C   0  0  2  0  0  0  0  0  0  0  0  0
   20.0219   -6.3762  -16.4788 N   0  0  0  0  0  0  0  0  0  0  0  0
   19.3212   -4.1412  -16.3500 C   0  0  0  0  0  0  0  0  0  0  0  0
   19.4805   -2.8284  -15.8763 O   0  0  0  0  0  0  0  0  0  0  0  0
   18.1494   -4.5319  -16.5183 O   0  0  0  0  0  0  0  0  0  0  0  0
  2  1  1  0
  2  3  1  0
  3  4  1  6
  5  3  1  0
  5  6  2  0
  7  5  1  0
  8  7  1  0
  8  9  1  1
 10 14  1  0
 10  9  1  0
 11 10  2  0
 12 11  1  0
 12 13  1  0
 13 14  2  0
 15  8  1  0
 16 15  2  0
 18 17  1  0
 19 18  1  0
 20 19  1  0
 21 20  1  6
 21 22  1  0
 22 15  1  0
 23 21  1  0
 24 23  1  0
 25 23  2  0
M  END
$$$$
