SHM.pdb
     RDKit          3D

 25 25  0  0  1  0  0  0  0  0999 V2000
   21.5516   -9.1597  -18.4312 O   0  0  0  0  0  0  0  0  0  0  0  0
   21.9596  -10.1038  -17.4908 C   0  0  0  0  0  0  0  0  0  0  0  0
   20.7897  -10.4882  -16.5821 C   0  0  2  0  0  0  0  0  0  0  0  0
   19.7370  -11.0596  -17.3581 N   0  0  0  0  0  0  0  0  0  0  0  0
   20.3697   -9.3547  -15.7396 C   0  0  0  0  0  0  0  0  0  0  0  0
   19.3668   -8.6735  -16.0772 O   0  0  0  0  0  0  0  0  0  0  0  0
   21.0268   -8.9610  -14.5441 N   0  0  0  0  0  0  0  0  0  0  0  0
   20.6310   -7.8380  -13.7300 C   0  0  1  0  0  0  0  0  0  0  0  0
   21.1269   -7.9297  -12.3159 C   0  0  0  0  0  0  0  0  0  0  0  0
   20.6037   -6.8536  -11.4499 C   0  0  0  0  0  0  0  0  0  0  0  0
   19.6809   -5.8700  -11.7182 C   0  0  0  0  0  0  0  0  0  0  0  0
   19.4979   -5.0969  -10.6369 N   0  0  0  0  0  0  0  0  0  0  0  0
   20.3039   -5.5895   -9.6833 C   0  0  0  0  0  0  0  0  0  0  0  0
   20.9714   -6.6489  -10.1724 N   0  0  0  0  0  0  0  0  0  0  0  0
   21.2209   -6.6116  -14.3333 C   0  0  0  0  0  0  0  0  0  0  0  0
   22.4214   -6.5420  -14.7071 O   0  0  0  0  0  0  0  0  0  0  0  0
   19.6112   -1.3467  -19.7139 C   0  0  0  0  0  0  0  0  0  0  0  0
   19.3433   -2.7586  -18.6809 S   0  0  0  0  0  0  0  0  0  0  0  0
   20.3873   -2.8747  -17.2553 C   0  0  0  0  0  0  0  0  0  0  0  0
   20.1001   -4.0654  -16.4247 C   0  0  0  0  0  0  0  0  0  0  0  0
   20.9495   -4.2537  -15.2116 C   0  0  2  0  0  0  0  0  0  0  0  0
   20.4303   -5.4438  -14.5142 N   0  0  0  0  0  0  0  0  0  0  0  0
   20.7417   -3.1354  -14.2366 C   0  0  0  0  0  0  0  0  0  0  0  0
   21.6792   -2.0938  -14.1405 O   0  0  0  0  0  0  0  0  0  0  0  0
   19.7554   -3.0659  -13.4772 O   0  0  0  0  0  0  0  0  0  0  0  0
  2  1  1  0
  2  3  1  0
  3  4  1  6
  5  3  1  0
  5  6  2  0
  7  5  1  0
  8  7  1  0
  8  9  1  1
 10 14  1  0
 10  9  1  0
 11 10  2  0
 12 11  1  0
 12 13  1  0
 13 14  2  0
 15  8  1  0
 16 15  2  0
 18 17  1  0
 19 18  1  0
 20 19  1  0
 21 20  1  6
 21 22  1  0
 22 15  1  0
 23 21  1  0
 24 23  1  0
 25 23  2  0
M  END
$$$$
