SHM.pdb
     RDKit          3D

 25 25  0  0  1  0  0  0  0  0999 V2000
   10.2539   -9.1650  -12.2069 O   0  0  0  0  0  0  0  0  0  0  0  0
   11.3520   -8.8410  -11.4125 C   0  0  0  0  0  0  0  0  0  0  0  0
   12.3233  -10.0217  -11.3420 C   0  0  2  0  0  0  0  0  0  0  0  0
   11.7316  -11.0968  -10.6132 N   0  0  0  0  0  0  0  0  0  0  0  0
   13.6411   -9.6027  -10.8333 C   0  0  0  0  0  0  0  0  0  0  0  0
   13.7710   -9.3236   -9.6131 O   0  0  0  0  0  0  0  0  0  0  0  0
   14.8071   -9.4865  -11.6351 N   0  0  0  0  0  0  0  0  0  0  0  0
   16.1280   -9.2265  -11.1174 C   0  0  1  0  0  0  0  0  0  0  0  0
   17.2100   -9.9431  -11.8723 C   0  0  0  0  0  0  0  0  0  0  0  0
   17.0743  -11.4130  -11.8193 C   0  0  0  0  0  0  0  0  0  0  0  0
   16.1856  -12.1962  -11.1210 C   0  0  0  0  0  0  0  0  0  0  0  0
   16.4196  -13.4948  -11.3644 N   0  0  0  0  0  0  0  0  0  0  0  0
   17.4560  -13.5355  -12.2165 C   0  0  0  0  0  0  0  0  0  0  0  0
   17.8517  -12.2806  -12.4915 N   0  0  0  0  0  0  0  0  0  0  0  0
   16.3845   -7.7656  -11.2449 C   0  0  0  0  0  0  0  0  0  0  0  0
   16.0834   -7.1050  -12.2738 O   0  0  0  0  0  0  0  0  0  0  0  0
   13.6153   -1.5732  -11.6852 C   0  0  0  0  0  0  0  0  0  0  0  0
   13.8967   -3.1383  -10.9082 S   0  0  0  0  0  0  0  0  0  0  0  0
   15.5741   -3.7058  -10.9125 C   0  0  0  0  0  0  0  0  0  0  0  0
   15.7390   -5.0254  -10.2631 C   0  0  0  0  0  0  0  0  0  0  0  0
   17.1255   -5.5764  -10.2137 C   0  0  2  0  0  0  0  0  0  0  0  0
   16.9947   -7.0442  -10.1824 N   0  0  0  0  0  0  0  0  0  0  0  0
   17.7877   -5.2378   -8.9133 C   0  0  0  0  0  0  0  0  0  0  0  0
   18.2246   -3.9272   -8.6591 O   0  0  0  0  0  0  0  0  0  0  0  0
   17.9837   -6.0731   -8.0088 O   0  0  0  0  0  0  0  0  0  0  0  0
  2  1  1  0
  2  3  1  0
  3  4  1  1
  5  3  1  0
  5  6  2  0
  7  5  1  0
  8  7  1  0
  8  9  1  6
 10 14  1  0
 10  9  1  0
 11 10  2  0
 12 11  1  0
 12 13  1  0
 13 14  2  0
 15  8  1  0
 16 15  2  0
 18 17  1  0
 19 18  1  0
 20 19  1  0
 21 20  1  1
 21 22  1  0
 22 15  1  0
 23 21  1  0
 24 23  1  0
 25 23  2  0
M  END
$$$$
