PHK.pdb
     RDKit          3D

 27 28  0  0  1  0  0  0  0  0999 V2000
    9.4798  -14.7083   18.1224 N   0  0  0  0  0  0  0  0  0  0  0  0
    9.3334  -13.9209   16.9208 C   0  0  0  0  0  0  0  0  0  0  0  0
    8.0495  -13.1663   17.0151 C   0  0  0  0  0  0  0  0  0  0  0  0
    7.4387  -13.6713   18.3059 C   0  0  0  0  0  0  0  0  0  0  0  0
    8.6853  -14.0101   19.1004 C   0  0  1  0  0  0  0  0  0  0  0  0
    8.3979  -14.8129   20.3003 C   0  0  0  0  0  0  0  0  0  0  0  0
    7.4712  -14.5581   21.1158 O   0  0  0  0  0  0  0  0  0  0  0  0
    9.2248  -15.9435   20.5427 N   0  0  0  0  0  0  0  0  0  0  0  0
    9.0408  -16.7917   21.7345 C   0  0  1  0  0  0  0  0  0  0  0  0
   10.0332  -17.8994   21.6222 C   0  0  0  0  0  0  0  0  0  0  0  0
    9.6837  -19.0233   20.7695 C   0  0  0  0  0  0  0  0  0  0  0  0
    8.4009  -19.3112   20.3368 C   0  0  0  0  0  0  0  0  0  0  0  0
    8.4668  -20.4114   19.5730 N   0  0  0  0  0  0  0  0  0  0  0  0
    9.7296  -20.8204   19.5108 C   0  0  0  0  0  0  0  0  0  0  0  0
   10.4821  -19.9608   20.2516 N   0  0  0  0  0  0  0  0  0  0  0  0
    9.2625  -15.9523   22.9152 C   0  0  0  0  0  0  0  0  0  0  0  0
   10.3803  -15.3345   23.0334 O   0  0  0  0  0  0  0  0  0  0  0  0
    8.3538  -15.7278   23.9766 N   0  0  0  0  0  0  0  0  0  0  0  0
    8.6639  -14.7729   25.0689 C   0  0  1  0  0  0  0  0  0  0  0  0
    7.3758  -14.0752   25.4590 C   0  0  0  0  0  0  0  0  0  0  0  0
    7.5765  -13.1381   26.5886 C   0  0  0  0  0  0  0  0  0  0  0  0
    6.2589  -12.5078   27.0442 C   0  0  0  0  0  0  0  0  0  0  0  0
    6.4589  -11.5631   28.1821 C   0  0  0  0  0  0  0  0  0  0  0  0
    5.1806  -11.1058   28.7183 N   0  0  0  0  0  0  0  0  0  0  0  0
    9.2696  -15.4862   26.1719 C   0  0  0  0  0  0  0  0  0  0  0  0
   10.1293  -14.8334   27.0490 O   0  0  0  0  0  0  0  0  0  0  0  0
    9.0173  -16.7227   26.3433 O   0  0  0  0  0  0  0  0  0  0  0  0
  1  5  1  0
  1  2  1  0
  2  3  1  0
  4  3  1  0
  5  4  1  0
  6  7  2  0
  5  6  1  1
  8  6  1  0
  9  8  1  0
  9 10  1  6
 11 10  1  0
 11 15  1  0
 12 13  1  0
 12 11  2  0
 13 14  1  0
 14 15  2  0
 16  9  1  0
 17 16  2  0
 18 16  1  0
 19 18  1  0
 20 21  1  0
 19 20  1  1
 22 21  1  0
 23 22  1  0
 24 23  1  0
 25 19  1  0
 25 26  1  0
 27 25  2  0
M  END
$$$$
