PHK.pdb
     RDKit          3D

 27 28  0  0  1  0  0  0  0  0999 V2000
    8.9583  -14.5027   18.2263 N   0  0  0  0  0  0  0  0  0  0  0  0
    8.6000  -13.5701   17.1836 C   0  0  0  0  0  0  0  0  0  0  0  0
    7.5940  -12.6183   17.7392 C   0  0  0  0  0  0  0  0  0  0  0  0
    7.3367  -13.1524   19.1330 C   0  0  0  0  0  0  0  0  0  0  0  0
    8.6752  -13.7924   19.4471 C   0  0  1  0  0  0  0  0  0  0  0  0
    8.6280  -14.6640   20.6325 C   0  0  0  0  0  0  0  0  0  0  0  0
    8.1131  -14.3318   21.7339 O   0  0  0  0  0  0  0  0  0  0  0  0
    9.2027  -15.9588   20.5139 N   0  0  0  0  0  0  0  0  0  0  0  0
    9.0319  -16.9772   21.5662 C   0  0  1  0  0  0  0  0  0  0  0  0
    9.3851  -18.2876   20.9475 C   0  0  0  0  0  0  0  0  0  0  0  0
    8.3920  -18.9067   20.0855 C   0  0  0  0  0  0  0  0  0  0  0  0
    7.0234  -18.7693   20.2400 C   0  0  0  0  0  0  0  0  0  0  0  0
    6.4314  -19.4756   19.2660 N   0  0  0  0  0  0  0  0  0  0  0  0
    7.3673  -20.0452   18.5140 C   0  0  0  0  0  0  0  0  0  0  0  0
    8.5805  -19.6926   19.0219 N   0  0  0  0  0  0  0  0  0  0  0  0
    9.9183  -16.6202   22.6774 C   0  0  0  0  0  0  0  0  0  0  0  0
   11.1334  -16.3000   22.4207 O   0  0  0  0  0  0  0  0  0  0  0  0
    9.5788  -16.5781   24.0507 N   0  0  0  0  0  0  0  0  0  0  0  0
   10.5537  -16.1243   25.0728 C   0  0  1  0  0  0  0  0  0  0  0  0
    9.7743  -15.6508   26.2838 C   0  0  0  0  0  0  0  0  0  0  0  0
   10.6683  -15.1526   27.3547 C   0  0  0  0  0  0  0  0  0  0  0  0
    9.8788  -14.6464   28.5636 C   0  0  0  0  0  0  0  0  0  0  0  0
   10.7724  -14.0596   29.6050 C   0  0  0  0  0  0  0  0  0  0  0  0
   10.0095  -13.6313   30.7734 N   0  0  0  0  0  0  0  0  0  0  0  0
   11.4634  -17.2058   25.3812 C   0  0  0  0  0  0  0  0  0  0  0  0
   12.7959  -16.9445   25.6824 O   0  0  0  0  0  0  0  0  0  0  0  0
   11.0447  -18.4085   25.3763 O   0  0  0  0  0  0  0  0  0  0  0  0
  1  5  1  0
  1  2  1  0
  2  3  1  0
  4  3  1  0
  5  4  1  0
  6  7  2  0
  5  6  1  1
  8  6  1  0
  9  8  1  0
  9 10  1  6
 11 10  1  0
 11 15  1  0
 12 13  1  0
 12 11  2  0
 13 14  1  0
 14 15  2  0
 16  9  1  0
 17 16  2  0
 18 16  1  0
 19 18  1  0
 20 21  1  0
 19 20  1  1
 22 21  1  0
 23 22  1  0
 24 23  1  0
 25 19  1  0
 25 26  1  0
 27 25  2  0
M  END
$$$$
