PHK.pdb
     RDKit          3D

 27 28  0  0  1  0  0  0  0  0999 V2000
    5.6054  -19.0277   19.5387 N   0  0  0  0  0  0  0  0  0  0  0  0
    4.5996  -19.7754   18.8213 C   0  0  0  0  0  0  0  0  0  0  0  0
    5.1377  -20.0937   17.4664 C   0  0  0  0  0  0  0  0  0  0  0  0
    6.4723  -19.3779   17.4409 C   0  0  0  0  0  0  0  0  0  0  0  0
    6.8440  -19.4106   18.9108 C   0  0  1  0  0  0  0  0  0  0  0  0
    7.9656  -18.5147   19.2369 C   0  0  0  0  0  0  0  0  0  0  0  0
    9.1776  -18.8588   19.2041 O   0  0  0  0  0  0  0  0  0  0  0  0
    7.6477  -17.1804   19.6106 N   0  0  0  0  0  0  0  0  0  0  0  0
    8.6982  -16.1666   19.8165 C   0  0  1  0  0  0  0  0  0  0  0  0
    8.0839  -14.8483   19.4863 C   0  0  0  0  0  0  0  0  0  0  0  0
    8.0596  -14.4563   18.0869 C   0  0  0  0  0  0  0  0  0  0  0  0
    8.6006  -15.2014   17.0535 C   0  0  0  0  0  0  0  0  0  0  0  0
    8.3881  -14.5290   15.9130 N   0  0  0  0  0  0  0  0  0  0  0  0
    7.7409  -13.4017   16.1890 C   0  0  0  0  0  0  0  0  0  0  0  0
    7.5380  -13.3574   17.5347 N   0  0  0  0  0  0  0  0  0  0  0  0
    9.1311  -16.2537   21.2140 C   0  0  0  0  0  0  0  0  0  0  0  0
    8.2409  -16.2710   22.1371 O   0  0  0  0  0  0  0  0  0  0  0  0
   10.4639  -16.3312   21.6837 N   0  0  0  0  0  0  0  0  0  0  0  0
   10.7646  -16.6236   23.1068 C   0  0  1  0  0  0  0  0  0  0  0  0
   10.6567  -18.1222   23.3085 C   0  0  0  0  0  0  0  0  0  0  0  0
   10.9488  -18.5128   24.7073 C   0  0  0  0  0  0  0  0  0  0  0  0
   10.9839  -20.0330   24.8767 C   0  0  0  0  0  0  0  0  0  0  0  0
   11.1481  -20.4293   26.3061 C   0  0  0  0  0  0  0  0  0  0  0  0
   11.2322  -21.8799   26.4444 N   0  0  0  0  0  0  0  0  0  0  0  0
   12.0755  -16.1081   23.4356 C   0  0  0  0  0  0  0  0  0  0  0  0
   12.8614  -15.5016   22.4614 O   0  0  0  0  0  0  0  0  0  0  0  0
   12.5175  -16.2100   24.6256 O   0  0  0  0  0  0  0  0  0  0  0  0
  1  5  1  0
  1  2  1  0
  2  3  1  0
  4  3  1  0
  5  4  1  0
  6  7  2  0
  5  6  1  6
  8  6  1  0
  9  8  1  0
  9 10  1  1
 11 10  1  0
 11 15  1  0
 12 13  1  0
 12 11  2  0
 13 14  1  0
 14 15  2  0
 16  9  1  0
 17 16  2  0
 18 16  1  0
 19 18  1  0
 20 21  1  0
 19 20  1  6
 22 21  1  0
 23 22  1  0
 24 23  1  0
 25 19  1  0
 25 26  1  0
 27 25  2  0
M  END
$$$$
