PHK.pdb
     RDKit          3D

 27 28  0  0  1  0  0  0  0  0999 V2000
    8.2003  -18.7106   18.8653 N   0  0  0  0  0  0  0  0  0  0  0  0
    7.8732  -19.3064   17.5911 C   0  0  0  0  0  0  0  0  0  0  0  0
    8.6558  -18.6001   16.5351 C   0  0  0  0  0  0  0  0  0  0  0  0
    9.3608  -17.4976   17.2978 C   0  0  0  0  0  0  0  0  0  0  0  0
    9.5081  -18.1416   18.6630 C   0  0  1  0  0  0  0  0  0  0  0  0
    9.8953  -17.1812   19.7092 C   0  0  0  0  0  0  0  0  0  0  0  0
   11.0531  -16.6984   19.8319 O   0  0  0  0  0  0  0  0  0  0  0  0
    8.8910  -16.7815   20.6324 N   0  0  0  0  0  0  0  0  0  0  0  0
    9.1470  -15.7448   21.6490 C   0  0  1  0  0  0  0  0  0  0  0  0
    7.9726  -14.8258   21.6206 C   0  0  0  0  0  0  0  0  0  0  0  0
    7.7485  -14.0685   20.4005 C   0  0  0  0  0  0  0  0  0  0  0  0
    8.2763  -12.8144   20.1469 C   0  0  0  0  0  0  0  0  0  0  0  0
    7.8580  -12.4357   18.9304 N   0  0  0  0  0  0  0  0  0  0  0  0
    7.0955  -13.3951   18.4166 C   0  0  0  0  0  0  0  0  0  0  0  0
    7.0282  -14.4053   19.3270 N   0  0  0  0  0  0  0  0  0  0  0  0
    9.3053  -16.4191   22.9405 C   0  0  0  0  0  0  0  0  0  0  0  0
    8.4182  -17.2701   23.3065 O   0  0  0  0  0  0  0  0  0  0  0  0
   10.3635  -16.2422   23.8634 N   0  0  0  0  0  0  0  0  0  0  0  0
   10.6312  -17.2376   24.9304 C   0  0  1  0  0  0  0  0  0  0  0  0
   11.9390  -17.9317   24.6042 C   0  0  0  0  0  0  0  0  0  0  0  0
   12.2267  -19.0373   25.5472 C   0  0  0  0  0  0  0  0  0  0  0  0
   13.4998  -19.7941   25.1632 C   0  0  0  0  0  0  0  0  0  0  0  0
   13.7746  -20.9278   26.0940 C   0  0  0  0  0  0  0  0  0  0  0  0
   14.9821  -21.6491   25.7038 N   0  0  0  0  0  0  0  0  0  0  0  0
   10.6573  -16.5702   26.2134 C   0  0  0  0  0  0  0  0  0  0  0  0
   10.4510  -17.2869   27.3875 O   0  0  0  0  0  0  0  0  0  0  0  0
   10.8689  -15.3157   26.2722 O   0  0  0  0  0  0  0  0  0  0  0  0
  1  5  1  0
  1  2  1  0
  2  3  1  0
  4  3  1  0
  5  4  1  0
  6  7  2  0
  5  6  1  1
  8  6  1  0
  9  8  1  0
  9 10  1  1
 11 10  1  0
 11 15  1  0
 12 13  1  0
 12 11  2  0
 13 14  1  0
 14 15  2  0
 16  9  1  0
 17 16  2  0
 18 16  1  0
 19 18  1  0
 20 21  1  0
 19 20  1  6
 22 21  1  0
 23 22  1  0
 24 23  1  0
 25 19  1  0
 25 26  1  0
 27 25  2  0
M  END
$$$$
