PHK.pdb
     RDKit          3D

 27 28  0  0  1  0  0  0  0  0999 V2000
    9.4165  -14.7610   18.2989 N   0  0  0  0  0  0  0  0  0  0  0  0
    9.3034  -14.0125   17.0691 C   0  0  0  0  0  0  0  0  0  0  0  0
    8.0266  -13.2415   17.1119 C   0  0  0  0  0  0  0  0  0  0  0  0
    7.3840  -13.6966   18.4058 C   0  0  0  0  0  0  0  0  0  0  0  0
    8.6104  -14.0221   19.2366 C   0  0  1  0  0  0  0  0  0  0  0  0
    8.2895  -14.7814   20.4562 C   0  0  0  0  0  0  0  0  0  0  0  0
    7.3733  -14.4683   21.2632 O   0  0  0  0  0  0  0  0  0  0  0  0
    9.0695  -15.9381   20.7292 N   0  0  0  0  0  0  0  0  0  0  0  0
    8.7908  -16.7986   21.8934 C   0  0  1  0  0  0  0  0  0  0  0  0
    9.7114  -17.9671   21.7854 C   0  0  0  0  0  0  0  0  0  0  0  0
    9.3124  -19.0503   20.9022 C   0  0  0  0  0  0  0  0  0  0  0  0
    8.1392  -19.0730   20.1683 C   0  0  0  0  0  0  0  0  0  0  0  0
    8.1154  -20.2207   19.4752 N   0  0  0  0  0  0  0  0  0  0  0  0
    9.2183  -20.9117   19.7438 C   0  0  0  0  0  0  0  0  0  0  0  0
    9.9585  -20.1867   20.6271 N   0  0  0  0  0  0  0  0  0  0  0  0
    9.0281  -16.0024   23.1008 C   0  0  0  0  0  0  0  0  0  0  0  0
   10.1551  -15.4053   23.2360 O   0  0  0  0  0  0  0  0  0  0  0  0
    8.1256  -15.8004   24.1721 N   0  0  0  0  0  0  0  0  0  0  0  0
    8.3724  -14.7629   25.2035 C   0  0  1  0  0  0  0  0  0  0  0  0
    7.0874  -13.9825   25.3978 C   0  0  0  0  0  0  0  0  0  0  0  0
    7.2502  -12.8884   26.3831 C   0  0  0  0  0  0  0  0  0  0  0  0
    5.9382  -12.1377   26.6197 C   0  0  0  0  0  0  0  0  0  0  0  0
    6.1060  -11.0183   27.5925 C   0  0  0  0  0  0  0  0  0  0  0  0
    4.8249  -10.3885   27.8971 N   0  0  0  0  0  0  0  0  0  0  0  0
    8.8315  -15.3960   26.4203 C   0  0  0  0  0  0  0  0  0  0  0  0
    8.7696  -16.7780   26.5649 O   0  0  0  0  0  0  0  0  0  0  0  0
    9.2954  -14.6852   27.3697 O   0  0  0  0  0  0  0  0  0  0  0  0
  1  5  1  0
  1  2  1  0
  2  3  1  0
  4  3  1  0
  5  4  1  0
  6  7  2  0
  5  6  1  1
  8  6  1  0
  9  8  1  0
  9 10  1  1
 11 10  1  0
 11 15  1  0
 12 13  1  0
 12 11  2  0
 13 14  1  0
 14 15  2  0
 16  9  1  0
 17 16  2  0
 18 16  1  0
 19 18  1  0
 20 21  1  0
 19 20  1  1
 22 21  1  0
 23 22  1  0
 24 23  1  0
 25 19  1  0
 25 26  1  0
 27 25  2  0
M  END
$$$$
