PHK.pdb
     RDKit          3D

 27 28  0  0  1  0  0  0  0  0999 V2000
    7.3800  -15.2971   19.4505 N   0  0  0  0  0  0  0  0  0  0  0  0
    7.0341  -14.9688   18.0874 C   0  0  0  0  0  0  0  0  0  0  0  0
    7.7203  -13.6928   17.7300 C   0  0  0  0  0  0  0  0  0  0  0  0
    8.3867  -13.2771   19.0251 C   0  0  0  0  0  0  0  0  0  0  0  0
    8.6377  -14.6285   19.6659 C   0  0  1  0  0  0  0  0  0  0  0  0
    9.0096  -14.5274   21.0865 C   0  0  0  0  0  0  0  0  0  0  0  0
   10.1706  -14.2565   21.4956 O   0  0  0  0  0  0  0  0  0  0  0  0
    7.9857  -14.7515   22.0469 N   0  0  0  0  0  0  0  0  0  0  0  0
    8.1956  -14.4666   23.4781 C   0  0  1  0  0  0  0  0  0  0  0  0
    6.9184  -13.8870   23.9855 C   0  0  0  0  0  0  0  0  0  0  0  0
    6.9141  -13.3713   25.3443 C   0  0  0  0  0  0  0  0  0  0  0  0
    8.0113  -13.3730   26.1880 C   0  0  0  0  0  0  0  0  0  0  0  0
    7.6320  -12.8202   27.3494 N   0  0  0  0  0  0  0  0  0  0  0  0
    6.3513  -12.4753   27.2669 C   0  0  0  0  0  0  0  0  0  0  0  0
    5.9077  -12.8168   26.0257 N   0  0  0  0  0  0  0  0  0  0  0  0
    8.5431  -15.7294   24.1357 C   0  0  0  0  0  0  0  0  0  0  0  0
    7.8219  -16.7649   23.9062 O   0  0  0  0  0  0  0  0  0  0  0  0
    9.6243  -15.9529   25.0211 N   0  0  0  0  0  0  0  0  0  0  0  0
    9.9545  -17.3151   25.5074 C   0  0  1  0  0  0  0  0  0  0  0  0
   11.4335  -17.5496   25.2713 C   0  0  0  0  0  0  0  0  0  0  0  0
   11.8658  -18.8797   25.7594 C   0  0  0  0  0  0  0  0  0  0  0  0
   13.3397  -19.1471   25.4480 C   0  0  0  0  0  0  0  0  0  0  0  0
   13.7904  -20.4656   25.9829 C   0  0  0  0  0  0  0  0  0  0  0  0
   15.1806  -20.7314   25.6262 N   0  0  0  0  0  0  0  0  0  0  0  0
    9.5857  -17.4291   26.9013 C   0  0  0  0  0  0  0  0  0  0  0  0
    9.3198  -18.6736   27.4628 O   0  0  0  0  0  0  0  0  0  0  0  0
    9.5012  -16.3834   27.6232 O   0  0  0  0  0  0  0  0  0  0  0  0
  1  5  1  0
  1  2  1  0
  2  3  1  0
  4  3  1  0
  5  4  1  0
  6  7  2  0
  5  6  1  1
  8  6  1  0
  9  8  1  0
  9 10  1  1
 11 10  1  0
 11 15  1  0
 12 13  1  0
 12 11  2  0
 13 14  1  0
 14 15  2  0
 16  9  1  0
 17 16  2  0
 18 16  1  0
 19 18  1  0
 20 21  1  0
 19 20  1  1
 22 21  1  0
 23 22  1  0
 24 23  1  0
 25 19  1  0
 25 26  1  0
 27 25  2  0
M  END
$$$$
