PHK.pdb
     RDKit          3D

 27 28  0  0  1  0  0  0  0  0999 V2000
    9.1219  -14.5545   18.2626 N   0  0  0  0  0  0  0  0  0  0  0  0
    8.5283  -13.6803   17.2783 C   0  0  0  0  0  0  0  0  0  0  0  0
    7.2931  -13.0879   17.8698 C   0  0  0  0  0  0  0  0  0  0  0  0
    7.1818  -13.7765   19.2143 C   0  0  0  0  0  0  0  0  0  0  0  0
    8.6425  -14.0446   19.5217 C   0  0  1  0  0  0  0  0  0  0  0  0
    8.8283  -14.9828   20.6406 C   0  0  0  0  0  0  0  0  0  0  0  0
    8.1814  -14.9312   21.7211 O   0  0  0  0  0  0  0  0  0  0  0  0
    9.8016  -16.0063   20.4795 N   0  0  0  0  0  0  0  0  0  0  0  0
   10.0108  -17.0402   21.5095 C   0  0  1  0  0  0  0  0  0  0  0  0
   10.8302  -18.1115   20.8729 C   0  0  0  0  0  0  0  0  0  0  0  0
   10.1424  -19.0430   19.9944 C   0  0  0  0  0  0  0  0  0  0  0  0
    8.9412  -19.6625   20.2929 C   0  0  0  0  0  0  0  0  0  0  0  0
    8.6170  -20.4435   19.2522 N   0  0  0  0  0  0  0  0  0  0  0  0
    9.5598  -20.3385   18.3216 C   0  0  0  0  0  0  0  0  0  0  0  0
   10.5035  -19.4716   18.7817 N   0  0  0  0  0  0  0  0  0  0  0  0
   10.6915  -16.4066   22.6423 C   0  0  0  0  0  0  0  0  0  0  0  0
   11.7323  -15.6917   22.4170 O   0  0  0  0  0  0  0  0  0  0  0  0
   10.3193  -16.4865   24.0054 N   0  0  0  0  0  0  0  0  0  0  0  0
   11.0581  -15.7382   25.0520 C   0  0  1  0  0  0  0  0  0  0  0  0
   10.1896  -15.6915   26.2937 C   0  0  0  0  0  0  0  0  0  0  0  0
   10.8784  -15.0260   27.4238 C   0  0  0  0  0  0  0  0  0  0  0  0
   10.0197  -15.0239   28.6900 C   0  0  0  0  0  0  0  0  0  0  0  0
   10.6836  -14.2953   29.8107 C   0  0  0  0  0  0  0  0  0  0  0  0
    9.8507  -14.3006   31.0093 N   0  0  0  0  0  0  0  0  0  0  0  0
   12.3350  -16.3759   25.2864 C   0  0  0  0  0  0  0  0  0  0  0  0
   12.4696  -17.7548   25.1640 O   0  0  0  0  0  0  0  0  0  0  0  0
   13.3462  -15.6722   25.6093 O   0  0  0  0  0  0  0  0  0  0  0  0
  1  5  1  0
  1  2  1  0
  2  3  1  0
  4  3  1  0
  5  4  1  0
  6  7  2  0
  5  6  1  1
  8  6  1  0
  9  8  1  0
  9 10  1  6
 11 10  1  0
 11 15  1  0
 12 13  1  0
 12 11  2  0
 13 14  1  0
 14 15  2  0
 16  9  1  0
 17 16  2  0
 18 16  1  0
 19 18  1  0
 20 21  1  0
 19 20  1  1
 22 21  1  0
 23 22  1  0
 24 23  1  0
 25 19  1  0
 25 26  1  0
 27 25  2  0
M  END
$$$$
