PHK.pdb
     RDKit          3D

 27 28  0  0  1  0  0  0  0  0999 V2000
    9.1225  -13.6684   19.7769 N   0  0  0  0  0  0  0  0  0  0  0  0
    8.6881  -12.5137   19.0262 C   0  0  0  0  0  0  0  0  0  0  0  0
    7.1998  -12.5581   18.9282 C   0  0  0  0  0  0  0  0  0  0  0  0
    6.8432  -13.8757   19.5848 C   0  0  0  0  0  0  0  0  0  0  0  0
    7.9787  -14.0173   20.5800 C   0  0  1  0  0  0  0  0  0  0  0  0
    8.0636  -15.3667   21.1621 C   0  0  0  0  0  0  0  0  0  0  0  0
    7.1051  -15.9506   21.7357 O   0  0  0  0  0  0  0  0  0  0  0  0
    9.3105  -16.0425   21.0644 N   0  0  0  0  0  0  0  0  0  0  0  0
    9.4634  -17.4442   21.4950 C   0  0  1  0  0  0  0  0  0  0  0  0
   10.2740  -18.1235   20.4434 C   0  0  0  0  0  0  0  0  0  0  0  0
   10.5608  -19.5358   20.6318 C   0  0  0  0  0  0  0  0  0  0  0  0
    9.7326  -20.5664   20.2225 C   0  0  0  0  0  0  0  0  0  0  0  0
   10.3230  -21.7216   20.5619 N   0  0  0  0  0  0  0  0  0  0  0  0
   11.4785  -21.4572   21.1626 C   0  0  0  0  0  0  0  0  0  0  0  0
   11.6249  -20.1042   21.2055 N   0  0  0  0  0  0  0  0  0  0  0  0
   10.1261  -17.4371   22.8022 C   0  0  0  0  0  0  0  0  0  0  0  0
   10.9809  -16.5154   23.0570 O   0  0  0  0  0  0  0  0  0  0  0  0
    9.9227  -18.3560   23.8591 N   0  0  0  0  0  0  0  0  0  0  0  0
   10.6521  -18.2273   25.1446 C   0  0  1  0  0  0  0  0  0  0  0  0
   10.1386  -19.3018   26.0826 C   0  0  0  0  0  0  0  0  0  0  0  0
    8.7346  -19.0563   26.4864 C   0  0  0  0  0  0  0  0  0  0  0  0
    8.1981  -20.1740   27.3830 C   0  0  0  0  0  0  0  0  0  0  0  0
    6.8214  -19.8776   27.8771 C   0  0  0  0  0  0  0  0  0  0  0  0
    6.3294  -20.9476   28.7395 N   0  0  0  0  0  0  0  0  0  0  0  0
   12.0742  -18.3304   24.9013 C   0  0  0  0  0  0  0  0  0  0  0  0
   12.9854  -17.7554   25.7810 O   0  0  0  0  0  0  0  0  0  0  0  0
   12.4991  -18.9507   23.8734 O   0  0  0  0  0  0  0  0  0  0  0  0
  1  5  1  0
  1  2  1  0
  2  3  1  0
  4  3  1  0
  5  4  1  0
  6  7  2  0
  5  6  1  6
  8  6  1  0
  9  8  1  0
  9 10  1  6
 11 10  1  0
 11 15  1  0
 12 13  1  0
 12 11  2  0
 13 14  1  0
 14 15  2  0
 16  9  1  0
 17 16  2  0
 18 16  1  0
 19 18  1  0
 20 21  1  0
 19 20  1  1
 22 21  1  0
 23 22  1  0
 24 23  1  0
 25 19  1  0
 25 26  1  0
 27 25  2  0
M  END
$$$$
