PHK.pdb
     RDKit          3D

 27 28  0  0  1  0  0  0  0  0999 V2000
    7.1089  -15.2970   22.3549 N   0  0  0  0  0  0  0  0  0  0  0  0
    5.7041  -14.9785   22.4585 C   0  0  0  0  0  0  0  0  0  0  0  0
    5.0811  -15.1909   21.1193 C   0  0  0  0  0  0  0  0  0  0  0  0
    6.2589  -15.5468   20.2359 C   0  0  0  0  0  0  0  0  0  0  0  0
    7.1826  -16.2074   21.2411 C   0  0  1  0  0  0  0  0  0  0  0  0
    8.5495  -16.3912   20.7266 C   0  0  0  0  0  0  0  0  0  0  0  0
    8.8848  -17.2995   19.9195 O   0  0  0  0  0  0  0  0  0  0  0  0
    9.5441  -15.4803   21.1760 N   0  0  0  0  0  0  0  0  0  0  0  0
   10.9140  -15.5044   20.6315 C   0  0  1  0  0  0  0  0  0  0  0  0
   11.0901  -14.2319   19.8737 C   0  0  0  0  0  0  0  0  0  0  0  0
   10.2824  -14.0507   18.6790 C   0  0  0  0  0  0  0  0  0  0  0  0
    9.5074  -12.9341   18.4173 C   0  0  0  0  0  0  0  0  0  0  0  0
    8.9117  -13.1218   17.2306 N   0  0  0  0  0  0  0  0  0  0  0  0
    9.2799  -14.3019   16.7430 C   0  0  0  0  0  0  0  0  0  0  0  0
   10.1282  -14.8762   17.6400 N   0  0  0  0  0  0  0  0  0  0  0  0
   11.8391  -15.6209   21.7622 C   0  0  0  0  0  0  0  0  0  0  0  0
   11.8058  -14.7284   22.6828 O   0  0  0  0  0  0  0  0  0  0  0  0
   12.7957  -16.6428   21.9711 N   0  0  0  0  0  0  0  0  0  0  0  0
   13.5809  -16.7194   23.2275 C   0  0  1  0  0  0  0  0  0  0  0  0
   13.4335  -18.1212   23.7857 C   0  0  0  0  0  0  0  0  0  0  0  0
   13.3165  -18.1173   25.2623 C   0  0  0  0  0  0  0  0  0  0  0  0
   13.2156  -19.5355   25.8275 C   0  0  0  0  0  0  0  0  0  0  0  0
   13.0341  -19.5320   27.3088 C   0  0  0  0  0  0  0  0  0  0  0  0
   12.7359  -20.8714   27.8064 N   0  0  0  0  0  0  0  0  0  0  0  0
   14.9573  -16.3679   22.9550 C   0  0  0  0  0  0  0  0  0  0  0  0
   15.4174  -16.2754   21.6457 O   0  0  0  0  0  0  0  0  0  0  0  0
   15.7577  -16.1421   23.9195 O   0  0  0  0  0  0  0  0  0  0  0  0
  1  5  1  0
  1  2  1  0
  2  3  1  0
  4  3  1  0
  5  4  1  0
  6  7  2  0
  5  6  1  6
  8  6  1  0
  9  8  1  0
  9 10  1  1
 11 10  1  0
 11 15  1  0
 12 13  1  0
 12 11  2  0
 13 14  1  0
 14 15  2  0
 16  9  1  0
 17 16  2  0
 18 16  1  0
 19 18  1  0
 20 21  1  0
 19 20  1  6
 22 21  1  0
 23 22  1  0
 24 23  1  0
 25 19  1  0
 25 26  1  0
 27 25  2  0
M  END
$$$$
