IAS.pdb
     RDKit          3D

 20 19  0  0  1  0  0  0  0  0999 V2000
   17.2927  -16.1481  -14.8713 C   0  0  0  0  0  0  0  0  0  0  0  0
   17.8662  -15.5816  -16.1447 C   0  0  0  0  0  0  0  0  0  0  0  0
   18.3418  -14.1637  -15.9812 C   0  0  2  0  0  0  0  0  0  0  0  0
   17.2518  -13.2643  -15.4610 C   0  0  0  0  0  0  0  0  0  0  0  0
   18.9354  -13.6760  -17.2763 C   0  0  2  0  0  0  0  0  0  0  0  0
   19.9456  -14.6367  -17.6739 N   0  0  0  0  0  0  0  0  0  0  0  0
   19.5361  -12.3528  -17.1929 C   0  0  0  0  0  0  0  0  0  0  0  0
   20.5678  -12.1499  -16.5104 O   0  0  0  0  0  0  0  0  0  0  0  0
   19.0797   -9.1759  -19.0486 C   0  0  0  0  0  0  0  0  0  0  0  0
   19.6155   -9.9489  -17.8801 C   0  0  2  0  0  0  0  0  0  0  0  0
   18.9623  -11.2610  -17.8864 N   0  0  0  0  0  0  0  0  0  0  0  0
   19.3549   -9.2901  -16.5838 C   0  0  0  0  0  0  0  0  0  0  0  0
   18.3087   -9.4316  -15.9190 O   0  0  0  0  0  0  0  0  0  0  0  0
   22.2610   -8.5360  -13.8758 O   0  0  0  0  0  0  0  0  0  0  0  0
   21.6037   -7.3824  -14.2641 C   0  0  0  0  0  0  0  0  0  0  0  0
   20.2263   -7.7013  -14.8363 C   0  0  2  0  0  0  0  0  0  0  0  0
   20.3671   -8.4347  -16.0564 N   0  0  0  0  0  0  0  0  0  0  0  0
   19.5256   -6.4149  -15.0116 C   0  0  0  0  0  0  0  0  0  0  0  0
   19.1498   -5.7316  -14.0323 O   0  0  0  0  0  0  0  0  0  0  0  0
   19.2756   -5.9490  -16.2849 O   0  0  0  0  0  0  0  0  0  0  0  0
  2  1  1  0
  3  2  1  0
  3  4  1  6
  5  7  1  0
  5  3  1  0
  5  6  1  1
  7 11  1  0
  8  7  2  0
 10  9  1  6
 10 12  1  0
 11 10  1  0
 12 13  2  0
 12 17  1  0
 14 15  1  0
 16 15  1  6
 16 18  1  0
 17 16  1  0
 18 20  1  0
 19 18  2  0
M  END
$$$$
