IAS.pdb
     RDKit          3D

 20 19  0  0  1  0  0  0  0  0999 V2000
   16.2290  -14.4628  -15.9850 C   0  0  0  0  0  0  0  0  0  0  0  0
   16.4134  -13.0310  -16.4178 C   0  0  0  0  0  0  0  0  0  0  0  0
   17.7117  -12.4456  -15.9330 C   0  0  2  0  0  0  0  0  0  0  0  0
   17.8858  -12.6236  -14.4478 C   0  0  0  0  0  0  0  0  0  0  0  0
   17.8118  -11.0070  -16.3663 C   0  0  2  0  0  0  0  0  0  0  0  0
   17.5999  -10.9751  -17.8000 N   0  0  0  0  0  0  0  0  0  0  0  0
   19.0882  -10.3805  -16.0545 C   0  0  0  0  0  0  0  0  0  0  0  0
   19.5088  -10.3155  -14.8755 O   0  0  0  0  0  0  0  0  0  0  0  0
   21.8873   -8.9489  -18.0499 C   0  0  0  0  0  0  0  0  0  0  0  0
   21.1309   -9.1245  -16.7664 C   0  0  2  0  0  0  0  0  0  0  0  0
   19.8853   -9.8283  -17.0850 N   0  0  0  0  0  0  0  0  0  0  0  0
   20.8025   -7.8425  -16.1100 C   0  0  0  0  0  0  0  0  0  0  0  0
   19.7702   -7.1792  -16.3359 O   0  0  0  0  0  0  0  0  0  0  0  0
   22.4419   -4.7424  -12.6957 O   0  0  0  0  0  0  0  0  0  0  0  0
   22.5799   -5.9478  -13.3602 C   0  0  0  0  0  0  0  0  0  0  0  0
   21.5612   -6.0726  -14.4884 C   0  0  2  0  0  0  0  0  0  0  0  0
   21.7273   -7.3281  -15.1538 N   0  0  0  0  0  0  0  0  0  0  0  0
   21.7627   -4.9142  -15.3793 C   0  0  0  0  0  0  0  0  0  0  0  0
   21.0556   -3.8850  -15.2906 O   0  0  0  0  0  0  0  0  0  0  0  0
   22.7543   -4.9613  -16.3362 O   0  0  0  0  0  0  0  0  0  0  0  0
  2  1  1  0
  3  2  1  0
  3  4  1  1
  5  7  1  0
  5  3  1  0
  5  6  1  6
  7 11  1  0
  8  7  2  0
 10  9  1  6
 10 12  1  0
 11 10  1  0
 12 13  2  0
 12 17  1  0
 14 15  1  0
 16 15  1  1
 16 18  1  0
 17 16  1  0
 18 20  1  0
 19 18  2  0
M  END
$$$$
