IAS.pdb
     RDKit          3D

 20 19  0  0  1  0  0  0  0  0999 V2000
   26.3691  -11.7202  -15.6792 C   0  0  0  0  0  0  0  0  0  0  0  0
   24.8752  -11.6067  -15.8433 C   0  0  0  0  0  0  0  0  0  0  0  0
   24.4605  -10.2926  -16.4468 C   0  0  2  0  0  0  0  0  0  0  0  0
   24.9861   -9.1233  -15.6568 C   0  0  0  0  0  0  0  0  0  0  0  0
   22.9643  -10.2617  -16.6138 C   0  0  2  0  0  0  0  0  0  0  0  0
   22.5664  -11.5461  -17.1554 N   0  0  0  0  0  0  0  0  0  0  0  0
   22.4865   -9.2015  -17.4893 C   0  0  0  0  0  0  0  0  0  0  0  0
   23.1403   -8.8490  -18.4990 O   0  0  0  0  0  0  0  0  0  0  0  0
   19.4596   -7.9153  -18.6507 C   0  0  0  0  0  0  0  0  0  0  0  0
   20.7811   -7.4745  -18.0944 C   0  0  2  0  0  0  0  0  0  0  0  0
   21.2644   -8.5429  -17.2152 N   0  0  0  0  0  0  0  0  0  0  0  0
   20.6916   -6.2199  -17.3196 C   0  0  0  0  0  0  0  0  0  0  0  0
   20.3675   -5.1156  -17.8013 O   0  0  0  0  0  0  0  0  0  0  0  0
   20.7154   -6.5853  -13.1829 O   0  0  0  0  0  0  0  0  0  0  0  0
   20.2204   -5.4459  -13.7915 C   0  0  0  0  0  0  0  0  0  0  0  0
   20.9884   -5.1286  -15.0704 C   0  0  2  0  0  0  0  0  0  0  0  0
   20.9960   -6.2742  -15.9272 N   0  0  0  0  0  0  0  0  0  0  0  0
   22.3405   -4.7002  -14.6646 C   0  0  0  0  0  0  0  0  0  0  0  0
   23.3632   -5.3329  -15.0123 O   0  0  0  0  0  0  0  0  0  0  0  0
   22.4868   -3.5745  -13.8821 O   0  0  0  0  0  0  0  0  0  0  0  0
  2  1  1  0
  3  2  1  0
  3  4  1  1
  5  7  1  0
  5  3  1  0
  5  6  1  6
  7 11  1  0
  8  7  2  0
 10  9  1  1
 10 12  1  0
 11 10  1  0
 12 13  2  0
 12 17  1  0
 14 15  1  0
 16 15  1  1
 16 18  1  0
 17 16  1  0
 18 20  1  0
 19 18  2  0
M  END
$$$$
