IAS.pdb
     RDKit          3D

 20 19  0  0  1  0  0  0  0  0999 V2000
   21.7672  -16.7493  -14.6058 C   0  0  0  0  0  0  0  0  0  0  0  0
   22.8338  -16.1130  -15.4596 C   0  0  0  0  0  0  0  0  0  0  0  0
   22.7216  -14.6133  -15.4984 C   0  0  2  0  0  0  0  0  0  0  0  0
   21.3377  -14.1655  -15.8883 C   0  0  0  0  0  0  0  0  0  0  0  0
   23.7936  -14.0482  -16.3923 C   0  0  2  0  0  0  0  0  0  0  0  0
   25.0690  -14.4952  -15.8679 N   0  0  0  0  0  0  0  0  0  0  0  0
   23.7908  -12.5951  -16.4770 C   0  0  0  0  0  0  0  0  0  0  0  0
   24.1590  -11.8875  -15.5100 O   0  0  0  0  0  0  0  0  0  0  0  0
   23.0258  -10.1107  -19.1523 C   0  0  0  0  0  0  0  0  0  0  0  0
   23.2868  -10.4857  -17.7235 C   0  0  2  0  0  0  0  0  0  0  0  0
   23.3689  -11.9478  -17.6625 N   0  0  0  0  0  0  0  0  0  0  0  0
   22.2264  -10.0265  -16.8033 C   0  0  0  0  0  0  0  0  0  0  0  0
   21.1791  -10.6603  -16.5624 O   0  0  0  0  0  0  0  0  0  0  0  0
   21.2237   -6.4599  -13.6037 O   0  0  0  0  0  0  0  0  0  0  0  0
   22.0602   -6.9607  -14.5851 C   0  0  0  0  0  0  0  0  0  0  0  0
   21.4854   -8.2328  -15.1998 C   0  0  2  0  0  0  0  0  0  0  0  0
   22.4118   -8.7744  -16.1459 N   0  0  0  0  0  0  0  0  0  0  0  0
   20.1882   -7.8708  -15.8018 C   0  0  0  0  0  0  0  0  0  0  0  0
   20.1019   -7.4595  -16.9810 O   0  0  0  0  0  0  0  0  0  0  0  0
   19.0380   -7.9869  -15.0504 O   0  0  0  0  0  0  0  0  0  0  0  0
  2  1  1  0
  3  2  1  0
  3  4  1  6
  5  7  1  0
  5  3  1  0
  5  6  1  1
  7 11  1  0
  8  7  2  0
 10  9  1  6
 10 12  1  0
 11 10  1  0
 12 13  2  0
 12 17  1  0
 14 15  1  0
 16 15  1  6
 16 18  1  0
 17 16  1  0
 18 20  1  0
 19 18  2  0
M  END
$$$$
