IAS.pdb
     RDKit          3D

 20 19  0  0  1  0  0  0  0  0999 V2000
   16.2691  -15.9019  -12.2120 C   0  0  0  0  0  0  0  0  0  0  0  0
   15.4606  -14.8569  -12.9373 C   0  0  0  0  0  0  0  0  0  0  0  0
   16.0189  -13.4713  -12.7598 C   0  0  2  0  0  0  0  0  0  0  0  0
   15.8987  -12.9977  -11.3354 C   0  0  0  0  0  0  0  0  0  0  0  0
   15.3717  -12.5345  -13.7452 C   0  0  2  0  0  0  0  0  0  0  0  0
   15.6172  -13.0691  -15.0702 N   0  0  0  0  0  0  0  0  0  0  0  0
   15.8676  -11.1676  -13.6785 C   0  0  0  0  0  0  0  0  0  0  0  0
   16.9538  -10.8440  -14.2140 O   0  0  0  0  0  0  0  0  0  0  0  0
   15.1276   -8.1276  -14.2444 C   0  0  0  0  0  0  0  0  0  0  0  0
   15.5969   -8.7814  -12.9785 C   0  0  2  0  0  0  0  0  0  0  0  0
   15.1269  -10.1694  -13.0022 N   0  0  0  0  0  0  0  0  0  0  0  0
   15.0804   -8.1212  -11.7621 C   0  0  0  0  0  0  0  0  0  0  0  0
   13.9183   -8.2538  -11.3276 O   0  0  0  0  0  0  0  0  0  0  0  0
   17.3712   -7.3902   -8.5271 O   0  0  0  0  0  0  0  0  0  0  0  0
   16.8107   -6.2274   -9.0244 C   0  0  0  0  0  0  0  0  0  0  0  0
   15.5827   -6.5304   -9.8767 C   0  0  2  0  0  0  0  0  0  0  0  0
   15.9694   -7.2754  -11.0351 N   0  0  0  0  0  0  0  0  0  0  0  0
   14.9563   -5.2354  -10.2036 C   0  0  0  0  0  0  0  0  0  0  0  0
   15.1563   -4.6661  -11.3005 O   0  0  0  0  0  0  0  0  0  0  0  0
   14.1284   -4.6323   -9.2806 O   0  0  0  0  0  0  0  0  0  0  0  0
  2  1  1  0
  3  2  1  0
  3  4  1  1
  5  7  1  0
  5  3  1  0
  5  6  1  6
  7 11  1  0
  8  7  2  0
 10  9  1  6
 10 12  1  0
 11 10  1  0
 12 13  2  0
 12 17  1  0
 14 15  1  0
 16 15  1  1
 16 18  1  0
 17 16  1  0
 18 20  1  0
 19 18  2  0
M  END
$$$$
