IAS.pdb
     RDKit          3D

 20 19  0  0  1  0  0  0  0  0999 V2000
   11.9308  -13.7195  -10.2446 C   0  0  0  0  0  0  0  0  0  0  0  0
   12.9927  -13.4961  -11.2905 C   0  0  0  0  0  0  0  0  0  0  0  0
   13.8273  -12.2758  -11.0121 C   0  0  2  0  0  0  0  0  0  0  0  0
   12.9824  -11.0348  -10.8952 C   0  0  0  0  0  0  0  0  0  0  0  0
   14.9078  -12.1528  -12.0537 C   0  0  2  0  0  0  0  0  0  0  0  0
   15.6309  -13.4091  -12.0721 N   0  0  0  0  0  0  0  0  0  0  0  0
   15.8425  -11.0631  -11.8135 C   0  0  0  0  0  0  0  0  0  0  0  0
   16.5867  -11.0563  -10.8049 O   0  0  0  0  0  0  0  0  0  0  0  0
   17.4517   -8.4460  -13.7407 C   0  0  0  0  0  0  0  0  0  0  0  0
   16.8130   -8.8454  -12.4435 C   0  0  2  0  0  0  0  0  0  0  0  0
   15.9298   -9.9814  -12.7217 N   0  0  0  0  0  0  0  0  0  0  0  0
   16.0192   -7.7595  -11.8327 C   0  0  0  0  0  0  0  0  0  0  0  0
   14.8680   -7.4401  -12.1921 O   0  0  0  0  0  0  0  0  0  0  0  0
   17.2325   -6.3557   -8.1514 O   0  0  0  0  0  0  0  0  0  0  0  0
   15.9739   -6.0529   -8.6390 C   0  0  0  0  0  0  0  0  0  0  0  0
   15.9982   -5.8831  -10.1545 C   0  0  2  0  0  0  0  0  0  0  0  0
   16.6080   -7.0269  -10.7598 N   0  0  0  0  0  0  0  0  0  0  0  0
   16.7188   -4.6267  -10.4346 C   0  0  0  0  0  0  0  0  0  0  0  0
   17.8065   -4.6160  -11.0542 O   0  0  0  0  0  0  0  0  0  0  0  0
   16.1846   -3.4305  -10.0048 O   0  0  0  0  0  0  0  0  0  0  0  0
  2  1  1  0
  3  2  1  0
  3  4  1  6
  5  7  1  0
  5  3  1  0
  5  6  1  1
  7 11  1  0
  8  7  2  0
 10  9  1  6
 10 12  1  0
 11 10  1  0
 12 13  2  0
 12 17  1  0
 14 15  1  0
 16 15  1  1
 16 18  1  0
 17 16  1  0
 18 20  1  0
 19 18  2  0
M  END
$$$$
