IAS.pdb
     RDKit          3D

 20 19  0  0  1  0  0  0  0  0999 V2000
   25.8908  -33.1722  -14.0178 C   0  0  0  0  0  0  0  0  0  0  0  0
   24.7948  -33.7170  -13.1382 C   0  0  0  0  0  0  0  0  0  0  0  0
   24.9699  -33.3315  -11.6946 C   0  0  2  0  0  0  0  0  0  0  0  0
   26.3093  -33.7633  -11.1586 C   0  0  0  0  0  0  0  0  0  0  0  0
   23.8163  -33.8622  -10.8853 C   0  0  2  0  0  0  0  0  0  0  0  0
   22.6085  -33.2589  -11.4131 N   0  0  0  0  0  0  0  0  0  0  0  0
   23.9117  -33.5805   -9.4603 C   0  0  0  0  0  0  0  0  0  0  0  0
   23.6102  -32.4545   -8.9993 O   0  0  0  0  0  0  0  0  0  0  0  0
   23.6260  -35.4313   -6.4477 C   0  0  0  0  0  0  0  0  0  0  0  0
   24.3818  -34.3226   -7.1182 C   0  0  2  0  0  0  0  0  0  0  0  0
   24.3502  -34.5808   -8.5606 N   0  0  0  0  0  0  0  0  0  0  0  0
   25.7891  -34.2347   -6.6778 C   0  0  0  0  0  0  0  0  0  0  0  0
   26.7435  -34.7978   -7.2512 O   0  0  0  0  0  0  0  0  0  0  0  0
   26.4394  -32.5390   -2.8881 O   0  0  0  0  0  0  0  0  0  0  0  0
   27.3802  -32.2656   -3.8647 C   0  0  0  0  0  0  0  0  0  0  0  0
   27.3815  -33.3441   -4.9432 C   0  0  2  0  0  0  0  0  0  0  0  0
   26.0767  -33.4539   -5.5194 N   0  0  0  0  0  0  0  0  0  0  0  0
   27.8384  -34.5919   -4.3025 C   0  0  0  0  0  0  0  0  0  0  0  0
   27.0697  -35.5660   -4.1366 O   0  0  0  0  0  0  0  0  0  0  0  0
   29.1448  -34.6929   -3.8736 O   0  0  0  0  0  0  0  0  0  0  0  0
  2  1  1  0
  3  2  1  0
  3  4  1  1
  5  7  1  0
  5  3  1  0
  5  6  1  6
  7 11  1  0
  8  7  2  0
 10  9  1  1
 10 12  1  0
 11 10  1  0
 12 13  2  0
 12 17  1  0
 14 15  1  0
 16 15  1  1
 16 18  1  0
 17 16  1  0
 18 20  1  0
 19 18  2  0
M  END
$$$$
