IAS.pdb
     RDKit          3D

 20 19  0  0  1  0  0  0  0  0999 V2000
   18.8008  -14.6415  -17.0624 C   0  0  0  0  0  0  0  0  0  0  0  0
   18.3637  -13.2015  -17.1463 C   0  0  0  0  0  0  0  0  0  0  0  0
   19.4943  -12.2411  -16.8961 C   0  0  2  0  0  0  0  0  0  0  0  0
   20.1957  -12.5292  -15.5951 C   0  0  0  0  0  0  0  0  0  0  0  0
   18.9866  -10.8264  -16.9872 C   0  0  2  0  0  0  0  0  0  0  0  0
   18.5581  -10.6116  -18.3553 N   0  0  0  0  0  0  0  0  0  0  0  0
   19.9726   -9.8176  -16.6278 C   0  0  0  0  0  0  0  0  0  0  0  0
   20.4395   -9.7507  -15.4665 O   0  0  0  0  0  0  0  0  0  0  0  0
   21.9614   -7.3091  -18.5246 C   0  0  0  0  0  0  0  0  0  0  0  0
   21.4466   -7.8922  -17.2420 C   0  0  2  0  0  0  0  0  0  0  0  0
   20.4267   -8.8854  -17.5907 N   0  0  0  0  0  0  0  0  0  0  0  0
   20.8450   -6.8810  -16.3487 C   0  0  0  0  0  0  0  0  0  0  0  0
   19.6330   -6.5853  -16.3341 O   0  0  0  0  0  0  0  0  0  0  0  0
   22.4784   -6.2570  -12.7712 O   0  0  0  0  0  0  0  0  0  0  0  0
   22.2537   -5.0400  -13.3894 C   0  0  0  0  0  0  0  0  0  0  0  0
   21.2598   -5.1825  -14.5375 C   0  0  2  0  0  0  0  0  0  0  0  0
   21.7073   -6.1966  -15.4419 N   0  0  0  0  0  0  0  0  0  0  0  0
   21.1402   -3.8549  -15.1695 C   0  0  0  0  0  0  0  0  0  0  0  0
   21.5771   -3.6327  -16.3214 O   0  0  0  0  0  0  0  0  0  0  0  0
   20.5322   -2.8288  -14.4777 O   0  0  0  0  0  0  0  0  0  0  0  0
  2  1  1  0
  3  2  1  0
  3  4  1  1
  5  7  1  0
  5  3  1  0
  5  6  1  6
  7 11  1  0
  8  7  2  0
 10  9  1  6
 10 12  1  0
 11 10  1  0
 12 13  2  0
 12 17  1  0
 14 15  1  0
 16 15  1  1
 16 18  1  0
 17 16  1  0
 18 20  1  0
 19 18  2  0
M  END
$$$$
