EWM.pdb
     RDKit          3D

 32 33  0  0  1  0  0  0  0  0999 V2000
   25.1470  -23.7842  -16.3078 N   0  0  0  0  0  0  0  0  0  0  0  0
   24.4001  -23.6578  -15.0799 C   0  0  1  0  0  0  0  0  0  0  0  0
   24.0993  -25.0137  -14.5216 C   0  0  0  0  0  0  0  0  0  0  0  0
   23.1238  -25.7639  -15.3718 C   0  0  0  0  0  0  0  0  0  0  0  0
   22.8226  -27.0786  -14.7490 C   0  0  0  0  0  0  0  0  0  0  0  0
   22.0191  -27.1432  -13.7802 O   0  0  0  0  0  0  0  0  0  0  0  0
   25.2211  -22.8326  -14.1443 C   0  0  0  0  0  0  0  0  0  0  0  0
   26.4644  -23.0206  -13.9946 O   0  0  0  0  0  0  0  0  0  0  0  0
   23.4218  -28.2111  -15.2335 O   0  0  0  0  0  0  0  0  0  0  0  0
   24.6483  -21.7760  -13.3586 N   0  0  0  0  0  0  0  0  0  0  0  0
   25.4607  -20.9554  -12.4779 C   0  0  1  0  0  0  0  0  0  0  0  0
   25.2238  -19.5248  -12.8171 C   0  0  0  0  0  0  0  0  0  0  0  0
   26.0503  -19.0426  -13.9529 C   0  0  0  0  0  0  0  0  0  0  0  0
   25.6537  -18.3423  -15.0772 C   0  0  0  0  0  0  0  0  0  0  0  0
   26.7310  -18.1043  -15.8538 N   0  0  0  0  0  0  0  0  0  0  0  0
   27.8308  -18.6207  -15.2880 C   0  0  0  0  0  0  0  0  0  0  0  0
   29.1480  -18.6331  -15.6939 C   0  0  0  0  0  0  0  0  0  0  0  0
   30.0602  -19.2586  -14.8712 C   0  0  0  0  0  0  0  0  0  0  0  0
   29.6553  -19.8549  -13.6724 C   0  0  0  0  0  0  0  0  0  0  0  0
   28.3336  -19.8245  -13.2969 C   0  0  0  0  0  0  0  0  0  0  0  0
   27.4198  -19.2056  -14.1073 C   0  0  0  0  0  0  0  0  0  0  0  0
   25.0563  -21.1886  -11.0629 C   0  0  0  0  0  0  0  0  0  0  0  0
   23.9208  -21.6358  -10.8178 O   0  0  0  0  0  0  0  0  0  0  0  0
   29.4446  -20.0230   -6.0011 C   0  0  0  0  0  0  0  0  0  0  0  0
   27.8306  -19.3435   -5.5294 S   0  0  0  0  0  0  0  0  0  0  0  0
   26.5081  -20.1702   -6.3823 C   0  0  0  0  0  0  0  0  0  0  0  0
   26.6303  -20.3379   -7.8420 C   0  0  0  0  0  0  0  0  0  0  0  0
   25.5654  -21.0467   -8.5883 C   0  0  2  0  0  0  0  0  0  0  0  0
   25.9563  -20.9031  -10.0232 N   0  0  0  0  0  0  0  0  0  0  0  0
   24.2119  -20.4707   -8.5230 C   0  0  0  0  0  0  0  0  0  0  0  0
   23.3851  -20.7842   -7.6390 O   0  0  0  0  0  0  0  0  0  0  0  0
   23.7317  -19.5185   -9.4478 O   0  0  0  0  0  0  0  0  0  0  0  0
  2  1  1  6
  3  2  1  0
  3  4  1  0
  4  5  1  0
  5  9  1  0
  6  5  2  0
  7  2  1  0
  8  7  2  0
 10  7  1  0
 11 10  1  0
 11 12  1  6
 12 13  1  0
 13 21  1  0
 13 14  2  0
 14 15  1  0
 16 17  2  0
 16 15  1  0
 18 17  1  0
 19 18  2  0
 20 19  1  0
 20 21  2  0
 21 16  1  0
 22 23  2  0
 22 11  1  0
 25 26  1  0
 25 24  1  0
 26 27  1  0
 28 27  1  1
 28 29  1  0
 29 22  1  0
 30 32  1  0
 30 28  1  0
 31 30  2  0
M  END
$$$$
