EWM.pdb
     RDKit          3D

 32 33  0  0  1  0  0  0  0  0999 V2000
   27.3034  -23.1566  -16.0213 N   0  0  0  0  0  0  0  0  0  0  0  0
   27.2575  -21.8930  -15.3265 C   0  0  1  0  0  0  0  0  0  0  0  0
   26.8252  -20.8088  -16.2636 C   0  0  0  0  0  0  0  0  0  0  0  0
   26.5198  -21.3391  -17.6284 C   0  0  0  0  0  0  0  0  0  0  0  0
   27.4541  -20.7443  -18.6185 C   0  0  0  0  0  0  0  0  0  0  0  0
   28.3612  -19.9600  -18.2310 O   0  0  0  0  0  0  0  0  0  0  0  0
   26.3171  -22.0527  -14.1773 C   0  0  0  0  0  0  0  0  0  0  0  0
   25.5912  -23.0810  -14.0391 O   0  0  0  0  0  0  0  0  0  0  0  0
   27.3213  -21.0536  -19.9463 O   0  0  0  0  0  0  0  0  0  0  0  0
   26.1807  -21.0484  -13.1603 N   0  0  0  0  0  0  0  0  0  0  0  0
   25.2453  -21.2008  -12.0599 C   0  0  1  0  0  0  0  0  0  0  0  0
   25.6780  -20.3096  -10.9480 C   0  0  0  0  0  0  0  0  0  0  0  0
   26.9581  -20.7268  -10.3211 C   0  0  0  0  0  0  0  0  0  0  0  0
   28.0230  -21.3999  -10.8908 C   0  0  0  0  0  0  0  0  0  0  0  0
   28.9852  -21.5743   -9.9612 N   0  0  0  0  0  0  0  0  0  0  0  0
   28.6001  -21.0421   -8.7930 C   0  0  0  0  0  0  0  0  0  0  0  0
   29.2297  -20.9710   -7.5690 C   0  0  0  0  0  0  0  0  0  0  0  0
   28.5547  -20.3447   -6.5431 C   0  0  0  0  0  0  0  0  0  0  0  0
   27.2803  -19.8050   -6.7461 C   0  0  0  0  0  0  0  0  0  0  0  0
   26.6806  -19.8929   -7.9796 C   0  0  0  0  0  0  0  0  0  0  0  0
   27.3430  -20.5132   -9.0050 C   0  0  0  0  0  0  0  0  0  0  0  0
   23.8822  -20.7927  -12.5021 C   0  0  0  0  0  0  0  0  0  0  0  0
   23.7538  -19.8170  -13.2644 O   0  0  0  0  0  0  0  0  0  0  0  0
   19.6479  -25.2876  -13.8801 C   0  0  0  0  0  0  0  0  0  0  0  0
   18.4887  -24.1076  -13.1364 S   0  0  0  0  0  0  0  0  0  0  0  0
   19.2438  -22.5136  -12.9146 C   0  0  0  0  0  0  0  0  0  0  0  0
   20.6781  -22.4736  -12.5759 C   0  0  0  0  0  0  0  0  0  0  0  0
   21.3802  -21.1707  -12.5203 C   0  0  2  0  0  0  0  0  0  0  0  0
   22.7596  -21.5096  -12.0568 N   0  0  0  0  0  0  0  0  0  0  0  0
   20.8950  -20.1961  -11.5290 C   0  0  0  0  0  0  0  0  0  0  0  0
   21.3615  -20.1191  -10.3715 O   0  0  0  0  0  0  0  0  0  0  0  0
   19.8662  -19.2677  -11.7972 O   0  0  0  0  0  0  0  0  0  0  0  0
  2  1  1  6
  3  2  1  0
  3  4  1  0
  4  5  1  0
  5  9  1  0
  6  5  2  0
  7  2  1  0
  8  7  2  0
 10  7  1  0
 11 10  1  0
 11 12  1  1
 12 13  1  0
 13 21  1  0
 13 14  2  0
 14 15  1  0
 16 17  2  0
 16 15  1  0
 18 17  1  0
 19 18  2  0
 20 19  1  0
 20 21  2  0
 21 16  1  0
 22 23  2  0
 22 11  1  0
 25 26  1  0
 25 24  1  0
 26 27  1  0
 28 27  1  1
 28 29  1  0
 29 22  1  0
 30 32  1  0
 30 28  1  0
 31 30  2  0
M  END
$$$$
