EWM.pdb
     RDKit          3D

 32 33  0  0  1  0  0  0  0  0999 V2000
   14.9520  -21.9173   -1.3054 N   0  0  0  0  0  0  0  0  0  0  0  0
   14.6735  -23.2669   -0.8782 C   0  0  1  0  0  0  0  0  0  0  0  0
   15.5749  -24.2260   -1.5912 C   0  0  0  0  0  0  0  0  0  0  0  0
   15.2962  -24.2677   -3.0601 C   0  0  0  0  0  0  0  0  0  0  0  0
   16.0947  -25.3494   -3.6920 C   0  0  0  0  0  0  0  0  0  0  0  0
   16.1554  -26.4836   -3.1460 O   0  0  0  0  0  0  0  0  0  0  0  0
   14.8618  -23.3112    0.6026 C   0  0  0  0  0  0  0  0  0  0  0  0
   15.5152  -22.4228    1.2252 O   0  0  0  0  0  0  0  0  0  0  0  0
   16.7597  -25.1044   -4.8642 O   0  0  0  0  0  0  0  0  0  0  0  0
   14.3125  -24.3648    1.4086 N   0  0  0  0  0  0  0  0  0  0  0  0
   14.5843  -24.4555    2.8323 C   0  0  1  0  0  0  0  0  0  0  0  0
   13.5923  -25.3838    3.4422 C   0  0  0  0  0  0  0  0  0  0  0  0
   13.6843  -25.4565    4.9227 C   0  0  0  0  0  0  0  0  0  0  0  0
   13.8504  -24.4283    5.8321 C   0  0  0  0  0  0  0  0  0  0  0  0
   13.8799  -24.9409    7.0798 N   0  0  0  0  0  0  0  0  0  0  0  0
   13.7397  -26.2730    7.0348 C   0  0  0  0  0  0  0  0  0  0  0  0
   13.7073  -27.2231    8.0328 C   0  0  0  0  0  0  0  0  0  0  0  0
   13.5465  -28.5384    7.6525 C   0  0  0  0  0  0  0  0  0  0  0  0
   13.4218  -28.8857    6.3033 C   0  0  0  0  0  0  0  0  0  0  0  0
   13.4581  -27.9133    5.3328 C   0  0  0  0  0  0  0  0  0  0  0  0
   13.6175  -26.6039    5.7004 C   0  0  0  0  0  0  0  0  0  0  0  0
   15.9530  -25.0044    3.0461 C   0  0  0  0  0  0  0  0  0  0  0  0
   16.3283  -25.9865    2.3797 O   0  0  0  0  0  0  0  0  0  0  0  0
   23.0609  -24.7841    1.8544 C   0  0  0  0  0  0  0  0  0  0  0  0
   21.2588  -24.6848    1.6759 S   0  0  0  0  0  0  0  0  0  0  0  0
   20.4775  -24.2944    3.2242 C   0  0  0  0  0  0  0  0  0  0  0  0
   19.0118  -24.1346    3.2334 C   0  0  0  0  0  0  0  0  0  0  0  0
   18.1990  -24.8997    4.2068 C   0  0  2  0  0  0  0  0  0  0  0  0
   16.8033  -24.4110    3.9933 N   0  0  0  0  0  0  0  0  0  0  0  0
   18.4569  -24.6447    5.6338 C   0  0  0  0  0  0  0  0  0  0  0  0
   17.6834  -23.9743    6.3519 O   0  0  0  0  0  0  0  0  0  0  0  0
   19.5941  -25.1325    6.3131 O   0  0  0  0  0  0  0  0  0  0  0  0
  2  1  1  6
  3  2  1  0
  3  4  1  0
  4  5  1  0
  5  9  1  0
  6  5  2  0
  7  2  1  0
  8  7  2  0
 10  7  1  0
 11 10  1  0
 11 12  1  1
 12 13  1  0
 13 21  1  0
 13 14  2  0
 14 15  1  0
 16 17  2  0
 16 15  1  0
 18 17  1  0
 19 18  2  0
 20 19  1  0
 20 21  2  0
 21 16  1  0
 22 23  2  0
 22 11  1  0
 25 26  1  0
 25 24  1  0
 26 27  1  0
 28 27  1  6
 28 29  1  0
 29 22  1  0
 30 32  1  0
 30 28  1  0
 31 30  2  0
M  END
$$$$
