EWM.pdb
     RDKit          3D

 32 33  0  0  1  0  0  0  0  0999 V2000
   27.1274  -19.5313  -17.4090 N   0  0  0  0  0  0  0  0  0  0  0  0
   27.0815  -18.4083  -16.5043 C   0  0  1  0  0  0  0  0  0  0  0  0
   27.5703  -17.1737  -17.1954 C   0  0  0  0  0  0  0  0  0  0  0  0
   28.9693  -17.3329  -17.7000 C   0  0  0  0  0  0  0  0  0  0  0  0
   28.9482  -17.9478  -19.0521 C   0  0  0  0  0  0  0  0  0  0  0  0
   28.2315  -17.4440  -19.9581 O   0  0  0  0  0  0  0  0  0  0  0  0
   25.6693  -18.2716  -16.0383 C   0  0  0  0  0  0  0  0  0  0  0  0
   25.3123  -17.3667  -15.2275 O   0  0  0  0  0  0  0  0  0  0  0  0
   29.7086  -19.0591  -19.3031 O   0  0  0  0  0  0  0  0  0  0  0  0
   24.6319  -19.1593  -16.4827 N   0  0  0  0  0  0  0  0  0  0  0  0
   23.2741  -19.0573  -15.9777 C   0  0  1  0  0  0  0  0  0  0  0  0
   22.3489  -18.9336  -17.1381 C   0  0  0  0  0  0  0  0  0  0  0  0
   22.4399  -17.6218  -17.8285 C   0  0  0  0  0  0  0  0  0  0  0  0
   23.3728  -17.1930  -18.7546 C   0  0  0  0  0  0  0  0  0  0  0  0
   23.0793  -15.9297  -19.1266 N   0  0  0  0  0  0  0  0  0  0  0  0
   21.9851  -15.5013  -18.4820 C   0  0  0  0  0  0  0  0  0  0  0  0
   21.3084  -14.3014  -18.5274 C   0  0  0  0  0  0  0  0  0  0  0  0
   20.1941  -14.1701  -17.7265 C   0  0  0  0  0  0  0  0  0  0  0  0
   19.7739  -15.2197  -16.9029 C   0  0  0  0  0  0  0  0  0  0  0  0
   20.4716  -16.4037  -16.8815 C   0  0  0  0  0  0  0  0  0  0  0  0
   21.5798  -16.5439  -17.6734 C   0  0  0  0  0  0  0  0  0  0  0  0
   22.9299  -20.2909  -15.2161 C   0  0  0  0  0  0  0  0  0  0  0  0
   23.5714  -21.3370  -15.4252 O   0  0  0  0  0  0  0  0  0  0  0  0
   25.2522  -21.1285   -8.5811 C   0  0  0  0  0  0  0  0  0  0  0  0
   25.0425  -20.4696  -10.2577 S   0  0  0  0  0  0  0  0  0  0  0  0
   23.5645  -21.0997  -11.0186 C   0  0  0  0  0  0  0  0  0  0  0  0
   23.2167  -20.6010  -12.3617 C   0  0  0  0  0  0  0  0  0  0  0  0
   21.9602  -21.0490  -13.0052 C   0  0  2  0  0  0  0  0  0  0  0  0
   21.8893  -20.2621  -14.2734 N   0  0  0  0  0  0  0  0  0  0  0  0
   20.7043  -20.7250  -12.3082 C   0  0  0  0  0  0  0  0  0  0  0  0
   20.1892  -19.5861  -12.3365 O   0  0  0  0  0  0  0  0  0  0  0  0
   19.9753  -21.6672  -11.5510 O   0  0  0  0  0  0  0  0  0  0  0  0
  2  1  1  6
  3  2  1  0
  3  4  1  0
  4  5  1  0
  5  9  1  0
  6  5  2  0
  7  2  1  0
  8  7  2  0
 10  7  1  0
 11 10  1  0
 11 12  1  6
 12 13  1  0
 13 21  1  0
 13 14  2  0
 14 15  1  0
 16 17  2  0
 16 15  1  0
 18 17  1  0
 19 18  2  0
 20 19  1  0
 20 21  2  0
 21 16  1  0
 22 23  2  0
 22 11  1  0
 25 26  1  0
 25 24  1  0
 26 27  1  0
 28 27  1  1
 28 29  1  0
 29 22  1  0
 30 32  1  0
 30 28  1  0
 31 30  2  0
M  END
$$$$
