EWM.pdb
     RDKit          3D

 32 33  0  0  1  0  0  0  0  0999 V2000
   27.2861  -22.9797  -15.0668 N   0  0  0  0  0  0  0  0  0  0  0  0
   27.1880  -21.6374  -14.5471 C   0  0  1  0  0  0  0  0  0  0  0  0
   26.3847  -20.7849  -15.4790 C   0  0  0  0  0  0  0  0  0  0  0  0
   27.1237  -20.4932  -16.7462 C   0  0  0  0  0  0  0  0  0  0  0  0
   28.1630  -19.4618  -16.4951 C   0  0  0  0  0  0  0  0  0  0  0  0
   27.8681  -18.4196  -15.8508 O   0  0  0  0  0  0  0  0  0  0  0  0
   26.5671  -21.7308  -13.1920 C   0  0  0  0  0  0  0  0  0  0  0  0
   25.4383  -22.2732  -13.0045 O   0  0  0  0  0  0  0  0  0  0  0  0
   29.4347  -19.6523  -16.9669 O   0  0  0  0  0  0  0  0  0  0  0  0
   27.2143  -21.2103  -12.0207 N   0  0  0  0  0  0  0  0  0  0  0  0
   26.5611  -21.2155  -10.7237 C   0  0  1  0  0  0  0  0  0  0  0  0
   27.5500  -20.7837   -9.6974 C   0  0  0  0  0  0  0  0  0  0  0  0
   26.9469  -20.5394   -8.3624 C   0  0  0  0  0  0  0  0  0  0  0  0
   25.6131  -20.5539   -7.9984 C   0  0  0  0  0  0  0  0  0  0  0  0
   25.5105  -20.2807   -6.6811 N   0  0  0  0  0  0  0  0  0  0  0  0
   26.7272  -20.0847   -6.1543 C   0  0  0  0  0  0  0  0  0  0  0  0
   27.1302  -19.7843   -4.8709 C   0  0  0  0  0  0  0  0  0  0  0  0
   28.4831  -19.6435   -4.6467 C   0  0  0  0  0  0  0  0  0  0  0  0
   29.4038  -19.8014   -5.6878 C   0  0  0  0  0  0  0  0  0  0  0  0
   28.9684  -20.1011   -6.9565 C   0  0  0  0  0  0  0  0  0  0  0  0
   27.6265  -20.2430   -7.1893 C   0  0  0  0  0  0  0  0  0  0  0  0
   25.4239  -20.2527  -10.7326 C   0  0  0  0  0  0  0  0  0  0  0  0
   25.6197  -19.0795  -11.1000 O   0  0  0  0  0  0  0  0  0  0  0  0
   22.5140  -22.3424  -15.0840 C   0  0  0  0  0  0  0  0  0  0  0  0
   21.8535  -20.6639  -14.8962 S   0  0  0  0  0  0  0  0  0  0  0  0
   21.7608  -20.1946  -13.1841 C   0  0  0  0  0  0  0  0  0  0  0  0
   22.9299  -20.4743  -12.3304 C   0  0  0  0  0  0  0  0  0  0  0  0
   22.9055  -20.0768  -10.9040 C   0  0  2  0  0  0  0  0  0  0  0  0
   24.1473  -20.6759  -10.3283 N   0  0  0  0  0  0  0  0  0  0  0  0
   21.8201  -20.6315  -10.0780 C   0  0  0  0  0  0  0  0  0  0  0  0
   21.9250  -21.7139   -9.4610 O   0  0  0  0  0  0  0  0  0  0  0  0
   20.5724  -19.9929   -9.9108 O   0  0  0  0  0  0  0  0  0  0  0  0
  2  1  1  6
  3  2  1  0
  3  4  1  0
  4  5  1  0
  5  9  1  0
  6  5  2  0
  7  2  1  0
  8  7  2  0
 10  7  1  0
 11 10  1  0
 11 12  1  1
 12 13  1  0
 13 21  1  0
 13 14  2  0
 14 15  1  0
 16 17  2  0
 16 15  1  0
 18 17  1  0
 19 18  2  0
 20 19  1  0
 20 21  2  0
 21 16  1  0
 22 23  2  0
 22 11  1  0
 25 26  1  0
 25 24  1  0
 26 27  1  0
 28 27  1  6
 28 29  1  0
 29 22  1  0
 30 32  1  0
 30 28  1  0
 31 30  2  0
M  END
$$$$
