EWM.pdb
     RDKit          3D

 32 33  0  0  1  0  0  0  0  0999 V2000
   28.0185  -21.9278  -15.0278 N   0  0  0  0  0  0  0  0  0  0  0  0
   27.3261  -20.7437  -14.5805 C   0  0  1  0  0  0  0  0  0  0  0  0
   26.5912  -20.1175  -15.7243 C   0  0  0  0  0  0  0  0  0  0  0  0
   27.5255  -19.5343  -16.7363 C   0  0  0  0  0  0  0  0  0  0  0  0
   28.0645  -18.2433  -16.2364 C   0  0  0  0  0  0  0  0  0  0  0  0
   27.3972  -17.5636  -15.4112 O   0  0  0  0  0  0  0  0  0  0  0  0
   26.4068  -21.1572  -13.4786 C   0  0  0  0  0  0  0  0  0  0  0  0
   25.6685  -22.1822  -13.5666 O   0  0  0  0  0  0  0  0  0  0  0  0
   29.2839  -17.8018  -16.6774 O   0  0  0  0  0  0  0  0  0  0  0  0
   26.3058  -20.4158  -12.2531 N   0  0  0  0  0  0  0  0  0  0  0  0
   25.3529  -20.7792  -11.2193 C   0  0  1  0  0  0  0  0  0  0  0  0
   25.7686  -20.1276   -9.9465 C   0  0  0  0  0  0  0  0  0  0  0  0
   27.0872  -20.5943   -9.4474 C   0  0  0  0  0  0  0  0  0  0  0  0
   27.9904  -21.4478  -10.0537 C   0  0  0  0  0  0  0  0  0  0  0  0
   29.0632  -21.6011   -9.2499 N   0  0  0  0  0  0  0  0  0  0  0  0
   28.9075  -20.8811   -8.1302 C   0  0  0  0  0  0  0  0  0  0  0  0
   29.7189  -20.7177   -7.0281 C   0  0  0  0  0  0  0  0  0  0  0  0
   29.2646  -19.8924   -6.0218 C   0  0  0  0  0  0  0  0  0  0  0  0
   28.0265  -19.2497   -6.1242 C   0  0  0  0  0  0  0  0  0  0  0  0
   27.2416  -19.4340   -7.2373 C   0  0  0  0  0  0  0  0  0  0  0  0
   27.6841  -20.2520   -8.2423 C   0  0  0  0  0  0  0  0  0  0  0  0
   23.9973  -20.2862  -11.5930 C   0  0  0  0  0  0  0  0  0  0  0  0
   23.8914  -19.3283  -12.3809 O   0  0  0  0  0  0  0  0  0  0  0  0
   19.5927  -18.3699  -14.0263 C   0  0  0  0  0  0  0  0  0  0  0  0
   20.1244  -19.8339  -14.9552 S   0  0  0  0  0  0  0  0  0  0  0  0
   20.3966  -21.2197  -13.8755 C   0  0  0  0  0  0  0  0  0  0  0  0
   21.5965  -21.1984  -13.0191 C   0  0  0  0  0  0  0  0  0  0  0  0
   21.4981  -20.6798  -11.6353 C   0  0  2  0  0  0  0  0  0  0  0  0
   22.8566  -20.9041  -11.0552 N   0  0  0  0  0  0  0  0  0  0  0  0
   20.5920  -21.3943  -10.7207 C   0  0  0  0  0  0  0  0  0  0  0  0
   20.8631  -22.5159  -10.2391 O   0  0  0  0  0  0  0  0  0  0  0  0
   19.3444  -20.8781  -10.3090 O   0  0  0  0  0  0  0  0  0  0  0  0
  2  1  1  6
  3  2  1  0
  3  4  1  0
  4  5  1  0
  5  9  1  0
  6  5  2  0
  7  2  1  0
  8  7  2  0
 10  7  1  0
 11 10  1  0
 11 12  1  1
 12 13  1  0
 13 21  1  0
 13 14  2  0
 14 15  1  0
 16 17  2  0
 16 15  1  0
 18 17  1  0
 19 18  2  0
 20 19  1  0
 20 21  2  0
 21 16  1  0
 22 23  2  0
 22 11  1  0
 25 26  1  0
 25 24  1  0
 26 27  1  0
 28 27  1  6
 28 29  1  0
 29 22  1  0
 30 32  1  0
 30 28  1  0
 31 30  2  0
M  END
$$$$
