SEK.pdb
     RDKit          3D

 25 24  0  0  1  0  0  0  0  0999 V2000
   11.2477  -15.1864   19.4999 O   0  0  0  0  0  0  0  0  0  0  0  0
   10.3707  -15.9052   18.6758 C   0  0  0  0  0  0  0  0  0  0  0  0
   10.5088  -17.3617   19.0672 C   0  0  2  0  0  0  0  0  0  0  0  0
    9.7693  -18.2273   18.2012 N   0  0  0  0  0  0  0  0  0  0  0  0
    9.9924  -17.5269   20.4597 C   0  0  0  0  0  0  0  0  0  0  0  0
    8.7620  -17.5818   20.7080 O   0  0  0  0  0  0  0  0  0  0  0  0
   10.8383  -17.6320   21.5818 N   0  0  0  0  0  0  0  0  0  0  0  0
   10.3843  -17.9068   22.8819 C   0  0  1  0  0  0  0  0  0  0  0  0
   11.0506  -19.0050   23.6315 C   0  0  0  0  0  0  0  0  0  0  0  0
   10.8976  -20.3400   22.9235 C   0  0  0  0  0  0  0  0  0  0  0  0
   11.5160  -21.4401   23.6906 C   0  0  0  0  0  0  0  0  0  0  0  0
   12.6275  -21.8924   23.3459 O   0  0  0  0  0  0  0  0  0  0  0  0
   10.4274  -16.6648   23.6886 C   0  0  0  0  0  0  0  0  0  0  0  0
   11.4279  -15.9179   23.6003 O   0  0  0  0  0  0  0  0  0  0  0  0
   10.8836  -21.9807   24.7885 O   0  0  0  0  0  0  0  0  0  0  0  0
    9.3878  -16.2843   24.5552 N   0  0  0  0  0  0  0  0  0  0  0  0
    9.4638  -15.1592   25.4715 C   0  0  1  0  0  0  0  0  0  0  0  0
    8.0832  -14.5429   25.4718 C   0  0  0  0  0  0  0  0  0  0  0  0
    7.9132  -13.4025   26.4207 C   0  0  0  0  0  0  0  0  0  0  0  0
    6.4715  -12.9479   26.3205 C   0  0  0  0  0  0  0  0  0  0  0  0
    6.1786  -11.7689   27.2220 C   0  0  0  0  0  0  0  0  0  0  0  0
    4.8135  -11.3300   27.1557 N   0  0  0  0  0  0  0  0  0  0  0  0
    9.9596  -15.5424   26.7929 C   0  0  0  0  0  0  0  0  0  0  0  0
   10.3594  -14.6564   27.5860 O   0  0  0  0  0  0  0  0  0  0  0  0
   10.0159  -16.8576   27.2334 O   0  0  0  0  0  0  0  0  0  0  0  0
  1  2  1  0
  3  5  1  0
  3  2  1  0
  3  4  1  6
  5  6  2  0
  7  8  1  0
  7  5  1  0
  8  9  1  1
  9 10  1  0
 11 10  1  0
 11 12  2  0
 13  8  1  0
 14 13  2  0
 15 11  1  0
 16 13  1  0
 17 16  1  0
 18 19  1  0
 17 18  1  1
 19 20  1  0
 20 21  1  0
 21 22  1  0
 23 17  1  0
 23 25  1  0
 24 23  2  0
M  END
$$$$
