SEK.pdb
     RDKit          3D

 25 24  0  0  1  0  0  0  0  0999 V2000
    7.6311  -13.9684   20.5506 O   0  0  0  0  0  0  0  0  0  0  0  0
    8.3861  -14.6956   19.6200 C   0  0  0  0  0  0  0  0  0  0  0  0
    8.0809  -16.1582   19.8671 C   0  0  2  0  0  0  0  0  0  0  0  0
    6.6784  -16.4347   19.8157 N   0  0  0  0  0  0  0  0  0  0  0  0
    8.5887  -16.5233   21.2243 C   0  0  0  0  0  0  0  0  0  0  0  0
    7.8156  -16.6682   22.2041 O   0  0  0  0  0  0  0  0  0  0  0  0
    9.9552  -16.7289   21.5000 N   0  0  0  0  0  0  0  0  0  0  0  0
   10.4519  -17.1099   22.7570 C   0  0  1  0  0  0  0  0  0  0  0  0
   11.8404  -17.6385   22.8229 C   0  0  0  0  0  0  0  0  0  0  0  0
   12.2226  -18.0344   24.2385 C   0  0  0  0  0  0  0  0  0  0  0  0
   13.5776  -18.6192   24.2961 C   0  0  0  0  0  0  0  0  0  0  0  0
   14.5462  -17.9147   24.6485 O   0  0  0  0  0  0  0  0  0  0  0  0
   10.3119  -15.9779   23.7026 C   0  0  0  0  0  0  0  0  0  0  0  0
   10.6894  -14.8389   23.3463 O   0  0  0  0  0  0  0  0  0  0  0  0
   13.7939  -19.9389   23.9653 O   0  0  0  0  0  0  0  0  0  0  0  0
    9.7703  -16.1259   24.9915 N   0  0  0  0  0  0  0  0  0  0  0  0
    9.6470  -15.0420   25.9511 C   0  0  1  0  0  0  0  0  0  0  0  0
    8.3335  -14.3650   25.6312 C   0  0  0  0  0  0  0  0  0  0  0  0
    7.9935  -13.2173   26.5241 C   0  0  0  0  0  0  0  0  0  0  0  0
    6.6327  -12.7060   26.0972 C   0  0  0  0  0  0  0  0  0  0  0  0
    6.1477  -11.5701   26.9708 C   0  0  0  0  0  0  0  0  0  0  0  0
    4.8098  -11.1503   26.6637 N   0  0  0  0  0  0  0  0  0  0  0  0
    9.7754  -15.4982   27.3347 C   0  0  0  0  0  0  0  0  0  0  0  0
   10.2324  -14.7184   28.2048 O   0  0  0  0  0  0  0  0  0  0  0  0
    9.4141  -16.7714   27.7536 O   0  0  0  0  0  0  0  0  0  0  0  0
  1  2  1  0
  3  5  1  0
  3  2  1  0
  3  4  1  1
  5  6  2  0
  7  8  1  0
  7  5  1  0
  8  9  1  6
  9 10  1  0
 11 10  1  0
 11 12  2  0
 13  8  1  0
 14 13  2  0
 15 11  1  0
 16 13  1  0
 17 16  1  0
 18 19  1  0
 17 18  1  1
 19 20  1  0
 20 21  1  0
 21 22  1  0
 23 17  1  0
 23 25  1  0
 24 23  2  0
M  END
$$$$
