SEK.pdb
     RDKit          3D

 25 24  0  0  1  0  0  0  0  0999 V2000
    7.9213  -11.6705   19.1876 O   0  0  0  0  0  0  0  0  0  0  0  0
    7.8662  -12.8195   19.9886 C   0  0  0  0  0  0  0  0  0  0  0  0
    8.4703  -13.9427   19.1720 C   0  0  2  0  0  0  0  0  0  0  0  0
    7.6190  -14.3485   18.0965 N   0  0  0  0  0  0  0  0  0  0  0  0
    8.6911  -15.1147   20.0726 C   0  0  0  0  0  0  0  0  0  0  0  0
    7.8962  -16.0873   20.1012 O   0  0  0  0  0  0  0  0  0  0  0  0
    9.7937  -15.2124   20.9445 N   0  0  0  0  0  0  0  0  0  0  0  0
   10.1433  -16.3829   21.6371 C   0  0  1  0  0  0  0  0  0  0  0  0
   11.5596  -16.8316   21.5700 C   0  0  0  0  0  0  0  0  0  0  0  0
   11.9365  -17.2902   20.1720 C   0  0  0  0  0  0  0  0  0  0  0  0
   13.3204  -17.8032   20.1190 C   0  0  0  0  0  0  0  0  0  0  0  0
   13.7189  -18.4186   19.1085 O   0  0  0  0  0  0  0  0  0  0  0  0
    9.7358  -16.2530   23.0556 C   0  0  0  0  0  0  0  0  0  0  0  0
   10.0081  -15.1977   23.6713 O   0  0  0  0  0  0  0  0  0  0  0  0
   14.1868  -17.6133   21.1731 O   0  0  0  0  0  0  0  0  0  0  0  0
    9.0522  -17.2686   23.7467 N   0  0  0  0  0  0  0  0  0  0  0  0
    8.8271  -17.2659   25.1821 C   0  0  1  0  0  0  0  0  0  0  0  0
    8.0606  -18.5359   25.4745 C   0  0  0  0  0  0  0  0  0  0  0  0
    7.8519  -18.8141   26.9268 C   0  0  0  0  0  0  0  0  0  0  0  0
    7.1190  -20.1361   27.0284 C   0  0  0  0  0  0  0  0  0  0  0  0
    6.6527  -20.4256   28.4382 C   0  0  0  0  0  0  0  0  0  0  0  0
    5.8864  -21.6347   28.5446 N   0  0  0  0  0  0  0  0  0  0  0  0
   10.0652  -17.1128   25.9453 C   0  0  0  0  0  0  0  0  0  0  0  0
   10.0427  -16.5207   27.0511 O   0  0  0  0  0  0  0  0  0  0  0  0
   11.2925  -17.5942   25.5105 O   0  0  0  0  0  0  0  0  0  0  0  0
  1  2  1  0
  3  5  1  0
  3  2  1  0
  3  4  1  6
  5  6  2  0
  7  8  1  0
  7  5  1  0
  8  9  1  1
  9 10  1  0
 11 10  1  0
 11 12  2  0
 13  8  1  0
 14 13  2  0
 15 11  1  0
 16 13  1  0
 17 16  1  0
 18 19  1  0
 17 18  1  1
 19 20  1  0
 20 21  1  0
 21 22  1  0
 23 17  1  0
 23 25  1  0
 24 23  2  0
M  END
$$$$
