SEK.pdb
     RDKit          3D

 25 24  0  0  1  0  0  0  0  0999 V2000
    8.7273  -12.1740   17.7891 O   0  0  0  0  0  0  0  0  0  0  0  0
    9.3398  -13.0783   18.6677 C   0  0  0  0  0  0  0  0  0  0  0  0
    8.7475  -14.4392   18.3665 C   0  0  2  0  0  0  0  0  0  0  0  0
    7.4635  -14.3447   17.7431 N   0  0  0  0  0  0  0  0  0  0  0  0
    8.5983  -15.1840   19.6534 C   0  0  0  0  0  0  0  0  0  0  0  0
    7.5547  -15.1035   20.3484 O   0  0  0  0  0  0  0  0  0  0  0  0
    9.6055  -16.0207   20.1741 N   0  0  0  0  0  0  0  0  0  0  0  0
    9.4648  -16.7788   21.3477 C   0  0  1  0  0  0  0  0  0  0  0  0
   10.3027  -17.9992   21.4897 C   0  0  0  0  0  0  0  0  0  0  0  0
   10.0792  -18.6797   22.8290 C   0  0  0  0  0  0  0  0  0  0  0  0
   10.9677  -19.8461   23.0051 C   0  0  0  0  0  0  0  0  0  0  0  0
   10.6595  -20.9463   22.5016 O   0  0  0  0  0  0  0  0  0  0  0  0
    9.6700  -15.9024   22.5246 C   0  0  0  0  0  0  0  0  0  0  0  0
   10.7667  -15.3142   22.6596 O   0  0  0  0  0  0  0  0  0  0  0  0
   12.1403  -19.7415   23.7207 O   0  0  0  0  0  0  0  0  0  0  0  0
    8.6818  -15.6999   23.5038 N   0  0  0  0  0  0  0  0  0  0  0  0
    8.8614  -14.8661   24.6801 C   0  0  1  0  0  0  0  0  0  0  0  0
    7.5688  -14.0970   24.8328 C   0  0  0  0  0  0  0  0  0  0  0  0
    7.5431  -13.1501   25.9873 C   0  0  0  0  0  0  0  0  0  0  0  0
    6.1889  -12.4707   25.9788 C   0  0  0  0  0  0  0  0  0  0  0  0
    6.0888  -11.3801   27.0225 C   0  0  0  0  0  0  0  0  0  0  0  0
    4.8678  -10.6295   26.9425 N   0  0  0  0  0  0  0  0  0  0  0  0
    9.2551  -15.6353   25.8600 C   0  0  0  0  0  0  0  0  0  0  0  0
    8.8560  -16.8175   25.9910 O   0  0  0  0  0  0  0  0  0  0  0  0
   10.0623  -15.1250   26.8674 O   0  0  0  0  0  0  0  0  0  0  0  0
  1  2  1  0
  3  5  1  0
  3  2  1  0
  3  4  1  1
  5  6  2  0
  7  8  1  0
  7  5  1  0
  8  9  1  6
  9 10  1  0
 11 10  1  0
 11 12  2  0
 13  8  1  0
 14 13  2  0
 15 11  1  0
 16 13  1  0
 17 16  1  0
 18 19  1  0
 17 18  1  1
 19 20  1  0
 20 21  1  0
 21 22  1  0
 23 17  1  0
 23 25  1  0
 24 23  2  0
M  END
$$$$
