SEK.pdb
     RDKit          3D

 25 24  0  0  1  0  0  0  0  0999 V2000
   13.4797  -16.3655   20.6432 O   0  0  0  0  0  0  0  0  0  0  0  0
   12.6937  -16.1872   21.7902 C   0  0  0  0  0  0  0  0  0  0  0  0
   11.4821  -17.0805   21.6247 C   0  0  2  0  0  0  0  0  0  0  0  0
   10.4712  -16.4766   20.8126 N   0  0  0  0  0  0  0  0  0  0  0  0
   10.9073  -17.3511   22.9774 C   0  0  0  0  0  0  0  0  0  0  0  0
    9.8331  -16.8226   23.3586 O   0  0  0  0  0  0  0  0  0  0  0  0
   11.5215  -18.2084   23.9119 N   0  0  0  0  0  0  0  0  0  0  0  0
   10.9704  -18.5257   25.1640 C   0  0  1  0  0  0  0  0  0  0  0  0
   11.2690  -19.8667   25.7334 C   0  0  0  0  0  0  0  0  0  0  0  0
   10.5386  -20.0935   27.0456 C   0  0  0  0  0  0  0  0  0  0  0  0
   10.8047  -21.4385   27.5945 C   0  0  0  0  0  0  0  0  0  0  0  0
   11.1444  -21.5685   28.7888 O   0  0  0  0  0  0  0  0  0  0  0  0
   11.3476  -17.4807   26.1442 C   0  0  0  0  0  0  0  0  0  0  0  0
   12.5485  -17.1398   26.2364 O   0  0  0  0  0  0  0  0  0  0  0  0
   10.6839  -22.5617   26.8060 O   0  0  0  0  0  0  0  0  0  0  0  0
   10.4110  -16.8499   26.9817 N   0  0  0  0  0  0  0  0  0  0  0  0
   10.7473  -15.8109   27.9401 C   0  0  1  0  0  0  0  0  0  0  0  0
    9.4939  -14.9793   28.0927 C   0  0  0  0  0  0  0  0  0  0  0  0
    9.1644  -14.1309   26.9088 C   0  0  0  0  0  0  0  0  0  0  0  0
    7.8205  -13.4863   27.1802 C   0  0  0  0  0  0  0  0  0  0  0  0
    7.3533  -12.6279   26.0255 C   0  0  0  0  0  0  0  0  0  0  0  0
    6.1216  -11.9406   26.2922 N   0  0  0  0  0  0  0  0  0  0  0  0
   11.2759  -16.3506   29.1924 C   0  0  0  0  0  0  0  0  0  0  0  0
   11.8262  -15.5806   30.0160 O   0  0  0  0  0  0  0  0  0  0  0  0
   11.2041  -17.6943   29.5332 O   0  0  0  0  0  0  0  0  0  0  0  0
  1  2  1  0
  3  5  1  0
  3  2  1  0
  3  4  1  6
  5  6  2  0
  7  8  1  0
  7  5  1  0
  8  9  1  1
  9 10  1  0
 11 10  1  0
 11 12  2  0
 13  8  1  0
 14 13  2  0
 15 11  1  0
 16 13  1  0
 17 16  1  0
 18 19  1  0
 17 18  1  1
 19 20  1  0
 20 21  1  0
 21 22  1  0
 23 17  1  0
 23 25  1  0
 24 23  2  0
M  END
$$$$
