SEK.pdb
     RDKit          3D

 25 24  0  0  1  0  0  0  0  0999 V2000
    7.5277  -13.2749   20.5983 O   0  0  0  0  0  0  0  0  0  0  0  0
    8.3215  -12.4430   19.7966 C   0  0  0  0  0  0  0  0  0  0  0  0
    8.6078  -13.2155   18.5259 C   0  0  2  0  0  0  0  0  0  0  0  0
    7.4104  -13.5907   17.8392 N   0  0  0  0  0  0  0  0  0  0  0  0
    9.3581  -14.4564   18.8872 C   0  0  0  0  0  0  0  0  0  0  0  0
    8.7771  -15.5587   19.0484 O   0  0  0  0  0  0  0  0  0  0  0  0
   10.7550  -14.4794   19.0711 N   0  0  0  0  0  0  0  0  0  0  0  0
   11.4835  -15.6357   19.3938 C   0  0  1  0  0  0  0  0  0  0  0  0
   12.4299  -16.1656   18.3763 C   0  0  0  0  0  0  0  0  0  0  0  0
   13.5096  -15.1536   18.0344 C   0  0  0  0  0  0  0  0  0  0  0  0
   14.4622  -15.6853   17.0389 C   0  0  0  0  0  0  0  0  0  0  0  0
   14.3265  -15.3991   15.8313 O   0  0  0  0  0  0  0  0  0  0  0  0
   12.2046  -15.4201   20.6701 C   0  0  0  0  0  0  0  0  0  0  0  0
   12.9679  -14.4338   20.7770 O   0  0  0  0  0  0  0  0  0  0  0  0
   15.5065  -16.4980   17.4218 O   0  0  0  0  0  0  0  0  0  0  0  0
   12.0694  -16.2793   21.7746 N   0  0  0  0  0  0  0  0  0  0  0  0
   12.8452  -16.1600   22.9972 C   0  0  1  0  0  0  0  0  0  0  0  0
   12.2935  -17.2130   23.9315 C   0  0  0  0  0  0  0  0  0  0  0  0
   13.0185  -17.3297   25.2319 C   0  0  0  0  0  0  0  0  0  0  0  0
   12.3649  -18.4538   26.0094 C   0  0  0  0  0  0  0  0  0  0  0  0
   12.9212  -18.5802   27.4105 C   0  0  0  0  0  0  0  0  0  0  0  0
   12.1407  -19.4396   28.2548 N   0  0  0  0  0  0  0  0  0  0  0  0
   14.2856  -16.2507   22.7606 C   0  0  0  0  0  0  0  0  0  0  0  0
   15.0655  -15.4918   23.3850 O   0  0  0  0  0  0  0  0  0  0  0  0
   14.8557  -17.1462   21.8662 O   0  0  0  0  0  0  0  0  0  0  0  0
  1  2  1  0
  3  5  1  0
  3  2  1  0
  3  4  1  1
  5  6  2  0
  7  8  1  0
  7  5  1  0
  8  9  1  6
  9 10  1  0
 11 10  1  0
 11 12  2  0
 13  8  1  0
 14 13  2  0
 15 11  1  0
 16 13  1  0
 17 16  1  0
 18 19  1  0
 17 18  1  1
 19 20  1  0
 20 21  1  0
 21 22  1  0
 23 17  1  0
 23 25  1  0
 24 23  2  0
M  END
$$$$
