TIN.pdb
     RDKit          3D

 24 23  0  0  1  0  0  0  0  0999 V2000
    5.7071  -16.8096   20.4292 C   0  0  0  0  0  0  0  0  0  0  0  0
    6.6531  -16.6050   21.6046 C   0  0  1  0  0  0  0  0  0  0  0  0
    7.6905  -17.5060   21.4607 O   0  0  0  0  0  0  0  0  0  0  0  0
    7.1222  -15.1718   21.5566 C   0  0  2  0  0  0  0  0  0  0  0  0
    7.7485  -14.9342   20.2865 N   0  0  0  0  0  0  0  0  0  0  0  0
    8.0361  -14.8514   22.6876 C   0  0  0  0  0  0  0  0  0  0  0  0
    9.2643  -14.7547   22.4931 O   0  0  0  0  0  0  0  0  0  0  0  0
    5.9184  -11.7228   26.5795 C   0  0  0  0  0  0  0  0  0  0  0  0
    7.0249  -12.2903   25.7573 C   0  0  0  0  0  0  0  0  0  0  0  0
    7.4633  -13.6783   26.1927 C   0  0  2  0  0  0  0  0  0  0  0  0
    8.2383  -13.4703   27.4702 C   0  0  0  0  0  0  0  0  0  0  0  0
    8.3416  -14.3350   25.1617 C   0  0  2  0  0  0  0  0  0  0  0  0
    7.4931  -14.6606   23.9763 N   0  0  0  0  0  0  0  0  0  0  0  0
    8.8429  -15.6147   25.7082 C   0  0  0  0  0  0  0  0  0  0  0  0
    7.9925  -16.5044   26.0862 O   0  0  0  0  0  0  0  0  0  0  0  0
   10.8743  -18.1949   23.7220 N   0  0  0  0  0  0  0  0  0  0  0  0
   12.0284  -18.1466   24.5680 C   0  0  0  0  0  0  0  0  0  0  0  0
   13.1775  -18.4298   24.1397 O   0  0  0  0  0  0  0  0  0  0  0  0
   11.9238  -17.7532   26.0013 C   0  0  0  0  0  0  0  0  0  0  0  0
   10.5342  -17.3334   26.3948 C   0  0  2  0  0  0  0  0  0  0  0  0
   10.1860  -16.0091   25.8757 N   0  0  0  0  0  0  0  0  0  0  0  0
   10.5039  -17.2563   27.8643 C   0  0  0  0  0  0  0  0  0  0  0  0
   10.7232  -16.2015   28.4744 O   0  0  0  0  0  0  0  0  0  0  0  0
   10.2205  -18.4015   28.5967 O   0  0  0  0  0  0  0  0  0  0  0  0
  2  3  1  0
  2  1  1  6
  4  2  1  0
  4  5  1  6
  6  7  2  0
  6  4  1  0
  9  8  1  0
  9 10  1  0
 10 11  1  1
 12 10  1  0
 12 13  1  6
 13  6  1  0
 14 12  1  0
 15 14  2  0
 17 16  1  0
 18 17  2  0
 20 19  1  1
 19 17  1  0
 20 21  1  0
 21 14  1  0
 22 24  1  0
 22 20  1  0
 23 22  2  0
M  END
$$$$
