TIN.pdb
     RDKit          3D

 24 23  0  0  1  0  0  0  0  0999 V2000
    6.8305  -17.3570   21.9735 C   0  0  0  0  0  0  0  0  0  0  0  0
    7.9089  -16.9354   20.9846 C   0  0  1  0  0  0  0  0  0  0  0  0
    7.5162  -17.3733   19.7346 O   0  0  0  0  0  0  0  0  0  0  0  0
    8.0224  -15.4328   21.0608 C   0  0  2  0  0  0  0  0  0  0  0  0
    8.7798  -14.9701   19.9321 N   0  0  0  0  0  0  0  0  0  0  0  0
    8.6275  -14.9890   22.3469 C   0  0  0  0  0  0  0  0  0  0  0  0
    9.8473  -15.1478   22.5536 O   0  0  0  0  0  0  0  0  0  0  0  0
    6.8764  -11.4539   27.1928 C   0  0  0  0  0  0  0  0  0  0  0  0
    7.7889  -12.4725   26.5992 C   0  0  0  0  0  0  0  0  0  0  0  0
    7.3255  -13.0011   25.2523 C   0  0  2  0  0  0  0  0  0  0  0  0
    6.0307  -13.7235   25.5305 C   0  0  0  0  0  0  0  0  0  0  0  0
    8.3251  -13.9534   24.6528 C   0  0  2  0  0  0  0  0  0  0  0  0
    7.8030  -14.3897   23.3231 N   0  0  0  0  0  0  0  0  0  0  0  0
    8.4091  -15.1570   25.5083 C   0  0  0  0  0  0  0  0  0  0  0  0
    7.7627  -16.2141   25.1586 O   0  0  0  0  0  0  0  0  0  0  0  0
    9.9264  -18.6365   24.8085 N   0  0  0  0  0  0  0  0  0  0  0  0
   11.0996  -18.0258   25.3571 C   0  0  0  0  0  0  0  0  0  0  0  0
   12.2156  -18.6078   25.3505 O   0  0  0  0  0  0  0  0  0  0  0  0
   11.0555  -16.6644   25.9609 C   0  0  0  0  0  0  0  0  0  0  0  0
    9.9454  -16.5024   26.9627 C   0  0  2  0  0  0  0  0  0  0  0  0
    9.1359  -15.3092   26.7067 N   0  0  0  0  0  0  0  0  0  0  0  0
   10.5735  -16.3377   28.2836 C   0  0  0  0  0  0  0  0  0  0  0  0
   10.8114  -17.2997   29.0257 O   0  0  0  0  0  0  0  0  0  0  0  0
   10.9132  -15.0632   28.7176 O   0  0  0  0  0  0  0  0  0  0  0  0
  2  3  1  0
  2  1  1  1
  4  2  1  0
  4  5  1  6
  6  7  2  0
  6  4  1  0
  9  8  1  0
  9 10  1  0
 10 11  1  1
 12 10  1  0
 12 13  1  6
 13  6  1  0
 14 12  1  0
 15 14  2  0
 17 16  1  0
 18 17  2  0
 20 19  1  6
 19 17  1  0
 20 21  1  0
 21 14  1  0
 22 24  1  0
 22 20  1  0
 23 22  2  0
M  END
$$$$
