TIN.pdb
     RDKit          3D

 24 23  0  0  1  0  0  0  0  0999 V2000
    6.3345  -16.1321   19.6784 C   0  0  0  0  0  0  0  0  0  0  0  0
    6.9545  -16.0573   21.0671 C   0  0  1  0  0  0  0  0  0  0  0  0
    7.8082  -17.1357   21.1962 O   0  0  0  0  0  0  0  0  0  0  0  0
    7.6751  -14.7353   21.1643 C   0  0  2  0  0  0  0  0  0  0  0  0
    8.5966  -14.6312   20.0680 N   0  0  0  0  0  0  0  0  0  0  0  0
    8.3619  -14.5756   22.4757 C   0  0  0  0  0  0  0  0  0  0  0  0
    9.5927  -14.7573   22.5650 O   0  0  0  0  0  0  0  0  0  0  0  0
    6.2632  -10.9993   26.0802 C   0  0  0  0  0  0  0  0  0  0  0  0
    7.2706  -11.8417   25.3744 C   0  0  0  0  0  0  0  0  0  0  0  0
    7.2839  -13.2917   25.8278 C   0  0  2  0  0  0  0  0  0  0  0  0
    7.7889  -13.2615   27.2490 C   0  0  0  0  0  0  0  0  0  0  0  0
    8.1967  -14.1338   24.9774 C   0  0  2  0  0  0  0  0  0  0  0  0
    7.6019  -14.2178   23.6098 N   0  0  0  0  0  0  0  0  0  0  0  0
    8.2290  -15.5063   25.5277 C   0  0  0  0  0  0  0  0  0  0  0  0
    7.2931  -16.3283   25.2020 O   0  0  0  0  0  0  0  0  0  0  0  0
   10.7393  -19.7645   23.6535 N   0  0  0  0  0  0  0  0  0  0  0  0
   11.0803  -18.9076   24.7488 C   0  0  0  0  0  0  0  0  0  0  0  0
   11.9234  -19.2472   25.6195 O   0  0  0  0  0  0  0  0  0  0  0  0
   10.4533  -17.5654   24.9082 C   0  0  0  0  0  0  0  0  0  0  0  0
    9.7034  -17.4181   26.2036 C   0  0  2  0  0  0  0  0  0  0  0  0
    9.1907  -16.0601   26.3972 N   0  0  0  0  0  0  0  0  0  0  0  0
   10.6572  -17.6917   27.2906 C   0  0  0  0  0  0  0  0  0  0  0  0
   11.5150  -16.8695   27.6385 O   0  0  0  0  0  0  0  0  0  0  0  0
   10.5980  -18.9112   27.9522 O   0  0  0  0  0  0  0  0  0  0  0  0
  2  3  1  0
  2  1  1  6
  4  2  1  0
  4  5  1  6
  6  7  2  0
  6  4  1  0
  9  8  1  0
  9 10  1  0
 10 11  1  1
 12 10  1  0
 12 13  1  6
 13  6  1  0
 14 12  1  0
 15 14  2  0
 17 16  1  0
 18 17  2  0
 20 19  1  6
 19 17  1  0
 20 21  1  0
 21 14  1  0
 22 24  1  0
 22 20  1  0
 23 22  2  0
M  END
$$$$
