TIN.pdb
     RDKit          3D

 24 23  0  0  1  0  0  0  0  0999 V2000
    6.6397  -17.2660   21.5050 C   0  0  0  0  0  0  0  0  0  0  0  0
    7.6422  -16.7019   20.5074 C   0  0  1  0  0  0  0  0  0  0  0  0
    7.1633  -16.9770   19.2411 O   0  0  0  0  0  0  0  0  0  0  0  0
    7.7530  -15.2210   20.7739 C   0  0  2  0  0  0  0  0  0  0  0  0
    8.4492  -14.6065   19.6787 N   0  0  0  0  0  0  0  0  0  0  0  0
    8.4214  -14.9422   22.0748 C   0  0  0  0  0  0  0  0  0  0  0  0
    9.6029  -15.2961   22.2611 O   0  0  0  0  0  0  0  0  0  0  0  0
    6.8878  -11.9068   27.3539 C   0  0  0  0  0  0  0  0  0  0  0  0
    7.8079  -12.7858   26.5771 C   0  0  0  0  0  0  0  0  0  0  0  0
    7.3213  -13.0935   25.1711 C   0  0  2  0  0  0  0  0  0  0  0  0
    6.0216  -13.8377   25.3520 C   0  0  0  0  0  0  0  0  0  0  0  0
    8.3018  -13.9506   24.4165 C   0  0  2  0  0  0  0  0  0  0  0  0
    7.7005  -14.2752   23.0883 N   0  0  0  0  0  0  0  0  0  0  0  0
    8.4770  -15.2268   25.1433 C   0  0  0  0  0  0  0  0  0  0  0  0
    7.5550  -16.1215   25.0589 O   0  0  0  0  0  0  0  0  0  0  0  0
   12.1746  -19.5651   26.5307 N   0  0  0  0  0  0  0  0  0  0  0  0
   10.8901  -19.1687   26.0379 C   0  0  0  0  0  0  0  0  0  0  0  0
    9.9139  -19.9629   26.0154 O   0  0  0  0  0  0  0  0  0  0  0  0
   10.6459  -17.7896   25.5296 C   0  0  0  0  0  0  0  0  0  0  0  0
    9.7241  -16.9934   26.4120 C   0  0  2  0  0  0  0  0  0  0  0  0
    9.5673  -15.6129   25.9494 N   0  0  0  0  0  0  0  0  0  0  0  0
   10.3368  -16.9467   27.7494 C   0  0  0  0  0  0  0  0  0  0  0  0
   10.7316  -15.8892   28.2578 O   0  0  0  0  0  0  0  0  0  0  0  0
   10.4795  -18.1249   28.4703 O   0  0  0  0  0  0  0  0  0  0  0  0
  2  3  1  0
  2  1  1  1
  4  2  1  0
  4  5  1  6
  6  7  2  0
  6  4  1  0
  9  8  1  0
  9 10  1  0
 10 11  1  1
 12 10  1  0
 12 13  1  6
 13  6  1  0
 14 12  1  0
 15 14  2  0
 17 16  1  0
 18 17  2  0
 20 19  1  6
 19 17  1  0
 20 21  1  0
 21 14  1  0
 22 24  1  0
 22 20  1  0
 23 22  2  0
M  END
$$$$
