TIN.pdb
     RDKit          3D

 24 23  0  0  1  0  0  0  0  0999 V2000
    6.3431  -14.9267   19.2913 C   0  0  0  0  0  0  0  0  0  0  0  0
    7.0726  -14.9769   20.6269 C   0  0  1  0  0  0  0  0  0  0  0  0
    8.2514  -15.6690   20.4271 O   0  0  0  0  0  0  0  0  0  0  0  0
    7.3064  -13.5514   21.0624 C   0  0  2  0  0  0  0  0  0  0  0  0
    7.9738  -12.8494   20.0025 N   0  0  0  0  0  0  0  0  0  0  0  0
    8.0748  -13.4818   22.3359 C   0  0  0  0  0  0  0  0  0  0  0  0
    9.3008  -13.2535   22.3166 O   0  0  0  0  0  0  0  0  0  0  0  0
    5.7612  -11.3522   26.7578 C   0  0  0  0  0  0  0  0  0  0  0  0
    6.8259  -11.8107   25.8204 C   0  0  0  0  0  0  0  0  0  0  0  0
    7.1527  -13.2897   25.9390 C   0  0  2  0  0  0  0  0  0  0  0  0
    7.7880  -13.4509   27.2978 C   0  0  0  0  0  0  0  0  0  0  0  0
    8.1118  -13.7367   24.8686 C   0  0  2  0  0  0  0  0  0  0  0  0
    7.3972  -13.6778   23.5583 N   0  0  0  0  0  0  0  0  0  0  0  0
    8.4704  -15.1511   25.1105 C   0  0  0  0  0  0  0  0  0  0  0  0
    7.5297  -16.0276   25.1782 O   0  0  0  0  0  0  0  0  0  0  0  0
   12.3345  -16.3500   22.9459 N   0  0  0  0  0  0  0  0  0  0  0  0
   11.3667  -17.2894   23.4264 C   0  0  0  0  0  0  0  0  0  0  0  0
   10.5753  -17.8835   22.6486 O   0  0  0  0  0  0  0  0  0  0  0  0
   11.2526  -17.6127   24.8764 C   0  0  0  0  0  0  0  0  0  0  0  0
    9.9662  -17.1277   25.4864 C   0  0  2  0  0  0  0  0  0  0  0  0
    9.7609  -15.6923   25.2819 N   0  0  0  0  0  0  0  0  0  0  0  0
   10.0587  -17.3608   26.9367 C   0  0  0  0  0  0  0  0  0  0  0  0
   10.1129  -16.4310   27.7524 O   0  0  0  0  0  0  0  0  0  0  0  0
   10.0865  -18.6651   27.4125 O   0  0  0  0  0  0  0  0  0  0  0  0
  2  3  1  0
  2  1  1  6
  4  2  1  0
  4  5  1  6
  6  7  2  0
  6  4  1  0
  9  8  1  0
  9 10  1  0
 10 11  1  1
 12 10  1  0
 12 13  1  6
 13  6  1  0
 14 12  1  0
 15 14  2  0
 17 16  1  0
 18 17  2  0
 20 19  1  6
 19 17  1  0
 20 21  1  0
 21 14  1  0
 22 24  1  0
 22 20  1  0
 23 22  2  0
M  END
$$$$
