TIN.pdb
     RDKit          3D

 24 23  0  0  1  0  0  0  0  0999 V2000
    6.7038  -14.1371   18.7921 C   0  0  0  0  0  0  0  0  0  0  0  0
    7.2689  -14.3893   20.1833 C   0  0  1  0  0  0  0  0  0  0  0  0
    8.4357  -15.1128   20.0296 O   0  0  0  0  0  0  0  0  0  0  0  0
    7.5043  -13.0424   20.8210 C   0  0  2  0  0  0  0  0  0  0  0  0
    8.2339  -12.2175   19.8996 N   0  0  0  0  0  0  0  0  0  0  0  0
    8.2107  -13.1649   22.1260 C   0  0  0  0  0  0  0  0  0  0  0  0
    9.4523  -13.0586   22.1791 O   0  0  0  0  0  0  0  0  0  0  0  0
    6.0729  -11.2946   26.7604 C   0  0  0  0  0  0  0  0  0  0  0  0
    7.1147  -11.7910   25.8165 C   0  0  0  0  0  0  0  0  0  0  0  0
    7.1664  -13.3050   25.7004 C   0  0  2  0  0  0  0  0  0  0  0  0
    7.6799  -13.7907   27.0331 C   0  0  0  0  0  0  0  0  0  0  0  0
    8.0939  -13.7488   24.6012 C   0  0  2  0  0  0  0  0  0  0  0  0
    7.4569  -13.4024   23.2953 N   0  0  0  0  0  0  0  0  0  0  0  0
    8.2214  -15.2215   24.6510 C   0  0  0  0  0  0  0  0  0  0  0  0
    7.4237  -15.9386   23.9388 O   0  0  0  0  0  0  0  0  0  0  0  0
   10.5760  -19.2519   22.4924 N   0  0  0  0  0  0  0  0  0  0  0  0
   11.2598  -18.1899   23.1667 C   0  0  0  0  0  0  0  0  0  0  0  0
   12.4972  -18.2350   23.3920 O   0  0  0  0  0  0  0  0  0  0  0  0
   10.5360  -16.9736   23.6325 C   0  0  0  0  0  0  0  0  0  0  0  0
    9.7280  -17.2125   24.8784 C   0  0  2  0  0  0  0  0  0  0  0  0
    9.1412  -15.9785   25.4050 N   0  0  0  0  0  0  0  0  0  0  0  0
   10.6495  -17.7369   25.8992 C   0  0  0  0  0  0  0  0  0  0  0  0
   11.2486  -16.9965   26.6902 O   0  0  0  0  0  0  0  0  0  0  0  0
   10.8581  -19.1072   25.9833 O   0  0  0  0  0  0  0  0  0  0  0  0
  2  3  1  0
  2  1  1  6
  4  2  1  0
  4  5  1  6
  6  7  2  0
  6  4  1  0
  9  8  1  0
  9 10  1  0
 10 11  1  1
 12 10  1  0
 12 13  1  6
 13  6  1  0
 14 12  1  0
 15 14  2  0
 17 16  1  0
 18 17  2  0
 20 19  1  6
 19 17  1  0
 20 21  1  0
 21 14  1  0
 22 24  1  0
 22 20  1  0
 23 22  2  0
M  END
$$$$
