TIN.pdb
     RDKit          3D

 24 23  0  0  1  0  0  0  0  0999 V2000
    6.5149  -14.2471   18.6434 C   0  0  0  0  0  0  0  0  0  0  0  0
    7.1810  -14.5526   19.9780 C   0  0  1  0  0  0  0  0  0  0  0  0
    8.3609  -15.2183   19.7072 O   0  0  0  0  0  0  0  0  0  0  0  0
    7.4087  -13.2345   20.6761 C   0  0  2  0  0  0  0  0  0  0  0  0
    8.1167  -12.3580   19.7860 N   0  0  0  0  0  0  0  0  0  0  0  0
    8.1332  -13.4099   21.9650 C   0  0  0  0  0  0  0  0  0  0  0  0
    9.3702  -13.2579   22.0146 O   0  0  0  0  0  0  0  0  0  0  0  0
    5.9455  -11.4989   26.4765 C   0  0  0  0  0  0  0  0  0  0  0  0
    6.9359  -12.0080   25.4853 C   0  0  0  0  0  0  0  0  0  0  0  0
    7.1192  -13.5158   25.5198 C   0  0  2  0  0  0  0  0  0  0  0  0
    7.7020  -13.8165   26.8784 C   0  0  0  0  0  0  0  0  0  0  0  0
    8.0589  -13.9883   24.4431 C   0  0  2  0  0  0  0  0  0  0  0  0
    7.4017  -13.7496   23.1232 N   0  0  0  0  0  0  0  0  0  0  0  0
    8.2474  -15.4487   24.5825 C   0  0  0  0  0  0  0  0  0  0  0  0
    7.8265  -16.2219   23.6430 O   0  0  0  0  0  0  0  0  0  0  0  0
   10.3554  -18.1641   22.8242 N   0  0  0  0  0  0  0  0  0  0  0  0
   11.2245  -17.1335   23.3068 C   0  0  0  0  0  0  0  0  0  0  0  0
   12.1439  -16.6531   22.5941 O   0  0  0  0  0  0  0  0  0  0  0  0
   11.0783  -16.5757   24.6806 C   0  0  0  0  0  0  0  0  0  0  0  0
    9.8970  -17.1404   25.4208 C   0  0  2  0  0  0  0  0  0  0  0  0
    8.8552  -16.1375   25.6519 N   0  0  0  0  0  0  0  0  0  0  0  0
   10.3825  -17.5875   26.7363 C   0  0  0  0  0  0  0  0  0  0  0  0
   10.4183  -16.8336   27.7177 O   0  0  0  0  0  0  0  0  0  0  0  0
   10.8163  -18.8979   26.8883 O   0  0  0  0  0  0  0  0  0  0  0  0
  2  3  1  0
  2  1  1  6
  4  2  1  0
  4  5  1  6
  6  7  2  0
  6  4  1  0
  9  8  1  0
  9 10  1  0
 10 11  1  1
 12 10  1  0
 12 13  1  6
 13  6  1  0
 14 12  1  0
 15 14  2  0
 17 16  1  0
 18 17  2  0
 20 19  1  6
 19 17  1  0
 20 21  1  0
 21 14  1  0
 22 24  1  0
 22 20  1  0
 23 22  2  0
M  END
$$$$
