WHS.pdb
     RDKit          3D

 31 33  0  0  1  0  0  0  0  0999 V2000
    6.4062  -17.6797   24.3341 N   0  0  0  0  0  0  0  0  0  0  0  0
    7.3771  -16.7262   23.9013 C   0  0  1  0  0  0  0  0  0  0  0  0
    8.0890  -16.1454   25.0998 C   0  0  0  0  0  0  0  0  0  0  0  0
    7.2971  -15.1394   25.8361 C   0  0  0  0  0  0  0  0  0  0  0  0
    6.2783  -15.3684   26.7508 C   0  0  0  0  0  0  0  0  0  0  0  0
    5.7877  -14.2048   27.1695 N   0  0  0  0  0  0  0  0  0  0  0  0
    6.4617  -13.2167   26.5511 C   0  0  0  0  0  0  0  0  0  0  0  0
    6.3825  -11.8359   26.6088 C   0  0  0  0  0  0  0  0  0  0  0  0
    7.2162  -11.0332   25.8622 C   0  0  0  0  0  0  0  0  0  0  0  0
    8.1593  -11.5796   25.0312 C   0  0  0  0  0  0  0  0  0  0  0  0
    8.2527  -12.9535   24.9606 C   0  0  0  0  0  0  0  0  0  0  0  0
    7.4284  -13.7637   25.6973 C   0  0  0  0  0  0  0  0  0  0  0  0
    8.4329  -17.3656   23.0417 C   0  0  0  0  0  0  0  0  0  0  0  0
    8.7174  -18.5689   23.2704 O   0  0  0  0  0  0  0  0  0  0  0  0
    9.1100  -16.7019   22.0086 N   0  0  0  0  0  0  0  0  0  0  0  0
   10.3284  -17.2011   21.3922 C   0  0  1  0  0  0  0  0  0  0  0  0
   10.6781  -16.3427   20.1656 C   0  0  0  0  0  0  0  0  0  0  0  0
    9.7450  -16.5074   19.0606 C   0  0  0  0  0  0  0  0  0  0  0  0
    9.1560  -17.6776   18.6569 C   0  0  0  0  0  0  0  0  0  0  0  0
    8.3605  -17.4023   17.6017 N   0  0  0  0  0  0  0  0  0  0  0  0
    8.4364  -16.0920   17.3351 C   0  0  0  0  0  0  0  0  0  0  0  0
    9.2969  -15.5478   18.2451 N   0  0  0  0  0  0  0  0  0  0  0  0
   11.4470  -17.2426   22.3588 C   0  0  0  0  0  0  0  0  0  0  0  0
   11.9207  -16.1784   22.8266 O   0  0  0  0  0  0  0  0  0  0  0  0
   12.1503  -20.7039   23.9187 O   0  0  0  0  0  0  0  0  0  0  0  0
   12.7269  -19.6874   24.6843 C   0  0  0  0  0  0  0  0  0  0  0  0
   13.1178  -18.5767   23.6938 C   0  0  2  0  0  0  0  0  0  0  0  0
   12.0176  -18.4585   22.7888 N   0  0  0  0  0  0  0  0  0  0  0  0
   14.4066  -18.8655   23.0682 C   0  0  0  0  0  0  0  0  0  0  0  0
   14.4800  -19.0217   21.8300 O   0  0  0  0  0  0  0  0  0  0  0  0
   15.5681  -18.9747   23.8048 O   0  0  0  0  0  0  0  0  0  0  0  0
  2  1  1  1
  3  2  1  0
  4  3  1  0
  4  5  2  0
  6  5  1  0
  7  6  1  0
  8  7  2  0
  9  8  1  0
 10  9  2  0
 10 11  1  0
 11 12  2  0
 12  7  1  0
 12  4  1  0
 13 14  2  0
 13  2  1  0
 15 13  1  0
 16 15  1  0
 16 17  1  6
 18 17  1  0
 18 22  1  0
 19 18  2  0
 20 19  1  0
 20 21  1  0
 21 22  2  0
 23 16  1  0
 24 23  2  0
 25 26  1  0
 27 26  1  1
 27 28  1  0
 28 23  1  0
 29 27  1  0
 29 31  1  0
 30 29  2  0
M  END
$$$$
