WHS.pdb
     RDKit          3D

 31 33  0  0  1  0  0  0  0  0999 V2000
    6.7214  -17.6238   25.2584 N   0  0  0  0  0  0  0  0  0  0  0  0
    7.0904  -16.3351   24.7663 C   0  0  1  0  0  0  0  0  0  0  0  0
    8.2983  -15.8300   25.5188 C   0  0  0  0  0  0  0  0  0  0  0  0
    7.9760  -14.8601   26.5850 C   0  0  0  0  0  0  0  0  0  0  0  0
    8.2589  -14.9669   27.9398 C   0  0  0  0  0  0  0  0  0  0  0  0
    7.7758  -13.9049   28.5793 N   0  0  0  0  0  0  0  0  0  0  0  0
    7.1829  -13.1027   27.6749 C   0  0  0  0  0  0  0  0  0  0  0  0
    6.5327  -11.8844   27.7718 C   0  0  0  0  0  0  0  0  0  0  0  0
    6.0113  -11.2543   26.6637 C   0  0  0  0  0  0  0  0  0  0  0  0
    6.1201  -11.8173   25.4188 C   0  0  0  0  0  0  0  0  0  0  0  0
    6.7644  -13.0309   25.3030 C   0  0  0  0  0  0  0  0  0  0  0  0
    7.2867  -13.6689   26.3978 C   0  0  0  0  0  0  0  0  0  0  0  0
    7.4798  -16.3901   23.3144 C   0  0  0  0  0  0  0  0  0  0  0  0
    7.9573  -17.4700   22.8820 O   0  0  0  0  0  0  0  0  0  0  0  0
    7.3400  -15.3156   22.4245 N   0  0  0  0  0  0  0  0  0  0  0  0
    7.8339  -15.3317   21.0572 C   0  0  1  0  0  0  0  0  0  0  0  0
    7.3041  -14.1029   20.3001 C   0  0  0  0  0  0  0  0  0  0  0  0
    7.7600  -14.0345   18.9195 C   0  0  0  0  0  0  0  0  0  0  0  0
    8.4590  -13.0072   18.3404 C   0  0  0  0  0  0  0  0  0  0  0  0
    8.6879  -13.3328   17.0506 N   0  0  0  0  0  0  0  0  0  0  0  0
    8.1510  -14.5356   16.8080 C   0  0  0  0  0  0  0  0  0  0  0  0
    7.5789  -14.9607   17.9728 N   0  0  0  0  0  0  0  0  0  0  0  0
    9.3109  -15.3965   21.0152 C   0  0  0  0  0  0  0  0  0  0  0  0
    9.9930  -14.9350   21.9625 O   0  0  0  0  0  0  0  0  0  0  0  0
   12.2827  -18.4686   21.0705 O   0  0  0  0  0  0  0  0  0  0  0  0
   11.0494  -17.8196   20.9731 C   0  0  0  0  0  0  0  0  0  0  0  0
   11.2653  -16.6350   20.0152 C   0  0  2  0  0  0  0  0  0  0  0  0
   10.0026  -15.9705   19.9285 N   0  0  0  0  0  0  0  0  0  0  0  0
   11.8156  -17.0889   18.7398 C   0  0  0  0  0  0  0  0  0  0  0  0
   13.0443  -17.2886   18.6241 O   0  0  0  0  0  0  0  0  0  0  0  0
   11.0168  -17.3102   17.6368 O   0  0  0  0  0  0  0  0  0  0  0  0
  2  1  1  1
  3  2  1  0
  4  3  1  0
  4  5  2  0
  6  5  1  0
  7  6  1  0
  8  7  2  0
  9  8  1  0
 10  9  2  0
 10 11  1  0
 11 12  2  0
 12  7  1  0
 12  4  1  0
 13 14  2  0
 13  2  1  0
 15 13  1  0
 16 15  1  0
 16 17  1  1
 18 17  1  0
 18 22  1  0
 19 18  2  0
 20 19  1  0
 20 21  1  0
 21 22  2  0
 23 16  1  0
 24 23  2  0
 25 26  1  0
 27 26  1  1
 27 28  1  0
 28 23  1  0
 29 27  1  0
 29 31  1  0
 30 29  2  0
M  END
$$$$
