WHS.pdb
     RDKit          3D

 31 33  0  0  1  0  0  0  0  0999 V2000
    6.5872  -17.6354   25.2519 N   0  0  0  0  0  0  0  0  0  0  0  0
    6.9569  -16.3476   24.7578 C   0  0  1  0  0  0  0  0  0  0  0  0
    8.2197  -15.8831   25.4435 C   0  0  0  0  0  0  0  0  0  0  0  0
    7.9837  -14.9435   26.5583 C   0  0  0  0  0  0  0  0  0  0  0  0
    7.9736  -15.2280   27.9170 C   0  0  0  0  0  0  0  0  0  0  0  0
    7.6891  -14.1222   28.5999 N   0  0  0  0  0  0  0  0  0  0  0  0
    7.5128  -13.1179   27.7206 C   0  0  0  0  0  0  0  0  0  0  0  0
    7.2122  -11.7743   27.8652 C   0  0  0  0  0  0  0  0  0  0  0  0
    7.0941  -10.9398   26.7759 C   0  0  0  0  0  0  0  0  0  0  0  0
    7.2718  -11.4160   25.5031 C   0  0  0  0  0  0  0  0  0  0  0  0
    7.5716  -12.7520   25.3396 C   0  0  0  0  0  0  0  0  0  0  0  0
    7.6909  -13.5934   26.4150 C   0  0  0  0  0  0  0  0  0  0  0  0
    7.2570  -16.3877   23.2844 C   0  0  0  0  0  0  0  0  0  0  0  0
    7.6432  -17.4821   22.8002 O   0  0  0  0  0  0  0  0  0  0  0  0
    7.1299  -15.2843   22.4286 N   0  0  0  0  0  0  0  0  0  0  0  0
    7.5798  -15.2802   21.0461 C   0  0  1  0  0  0  0  0  0  0  0  0
    7.0818  -14.0070   20.3427 C   0  0  0  0  0  0  0  0  0  0  0  0
    7.4348  -13.9513   18.9317 C   0  0  0  0  0  0  0  0  0  0  0  0
    8.2291  -13.0128   18.3252 C   0  0  0  0  0  0  0  0  0  0  0  0
    8.3079  -13.3178   17.0127 N   0  0  0  0  0  0  0  0  0  0  0  0
    7.5845  -14.4212   16.7825 C   0  0  0  0  0  0  0  0  0  0  0  0
    7.0483  -14.8048   17.9784 N   0  0  0  0  0  0  0  0  0  0  0  0
    9.0504  -15.4078   20.9543 C   0  0  0  0  0  0  0  0  0  0  0  0
    9.7800  -15.0315   21.9039 O   0  0  0  0  0  0  0  0  0  0  0  0
   12.4279  -18.0144   20.7889 O   0  0  0  0  0  0  0  0  0  0  0  0
   11.1055  -17.5639   20.8045 C   0  0  0  0  0  0  0  0  0  0  0  0
   11.0305  -16.4254   19.7722 C   0  0  2  0  0  0  0  0  0  0  0  0
    9.6834  -15.9493   19.8163 N   0  0  0  0  0  0  0  0  0  0  0  0
   11.4844  -16.8804   18.4598 C   0  0  0  0  0  0  0  0  0  0  0  0
   10.6512  -17.2359   17.5982 O   0  0  0  0  0  0  0  0  0  0  0  0
   12.8225  -16.9341   18.1277 O   0  0  0  0  0  0  0  0  0  0  0  0
  2  1  1  1
  3  2  1  0
  4  3  1  0
  4  5  2  0
  6  5  1  0
  7  6  1  0
  8  7  2  0
  9  8  1  0
 10  9  2  0
 10 11  1  0
 11 12  2  0
 12  7  1  0
 12  4  1  0
 13 14  2  0
 13  2  1  0
 15 13  1  0
 16 15  1  0
 16 17  1  1
 18 17  1  0
 18 22  1  0
 19 18  2  0
 20 19  1  0
 20 21  1  0
 21 22  2  0
 23 16  1  0
 24 23  2  0
 25 26  1  0
 27 26  1  1
 27 28  1  0
 28 23  1  0
 29 27  1  0
 29 31  1  0
 30 29  2  0
M  END
$$$$
