WHS.pdb
     RDKit          3D

 31 33  0  0  1  0  0  0  0  0999 V2000
    6.5625  -17.3526   23.3639 N   0  0  0  0  0  0  0  0  0  0  0  0
    7.3301  -16.1679   23.1479 C   0  0  1  0  0  0  0  0  0  0  0  0
    8.0194  -15.7675   24.4304 C   0  0  0  0  0  0  0  0  0  0  0  0
    7.1425  -15.0589   25.3845 C   0  0  0  0  0  0  0  0  0  0  0  0
    6.0879  -15.5864   26.1169 C   0  0  0  0  0  0  0  0  0  0  0  0
    5.5212  -14.6218   26.8370 N   0  0  0  0  0  0  0  0  0  0  0  0
    6.1803  -13.4730   26.5947 C   0  0  0  0  0  0  0  0  0  0  0  0
    6.0332  -12.1793   27.0650 C   0  0  0  0  0  0  0  0  0  0  0  0
    6.8672  -11.1629   26.6549 C   0  0  0  0  0  0  0  0  0  0  0  0
    7.8783  -11.4010   25.7608 C   0  0  0  0  0  0  0  0  0  0  0  0
    8.0400  -12.6837   25.2813 C   0  0  0  0  0  0  0  0  0  0  0  0
    7.2162  -13.7039   25.6803 C   0  0  0  0  0  0  0  0  0  0  0  0
    8.4134  -16.3912   22.1285 C   0  0  0  0  0  0  0  0  0  0  0  0
    8.9348  -17.5343   22.0764 O   0  0  0  0  0  0  0  0  0  0  0  0
    8.8690  -15.4061   21.2407 N   0  0  0  0  0  0  0  0  0  0  0  0
    9.9327  -15.6221   20.2735 C   0  0  1  0  0  0  0  0  0  0  0  0
   10.0932  -14.3728   19.3918 C   0  0  0  0  0  0  0  0  0  0  0  0
    8.9569  -14.1360   18.5136 C   0  0  0  0  0  0  0  0  0  0  0  0
    8.0787  -13.0855   18.5799 C   0  0  0  0  0  0  0  0  0  0  0  0
    7.1740  -13.2344   17.5893 N   0  0  0  0  0  0  0  0  0  0  0  0
    7.4629  -14.3494   16.9059 C   0  0  0  0  0  0  0  0  0  0  0  0
    8.5692  -14.8997   17.4873 N   0  0  0  0  0  0  0  0  0  0  0  0
   11.2044  -15.9813   20.9377 C   0  0  0  0  0  0  0  0  0  0  0  0
   11.7931  -15.1505   21.6717 O   0  0  0  0  0  0  0  0  0  0  0  0
   12.2449  -19.8037   20.9390 O   0  0  0  0  0  0  0  0  0  0  0  0
   12.8618  -19.0284   21.9240 C   0  0  0  0  0  0  0  0  0  0  0  0
   13.0703  -17.6362   21.3027 C   0  0  2  0  0  0  0  0  0  0  0  0
   11.7978  -17.2507   20.7778 N   0  0  0  0  0  0  0  0  0  0  0  0
   14.1612  -17.6568   20.3305 C   0  0  0  0  0  0  0  0  0  0  0  0
   13.9213  -17.4759   19.1170 O   0  0  0  0  0  0  0  0  0  0  0  0
   15.4710  -17.8723   20.7067 O   0  0  0  0  0  0  0  0  0  0  0  0
  2  1  1  1
  3  2  1  0
  4  3  1  0
  4  5  2  0
  6  5  1  0
  7  6  1  0
  8  7  2  0
  9  8  1  0
 10  9  2  0
 10 11  1  0
 11 12  2  0
 12  7  1  0
 12  4  1  0
 13 14  2  0
 13  2  1  0
 15 13  1  0
 16 15  1  0
 16 17  1  1
 18 17  1  0
 18 22  1  0
 19 18  2  0
 20 19  1  0
 20 21  1  0
 21 22  2  0
 23 16  1  0
 24 23  2  0
 25 26  1  0
 27 26  1  6
 27 28  1  0
 28 23  1  0
 29 27  1  0
 29 31  1  0
 30 29  2  0
M  END
$$$$
