WHS.pdb
     RDKit          3D

 31 33  0  0  1  0  0  0  0  0999 V2000
    6.4647  -16.9803   23.1103 N   0  0  0  0  0  0  0  0  0  0  0  0
    7.5164  -16.0144   23.1253 C   0  0  1  0  0  0  0  0  0  0  0  0
    8.1597  -15.9840   24.4912 C   0  0  0  0  0  0  0  0  0  0  0  0
    7.3586  -15.2815   25.5140 C   0  0  0  0  0  0  0  0  0  0  0  0
    6.4417  -15.8344   26.3974 C   0  0  0  0  0  0  0  0  0  0  0  0
    5.9008  -14.8698   27.1372 N   0  0  0  0  0  0  0  0  0  0  0  0
    6.4424  -13.6962   26.7601 C   0  0  0  0  0  0  0  0  0  0  0  0
    6.2629  -12.3906   27.1840 C   0  0  0  0  0  0  0  0  0  0  0  0
    6.9663  -11.3469   26.6247 C   0  0  0  0  0  0  0  0  0  0  0  0
    7.8744  -11.5686   25.6223 C   0  0  0  0  0  0  0  0  0  0  0  0
    8.0663  -12.8628   25.1870 C   0  0  0  0  0  0  0  0  0  0  0  0
    7.3720  -13.9102   25.7342 C   0  0  0  0  0  0  0  0  0  0  0  0
    8.6023  -16.3664   22.1458 C   0  0  0  0  0  0  0  0  0  0  0  0
    8.8846  -17.5837   22.0047 O   0  0  0  0  0  0  0  0  0  0  0  0
    9.3096  -15.4225   21.3874 N   0  0  0  0  0  0  0  0  0  0  0  0
   10.2831  -15.7744   20.3666 C   0  0  1  0  0  0  0  0  0  0  0  0
   10.4510  -14.6034   19.3847 C   0  0  0  0  0  0  0  0  0  0  0  0
    9.2895  -14.3929   18.5331 C   0  0  0  0  0  0  0  0  0  0  0  0
    8.4284  -15.3557   18.0739 C   0  0  0  0  0  0  0  0  0  0  0  0
    7.4883  -14.7493   17.3186 N   0  0  0  0  0  0  0  0  0  0  0  0
    7.7386  -13.4338   17.2933 C   0  0  0  0  0  0  0  0  0  0  0  0
    8.8566  -13.2245   18.0490 N   0  0  0  0  0  0  0  0  0  0  0  0
   11.5774  -16.1676   20.9646 C   0  0  0  0  0  0  0  0  0  0  0  0
   12.1342  -15.4289   21.8132 O   0  0  0  0  0  0  0  0  0  0  0  0
   12.8626  -19.8324   20.1165 O   0  0  0  0  0  0  0  0  0  0  0  0
   13.3309  -19.3354   21.3354 C   0  0  0  0  0  0  0  0  0  0  0  0
   13.4762  -17.8151   21.1486 C   0  0  2  0  0  0  0  0  0  0  0  0
   12.2282  -17.3685   20.6135 N   0  0  0  0  0  0  0  0  0  0  0  0
   14.6481  -17.4991   20.3348 C   0  0  0  0  0  0  0  0  0  0  0  0
   14.5078  -16.9316   19.2296 O   0  0  0  0  0  0  0  0  0  0  0  0
   15.9282  -17.8083   20.7462 O   0  0  0  0  0  0  0  0  0  0  0  0
  2  1  1  1
  3  2  1  0
  4  3  1  0
  4  5  2  0
  6  5  1  0
  7  6  1  0
  8  7  2  0
  9  8  1  0
 10  9  2  0
 10 11  1  0
 11 12  2  0
 12  7  1  0
 12  4  1  0
 13 14  2  0
 13  2  1  0
 15 13  1  0
 16 15  1  0
 16 17  1  6
 18 17  1  0
 18 22  1  0
 19 18  2  0
 20 19  1  0
 20 21  1  0
 21 22  2  0
 23 16  1  0
 24 23  2  0
 25 26  1  0
 27 26  1  6
 27 28  1  0
 28 23  1  0
 29 27  1  0
 29 31  1  0
 30 29  2  0
M  END
$$$$
