WHS.pdb
     RDKit          3D

 31 33  0  0  1  0  0  0  0  0999 V2000
    6.6810  -17.6994   23.8873 N   0  0  0  0  0  0  0  0  0  0  0  0
    7.7591  -16.7881   23.6718 C   0  0  1  0  0  0  0  0  0  0  0  0
    8.1943  -16.1941   24.9902 C   0  0  0  0  0  0  0  0  0  0  0  0
    7.2649  -15.1779   25.5240 C   0  0  0  0  0  0  0  0  0  0  0  0
    6.0426  -15.3927   26.1459 C   0  0  0  0  0  0  0  0  0  0  0  0
    5.4886  -14.2224   26.4522 N   0  0  0  0  0  0  0  0  0  0  0  0
    6.3199  -13.2441   26.0462 C   0  0  0  0  0  0  0  0  0  0  0  0
    6.2603  -11.8626   26.1121 C   0  0  0  0  0  0  0  0  0  0  0  0
    7.2741  -11.0719   25.6185 C   0  0  0  0  0  0  0  0  0  0  0  0
    8.3843  -11.6315   25.0414 C   0  0  0  0  0  0  0  0  0  0  0  0
    8.4610  -13.0062   24.9667 C   0  0  0  0  0  0  0  0  0  0  0  0
    7.4585  -13.8044   25.4530 C   0  0  0  0  0  0  0  0  0  0  0  0
    8.9618  -17.4834   23.0951 C   0  0  0  0  0  0  0  0  0  0  0  0
    9.1461  -18.6856   23.4146 O   0  0  0  0  0  0  0  0  0  0  0  0
    9.8792  -16.8725   22.2282 N   0  0  0  0  0  0  0  0  0  0  0  0
   11.1106  -17.5039   21.7824 C   0  0  1  0  0  0  0  0  0  0  0  0
   11.6383  -16.7843   20.5304 C   0  0  0  0  0  0  0  0  0  0  0  0
   10.7786  -16.9446   19.3669 C   0  0  0  0  0  0  0  0  0  0  0  0
   10.2004  -18.1094   18.9331 C   0  0  0  0  0  0  0  0  0  0  0  0
    9.4812  -17.8313   17.8253 N   0  0  0  0  0  0  0  0  0  0  0  0
    9.5943  -16.5245   17.5550 C   0  0  0  0  0  0  0  0  0  0  0  0
   10.4002  -15.9853   18.5164 N   0  0  0  0  0  0  0  0  0  0  0  0
   12.1257  -17.5313   22.8576 C   0  0  0  0  0  0  0  0  0  0  0  0
   13.0083  -16.6408   22.9193 O   0  0  0  0  0  0  0  0  0  0  0  0
   11.6170  -20.2391   25.7676 O   0  0  0  0  0  0  0  0  0  0  0  0
   12.3156  -19.0878   26.1394 C   0  0  0  0  0  0  0  0  0  0  0  0
   13.1052  -18.6472   24.8945 C   0  0  2  0  0  0  0  0  0  0  0  0
   12.1436  -18.5409   23.8422 N   0  0  0  0  0  0  0  0  0  0  0  0
   14.2147  -19.5608   24.6301 C   0  0  0  0  0  0  0  0  0  0  0  0
   14.2435  -20.2193   23.5678 O   0  0  0  0  0  0  0  0  0  0  0  0
   15.2520  -19.7285   25.5243 O   0  0  0  0  0  0  0  0  0  0  0  0
  2  1  1  1
  3  2  1  0
  4  3  1  0
  4  5  2  0
  6  5  1  0
  7  6  1  0
  8  7  2  0
  9  8  1  0
 10  9  2  0
 10 11  1  0
 11 12  2  0
 12  7  1  0
 12  4  1  0
 13 14  2  0
 13  2  1  0
 15 13  1  0
 16 15  1  0
 16 17  1  6
 18 17  1  0
 18 22  1  0
 19 18  2  0
 20 19  1  0
 20 21  1  0
 21 22  2  0
 23 16  1  0
 24 23  2  0
 25 26  1  0
 27 26  1  1
 27 28  1  0
 28 23  1  0
 29 27  1  0
 29 31  1  0
 30 29  2  0
M  END
$$$$
