WHS.pdb
     RDKit          3D

 31 33  0  0  1  0  0  0  0  0999 V2000
    6.5470  -17.5111   23.6466 N   0  0  0  0  0  0  0  0  0  0  0  0
    7.3829  -16.3637   23.4914 C   0  0  1  0  0  0  0  0  0  0  0  0
    8.0041  -16.0035   24.8198 C   0  0  0  0  0  0  0  0  0  0  0  0
    7.1271  -15.1945   25.6903 C   0  0  0  0  0  0  0  0  0  0  0  0
    6.0535  -15.6339   26.4526 C   0  0  0  0  0  0  0  0  0  0  0  0
    5.4943  -14.5971   27.0710 N   0  0  0  0  0  0  0  0  0  0  0  0
    6.1768  -13.4869   26.7326 C   0  0  0  0  0  0  0  0  0  0  0  0
    6.0463  -12.1527   27.0780 C   0  0  0  0  0  0  0  0  0  0  0  0
    6.9036  -11.1929   26.5876 C   0  0  0  0  0  0  0  0  0  0  0  0
    7.9224  -11.5300   25.7349 C   0  0  0  0  0  0  0  0  0  0  0  0
    8.0677  -12.8544   25.3796 C   0  0  0  0  0  0  0  0  0  0  0  0
    7.2207  -13.8192   25.8595 C   0  0  0  0  0  0  0  0  0  0  0  0
    8.5194  -16.6337   22.5438 C   0  0  0  0  0  0  0  0  0  0  0  0
    8.8566  -17.8323   22.3682 O   0  0  0  0  0  0  0  0  0  0  0  0
    9.2162  -15.6334   21.8508 N   0  0  0  0  0  0  0  0  0  0  0  0
   10.2716  -15.9051   20.8885 C   0  0  1  0  0  0  0  0  0  0  0  0
   10.4938  -14.6701   20.0003 C   0  0  0  0  0  0  0  0  0  0  0  0
    9.3437  -14.3405   19.1713 C   0  0  0  0  0  0  0  0  0  0  0  0
    8.9249  -15.0118   18.0517 C   0  0  0  0  0  0  0  0  0  0  0  0
    7.8249  -14.3890   17.5784 N   0  0  0  0  0  0  0  0  0  0  0  0
    7.5449  -13.3468   18.3718 C   0  0  0  0  0  0  0  0  0  0  0  0
    8.4922  -13.3266   19.3551 N   0  0  0  0  0  0  0  0  0  0  0  0
   11.5228  -16.3202   21.5591 C   0  0  0  0  0  0  0  0  0  0  0  0
   12.1742  -15.4993   22.2501 O   0  0  0  0  0  0  0  0  0  0  0  0
   12.6907  -20.0878   20.9269 O   0  0  0  0  0  0  0  0  0  0  0  0
   13.0849  -19.6213   22.1834 C   0  0  0  0  0  0  0  0  0  0  0  0
   13.2437  -18.0974   22.0420 C   0  0  2  0  0  0  0  0  0  0  0  0
   12.0269  -17.6330   21.4531 N   0  0  0  0  0  0  0  0  0  0  0  0
   14.4578  -17.7661   21.2990 C   0  0  0  0  0  0  0  0  0  0  0  0
   15.5793  -18.0403   21.7787 O   0  0  0  0  0  0  0  0  0  0  0  0
   14.4140  -17.1507   20.0650 O   0  0  0  0  0  0  0  0  0  0  0  0
  2  1  1  1
  3  2  1  0
  4  3  1  0
  4  5  2  0
  6  5  1  0
  7  6  1  0
  8  7  2  0
  9  8  1  0
 10  9  2  0
 10 11  1  0
 11 12  2  0
 12  7  1  0
 12  4  1  0
 13 14  2  0
 13  2  1  0
 15 13  1  0
 16 15  1  0
 16 17  1  1
 18 17  1  0
 18 22  1  0
 19 18  2  0
 20 19  1  0
 20 21  1  0
 21 22  2  0
 23 16  1  0
 24 23  2  0
 25 26  1  0
 27 26  1  6
 27 28  1  0
 28 23  1  0
 29 27  1  0
 29 31  1  0
 30 29  2  0
M  END
$$$$
