WHS.pdb
     RDKit          3D

 31 33  0  0  1  0  0  0  0  0999 V2000
    6.1343  -16.7973   23.1646 N   0  0  0  0  0  0  0  0  0  0  0  0
    7.2091  -15.8602   23.2413 C   0  0  1  0  0  0  0  0  0  0  0  0
    7.8031  -15.8801   24.6296 C   0  0  0  0  0  0  0  0  0  0  0  0
    7.0592  -15.0635   25.6100 C   0  0  0  0  0  0  0  0  0  0  0  0
    6.1560  -15.5050   26.5672 C   0  0  0  0  0  0  0  0  0  0  0  0
    5.6706  -14.4613   27.2344 N   0  0  0  0  0  0  0  0  0  0  0  0
    6.2352  -13.3444   26.7375 C   0  0  0  0  0  0  0  0  0  0  0  0
    6.1107  -12.0013   27.0487 C   0  0  0  0  0  0  0  0  0  0  0  0
    6.8267  -11.0354   26.3771 C   0  0  0  0  0  0  0  0  0  0  0  0
    7.6931  -11.3751   25.3709 C   0  0  0  0  0  0  0  0  0  0  0  0
    7.8299  -12.7084   25.0469 C   0  0  0  0  0  0  0  0  0  0  0  0
    7.1224  -13.6794   25.7065 C   0  0  0  0  0  0  0  0  0  0  0  0
    8.3204  -16.2170   22.2925 C   0  0  0  0  0  0  0  0  0  0  0  0
    8.8514  -17.3497   22.4200 O   0  0  0  0  0  0  0  0  0  0  0  0
    8.7919  -15.3661   21.2826 N   0  0  0  0  0  0  0  0  0  0  0  0
    9.9313  -15.6756   20.4343 C   0  0  1  0  0  0  0  0  0  0  0  0
   10.1980  -14.5032   19.4763 C   0  0  0  0  0  0  0  0  0  0  0  0
    9.1422  -14.3090   18.4933 C   0  0  0  0  0  0  0  0  0  0  0  0
    8.3762  -13.1840   18.3292 C   0  0  0  0  0  0  0  0  0  0  0  0
    7.5162  -13.4088   17.3134 N   0  0  0  0  0  0  0  0  0  0  0  0
    7.7240  -14.6437   16.8384 C   0  0  0  0  0  0  0  0  0  0  0  0
    8.7334  -15.1919   17.5768 N   0  0  0  0  0  0  0  0  0  0  0  0
   11.1308  -16.0019   21.2356 C   0  0  0  0  0  0  0  0  0  0  0  0
   11.6565  -15.1326   21.9728 O   0  0  0  0  0  0  0  0  0  0  0  0
   12.0809  -19.7875   21.8049 O   0  0  0  0  0  0  0  0  0  0  0  0
   12.7212  -18.8742   22.6461 C   0  0  0  0  0  0  0  0  0  0  0  0
   12.9814  -17.6195   21.7942 C   0  0  2  0  0  0  0  0  0  0  0  0
   11.7231  -17.2815   21.2063 N   0  0  0  0  0  0  0  0  0  0  0  0
   14.0674  -17.8502   20.8440 C   0  0  0  0  0  0  0  0  0  0  0  0
   15.2264  -18.0678   21.2593 O   0  0  0  0  0  0  0  0  0  0  0  0
   13.8599  -17.8370   19.4801 O   0  0  0  0  0  0  0  0  0  0  0  0
  2  1  1  1
  3  2  1  0
  4  3  1  0
  4  5  2  0
  6  5  1  0
  7  6  1  0
  8  7  2  0
  9  8  1  0
 10  9  2  0
 10 11  1  0
 11 12  2  0
 12  7  1  0
 12  4  1  0
 13 14  2  0
 13  2  1  0
 15 13  1  0
 16 15  1  0
 16 17  1  1
 18 17  1  0
 18 22  1  0
 19 18  2  0
 20 19  1  0
 20 21  1  0
 21 22  2  0
 23 16  1  0
 24 23  2  0
 25 26  1  0
 27 26  1  6
 27 28  1  0
 28 23  1  0
 29 27  1  0
 29 31  1  0
 30 29  2  0
M  END
$$$$
