WHS.pdb
     RDKit          3D

 31 33  0  0  1  0  0  0  0  0999 V2000
    6.9421  -17.6560   23.8810 N   0  0  0  0  0  0  0  0  0  0  0  0
    7.7132  -16.5066   23.5299 C   0  0  1  0  0  0  0  0  0  0  0  0
    8.2650  -15.8631   24.7796 C   0  0  0  0  0  0  0  0  0  0  0  0
    7.2877  -15.0231   25.5012 C   0  0  0  0  0  0  0  0  0  0  0  0
    6.1043  -15.4290   26.1027 C   0  0  0  0  0  0  0  0  0  0  0  0
    5.4833  -14.3715   26.6188 N   0  0  0  0  0  0  0  0  0  0  0  0
    6.2325  -13.2807   26.3705 C   0  0  0  0  0  0  0  0  0  0  0  0
    6.0820  -11.9388   26.6759 C   0  0  0  0  0  0  0  0  0  0  0  0
    7.0230  -11.0042   26.3049 C   0  0  0  0  0  0  0  0  0  0  0  0
    8.1483  -11.3749   25.6159 C   0  0  0  0  0  0  0  0  0  0  0  0
    8.3151  -12.7074   25.3026 C   0  0  0  0  0  0  0  0  0  0  0  0
    7.3857  -13.6474   25.6649 C   0  0  0  0  0  0  0  0  0  0  0  0
    8.8962  -16.8757   22.6774 C   0  0  0  0  0  0  0  0  0  0  0  0
    9.3261  -18.0545   22.7600 O   0  0  0  0  0  0  0  0  0  0  0  0
    9.5394  -15.9879   21.8031 N   0  0  0  0  0  0  0  0  0  0  0  0
   10.8601  -16.2233   21.2427 C   0  0  1  0  0  0  0  0  0  0  0  0
   11.2546  -15.0478   20.3337 C   0  0  0  0  0  0  0  0  0  0  0  0
   12.4518  -15.3031   19.5463 C   0  0  0  0  0  0  0  0  0  0  0  0
   12.7855  -16.4790   18.9256 C   0  0  0  0  0  0  0  0  0  0  0  0
   13.9695  -16.3009   18.3024 N   0  0  0  0  0  0  0  0  0  0  0  0
   14.3847  -15.0457   18.5168 C   0  0  0  0  0  0  0  0  0  0  0  0
   13.4368  -14.4370   19.2885 N   0  0  0  0  0  0  0  0  0  0  0  0
   11.8667  -16.4475   22.3029 C   0  0  0  0  0  0  0  0  0  0  0  0
   11.9118  -15.6920   23.3044 O   0  0  0  0  0  0  0  0  0  0  0  0
   12.9713  -19.7866   23.6702 O   0  0  0  0  0  0  0  0  0  0  0  0
   14.1434  -19.2116   23.1730 C   0  0  0  0  0  0  0  0  0  0  0  0
   13.8923  -17.6939   23.1377 C   0  0  2  0  0  0  0  0  0  0  0  0
   12.8008  -17.5019   22.2348 N   0  0  0  0  0  0  0  0  0  0  0  0
   15.1149  -16.9706   22.7947 C   0  0  0  0  0  0  0  0  0  0  0  0
   15.1935  -16.3535   21.7103 O   0  0  0  0  0  0  0  0  0  0  0  0
   16.2072  -16.9415   23.6371 O   0  0  0  0  0  0  0  0  0  0  0  0
  2  1  1  1
  3  2  1  0
  4  3  1  0
  4  5  2  0
  6  5  1  0
  7  6  1  0
  8  7  2  0
  9  8  1  0
 10  9  2  0
 10 11  1  0
 11 12  2  0
 12  7  1  0
 12  4  1  0
 13 14  2  0
 13  2  1  0
 15 13  1  0
 16 15  1  0
 16 17  1  1
 18 17  1  0
 18 22  1  0
 19 18  2  0
 20 19  1  0
 20 21  1  0
 21 22  2  0
 23 16  1  0
 24 23  2  0
 25 26  1  0
 27 26  1  6
 27 28  1  0
 28 23  1  0
 29 27  1  0
 29 31  1  0
 30 29  2  0
M  END
$$$$
