WHS.pdb
     RDKit          3D

 31 33  0  0  1  0  0  0  0  0999 V2000
    6.4705  -17.8559   25.0017 N   0  0  0  0  0  0  0  0  0  0  0  0
    6.8256  -16.5376   24.5830 C   0  0  1  0  0  0  0  0  0  0  0  0
    7.9252  -16.0016   25.4684 C   0  0  0  0  0  0  0  0  0  0  0  0
    7.4711  -14.9807   26.4343 C   0  0  0  0  0  0  0  0  0  0  0  0
    6.8624  -15.1908   27.6640 C   0  0  0  0  0  0  0  0  0  0  0  0
    6.5715  -14.0183   28.2214 N   0  0  0  0  0  0  0  0  0  0  0  0
    6.9760  -13.0430   27.3859 C   0  0  0  0  0  0  0  0  0  0  0  0
    6.9350  -11.6609   27.4531 C   0  0  0  0  0  0  0  0  0  0  0  0
    7.4387  -10.8738   26.4415 C   0  0  0  0  0  0  0  0  0  0  0  0
    8.0019  -11.4376   25.3263 C   0  0  0  0  0  0  0  0  0  0  0  0
    8.0513  -12.8130   25.2418 C   0  0  0  0  0  0  0  0  0  0  0  0
    7.5526  -13.6078   26.2409 C   0  0  0  0  0  0  0  0  0  0  0  0
    7.3627  -16.5313   23.1780 C   0  0  0  0  0  0  0  0  0  0  0  0
    8.0554  -17.5166   22.8168 O   0  0  0  0  0  0  0  0  0  0  0  0
    7.1351  -15.4988   22.2568 N   0  0  0  0  0  0  0  0  0  0  0  0
    7.6974  -15.4759   20.9163 C   0  0  1  0  0  0  0  0  0  0  0  0
    7.0644  -14.3314   20.1082 C   0  0  0  0  0  0  0  0  0  0  0  0
    7.4953  -14.2989   18.7182 C   0  0  0  0  0  0  0  0  0  0  0  0
    8.2560  -13.3270   18.1216 C   0  0  0  0  0  0  0  0  0  0  0  0
    8.4333  -13.6706   16.8284 N   0  0  0  0  0  0  0  0  0  0  0  0
    7.8040  -14.8307   16.6007 C   0  0  0  0  0  0  0  0  0  0  0  0
    7.2265  -15.2106   17.7783 N   0  0  0  0  0  0  0  0  0  0  0  0
    9.1717  -15.3631   20.9488 C   0  0  0  0  0  0  0  0  0  0  0  0
    9.7417  -14.7750   21.9001 O   0  0  0  0  0  0  0  0  0  0  0  0
   11.9104  -18.4705   20.8627 O   0  0  0  0  0  0  0  0  0  0  0  0
   11.3357  -17.2770   21.3067 C   0  0  0  0  0  0  0  0  0  0  0  0
   11.3400  -16.3258   20.0973 C   0  0  2  0  0  0  0  0  0  0  0  0
    9.9846  -15.9032   19.9308 N   0  0  0  0  0  0  0  0  0  0  0  0
   11.9362  -16.9700   18.9289 C   0  0  0  0  0  0  0  0  0  0  0  0
   13.1353  -17.3231   18.9530 O   0  0  0  0  0  0  0  0  0  0  0  0
   11.2138  -17.2085   17.7780 O   0  0  0  0  0  0  0  0  0  0  0  0
  2  1  1  1
  3  2  1  0
  4  3  1  0
  4  5  2  0
  6  5  1  0
  7  6  1  0
  8  7  2  0
  9  8  1  0
 10  9  2  0
 10 11  1  0
 11 12  2  0
 12  7  1  0
 12  4  1  0
 13 14  2  0
 13  2  1  0
 15 13  1  0
 16 15  1  0
 16 17  1  6
 18 17  1  0
 18 22  1  0
 19 18  2  0
 20 19  1  0
 20 21  1  0
 21 22  2  0
 23 16  1  0
 24 23  2  0
 25 26  1  0
 27 26  1  1
 27 28  1  0
 28 23  1  0
 29 27  1  0
 29 31  1  0
 30 29  2  0
M  END
$$$$
