WHS.pdb
     RDKit          3D

 31 33  0  0  1  0  0  0  0  0999 V2000
    6.8147  -17.7853   25.1937 N   0  0  0  0  0  0  0  0  0  0  0  0
    7.0575  -16.4739   24.6834 C   0  0  1  0  0  0  0  0  0  0  0  0
    8.2336  -15.8578   25.4028 C   0  0  0  0  0  0  0  0  0  0  0  0
    7.8522  -14.9287   26.4857 C   0  0  0  0  0  0  0  0  0  0  0  0
    7.7489  -15.2066   27.8418 C   0  0  0  0  0  0  0  0  0  0  0  0
    7.3443  -14.1167   28.4887 N   0  0  0  0  0  0  0  0  0  0  0  0
    7.1802  -13.1292   27.5883 C   0  0  0  0  0  0  0  0  0  0  0  0
    6.7891  -11.8055   27.6950 C   0  0  0  0  0  0  0  0  0  0  0  0
    6.7100  -10.9851   26.5916 C   0  0  0  0  0  0  0  0  0  0  0  0
    7.0186  -11.4559   25.3420 C   0  0  0  0  0  0  0  0  0  0  0  0
    7.4100  -12.7721   25.2163 C   0  0  0  0  0  0  0  0  0  0  0  0
    7.4917  -13.5995   26.3060 C   0  0  0  0  0  0  0  0  0  0  0  0
    7.4161  -16.5083   23.2230 C   0  0  0  0  0  0  0  0  0  0  0  0
    7.7662  -17.6140   22.7370 O   0  0  0  0  0  0  0  0  0  0  0  0
    7.3807  -15.3877   22.3809 N   0  0  0  0  0  0  0  0  0  0  0  0
    7.7398  -15.4258   20.9726 C   0  0  1  0  0  0  0  0  0  0  0  0
    7.3858  -14.0840   20.3108 C   0  0  0  0  0  0  0  0  0  0  0  0
    7.6870  -14.0449   18.8874 C   0  0  0  0  0  0  0  0  0  0  0  0
    8.3490  -13.0471   18.2199 C   0  0  0  0  0  0  0  0  0  0  0  0
    8.4225  -13.3935   16.9174 N   0  0  0  0  0  0  0  0  0  0  0  0
    7.8244  -14.5805   16.7528 C   0  0  0  0  0  0  0  0  0  0  0  0
    7.3726  -14.9745   17.9797 N   0  0  0  0  0  0  0  0  0  0  0  0
    9.1685  -15.7594   20.7864 C   0  0  0  0  0  0  0  0  0  0  0  0
   10.0571  -15.0876   21.3650 O   0  0  0  0  0  0  0  0  0  0  0  0
   10.0777  -19.2603   19.2442 O   0  0  0  0  0  0  0  0  0  0  0  0
   11.1450  -18.6067   19.8653 C   0  0  0  0  0  0  0  0  0  0  0  0
   10.9386  -17.1053   19.5994 C   0  0  2  0  0  0  0  0  0  0  0  0
    9.5850  -16.8284   19.9662 N   0  0  0  0  0  0  0  0  0  0  0  0
   11.2891  -16.7664   18.2217 C   0  0  0  0  0  0  0  0  0  0  0  0
   10.4017  -16.3927   17.4243 O   0  0  0  0  0  0  0  0  0  0  0  0
   12.5860  -16.8442   17.7576 O   0  0  0  0  0  0  0  0  0  0  0  0
  2  1  1  1
  3  2  1  0
  4  3  1  0
  4  5  2  0
  6  5  1  0
  7  6  1  0
  8  7  2  0
  9  8  1  0
 10  9  2  0
 10 11  1  0
 11 12  2  0
 12  7  1  0
 12  4  1  0
 13 14  2  0
 13  2  1  0
 15 13  1  0
 16 15  1  0
 16 17  1  1
 18 17  1  0
 18 22  1  0
 19 18  2  0
 20 19  1  0
 20 21  1  0
 21 22  2  0
 23 16  1  0
 24 23  2  0
 25 26  1  0
 27 26  1  6
 27 28  1  0
 28 23  1  0
 29 27  1  0
 29 31  1  0
 30 29  2  0
M  END
$$$$
