GIG.pdb
     RDKit          3D

 17 16  0  0  1  0  0  0  0  0999 V2000
    5.5571  -18.5259   23.2668 N   0  0  0  0  0  0  0  0  0  0  0  0
    5.5993  -17.6773   24.4430 C   0  0  0  0  0  0  0  0  0  0  0  0
    6.6584  -16.6417   24.3195 C   0  0  0  0  0  0  0  0  0  0  0  0
    7.4136  -16.5388   23.3279 O   0  0  0  0  0  0  0  0  0  0  0  0
    5.5727  -11.8693   26.6761 C   0  0  0  0  0  0  0  0  0  0  0  0
    6.1229  -12.8076   25.6116 C   0  0  0  0  0  0  0  0  0  0  0  0
    7.2562  -13.5551   26.2295 C   0  0  2  0  0  0  0  0  0  0  0  0
    8.3461  -12.5759   26.6100 C   0  0  0  0  0  0  0  0  0  0  0  0
    7.8037  -14.6670   25.3960 C   0  0  2  0  0  0  0  0  0  0  0  0
    6.8151  -15.7262   25.3849 N   0  0  0  0  0  0  0  0  0  0  0  0
    9.0761  -15.2114   25.8465 C   0  0  0  0  0  0  0  0  0  0  0  0
   10.1355  -14.5772   25.6916 O   0  0  0  0  0  0  0  0  0  0  0  0
    9.1242  -16.4741   26.4687 N   0  0  0  0  0  0  0  0  0  0  0  0
   10.3168  -16.9921   27.1058 C   0  0  0  0  0  0  0  0  0  0  0  0
   11.0176  -17.8554   26.1243 C   0  0  0  0  0  0  0  0  0  0  0  0
   11.8547  -18.7131   26.5065 O   0  0  0  0  0  0  0  0  0  0  0  0
   10.7881  -17.7613   24.7554 O   0  0  0  0  0  0  0  0  0  0  0  0
  1  2  1  0
  2  3  1  0
  3  4  2  0
  6  5  1  0
  7  6  1  0
  7  8  1  6
  9  7  1  0
 10  3  1  0
  9 10  1  1
 11 12  2  0
 11  9  1  0
 13 11  1  0
 14 15  1  0
 14 13  1  0
 15 17  1  0
 16 15  2  0
M  END
$$$$
