GIG.pdb
     RDKit          3D

 17 16  0  0  1  0  0  0  0  0999 V2000
    5.5660  -18.2499   22.8716 N   0  0  0  0  0  0  0  0  0  0  0  0
    5.5030  -17.5218   24.1251 C   0  0  0  0  0  0  0  0  0  0  0  0
    6.6378  -16.5698   24.2500 C   0  0  0  0  0  0  0  0  0  0  0  0
    7.5729  -16.4952   23.4228 O   0  0  0  0  0  0  0  0  0  0  0  0
    5.6007  -11.8267   26.5152 C   0  0  0  0  0  0  0  0  0  0  0  0
    6.3310  -12.7659   25.5661 C   0  0  0  0  0  0  0  0  0  0  0  0
    7.2027  -13.6423   26.4011 C   0  0  2  0  0  0  0  0  0  0  0  0
    8.3061  -12.8051   27.0120 C   0  0  0  0  0  0  0  0  0  0  0  0
    7.7639  -14.8301   25.6904 C   0  0  2  0  0  0  0  0  0  0  0  0
    6.6546  -15.7044   25.3673 N   0  0  0  0  0  0  0  0  0  0  0  0
    8.7605  -15.5849   26.4354 C   0  0  0  0  0  0  0  0  0  0  0  0
    9.8874  -15.1084   26.6629 O   0  0  0  0  0  0  0  0  0  0  0  0
    8.4591  -16.8755   26.9121 N   0  0  0  0  0  0  0  0  0  0  0  0
    9.3078  -17.5878   27.8443 C   0  0  0  0  0  0  0  0  0  0  0  0
   10.3400  -18.3081   27.0598 C   0  0  0  0  0  0  0  0  0  0  0  0
   10.0826  -18.7444   25.9084 O   0  0  0  0  0  0  0  0  0  0  0  0
   11.6224  -18.5332   27.5497 O   0  0  0  0  0  0  0  0  0  0  0  0
  1  2  1  0
  2  3  1  0
  3  4  2  0
  6  5  1  0
  7  6  1  0
  7  8  1  6
  9  7  1  0
 10  3  1  0
  9 10  1  1
 11 12  2  0
 11  9  1  0
 13 11  1  0
 14 15  1  0
 14 13  1  0
 15 17  1  0
 16 15  2  0
M  END
$$$$
