GIG.pdb
     RDKit          3D

 17 16  0  0  1  0  0  0  0  0999 V2000
    9.4714  -18.5627   17.5800 N   0  0  0  0  0  0  0  0  0  0  0  0
    8.5325  -18.0489   18.5597 C   0  0  0  0  0  0  0  0  0  0  0  0
    9.1627  -17.0062   19.4112 C   0  0  0  0  0  0  0  0  0  0  0  0
   10.3756  -16.7063   19.3545 O   0  0  0  0  0  0  0  0  0  0  0  0
    6.6389  -12.4513   19.9000 C   0  0  0  0  0  0  0  0  0  0  0  0
    7.7765  -13.4594   19.8224 C   0  0  0  0  0  0  0  0  0  0  0  0
    7.8428  -14.1481   21.1439 C   0  0  2  0  0  0  0  0  0  0  0  0
    8.1181  -13.1229   22.2231 C   0  0  0  0  0  0  0  0  0  0  0  0
    8.8197  -15.2757   21.2160 C   0  0  2  0  0  0  0  0  0  0  0  0
    8.3403  -16.3200   20.3335 N   0  0  0  0  0  0  0  0  0  0  0  0
    9.0246  -15.8348   22.5439 C   0  0  0  0  0  0  0  0  0  0  0  0
    8.1371  -16.5063   23.1007 O   0  0  0  0  0  0  0  0  0  0  0  0
   10.2410  -15.6210   23.2211 N   0  0  0  0  0  0  0  0  0  0  0  0
   10.5010  -16.1309   24.5511 C   0  0  0  0  0  0  0  0  0  0  0  0
   11.3612  -17.3317   24.4171 C   0  0  0  0  0  0  0  0  0  0  0  0
   11.8523  -17.8862   25.4338 O   0  0  0  0  0  0  0  0  0  0  0  0
   11.6626  -17.8951   23.1813 O   0  0  0  0  0  0  0  0  0  0  0  0
  1  2  1  0
  2  3  1  0
  3  4  2  0
  6  5  1  0
  7  6  1  0
  7  8  1  1
  9  7  1  0
 10  3  1  0
  9 10  1  6
 11 12  2  0
 11  9  1  0
 13 11  1  0
 14 15  1  0
 14 13  1  0
 15 17  1  0
 16 15  2  0
M  END
$$$$
