GIG.pdb
     RDKit          3D

 17 16  0  0  1  0  0  0  0  0999 V2000
    6.6695  -15.0723   19.8326 N   0  0  0  0  0  0  0  0  0  0  0  0
    6.1460  -15.0066   21.1842 C   0  0  0  0  0  0  0  0  0  0  0  0
    7.2002  -14.5964   22.1484 C   0  0  0  0  0  0  0  0  0  0  0  0
    8.4095  -14.4893   21.8476 O   0  0  0  0  0  0  0  0  0  0  0  0
    6.9611  -11.3829   27.2557 C   0  0  0  0  0  0  0  0  0  0  0  0
    7.8457  -12.3598   26.4946 C   0  0  0  0  0  0  0  0  0  0  0  0
    7.0278  -12.9119   25.3760 C   0  0  2  0  0  0  0  0  0  0  0  0
    5.7436  -13.4840   25.9373 C   0  0  0  0  0  0  0  0  0  0  0  0
    7.7302  -13.9141   24.5198 C   0  0  2  0  0  0  0  0  0  0  0  0
    6.8076  -14.3135   23.4764 N   0  0  0  0  0  0  0  0  0  0  0  0
    8.2017  -15.1024   25.2154 C   0  0  0  0  0  0  0  0  0  0  0  0
    7.4069  -15.8603   25.8006 O   0  0  0  0  0  0  0  0  0  0  0  0
    9.5756  -15.4118   25.2349 N   0  0  0  0  0  0  0  0  0  0  0  0
   10.1091  -16.5818   25.9004 C   0  0  0  0  0  0  0  0  0  0  0  0
   11.5706  -16.6196   25.6508 C   0  0  0  0  0  0  0  0  0  0  0  0
   12.1163  -15.7675   24.9035 O   0  0  0  0  0  0  0  0  0  0  0  0
   12.3967  -17.5827   26.2210 O   0  0  0  0  0  0  0  0  0  0  0  0
  1  2  1  0
  2  3  1  0
  3  4  2  0
  6  5  1  0
  7  6  1  0
  7  8  1  1
  9  7  1  0
 10  3  1  0
  9 10  1  6
 11 12  2  0
 11  9  1  0
 13 11  1  0
 14 15  1  0
 14 13  1  0
 15 17  1  0
 16 15  2  0
M  END
$$$$
