GIG.pdb
     RDKit          3D

 17 16  0  0  1  0  0  0  0  0999 V2000
    6.9628  -15.7915   20.7784 N   0  0  0  0  0  0  0  0  0  0  0  0
    6.4346  -15.6164   22.1185 C   0  0  0  0  0  0  0  0  0  0  0  0
    7.4447  -14.9982   23.0167 C   0  0  0  0  0  0  0  0  0  0  0  0
    8.6142  -14.7312   22.6631 O   0  0  0  0  0  0  0  0  0  0  0  0
    5.5545  -11.3184   26.4421 C   0  0  0  0  0  0  0  0  0  0  0  0
    6.4210  -12.0593   25.4339 C   0  0  0  0  0  0  0  0  0  0  0  0
    7.0809  -13.1806   26.1634 C   0  0  2  0  0  0  0  0  0  0  0  0
    7.8783  -12.6172   27.3203 C   0  0  0  0  0  0  0  0  0  0  0  0
    7.9276  -14.0704   25.3136 C   0  0  2  0  0  0  0  0  0  0  0  0
    7.0553  -14.6981   24.3419 N   0  0  0  0  0  0  0  0  0  0  0  0
    8.6572  -15.1042   26.0327 C   0  0  0  0  0  0  0  0  0  0  0  0
    9.5472  -14.8094   26.8510 O   0  0  0  0  0  0  0  0  0  0  0  0
    8.3621  -16.4632   25.8093 N   0  0  0  0  0  0  0  0  0  0  0  0
    8.8700  -17.5270   26.6501 C   0  0  0  0  0  0  0  0  0  0  0  0
   10.2332  -17.8688   26.1762 C   0  0  0  0  0  0  0  0  0  0  0  0
   10.5546  -17.7020   24.9715 O   0  0  0  0  0  0  0  0  0  0  0  0
   11.2078  -18.3823   27.0258 O   0  0  0  0  0  0  0  0  0  0  0  0
  1  2  1  0
  2  3  1  0
  3  4  2  0
  6  5  1  0
  7  6  1  0
  7  8  1  1
  9  7  1  0
 10  3  1  0
  9 10  1  6
 11 12  2  0
 11  9  1  0
 13 11  1  0
 14 15  1  0
 14 13  1  0
 15 17  1  0
 16 15  2  0
M  END
$$$$
