TIH.pdb
     RDKit          3D

 26 26  0  0  1  0  0  0  0  0999 V2000
    7.4316  -16.6222   21.2544 C   0  0  0  0  0  0  0  0  0  0  0  0
    7.9719  -15.4601   20.4525 C   0  0  1  0  0  0  0  0  0  0  0  0
    7.6764  -15.5873   19.1029 O   0  0  0  0  0  0  0  0  0  0  0  0
    7.4394  -14.1359   21.0061 C   0  0  2  0  0  0  0  0  0  0  0  0
    7.8683  -13.0535   20.1139 N   0  0  0  0  0  0  0  0  0  0  0  0
    8.0239  -13.8718   22.3465 C   0  0  0  0  0  0  0  0  0  0  0  0
    9.1829  -13.3671   22.4620 O   0  0  0  0  0  0  0  0  0  0  0  0
    5.4702  -11.5740   26.3287 C   0  0  0  0  0  0  0  0  0  0  0  0
    6.5400  -12.1059   25.4286 C   0  0  0  0  0  0  0  0  0  0  0  0
    6.9578  -13.5273   25.8350 C   0  0  2  0  0  0  0  0  0  0  0  0
    7.3358  -13.5681   27.2753 C   0  0  0  0  0  0  0  0  0  0  0  0
    7.9774  -14.0741   24.8753 C   0  0  2  0  0  0  0  0  0  0  0  0
    7.3422  -14.1590   23.5528 N   0  0  0  0  0  0  0  0  0  0  0  0
    8.4738  -15.4202   25.2116 C   0  0  0  0  0  0  0  0  0  0  0  0
    7.6419  -16.3741   25.3959 O   0  0  0  0  0  0  0  0  0  0  0  0
    9.8319  -15.7724   25.3526 N   0  0  0  0  0  0  0  0  0  0  0  0
   10.2324  -17.0862   25.8291 C   0  0  1  0  0  0  0  0  0  0  0  0
   11.4509  -17.5398   25.0591 C   0  0  0  0  0  0  0  0  0  0  0  0
   11.1372  -17.7384   23.6326 C   0  0  0  0  0  0  0  0  0  0  0  0
   10.0595  -18.4061   23.0892 C   0  0  0  0  0  0  0  0  0  0  0  0
   10.1294  -18.3859   21.7470 N   0  0  0  0  0  0  0  0  0  0  0  0
   11.2418  -17.7116   21.4382 C   0  0  0  0  0  0  0  0  0  0  0  0
   11.8568  -17.3169   22.5631 N   0  0  0  0  0  0  0  0  0  0  0  0
   10.4900  -17.0331   27.2759 C   0  0  0  0  0  0  0  0  0  0  0  0
   10.6730  -18.1382   28.0920 O   0  0  0  0  0  0  0  0  0  0  0  0
   10.5570  -15.9144   27.8644 O   0  0  0  0  0  0  0  0  0  0  0  0
  2  1  1  1
  3  2  1  0
  4  2  1  0
  4  6  1  0
  4  5  1  6
  6 13  1  0
  6  7  2  0
  9  8  1  0
 10  9  1  0
 10 11  1  1
 12 10  1  0
 12 13  1  6
 14 12  1  0
 14 15  2  0
 16 14  1  0
 17 16  1  0
 17 18  1  6
 18 19  1  0
 19 20  2  0
 19 23  1  0
 20 21  1  0
 21 22  1  0
 23 22  2  0
 24 17  1  0
 25 24  1  0
 26 24  2  0
M  END
$$$$
