TIH.pdb
     RDKit          3D

 26 26  0  0  1  0  0  0  0  0999 V2000
    6.7033  -16.1382   20.4850 C   0  0  0  0  0  0  0  0  0  0  0  0
    7.5002  -15.0527   19.7979 C   0  0  1  0  0  0  0  0  0  0  0  0
    7.1264  -14.9050   18.4700 O   0  0  0  0  0  0  0  0  0  0  0  0
    7.3628  -13.7292   20.5548 C   0  0  2  0  0  0  0  0  0  0  0  0
    7.9589  -12.6646   19.7406 N   0  0  0  0  0  0  0  0  0  0  0  0
    8.1168  -13.7927   21.8337 C   0  0  0  0  0  0  0  0  0  0  0  0
    9.3849  -13.7350   21.8440 O   0  0  0  0  0  0  0  0  0  0  0  0
    5.8906  -11.5895   26.2209 C   0  0  0  0  0  0  0  0  0  0  0  0
    6.8808  -12.0520   25.1995 C   0  0  0  0  0  0  0  0  0  0  0  0
    7.3053  -13.5070   25.4501 C   0  0  2  0  0  0  0  0  0  0  0  0
    7.8088  -13.6709   26.8425 C   0  0  0  0  0  0  0  0  0  0  0  0
    8.2248  -13.9851   24.3614 C   0  0  2  0  0  0  0  0  0  0  0  0
    7.4847  -13.9184   23.0935 N   0  0  0  0  0  0  0  0  0  0  0  0
    8.6950  -15.3724   24.5232 C   0  0  0  0  0  0  0  0  0  0  0  0
    7.8455  -16.3275   24.5698 O   0  0  0  0  0  0  0  0  0  0  0  0
   10.0451  -15.7638   24.6333 N   0  0  0  0  0  0  0  0  0  0  0  0
   10.4229  -17.1581   24.7966 C   0  0  1  0  0  0  0  0  0  0  0  0
   11.6782  -17.4257   23.9991 C   0  0  0  0  0  0  0  0  0  0  0  0
   12.1253  -18.8210   24.1601 C   0  0  0  0  0  0  0  0  0  0  0  0
   11.4516  -19.9708   23.8043 C   0  0  0  0  0  0  0  0  0  0  0  0
   12.1799  -21.0540   24.1253 N   0  0  0  0  0  0  0  0  0  0  0  0
   13.3074  -20.5982   24.6808 C   0  0  0  0  0  0  0  0  0  0  0  0
   13.2869  -19.2573   24.7076 N   0  0  0  0  0  0  0  0  0  0  0  0
   10.6089  -17.4591   26.2239 C   0  0  0  0  0  0  0  0  0  0  0  0
   10.5419  -18.7245   26.7850 O   0  0  0  0  0  0  0  0  0  0  0  0
   10.8494  -16.5221   27.0403 O   0  0  0  0  0  0  0  0  0  0  0  0
  2  1  1  1
  3  2  1  0
  4  2  1  0
  4  6  1  0
  4  5  1  6
  6 13  1  0
  6  7  2  0
  9  8  1  0
 10  9  1  0
 10 11  1  1
 12 10  1  0
 12 13  1  6
 14 12  1  0
 14 15  2  0
 16 14  1  0
 17 16  1  0
 17 18  1  6
 18 19  1  0
 19 20  2  0
 19 23  1  0
 20 21  1  0
 21 22  1  0
 23 22  2  0
 24 17  1  0
 25 24  1  0
 26 24  2  0
M  END
$$$$
