TIH.pdb
     RDKit          3D

 26 26  0  0  1  0  0  0  0  0999 V2000
    6.5678  -16.0971   20.5921 C   0  0  0  0  0  0  0  0  0  0  0  0
    7.5407  -15.1346   19.9498 C   0  0  1  0  0  0  0  0  0  0  0  0
    7.3560  -15.0592   18.5768 O   0  0  0  0  0  0  0  0  0  0  0  0
    7.4260  -13.7504   20.5935 C   0  0  2  0  0  0  0  0  0  0  0  0
    8.1651  -12.7908   19.7662 N   0  0  0  0  0  0  0  0  0  0  0  0
    8.0543  -13.7607   21.9400 C   0  0  0  0  0  0  0  0  0  0  0  0
    9.3157  -13.7007   22.0690 O   0  0  0  0  0  0  0  0  0  0  0  0
    5.8034  -11.2949   26.0929 C   0  0  0  0  0  0  0  0  0  0  0  0
    6.7750  -11.9196   25.1425 C   0  0  0  0  0  0  0  0  0  0  0  0
    7.0143  -13.3994   25.4788 C   0  0  2  0  0  0  0  0  0  0  0  0
    7.4344  -13.5499   26.9000 C   0  0  0  0  0  0  0  0  0  0  0  0
    7.9173  -14.0347   24.4588 C   0  0  2  0  0  0  0  0  0  0  0  0
    7.3046  -13.8362   23.1378 N   0  0  0  0  0  0  0  0  0  0  0  0
    8.1174  -15.4838   24.6371 C   0  0  0  0  0  0  0  0  0  0  0  0
    7.6912  -16.2961   23.7457 O   0  0  0  0  0  0  0  0  0  0  0  0
    8.7614  -16.0845   25.7382 N   0  0  0  0  0  0  0  0  0  0  0  0
    9.8468  -17.0352   25.5598 C   0  0  1  0  0  0  0  0  0  0  0  0
   10.9439  -16.3848   24.7495 C   0  0  0  0  0  0  0  0  0  0  0  0
   10.9296  -16.8597   23.3540 C   0  0  0  0  0  0  0  0  0  0  0  0
   10.0816  -17.7873   22.7856 C   0  0  0  0  0  0  0  0  0  0  0  0
   10.3919  -17.9677   21.4902 N   0  0  0  0  0  0  0  0  0  0  0  0
   11.4284  -17.1624   21.2360 C   0  0  0  0  0  0  0  0  0  0  0  0
   11.7613  -16.4908   22.3484 N   0  0  0  0  0  0  0  0  0  0  0  0
   10.3327  -17.4871   26.8721 C   0  0  0  0  0  0  0  0  0  0  0  0
   10.3715  -16.7074   28.0172 O   0  0  0  0  0  0  0  0  0  0  0  0
   10.7591  -18.6705   27.0140 O   0  0  0  0  0  0  0  0  0  0  0  0
  2  1  1  1
  3  2  1  0
  4  2  1  0
  4  6  1  0
  4  5  1  6
  6 13  1  0
  6  7  2  0
  9  8  1  0
 10  9  1  0
 10 11  1  1
 12 10  1  0
 12 13  1  6
 14 12  1  0
 14 15  2  0
 16 14  1  0
 17 16  1  0
 17 18  1  1
 18 19  1  0
 19 20  2  0
 19 23  1  0
 20 21  1  0
 21 22  1  0
 23 22  2  0
 24 17  1  0
 25 24  1  0
 26 24  2  0
M  END
$$$$
