TIH.pdb
     RDKit          3D

 26 26  0  0  1  0  0  0  0  0999 V2000
    7.1439  -17.4742   19.7877 C   0  0  0  0  0  0  0  0  0  0  0  0
    7.7885  -17.0111   21.0744 C   0  0  1  0  0  0  0  0  0  0  0  0
    8.8954  -17.7817   21.3995 O   0  0  0  0  0  0  0  0  0  0  0  0
    8.1624  -15.5295   20.9812 C   0  0  2  0  0  0  0  0  0  0  0  0
    9.1905  -15.3742   19.9466 N   0  0  0  0  0  0  0  0  0  0  0  0
    8.7462  -15.0691   22.2677 C   0  0  0  0  0  0  0  0  0  0  0  0
   10.0043  -15.0125   22.4271 O   0  0  0  0  0  0  0  0  0  0  0  0
    7.2254  -11.8939   27.3448 C   0  0  0  0  0  0  0  0  0  0  0  0
    8.1228  -12.9043   26.7034 C   0  0  0  0  0  0  0  0  0  0  0  0
    7.5776  -13.3506   25.3382 C   0  0  2  0  0  0  0  0  0  0  0  0
    6.1663  -13.8101   25.4651 C   0  0  0  0  0  0  0  0  0  0  0  0
    8.5234  -14.3161   24.6805 C   0  0  2  0  0  0  0  0  0  0  0  0
    7.9559  -14.6731   23.3728 N   0  0  0  0  0  0  0  0  0  0  0  0
    8.7334  -15.5702   25.4255 C   0  0  0  0  0  0  0  0  0  0  0  0
    7.7728  -16.4070   25.5400 O   0  0  0  0  0  0  0  0  0  0  0  0
    9.9401  -15.9528   26.0464 N   0  0  0  0  0  0  0  0  0  0  0  0
   10.0931  -17.2540   26.6766 C   0  0  1  0  0  0  0  0  0  0  0  0
   11.4732  -17.7895   26.3735 C   0  0  0  0  0  0  0  0  0  0  0  0
   11.6392  -18.0516   24.9324 C   0  0  0  0  0  0  0  0  0  0  0  0
   10.6905  -17.9372   23.9378 C   0  0  0  0  0  0  0  0  0  0  0  0
   11.2193  -18.2787   22.7501 N   0  0  0  0  0  0  0  0  0  0  0  0
   12.4935  -18.6078   22.9863 C   0  0  0  0  0  0  0  0  0  0  0  0
   12.7584  -18.4755   24.2945 N   0  0  0  0  0  0  0  0  0  0  0  0
    9.8594  -17.1363   28.1236 C   0  0  0  0  0  0  0  0  0  0  0  0
    9.7087  -18.2040   28.9942 O   0  0  0  0  0  0  0  0  0  0  0  0
    9.7812  -15.9920   28.6593 O   0  0  0  0  0  0  0  0  0  0  0  0
  2  1  1  6
  3  2  1  0
  4  2  1  0
  4  6  1  0
  4  5  1  6
  6 13  1  0
  6  7  2  0
  9  8  1  0
 10  9  1  0
 10 11  1  1
 12 10  1  0
 12 13  1  6
 14 12  1  0
 14 15  2  0
 16 14  1  0
 17 16  1  0
 17 18  1  1
 18 19  1  0
 19 20  2  0
 19 23  1  0
 20 21  1  0
 21 22  1  0
 23 22  2  0
 24 17  1  0
 25 24  1  0
 26 24  2  0
M  END
$$$$
