TIH.pdb
     RDKit          3D

 26 26  0  0  1  0  0  0  0  0999 V2000
    6.1382  -16.9051   20.3765 C   0  0  0  0  0  0  0  0  0  0  0  0
    7.0097  -16.5458   21.5584 C   0  0  1  0  0  0  0  0  0  0  0  0
    8.2443  -17.1754   21.4950 O   0  0  0  0  0  0  0  0  0  0  0  0
    7.1751  -15.0271   21.6576 C   0  0  2  0  0  0  0  0  0  0  0  0
    7.8707  -14.5562   20.4552 N   0  0  0  0  0  0  0  0  0  0  0  0
    8.0203  -14.6819   22.8301 C   0  0  0  0  0  0  0  0  0  0  0  0
    9.2678  -14.4880   22.6974 O   0  0  0  0  0  0  0  0  0  0  0  0
    6.1160  -11.4127   26.5567 C   0  0  0  0  0  0  0  0  0  0  0  0
    7.0616  -12.1463   25.6593 C   0  0  0  0  0  0  0  0  0  0  0  0
    7.5094  -13.4759   26.2850 C   0  0  2  0  0  0  0  0  0  0  0  0
    8.1233  -13.2425   27.6221 C   0  0  0  0  0  0  0  0  0  0  0  0
    8.3402  -14.2653   25.3125 C   0  0  2  0  0  0  0  0  0  0  0  0
    7.5012  -14.5499   24.1399 N   0  0  0  0  0  0  0  0  0  0  0  0
    8.8250  -15.5573   25.8298 C   0  0  0  0  0  0  0  0  0  0  0  0
    7.9874  -16.4849   26.1016 O   0  0  0  0  0  0  0  0  0  0  0  0
   10.1773  -15.8829   26.0605 N   0  0  0  0  0  0  0  0  0  0  0  0
   10.5714  -17.1905   26.5589 C   0  0  1  0  0  0  0  0  0  0  0  0
   11.9402  -17.5326   26.0178 C   0  0  0  0  0  0  0  0  0  0  0  0
   11.9027  -17.7301   24.5575 C   0  0  0  0  0  0  0  0  0  0  0  0
   10.7931  -17.7790   23.7396 C   0  0  0  0  0  0  0  0  0  0  0  0
   11.1647  -17.9904   22.4651 N   0  0  0  0  0  0  0  0  0  0  0  0
   12.4990  -18.0755   22.4714 C   0  0  0  0  0  0  0  0  0  0  0  0
   12.9549  -17.9207   23.7234 N   0  0  0  0  0  0  0  0  0  0  0  0
   10.5508  -17.1892   28.0292 C   0  0  0  0  0  0  0  0  0  0  0  0
   10.5279  -18.3234   28.8252 O   0  0  0  0  0  0  0  0  0  0  0  0
   10.5520  -16.0913   28.6595 O   0  0  0  0  0  0  0  0  0  0  0  0
  2  1  1  6
  3  2  1  0
  4  2  1  0
  4  6  1  0
  4  5  1  6
  6 13  1  0
  6  7  2  0
  9  8  1  0
 10  9  1  0
 10 11  1  1
 12 10  1  0
 12 13  1  6
 14 12  1  0
 14 15  2  0
 16 14  1  0
 17 16  1  0
 17 18  1  1
 18 19  1  0
 19 20  2  0
 19 23  1  0
 20 21  1  0
 21 22  1  0
 23 22  2  0
 24 17  1  0
 25 24  1  0
 26 24  2  0
M  END
$$$$
