TIH.pdb
     RDKit          3D

 26 26  0  0  1  0  0  0  0  0999 V2000
    6.6399  -14.9411   18.9343 C   0  0  0  0  0  0  0  0  0  0  0  0
    7.1915  -14.9942   20.3408 C   0  0  1  0  0  0  0  0  0  0  0  0
    8.3891  -15.6924   20.3956 O   0  0  0  0  0  0  0  0  0  0  0  0
    7.3572  -13.5801   20.9032 C   0  0  2  0  0  0  0  0  0  0  0  0
    8.3292  -12.8610   20.0728 N   0  0  0  0  0  0  0  0  0  0  0  0
    7.9035  -13.6412   22.2837 C   0  0  0  0  0  0  0  0  0  0  0  0
    9.1565  -13.6579   22.4867 O   0  0  0  0  0  0  0  0  0  0  0  0
    7.2954  -10.8436   26.0646 C   0  0  0  0  0  0  0  0  0  0  0  0
    6.3421  -11.7674   25.3749 C   0  0  0  0  0  0  0  0  0  0  0  0
    6.6165  -13.2330   25.7447 C   0  0  2  0  0  0  0  0  0  0  0  0
    6.9441  -13.3529   27.1930 C   0  0  0  0  0  0  0  0  0  0  0  0
    7.6117  -13.8408   24.7963 C   0  0  2  0  0  0  0  0  0  0  0  0
    7.0814  -13.6837   23.4348 N   0  0  0  0  0  0  0  0  0  0  0  0
    7.8597  -15.2780   25.0081 C   0  0  0  0  0  0  0  0  0  0  0  0
    7.2264  -16.1398   24.3066 O   0  0  0  0  0  0  0  0  0  0  0  0
    8.7660  -15.8155   25.9450 N   0  0  0  0  0  0  0  0  0  0  0  0
    9.5284  -17.0206   25.6622 C   0  0  1  0  0  0  0  0  0  0  0  0
   10.3486  -16.8032   24.4118 C   0  0  0  0  0  0  0  0  0  0  0  0
   11.1735  -17.9850   24.1026 C   0  0  0  0  0  0  0  0  0  0  0  0
   11.2908  -19.1486   24.8339 C   0  0  0  0  0  0  0  0  0  0  0  0
   12.1523  -19.9887   24.2348 N   0  0  0  0  0  0  0  0  0  0  0  0
   12.5800  -19.3657   23.1319 C   0  0  0  0  0  0  0  0  0  0  0  0
   11.9990  -18.1601   23.0409 N   0  0  0  0  0  0  0  0  0  0  0  0
   10.3738  -17.3568   26.8174 C   0  0  0  0  0  0  0  0  0  0  0  0
   10.6324  -16.5130   27.8860 O   0  0  0  0  0  0  0  0  0  0  0  0
   10.9299  -18.4921   26.8835 O   0  0  0  0  0  0  0  0  0  0  0  0
  2  1  1  6
  3  2  1  0
  4  2  1  0
  4  6  1  0
  4  5  1  6
  6 13  1  0
  6  7  2  0
  9  8  1  0
 10  9  1  0
 10 11  1  1
 12 10  1  0
 12 13  1  6
 14 12  1  0
 14 15  2  0
 16 14  1  0
 17 16  1  0
 17 18  1  6
 18 19  1  0
 19 20  2  0
 19 23  1  0
 20 21  1  0
 21 22  1  0
 23 22  2  0
 24 17  1  0
 25 24  1  0
 26 24  2  0
M  END
$$$$
