TIH.pdb
     RDKit          3D

 26 26  0  0  1  0  0  0  0  0999 V2000
    6.6947  -17.2952   20.2862 C   0  0  0  0  0  0  0  0  0  0  0  0
    7.4468  -16.9460   21.5502 C   0  0  1  0  0  0  0  0  0  0  0  0
    8.5911  -17.7170   21.6953 O   0  0  0  0  0  0  0  0  0  0  0  0
    7.7868  -15.4536   21.5743 C   0  0  2  0  0  0  0  0  0  0  0  0
    8.7001  -15.1673   20.4628 N   0  0  0  0  0  0  0  0  0  0  0  0
    8.4933  -15.1119   22.8361 C   0  0  0  0  0  0  0  0  0  0  0  0
    9.7614  -15.0758   22.8815 O   0  0  0  0  0  0  0  0  0  0  0  0
    6.2377  -11.5274   26.1081 C   0  0  0  0  0  0  0  0  0  0  0  0
    7.2283  -12.3536   25.3508 C   0  0  0  0  0  0  0  0  0  0  0  0
    7.5932  -13.6332   26.1186 C   0  0  2  0  0  0  0  0  0  0  0  0
    8.0725  -13.3003   27.4892 C   0  0  0  0  0  0  0  0  0  0  0  0
    8.5073  -14.5000   25.2985 C   0  0  2  0  0  0  0  0  0  0  0  0
    7.8141  -14.8115   24.0406 N   0  0  0  0  0  0  0  0  0  0  0  0
    8.8658  -15.7816   25.9315 C   0  0  0  0  0  0  0  0  0  0  0  0
    7.9517  -16.6386   26.1882 O   0  0  0  0  0  0  0  0  0  0  0  0
   10.1720  -16.1704   26.2934 N   0  0  0  0  0  0  0  0  0  0  0  0
   10.4382  -17.4552   26.9194 C   0  0  1  0  0  0  0  0  0  0  0  0
   11.8230  -17.9167   26.5287 C   0  0  0  0  0  0  0  0  0  0  0  0
   11.9293  -18.1113   25.0714 C   0  0  0  0  0  0  0  0  0  0  0  0
   10.9030  -18.2318   24.1578 C   0  0  0  0  0  0  0  0  0  0  0  0
   11.4002  -18.4133   22.9222 N   0  0  0  0  0  0  0  0  0  0  0  0
   12.7312  -18.4085   23.0478 C   0  0  0  0  0  0  0  0  0  0  0  0
   13.0621  -18.2278   24.3351 N   0  0  0  0  0  0  0  0  0  0  0  0
   10.2939  -17.3371   28.3780 C   0  0  0  0  0  0  0  0  0  0  0  0
   10.2681  -18.4030   29.2634 O   0  0  0  0  0  0  0  0  0  0  0  0
   10.1801  -16.1943   28.9105 O   0  0  0  0  0  0  0  0  0  0  0  0
  2  1  1  6
  3  2  1  0
  4  2  1  0
  4  6  1  0
  4  5  1  6
  6 13  1  0
  6  7  2  0
  9  8  1  0
 10  9  1  0
 10 11  1  1
 12 10  1  0
 12 13  1  6
 14 12  1  0
 14 15  2  0
 16 14  1  0
 17 16  1  0
 17 18  1  1
 18 19  1  0
 19 20  2  0
 19 23  1  0
 20 21  1  0
 21 22  1  0
 23 22  2  0
 24 17  1  0
 25 24  1  0
 26 24  2  0
M  END
$$$$
