YVW.pdb
     RDKit          3D

 34 36  0  0  1  0  0  0  0  0999 V2000
   16.7367  -17.3623  -13.6233 O   0  0  0  0  0  0  0  0  0  0  0  0
   18.0081  -17.8651  -13.4013 C   0  0  0  0  0  0  0  0  0  0  0  0
   19.0838  -17.1272  -13.8921 C   0  0  0  0  0  0  0  0  0  0  0  0
   20.3629  -17.6168  -13.6753 C   0  0  0  0  0  0  0  0  0  0  0  0
   20.5300  -18.8051  -12.9883 C   0  0  0  0  0  0  0  0  0  0  0  0
   21.8966  -19.3388  -12.7272 C   0  0  0  0  0  0  0  0  0  0  0  0
   22.6140  -19.6467  -14.0150 C   0  0  2  0  0  0  0  0  0  0  0  0
   21.9269  -20.5657  -14.8828 N   0  0  0  0  0  0  0  0  0  0  0  0
   23.9984  -20.0816  -13.8374 C   0  0  0  0  0  0  0  0  0  0  0  0
   24.2632  -21.3190  -13.6202 O   0  0  0  0  0  0  0  0  0  0  0  0
   19.4707  -19.5368  -12.5026 C   0  0  0  0  0  0  0  0  0  0  0  0
   18.1947  -19.0574  -12.7148 C   0  0  0  0  0  0  0  0  0  0  0  0
   28.8367  -19.4661  -14.0746 C   0  0  0  0  0  0  0  0  0  0  0  0
   27.4583  -18.9062  -14.3578 C   0  0  1  0  0  0  0  0  0  0  0  0
   27.1903  -19.0654  -15.8427 C   0  0  0  0  0  0  0  0  0  0  0  0
   26.4621  -19.6328  -13.5375 C   0  0  2  0  0  0  0  0  0  0  0  0
   25.1252  -19.2111  -13.8861 N   0  0  0  0  0  0  0  0  0  0  0  0
   26.6895  -19.5873  -12.0685 C   0  0  0  0  0  0  0  0  0  0  0  0
   26.2060  -18.6841  -11.3202 O   0  0  0  0  0  0  0  0  0  0  0  0
   27.4753  -20.5919  -11.4554 N   0  0  0  0  0  0  0  0  0  0  0  0
   27.7723  -20.5535  -10.0096 C   0  0  1  0  0  0  0  0  0  0  0  0
   26.3963  -20.5370   -9.3669 C   0  0  0  0  0  0  0  0  0  0  0  0
   26.3559  -20.6316   -7.9206 C   0  0  0  0  0  0  0  0  0  0  0  0
   25.3997  -21.1841   -7.0883 C   0  0  0  0  0  0  0  0  0  0  0  0
   25.8155  -20.9951   -5.8474 N   0  0  0  0  0  0  0  0  0  0  0  0
   27.0136  -20.3383   -5.7990 C   0  0  0  0  0  0  0  0  0  0  0  0
   27.8248  -19.9453   -4.7614 C   0  0  0  0  0  0  0  0  0  0  0  0
   29.0116  -19.3036   -5.0078 C   0  0  0  0  0  0  0  0  0  0  0  0
   29.3733  -19.0616   -6.3107 C   0  0  0  0  0  0  0  0  0  0  0  0
   28.5567  -19.4570   -7.3457 C   0  0  0  0  0  0  0  0  0  0  0  0
   27.3634  -20.1024   -7.1079 C   0  0  0  0  0  0  0  0  0  0  0  0
   28.6778  -21.5889   -9.5796 C   0  0  0  0  0  0  0  0  0  0  0  0
   28.7582  -22.6690  -10.2825 O   0  0  0  0  0  0  0  0  0  0  0  0
   29.4836  -21.5427   -8.4745 O   0  0  0  0  0  0  0  0  0  0  0  0
  2  1  1  0
  3  2  2  0
  4  3  1  0
  5 11  1  0
  5  4  2  0
  6  5  1  0
  7  6  1  0
  7  8  1  1
  9  7  1  0
  9 10  2  0
 11 12  2  0
 12  2  1  0
 14 13  1  6
 14 15  1  0
 16 14  1  0
 16 17  1  1
 17  9  1  0
 18 16  1  0
 19 18  2  0
 20 18  1  0
 21 20  1  0
 21 22  1  1
 22 23  1  0
 23 31  1  0
 24 23  2  0
 24 25  1  0
 25 26  1  0
 26 27  1  0
 27 28  2  0
 29 28  1  0
 30 29  2  0
 31 26  2  0
 31 30  1  0
 32 34  1  0
 32 21  1  0
 33 32  2  0
M  END
$$$$
