YVW.pdb
     RDKit          3D

 34 36  0  0  1  0  0  0  0  0999 V2000
   25.1244  -23.0067  -23.2734 O   0  0  0  0  0  0  0  0  0  0  0  0
   25.7244  -23.0546  -22.0259 C   0  0  0  0  0  0  0  0  0  0  0  0
   27.0518  -23.4756  -21.9689 C   0  0  0  0  0  0  0  0  0  0  0  0
   27.6667  -23.5262  -20.7271 C   0  0  0  0  0  0  0  0  0  0  0  0
   26.9545  -23.1624  -19.5990 C   0  0  0  0  0  0  0  0  0  0  0  0
   27.6021  -23.1906  -18.2573 C   0  0  0  0  0  0  0  0  0  0  0  0
   28.3806  -21.9266  -18.0039 C   0  0  2  0  0  0  0  0  0  0  0  0
   29.7289  -21.9385  -18.5056 N   0  0  0  0  0  0  0  0  0  0  0  0
   28.3807  -21.4958  -16.6070 C   0  0  0  0  0  0  0  0  0  0  0  0
   29.3616  -21.8022  -15.8374 O   0  0  0  0  0  0  0  0  0  0  0  0
   25.6438  -22.7468  -19.6510 C   0  0  0  0  0  0  0  0  0  0  0  0
   25.0241  -22.6945  -20.8825 C   0  0  0  0  0  0  0  0  0  0  0  0
   28.9638  -18.5974  -15.2552 C   0  0  0  0  0  0  0  0  0  0  0  0
   27.6745  -18.8820  -14.5135 C   0  0  1  0  0  0  0  0  0  0  0  0
   26.5858  -18.0256  -15.1327 C   0  0  0  0  0  0  0  0  0  0  0  0
   27.3645  -20.3264  -14.6168 C   0  0  2  0  0  0  0  0  0  0  0  0
   27.3396  -20.7338  -16.0024 N   0  0  0  0  0  0  0  0  0  0  0  0
   26.1464  -20.7715  -13.8888 C   0  0  0  0  0  0  0  0  0  0  0  0
   24.9990  -20.8272  -14.4274 O   0  0  0  0  0  0  0  0  0  0  0  0
   26.2506  -21.1604  -12.5322 N   0  0  0  0  0  0  0  0  0  0  0  0
   25.0505  -21.4877  -11.7368 C   0  0  1  0  0  0  0  0  0  0  0  0
   25.6207  -22.1405  -10.4897 C   0  0  0  0  0  0  0  0  0  0  0  0
   26.0194  -21.2500   -9.4171 C   0  0  0  0  0  0  0  0  0  0  0  0
   25.2864  -20.3065   -8.7210 C   0  0  0  0  0  0  0  0  0  0  0  0
   26.1123  -19.7388   -7.8582 N   0  0  0  0  0  0  0  0  0  0  0  0
   27.3756  -20.2555   -7.9367 C   0  0  0  0  0  0  0  0  0  0  0  0
   28.5363  -20.0000   -7.2464 C   0  0  0  0  0  0  0  0  0  0  0  0
   29.6829  -20.6987   -7.5262 C   0  0  0  0  0  0  0  0  0  0  0  0
   29.6485  -21.6579   -8.5089 C   0  0  0  0  0  0  0  0  0  0  0  0
   28.4834  -21.9091   -9.1972 C   0  0  0  0  0  0  0  0  0  0  0  0
   27.3270  -21.2128   -8.9229 C   0  0  0  0  0  0  0  0  0  0  0  0
   24.1678  -20.3663  -11.5373 C   0  0  0  0  0  0  0  0  0  0  0  0
   24.6602  -19.1744  -11.6031 O   0  0  0  0  0  0  0  0  0  0  0  0
   22.8255  -20.4368  -11.2802 O   0  0  0  0  0  0  0  0  0  0  0  0
  2  1  1  0
  3  2  2  0
  4  3  1  0
  5 11  1  0
  5  4  2  0
  6  5  1  0
  7  6  1  0
  7  8  1  1
  9  7  1  0
  9 10  2  0
 11 12  2  0
 12  2  1  0
 14 13  1  6
 14 15  1  0
 16 14  1  0
 16 17  1  6
 17  9  1  0
 18 16  1  0
 19 18  2  0
 20 18  1  0
 21 20  1  0
 21 22  1  1
 22 23  1  0
 23 31  1  0
 24 23  2  0
 24 25  1  0
 25 26  1  0
 26 27  1  0
 27 28  2  0
 29 28  1  0
 30 29  2  0
 31 26  2  0
 31 30  1  0
 32 34  1  0
 32 21  1  0
 33 32  2  0
M  END
$$$$
