YVW.pdb
     RDKit          3D

 34 36  0  0  1  0  0  0  0  0999 V2000
   18.8069  -14.9672  -17.5431 O   0  0  0  0  0  0  0  0  0  0  0  0
   19.4408  -15.6671  -16.5298 C   0  0  0  0  0  0  0  0  0  0  0  0
   18.8237  -15.6852  -15.2802 C   0  0  0  0  0  0  0  0  0  0  0  0
   19.4453  -16.3840  -14.2564 C   0  0  0  0  0  0  0  0  0  0  0  0
   20.6413  -17.0328  -14.5029 C   0  0  0  0  0  0  0  0  0  0  0  0
   21.3159  -17.8059  -13.4223 C   0  0  0  0  0  0  0  0  0  0  0  0
   21.0701  -19.2835  -13.5778 C   0  0  2  0  0  0  0  0  0  0  0  0
   19.7208  -19.7019  -13.3053 N   0  0  0  0  0  0  0  0  0  0  0  0
   22.0046  -20.1254  -12.8329 C   0  0  0  0  0  0  0  0  0  0  0  0
   21.7204  -20.5058  -11.6400 O   0  0  0  0  0  0  0  0  0  0  0  0
   21.2540  -17.0169  -15.7349 C   0  0  0  0  0  0  0  0  0  0  0  0
   20.6428  -16.3231  -16.7588 C   0  0  0  0  0  0  0  0  0  0  0  0
   25.7677  -23.2163  -12.5500 C   0  0  0  0  0  0  0  0  0  0  0  0
   24.7669  -22.4418  -13.3820 C   0  0  1  0  0  0  0  0  0  0  0  0
   23.7047  -23.4169  -13.8542 C   0  0  0  0  0  0  0  0  0  0  0  0
   24.1895  -21.3550  -12.5581 C   0  0  2  0  0  0  0  0  0  0  0  0
   23.2570  -20.5771  -13.3403 N   0  0  0  0  0  0  0  0  0  0  0  0
   25.1771  -20.4915  -11.8577 C   0  0  0  0  0  0  0  0  0  0  0  0
   25.7396  -19.4960  -12.4072 O   0  0  0  0  0  0  0  0  0  0  0  0
   25.5159  -20.7728  -10.5128 N   0  0  0  0  0  0  0  0  0  0  0  0
   26.5929  -20.0328   -9.8254 C   0  0  1  0  0  0  0  0  0  0  0  0
   26.1312  -20.0002   -8.3789 C   0  0  0  0  0  0  0  0  0  0  0  0
   26.9781  -19.2843   -7.4447 C   0  0  0  0  0  0  0  0  0  0  0  0
   27.2813  -17.9375   -7.3659 C   0  0  0  0  0  0  0  0  0  0  0  0
   28.1191  -17.7913   -6.3532 N   0  0  0  0  0  0  0  0  0  0  0  0
   28.3988  -18.9803   -5.7392 C   0  0  0  0  0  0  0  0  0  0  0  0
   29.1815  -19.3155   -4.6602 C   0  0  0  0  0  0  0  0  0  0  0  0
   29.2668  -20.6176   -4.2377 C   0  0  0  0  0  0  0  0  0  0  0  0
   28.5555  -21.5790   -4.9133 C   0  0  0  0  0  0  0  0  0  0  0  0
   27.7738  -21.2375   -5.9935 C   0  0  0  0  0  0  0  0  0  0  0  0
   27.6816  -19.9326   -6.4247 C   0  0  0  0  0  0  0  0  0  0  0  0
   27.9084  -20.5652  -10.0756 C   0  0  0  0  0  0  0  0  0  0  0  0
   28.0308  -21.8332  -10.2869 O   0  0  0  0  0  0  0  0  0  0  0  0
   29.0717  -19.8456  -10.1150 O   0  0  0  0  0  0  0  0  0  0  0  0
  2  1  1  0
  3  2  2  0
  4  3  1  0
  5 11  1  0
  5  4  2  0
  6  5  1  0
  7  6  1  0
  7  8  1  1
  9  7  1  0
  9 10  2  0
 11 12  2  0
 12  2  1  0
 14 13  1  1
 14 15  1  0
 16 14  1  0
 16 17  1  6
 17  9  1  0
 18 16  1  0
 19 18  2  0
 20 18  1  0
 21 20  1  0
 21 22  1  1
 22 23  1  0
 23 31  1  0
 24 23  2  0
 24 25  1  0
 25 26  1  0
 26 27  1  0
 27 28  2  0
 29 28  1  0
 30 29  2  0
 31 26  2  0
 31 30  1  0
 32 34  1  0
 32 21  1  0
 33 32  2  0
M  END
$$$$
