YVW.pdb
     RDKit          3D

 34 36  0  0  1  0  0  0  0  0999 V2000
   18.1162  -14.6306  -15.3483 O   0  0  0  0  0  0  0  0  0  0  0  0
   18.8491  -15.5436  -14.6082 C   0  0  0  0  0  0  0  0  0  0  0  0
   18.2300  -16.1110  -13.4959 C   0  0  0  0  0  0  0  0  0  0  0  0
   18.9503  -17.0288  -12.7465 C   0  0  0  0  0  0  0  0  0  0  0  0
   20.2425  -17.3489  -13.1204 C   0  0  0  0  0  0  0  0  0  0  0  0
   21.0272  -18.3474  -12.3408 C   0  0  0  0  0  0  0  0  0  0  0  0
   21.0376  -19.6867  -13.0295 C   0  0  2  0  0  0  0  0  0  0  0  0
   19.7906  -20.4020  -12.9751 N   0  0  0  0  0  0  0  0  0  0  0  0
   22.1264  -20.5661  -12.6073 C   0  0  0  0  0  0  0  0  0  0  0  0
   21.9625  -21.3661  -11.6166 O   0  0  0  0  0  0  0  0  0  0  0  0
   20.8574  -16.7907  -14.2175 C   0  0  0  0  0  0  0  0  0  0  0  0
   20.1482  -15.8758  -14.9680 C   0  0  0  0  0  0  0  0  0  0  0  0
   26.3376  -22.9154  -13.2653 C   0  0  0  0  0  0  0  0  0  0  0  0
   25.1822  -22.1124  -13.8254 C   0  0  1  0  0  0  0  0  0  0  0  0
   24.2486  -23.0766  -14.5330 C   0  0  0  0  0  0  0  0  0  0  0  0
   24.5035  -21.4018  -12.7174 C   0  0  2  0  0  0  0  0  0  0  0  0
   23.4080  -20.6110  -13.2282 N   0  0  0  0  0  0  0  0  0  0  0  0
   25.3926  -20.6051  -11.8305 C   0  0  0  0  0  0  0  0  0  0  0  0
   25.7419  -19.4133  -12.0896 O   0  0  0  0  0  0  0  0  0  0  0  0
   25.8793  -21.1828  -10.6339 N   0  0  0  0  0  0  0  0  0  0  0  0
   26.9614  -20.5415   -9.8608 C   0  0  1  0  0  0  0  0  0  0  0  0
   26.3232  -20.2836   -8.5070 C   0  0  0  0  0  0  0  0  0  0  0  0
   27.1415  -19.5995   -7.5249 C   0  0  0  0  0  0  0  0  0  0  0  0
   27.4674  -18.2605   -7.4109 C   0  0  0  0  0  0  0  0  0  0  0  0
   28.2621  -18.1469   -6.3601 N   0  0  0  0  0  0  0  0  0  0  0  0
   28.4908  -19.3506   -5.7536 C   0  0  0  0  0  0  0  0  0  0  0  0
   29.2179  -19.7183   -4.6467 C   0  0  0  0  0  0  0  0  0  0  0  0
   29.2587  -21.0281   -4.2420 C   0  0  0  0  0  0  0  0  0  0  0  0
   28.5593  -21.9644   -4.9639 C   0  0  0  0  0  0  0  0  0  0  0  0
   27.8333  -21.5905   -6.0718 C   0  0  0  0  0  0  0  0  0  0  0  0
   27.7861  -20.2775   -6.4855 C   0  0  0  0  0  0  0  0  0  0  0  0
   28.1940  -21.2881   -9.8662 C   0  0  0  0  0  0  0  0  0  0  0  0
   29.3018  -20.6510   -9.6810 O   0  0  0  0  0  0  0  0  0  0  0  0
   28.3139  -22.6388  -10.0506 O   0  0  0  0  0  0  0  0  0  0  0  0
  2  1  1  0
  3  2  2  0
  4  3  1  0
  5 11  1  0
  5  4  2  0
  6  5  1  0
  7  6  1  0
  7  8  1  1
  9  7  1  0
  9 10  2  0
 11 12  2  0
 12  2  1  0
 14 13  1  1
 14 15  1  0
 16 14  1  0
 16 17  1  6
 17  9  1  0
 18 16  1  0
 19 18  2  0
 20 18  1  0
 21 20  1  0
 21 22  1  1
 22 23  1  0
 23 31  1  0
 24 23  2  0
 24 25  1  0
 25 26  1  0
 26 27  1  0
 27 28  2  0
 29 28  1  0
 30 29  2  0
 31 26  2  0
 31 30  1  0
 32 34  1  0
 32 21  1  0
 33 32  2  0
M  END
$$$$
