YVW.pdb
     RDKit          3D

 34 36  0  0  1  0  0  0  0  0999 V2000
   24.5293  -27.9178  -19.8796 O   0  0  0  0  0  0  0  0  0  0  0  0
   25.0533  -27.1177  -18.8777 C   0  0  0  0  0  0  0  0  0  0  0  0
   26.2373  -27.5387  -18.2747 C   0  0  0  0  0  0  0  0  0  0  0  0
   26.7752  -26.7468  -17.2717 C   0  0  0  0  0  0  0  0  0  0  0  0
   26.1301  -25.5798  -16.9055 C   0  0  0  0  0  0  0  0  0  0  0  0
   26.7015  -24.7041  -15.8438 C   0  0  0  0  0  0  0  0  0  0  0  0
   27.3109  -23.4607  -16.4359 C   0  0  2  0  0  0  0  0  0  0  0  0
   28.4488  -23.6928  -17.2851 N   0  0  0  0  0  0  0  0  0  0  0  0
   27.6352  -22.4287  -15.4525 C   0  0  0  0  0  0  0  0  0  0  0  0
   28.8058  -22.3830  -14.9273 O   0  0  0  0  0  0  0  0  0  0  0  0
   24.9609  -25.1609  -17.4979 C   0  0  0  0  0  0  0  0  0  0  0  0
   24.4183  -25.9436  -18.4960 C   0  0  0  0  0  0  0  0  0  0  0  0
   27.0400  -18.2232  -13.1361 C   0  0  0  0  0  0  0  0  0  0  0  0
   26.8522  -19.1289  -14.3352 C   0  0  1  0  0  0  0  0  0  0  0  0
   27.8866  -18.7405  -15.3749 C   0  0  0  0  0  0  0  0  0  0  0  0
   27.0046  -20.5383  -13.9066 C   0  0  2  0  0  0  0  0  0  0  0  0
   26.7227  -21.4285  -15.0087 N   0  0  0  0  0  0  0  0  0  0  0  0
   26.2495  -20.9187  -12.6831 C   0  0  0  0  0  0  0  0  0  0  0  0
   24.9941  -21.1014  -12.6726 O   0  0  0  0  0  0  0  0  0  0  0  0
   26.9454  -21.0950  -11.4636 N   0  0  0  0  0  0  0  0  0  0  0  0
   26.2258  -21.3947  -10.2097 C   0  0  1  0  0  0  0  0  0  0  0  0
   27.3311  -21.4331   -9.1688 C   0  0  0  0  0  0  0  0  0  0  0  0
   27.1745  -20.5558   -8.0251 C   0  0  0  0  0  0  0  0  0  0  0  0
   26.2943  -19.5100   -7.8158 C   0  0  0  0  0  0  0  0  0  0  0  0
   26.5693  -19.0097   -6.6230 N   0  0  0  0  0  0  0  0  0  0  0  0
   27.5983  -19.6700   -6.0112 C   0  0  0  0  0  0  0  0  0  0  0  0
   28.2092  -19.5241   -4.7886 C   0  0  0  0  0  0  0  0  0  0  0  0
   29.2311  -20.3590   -4.4150 C   0  0  0  0  0  0  0  0  0  0  0  0
   29.6318  -21.3429   -5.2858 C   0  0  0  0  0  0  0  0  0  0  0  0
   29.0168  -21.4840   -6.5090 C   0  0  0  0  0  0  0  0  0  0  0  0
   27.9895  -20.6506   -6.8926 C   0  0  0  0  0  0  0  0  0  0  0  0
   25.1216  -20.5051   -9.9522 C   0  0  0  0  0  0  0  0  0  0  0  0
   24.0839  -20.9708   -9.3410 O   0  0  0  0  0  0  0  0  0  0  0  0
   25.0593  -19.1821  -10.2964 O   0  0  0  0  0  0  0  0  0  0  0  0
  2  1  1  0
  3  2  2  0
  4  3  1  0
  5 11  1  0
  5  4  2  0
  6  5  1  0
  7  6  1  0
  7  8  1  1
  9  7  1  0
  9 10  2  0
 11 12  2  0
 12  2  1  0
 14 13  1  1
 14 15  1  0
 16 14  1  0
 16 17  1  6
 17  9  1  0
 18 16  1  0
 19 18  2  0
 20 18  1  0
 21 20  1  0
 21 22  1  1
 22 23  1  0
 23 31  1  0
 24 23  2  0
 24 25  1  0
 25 26  1  0
 26 27  1  0
 27 28  2  0
 29 28  1  0
 30 29  2  0
 31 26  2  0
 31 30  1  0
 32 34  1  0
 32 21  1  0
 33 32  2  0
M  END
$$$$
