YVW.pdb
     RDKit          3D

 34 36  0  0  1  0  0  0  0  0999 V2000
   20.1246  -23.3334  -20.5633 O   0  0  0  0  0  0  0  0  0  0  0  0
   21.0406  -23.2895  -19.5252 C   0  0  0  0  0  0  0  0  0  0  0  0
   21.6183  -24.4943  -19.1289 C   0  0  0  0  0  0  0  0  0  0  0  0
   22.5391  -24.4658  -18.0925 C   0  0  0  0  0  0  0  0  0  0  0  0
   22.8520  -23.2599  -17.4924 C   0  0  0  0  0  0  0  0  0  0  0  0
   23.8535  -23.2040  -16.3905 C   0  0  0  0  0  0  0  0  0  0  0  0
   25.0994  -22.4786  -16.8258 C   0  0  2  0  0  0  0  0  0  0  0  0
   25.8731  -23.1590  -17.8299 N   0  0  0  0  0  0  0  0  0  0  0  0
   25.9714  -22.0762  -15.7236 C   0  0  0  0  0  0  0  0  0  0  0  0
   26.8621  -22.8858  -15.2770 O   0  0  0  0  0  0  0  0  0  0  0  0
   22.2835  -22.0684  -17.8804 C   0  0  0  0  0  0  0  0  0  0  0  0
   21.3656  -22.0880  -18.9101 C   0  0  0  0  0  0  0  0  0  0  0  0
   28.2892  -18.8898  -12.9394 C   0  0  0  0  0  0  0  0  0  0  0  0
   27.4579  -19.2160  -14.1626 C   0  0  1  0  0  0  0  0  0  0  0  0
   28.4011  -19.3334  -15.3452 C   0  0  0  0  0  0  0  0  0  0  0  0
   26.7160  -20.4751  -13.9228 C   0  0  2  0  0  0  0  0  0  0  0  0
   25.9125  -20.8085  -15.0758 N   0  0  0  0  0  0  0  0  0  0  0  0
   25.9223  -20.5189  -12.6658 C   0  0  0  0  0  0  0  0  0  0  0  0
   24.7048  -20.1681  -12.6028 O   0  0  0  0  0  0  0  0  0  0  0  0
   26.5332  -20.9748  -11.4735 N   0  0  0  0  0  0  0  0  0  0  0  0
   25.8377  -20.8813  -10.1746 C   0  0  1  0  0  0  0  0  0  0  0  0
   26.9371  -21.1599   -9.1645 C   0  0  0  0  0  0  0  0  0  0  0  0
   26.6398  -20.8460   -7.7805 C   0  0  0  0  0  0  0  0  0  0  0  0
   25.4237  -20.6740   -7.1453 C   0  0  0  0  0  0  0  0  0  0  0  0
   25.6880  -20.3752   -5.8845 N   0  0  0  0  0  0  0  0  0  0  0  0
   27.0315  -20.3368   -5.6341 C   0  0  0  0  0  0  0  0  0  0  0  0
   27.7656  -20.0932   -4.4979 C   0  0  0  0  0  0  0  0  0  0  0  0
   29.1360  -20.1394   -4.5293 C   0  0  0  0  0  0  0  0  0  0  0  0
   29.7598  -20.4336   -5.7172 C   0  0  0  0  0  0  0  0  0  0  0  0
   29.0195  -20.6761   -6.8518 C   0  0  0  0  0  0  0  0  0  0  0  0
   27.6430  -20.6324   -6.8299 C   0  0  0  0  0  0  0  0  0  0  0  0
   25.0948  -19.6581  -10.0053 C   0  0  0  0  0  0  0  0  0  0  0  0
   25.6928  -18.5366  -10.2335 O   0  0  0  0  0  0  0  0  0  0  0  0
   23.7856  -19.5607   -9.6191 O   0  0  0  0  0  0  0  0  0  0  0  0
  2  1  1  0
  3  2  2  0
  4  3  1  0
  5 11  1  0
  5  4  2  0
  6  5  1  0
  7  6  1  0
  7  8  1  6
  9  7  1  0
  9 10  2  0
 11 12  2  0
 12  2  1  0
 14 13  1  1
 14 15  1  0
 16 14  1  0
 16 17  1  6
 17  9  1  0
 18 16  1  0
 19 18  2  0
 20 18  1  0
 21 20  1  0
 21 22  1  1
 22 23  1  0
 23 31  1  0
 24 23  2  0
 24 25  1  0
 25 26  1  0
 26 27  1  0
 27 28  2  0
 29 28  1  0
 30 29  2  0
 31 26  2  0
 31 30  1  0
 32 34  1  0
 32 21  1  0
 33 32  2  0
M  END
$$$$
