YVW.pdb
     RDKit          3D

 34 36  0  0  1  0  0  0  0  0999 V2000
   18.7844  -14.1289  -16.4226 O   0  0  0  0  0  0  0  0  0  0  0  0
   19.3874  -15.0389  -15.5701 C   0  0  0  0  0  0  0  0  0  0  0  0
   18.6581  -15.4560  -14.4581 C   0  0  0  0  0  0  0  0  0  0  0  0
   19.2478  -16.3688  -13.5969 C   0  0  0  0  0  0  0  0  0  0  0  0
   20.5233  -16.8314  -13.8639 C   0  0  0  0  0  0  0  0  0  0  0  0
   21.1678  -17.8275  -12.9623 C   0  0  0  0  0  0  0  0  0  0  0  0
   21.1731  -19.1989  -13.5846 C   0  0  2  0  0  0  0  0  0  0  0  0
   19.8707  -19.7805  -13.7725 N   0  0  0  0  0  0  0  0  0  0  0  0
   22.0455  -20.1574  -12.9084 C   0  0  0  0  0  0  0  0  0  0  0  0
   21.6046  -20.8430  -11.9164 O   0  0  0  0  0  0  0  0  0  0  0  0
   21.2468  -16.4217  -14.9603 C   0  0  0  0  0  0  0  0  0  0  0  0
   20.6679  -15.5129  -15.8217 C   0  0  0  0  0  0  0  0  0  0  0  0
   25.7879  -23.2015  -12.6635 C   0  0  0  0  0  0  0  0  0  0  0  0
   24.8961  -22.2716  -13.4594 C   0  0  1  0  0  0  0  0  0  0  0  0
   23.8654  -23.1218  -14.1782 C   0  0  0  0  0  0  0  0  0  0  0  0
   24.2629  -21.3006  -12.5377 C   0  0  2  0  0  0  0  0  0  0  0  0
   23.4008  -20.4041  -13.2723 N   0  0  0  0  0  0  0  0  0  0  0  0
   25.1980  -20.5615  -11.6483 C   0  0  0  0  0  0  0  0  0  0  0  0
   25.1952  -19.2978  -11.5370 O   0  0  0  0  0  0  0  0  0  0  0  0
   26.1401  -21.2829  -10.8771 N   0  0  0  0  0  0  0  0  0  0  0  0
   27.0734  -20.5899   -9.9669 C   0  0  1  0  0  0  0  0  0  0  0  0
   26.1782  -20.1215   -8.8329 C   0  0  0  0  0  0  0  0  0  0  0  0
   26.8220  -19.3899   -7.7594 C   0  0  0  0  0  0  0  0  0  0  0  0
   27.0399  -18.0327   -7.6090 C   0  0  0  0  0  0  0  0  0  0  0  0
   27.6905  -17.8723   -6.4690 N   0  0  0  0  0  0  0  0  0  0  0  0
   27.9246  -19.0617   -5.8367 C   0  0  0  0  0  0  0  0  0  0  0  0
   28.5342  -19.3864   -4.6484 C   0  0  0  0  0  0  0  0  0  0  0  0
   28.6140  -20.6930   -4.2392 C   0  0  0  0  0  0  0  0  0  0  0  0
   28.0733  -21.6698   -5.0394 C   0  0  0  0  0  0  0  0  0  0  0  0
   27.4645  -21.3388   -6.2286 C   0  0  0  0  0  0  0  0  0  0  0  0
   27.3792  -20.0294   -6.6475 C   0  0  0  0  0  0  0  0  0  0  0  0
   28.2202  -21.3835   -9.6037 C   0  0  0  0  0  0  0  0  0  0  0  0
   29.3892  -20.8373   -9.6540 O   0  0  0  0  0  0  0  0  0  0  0  0
   28.1965  -22.6905   -9.1988 O   0  0  0  0  0  0  0  0  0  0  0  0
  2  1  1  0
  3  2  2  0
  4  3  1  0
  5 11  1  0
  5  4  2  0
  6  5  1  0
  7  6  1  0
  7  8  1  1
  9  7  1  0
  9 10  2  0
 11 12  2  0
 12  2  1  0
 14 13  1  1
 14 15  1  0
 16 14  1  0
 16 17  1  6
 17  9  1  0
 18 16  1  0
 19 18  2  0
 20 18  1  0
 21 20  1  0
 21 22  1  1
 22 23  1  0
 23 31  1  0
 24 23  2  0
 24 25  1  0
 25 26  1  0
 26 27  1  0
 27 28  2  0
 29 28  1  0
 30 29  2  0
 31 26  2  0
 31 30  1  0
 32 34  1  0
 32 21  1  0
 33 32  2  0
M  END
$$$$
