LQR.pdb
     RDKit          3D

 29 28  0  0  1  0  0  0  0  0999 V2000
    7.7860  -11.9954   19.5337 C   0  0  0  0  0  0  0  0  0  0  0  0
    7.5179  -13.2909   18.7411 C   0  0  2  0  0  0  0  0  0  0  0  0
    6.0675  -13.6602   18.9181 C   0  0  0  0  0  0  0  0  0  0  0  0
    8.4507  -14.3794   19.2063 C   0  0  0  0  0  0  0  0  0  0  0  0
    9.8105  -13.9259   19.4610 C   0  0  2  0  0  0  0  0  0  0  0  0
   10.2995  -13.2036   18.2732 N   0  0  0  0  0  0  0  0  0  0  0  0
   10.8376  -14.8031   19.9394 C   0  0  0  0  0  0  0  0  0  0  0  0
   10.5577  -15.6462   20.8455 O   0  0  0  0  0  0  0  0  0  0  0  0
   17.0836  -14.6506   18.9574 N   0  0  0  0  0  0  0  0  0  0  0  0
   16.0612  -14.4539   17.9873 C   0  0  0  0  0  0  0  0  0  0  0  0
   16.4474  -14.0944   16.8459 O   0  0  0  0  0  0  0  0  0  0  0  0
   14.6166  -14.6670   18.3220 C   0  0  0  0  0  0  0  0  0  0  0  0
   14.5763  -15.4750   19.5739 C   0  0  0  0  0  0  0  0  0  0  0  0
   13.1578  -15.7667   20.0552 C   0  0  2  0  0  0  0  0  0  0  0  0
   12.2073  -14.8551   19.5032 N   0  0  0  0  0  0  0  0  0  0  0  0
   13.2284  -15.7331   21.5496 C   0  0  0  0  0  0  0  0  0  0  0  0
   13.4098  -14.6242   22.1531 O   0  0  0  0  0  0  0  0  0  0  0  0
   10.8337  -15.8004   28.6132 N   0  0  0  0  0  0  0  0  0  0  0  0
   10.0052  -14.7314   28.1154 C   0  0  0  0  0  0  0  0  0  0  0  0
    9.8034  -13.7078   28.8487 N   0  0  0  0  0  0  0  0  0  0  0  0
    9.4308  -14.8361   26.8227 N   0  0  0  0  0  0  0  0  0  0  0  0
    9.7524  -15.9603   25.9864 C   0  0  0  0  0  0  0  0  0  0  0  0
   11.0293  -15.8025   25.2759 C   0  0  0  0  0  0  0  0  0  0  0  0
   11.4558  -16.5649   24.1202 C   0  0  0  0  0  0  0  0  0  0  0  0
   12.8246  -16.8933   23.7916 C   0  0  2  0  0  0  0  0  0  0  0  0
   13.1030  -16.8822   22.3443 N   0  0  0  0  0  0  0  0  0  0  0  0
   13.5994  -17.9031   24.4804 C   0  0  0  0  0  0  0  0  0  0  0  0
   14.1019  -18.0287   25.7266 O   0  0  0  0  0  0  0  0  0  0  0  0
   13.8791  -18.9512   23.7263 O   0  0  0  0  0  0  0  0  0  0  0  0
  2  1  1  1
  2  4  1  0
  3  2  1  0
  4  5  1  0
  5  6  1  6
  5  7  1  0
  7  8  2  0
  7 15  1  0
 10 12  1  0
 10  9  1  0
 11 10  2  0
 14 13  1  6
 13 12  1  0
 14 16  1  0
 15 14  1  0
 16 26  1  0
 16 17  2  0
 19 18  1  0
 20 19  2  0
 21 19  1  0
 21 22  1  0
 22 23  1  0
 23 24  1  0
 25 24  1  6
 25 27  1  0
 26 25  1  0
 27 28  1  0
 29 27  2  0
M  END
$$$$
