LQR.pdb
     RDKit          3D

 29 28  0  0  1  0  0  0  0  0999 V2000
    6.4410  -11.8253   24.8153 C   0  0  0  0  0  0  0  0  0  0  0  0
    6.5081  -12.6362   26.1253 C   0  0  2  0  0  0  0  0  0  0  0  0
    6.7532  -11.6770   27.2616 C   0  0  0  0  0  0  0  0  0  0  0  0
    7.5787  -13.6919   26.0211 C   0  0  0  0  0  0  0  0  0  0  0  0
    7.2352  -14.7995   25.1410 C   0  0  2  0  0  0  0  0  0  0  0  0
    5.9577  -15.3819   25.5885 N   0  0  0  0  0  0  0  0  0  0  0  0
    8.1562  -15.8538   24.8350 C   0  0  0  0  0  0  0  0  0  0  0  0
    8.0931  -16.9390   25.4897 O   0  0  0  0  0  0  0  0  0  0  0  0
   12.0698  -19.0927   20.0234 N   0  0  0  0  0  0  0  0  0  0  0  0
   12.2747  -17.8982   20.7694 C   0  0  0  0  0  0  0  0  0  0  0  0
   12.7203  -16.9156   20.1235 O   0  0  0  0  0  0  0  0  0  0  0  0
   11.9724  -17.8321   22.2352 C   0  0  0  0  0  0  0  0  0  0  0  0
   10.9828  -16.7337   22.4246 C   0  0  0  0  0  0  0  0  0  0  0  0
   10.1104  -16.9181   23.6631 C   0  0  2  0  0  0  0  0  0  0  0  0
    9.1890  -15.8407   23.8339 N   0  0  0  0  0  0  0  0  0  0  0  0
   11.0655  -17.0816   24.8035 C   0  0  0  0  0  0  0  0  0  0  0  0
   11.7530  -16.0853   25.2053 O   0  0  0  0  0  0  0  0  0  0  0  0
   11.9670  -21.9375   31.6906 N   0  0  0  0  0  0  0  0  0  0  0  0
   13.1746  -21.1849   31.4621 C   0  0  0  0  0  0  0  0  0  0  0  0
   14.3021  -21.7719   31.5649 N   0  0  0  0  0  0  0  0  0  0  0  0
   13.0882  -19.8092   31.1276 N   0  0  0  0  0  0  0  0  0  0  0  0
   12.1506  -19.3738   30.1286 C   0  0  0  0  0  0  0  0  0  0  0  0
   12.5369  -19.7673   28.7662 C   0  0  0  0  0  0  0  0  0  0  0  0
   11.8090  -19.4508   27.5543 C   0  0  0  0  0  0  0  0  0  0  0  0
   12.2636  -18.5573   26.5130 C   0  0  2  0  0  0  0  0  0  0  0  0
   11.2518  -18.3004   25.4726 N   0  0  0  0  0  0  0  0  0  0  0  0
   13.6042  -18.5702   25.9677 C   0  0  0  0  0  0  0  0  0  0  0  0
   14.7872  -18.0404   26.3430 O   0  0  0  0  0  0  0  0  0  0  0  0
   13.7056  -19.2632   24.8476 O   0  0  0  0  0  0  0  0  0  0  0  0
  2  1  1  6
  2  4  1  0
  3  2  1  0
  4  5  1  0
  5  6  1  1
  5  7  1  0
  7  8  2  0
  7 15  1  0
 10 12  1  0
 10  9  1  0
 11 10  2  0
 14 13  1  6
 13 12  1  0
 14 16  1  0
 15 14  1  0
 16 26  1  0
 16 17  2  0
 19 18  1  0
 20 19  2  0
 21 19  1  0
 21 22  1  0
 22 23  1  0
 23 24  1  0
 25 24  1  6
 25 27  1  0
 26 25  1  0
 27 28  1  0
 29 27  2  0
M  END
$$$$
