LQR.pdb
     RDKit          3D

 29 28  0  0  1  0  0  0  0  0999 V2000
    8.8925  -11.9157   19.7149 C   0  0  0  0  0  0  0  0  0  0  0  0
    8.0505  -13.1813   19.4552 C   0  0  2  0  0  0  0  0  0  0  0  0
    6.5938  -12.8021   19.5309 C   0  0  0  0  0  0  0  0  0  0  0  0
    8.4188  -14.2550   20.4466 C   0  0  0  0  0  0  0  0  0  0  0  0
    9.8469  -14.5270   20.5226 C   0  0  2  0  0  0  0  0  0  0  0  0
   10.4816  -14.0816   19.2694 N   0  0  0  0  0  0  0  0  0  0  0  0
   10.3677  -15.8109   20.8883 C   0  0  0  0  0  0  0  0  0  0  0  0
    9.8116  -16.4589   21.8268 O   0  0  0  0  0  0  0  0  0  0  0  0
   15.4584  -21.1760   19.6175 N   0  0  0  0  0  0  0  0  0  0  0  0
   14.5151  -20.1525   19.3211 C   0  0  0  0  0  0  0  0  0  0  0  0
   14.5458  -19.6985   18.1489 O   0  0  0  0  0  0  0  0  0  0  0  0
   13.5504  -19.6574   20.3548 C   0  0  0  0  0  0  0  0  0  0  0  0
   13.0347  -18.3446   19.8729 C   0  0  0  0  0  0  0  0  0  0  0  0
   11.9810  -17.7379   20.7952 C   0  0  2  0  0  0  0  0  0  0  0  0
   11.4897  -16.4921   20.2999 N   0  0  0  0  0  0  0  0  0  0  0  0
   12.6353  -17.6377   22.1374 C   0  0  0  0  0  0  0  0  0  0  0  0
   13.4046  -16.6544   22.3982 O   0  0  0  0  0  0  0  0  0  0  0  0
   10.8969  -21.2489   30.2399 N   0  0  0  0  0  0  0  0  0  0  0  0
   12.1888  -20.6212   30.3567 C   0  0  0  0  0  0  0  0  0  0  0  0
   12.7627  -20.5861   31.4951 N   0  0  0  0  0  0  0  0  0  0  0  0
   12.7977  -20.0554   29.2073 N   0  0  0  0  0  0  0  0  0  0  0  0
   12.0753  -20.0092   27.9652 C   0  0  0  0  0  0  0  0  0  0  0  0
   12.8492  -19.4050   26.8715 C   0  0  0  0  0  0  0  0  0  0  0  0
   12.3955  -19.2343   25.5062 C   0  0  0  0  0  0  0  0  0  0  0  0
   13.1525  -18.6126   24.4433 C   0  0  2  0  0  0  0  0  0  0  0  0
   12.4450  -18.5889   23.1507 N   0  0  0  0  0  0  0  0  0  0  0  0
   14.5809  -18.7704   24.2716 C   0  0  0  0  0  0  0  0  0  0  0  0
   15.3645  -19.5793   23.5280 O   0  0  0  0  0  0  0  0  0  0  0  0
   15.2907  -17.9286   25.0015 O   0  0  0  0  0  0  0  0  0  0  0  0
  2  1  1  1
  2  4  1  0
  3  2  1  0
  4  5  1  0
  5  6  1  6
  5  7  1  0
  7  8  2  0
  7 15  1  0
 10 12  1  0
 10  9  1  0
 11 10  2  0
 14 13  1  6
 13 12  1  0
 14 16  1  0
 15 14  1  0
 16 26  1  0
 16 17  2  0
 19 18  1  0
 20 19  2  0
 21 19  1  0
 21 22  1  0
 22 23  1  0
 23 24  1  0
 25 24  1  1
 25 27  1  0
 26 25  1  0
 27 28  1  0
 29 27  2  0
M  END
$$$$
