LQR.pdb
     RDKit          3D

 29 28  0  0  1  0  0  0  0  0999 V2000
    8.2620  -13.6741   18.0836 C   0  0  0  0  0  0  0  0  0  0  0  0
    7.5474  -13.2654   19.3876 C   0  0  2  0  0  0  0  0  0  0  0  0
    6.9610  -11.8908   19.1930 C   0  0  0  0  0  0  0  0  0  0  0  0
    8.5148  -13.3211   20.5420 C   0  0  0  0  0  0  0  0  0  0  0  0
    9.0640  -14.6461   20.7916 C   0  0  2  0  0  0  0  0  0  0  0  0
    7.9857  -15.6405   20.6505 N   0  0  0  0  0  0  0  0  0  0  0  0
    9.8409  -14.9504   21.9566 C   0  0  0  0  0  0  0  0  0  0  0  0
   10.8290  -14.2108   22.2511 O   0  0  0  0  0  0  0  0  0  0  0  0
    9.5049  -18.9196   27.4692 N   0  0  0  0  0  0  0  0  0  0  0  0
    8.6562  -18.0789   26.6958 C   0  0  0  0  0  0  0  0  0  0  0  0
    7.4368  -18.3856   26.6879 O   0  0  0  0  0  0  0  0  0  0  0  0
    9.1989  -16.9031   25.9426 C   0  0  0  0  0  0  0  0  0  0  0  0
   10.0410  -17.4463   24.8393 C   0  0  0  0  0  0  0  0  0  0  0  0
   10.5733  -16.3658   23.9021 C   0  0  2  0  0  0  0  0  0  0  0  0
    9.6341  -16.0347   22.8788 N   0  0  0  0  0  0  0  0  0  0  0  0
   11.8724  -16.8945   23.3804 C   0  0  0  0  0  0  0  0  0  0  0  0
   11.8842  -17.9264   22.6308 O   0  0  0  0  0  0  0  0  0  0  0  0
   17.3900  -13.2610   19.6827 N   0  0  0  0  0  0  0  0  0  0  0  0
   16.9210  -13.7107   18.3963 C   0  0  0  0  0  0  0  0  0  0  0  0
   17.5427  -13.3445   17.3448 N   0  0  0  0  0  0  0  0  0  0  0  0
   15.7799  -14.5501   18.3226 N   0  0  0  0  0  0  0  0  0  0  0  0
   14.7363  -14.4257   19.3034 C   0  0  0  0  0  0  0  0  0  0  0  0
   14.9410  -15.2900   20.4744 C   0  0  0  0  0  0  0  0  0  0  0  0
   14.0537  -15.3960   21.6147 C   0  0  0  0  0  0  0  0  0  0  0  0
   14.2670  -16.2429   22.7665 C   0  0  2  0  0  0  0  0  0  0  0  0
   13.1096  -16.3036   23.6769 N   0  0  0  0  0  0  0  0  0  0  0  0
   15.5209  -16.3272   23.4845 C   0  0  0  0  0  0  0  0  0  0  0  0
   16.7860  -16.6575   23.1508 O   0  0  0  0  0  0  0  0  0  0  0  0
   15.4149  -16.0011   24.7603 O   0  0  0  0  0  0  0  0  0  0  0  0
  2  1  1  6
  2  4  1  0
  3  2  1  0
  4  5  1  0
  5  6  1  1
  5  7  1  0
  7  8  2  0
  7 15  1  0
 10 12  1  0
 10  9  1  0
 11 10  2  0
 14 13  1  1
 13 12  1  0
 14 16  1  0
 15 14  1  0
 16 26  1  0
 16 17  2  0
 19 18  1  0
 20 19  2  0
 21 19  1  0
 21 22  1  0
 22 23  1  0
 23 24  1  0
 25 24  1  1
 25 27  1  0
 26 25  1  0
 27 28  1  0
 29 27  2  0
M  END
$$$$
