LQR.pdb
     RDKit          3D

 29 28  0  0  1  0  0  0  0  0999 V2000
    7.4210  -12.7776   19.6284 C   0  0  0  0  0  0  0  0  0  0  0  0
    7.5112  -13.9528   18.6340 C   0  0  2  0  0  0  0  0  0  0  0  0
    6.2269  -14.7375   18.7137 C   0  0  0  0  0  0  0  0  0  0  0  0
    8.7216  -14.7955   18.9439 C   0  0  0  0  0  0  0  0  0  0  0  0
    9.9184  -14.0245   19.2486 C   0  0  2  0  0  0  0  0  0  0  0  0
   10.0904  -12.9882   18.2152 N   0  0  0  0  0  0  0  0  0  0  0  0
   11.1836  -14.6412   19.5177 C   0  0  0  0  0  0  0  0  0  0  0  0
   11.2211  -15.6877   20.2343 O   0  0  0  0  0  0  0  0  0  0  0  0
   17.3790  -13.9065   17.3597 N   0  0  0  0  0  0  0  0  0  0  0  0
   16.1328  -13.9549   16.6743 C   0  0  0  0  0  0  0  0  0  0  0  0
   16.0969  -13.3802   15.5565 O   0  0  0  0  0  0  0  0  0  0  0  0
   14.9451  -14.6527   17.2631 C   0  0  0  0  0  0  0  0  0  0  0  0
   14.8990  -14.2864   18.7071 C   0  0  0  0  0  0  0  0  0  0  0  0
   13.6874  -14.8624   19.4346 C   0  0  2  0  0  0  0  0  0  0  0  0
   12.4756  -14.2081   19.0572 N   0  0  0  0  0  0  0  0  0  0  0  0
   14.0057  -14.7486   20.8924 C   0  0  0  0  0  0  0  0  0  0  0  0
   13.1777  -14.1850   21.6822 O   0  0  0  0  0  0  0  0  0  0  0  0
   11.2129  -18.6559   26.0329 N   0  0  0  0  0  0  0  0  0  0  0  0
   12.3045  -19.5968   26.0159 C   0  0  0  0  0  0  0  0  0  0  0  0
   12.7395  -20.0647   27.1195 N   0  0  0  0  0  0  0  0  0  0  0  0
   12.8738  -19.9847   24.7760 N   0  0  0  0  0  0  0  0  0  0  0  0
   12.8155  -19.0907   23.6517 C   0  0  0  0  0  0  0  0  0  0  0  0
   13.9499  -18.1577   23.5987 C   0  0  0  0  0  0  0  0  0  0  0  0
   14.1709  -17.1494   22.5822 C   0  0  0  0  0  0  0  0  0  0  0  0
   15.2787  -16.2215   22.5493 C   0  0  2  0  0  0  0  0  0  0  0  0
   15.1939  -15.2396   21.4535 N   0  0  0  0  0  0  0  0  0  0  0  0
   16.6486  -16.5905   22.8357 C   0  0  0  0  0  0  0  0  0  0  0  0
   17.5618  -17.3867   22.2414 O   0  0  0  0  0  0  0  0  0  0  0  0
   17.1274  -16.0156   23.9245 O   0  0  0  0  0  0  0  0  0  0  0  0
  2  1  1  1
  2  4  1  0
  3  2  1  0
  4  5  1  0
  5  6  1  6
  5  7  1  0
  7  8  2  0
  7 15  1  0
 10 12  1  0
 10  9  1  0
 11 10  2  0
 14 13  1  6
 13 12  1  0
 14 16  1  0
 15 14  1  0
 16 26  1  0
 16 17  2  0
 19 18  1  0
 20 19  2  0
 21 19  1  0
 21 22  1  0
 22 23  1  0
 23 24  1  0
 25 24  1  6
 25 27  1  0
 26 25  1  0
 27 28  1  0
 29 27  2  0
M  END
$$$$
