LQR.pdb
     RDKit          3D

 29 28  0  0  1  0  0  0  0  0999 V2000
    6.8463  -15.6746   16.5299 C   0  0  0  0  0  0  0  0  0  0  0  0
    8.2258  -15.0745   16.1910 C   0  0  2  0  0  0  0  0  0  0  0  0
    8.9576  -16.0472   15.3023 C   0  0  0  0  0  0  0  0  0  0  0  0
    8.9804  -14.7737   17.4604 C   0  0  0  0  0  0  0  0  0  0  0  0
    8.2583  -13.9177   18.3906 C   0  0  2  0  0  0  0  0  0  0  0  0
    8.3323  -12.5267   17.9097 N   0  0  0  0  0  0  0  0  0  0  0  0
    8.4945  -13.9446   19.8037 C   0  0  0  0  0  0  0  0  0  0  0  0
    9.5246  -13.3684   20.2692 O   0  0  0  0  0  0  0  0  0  0  0  0
    6.7407  -17.5848   23.9775 N   0  0  0  0  0  0  0  0  0  0  0  0
    7.0784  -16.5814   24.9284 C   0  0  0  0  0  0  0  0  0  0  0  0
    7.1966  -16.9689   26.1188 O   0  0  0  0  0  0  0  0  0  0  0  0
    7.2779  -15.1541   24.5192 C   0  0  0  0  0  0  0  0  0  0  0  0
    6.9008  -15.0590   23.0803 C   0  0  0  0  0  0  0  0  0  0  0  0
    8.0602  -14.6370   22.1821 C   0  0  2  0  0  0  0  0  0  0  0  0
    7.6754  -14.5675   20.8088 N   0  0  0  0  0  0  0  0  0  0  0  0
    9.1540  -15.6218   22.4529 C   0  0  0  0  0  0  0  0  0  0  0  0
    9.0579  -16.8157   22.0147 O   0  0  0  0  0  0  0  0  0  0  0  0
   14.3876  -14.9529   17.6802 N   0  0  0  0  0  0  0  0  0  0  0  0
   15.1961  -14.5722   18.8108 C   0  0  0  0  0  0  0  0  0  0  0  0
   16.3623  -14.0969   18.6097 N   0  0  0  0  0  0  0  0  0  0  0  0
   14.6822  -14.7321   20.1232 N   0  0  0  0  0  0  0  0  0  0  0  0
   14.1763  -16.0108   20.5420 C   0  0  0  0  0  0  0  0  0  0  0  0
   12.8672  -15.9230   21.2045 C   0  0  0  0  0  0  0  0  0  0  0  0
   12.6469  -15.7334   22.6238 C   0  0  0  0  0  0  0  0  0  0  0  0
   11.4811  -16.1726   23.3567 C   0  0  2  0  0  0  0  0  0  0  0  0
   10.3087  -15.2971   23.1803 N   0  0  0  0  0  0  0  0  0  0  0  0
   11.5315  -16.7421   24.6863 C   0  0  0  0  0  0  0  0  0  0  0  0
   10.7907  -16.6069   25.8062 O   0  0  0  0  0  0  0  0  0  0  0  0
   12.5241  -17.5983   24.8502 O   0  0  0  0  0  0  0  0  0  0  0  0
  2  1  1  1
  2  4  1  0
  3  2  1  0
  4  5  1  0
  5  6  1  6
  5  7  1  0
  7  8  2  0
  7 15  1  0
 10 12  1  0
 10  9  1  0
 11 10  2  0
 14 13  1  1
 13 12  1  0
 14 16  1  0
 15 14  1  0
 16 26  1  0
 16 17  2  0
 19 18  1  0
 20 19  2  0
 21 19  1  0
 21 22  1  0
 22 23  1  0
 23 24  1  0
 25 24  1  1
 25 27  1  0
 26 25  1  0
 27 28  1  0
 29 27  2  0
M  END
$$$$
