LQR.pdb
     RDKit          3D

 29 28  0  0  1  0  0  0  0  0999 V2000
    5.2516  -11.4620   25.8482 C   0  0  0  0  0  0  0  0  0  0  0  0
    6.1021  -12.1802   26.9155 C   0  0  2  0  0  0  0  0  0  0  0  0
    6.8258  -11.1343   27.7240 C   0  0  0  0  0  0  0  0  0  0  0  0
    7.0454  -13.1506   26.2522 C   0  0  0  0  0  0  0  0  0  0  0  0
    6.3841  -14.1447   25.4192 C   0  0  2  0  0  0  0  0  0  0  0  0
    5.8180  -15.1910   26.2888 N   0  0  0  0  0  0  0  0  0  0  0  0
    7.0273  -14.7582   24.2953 C   0  0  0  0  0  0  0  0  0  0  0  0
    7.6070  -15.8764   24.4495 O   0  0  0  0  0  0  0  0  0  0  0  0
    7.5845  -12.7304   18.3418 N   0  0  0  0  0  0  0  0  0  0  0  0
    8.3506  -13.9290   18.3017 C   0  0  0  0  0  0  0  0  0  0  0  0
    8.7249  -14.3049   17.1617 O   0  0  0  0  0  0  0  0  0  0  0  0
    8.6825  -14.6852   19.5517 C   0  0  0  0  0  0  0  0  0  0  0  0
    7.9568  -14.0161   20.6685 C   0  0  0  0  0  0  0  0  0  0  0  0
    7.8977  -14.8610   21.9380 C   0  0  2  0  0  0  0  0  0  0  0  0
    7.1021  -14.2476   22.9527 N   0  0  0  0  0  0  0  0  0  0  0  0
    9.3229  -15.0796   22.3388 C   0  0  0  0  0  0  0  0  0  0  0  0
    9.9729  -14.1442   22.9127 O   0  0  0  0  0  0  0  0  0  0  0  0
   13.3782  -22.2452   26.0494 N   0  0  0  0  0  0  0  0  0  0  0  0
   12.6262  -21.2836   26.8153 C   0  0  0  0  0  0  0  0  0  0  0  0
   11.9551  -21.6802   27.8246 N   0  0  0  0  0  0  0  0  0  0  0  0
   12.6458  -19.9174   26.4346 N   0  0  0  0  0  0  0  0  0  0  0  0
   11.4773  -19.3226   25.8451 C   0  0  0  0  0  0  0  0  0  0  0  0
   11.7968  -18.3318   24.8076 C   0  0  0  0  0  0  0  0  0  0  0  0
   10.8540  -17.7454   23.8770 C   0  0  0  0  0  0  0  0  0  0  0  0
   11.1745  -16.7607   22.8685 C   0  0  2  0  0  0  0  0  0  0  0  0
   10.0014  -16.2864   22.1129 N   0  0  0  0  0  0  0  0  0  0  0  0
   12.3622  -16.8090   22.0428 C   0  0  0  0  0  0  0  0  0  0  0  0
   13.6825  -16.6430   22.2675 O   0  0  0  0  0  0  0  0  0  0  0  0
   12.1068  -17.0852   20.7764 O   0  0  0  0  0  0  0  0  0  0  0  0
  2  1  1  6
  2  4  1  0
  3  2  1  0
  4  5  1  0
  5  6  1  1
  5  7  1  0
  7  8  2  0
  7 15  1  0
 10 12  1  0
 10  9  1  0
 11 10  2  0
 14 13  1  6
 13 12  1  0
 14 16  1  0
 15 14  1  0
 16 26  1  0
 16 17  2  0
 19 18  1  0
 20 19  2  0
 21 19  1  0
 21 22  1  0
 22 23  1  0
 23 24  1  0
 25 24  1  6
 25 27  1  0
 26 25  1  0
 27 28  1  0
 29 27  2  0
M  END
$$$$
