LQR.pdb
     RDKit          3D

 29 28  0  0  1  0  0  0  0  0999 V2000
    9.0474  -12.4484   26.3994 C   0  0  0  0  0  0  0  0  0  0  0  0
    7.5189  -12.4020   26.1999 C   0  0  2  0  0  0  0  0  0  0  0  0
    6.9426  -11.4304   27.1974 C   0  0  0  0  0  0  0  0  0  0  0  0
    6.9404  -13.7863   26.3432 C   0  0  0  0  0  0  0  0  0  0  0  0
    7.6282  -14.8004   25.5572 C   0  0  2  0  0  0  0  0  0  0  0  0
    9.0816  -14.5907   25.6806 N   0  0  0  0  0  0  0  0  0  0  0  0
    7.3014  -15.0655   24.1875 C   0  0  0  0  0  0  0  0  0  0  0  0
    6.1806  -15.5919   23.9102 O   0  0  0  0  0  0  0  0  0  0  0  0
    8.6504  -13.6944   16.9849 N   0  0  0  0  0  0  0  0  0  0  0  0
    8.5606  -13.4760   18.3882 C   0  0  0  0  0  0  0  0  0  0  0  0
    9.1184  -12.4351   18.8200 O   0  0  0  0  0  0  0  0  0  0  0  0
    7.8409  -14.4381   19.2832 C   0  0  0  0  0  0  0  0  0  0  0  0
    8.2979  -14.1606   20.6745 C   0  0  0  0  0  0  0  0  0  0  0  0
    7.6996  -15.1144   21.7047 C   0  0  2  0  0  0  0  0  0  0  0  0
    8.1166  -14.7974   23.0331 N   0  0  0  0  0  0  0  0  0  0  0  0
    8.0986  -16.4858   21.2582 C   0  0  0  0  0  0  0  0  0  0  0  0
    7.6934  -16.9319   20.1341 O   0  0  0  0  0  0  0  0  0  0  0  0
   13.2105  -14.8846   17.7166 N   0  0  0  0  0  0  0  0  0  0  0  0
   14.0960  -14.5334   18.7981 C   0  0  0  0  0  0  0  0  0  0  0  0
   14.8353  -13.5004   18.6861 N   0  0  0  0  0  0  0  0  0  0  0  0
   14.1293  -15.3401   19.9644 N   0  0  0  0  0  0  0  0  0  0  0  0
   13.2829  -16.4984   20.0569 C   0  0  0  0  0  0  0  0  0  0  0  0
   11.8752  -16.1634   20.3145 C   0  0  0  0  0  0  0  0  0  0  0  0
   10.7950  -17.1141   20.4822 C   0  0  0  0  0  0  0  0  0  0  0  0
   10.3282  -17.6375   21.7461 C   0  0  2  0  0  0  0  0  0  0  0  0
    8.9143  -17.3299   22.0263 N   0  0  0  0  0  0  0  0  0  0  0  0
   11.1241  -17.6560   22.9548 C   0  0  0  0  0  0  0  0  0  0  0  0
   12.1895  -18.3671   23.3796 O   0  0  0  0  0  0  0  0  0  0  0  0
   10.7292  -16.7721   23.8536 O   0  0  0  0  0  0  0  0  0  0  0  0
  2  1  1  1
  2  4  1  0
  3  2  1  0
  4  5  1  0
  5  6  1  6
  5  7  1  0
  7  8  2  0
  7 15  1  0
 10 12  1  0
 10  9  1  0
 11 10  2  0
 14 13  1  6
 13 12  1  0
 14 16  1  0
 15 14  1  0
 16 26  1  0
 16 17  2  0
 19 18  1  0
 20 19  2  0
 21 19  1  0
 21 22  1  0
 22 23  1  0
 23 24  1  0
 25 24  1  6
 25 27  1  0
 26 25  1  0
 27 28  1  0
 29 27  2  0
M  END
$$$$
