LQR.pdb
     RDKit          3D

 29 28  0  0  1  0  0  0  0  0999 V2000
    6.7964  -13.0235   19.4058 C   0  0  0  0  0  0  0  0  0  0  0  0
    8.0060  -12.7798   20.3309 C   0  0  2  0  0  0  0  0  0  0  0  0
    8.6083  -11.4443   19.9774 C   0  0  0  0  0  0  0  0  0  0  0  0
    8.9923  -13.9111   20.1946 C   0  0  0  0  0  0  0  0  0  0  0  0
    8.4792  -15.2010   20.6331 C   0  0  2  0  0  0  0  0  0  0  0  0
    8.1918  -15.1308   22.0767 N   0  0  0  0  0  0  0  0  0  0  0  0
    9.1471  -16.4347   20.3414 C   0  0  0  0  0  0  0  0  0  0  0  0
   10.1249  -16.7944   21.0658 O   0  0  0  0  0  0  0  0  0  0  0  0
    7.9340  -20.9145   16.0303 N   0  0  0  0  0  0  0  0  0  0  0  0
    9.3031  -21.1710   16.3217 C   0  0  0  0  0  0  0  0  0  0  0  0
    9.8277  -22.1298   15.7000 O   0  0  0  0  0  0  0  0  0  0  0  0
   10.0592  -20.3392   17.3121 C   0  0  0  0  0  0  0  0  0  0  0  0
    9.1155  -19.3019   17.8170 C   0  0  0  0  0  0  0  0  0  0  0  0
    9.7259  -18.4065   18.8916 C   0  0  2  0  0  0  0  0  0  0  0  0
    8.8363  -17.3616   19.2863 N   0  0  0  0  0  0  0  0  0  0  0  0
   11.0164  -17.9145   18.3154 C   0  0  0  0  0  0  0  0  0  0  0  0
   11.0320  -16.8589   17.5997 O   0  0  0  0  0  0  0  0  0  0  0  0
   16.6295  -14.3732   20.6314 N   0  0  0  0  0  0  0  0  0  0  0  0
   17.1952  -13.9679   19.3694 C   0  0  0  0  0  0  0  0  0  0  0  0
   18.4132  -13.5925   19.3256 N   0  0  0  0  0  0  0  0  0  0  0  0
   16.3901  -13.9939   18.2018 N   0  0  0  0  0  0  0  0  0  0  0  0
   15.0207  -14.4227   18.2871 C   0  0  0  0  0  0  0  0  0  0  0  0
   14.8788  -15.8025   18.7731 C   0  0  0  0  0  0  0  0  0  0  0  0
   13.6645  -16.5920   18.7396 C   0  0  0  0  0  0  0  0  0  0  0  0
   13.5723  -17.9694   18.3114 C   0  0  2  0  0  0  0  0  0  0  0  0
   12.2413  -18.5656   18.5239 N   0  0  0  0  0  0  0  0  0  0  0  0
   14.6307  -18.9410   18.4863 C   0  0  0  0  0  0  0  0  0  0  0  0
   15.9094  -19.0383   18.0662 O   0  0  0  0  0  0  0  0  0  0  0  0
   14.2757  -19.9711   19.2333 O   0  0  0  0  0  0  0  0  0  0  0  0
  2  1  1  6
  2  4  1  0
  3  2  1  0
  4  5  1  0
  5  6  1  1
  5  7  1  0
  7  8  2  0
  7 15  1  0
 10 12  1  0
 10  9  1  0
 11 10  2  0
 14 13  1  6
 13 12  1  0
 14 16  1  0
 15 14  1  0
 16 26  1  0
 16 17  2  0
 19 18  1  0
 20 19  2  0
 21 19  1  0
 21 22  1  0
 22 23  1  0
 23 24  1  0
 25 24  1  1
 25 27  1  0
 26 25  1  0
 27 28  1  0
 29 27  2  0
M  END
$$$$
