VEQ.pdb
     RDKit          3D

 26 25  0  0  1  0  0  0  0  0999 V2000
   23.5938  -15.3380  -16.7528 C   0  0  0  0  0  0  0  0  0  0  0  0
   23.5688  -13.8618  -16.4405 C   0  0  1  0  0  0  0  0  0  0  0  0
   23.7534  -13.7143  -14.9271 C   0  0  0  0  0  0  0  0  0  0  0  0
   24.6614  -13.0892  -17.1238 C   0  0  2  0  0  0  0  0  0  0  0  0
   25.9212  -13.6848  -16.6939 N   0  0  0  0  0  0  0  0  0  0  0  0
   24.6506  -11.6800  -16.6498 C   0  0  0  0  0  0  0  0  0  0  0  0
   25.6713  -11.1603  -16.0901 O   0  0  0  0  0  0  0  0  0  0  0  0
   23.5245  -10.8494  -16.7908 N   0  0  0  0  0  0  0  0  0  0  0  0
   23.5611   -9.4172  -16.4216 C   0  0  1  0  0  0  0  0  0  0  0  0
   24.6646   -8.8199  -17.2624 C   0  0  0  0  0  0  0  0  0  0  0  0
   24.8439   -7.3624  -17.1047 C   0  0  0  0  0  0  0  0  0  0  0  0
   25.9343   -6.7753  -17.9000 C   0  0  0  0  0  0  0  0  0  0  0  0
   25.8364   -6.5812  -19.1315 O   0  0  0  0  0  0  0  0  0  0  0  0
   22.2283   -8.8220  -16.6877 C   0  0  0  0  0  0  0  0  0  0  0  0
   21.6642   -9.1401  -17.7840 O   0  0  0  0  0  0  0  0  0  0  0  0
   27.1308   -6.4098  -17.3019 O   0  0  0  0  0  0  0  0  0  0  0  0
   18.9117  -12.1310  -14.9857 N   0  0  0  0  0  0  0  0  0  0  0  0
   17.9314  -11.0924  -14.9276 C   0  0  0  0  0  0  0  0  0  0  0  0
   16.7614  -11.4837  -14.6676 O   0  0  0  0  0  0  0  0  0  0  0  0
   18.2844   -9.6840  -15.1572 C   0  0  0  0  0  0  0  0  0  0  0  0
   19.7029   -9.4186  -15.4967 C   0  0  0  0  0  0  0  0  0  0  0  0
   20.0947   -8.0210  -15.7491 C   0  0  2  0  0  0  0  0  0  0  0  0
   21.5623   -7.9426  -15.8079 N   0  0  0  0  0  0  0  0  0  0  0  0
   19.5683   -7.0055  -14.8411 C   0  0  0  0  0  0  0  0  0  0  0  0
   18.2675   -6.5374  -14.8526 O   0  0  0  0  0  0  0  0  0  0  0  0
   20.3250   -6.4989  -13.9739 O   0  0  0  0  0  0  0  0  0  0  0  0
  2  4  1  0
  2  1  1  1
  3  2  1  0
  4  6  1  0
  4  5  1  1
  6  7  2  0
  8  9  1  0
  8  6  1  0
  9 10  1  6
 11 10  1  0
 12 11  1  0
 12 13  2  0
 14 23  1  0
 14  9  1  0
 15 14  2  0
 16 12  1  0
 17 18  1  0
 18 19  2  0
 18 20  1  0
 20 21  1  0
 22 21  1  1
 22 23  1  0
 22 24  1  0
 24 25  1  0
 26 24  2  0
M  END
$$$$
