VEQ.pdb
     RDKit          3D

 26 25  0  0  1  0  0  0  0  0999 V2000
   19.9965  -14.3550  -18.4698 C   0  0  0  0  0  0  0  0  0  0  0  0
   19.5755  -12.9185  -18.2793 C   0  0  1  0  0  0  0  0  0  0  0  0
   18.3401  -12.9234  -17.3736 C   0  0  0  0  0  0  0  0  0  0  0  0
   20.6306  -12.0691  -17.6288 C   0  0  2  0  0  0  0  0  0  0  0  0
   20.9787  -12.7284  -16.3756 N   0  0  0  0  0  0  0  0  0  0  0  0
   20.0628  -10.7378  -17.2886 C   0  0  0  0  0  0  0  0  0  0  0  0
   19.7359   -9.9043  -18.1961 O   0  0  0  0  0  0  0  0  0  0  0  0
   19.8566  -10.3272  -15.9594 N   0  0  0  0  0  0  0  0  0  0  0  0
   19.2570   -9.0147  -15.6330 C   0  0  1  0  0  0  0  0  0  0  0  0
   18.2057   -9.3086  -14.5890 C   0  0  0  0  0  0  0  0  0  0  0  0
   16.8308   -9.4362  -15.1131 C   0  0  0  0  0  0  0  0  0  0  0  0
   15.7930   -9.6786  -14.0980 C   0  0  0  0  0  0  0  0  0  0  0  0
   15.5961   -8.8981  -13.1410 O   0  0  0  0  0  0  0  0  0  0  0  0
   20.3282   -8.1072  -15.1528 C   0  0  0  0  0  0  0  0  0  0  0  0
   21.2367   -8.6234  -14.4251 O   0  0  0  0  0  0  0  0  0  0  0  0
   14.9819  -10.8012  -14.1672 O   0  0  0  0  0  0  0  0  0  0  0  0
   22.7205   -3.1021  -18.0368 N   0  0  0  0  0  0  0  0  0  0  0  0
   23.4308   -3.1401  -16.7971 C   0  0  0  0  0  0  0  0  0  0  0  0
   24.3239   -2.2589  -16.6722 O   0  0  0  0  0  0  0  0  0  0  0  0
   23.1257   -4.1393  -15.7629 C   0  0  0  0  0  0  0  0  0  0  0  0
   21.9901   -5.0470  -16.0538 C   0  0  0  0  0  0  0  0  0  0  0  0
   21.5836   -5.9918  -14.9990 C   0  0  2  0  0  0  0  0  0  0  0  0
   20.3966   -6.7308  -15.4554 N   0  0  0  0  0  0  0  0  0  0  0  0
   21.3588   -5.4454  -13.6635 C   0  0  0  0  0  0  0  0  0  0  0  0
   22.3096   -5.4004  -12.6610 O   0  0  0  0  0  0  0  0  0  0  0  0
   20.2307   -4.9735  -13.3700 O   0  0  0  0  0  0  0  0  0  0  0  0
  2  4  1  0
  2  1  1  1
  3  2  1  0
  4  6  1  0
  4  5  1  1
  6  7  2  0
  8  9  1  0
  8  6  1  0
  9 10  1  1
 11 10  1  0
 12 11  1  0
 12 13  2  0
 14 23  1  0
 14  9  1  0
 15 14  2  0
 16 12  1  0
 17 18  1  0
 18 19  2  0
 18 20  1  0
 20 21  1  0
 22 21  1  6
 22 23  1  0
 22 24  1  0
 24 25  1  0
 26 24  2  0
M  END
$$$$
