VEQ.pdb
     RDKit          3D

 26 25  0  0  1  0  0  0  0  0999 V2000
   25.1126  -12.1234  -18.0971 C   0  0  0  0  0  0  0  0  0  0  0  0
   24.4428  -10.9687  -17.3933 C   0  0  1  0  0  0  0  0  0  0  0  0
   23.6436  -11.5514  -16.2235 C   0  0  0  0  0  0  0  0  0  0  0  0
   25.4130   -9.9619  -16.8431 C   0  0  2  0  0  0  0  0  0  0  0  0
   26.2504  -10.6742  -15.8850 N   0  0  0  0  0  0  0  0  0  0  0  0
   24.6743   -8.9114  -16.0939 C   0  0  0  0  0  0  0  0  0  0  0  0
   24.2290   -9.1237  -14.9184 O   0  0  0  0  0  0  0  0  0  0  0  0
   24.4275   -7.6369  -16.6349 N   0  0  0  0  0  0  0  0  0  0  0  0
   23.5810   -6.6444  -15.9370 C   0  0  1  0  0  0  0  0  0  0  0  0
   23.9645   -5.3098  -16.5313 C   0  0  0  0  0  0  0  0  0  0  0  0
   23.1200   -4.1759  -16.1043 C   0  0  0  0  0  0  0  0  0  0  0  0
   23.4920   -2.8692  -16.6703 C   0  0  0  0  0  0  0  0  0  0  0  0
   24.0242   -1.9687  -15.9850 O   0  0  0  0  0  0  0  0  0  0  0  0
   22.1561   -6.9983  -16.1512 C   0  0  0  0  0  0  0  0  0  0  0  0
   21.8182   -7.3374  -17.3311 O   0  0  0  0  0  0  0  0  0  0  0  0
   23.2615   -2.5841  -18.0077 O   0  0  0  0  0  0  0  0  0  0  0  0
   18.7708  -11.3356  -14.3861 N   0  0  0  0  0  0  0  0  0  0  0  0
   17.7542  -10.4751  -14.9048 C   0  0  0  0  0  0  0  0  0  0  0  0
   16.6194  -11.0109  -15.0265 O   0  0  0  0  0  0  0  0  0  0  0  0
   18.0345   -9.0770  -15.2620 C   0  0  0  0  0  0  0  0  0  0  0  0
   19.4321   -8.6246  -15.0613 C   0  0  0  0  0  0  0  0  0  0  0  0
   19.7867   -7.2739  -15.5309 C   0  0  2  0  0  0  0  0  0  0  0  0
   21.1742   -6.9839  -15.1381 N   0  0  0  0  0  0  0  0  0  0  0  0
   18.9075   -6.1771  -15.1352 C   0  0  0  0  0  0  0  0  0  0  0  0
   19.2954   -5.0951  -14.3672 O   0  0  0  0  0  0  0  0  0  0  0  0
   17.7047   -6.1852  -15.5020 O   0  0  0  0  0  0  0  0  0  0  0  0
  2  4  1  0
  2  1  1  1
  3  2  1  0
  4  6  1  0
  4  5  1  1
  6  7  2  0
  8  9  1  0
  8  6  1  0
  9 10  1  6
 11 10  1  0
 12 11  1  0
 12 13  2  0
 14 23  1  0
 14  9  1  0
 15 14  2  0
 16 12  1  0
 17 18  1  0
 18 19  2  0
 18 20  1  0
 20 21  1  0
 22 21  1  1
 22 23  1  0
 22 24  1  0
 24 25  1  0
 26 24  2  0
M  END
$$$$
