VEQ.pdb
     RDKit          3D

 26 25  0  0  1  0  0  0  0  0999 V2000
   16.8996   -9.6283  -16.2940 C   0  0  0  0  0  0  0  0  0  0  0  0
   18.0314  -10.6205  -16.1863 C   0  0  1  0  0  0  0  0  0  0  0  0
   17.8917  -11.5981  -17.3573 C   0  0  0  0  0  0  0  0  0  0  0  0
   19.3908   -9.9852  -16.2654 C   0  0  2  0  0  0  0  0  0  0  0  0
   20.3608  -11.0562  -16.0693 N   0  0  0  0  0  0  0  0  0  0  0  0
   19.5594   -9.0214  -15.1459 C   0  0  0  0  0  0  0  0  0  0  0  0
   19.7369   -9.4201  -13.9481 O   0  0  0  0  0  0  0  0  0  0  0  0
   19.5329   -7.6292  -15.3436 N   0  0  0  0  0  0  0  0  0  0  0  0
   19.7373   -6.6794  -14.2279 C   0  0  1  0  0  0  0  0  0  0  0  0
   20.5975   -5.5771  -14.7993 C   0  0  0  0  0  0  0  0  0  0  0  0
   20.8842   -4.4685  -13.8666 C   0  0  0  0  0  0  0  0  0  0  0  0
   21.7747   -4.8074  -12.7448 C   0  0  0  0  0  0  0  0  0  0  0  0
   22.8392   -5.4443  -12.9027 O   0  0  0  0  0  0  0  0  0  0  0  0
   18.4126   -6.2085  -13.7537 C   0  0  0  0  0  0  0  0  0  0  0  0
   17.5689   -5.8700  -14.6454 O   0  0  0  0  0  0  0  0  0  0  0  0
   21.4597   -4.4263  -11.4492 O   0  0  0  0  0  0  0  0  0  0  0  0
   14.5428   -8.5967   -9.7809 N   0  0  0  0  0  0  0  0  0  0  0  0
   15.6799   -7.9462   -9.2094 C   0  0  0  0  0  0  0  0  0  0  0  0
   15.9970   -8.3504   -8.0579 O   0  0  0  0  0  0  0  0  0  0  0  0
   16.4070   -6.8898   -9.9279 C   0  0  0  0  0  0  0  0  0  0  0  0
   15.9644   -6.6293  -11.3186 C   0  0  0  0  0  0  0  0  0  0  0  0
   16.6970   -5.6091  -12.0887 C   0  0  2  0  0  0  0  0  0  0  0  0
   18.0416   -6.1205  -12.3952 N   0  0  0  0  0  0  0  0  0  0  0  0
   16.7827   -4.2705  -11.5112 C   0  0  0  0  0  0  0  0  0  0  0  0
   15.6959   -3.5112  -11.1191 O   0  0  0  0  0  0  0  0  0  0  0  0
   17.9104   -3.7397  -11.3444 O   0  0  0  0  0  0  0  0  0  0  0  0
  2  4  1  0
  2  1  1  6
  3  2  1  0
  4  6  1  0
  4  5  1  1
  6  7  2  0
  8  9  1  0
  8  6  1  0
  9 10  1  6
 11 10  1  0
 12 11  1  0
 12 13  2  0
 14 23  1  0
 14  9  1  0
 15 14  2  0
 16 12  1  0
 17 18  1  0
 18 19  2  0
 18 20  1  0
 20 21  1  0
 22 21  1  1
 22 23  1  0
 22 24  1  0
 24 25  1  0
 26 24  2  0
M  END
$$$$
