VEQ.pdb
     RDKit          3D

 26 25  0  0  1  0  0  0  0  0999 V2000
   29.7247  -20.9435   -9.9887 C   0  0  0  0  0  0  0  0  0  0  0  0
   28.8444  -20.4522  -11.1116 C   0  0  1  0  0  0  0  0  0  0  0  0
   29.2642  -21.2022  -12.3796 C   0  0  0  0  0  0  0  0  0  0  0  0
   27.3822  -20.7072  -10.8783 C   0  0  2  0  0  0  0  0  0  0  0  0
   27.2162  -22.1553  -10.8332 N   0  0  0  0  0  0  0  0  0  0  0  0
   26.5949  -20.2047  -12.0352 C   0  0  0  0  0  0  0  0  0  0  0  0
   26.3396  -18.9636  -12.1752 O   0  0  0  0  0  0  0  0  0  0  0  0
   26.0926  -21.0622  -13.0303 N   0  0  0  0  0  0  0  0  0  0  0  0
   25.3262  -20.5492  -14.1871 C   0  0  1  0  0  0  0  0  0  0  0  0
   26.0956  -21.0041  -15.4047 C   0  0  0  0  0  0  0  0  0  0  0  0
   27.2366  -20.1422  -15.7742 C   0  0  0  0  0  0  0  0  0  0  0  0
   26.8753  -18.8344  -16.3445 C   0  0  0  0  0  0  0  0  0  0  0  0
   27.4399  -17.7734  -15.9992 O   0  0  0  0  0  0  0  0  0  0  0  0
   23.9467  -21.0920  -14.1238 C   0  0  0  0  0  0  0  0  0  0  0  0
   23.8199  -22.3550  -14.2244 O   0  0  0  0  0  0  0  0  0  0  0  0
   25.8778  -18.7295  -17.3022 O   0  0  0  0  0  0  0  0  0  0  0  0
   20.4888  -21.1629   -9.5782 N   0  0  0  0  0  0  0  0  0  0  0  0
   19.6259  -21.7819  -10.5348 C   0  0  0  0  0  0  0  0  0  0  0  0
   18.5885  -22.3082  -10.0485 O   0  0  0  0  0  0  0  0  0  0  0  0
   19.9449  -21.7915  -11.9698 C   0  0  0  0  0  0  0  0  0  0  0  0
   21.2108  -21.1238  -12.3566 C   0  0  0  0  0  0  0  0  0  0  0  0
   21.5058  -21.0000  -13.7947 C   0  0  2  0  0  0  0  0  0  0  0  0
   22.7899  -20.3014  -13.9575 N   0  0  0  0  0  0  0  0  0  0  0  0
   20.4829  -20.3841  -14.6356 C   0  0  0  0  0  0  0  0  0  0  0  0
   20.6612  -19.2285  -15.3732 O   0  0  0  0  0  0  0  0  0  0  0  0
   19.3467  -20.9165  -14.7180 O   0  0  0  0  0  0  0  0  0  0  0  0
  2  4  1  0
  2  1  1  1
  3  2  1  0
  4  6  1  0
  4  5  1  6
  6  7  2  0
  8  9  1  0
  8  6  1  0
  9 10  1  6
 11 10  1  0
 12 11  1  0
 12 13  2  0
 14 23  1  0
 14  9  1  0
 15 14  2  0
 16 12  1  0
 17 18  1  0
 18 19  2  0
 18 20  1  0
 20 21  1  0
 22 21  1  1
 22 23  1  0
 22 24  1  0
 24 25  1  0
 26 24  2  0
M  END
$$$$
