VEQ.pdb
     RDKit          3D

 26 25  0  0  1  0  0  0  0  0999 V2000
   26.3887  -15.6143  -16.1660 C   0  0  0  0  0  0  0  0  0  0  0  0
   25.5817  -14.5245  -16.8280 C   0  0  1  0  0  0  0  0  0  0  0  0
   24.1658  -15.0704  -17.0366 C   0  0  0  0  0  0  0  0  0  0  0  0
   25.4847  -13.2710  -16.0052 C   0  0  2  0  0  0  0  0  0  0  0  0
   24.8569  -13.6503  -14.7448 N   0  0  0  0  0  0  0  0  0  0  0  0
   24.5822  -12.2990  -16.6771 C   0  0  0  0  0  0  0  0  0  0  0  0
   24.9378  -11.6866  -17.7372 O   0  0  0  0  0  0  0  0  0  0  0  0
   23.2980  -12.0036  -16.1857 N   0  0  0  0  0  0  0  0  0  0  0  0
   22.4090  -11.0331  -16.8614 C   0  0  1  0  0  0  0  0  0  0  0  0
   21.3156  -11.8668  -17.4866 C   0  0  0  0  0  0  0  0  0  0  0  0
   21.6532  -12.4449  -18.8030 C   0  0  0  0  0  0  0  0  0  0  0  0
   20.6066  -13.2865  -19.4051 C   0  0  0  0  0  0  0  0  0  0  0  0
   19.4499  -13.3566  -18.9352 O   0  0  0  0  0  0  0  0  0  0  0  0
   21.9098  -10.0632  -15.8557 C   0  0  0  0  0  0  0  0  0  0  0  0
   22.1892  -10.3027  -14.6367 O   0  0  0  0  0  0  0  0  0  0  0  0
   20.8701  -14.0459  -20.5351 O   0  0  0  0  0  0  0  0  0  0  0  0
   22.4191   -4.7742  -15.1070 N   0  0  0  0  0  0  0  0  0  0  0  0
   22.2400   -5.1662  -13.7442 C   0  0  0  0  0  0  0  0  0  0  0  0
   22.1960   -4.2122  -12.9210 O   0  0  0  0  0  0  0  0  0  0  0  0
   22.1192   -6.5791  -13.3568 C   0  0  0  0  0  0  0  0  0  0  0  0
   22.1663   -7.5615  -14.4662 C   0  0  0  0  0  0  0  0  0  0  0  0
   20.8879   -7.9579  -15.0819 C   0  0  2  0  0  0  0  0  0  0  0  0
   21.1600   -8.9098  -16.1697 N   0  0  0  0  0  0  0  0  0  0  0  0
   20.0125   -6.8875  -15.5515 C   0  0  0  0  0  0  0  0  0  0  0  0
   19.1002   -6.2131  -14.7615 O   0  0  0  0  0  0  0  0  0  0  0  0
   20.0659   -6.5279  -16.7552 O   0  0  0  0  0  0  0  0  0  0  0  0
  2  4  1  0
  2  1  1  1
  3  2  1  0
  4  6  1  0
  4  5  1  1
  6  7  2  0
  8  9  1  0
  8  6  1  0
  9 10  1  1
 11 10  1  0
 12 11  1  0
 12 13  2  0
 14 23  1  0
 14  9  1  0
 15 14  2  0
 16 12  1  0
 17 18  1  0
 18 19  2  0
 18 20  1  0
 20 21  1  0
 22 21  1  6
 22 23  1  0
 22 24  1  0
 24 25  1  0
 26 24  2  0
M  END
$$$$
