VEQ.pdb
     RDKit          3D

 26 25  0  0  1  0  0  0  0  0999 V2000
   16.4029  -10.6356  -17.5212 C   0  0  0  0  0  0  0  0  0  0  0  0
   17.6430   -9.9033  -17.0706 C   0  0  1  0  0  0  0  0  0  0  0  0
   17.2780   -9.1313  -15.7989 C   0  0  0  0  0  0  0  0  0  0  0  0
   18.7921  -10.8171  -16.7510 C   0  0  2  0  0  0  0  0  0  0  0  0
   18.3192  -11.7319  -15.7185 N   0  0  0  0  0  0  0  0  0  0  0  0
   19.9116  -10.0302  -16.1697 C   0  0  0  0  0  0  0  0  0  0  0  0
   19.9753   -9.7909  -14.9192 O   0  0  0  0  0  0  0  0  0  0  0  0
   20.9531   -9.5105  -16.9592 N   0  0  0  0  0  0  0  0  0  0  0  0
   22.0408   -8.6948  -16.3760 C   0  0  1  0  0  0  0  0  0  0  0  0
   23.2040   -8.8484  -17.3272 C   0  0  0  0  0  0  0  0  0  0  0  0
   24.4272   -8.1208  -16.9326 C   0  0  0  0  0  0  0  0  0  0  0  0
   25.6058   -8.3713  -17.7778 C   0  0  0  0  0  0  0  0  0  0  0  0
   26.5205   -9.1533  -17.4378 O   0  0  0  0  0  0  0  0  0  0  0  0
   21.5680   -7.2947  -16.2429 C   0  0  0  0  0  0  0  0  0  0  0  0
   20.8162   -6.8504  -17.1696 O   0  0  0  0  0  0  0  0  0  0  0  0
   25.7472   -7.7380  -19.0033 O   0  0  0  0  0  0  0  0  0  0  0  0
   16.7643   -2.9372  -15.3016 N   0  0  0  0  0  0  0  0  0  0  0  0
   17.6111   -4.0859  -15.2215 C   0  0  0  0  0  0  0  0  0  0  0  0
   17.0150   -5.1911  -15.3351 O   0  0  0  0  0  0  0  0  0  0  0  0
   19.0622   -3.9628  -15.0212 C   0  0  0  0  0  0  0  0  0  0  0  0
   19.8518   -5.2009  -15.2252 C   0  0  0  0  0  0  0  0  0  0  0  0
   21.3198   -5.0925  -15.1643 C   0  0  2  0  0  0  0  0  0  0  0  0
   21.8962   -6.4457  -15.1647 N   0  0  0  0  0  0  0  0  0  0  0  0
   21.8863   -4.3000  -14.0762 C   0  0  0  0  0  0  0  0  0  0  0  0
   21.7271   -2.9344  -13.9314 O   0  0  0  0  0  0  0  0  0  0  0  0
   22.5737   -4.8683  -13.1898 O   0  0  0  0  0  0  0  0  0  0  0  0
  2  4  1  0
  2  1  1  1
  3  2  1  0
  4  6  1  0
  4  5  1  1
  6  7  2  0
  8  9  1  0
  8  6  1  0
  9 10  1  6
 11 10  1  0
 12 11  1  0
 12 13  2  0
 14 23  1  0
 14  9  1  0
 15 14  2  0
 16 12  1  0
 17 18  1  0
 18 19  2  0
 18 20  1  0
 20 21  1  0
 22 21  1  1
 22 23  1  0
 22 24  1  0
 24 25  1  0
 26 24  2  0
M  END
$$$$
