VEQ.pdb
     RDKit          3D

 26 25  0  0  1  0  0  0  0  0999 V2000
   22.3837  -12.5253  -22.0554 C   0  0  0  0  0  0  0  0  0  0  0  0
   22.2109  -13.0934  -20.6681 C   0  0  1  0  0  0  0  0  0  0  0  0
   23.0118  -14.3978  -20.6082 C   0  0  0  0  0  0  0  0  0  0  0  0
   22.7149  -12.1832  -19.5841 C   0  0  2  0  0  0  0  0  0  0  0  0
   22.4439  -12.8559  -18.3190 N   0  0  0  0  0  0  0  0  0  0  0  0
   21.9360  -10.9168  -19.5907 C   0  0  0  0  0  0  0  0  0  0  0  0
   21.9961  -10.1059  -20.5725 O   0  0  0  0  0  0  0  0  0  0  0  0
   21.0974  -10.5459  -18.5243 N   0  0  0  0  0  0  0  0  0  0  0  0
   20.2503   -9.3345  -18.5837 C   0  0  1  0  0  0  0  0  0  0  0  0
   18.9030   -9.7675  -18.0558 C   0  0  0  0  0  0  0  0  0  0  0  0
   18.8744  -10.0802  -16.6127 C   0  0  0  0  0  0  0  0  0  0  0  0
   17.5469  -10.4086  -16.0686 C   0  0  0  0  0  0  0  0  0  0  0  0
   16.8257   -9.5586  -15.5017 O   0  0  0  0  0  0  0  0  0  0  0  0
   20.8868   -8.2673  -17.7728 C   0  0  0  0  0  0  0  0  0  0  0  0
   21.8182   -8.6240  -16.9812 O   0  0  0  0  0  0  0  0  0  0  0  0
   17.0389  -11.6952  -16.1664 O   0  0  0  0  0  0  0  0  0  0  0  0
   22.3620   -1.0257  -16.9088 N   0  0  0  0  0  0  0  0  0  0  0  0
   21.7677   -2.1842  -17.4984 C   0  0  0  0  0  0  0  0  0  0  0  0
   21.1327   -1.9675  -18.5658 O   0  0  0  0  0  0  0  0  0  0  0  0
   21.9002   -3.5150  -16.8883 C   0  0  0  0  0  0  0  0  0  0  0  0
   21.2065   -4.6215  -17.5901 C   0  0  0  0  0  0  0  0  0  0  0  0
   21.2794   -5.9641  -16.9879 C   0  0  2  0  0  0  0  0  0  0  0  0
   20.5264   -6.9044  -17.8319 N   0  0  0  0  0  0  0  0  0  0  0  0
   20.8682   -6.0934  -15.5926 C   0  0  0  0  0  0  0  0  0  0  0  0
   21.6489   -5.7446  -14.5063 O   0  0  0  0  0  0  0  0  0  0  0  0
   19.7284   -6.5514  -15.3234 O   0  0  0  0  0  0  0  0  0  0  0  0
  2  4  1  0
  2  1  1  6
  3  2  1  0
  4  6  1  0
  4  5  1  1
  6  7  2  0
  8  9  1  0
  8  6  1  0
  9 10  1  1
 11 10  1  0
 12 11  1  0
 12 13  2  0
 14 23  1  0
 14  9  1  0
 15 14  2  0
 16 12  1  0
 17 18  1  0
 18 19  2  0
 18 20  1  0
 20 21  1  0
 22 21  1  6
 22 23  1  0
 22 24  1  0
 24 25  1  0
 26 24  2  0
M  END
$$$$
