IRC.pdb
     RDKit          3D

 26 25  0  0  1  0  0  0  0  0999 V2000
   29.4391  -20.0995  -12.7265 C   0  0  0  0  0  0  0  0  0  0  0  0
   28.1724  -20.4345  -11.9926 C   0  0  0  0  0  0  0  0  0  0  0  0
   26.9688  -20.5676  -12.8570 C   0  0  2  0  0  0  0  0  0  0  0  0
   26.8531  -19.2877  -13.6810 C   0  0  0  0  0  0  0  0  0  0  0  0
   25.6728  -20.8321  -12.1262 C   0  0  2  0  0  0  0  0  0  0  0  0
   25.8470  -22.1421  -11.4509 N   0  0  0  0  0  0  0  0  0  0  0  0
   24.5186  -20.9379  -13.0455 C   0  0  0  0  0  0  0  0  0  0  0  0
   24.4651  -21.8788  -13.9197 O   0  0  0  0  0  0  0  0  0  0  0  0
   18.0114  -22.4992  -11.0656 N   0  0  0  0  0  0  0  0  0  0  0  0
   17.9177  -23.0935  -12.3662 C   0  0  0  0  0  0  0  0  0  0  0  0
   16.7818  -23.4952  -12.8034 N   0  0  0  0  0  0  0  0  0  0  0  0
   19.0963  -23.2235  -13.1426 N   0  0  0  0  0  0  0  0  0  0  0  0
   20.2715  -22.3770  -12.9216 C   0  0  0  0  0  0  0  0  0  0  0  0
   19.9644  -21.0504  -13.5373 C   0  0  0  0  0  0  0  0  0  0  0  0
   20.9849  -19.9978  -13.4825 C   0  0  0  0  0  0  0  0  0  0  0  0
   22.3527  -20.2221  -14.0035 C   0  0  2  0  0  0  0  0  0  0  0  0
   23.4198  -20.0605  -13.0484 N   0  0  0  0  0  0  0  0  0  0  0  0
   22.6355  -19.4738  -15.2649 C   0  0  0  0  0  0  0  0  0  0  0  0
   22.9390  -18.2517  -15.2116 O   0  0  0  0  0  0  0  0  0  0  0  0
   16.5468  -23.9109  -13.6973 N   0  0  0  0  0  0  0  0  0  0  0  0
   22.5733  -20.0985  -16.5287 C   0  0  2  0  0  0  0  0  0  0  0  0
   22.8163  -19.4148  -17.7864 C   0  0  0  0  0  0  0  0  0  0  0  0
   23.3982  -20.3479  -18.8260 S   0  0  0  0  0  0  0  0  0  0  0  0
   23.7823  -19.3535  -20.2955 C   0  0  0  0  0  0  0  0  0  0  0  0
   21.5809  -18.7772  -18.3086 O   0  0  0  0  0  0  0  0  0  0  0  0
   21.5893  -17.4320  -18.7231 O   0  0  0  0  0  0  0  0  0  0  0  0
  2  1  1  0
  3  2  1  0
  3  4  1  1
  5  3  1  0
  5  6  1  6
  7  5  1  0
  8  7  2  0
 10  9  1  0
 10 12  1  0
 11 10  2  0
 13 12  1  0
 13 14  1  0
 15 14  1  0
 16 17  1  0
 16 15  1  1
 17  7  1  0
 18 16  1  0
 19 18  2  0
 20 18  1  0
 21 20  1  0
 21 22  1  1
 23 22  1  0
 24 25  1  0
 24 21  1  0
 26 24  2  0
M  END
$$$$
