IRC.pdb
     RDKit          3D

 26 25  0  0  1  0  0  0  0  0999 V2000
   29.1683  -17.1666  -17.3472 C   0  0  0  0  0  0  0  0  0  0  0  0
   28.1898  -18.2949  -17.1894 C   0  0  0  0  0  0  0  0  0  0  0  0
   27.4776  -18.3231  -15.8835 C   0  0  2  0  0  0  0  0  0  0  0  0
   28.5369  -18.3676  -14.7851 C   0  0  0  0  0  0  0  0  0  0  0  0
   26.4978  -19.4596  -15.7047 C   0  0  2  0  0  0  0  0  0  0  0  0
   25.4755  -19.2859  -16.7663 N   0  0  0  0  0  0  0  0  0  0  0  0
   25.8131  -19.4129  -14.3941 C   0  0  0  0  0  0  0  0  0  0  0  0
   24.9870  -18.4659  -14.1233 O   0  0  0  0  0  0  0  0  0  0  0  0
   20.2770  -23.1917  -14.1878 N   0  0  0  0  0  0  0  0  0  0  0  0
   19.9938  -21.8531  -13.7619 C   0  0  0  0  0  0  0  0  0  0  0  0
   19.1986  -21.1198  -14.4497 N   0  0  0  0  0  0  0  0  0  0  0  0
   20.6076  -21.3698  -12.5794 N   0  0  0  0  0  0  0  0  0  0  0  0
   21.5748  -22.1683  -11.8220 C   0  0  0  0  0  0  0  0  0  0  0  0
   22.7419  -21.2768  -11.5460 C   0  0  0  0  0  0  0  0  0  0  0  0
   23.8350  -21.2284  -12.5233 C   0  0  0  0  0  0  0  0  0  0  0  0
   25.0603  -20.4359  -12.2711 C   0  0  2  0  0  0  0  0  0  0  0  0
   25.9913  -20.3580  -13.3683 N   0  0  0  0  0  0  0  0  0  0  0  0
   25.7508  -20.8031  -10.9984 C   0  0  0  0  0  0  0  0  0  0  0  0
   26.3552  -21.9056  -10.9113 O   0  0  0  0  0  0  0  0  0  0  0  0
   18.8873  -20.1709  -14.2773 N   0  0  0  0  0  0  0  0  0  0  0  0
   25.7484  -19.9452   -9.8781 C   0  0  2  0  0  0  0  0  0  0  0  0
   26.1282  -20.3565   -8.5383 C   0  0  0  0  0  0  0  0  0  0  0  0
   26.4666  -19.1684   -7.6642 S   0  0  0  0  0  0  0  0  0  0  0  0
   28.1884  -18.7099   -8.0122 C   0  0  0  0  0  0  0  0  0  0  0  0
   25.0676  -21.1748   -7.8973 O   0  0  0  0  0  0  0  0  0  0  0  0
   25.2994  -21.8071   -6.6613 O   0  0  0  0  0  0  0  0  0  0  0  0
  2  1  1  0
  3  2  1  0
  3  4  1  1
  5  3  1  0
  5  6  1  6
  7  5  1  0
  8  7  2  0
 10  9  1  0
 10 12  1  0
 11 10  2  0
 13 12  1  0
 13 14  1  0
 15 14  1  0
 16 17  1  0
 16 15  1  6
 17  7  1  0
 18 16  1  0
 19 18  2  0
 20 18  1  0
 21 20  1  0
 21 22  1  6
 23 22  1  0
 24 25  1  0
 24 21  1  0
 26 24  2  0
M  END
$$$$
