IRC.pdb
     RDKit          3D

 26 25  0  0  1  0  0  0  0  0999 V2000
   22.4114  -31.9843   -8.1805 C   0  0  0  0  0  0  0  0  0  0  0  0
   23.8810  -31.7629   -8.3965 C   0  0  0  0  0  0  0  0  0  0  0  0
   24.7653  -32.7493   -7.7193 C   0  0  2  0  0  0  0  0  0  0  0  0
   24.4405  -32.7073   -6.2283 C   0  0  0  0  0  0  0  0  0  0  0  0
   26.2471  -32.5440   -7.9327 C   0  0  2  0  0  0  0  0  0  0  0  0
   26.4825  -32.7570   -9.3824 N   0  0  0  0  0  0  0  0  0  0  0  0
   27.0655  -33.5235   -7.1846 C   0  0  0  0  0  0  0  0  0  0  0  0
   27.0876  -34.7594   -7.5373 O   0  0  0  0  0  0  0  0  0  0  0  0
   35.2809  -34.8621   -4.2067 N   0  0  0  0  0  0  0  0  0  0  0  0
   34.4376  -35.8750   -3.6442 C   0  0  0  0  0  0  0  0  0  0  0  0
   34.9598  -36.8674   -3.0234 N   0  0  0  0  0  0  0  0  0  0  0  0
   33.0333  -35.7518   -3.7915 N   0  0  0  0  0  0  0  0  0  0  0  0
   32.4263  -34.7123   -4.6266 C   0  0  0  0  0  0  0  0  0  0  0  0
   30.9540  -34.9678   -4.6242 C   0  0  0  0  0  0  0  0  0  0  0  0
   30.0758  -34.0207   -5.3199 C   0  0  0  0  0  0  0  0  0  0  0  0
   28.6121  -34.2346   -5.3894 C   0  0  2  0  0  0  0  0  0  0  0  0
   27.8621  -33.2090   -6.0694 N   0  0  0  0  0  0  0  0  0  0  0  0
   27.9997  -34.5693   -4.0687 C   0  0  0  0  0  0  0  0  0  0  0  0
   27.6003  -33.6434   -3.3127 O   0  0  0  0  0  0  0  0  0  0  0  0
   34.5071  -37.6430   -2.5539 N   0  0  0  0  0  0  0  0  0  0  0  0
   27.8523  -35.9042   -3.6356 C   0  0  2  0  0  0  0  0  0  0  0  0
   27.4041  -36.2832   -2.3075 C   0  0  0  0  0  0  0  0  0  0  0  0
   28.4558  -37.0838   -1.5705 S   0  0  0  0  0  0  0  0  0  0  0  0
   28.9337  -38.4699   -2.6410 C   0  0  0  0  0  0  0  0  0  0  0  0
   27.0114  -35.0972   -1.5047 O   0  0  0  0  0  0  0  0  0  0  0  0
   27.8701  -33.9868   -1.4000 O   0  0  0  0  0  0  0  0  0  0  0  0
  2  1  1  0
  3  2  1  0
  3  4  1  1
  5  3  1  0
  5  6  1  6
  7  5  1  0
  8  7  2  0
 10  9  1  0
 10 12  1  0
 11 10  2  0
 13 12  1  0
 13 14  1  0
 15 14  1  0
 16 17  1  0
 16 15  1  1
 17  7  1  0
 18 16  1  0
 19 18  2  0
 20 18  1  0
 21 20  1  0
 21 22  1  6
 23 22  1  0
 24 25  1  0
 24 21  1  0
 26 24  2  0
M  END
$$$$
