IRC.pdb
     RDKit          3D

 26 25  0  0  1  0  0  0  0  0999 V2000
   28.9235  -19.4635   -4.0328 C   0  0  0  0  0  0  0  0  0  0  0  0
   28.8891  -19.3391   -5.5290 C   0  0  0  0  0  0  0  0  0  0  0  0
   27.5675  -19.6294   -6.1475 C   0  0  2  0  0  0  0  0  0  0  0  0
   27.1582  -21.0349   -5.7144 C   0  0  0  0  0  0  0  0  0  0  0  0
   27.5187  -19.5167   -7.6537 C   0  0  2  0  0  0  0  0  0  0  0  0
   27.9672  -18.1386   -7.9729 N   0  0  0  0  0  0  0  0  0  0  0  0
   26.1502  -19.6910   -8.1881 C   0  0  0  0  0  0  0  0  0  0  0  0
   25.2498  -18.7977   -7.9791 O   0  0  0  0  0  0  0  0  0  0  0  0
   22.2062  -19.4020  -15.3829 N   0  0  0  0  0  0  0  0  0  0  0  0
   23.3295  -20.2906  -15.4283 C   0  0  0  0  0  0  0  0  0  0  0  0
   23.6705  -20.8312  -16.5393 N   0  0  0  0  0  0  0  0  0  0  0  0
   24.0407  -20.5518  -14.2305 N   0  0  0  0  0  0  0  0  0  0  0  0
   23.7286  -19.8654  -12.9743 C   0  0  0  0  0  0  0  0  0  0  0  0
   24.7283  -20.3385  -11.9692 C   0  0  0  0  0  0  0  0  0  0  0  0
   24.2783  -21.2378  -10.9010 C   0  0  0  0  0  0  0  0  0  0  0  0
   24.3868  -20.8555   -9.4745 C   0  0  2  0  0  0  0  0  0  0  0  0
   25.7250  -20.7986   -8.9427 N   0  0  0  0  0  0  0  0  0  0  0  0
   23.4808  -21.6385   -8.5815 C   0  0  0  0  0  0  0  0  0  0  0  0
   23.9041  -22.6884   -8.0277 O   0  0  0  0  0  0  0  0  0  0  0  0
   24.4355  -21.4654  -16.7383 N   0  0  0  0  0  0  0  0  0  0  0  0
   22.1511  -21.2355   -8.3353 C   0  0  2  0  0  0  0  0  0  0  0  0
   21.1997  -22.0054   -7.5539 C   0  0  0  0  0  0  0  0  0  0  0  0
   20.5699  -21.1703   -6.4602 S   0  0  0  0  0  0  0  0  0  0  0  0
   19.3639  -22.2202   -5.6004 C   0  0  0  0  0  0  0  0  0  0  0  0
   20.1440  -22.6011   -8.4119 O   0  0  0  0  0  0  0  0  0  0  0  0
   19.7422  -23.9376   -8.2293 O   0  0  0  0  0  0  0  0  0  0  0  0
  2  1  1  0
  3  2  1  0
  3  4  1  6
  5  3  1  0
  5  6  1  1
  7  5  1  0
  8  7  2  0
 10  9  1  0
 10 12  1  0
 11 10  2  0
 13 12  1  0
 13 14  1  0
 15 14  1  0
 16 17  1  0
 16 15  1  6
 17  7  1  0
 18 16  1  0
 19 18  2  0
 20 18  1  0
 21 20  1  0
 21 22  1  6
 23 22  1  0
 24 25  1  0
 24 21  1  0
 26 24  2  0
M  END
$$$$
