IRC.pdb
     RDKit          3D

 26 25  0  0  1  0  0  0  0  0999 V2000
   27.7222  -12.1222  -15.6785 C   0  0  0  0  0  0  0  0  0  0  0  0
   26.2691  -12.3726  -15.3942 C   0  0  0  0  0  0  0  0  0  0  0  0
   25.3804  -11.2000  -15.6151 C   0  0  2  0  0  0  0  0  0  0  0  0
   25.8736  -10.0748  -14.7089 C   0  0  0  0  0  0  0  0  0  0  0  0
   23.9089  -11.4488  -15.3781 C   0  0  2  0  0  0  0  0  0  0  0  0
   23.5395  -12.5789  -16.2661 N   0  0  0  0  0  0  0  0  0  0  0  0
   23.0739  -10.2837  -15.7440 C   0  0  0  0  0  0  0  0  0  0  0  0
   22.9390   -9.9389  -16.9749 O   0  0  0  0  0  0  0  0  0  0  0  0
   15.5191  -12.7212  -15.8931 N   0  0  0  0  0  0  0  0  0  0  0  0
   16.0014  -11.5658  -15.1960 C   0  0  0  0  0  0  0  0  0  0  0  0
   15.2483  -10.9747  -14.3437 N   0  0  0  0  0  0  0  0  0  0  0  0
   17.3121  -11.1018  -15.4709 N   0  0  0  0  0  0  0  0  0  0  0  0
   17.8636   -9.9037  -14.8330 C   0  0  0  0  0  0  0  0  0  0  0  0
   19.2502   -9.7365  -15.3647 C   0  0  0  0  0  0  0  0  0  0  0  0
   20.0609   -8.6175  -14.8719 C   0  0  0  0  0  0  0  0  0  0  0  0
   21.4760   -8.4538  -15.2762 C   0  0  2  0  0  0  0  0  0  0  0  0
   22.3787   -9.4812  -14.8221 N   0  0  0  0  0  0  0  0  0  0  0  0
   22.0183   -7.0910  -14.9934 C   0  0  0  0  0  0  0  0  0  0  0  0
   22.5587   -6.8525  -13.8801 O   0  0  0  0  0  0  0  0  0  0  0  0
   15.4361  -10.1545  -13.7789 N   0  0  0  0  0  0  0  0  0  0  0  0
   21.9444   -6.0505  -15.9437 C   0  0  2  0  0  0  0  0  0  0  0  0
   22.4603   -4.7111  -15.7245 C   0  0  0  0  0  0  0  0  0  0  0  0
   22.9702   -4.0920  -17.0078 S   0  0  0  0  0  0  0  0  0  0  0  0
   23.6212   -2.4478  -16.5975 C   0  0  0  0  0  0  0  0  0  0  0  0
   21.4405   -3.8283  -15.1031 O   0  0  0  0  0  0  0  0  0  0  0  0
   21.8046   -2.9059  -14.1042 O   0  0  0  0  0  0  0  0  0  0  0  0
  2  1  1  0
  3  2  1  0
  3  4  1  1
  5  3  1  0
  5  6  1  6
  7  5  1  0
  8  7  2  0
 10  9  1  0
 10 12  1  0
 11 10  2  0
 13 12  1  0
 13 14  1  0
 15 14  1  0
 16 17  1  0
 16 15  1  1
 17  7  1  0
 18 16  1  0
 19 18  2  0
 20 18  1  0
 21 20  1  0
 21 22  1  6
 23 22  1  0
 24 25  1  0
 24 21  1  0
 26 24  2  0
M  END
$$$$
