NEN.pdb
     RDKit          3D

 26 25  0  0  1  0  0  0  0  0999 V2000
   13.9450  -14.1143  -16.9155 N   0  0  0  0  0  0  0  0  0  0  0  0
   14.8938  -13.0918  -16.6406 C   0  0  0  0  0  0  0  0  0  0  0  0
   15.3315  -12.4375  -17.6355 O   0  0  0  0  0  0  0  0  0  0  0  0
   15.3567  -12.7967  -15.2551 C   0  0  0  0  0  0  0  0  0  0  0  0
   16.6857  -12.1381  -15.2941 C   0  0  2  0  0  0  0  0  0  0  0  0
   17.6769  -13.1799  -15.6003 N   0  0  0  0  0  0  0  0  0  0  0  0
   17.0737  -11.3978  -14.0716 C   0  0  0  0  0  0  0  0  0  0  0  0
   17.0254  -12.0162  -12.9851 O   0  0  0  0  0  0  0  0  0  0  0  0
   17.4906  -10.0452  -14.0851 N   0  0  0  0  0  0  0  0  0  0  0  0
   17.9397   -9.2580  -12.9813 C   0  0  1  0  0  0  0  0  0  0  0  0
   19.0531   -8.2756  -13.2911 C   0  0  0  0  0  0  0  0  0  0  0  0
   20.3731   -8.9091  -13.5911 C   0  0  0  0  0  0  0  0  0  0  0  0
   21.3340   -7.7992  -13.8383 C   0  0  0  0  0  0  0  0  0  0  0  0
   22.5478   -8.1130  -13.9865 O   0  0  0  0  0  0  0  0  0  0  0  0
   16.8528   -8.5662  -12.3046 C   0  0  0  0  0  0  0  0  0  0  0  0
   15.9262   -8.0838  -13.0438 O   0  0  0  0  0  0  0  0  0  0  0  0
   20.9411   -6.4871  -13.9062 O   0  0  0  0  0  0  0  0  0  0  0  0
   15.1925   -6.3990   -7.0021 N   0  0  0  0  0  0  0  0  0  0  0  0
   14.7009   -7.2627   -7.9998 C   0  0  0  0  0  0  0  0  0  0  0  0
   13.4602   -7.4464   -8.1918 O   0  0  0  0  0  0  0  0  0  0  0  0
   15.6195   -7.9920   -8.8687 C   0  0  0  0  0  0  0  0  0  0  0  0
   15.6086   -7.6120  -10.3113 C   0  0  2  0  0  0  0  0  0  0  0  0
   16.7152   -8.3728  -10.9244 N   0  0  0  0  0  0  0  0  0  0  0  0
   15.8755   -6.1932  -10.5887 C   0  0  0  0  0  0  0  0  0  0  0  0
   17.0147   -5.7022  -10.5080 O   0  0  0  0  0  0  0  0  0  0  0  0
   14.8392   -5.3553  -10.9539 O   0  0  0  0  0  0  0  0  0  0  0  0
  2  1  1  0
  2  3  2  0
  4  2  1  0
  5  4  1  0
  5  7  1  0
  5  6  1  1
  7  8  2  0
  9  7  1  0
  9 10  1  0
 10 11  1  6
 11 12  1  0
 12 13  1  0
 13 17  1  0
 14 13  2  0
 15 10  1  0
 15 16  2  0
 18 19  1  0
 19 21  1  0
 20 19  2  0
 22 21  1  1
 22 23  1  0
 23 15  1  0
 24 26  1  0
 24 22  1  0
 25 24  2  0
M  END
$$$$
