NEN.pdb
     RDKit          3D

 26 25  0  0  1  0  0  0  0  0999 V2000
   13.0775   -5.1074   -8.6267 N   0  0  0  0  0  0  0  0  0  0  0  0
   14.3174   -4.9271   -7.9547 C   0  0  0  0  0  0  0  0  0  0  0  0
   14.3949   -3.9457   -7.1546 O   0  0  0  0  0  0  0  0  0  0  0  0
   15.4738   -5.8412   -8.1738 C   0  0  0  0  0  0  0  0  0  0  0  0
   15.0838   -6.9417   -9.0894 C   0  0  2  0  0  0  0  0  0  0  0  0
   14.2904   -7.8983   -8.3041 N   0  0  0  0  0  0  0  0  0  0  0  0
   16.1986   -7.6342   -9.7755 C   0  0  0  0  0  0  0  0  0  0  0  0
   17.3248   -7.5894   -9.2323 O   0  0  0  0  0  0  0  0  0  0  0  0
   16.0418   -8.3326  -10.9967 N   0  0  0  0  0  0  0  0  0  0  0  0
   17.0411   -9.0362  -11.7357 C   0  0  1  0  0  0  0  0  0  0  0  0
   16.5423  -10.2182  -12.5449 C   0  0  0  0  0  0  0  0  0  0  0  0
   16.1412  -11.4037  -11.7280 C   0  0  0  0  0  0  0  0  0  0  0  0
   15.5724  -12.4026  -12.6740 C   0  0  0  0  0  0  0  0  0  0  0  0
   16.2430  -13.4539  -12.8709 O   0  0  0  0  0  0  0  0  0  0  0  0
   17.8317   -8.1604  -12.5876 C   0  0  0  0  0  0  0  0  0  0  0  0
   17.2449   -7.1222  -13.0517 O   0  0  0  0  0  0  0  0  0  0  0  0
   14.3750  -12.2108  -13.3145 O   0  0  0  0  0  0  0  0  0  0  0  0
   21.5399   -5.2473  -14.7345 N   0  0  0  0  0  0  0  0  0  0  0  0
   20.7965   -5.0492  -13.5551 C   0  0  0  0  0  0  0  0  0  0  0  0
   20.8459   -3.9691  -12.8912 O   0  0  0  0  0  0  0  0  0  0  0  0
   19.9223   -6.1003  -13.0435 C   0  0  0  0  0  0  0  0  0  0  0  0
   19.9205   -7.3863  -13.7997 C   0  0  2  0  0  0  0  0  0  0  0  0
   19.1721   -8.3365  -12.9534 N   0  0  0  0  0  0  0  0  0  0  0  0
   21.2447   -7.9838  -14.0250 C   0  0  0  0  0  0  0  0  0  0  0  0
   21.6609   -8.9491  -13.3614 O   0  0  0  0  0  0  0  0  0  0  0  0
   22.0748   -7.4715  -15.0038 O   0  0  0  0  0  0  0  0  0  0  0  0
  2  1  1  0
  2  3  2  0
  4  2  1  0
  5  4  1  0
  5  7  1  0
  5  6  1  1
  7  8  2  0
  9  7  1  0
  9 10  1  0
 10 11  1  6
 11 12  1  0
 12 13  1  0
 13 17  1  0
 14 13  2  0
 15 10  1  0
 15 16  2  0
 18 19  1  0
 19 21  1  0
 20 19  2  0
 22 21  1  1
 22 23  1  0
 23 15  1  0
 24 26  1  0
 24 22  1  0
 25 24  2  0
M  END
$$$$
