NEN.pdb
     RDKit          3D

 26 25  0  0  1  0  0  0  0  0999 V2000
   29.2417  -18.1757  -17.7847 N   0  0  0  0  0  0  0  0  0  0  0  0
   28.8864  -19.4346  -18.3417 C   0  0  0  0  0  0  0  0  0  0  0  0
   29.7072  -19.9474  -19.1621 O   0  0  0  0  0  0  0  0  0  0  0  0
   27.6146  -20.1246  -17.9851 C   0  0  0  0  0  0  0  0  0  0  0  0
   26.8953  -19.3540  -16.9409 C   0  0  2  0  0  0  0  0  0  0  0  0
   27.6393  -19.5271  -15.6847 N   0  0  0  0  0  0  0  0  0  0  0  0
   25.4691  -19.7039  -16.7500 C   0  0  0  0  0  0  0  0  0  0  0  0
   24.7306  -19.6785  -17.7596 O   0  0  0  0  0  0  0  0  0  0  0  0
   24.9207  -20.0608  -15.4948 N   0  0  0  0  0  0  0  0  0  0  0  0
   23.8063  -20.9168  -15.2395 C   0  0  1  0  0  0  0  0  0  0  0  0
   24.1515  -22.2986  -14.7178 C   0  0  0  0  0  0  0  0  0  0  0  0
   22.9692  -23.1696  -14.4400 C   0  0  0  0  0  0  0  0  0  0  0  0
   23.5022  -24.4756  -13.9642 C   0  0  0  0  0  0  0  0  0  0  0  0
   22.6624  -25.3910  -13.7396 O   0  0  0  0  0  0  0  0  0  0  0  0
   22.8119  -20.3023  -14.3727 C   0  0  0  0  0  0  0  0  0  0  0  0
   23.1609  -20.0771  -13.1623 O   0  0  0  0  0  0  0  0  0  0  0  0
   24.8417  -24.6974  -13.7713 O   0  0  0  0  0  0  0  0  0  0  0  0
   18.6200  -16.1749  -14.2891 N   0  0  0  0  0  0  0  0  0  0  0  0
   19.4482  -17.0565  -13.5682 C   0  0  0  0  0  0  0  0  0  0  0  0
   19.3812  -17.1772  -12.3069 O   0  0  0  0  0  0  0  0  0  0  0  0
   20.4333  -17.8822  -14.2599 C   0  0  0  0  0  0  0  0  0  0  0  0
   20.5579  -19.2941  -13.7942 C   0  0  2  0  0  0  0  0  0  0  0  0
   21.5087  -19.9309  -14.7267 N   0  0  0  0  0  0  0  0  0  0  0  0
   19.3212  -20.0866  -13.8554 C   0  0  0  0  0  0  0  0  0  0  0  0
   18.3723  -19.9007  -13.0741 O   0  0  0  0  0  0  0  0  0  0  0  0
   19.1850  -21.0795  -14.8067 O   0  0  0  0  0  0  0  0  0  0  0  0
  2  1  1  0
  2  3  2  0
  4  2  1  0
  5  4  1  0
  5  7  1  0
  5  6  1  1
  7  8  2  0
  9  7  1  0
  9 10  1  0
 10 11  1  1
 11 12  1  0
 12 13  1  0
 13 17  1  0
 14 13  2  0
 15 10  1  0
 15 16  2  0
 18 19  1  0
 19 21  1  0
 20 19  2  0
 22 21  1  6
 22 23  1  0
 23 15  1  0
 24 26  1  0
 24 22  1  0
 25 24  2  0
M  END
$$$$
