NEN.pdb
     RDKit          3D

 26 25  0  0  1  0  0  0  0  0999 V2000
   16.7474  -13.4914  -15.5279 N   0  0  0  0  0  0  0  0  0  0  0  0
   15.8471  -12.4923  -15.9890 C   0  0  0  0  0  0  0  0  0  0  0  0
   14.9163  -12.8757  -16.7610 O   0  0  0  0  0  0  0  0  0  0  0  0
   15.9831  -11.0629  -15.5900 C   0  0  0  0  0  0  0  0  0  0  0  0
   17.1330  -10.9016  -14.6662 C   0  0  2  0  0  0  0  0  0  0  0  0
   16.8126  -11.6481  -13.4408 N   0  0  0  0  0  0  0  0  0  0  0  0
   17.5058   -9.5061  -14.3396 C   0  0  0  0  0  0  0  0  0  0  0  0
   17.7548   -8.7385  -15.2956 O   0  0  0  0  0  0  0  0  0  0  0  0
   17.5875   -9.0166  -13.0139 N   0  0  0  0  0  0  0  0  0  0  0  0
   17.8479   -7.6775  -12.5912 C   0  0  1  0  0  0  0  0  0  0  0  0
   17.4720   -7.3620  -11.1560 C   0  0  0  0  0  0  0  0  0  0  0  0
   17.7960   -5.9690  -10.7222 C   0  0  0  0  0  0  0  0  0  0  0  0
   17.3387   -5.8429   -9.3111 C   0  0  0  0  0  0  0  0  0  0  0  0
   18.1993   -6.0403   -8.4088 O   0  0  0  0  0  0  0  0  0  0  0  0
   19.2222   -7.2671  -12.8372 C   0  0  0  0  0  0  0  0  0  0  0  0
   20.1422   -7.9842  -12.3108 O   0  0  0  0  0  0  0  0  0  0  0  0
   16.0453   -5.5273   -8.9821 O   0  0  0  0  0  0  0  0  0  0  0  0
   23.5021   -4.9629  -14.9919 N   0  0  0  0  0  0  0  0  0  0  0  0
   22.5912   -5.6681  -15.8017 C   0  0  0  0  0  0  0  0  0  0  0  0
   22.8304   -5.9432  -17.0170 O   0  0  0  0  0  0  0  0  0  0  0  0
   21.3125   -6.1194  -15.2610 C   0  0  0  0  0  0  0  0  0  0  0  0
   21.0619   -5.8246  -13.8202 C   0  0  2  0  0  0  0  0  0  0  0  0
   19.6438   -6.1655  -13.5923 N   0  0  0  0  0  0  0  0  0  0  0  0
   21.2187   -4.4155  -13.4314 C   0  0  0  0  0  0  0  0  0  0  0  0
   22.2750   -3.9719  -12.9488 O   0  0  0  0  0  0  0  0  0  0  0  0
   20.1685   -3.5332  -13.5986 O   0  0  0  0  0  0  0  0  0  0  0  0
  2  1  1  0
  2  3  2  0
  4  2  1  0
  5  4  1  0
  5  7  1  0
  5  6  1  1
  7  8  2  0
  9  7  1  0
  9 10  1  0
 10 11  1  1
 11 12  1  0
 12 13  1  0
 13 17  1  0
 14 13  2  0
 15 10  1  0
 15 16  2  0
 18 19  1  0
 19 21  1  0
 20 19  2  0
 22 21  1  6
 22 23  1  0
 23 15  1  0
 24 26  1  0
 24 22  1  0
 25 24  2  0
M  END
$$$$
