NEN.pdb
     RDKit          3D

 26 25  0  0  1  0  0  0  0  0999 V2000
   17.7645  -14.1223  -15.3973 N   0  0  0  0  0  0  0  0  0  0  0  0
   17.3954  -13.1765  -14.4021 C   0  0  0  0  0  0  0  0  0  0  0  0
   16.7152  -13.6134  -13.4244 O   0  0  0  0  0  0  0  0  0  0  0  0
   17.7841  -11.7408  -14.4952 C   0  0  0  0  0  0  0  0  0  0  0  0
   16.6838  -10.8838  -13.9888 C   0  0  2  0  0  0  0  0  0  0  0  0
   15.5892  -10.9605  -14.9674 N   0  0  0  0  0  0  0  0  0  0  0  0
   17.0392   -9.4717  -13.7195 C   0  0  0  0  0  0  0  0  0  0  0  0
   17.0359   -8.6825  -14.6903 O   0  0  0  0  0  0  0  0  0  0  0  0
   17.3738   -8.9896  -12.4314 N   0  0  0  0  0  0  0  0  0  0  0  0
   17.7627   -7.6643  -12.0680 C   0  0  1  0  0  0  0  0  0  0  0  0
   17.5378   -7.2943  -10.6142 C   0  0  0  0  0  0  0  0  0  0  0  0
   16.1045   -7.0982  -10.2390 C   0  0  0  0  0  0  0  0  0  0  0  0
   16.0814   -6.7939   -8.7819 C   0  0  0  0  0  0  0  0  0  0  0  0
   16.7999   -5.8352   -8.3840 O   0  0  0  0  0  0  0  0  0  0  0  0
   19.1350   -7.3579  -12.4429 C   0  0  0  0  0  0  0  0  0  0  0  0
   20.0379   -8.1735  -12.0463 O   0  0  0  0  0  0  0  0  0  0  0  0
   15.3211   -7.5095   -7.8928 O   0  0  0  0  0  0  0  0  0  0  0  0
   22.8478   -6.9485  -16.7030 N   0  0  0  0  0  0  0  0  0  0  0  0
   22.5400   -6.4160  -15.4363 C   0  0  0  0  0  0  0  0  0  0  0  0
   23.3824   -5.7630  -14.7480 O   0  0  0  0  0  0  0  0  0  0  0  0
   21.2124   -6.5982  -14.8573 C   0  0  0  0  0  0  0  0  0  0  0  0
   20.9893   -5.9965  -13.5105 C   0  0  2  0  0  0  0  0  0  0  0  0
   19.5715   -6.2599  -13.1946 N   0  0  0  0  0  0  0  0  0  0  0  0
   21.1681   -4.5392  -13.4367 C   0  0  0  0  0  0  0  0  0  0  0  0
   22.2871   -4.0113  -13.3166 O   0  0  0  0  0  0  0  0  0  0  0  0
   20.0681   -3.7054  -13.5011 O   0  0  0  0  0  0  0  0  0  0  0  0
  2  1  1  0
  2  3  2  0
  4  2  1  0
  5  4  1  0
  5  7  1  0
  5  6  1  6
  7  8  2  0
  9  7  1  0
  9 10  1  0
 10 11  1  1
 11 12  1  0
 12 13  1  0
 13 17  1  0
 14 13  2  0
 15 10  1  0
 15 16  2  0
 18 19  1  0
 19 21  1  0
 20 19  2  0
 22 21  1  6
 22 23  1  0
 23 15  1  0
 24 26  1  0
 24 22  1  0
 25 24  2  0
M  END
$$$$
