MTD.pdb
     RDKit          3D

 24 23  0  0  1  0  0  0  0  0999 V2000
    5.3044  -11.3443   26.5680 C   0  0  0  0  0  0  0  0  0  0  0  0
    6.7336  -12.2810   27.2020 S   0  0  0  0  0  0  0  0  0  0  0  0
    6.2467  -14.0015   27.4886 C   0  0  0  0  0  0  0  0  0  0  0  0
    6.2303  -14.7827   26.1831 C   0  0  0  0  0  0  0  0  0  0  0  0
    7.5783  -15.3862   25.8874 C   0  0  2  0  0  0  0  0  0  0  0  0
    8.6505  -14.4537   26.1091 N   0  0  0  0  0  0  0  0  0  0  0  0
    7.5807  -15.8959   24.4785 C   0  0  0  0  0  0  0  0  0  0  0  0
    6.7577  -16.7624   24.0894 O   0  0  0  0  0  0  0  0  0  0  0  0
    6.9120  -14.3364   21.4219 C   0  0  0  0  0  0  0  0  0  0  0  0
    8.1955  -15.0283   21.1396 C   0  0  1  0  0  0  0  0  0  0  0  0
    9.1960  -14.0194   21.2114 O   0  0  0  0  0  0  0  0  0  0  0  0
    8.6304  -16.0482   22.1710 C   0  0  2  0  0  0  0  0  0  0  0  0
    8.5138  -15.4236   23.5158 N   0  0  0  0  0  0  0  0  0  0  0  0
    9.9944  -16.5594   21.9788 C   0  0  0  0  0  0  0  0  0  0  0  0
   10.9513  -15.9608   22.5642 O   0  0  0  0  0  0  0  0  0  0  0  0
   10.3091  -17.6649   21.1937 N   0  0  0  0  0  0  0  0  0  0  0  0
   11.6712  -18.1658   21.0170 C   0  0  1  0  0  0  0  0  0  0  0  0
   11.9702  -19.1093   22.1524 C   0  0  0  0  0  0  0  0  0  0  0  0
   13.3357  -19.6420   22.1420 C   0  0  0  0  0  0  0  0  0  0  0  0
   14.1575  -19.2411   21.2890 O   0  0  0  0  0  0  0  0  0  0  0  0
   11.7499  -18.9414   19.7408 C   0  0  0  0  0  0  0  0  0  0  0  0
   10.6850  -19.2738   19.1637 O   0  0  0  0  0  0  0  0  0  0  0  0
   13.6981  -20.5973   23.0945 O   0  0  0  0  0  0  0  0  0  0  0  0
   12.9712  -19.2842   19.2098 O   0  0  0  0  0  0  0  0  0  0  0  0
  2  1  1  0
  2  3  1  0
  4  3  1  0
  4  5  1  0
  5  6  1  6
  7  5  1  0
  7  8  2  0
 10  9  1  1
 10 12  1  0
 11 10  1  0
 12 13  1  1
 12 14  1  0
 13  7  1  0
 14 16  1  0
 15 14  2  0
 16 17  1  0
 17 21  1  0
 17 18  1  1
 19 18  1  0
 20 19  2  0
 21 22  2  0
 21 24  1  0
 23 19  1  0
M  END
$$$$
