MTD.pdb
     RDKit          3D

 24 23  0  0  1  0  0  0  0  0999 V2000
    6.8601  -10.5124   26.2153 C   0  0  0  0  0  0  0  0  0  0  0  0
    7.6965  -11.8207   27.1697 S   0  0  0  0  0  0  0  0  0  0  0  0
    7.0098  -13.4326   26.7118 C   0  0  0  0  0  0  0  0  0  0  0  0
    6.5577  -13.4340   25.2591 C   0  0  0  0  0  0  0  0  0  0  0  0
    5.8956  -14.7360   24.8915 C   0  0  2  0  0  0  0  0  0  0  0  0
    5.1003  -15.2630   25.9676 N   0  0  0  0  0  0  0  0  0  0  0  0
    6.9506  -15.7106   24.4645 C   0  0  0  0  0  0  0  0  0  0  0  0
    7.0629  -16.8395   25.0054 O   0  0  0  0  0  0  0  0  0  0  0  0
    7.6798  -15.9210   20.6748 C   0  0  0  0  0  0  0  0  0  0  0  0
    8.9454  -16.2036   21.3990 C   0  0  1  0  0  0  0  0  0  0  0  0
    9.7160  -15.0119   21.2987 O   0  0  0  0  0  0  0  0  0  0  0  0
    8.8105  -16.4270   22.8906 C   0  0  2  0  0  0  0  0  0  0  0  0
    7.8737  -15.4043   23.4280 N   0  0  0  0  0  0  0  0  0  0  0  0
   10.0800  -16.3720   23.6280 C   0  0  0  0  0  0  0  0  0  0  0  0
   10.4237  -15.2677   24.1564 O   0  0  0  0  0  0  0  0  0  0  0  0
   10.9361  -17.4578   23.7884 N   0  0  0  0  0  0  0  0  0  0  0  0
   12.1535  -17.4112   24.5966 C   0  0  1  0  0  0  0  0  0  0  0  0
   12.2967  -18.7368   25.2975 C   0  0  0  0  0  0  0  0  0  0  0  0
   11.4782  -18.8641   26.5068 C   0  0  0  0  0  0  0  0  0  0  0  0
   11.4807  -17.9527   27.3630 O   0  0  0  0  0  0  0  0  0  0  0  0
   13.3358  -17.2354   23.6979 C   0  0  0  0  0  0  0  0  0  0  0  0
   14.4760  -17.1099   24.2093 O   0  0  0  0  0  0  0  0  0  0  0  0
   10.7025  -20.0123   26.6828 O   0  0  0  0  0  0  0  0  0  0  0  0
   13.1737  -17.2117   22.3326 O   0  0  0  0  0  0  0  0  0  0  0  0
  2  1  1  0
  2  3  1  0
  4  3  1  0
  4  5  1  0
  5  6  1  1
  7  5  1  0
  7  8  2  0
 10  9  1  1
 10 12  1  0
 11 10  1  0
 12 13  1  1
 12 14  1  0
 13  7  1  0
 14 16  1  0
 15 14  2  0
 16 17  1  0
 17 21  1  0
 17 18  1  6
 19 18  1  0
 20 19  2  0
 21 22  2  0
 21 24  1  0
 23 19  1  0
M  END
$$$$
