MTD.pdb
     RDKit          3D

 24 23  0  0  1  0  0  0  0  0999 V2000
    6.5790  -10.7880   25.5444 C   0  0  0  0  0  0  0  0  0  0  0  0
    7.1880  -11.8921   26.8605 S   0  0  0  0  0  0  0  0  0  0  0  0
    5.9723  -13.2006   27.1592 C   0  0  0  0  0  0  0  0  0  0  0  0
    5.9701  -14.2065   26.0177 C   0  0  0  0  0  0  0  0  0  0  0  0
    7.1668  -15.1185   26.0874 C   0  0  2  0  0  0  0  0  0  0  0  0
    8.3534  -14.4252   26.5108 N   0  0  0  0  0  0  0  0  0  0  0  0
    7.3602  -15.7645   24.7493 C   0  0  0  0  0  0  0  0  0  0  0  0
    6.4974  -16.5354   24.2584 O   0  0  0  0  0  0  0  0  0  0  0  0
    7.1114  -14.5529   21.6726 C   0  0  0  0  0  0  0  0  0  0  0  0
    8.4248  -15.2378   21.5633 C   0  0  1  0  0  0  0  0  0  0  0  0
    9.4018  -14.2155   21.7189 O   0  0  0  0  0  0  0  0  0  0  0  0
    8.7450  -16.2207   22.6699 C   0  0  2  0  0  0  0  0  0  0  0  0
    8.5285  -15.5361   23.9725 N   0  0  0  0  0  0  0  0  0  0  0  0
   10.1077  -16.7674   22.6181 C   0  0  0  0  0  0  0  0  0  0  0  0
   11.0314  -16.1450   23.2312 O   0  0  0  0  0  0  0  0  0  0  0  0
   10.4554  -17.9312   21.9382 N   0  0  0  0  0  0  0  0  0  0  0  0
   11.8167  -18.4627   21.8949 C   0  0  1  0  0  0  0  0  0  0  0  0
   11.7328  -19.9633   21.9932 C   0  0  0  0  0  0  0  0  0  0  0  0
   11.2988  -20.4523   23.3051 C   0  0  0  0  0  0  0  0  0  0  0  0
   12.0436  -20.3186   24.3006 O   0  0  0  0  0  0  0  0  0  0  0  0
   12.4378  -18.1214   20.5781 C   0  0  0  0  0  0  0  0  0  0  0  0
   11.7391  -17.5491   19.7054 O   0  0  0  0  0  0  0  0  0  0  0  0
   10.0488  -21.0649   23.4209 O   0  0  0  0  0  0  0  0  0  0  0  0
   13.7544  -18.4308   20.3295 O   0  0  0  0  0  0  0  0  0  0  0  0
  2  1  1  0
  2  3  1  0
  4  3  1  0
  4  5  1  0
  5  6  1  6
  7  5  1  0
  7  8  2  0
 10  9  1  1
 10 12  1  0
 11 10  1  0
 12 13  1  1
 12 14  1  0
 13  7  1  0
 14 16  1  0
 15 14  2  0
 16 17  1  0
 17 21  1  0
 17 18  1  6
 19 18  1  0
 20 19  2  0
 21 22  2  0
 21 24  1  0
 23 19  1  0
M  END
$$$$
