MTD.pdb
     RDKit          3D

 24 23  0  0  1  0  0  0  0  0999 V2000
    6.0894  -10.9601   27.0922 C   0  0  0  0  0  0  0  0  0  0  0  0
    6.9670  -12.2580   26.1608 S   0  0  0  0  0  0  0  0  0  0  0  0
    7.1840  -13.7138   27.2157 C   0  0  0  0  0  0  0  0  0  0  0  0
    7.9427  -14.8070   26.4780 C   0  0  0  0  0  0  0  0  0  0  0  0
    7.1251  -15.3759   25.3482 C   0  0  2  0  0  0  0  0  0  0  0  0
    5.9694  -16.0896   25.8206 N   0  0  0  0  0  0  0  0  0  0  0  0
    8.0039  -16.2539   24.5104 C   0  0  0  0  0  0  0  0  0  0  0  0
    8.0382  -17.4997   24.6727 O   0  0  0  0  0  0  0  0  0  0  0  0
    7.9811  -16.3798   20.8459 C   0  0  0  0  0  0  0  0  0  0  0  0
    9.4191  -16.3363   21.2152 C   0  0  1  0  0  0  0  0  0  0  0  0
    9.8255  -14.9890   21.0065 O   0  0  0  0  0  0  0  0  0  0  0  0
    9.7280  -16.5889   22.6760 C   0  0  2  0  0  0  0  0  0  0  0  0
    8.8402  -15.7191   23.4930 N   0  0  0  0  0  0  0  0  0  0  0  0
   11.1299  -16.3540   23.0475 C   0  0  0  0  0  0  0  0  0  0  0  0
   11.4341  -15.2416   23.5829 O   0  0  0  0  0  0  0  0  0  0  0  0
   12.1534  -17.2768   22.8517 N   0  0  0  0  0  0  0  0  0  0  0  0
   13.5353  -17.0480   23.2705 C   0  0  1  0  0  0  0  0  0  0  0  0
   14.2473  -18.3753   23.2679 C   0  0  0  0  0  0  0  0  0  0  0  0
   13.8181  -19.2850   24.3341 C   0  0  0  0  0  0  0  0  0  0  0  0
   13.6275  -18.8485   25.4903 O   0  0  0  0  0  0  0  0  0  0  0  0
   14.2119  -16.1605   22.2751 C   0  0  0  0  0  0  0  0  0  0  0  0
   13.6448  -15.9328   21.1779 O   0  0  0  0  0  0  0  0  0  0  0  0
   13.6280  -20.6365   24.0367 O   0  0  0  0  0  0  0  0  0  0  0  0
   15.4366  -15.6035   22.5597 O   0  0  0  0  0  0  0  0  0  0  0  0
  2  1  1  0
  2  3  1  0
  4  3  1  0
  4  5  1  0
  5  6  1  1
  7  5  1  0
  7  8  2  0
 10  9  1  1
 10 12  1  0
 11 10  1  0
 12 13  1  1
 12 14  1  0
 13  7  1  0
 14 16  1  0
 15 14  2  0
 16 17  1  0
 17 21  1  0
 17 18  1  6
 19 18  1  0
 20 19  2  0
 21 22  2  0
 21 24  1  0
 23 19  1  0
M  END
$$$$
