MTD.pdb
     RDKit          3D

 24 23  0  0  1  0  0  0  0  0999 V2000
   14.6345  -18.7073   16.1523 C   0  0  0  0  0  0  0  0  0  0  0  0
   14.4187  -17.5849   14.7325 S   0  0  0  0  0  0  0  0  0  0  0  0
   12.8095  -16.7633   14.8537 C   0  0  0  0  0  0  0  0  0  0  0  0
   12.6543  -16.0758   16.2020 C   0  0  0  0  0  0  0  0  0  0  0  0
   11.3330  -15.3601   16.3044 C   0  0  2  0  0  0  0  0  0  0  0  0
   11.1401  -14.4210   15.2324 N   0  0  0  0  0  0  0  0  0  0  0  0
   11.2503  -14.6875   17.6408 C   0  0  0  0  0  0  0  0  0  0  0  0
   11.8991  -13.6412   17.8935 O   0  0  0  0  0  0  0  0  0  0  0  0
    8.4832  -13.0410   19.3019 C   0  0  0  0  0  0  0  0  0  0  0  0
    8.9737  -14.0646   20.2598 C   0  0  1  0  0  0  0  0  0  0  0  0
    8.1671  -15.2147   20.0346 O   0  0  0  0  0  0  0  0  0  0  0  0
   10.3862  -14.5574   20.0253 C   0  0  2  0  0  0  0  0  0  0  0  0
   10.4344  -15.2010   18.6852 N   0  0  0  0  0  0  0  0  0  0  0  0
   10.8765  -15.4961   21.0436 C   0  0  0  0  0  0  0  0  0  0  0  0
   10.8077  -16.7420   20.7990 O   0  0  0  0  0  0  0  0  0  0  0  0
   11.4166  -15.1078   22.2663 N   0  0  0  0  0  0  0  0  0  0  0  0
   11.8494  -16.0546   23.2929 C   0  0  1  0  0  0  0  0  0  0  0  0
   13.1804  -15.5891   23.8226 C   0  0  0  0  0  0  0  0  0  0  0  0
   14.2882  -15.7482   22.8760 C   0  0  0  0  0  0  0  0  0  0  0  0
   14.5171  -16.8651   22.3625 O   0  0  0  0  0  0  0  0  0  0  0  0
   10.8716  -16.0365   24.4242 C   0  0  0  0  0  0  0  0  0  0  0  0
    9.9553  -15.1777   24.4234 O   0  0  0  0  0  0  0  0  0  0  0  0
   15.0762  -14.6385   22.5617 O   0  0  0  0  0  0  0  0  0  0  0  0
   10.9769  -16.9479   25.4486 O   0  0  0  0  0  0  0  0  0  0  0  0
  2  1  1  0
  2  3  1  0
  4  3  1  0
  4  5  1  0
  5  6  1  6
  7  5  1  0
  7  8  2  0
 10  9  1  6
 10 12  1  0
 11 10  1  0
 12 13  1  6
 12 14  1  0
 13  7  1  0
 14 16  1  0
 15 14  2  0
 16 17  1  0
 17 21  1  0
 17 18  1  1
 19 18  1  0
 20 19  2  0
 21 22  2  0
 21 24  1  0
 23 19  1  0
M  END
$$$$
