MTD.pdb
     RDKit          3D

 24 23  0  0  1  0  0  0  0  0999 V2000
    7.0895  -11.0101   26.6287 C   0  0  0  0  0  0  0  0  0  0  0  0
    7.2825  -12.3783   27.8173 S   0  0  0  0  0  0  0  0  0  0  0  0
    6.5019  -13.8700   27.1502 C   0  0  0  0  0  0  0  0  0  0  0  0
    7.3063  -14.4251   25.9842 C   0  0  0  0  0  0  0  0  0  0  0  0
    6.6755  -15.6745   25.4276 C   0  0  2  0  0  0  0  0  0  0  0  0
    6.3840  -16.6386   26.4541 N   0  0  0  0  0  0  0  0  0  0  0  0
    7.5818  -16.2483   24.3814 C   0  0  0  0  0  0  0  0  0  0  0  0
    8.0313  -17.4187   24.4684 O   0  0  0  0  0  0  0  0  0  0  0  0
    6.8019  -15.7325   20.6780 C   0  0  0  0  0  0  0  0  0  0  0  0
    8.2757  -15.6355   20.8344 C   0  0  1  0  0  0  0  0  0  0  0  0
    8.5725  -14.2448   20.7937 O   0  0  0  0  0  0  0  0  0  0  0  0
    8.8235  -16.0871   22.1719 C   0  0  2  0  0  0  0  0  0  0  0  0
    7.9758  -15.4959   23.2416 N   0  0  0  0  0  0  0  0  0  0  0  0
   10.2303  -15.7308   22.4011 C   0  0  0  0  0  0  0  0  0  0  0  0
   10.4946  -14.8512   23.2805 O   0  0  0  0  0  0  0  0  0  0  0  0
   11.3000  -16.2984   21.7148 N   0  0  0  0  0  0  0  0  0  0  0  0
   12.6906  -16.1802   22.1507 C   0  0  1  0  0  0  0  0  0  0  0  0
   12.8280  -16.9011   23.4660 C   0  0  0  0  0  0  0  0  0  0  0  0
   13.9844  -16.4774   24.2610 C   0  0  0  0  0  0  0  0  0  0  0  0
   14.1569  -16.9392   25.4102 O   0  0  0  0  0  0  0  0  0  0  0  0
   13.5782  -16.8603   21.1578 C   0  0  0  0  0  0  0  0  0  0  0  0
   14.7150  -16.3788   20.9272 O   0  0  0  0  0  0  0  0  0  0  0  0
   14.8816  -15.5564   23.7152 O   0  0  0  0  0  0  0  0  0  0  0  0
   13.1533  -17.9957   20.5087 O   0  0  0  0  0  0  0  0  0  0  0  0
  2  1  1  0
  2  3  1  0
  4  3  1  0
  4  5  1  0
  5  6  1  1
  7  5  1  0
  7  8  2  0
 10  9  1  1
 10 12  1  0
 11 10  1  0
 12 13  1  1
 12 14  1  0
 13  7  1  0
 14 16  1  0
 15 14  2  0
 16 17  1  0
 17 21  1  0
 17 18  1  1
 19 18  1  0
 20 19  2  0
 21 22  2  0
 21 24  1  0
 23 19  1  0
M  END
$$$$
