MTD.pdb
     RDKit          3D

 24 23  0  0  1  0  0  0  0  0999 V2000
    8.4498  -12.1467   20.6882 C   0  0  0  0  0  0  0  0  0  0  0  0
    7.4305  -12.2319   19.1795 S   0  0  0  0  0  0  0  0  0  0  0  0
    8.1198  -13.4741   18.0565 C   0  0  0  0  0  0  0  0  0  0  0  0
    8.5193  -14.7287   18.8187 C   0  0  0  0  0  0  0  0  0  0  0  0
    9.0375  -15.7943   17.8887 C   0  0  2  0  0  0  0  0  0  0  0  0
    8.0726  -16.1546   16.8852 N   0  0  0  0  0  0  0  0  0  0  0  0
    9.4514  -16.9840   18.7002 C   0  0  0  0  0  0  0  0  0  0  0  0
    8.6438  -17.9063   18.9771 O   0  0  0  0  0  0  0  0  0  0  0  0
   11.0305  -19.8417   17.9453 C   0  0  0  0  0  0  0  0  0  0  0  0
   11.8837  -19.2814   19.0241 C   0  0  1  0  0  0  0  0  0  0  0  0
   12.8523  -18.4752   18.3639 O   0  0  0  0  0  0  0  0  0  0  0  0
   11.1951  -18.3223   19.9722 C   0  0  2  0  0  0  0  0  0  0  0  0
   10.7764  -17.1252   19.1949 N   0  0  0  0  0  0  0  0  0  0  0  0
   12.0180  -17.9070   21.1163 C   0  0  0  0  0  0  0  0  0  0  0  0
   12.6650  -16.8158   21.0299 O   0  0  0  0  0  0  0  0  0  0  0  0
   12.1349  -18.6343   22.2973 N   0  0  0  0  0  0  0  0  0  0  0  0
   12.9558  -18.2065   23.4290 C   0  0  1  0  0  0  0  0  0  0  0  0
   12.4519  -18.9112   24.6611 C   0  0  0  0  0  0  0  0  0  0  0  0
   13.2021  -18.5932   25.8795 C   0  0  0  0  0  0  0  0  0  0  0  0
   14.2064  -17.8505   25.8202 O   0  0  0  0  0  0  0  0  0  0  0  0
   14.3709  -18.6330   23.2009 C   0  0  0  0  0  0  0  0  0  0  0  0
   15.2699  -18.1902   23.9579 O   0  0  0  0  0  0  0  0  0  0  0  0
   12.7777  -19.1307   27.0969 O   0  0  0  0  0  0  0  0  0  0  0  0
   14.6800  -19.4970   22.1767 O   0  0  0  0  0  0  0  0  0  0  0  0
  2  1  1  0
  2  3  1  0
  4  3  1  0
  4  5  1  0
  5  6  1  6
  7  5  1  0
  7  8  2  0
 10  9  1  6
 10 12  1  0
 11 10  1  0
 12 13  1  6
 12 14  1  0
 13  7  1  0
 14 16  1  0
 15 14  2  0
 16 17  1  0
 17 21  1  0
 17 18  1  1
 19 18  1  0
 20 19  2  0
 21 22  2  0
 21 24  1  0
 23 19  1  0
M  END
$$$$
