MTD.pdb
     RDKit          3D

 24 23  0  0  1  0  0  0  0  0999 V2000
    7.7062  -11.9917   27.8926 C   0  0  0  0  0  0  0  0  0  0  0  0
    6.2599  -11.6742   26.8299 S   0  0  0  0  0  0  0  0  0  0  0  0
    5.7213  -13.2256   26.0666 C   0  0  0  0  0  0  0  0  0  0  0  0
    6.9187  -14.0655   25.6475 C   0  0  0  0  0  0  0  0  0  0  0  0
    6.4855  -15.3465   24.9843 C   0  0  2  0  0  0  0  0  0  0  0  0
    5.7447  -16.1962   25.8772 N   0  0  0  0  0  0  0  0  0  0  0  0
    7.6967  -16.0450   24.4455 C   0  0  0  0  0  0  0  0  0  0  0  0
    8.2325  -17.0028   25.0579 O   0  0  0  0  0  0  0  0  0  0  0  0
    7.8546  -16.1943   20.5028 C   0  0  0  0  0  0  0  0  0  0  0  0
    9.2308  -16.2644   21.0572 C   0  0  1  0  0  0  0  0  0  0  0  0
    9.7793  -14.9636   20.8809 O   0  0  0  0  0  0  0  0  0  0  0  0
    9.3242  -16.5010   22.5499 C   0  0  2  0  0  0  0  0  0  0  0  0
    8.2966  -15.6572   23.2166 N   0  0  0  0  0  0  0  0  0  0  0  0
   10.6461  -16.2191   23.1258 C   0  0  0  0  0  0  0  0  0  0  0  0
   10.8529  -15.0696   23.6284 O   0  0  0  0  0  0  0  0  0  0  0  0
   11.6936  -17.1353   23.1587 N   0  0  0  0  0  0  0  0  0  0  0  0
   13.0096  -16.8345   23.7201 C   0  0  1  0  0  0  0  0  0  0  0  0
   13.7352  -18.1380   23.9272 C   0  0  0  0  0  0  0  0  0  0  0  0
   13.3108  -18.8742   25.1216 C   0  0  0  0  0  0  0  0  0  0  0  0
   13.5797  -20.0901   25.2357 O   0  0  0  0  0  0  0  0  0  0  0  0
   13.7915  -16.0232   22.7369 C   0  0  0  0  0  0  0  0  0  0  0  0
   13.4438  -16.0282   21.5301 O   0  0  0  0  0  0  0  0  0  0  0  0
   12.6068  -18.1978   26.1205 O   0  0  0  0  0  0  0  0  0  0  0  0
   14.8746  -15.2839   23.1510 O   0  0  0  0  0  0  0  0  0  0  0  0
  2  1  1  0
  2  3  1  0
  4  3  1  0
  4  5  1  0
  5  6  1  1
  7  5  1  0
  7  8  2  0
 10  9  1  1
 10 12  1  0
 11 10  1  0
 12 13  1  1
 12 14  1  0
 13  7  1  0
 14 16  1  0
 15 14  2  0
 16 17  1  0
 17 21  1  0
 17 18  1  6
 19 18  1  0
 20 19  2  0
 21 22  2  0
 21 24  1  0
 23 19  1  0
M  END
$$$$
