GGK.pdb
     RDKit          3D

 18 17  0  0  1  0  0  0  0  0999 V2000
    6.4670  -17.7188   18.8979 N   0  0  0  0  0  0  0  0  0  0  0  0
    6.0753  -16.6086   19.7118 C   0  0  0  0  0  0  0  0  0  0  0  0
    7.1487  -15.5783   19.7865 C   0  0  0  0  0  0  0  0  0  0  0  0
    8.3424  -15.8312   19.4955 O   0  0  0  0  0  0  0  0  0  0  0  0
    6.7876  -14.2741   20.2027 N   0  0  0  0  0  0  0  0  0  0  0  0
    7.8084  -13.2328   20.3148 C   0  0  0  0  0  0  0  0  0  0  0  0
    8.4060  -13.3037   21.6757 C   0  0  0  0  0  0  0  0  0  0  0  0
    9.3380  -12.5287   22.0487 O   0  0  0  0  0  0  0  0  0  0  0  0
    7.9454  -14.2580   22.6204 N   0  0  0  0  0  0  0  0  0  0  0  0
    8.6057  -14.4090   23.9148 C   0  0  1  0  0  0  0  0  0  0  0  0
    7.6340  -14.1090   25.0072 C   0  0  0  0  0  0  0  0  0  0  0  0
    7.4567  -12.6566   25.3075 C   0  0  0  0  0  0  0  0  0  0  0  0
    6.4581  -12.4731   26.4567 C   0  0  0  0  0  0  0  0  0  0  0  0
    6.3259  -11.0039   26.7337 C   0  0  0  0  0  0  0  0  0  0  0  0
    5.3741  -10.7364   27.7846 N   0  0  0  0  0  0  0  0  0  0  0  0
    9.1976  -15.7552   23.9648 C   0  0  0  0  0  0  0  0  0  0  0  0
    9.9237  -16.1551   24.9152 O   0  0  0  0  0  0  0  0  0  0  0  0
    8.9777  -16.6854   22.9304 O   0  0  0  0  0  0  0  0  0  0  0  0
  1  2  1  0
  3  2  1  0
  3  5  1  0
  4  3  2  0
  6  5  1  0
  7  9  1  0
  7  6  1  0
  8  7  2  0
 10  9  1  0
 10 16  1  0
 10 11  1  1
 12 11  1  0
 13 14  1  0
 13 12  1  0
 14 15  1  0
 16 17  2  0
 16 18  1  0
M  END
$$$$
