GGK.pdb
     RDKit          3D

 18 17  0  0  1  0  0  0  0  0999 V2000
    0.8110  -19.5690   19.0415 N   0  0  0  0  0  0  0  0  0  0  0  0
    1.5848  -19.7418   20.2331 C   0  0  0  0  0  0  0  0  0  0  0  0
    2.9093  -19.0679   20.1289 C   0  0  0  0  0  0  0  0  0  0  0  0
    3.3083  -18.5342   19.0661 O   0  0  0  0  0  0  0  0  0  0  0  0
    3.7311  -19.0400   21.2814 N   0  0  0  0  0  0  0  0  0  0  0  0
    4.9925  -18.3001   21.2629 C   0  0  0  0  0  0  0  0  0  0  0  0
    5.6102  -18.3886   22.6139 C   0  0  0  0  0  0  0  0  0  0  0  0
    5.3480  -17.5578   23.5356 O   0  0  0  0  0  0  0  0  0  0  0  0
    6.5304  -19.4243   22.9232 N   0  0  0  0  0  0  0  0  0  0  0  0
    7.1574  -19.4999   24.2406 C   0  0  1  0  0  0  0  0  0  0  0  0
    6.8798  -20.8345   24.8482 C   0  0  0  0  0  0  0  0  0  0  0  0
    5.5290  -21.3940   24.5424 C   0  0  0  0  0  0  0  0  0  0  0  0
    5.5769  -22.9266   24.5558 C   0  0  0  0  0  0  0  0  0  0  0  0
    4.2098  -23.4422   24.2124 C   0  0  0  0  0  0  0  0  0  0  0  0
    4.1635  -24.8843   24.2030 N   0  0  0  0  0  0  0  0  0  0  0  0
    8.5840  -19.1771   24.0802 C   0  0  0  0  0  0  0  0  0  0  0  0
    9.3830  -19.0797   25.0511 O   0  0  0  0  0  0  0  0  0  0  0  0
    9.1410  -18.9559   22.8057 O   0  0  0  0  0  0  0  0  0  0  0  0
  1  2  1  0
  3  2  1  0
  3  5  1  0
  4  3  2  0
  6  5  1  0
  7  9  1  0
  7  6  1  0
  8  7  2  0
 10  9  1  0
 10 16  1  0
 10 11  1  6
 12 11  1  0
 13 14  1  0
 13 12  1  0
 14 15  1  0
 16 17  2  0
 16 18  1  0
M  END
$$$$
