GGK.pdb
     RDKit          3D

 18 17  0  0  1  0  0  0  0  0999 V2000
    7.8872  -13.1443   17.1212 N   0  0  0  0  0  0  0  0  0  0  0  0
    8.7675  -13.1692   18.2494 C   0  0  0  0  0  0  0  0  0  0  0  0
    8.3124  -14.1458   19.2782 C   0  0  0  0  0  0  0  0  0  0  0  0
    7.0981  -14.3562   19.5123 O   0  0  0  0  0  0  0  0  0  0  0  0
    9.3012  -14.8509   20.0059 N   0  0  0  0  0  0  0  0  0  0  0  0
    8.9102  -15.9148   20.9301 C   0  0  0  0  0  0  0  0  0  0  0  0
    9.3654  -15.5421   22.2969 C   0  0  0  0  0  0  0  0  0  0  0  0
   10.5179  -15.0625   22.5211 O   0  0  0  0  0  0  0  0  0  0  0  0
    8.5104  -15.7136   23.4171 N   0  0  0  0  0  0  0  0  0  0  0  0
    8.9925  -15.4601   24.7727 C   0  0  1  0  0  0  0  0  0  0  0  0
    7.8630  -14.9775   25.6205 C   0  0  0  0  0  0  0  0  0  0  0  0
    7.6675  -13.4967   25.6214 C   0  0  0  0  0  0  0  0  0  0  0  0
    6.4981  -13.1190   26.5385 C   0  0  0  0  0  0  0  0  0  0  0  0
    6.3927  -11.6221   26.5728 C   0  0  0  0  0  0  0  0  0  0  0  0
    5.2801  -11.1777   27.3768 N   0  0  0  0  0  0  0  0  0  0  0  0
    9.6490  -16.6856   25.2545 C   0  0  0  0  0  0  0  0  0  0  0  0
    9.3940  -17.8318   24.7945 O   0  0  0  0  0  0  0  0  0  0  0  0
   10.6168  -16.6387   26.2767 O   0  0  0  0  0  0  0  0  0  0  0  0
  1  2  1  0
  3  2  1  0
  3  5  1  0
  4  3  2  0
  6  5  1  0
  7  9  1  0
  7  6  1  0
  8  7  2  0
 10  9  1  0
 10 16  1  0
 10 11  1  1
 12 11  1  0
 13 14  1  0
 13 12  1  0
 14 15  1  0
 16 17  2  0
 16 18  1  0
M  END
$$$$
