MIP.pdb
     RDKit          3D

 24 24  0  0  1  0  0  0  0  0999 V2000
   11.9065  -18.8434   21.0889 C   0  0  0  0  0  0  0  0  0  0  0  0
   10.3654  -19.6056   21.6757 S   0  0  0  0  0  0  0  0  0  0  0  0
    9.1144  -18.2725   21.7672 C   0  0  0  0  0  0  0  0  0  0  0  0
    9.8304  -16.9849   21.4445 C   0  0  0  0  0  0  0  0  0  0  0  0
    8.8971  -15.7929   21.5402 C   0  0  2  0  0  0  0  0  0  0  0  0
    9.2169  -14.9012   20.4487 N   0  0  0  0  0  0  0  0  0  0  0  0
    9.0666  -15.0810   22.8319 C   0  0  0  0  0  0  0  0  0  0  0  0
   10.1235  -14.3629   22.9147 O   0  0  0  0  0  0  0  0  0  0  0  0
    5.6722  -11.9840   25.6494 C   0  0  0  0  0  0  0  0  0  0  0  0
    6.9100  -12.6660   25.0534 C   0  0  0  0  0  0  0  0  0  0  0  0
    7.2169  -13.9412   25.7824 C   0  0  2  0  0  0  0  0  0  0  0  0
    7.2376  -13.6612   27.2557 C   0  0  0  0  0  0  0  0  0  0  0  0
    8.4052  -14.6278   25.2208 C   0  0  2  0  0  0  0  0  0  0  0  0
    8.1518  -15.1702   23.9003 N   0  0  0  0  0  0  0  0  0  0  0  0
    9.1453  -15.5304   26.0934 C   0  0  0  0  0  0  0  0  0  0  0  0
    9.2328  -16.7511   25.6869 O   0  0  0  0  0  0  0  0  0  0  0  0
    9.7801  -15.2648   27.3232 N   0  0  0  0  0  0  0  0  0  0  0  0
    9.6299  -14.2342   28.3178 C   0  0  0  0  0  0  0  0  0  0  0  0
   10.9872  -14.1288   29.0111 C   0  0  0  0  0  0  0  0  0  0  0  0
   11.8787  -15.1083   28.2665 C   0  0  0  0  0  0  0  0  0  0  0  0
   10.8369  -16.1389   27.8716 C   0  0  1  0  0  0  0  0  0  0  0  0
   10.3384  -16.9041   29.0388 C   0  0  0  0  0  0  0  0  0  0  0  0
   11.1223  -17.8107   29.7255 O   0  0  0  0  0  0  0  0  0  0  0  0
    9.1592  -16.7284   29.4258 O   0  0  0  0  0  0  0  0  0  0  0  0
  1  2  1  0
  3  2  1  0
  4  3  1  0
  5  7  1  0
  5  4  1  0
  5  6  1  6
  7  8  2  0
  9 10  1  0
 10 11  1  0
 11 12  1  1
 13 11  1  0
 13 14  1  6
 14  7  1  0
 15 16  2  0
 15 13  1  0
 17 15  1  0
 18 17  1  0
 19 18  1  0
 20 19  1  0
 20 21  1  0
 21 22  1  1
 21 17  1  0
 22 23  1  0
 24 22  2  0
M  END
$$$$
