MIP.pdb
     RDKit          3D

 24 24  0  0  1  0  0  0  0  0999 V2000
   10.8934  -18.5055   27.6530 C   0  0  0  0  0  0  0  0  0  0  0  0
   10.1795  -20.1407   27.9945 S   0  0  0  0  0  0  0  0  0  0  0  0
    8.3725  -19.9952   27.7410 C   0  0  0  0  0  0  0  0  0  0  0  0
    8.1705  -18.9861   26.6383 C   0  0  0  0  0  0  0  0  0  0  0  0
    6.7096  -18.6023   26.4993 C   0  0  2  0  0  0  0  0  0  0  0  0
    6.0207  -19.7223   25.8992 N   0  0  0  0  0  0  0  0  0  0  0  0
    6.5496  -17.4009   25.6421 C   0  0  0  0  0  0  0  0  0  0  0  0
    6.0656  -17.6315   24.4793 O   0  0  0  0  0  0  0  0  0  0  0  0
    6.2940  -12.1470   27.4927 C   0  0  0  0  0  0  0  0  0  0  0  0
    6.0477  -13.3538   26.5787 C   0  0  0  0  0  0  0  0  0  0  0  0
    7.2917  -13.7063   25.8171 C   0  0  2  0  0  0  0  0  0  0  0  0
    7.6859  -12.5340   24.9687 C   0  0  0  0  0  0  0  0  0  0  0  0
    7.1668  -15.0128   25.1268 C   0  0  2  0  0  0  0  0  0  0  0  0
    6.8949  -16.0969   26.0503 N   0  0  0  0  0  0  0  0  0  0  0  0
    8.1574  -15.3427   24.1102 C   0  0  0  0  0  0  0  0  0  0  0  0
    9.0595  -16.1926   24.4667 O   0  0  0  0  0  0  0  0  0  0  0  0
    8.2768  -14.8655   22.7897 N   0  0  0  0  0  0  0  0  0  0  0  0
    7.7862  -13.6965   22.1065 C   0  0  0  0  0  0  0  0  0  0  0  0
    7.6814  -14.0923   20.6347 C   0  0  0  0  0  0  0  0  0  0  0  0
    8.0691  -15.5610   20.6008 C   0  0  0  0  0  0  0  0  0  0  0  0
    9.0516  -15.5835   21.7573 C   0  0  1  0  0  0  0  0  0  0  0  0
   10.3057  -14.8610   21.4384 C   0  0  0  0  0  0  0  0  0  0  0  0
   10.7009  -13.7213   22.1115 O   0  0  0  0  0  0  0  0  0  0  0  0
   11.0440  -15.2938   20.5226 O   0  0  0  0  0  0  0  0  0  0  0  0
  1  2  1  0
  3  2  1  0
  4  3  1  0
  5  7  1  0
  5  4  1  0
  5  6  1  6
  7  8  2  0
  9 10  1  0
 10 11  1  0
 11 12  1  6
 13 11  1  0
 13 14  1  1
 14  7  1  0
 15 16  2  0
 15 13  1  0
 17 15  1  0
 18 17  1  0
 19 18  1  0
 20 19  1  0
 20 21  1  0
 21 22  1  6
 21 17  1  0
 22 23  1  0
 24 22  2  0
M  END
$$$$
