MIP.pdb
     RDKit          3D

 24 24  0  0  1  0  0  0  0  0999 V2000
   10.8769  -18.6503   27.1083 C   0  0  0  0  0  0  0  0  0  0  0  0
   10.0788  -19.8030   28.2634 S   0  0  0  0  0  0  0  0  0  0  0  0
    8.2814  -19.7374   27.9230 C   0  0  0  0  0  0  0  0  0  0  0  0
    8.0978  -18.8107   26.7473 C   0  0  0  0  0  0  0  0  0  0  0  0
    6.6300  -18.5283   26.4885 C   0  0  2  0  0  0  0  0  0  0  0  0
    6.0765  -19.6828   25.8178 N   0  0  0  0  0  0  0  0  0  0  0  0
    6.4572  -17.3256   25.6355 C   0  0  0  0  0  0  0  0  0  0  0  0
    5.9745  -17.5570   24.4724 O   0  0  0  0  0  0  0  0  0  0  0  0
    6.3047  -12.1149   27.5744 C   0  0  0  0  0  0  0  0  0  0  0  0
    6.0348  -13.3343   26.6841 C   0  0  0  0  0  0  0  0  0  0  0  0
    7.2240  -13.6350   25.8199 C   0  0  2  0  0  0  0  0  0  0  0  0
    7.5051  -12.4425   24.9548 C   0  0  0  0  0  0  0  0  0  0  0  0
    7.0900  -14.9399   25.1282 C   0  0  2  0  0  0  0  0  0  0  0  0
    6.7898  -16.0197   26.0480 N   0  0  0  0  0  0  0  0  0  0  0  0
    8.0899  -15.2844   24.1256 C   0  0  0  0  0  0  0  0  0  0  0  0
    8.9852  -16.1334   24.5006 O   0  0  0  0  0  0  0  0  0  0  0  0
    8.2245  -14.8221   22.8012 N   0  0  0  0  0  0  0  0  0  0  0  0
    7.7497  -13.6563   22.1016 C   0  0  0  0  0  0  0  0  0  0  0  0
    7.6540  -14.0667   20.6332 C   0  0  0  0  0  0  0  0  0  0  0  0
    8.0295  -15.5389   20.6179 C   0  0  0  0  0  0  0  0  0  0  0  0
    9.0019  -15.5574   21.7830 C   0  0  1  0  0  0  0  0  0  0  0  0
   10.2647  -14.8489   21.4674 C   0  0  0  0  0  0  0  0  0  0  0  0
   11.2009  -15.3520   20.5850 O   0  0  0  0  0  0  0  0  0  0  0  0
   10.5017  -13.7483   22.0183 O   0  0  0  0  0  0  0  0  0  0  0  0
  1  2  1  0
  3  2  1  0
  4  3  1  0
  5  7  1  0
  5  4  1  0
  5  6  1  6
  7  8  2  0
  9 10  1  0
 10 11  1  0
 11 12  1  6
 13 11  1  0
 13 14  1  1
 14  7  1  0
 15 16  2  0
 15 13  1  0
 17 15  1  0
 18 17  1  0
 19 18  1  0
 20 19  1  0
 20 21  1  0
 21 22  1  6
 21 17  1  0
 22 23  1  0
 24 22  2  0
M  END
$$$$
