MIP.pdb
     RDKit          3D

 24 24  0  0  1  0  0  0  0  0999 V2000
   10.5833  -20.4564   25.3996 C   0  0  0  0  0  0  0  0  0  0  0  0
   12.2092  -20.6650   24.6166 S   0  0  0  0  0  0  0  0  0  0  0  0
   12.1767  -19.7028   23.0597 C   0  0  0  0  0  0  0  0  0  0  0  0
   11.5228  -18.3823   23.3812 C   0  0  0  0  0  0  0  0  0  0  0  0
   11.3589  -17.5282   22.1384 C   0  0  2  0  0  0  0  0  0  0  0  0
   12.6763  -17.3040   21.5877 N   0  0  0  0  0  0  0  0  0  0  0  0
   10.7255  -16.2252   22.4625 C   0  0  0  0  0  0  0  0  0  0  0  0
   11.5248  -15.3411   22.9303 O   0  0  0  0  0  0  0  0  0  0  0  0
    7.2067  -13.2861   19.6322 C   0  0  0  0  0  0  0  0  0  0  0  0
    8.2837  -13.8088   20.5909 C   0  0  0  0  0  0  0  0  0  0  0  0
    7.6736  -14.2365   21.8934 C   0  0  2  0  0  0  0  0  0  0  0  0
    6.8205  -13.1191   22.4160 C   0  0  0  0  0  0  0  0  0  0  0  0
    8.6870  -14.7889   22.8246 C   0  0  2  0  0  0  0  0  0  0  0  0
    9.3544  -15.9549   22.2795 N   0  0  0  0  0  0  0  0  0  0  0  0
    8.3184  -14.9265   24.2278 C   0  0  0  0  0  0  0  0  0  0  0  0
    8.5120  -16.0928   24.7427 O   0  0  0  0  0  0  0  0  0  0  0  0
    7.7765  -13.9688   25.1081 N   0  0  0  0  0  0  0  0  0  0  0  0
    7.1837  -12.6696   24.9219 C   0  0  0  0  0  0  0  0  0  0  0  0
    7.4245  -11.9150   26.2283 C   0  0  0  0  0  0  0  0  0  0  0  0
    8.2482  -12.8674   27.0786 C   0  0  0  0  0  0  0  0  0  0  0  0
    7.7038  -14.1885   26.5669 C   0  0  1  0  0  0  0  0  0  0  0  0
    6.3052  -14.4205   26.9985 C   0  0  0  0  0  0  0  0  0  0  0  0
    5.9769  -14.8175   28.2801 O   0  0  0  0  0  0  0  0  0  0  0  0
    5.3759  -14.2524   26.1743 O   0  0  0  0  0  0  0  0  0  0  0  0
  1  2  1  0
  3  2  1  0
  4  3  1  0
  5  7  1  0
  5  4  1  0
  5  6  1  1
  7  8  2  0
  9 10  1  0
 10 11  1  0
 11 12  1  1
 13 11  1  0
 13 14  1  6
 14  7  1  0
 15 16  2  0
 15 13  1  0
 17 15  1  0
 18 17  1  0
 19 18  1  0
 20 19  1  0
 20 21  1  0
 21 22  1  1
 21 17  1  0
 22 23  1  0
 24 22  2  0
M  END
$$$$
