MIP.pdb
     RDKit          3D

 24 24  0  0  1  0  0  0  0  0999 V2000
   10.9995  -15.0303   28.2381 C   0  0  0  0  0  0  0  0  0  0  0  0
   10.0254  -16.0037   29.4227 S   0  0  0  0  0  0  0  0  0  0  0  0
   10.1825  -17.7583   28.9252 C   0  0  0  0  0  0  0  0  0  0  0  0
    9.6139  -17.8652   27.5324 C   0  0  0  0  0  0  0  0  0  0  0  0
    8.0973  -17.8419   27.5498 C   0  0  2  0  0  0  0  0  0  0  0  0
    7.6396  -19.2058   27.4107 N   0  0  0  0  0  0  0  0  0  0  0  0
    7.5605  -17.0197   26.4363 C   0  0  0  0  0  0  0  0  0  0  0  0
    7.0873  -17.6901   25.4534 O   0  0  0  0  0  0  0  0  0  0  0  0
    6.2612  -11.6163   26.9295 C   0  0  0  0  0  0  0  0  0  0  0  0
    6.1956  -13.0602   26.4163 C   0  0  0  0  0  0  0  0  0  0  0  0
    7.3642  -13.3608   25.5243 C   0  0  2  0  0  0  0  0  0  0  0  0
    7.3201  -12.4366   24.3440 C   0  0  0  0  0  0  0  0  0  0  0  0
    7.4769  -14.8096   25.2288 C   0  0  2  0  0  0  0  0  0  0  0  0
    7.5588  -15.6104   26.4348 N   0  0  0  0  0  0  0  0  0  0  0  0
    8.4093  -15.2211   24.1872 C   0  0  0  0  0  0  0  0  0  0  0  0
    9.5037  -15.7631   24.6016 O   0  0  0  0  0  0  0  0  0  0  0  0
    8.2917  -15.1109   22.7872 N   0  0  0  0  0  0  0  0  0  0  0  0
    7.4865  -14.2920   21.9182 C   0  0  0  0  0  0  0  0  0  0  0  0
    7.3349  -15.0891   20.6237 C   0  0  0  0  0  0  0  0  0  0  0  0
    8.0402  -16.4070   20.8964 C   0  0  0  0  0  0  0  0  0  0  0  0
    9.1074  -15.9209   21.8598 C   0  0  1  0  0  0  0  0  0  0  0  0
   10.1292  -15.0856   21.1856 C   0  0  0  0  0  0  0  0  0  0  0  0
   11.1484  -15.6243   20.4247 O   0  0  0  0  0  0  0  0  0  0  0  0
   10.0747  -13.8390   21.3050 O   0  0  0  0  0  0  0  0  0  0  0  0
  1  2  1  0
  3  2  1  0
  4  3  1  0
  5  7  1  0
  5  4  1  0
  5  6  1  6
  7  8  2  0
  9 10  1  0
 10 11  1  0
 11 12  1  6
 13 11  1  0
 13 14  1  1
 14  7  1  0
 15 16  2  0
 15 13  1  0
 17 15  1  0
 18 17  1  0
 19 18  1  0
 20 19  1  0
 20 21  1  0
 21 22  1  6
 21 17  1  0
 22 23  1  0
 24 22  2  0
M  END
$$$$
