MIP.pdb
     RDKit          3D

 24 24  0  0  1  0  0  0  0  0999 V2000
    8.4801  -11.7355   19.2030 C   0  0  0  0  0  0  0  0  0  0  0  0
    8.1626  -13.0544   17.9949 S   0  0  0  0  0  0  0  0  0  0  0  0
    8.4275  -14.6446   18.8619 C   0  0  0  0  0  0  0  0  0  0  0  0
    8.1376  -14.3950   20.3208 C   0  0  0  0  0  0  0  0  0  0  0  0
    8.6517  -15.5273   21.1895 C   0  0  2  0  0  0  0  0  0  0  0  0
    7.6277  -16.5467   21.2264 N   0  0  0  0  0  0  0  0  0  0  0  0
    8.9382  -15.0581   22.5685 C   0  0  0  0  0  0  0  0  0  0  0  0
   10.0709  -14.4791   22.7143 O   0  0  0  0  0  0  0  0  0  0  0  0
    6.1381  -12.2277   27.0146 C   0  0  0  0  0  0  0  0  0  0  0  0
    7.3663  -13.0652   26.6370 C   0  0  0  0  0  0  0  0  0  0  0  0
    7.0519  -13.9836   25.4928 C   0  0  2  0  0  0  0  0  0  0  0  0
    5.9209  -14.8833   25.8936 C   0  0  0  0  0  0  0  0  0  0  0  0
    8.2692  -14.6440   24.9623 C   0  0  2  0  0  0  0  0  0  0  0  0
    8.0513  -15.2234   23.6512 N   0  0  0  0  0  0  0  0  0  0  0  0
    9.0256  -15.5027   25.8647 C   0  0  0  0  0  0  0  0  0  0  0  0
    9.1946  -16.7175   25.4665 O   0  0  0  0  0  0  0  0  0  0  0  0
    9.5998  -15.2001   27.1155 N   0  0  0  0  0  0  0  0  0  0  0  0
    9.3555  -14.1788   28.1011 C   0  0  0  0  0  0  0  0  0  0  0  0
   10.6789  -13.9954   28.8420 C   0  0  0  0  0  0  0  0  0  0  0  0
   11.6510  -14.9230   28.1325 C   0  0  0  0  0  0  0  0  0  0  0  0
   10.6845  -16.0118   27.7038 C   0  0  1  0  0  0  0  0  0  0  0  0
   10.1891  -16.8032   28.8548 C   0  0  0  0  0  0  0  0  0  0  0  0
   10.9932  -17.6784   29.5587 O   0  0  0  0  0  0  0  0  0  0  0  0
    8.9938  -16.6801   29.2113 O   0  0  0  0  0  0  0  0  0  0  0  0
  1  2  1  0
  3  2  1  0
  4  3  1  0
  5  7  1  0
  5  4  1  0
  5  6  1  1
  7  8  2  0
  9 10  1  0
 10 11  1  0
 11 12  1  1
 13 11  1  0
 13 14  1  6
 14  7  1  0
 15 16  2  0
 15 13  1  0
 17 15  1  0
 18 17  1  0
 19 18  1  0
 20 19  1  0
 20 21  1  0
 21 22  1  1
 21 17  1  0
 22 23  1  0
 24 22  2  0
M  END
$$$$
