MIP.pdb
     RDKit          3D

 24 24  0  0  1  0  0  0  0  0999 V2000
   10.4614  -15.8958   29.4267 C   0  0  0  0  0  0  0  0  0  0  0  0
   10.6736  -17.6945   29.2866 S   0  0  0  0  0  0  0  0  0  0  0  0
    9.0643  -18.3790   28.7457 C   0  0  0  0  0  0  0  0  0  0  0  0
    8.6582  -17.6076   27.5149 C   0  0  0  0  0  0  0  0  0  0  0  0
    7.2494  -17.9621   27.0786 C   0  0  2  0  0  0  0  0  0  0  0  0
    7.2804  -19.3120   26.5630 N   0  0  0  0  0  0  0  0  0  0  0  0
    6.7653  -17.0364   26.0239 C   0  0  0  0  0  0  0  0  0  0  0  0
    6.3504  -17.6085   24.9562 O   0  0  0  0  0  0  0  0  0  0  0  0
    5.9881  -11.5214   26.8757 C   0  0  0  0  0  0  0  0  0  0  0  0
    5.8239  -12.8942   26.2116 C   0  0  0  0  0  0  0  0  0  0  0  0
    7.0928  -13.3080   25.5259 C   0  0  2  0  0  0  0  0  0  0  0  0
    7.4363  -12.2819   24.4874 C   0  0  0  0  0  0  0  0  0  0  0  0
    7.0427  -14.7193   25.0732 C   0  0  2  0  0  0  0  0  0  0  0  0
    6.7518  -15.6337   26.1602 N   0  0  0  0  0  0  0  0  0  0  0  0
    8.0962  -15.1854   24.1807 C   0  0  0  0  0  0  0  0  0  0  0  0
    9.0272  -15.8845   24.7352 O   0  0  0  0  0  0  0  0  0  0  0  0
    8.2493  -14.9815   22.7947 N   0  0  0  0  0  0  0  0  0  0  0  0
    7.7242  -14.0121   21.8681 C   0  0  0  0  0  0  0  0  0  0  0  0
    7.7115  -14.7066   20.5075 C   0  0  0  0  0  0  0  0  0  0  0  0
    8.1849  -16.1222   20.7915 C   0  0  0  0  0  0  0  0  0  0  0  0
    9.1119  -15.8424   21.9602 C   0  0  1  0  0  0  0  0  0  0  0  0
   10.3354  -15.1188   21.5412 C   0  0  0  0  0  0  0  0  0  0  0  0
   10.6609  -13.8651   22.0211 O   0  0  0  0  0  0  0  0  0  0  0  0
   11.1124  -15.6580   20.7186 O   0  0  0  0  0  0  0  0  0  0  0  0
  1  2  1  0
  3  2  1  0
  4  3  1  0
  5  7  1  0
  5  4  1  0
  5  6  1  6
  7  8  2  0
  9 10  1  0
 10 11  1  0
 11 12  1  6
 13 11  1  0
 13 14  1  1
 14  7  1  0
 15 16  2  0
 15 13  1  0
 17 15  1  0
 18 17  1  0
 19 18  1  0
 20 19  1  0
 20 21  1  0
 21 22  1  6
 21 17  1  0
 22 23  1  0
 24 22  2  0
M  END
$$$$
