MIP.pdb
     RDKit          3D

 24 24  0  0  1  0  0  0  0  0999 V2000
    8.3933  -20.6610   23.3480 C   0  0  0  0  0  0  0  0  0  0  0  0
    9.2084  -20.5068   21.7319 S   0  0  0  0  0  0  0  0  0  0  0  0
    8.6927  -18.8976   21.0280 C   0  0  0  0  0  0  0  0  0  0  0  0
    9.5042  -17.8384   21.7309 C   0  0  0  0  0  0  0  0  0  0  0  0
    8.9626  -16.4493   21.4517 C   0  0  2  0  0  0  0  0  0  0  0  0
    9.6745  -15.9267   20.3074 N   0  0  0  0  0  0  0  0  0  0  0  0
    9.1629  -15.5510   22.6165 C   0  0  0  0  0  0  0  0  0  0  0  0
   10.2899  -14.9436   22.6388 O   0  0  0  0  0  0  0  0  0  0  0  0
    6.5538  -11.9077   26.7202 C   0  0  0  0  0  0  0  0  0  0  0  0
    7.7143  -12.8538   26.3877 C   0  0  0  0  0  0  0  0  0  0  0  0
    7.3390  -13.7832   25.2710 C   0  0  2  0  0  0  0  0  0  0  0  0
    6.0601  -14.4786   25.6318 C   0  0  0  0  0  0  0  0  0  0  0  0
    8.4732  -14.6482   24.8657 C   0  0  2  0  0  0  0  0  0  0  0  0
    8.2048  -15.3623   23.6327 N   0  0  0  0  0  0  0  0  0  0  0  0
    9.1050  -15.4673   25.8922 C   0  0  0  0  0  0  0  0  0  0  0  0
    9.2115  -16.7224   25.6160 O   0  0  0  0  0  0  0  0  0  0  0  0
    9.6166  -15.0883   27.1494 N   0  0  0  0  0  0  0  0  0  0  0  0
    9.3421  -13.9956   28.0465 C   0  0  0  0  0  0  0  0  0  0  0  0
   10.6268  -13.7856   28.8462 C   0  0  0  0  0  0  0  0  0  0  0  0
   11.6147  -14.7793   28.2586 C   0  0  0  0  0  0  0  0  0  0  0  0
   10.6484  -15.8771   27.8528 C   0  0  1  0  0  0  0  0  0  0  0  0
   10.0726  -16.5757   29.0260 C   0  0  0  0  0  0  0  0  0  0  0  0
   10.8130  -17.4253   29.8248 O   0  0  0  0  0  0  0  0  0  0  0  0
    8.8660  -16.3947   29.3131 O   0  0  0  0  0  0  0  0  0  0  0  0
  1  2  1  0
  3  2  1  0
  4  3  1  0
  5  7  1  0
  5  4  1  0
  5  6  1  6
  7  8  2  0
  9 10  1  0
 10 11  1  0
 11 12  1  1
 13 11  1  0
 13 14  1  6
 14  7  1  0
 15 16  2  0
 15 13  1  0
 17 15  1  0
 18 17  1  0
 19 18  1  0
 20 19  1  0
 20 21  1  0
 21 22  1  1
 21 17  1  0
 22 23  1  0
 24 22  2  0
M  END
$$$$
