MIP.pdb
     RDKit          3D

 24 24  0  0  1  0  0  0  0  0999 V2000
   11.2120  -19.4779   29.3073 C   0  0  0  0  0  0  0  0  0  0  0  0
   10.7076  -18.8417   27.6822 S   0  0  0  0  0  0  0  0  0  0  0  0
    8.9045  -19.1225   27.5379 C   0  0  0  0  0  0  0  0  0  0  0  0
    8.4910  -18.5911   26.1883 C   0  0  0  0  0  0  0  0  0  0  0  0
    6.9870  -18.4146   26.0994 C   0  0  2  0  0  0  0  0  0  0  0  0
    6.4381  -19.6316   25.5457 N   0  0  0  0  0  0  0  0  0  0  0  0
    6.6320  -17.2659   25.2285 C   0  0  0  0  0  0  0  0  0  0  0  0
    6.0340  -17.5811   24.1411 O   0  0  0  0  0  0  0  0  0  0  0  0
    7.9484  -11.7083   26.4986 C   0  0  0  0  0  0  0  0  0  0  0  0
    8.0445  -13.1442   25.9680 C   0  0  0  0  0  0  0  0  0  0  0  0
    6.8031  -13.5153   25.2112 C   0  0  2  0  0  0  0  0  0  0  0  0
    5.6141  -13.2978   26.0991 C   0  0  0  0  0  0  0  0  0  0  0  0
    6.9207  -14.8496   24.5748 C   0  0  2  0  0  0  0  0  0  0  0  0
    6.9183  -15.9236   25.5487 N   0  0  0  0  0  0  0  0  0  0  0  0
    7.9134  -15.0157   23.5209 C   0  0  0  0  0  0  0  0  0  0  0  0
    8.7268  -16.0048   23.6727 O   0  0  0  0  0  0  0  0  0  0  0  0
    8.1180  -14.2492   22.3562 N   0  0  0  0  0  0  0  0  0  0  0  0
    7.7337  -12.9188   21.9609 C   0  0  0  0  0  0  0  0  0  0  0  0
    7.6636  -12.9458   20.4350 C   0  0  0  0  0  0  0  0  0  0  0  0
    7.9551  -14.3890   20.0601 C   0  0  0  0  0  0  0  0  0  0  0  0
    8.8857  -14.7571   21.2010 C   0  0  1  0  0  0  0  0  0  0  0  0
   10.1965  -14.0740   21.0947 C   0  0  0  0  0  0  0  0  0  0  0  0
   11.1509  -14.4336   20.1631 O   0  0  0  0  0  0  0  0  0  0  0  0
   10.4589  -13.1307   21.8774 O   0  0  0  0  0  0  0  0  0  0  0  0
  1  2  1  0
  3  2  1  0
  4  3  1  0
  5  7  1  0
  5  4  1  0
  5  6  1  6
  7  8  2  0
  9 10  1  0
 10 11  1  0
 11 12  1  1
 13 11  1  0
 13 14  1  1
 14  7  1  0
 15 16  2  0
 15 13  1  0
 17 15  1  0
 18 17  1  0
 19 18  1  0
 20 19  1  0
 20 21  1  0
 21 22  1  6
 21 17  1  0
 22 23  1  0
 24 22  2  0
M  END
$$$$
