MIP.pdb
     RDKit          3D

 24 24  0  0  1  0  0  0  0  0999 V2000
   10.1567  -14.9454   29.5246 C   0  0  0  0  0  0  0  0  0  0  0  0
   10.7524  -16.6155   29.9195 S   0  0  0  0  0  0  0  0  0  0  0  0
    9.6203  -17.7929   29.0932 C   0  0  0  0  0  0  0  0  0  0  0  0
    9.0952  -17.0964   27.8627 C   0  0  0  0  0  0  0  0  0  0  0  0
    7.7839  -17.7026   27.4001 C   0  0  2  0  0  0  0  0  0  0  0  0
    8.0548  -19.0601   26.9844 N   0  0  0  0  0  0  0  0  0  0  0  0
    7.2105  -16.9381   26.2641 C   0  0  0  0  0  0  0  0  0  0  0  0
    6.9090  -17.6441   25.2393 O   0  0  0  0  0  0  0  0  0  0  0  0
    6.1755  -11.4856   26.9318 C   0  0  0  0  0  0  0  0  0  0  0  0
    5.9823  -12.8678   26.2955 C   0  0  0  0  0  0  0  0  0  0  0  0
    7.1846  -13.2521   25.4843 C   0  0  2  0  0  0  0  0  0  0  0  0
    7.3340  -12.2789   24.3529 C   0  0  0  0  0  0  0  0  0  0  0  0
    7.1732  -14.6908   25.1248 C   0  0  2  0  0  0  0  0  0  0  0  0
    7.0030  -15.5443   26.2845 N   0  0  0  0  0  0  0  0  0  0  0  0
    8.1846  -15.1667   24.1898 C   0  0  0  0  0  0  0  0  0  0  0  0
    9.1752  -15.8023   24.7167 O   0  0  0  0  0  0  0  0  0  0  0  0
    8.2411  -15.0314   22.7882 N   0  0  0  0  0  0  0  0  0  0  0  0
    7.6483  -14.1102   21.8533 C   0  0  0  0  0  0  0  0  0  0  0  0
    7.5458  -14.8714   20.5327 C   0  0  0  0  0  0  0  0  0  0  0  0
    8.0453  -16.2702   20.8529 C   0  0  0  0  0  0  0  0  0  0  0  0
    9.0489  -15.9309   21.9397 C   0  0  1  0  0  0  0  0  0  0  0  0
   10.2368  -15.2265   21.4022 C   0  0  0  0  0  0  0  0  0  0  0  0
   10.5634  -13.9339   21.7634 O   0  0  0  0  0  0  0  0  0  0  0  0
   10.9812  -15.8194   20.5863 O   0  0  0  0  0  0  0  0  0  0  0  0
  1  2  1  0
  3  2  1  0
  4  3  1  0
  5  7  1  0
  5  4  1  0
  5  6  1  6
  7  8  2  0
  9 10  1  0
 10 11  1  0
 11 12  1  6
 13 11  1  0
 13 14  1  1
 14  7  1  0
 15 16  2  0
 15 13  1  0
 17 15  1  0
 18 17  1  0
 19 18  1  0
 20 19  1  0
 20 21  1  0
 21 22  1  6
 21 17  1  0
 22 23  1  0
 24 22  2  0
M  END
$$$$
