MIP.pdb
     RDKit          3D

 24 24  0  0  1  0  0  0  0  0999 V2000
    8.2804  -20.2577   21.5629 C   0  0  0  0  0  0  0  0  0  0  0  0
    9.8846  -19.7261   20.8966 S   0  0  0  0  0  0  0  0  0  0  0  0
    9.8171  -17.9036   20.7394 C   0  0  0  0  0  0  0  0  0  0  0  0
    8.8047  -17.4199   21.7472 C   0  0  0  0  0  0  0  0  0  0  0  0
    8.5760  -15.9251   21.6292 C   0  0  2  0  0  0  0  0  0  0  0  0
    9.4710  -15.4272   20.6093 N   0  0  0  0  0  0  0  0  0  0  0  0
    8.8528  -15.2366   22.9150 C   0  0  0  0  0  0  0  0  0  0  0  0
   10.0575  -14.8265   23.0561 O   0  0  0  0  0  0  0  0  0  0  0  0
    5.4809  -11.8502   25.6097 C   0  0  0  0  0  0  0  0  0  0  0  0
    6.7245  -12.5433   25.0393 C   0  0  0  0  0  0  0  0  0  0  0  0
    7.0561  -13.7748   25.8298 C   0  0  2  0  0  0  0  0  0  0  0  0
    7.1784  -13.4003   27.2770 C   0  0  0  0  0  0  0  0  0  0  0  0
    8.1928  -14.5223   25.2396 C   0  0  2  0  0  0  0  0  0  0  0  0
    7.8846  -15.0360   23.9193 N   0  0  0  0  0  0  0  0  0  0  0  0
    8.8962  -15.4741   26.0899 C   0  0  0  0  0  0  0  0  0  0  0  0
    8.8116  -16.7099   25.7311 O   0  0  0  0  0  0  0  0  0  0  0  0
    9.6565  -15.2421   27.2534 N   0  0  0  0  0  0  0  0  0  0  0  0
    9.6666  -14.1955   28.2426 C   0  0  0  0  0  0  0  0  0  0  0  0
   11.0853  -14.1767   28.8091 C   0  0  0  0  0  0  0  0  0  0  0  0
   11.8379  -15.2205   28.0013 C   0  0  0  0  0  0  0  0  0  0  0  0
   10.6980  -16.1813   27.7168 C   0  0  1  0  0  0  0  0  0  0  0  0
   10.2577  -16.9012   28.9351 C   0  0  0  0  0  0  0  0  0  0  0  0
   11.0298  -17.8679   29.5494 O   0  0  0  0  0  0  0  0  0  0  0  0
    9.1412  -16.6289   29.4354 O   0  0  0  0  0  0  0  0  0  0  0  0
  1  2  1  0
  3  2  1  0
  4  3  1  0
  5  7  1  0
  5  4  1  0
  5  6  1  6
  7  8  2  0
  9 10  1  0
 10 11  1  0
 11 12  1  1
 13 11  1  0
 13 14  1  6
 14  7  1  0
 15 16  2  0
 15 13  1  0
 17 15  1  0
 18 17  1  0
 19 18  1  0
 20 19  1  0
 20 21  1  0
 21 22  1  1
 21 17  1  0
 22 23  1  0
 24 22  2  0
M  END
$$$$
