MIP.pdb
     RDKit          3D

 24 24  0  0  1  0  0  0  0  0999 V2000
   11.9644  -19.6429   21.4772 C   0  0  0  0  0  0  0  0  0  0  0  0
   10.3536  -20.2445   20.8912 S   0  0  0  0  0  0  0  0  0  0  0  0
    9.3308  -18.7678   20.5392 C   0  0  0  0  0  0  0  0  0  0  0  0
    9.7459  -17.7084   21.5293 C   0  0  0  0  0  0  0  0  0  0  0  0
    8.8621  -16.4797   21.4290 C   0  0  2  0  0  0  0  0  0  0  0  0
    9.0577  -15.9091   20.1155 N   0  0  0  0  0  0  0  0  0  0  0  0
    9.2163  -15.4779   22.4658 C   0  0  0  0  0  0  0  0  0  0  0  0
   10.3441  -14.8979   22.2891 O   0  0  0  0  0  0  0  0  0  0  0  0
    5.8974  -12.8859   26.5536 C   0  0  0  0  0  0  0  0  0  0  0  0
    6.6496  -13.9496   25.7441 C   0  0  0  0  0  0  0  0  0  0  0  0
    7.8909  -13.3712   25.1306 C   0  0  2  0  0  0  0  0  0  0  0  0
    7.4917  -12.3858   24.0728 C   0  0  0  0  0  0  0  0  0  0  0  0
    8.8518  -14.4259   24.7263 C   0  0  2  0  0  0  0  0  0  0  0  0
    8.3947  -15.1693   23.5685 N   0  0  0  0  0  0  0  0  0  0  0  0
    9.4230  -15.2636   25.7731 C   0  0  0  0  0  0  0  0  0  0  0  0
    9.7361  -16.4631   25.4178 O   0  0  0  0  0  0  0  0  0  0  0  0
    9.6822  -14.9552   27.1235 N   0  0  0  0  0  0  0  0  0  0  0  0
    9.1265  -14.0036   28.0507 C   0  0  0  0  0  0  0  0  0  0  0  0
   10.2346  -13.7183   29.0629 C   0  0  0  0  0  0  0  0  0  0  0  0
   11.4284  -14.5150   28.5641 C   0  0  0  0  0  0  0  0  0  0  0  0
   10.6967  -15.6771   27.9179 C   0  0  1  0  0  0  0  0  0  0  0  0
   10.0545  -16.5593   28.9208 C   0  0  0  0  0  0  0  0  0  0  0  0
   10.7789  -17.3709   29.7720 O   0  0  0  0  0  0  0  0  0  0  0  0
    8.8042  -16.5766   29.0074 O   0  0  0  0  0  0  0  0  0  0  0  0
  1  2  1  0
  3  2  1  0
  4  3  1  0
  5  7  1  0
  5  4  1  0
  5  6  1  6
  7  8  2  0
  9 10  1  0
 10 11  1  0
 11 12  1  6
 13 11  1  0
 13 14  1  6
 14  7  1  0
 15 16  2  0
 15 13  1  0
 17 15  1  0
 18 17  1  0
 19 18  1  0
 20 19  1  0
 20 21  1  0
 21 22  1  1
 21 17  1  0
 22 23  1  0
 24 22  2  0
M  END
$$$$
