HCI.pdb
     RDKit          3D

 25 25  0  0  1  0  0  0  0  0999 V2000
    9.5611  -16.2495   19.3508 N   0  0  0  0  0  0  0  0  0  0  0  0
    9.4520  -17.2406   20.4139 C   0  0  1  0  0  0  0  0  0  0  0  0
   10.7239  -18.0365   20.4392 C   0  0  0  0  0  0  0  0  0  0  0  0
   10.6170  -19.2779   19.6526 C   0  0  0  0  0  0  0  0  0  0  0  0
    9.6179  -19.7639   18.8582 C   0  0  0  0  0  0  0  0  0  0  0  0
   10.0186  -20.9357   18.3707 N   0  0  0  0  0  0  0  0  0  0  0  0
   11.2337  -21.2270   18.8164 C   0  0  0  0  0  0  0  0  0  0  0  0
   11.6012  -20.2048   19.6061 N   0  0  0  0  0  0  0  0  0  0  0  0
    9.2198  -16.5907   21.7109 C   0  0  0  0  0  0  0  0  0  0  0  0
    9.6694  -15.4420   21.9494 O   0  0  0  0  0  0  0  0  0  0  0  0
    8.4889  -17.2418   22.7126 N   0  0  0  0  0  0  0  0  0  0  0  0
    8.0999  -16.6858   23.9675 C   0  0  1  0  0  0  0  0  0  0  0  0
    6.7698  -17.1604   24.4702 C   0  0  0  0  0  0  0  0  0  0  0  0
    6.3904  -16.3041   26.0114 S   0  0  0  0  0  0  0  0  0  0  0  0
    9.1891  -16.8817   24.9629 C   0  0  0  0  0  0  0  0  0  0  0  0
    9.9638  -17.8754   24.8679 O   0  0  0  0  0  0  0  0  0  0  0  0
    9.9109  -13.6247   29.7386 C   0  0  0  0  0  0  0  0  0  0  0  0
    9.5741  -14.7941   28.8121 C   0  0  0  0  0  0  0  0  0  0  0  0
   10.6851  -15.0062   27.8117 C   0  0  2  0  0  0  0  0  0  0  0  0
   10.8353  -13.7357   27.0067 C   0  0  0  0  0  0  0  0  0  0  0  0
   10.5167  -16.2368   26.9767 C   0  0  2  0  0  0  0  0  0  0  0  0
    9.4082  -15.9860   26.0418 N   0  0  0  0  0  0  0  0  0  0  0  0
   10.2388  -17.4578   27.7750 C   0  0  0  0  0  0  0  0  0  0  0  0
   11.2245  -18.0517   28.5680 O   0  0  0  0  0  0  0  0  0  0  0  0
    9.1222  -18.0305   27.7935 O   0  0  0  0  0  0  0  0  0  0  0  0
  2  1  1  6
  3  2  1  0
  4  3  1  0
  5  4  2  0
  6  5  1  0
  6  7  1  0
  7  8  2  0
  8  4  1  0
  9 10  2  0
  9  2  1  0
 11  9  1  0
 12 11  1  0
 13 14  1  0
 12 13  1  1
 15 12  1  0
 15 22  1  0
 16 15  2  0
 18 17  1  0
 19 18  1  0
 19 20  1  6
 21 19  1  0
 21 22  1  6
 21 23  1  0
 23 24  1  0
 25 23  2  0
M  END
$$$$
