HCI.pdb
     RDKit          3D

 25 25  0  0  1  0  0  0  0  0999 V2000
    7.4062  -19.2733   19.0670 N   0  0  0  0  0  0  0  0  0  0  0  0
    7.7165  -17.9625   19.6234 C   0  0  1  0  0  0  0  0  0  0  0  0
    7.2579  -16.9219   18.6442 C   0  0  0  0  0  0  0  0  0  0  0  0
    8.1523  -16.8264   17.4770 C   0  0  0  0  0  0  0  0  0  0  0  0
    9.3045  -16.1217   17.2737 C   0  0  0  0  0  0  0  0  0  0  0  0
    9.7284  -16.3813   16.0391 N   0  0  0  0  0  0  0  0  0  0  0  0
    8.8991  -17.2235   15.4366 C   0  0  0  0  0  0  0  0  0  0  0  0
    7.9285  -17.4969   16.3237 N   0  0  0  0  0  0  0  0  0  0  0  0
    7.0577  -17.7786   20.9237 C   0  0  0  0  0  0  0  0  0  0  0  0
    5.8051  -17.7845   21.0216 O   0  0  0  0  0  0  0  0  0  0  0  0
    7.8164  -17.5920   22.0860 N   0  0  0  0  0  0  0  0  0  0  0  0
    7.3049  -17.4099   23.4053 C   0  0  1  0  0  0  0  0  0  0  0  0
    7.2791  -18.6564   24.2376 C   0  0  0  0  0  0  0  0  0  0  0  0
    6.7145  -18.2362   25.8981 S   0  0  0  0  0  0  0  0  0  0  0  0
    8.0256  -16.2922   24.0737 C   0  0  0  0  0  0  0  0  0  0  0  0
    9.2829  -16.3304   24.1940 O   0  0  0  0  0  0  0  0  0  0  0  0
    6.9476  -10.5715   26.2121 C   0  0  0  0  0  0  0  0  0  0  0  0
    7.9130  -11.7550   26.1291 C   0  0  0  0  0  0  0  0  0  0  0  0
    7.2251  -12.9493   25.5123 C   0  0  2  0  0  0  0  0  0  0  0  0
    5.9937  -13.2532   26.3346 C   0  0  0  0  0  0  0  0  0  0  0  0
    8.1269  -14.1271   25.3128 C   0  0  2  0  0  0  0  0  0  0  0  0
    7.3556  -15.1555   24.5965 N   0  0  0  0  0  0  0  0  0  0  0  0
    8.6574  -14.6853   26.5825 C   0  0  0  0  0  0  0  0  0  0  0  0
    9.7052  -14.0671   27.2705 O   0  0  0  0  0  0  0  0  0  0  0  0
    8.2115  -15.7301   27.1163 O   0  0  0  0  0  0  0  0  0  0  0  0
  2  1  1  6
  3  2  1  0
  4  3  1  0
  5  4  2  0
  6  5  1  0
  6  7  1  0
  7  8  2  0
  8  4  1  0
  9 10  2  0
  9  2  1  0
 11  9  1  0
 12 11  1  0
 13 14  1  0
 12 13  1  1
 15 12  1  0
 15 22  1  0
 16 15  2  0
 18 17  1  0
 19 18  1  0
 19 20  1  1
 21 19  1  0
 21 22  1  1
 21 23  1  0
 23 24  1  0
 25 23  2  0
M  END
$$$$
