HCI.pdb
     RDKit          3D

 25 25  0  0  1  0  0  0  0  0999 V2000
    8.1993  -16.9986   19.1801 N   0  0  0  0  0  0  0  0  0  0  0  0
    8.1675  -15.8626   20.0927 C   0  0  1  0  0  0  0  0  0  0  0  0
    7.1636  -14.8763   19.5718 C   0  0  0  0  0  0  0  0  0  0  0  0
    7.6042  -14.2486   18.3135 C   0  0  0  0  0  0  0  0  0  0  0  0
    8.3791  -13.1502   18.0719 C   0  0  0  0  0  0  0  0  0  0  0  0
    8.4793  -13.0046   16.7527 N   0  0  0  0  0  0  0  0  0  0  0  0
    7.8023  -13.9622   16.1325 C   0  0  0  0  0  0  0  0  0  0  0  0
    7.2636  -14.7279   17.0953 N   0  0  0  0  0  0  0  0  0  0  0  0
    7.8143  -16.2951   21.4517 C   0  0  0  0  0  0  0  0  0  0  0  0
    6.6829  -16.7800   21.7034 O   0  0  0  0  0  0  0  0  0  0  0  0
    8.7362  -16.1749   22.4991 N   0  0  0  0  0  0  0  0  0  0  0  0
    8.5696  -16.6664   23.8280 C   0  0  1  0  0  0  0  0  0  0  0  0
    9.1201  -18.0423   24.0536 C   0  0  0  0  0  0  0  0  0  0  0  0
   10.8971  -18.0161   23.7467 S   0  0  0  0  0  0  0  0  0  0  0  0
    9.1000  -15.6729   24.8013 C   0  0  0  0  0  0  0  0  0  0  0  0
   10.1000  -14.9617   24.5000 O   0  0  0  0  0  0  0  0  0  0  0  0
    6.1931  -12.0892   27.0028 C   0  0  0  0  0  0  0  0  0  0  0  0
    7.3922  -12.8488   26.4331 C   0  0  0  0  0  0  0  0  0  0  0  0
    8.0911  -13.6200   27.5270 C   0  0  2  0  0  0  0  0  0  0  0  0
    8.5737  -12.6282   28.5605 C   0  0  0  0  0  0  0  0  0  0  0  0
    9.1586  -14.5418   27.0263 C   0  0  2  0  0  0  0  0  0  0  0  0
    8.5251  -15.4782   26.0842 N   0  0  0  0  0  0  0  0  0  0  0  0
    9.8410  -15.2967   28.1079 C   0  0  0  0  0  0  0  0  0  0  0  0
    9.6907  -16.6799   28.2398 O   0  0  0  0  0  0  0  0  0  0  0  0
   10.5855  -14.7569   28.9621 O   0  0  0  0  0  0  0  0  0  0  0  0
  2  1  1  6
  3  2  1  0
  4  3  1  0
  5  4  2  0
  6  5  1  0
  6  7  1  0
  7  8  2  0
  8  4  1  0
  9 10  2  0
  9  2  1  0
 11  9  1  0
 12 11  1  0
 13 14  1  0
 12 13  1  6
 15 12  1  0
 15 22  1  0
 16 15  2  0
 18 17  1  0
 19 18  1  0
 19 20  1  1
 21 19  1  0
 21 22  1  6
 21 23  1  0
 23 24  1  0
 25 23  2  0
M  END
$$$$
