HCI.pdb
     RDKit          3D

 25 25  0  0  1  0  0  0  0  0999 V2000
    7.6718  -17.1235   18.7174 N   0  0  0  0  0  0  0  0  0  0  0  0
    8.1102  -16.0751   19.6301 C   0  0  1  0  0  0  0  0  0  0  0  0
    7.4114  -14.8036   19.2468 C   0  0  0  0  0  0  0  0  0  0  0  0
    7.8595  -14.2976   17.9373 C   0  0  0  0  0  0  0  0  0  0  0  0
    8.6489  -13.2361   17.5981 C   0  0  0  0  0  0  0  0  0  0  0  0
    8.7500  -13.2111   16.2713 N   0  0  0  0  0  0  0  0  0  0  0  0
    8.0596  -14.2112   15.7394 C   0  0  0  0  0  0  0  0  0  0  0  0
    7.5114  -14.8799   16.7670 N   0  0  0  0  0  0  0  0  0  0  0  0
    7.8075  -16.4352   21.0220 C   0  0  0  0  0  0  0  0  0  0  0  0
    6.6419  -16.7486   21.3710 O   0  0  0  0  0  0  0  0  0  0  0  0
    8.8171  -16.4362   21.9926 N   0  0  0  0  0  0  0  0  0  0  0  0
    8.6778  -16.8461   23.3520 C   0  0  1  0  0  0  0  0  0  0  0  0
    9.4691  -18.0662   23.7157 C   0  0  0  0  0  0  0  0  0  0  0  0
    9.4913  -18.2320   25.5114 S   0  0  0  0  0  0  0  0  0  0  0  0
    8.9558  -15.6957   24.2546 C   0  0  0  0  0  0  0  0  0  0  0  0
   10.0015  -15.0041   24.0967 O   0  0  0  0  0  0  0  0  0  0  0  0
    6.3219  -11.2146   27.2667 C   0  0  0  0  0  0  0  0  0  0  0  0
    7.5441  -12.1340   27.2507 C   0  0  0  0  0  0  0  0  0  0  0  0
    7.2946  -13.3209   26.3511 C   0  0  2  0  0  0  0  0  0  0  0  0
    6.0341  -14.0073   26.8251 C   0  0  0  0  0  0  0  0  0  0  0  0
    8.4715  -14.2363   26.2216 C   0  0  2  0  0  0  0  0  0  0  0  0
    8.0837  -15.3256   25.3113 N   0  0  0  0  0  0  0  0  0  0  0  0
    8.9268  -14.7987   27.5184 C   0  0  0  0  0  0  0  0  0  0  0  0
    9.6008  -14.0139   28.4583 O   0  0  0  0  0  0  0  0  0  0  0  0
    8.7423  -15.9937   27.8550 O   0  0  0  0  0  0  0  0  0  0  0  0
  2  1  1  6
  3  2  1  0
  4  3  1  0
  5  4  2  0
  6  5  1  0
  6  7  1  0
  7  8  2  0
  8  4  1  0
  9 10  2  0
  9  2  1  0
 11  9  1  0
 12 11  1  0
 13 14  1  0
 12 13  1  1
 15 12  1  0
 15 22  1  0
 16 15  2  0
 18 17  1  0
 19 18  1  0
 19 20  1  1
 21 19  1  0
 21 22  1  6
 21 23  1  0
 23 24  1  0
 25 23  2  0
M  END
$$$$
