HCI.pdb
     RDKit          3D

 25 25  0  0  1  0  0  0  0  0999 V2000
   11.0221  -16.7635   18.4051 N   0  0  0  0  0  0  0  0  0  0  0  0
   11.2435  -16.0957   19.6816 C   0  0  1  0  0  0  0  0  0  0  0  0
   11.6126  -14.6684   19.4012 C   0  0  0  0  0  0  0  0  0  0  0  0
   13.0678  -14.4910   19.2520 C   0  0  0  0  0  0  0  0  0  0  0  0
   14.0932  -14.6272   20.1438 C   0  0  0  0  0  0  0  0  0  0  0  0
   15.2280  -14.3520   19.5050 N   0  0  0  0  0  0  0  0  0  0  0  0
   14.9789  -14.0439   18.2389 C   0  0  0  0  0  0  0  0  0  0  0  0
   13.6476  -14.1299   18.0843 N   0  0  0  0  0  0  0  0  0  0  0  0
   10.0407  -16.1658   20.5224 C   0  0  0  0  0  0  0  0  0  0  0  0
    8.8926  -16.1599   20.0121 O   0  0  0  0  0  0  0  0  0  0  0  0
   10.1502  -16.2409   21.9166 N   0  0  0  0  0  0  0  0  0  0  0  0
    9.0831  -16.4773   22.8335 C   0  0  1  0  0  0  0  0  0  0  0  0
    8.7451  -17.9243   23.0314 C   0  0  0  0  0  0  0  0  0  0  0  0
   10.1721  -18.7631   23.7471 S   0  0  0  0  0  0  0  0  0  0  0  0
    9.3584  -15.7749   24.1166 C   0  0  0  0  0  0  0  0  0  0  0  0
   10.5498  -15.5860   24.4932 O   0  0  0  0  0  0  0  0  0  0  0  0
    5.8597  -12.0224   25.7953 C   0  0  0  0  0  0  0  0  0  0  0  0
    7.1188  -12.8043   25.4177 C   0  0  0  0  0  0  0  0  0  0  0  0
    7.5444  -13.6947   26.5605 C   0  0  2  0  0  0  0  0  0  0  0  0
    7.8116  -12.8156   27.7608 C   0  0  0  0  0  0  0  0  0  0  0  0
    8.6748  -14.6143   26.2188 C   0  0  2  0  0  0  0  0  0  0  0  0
    8.3244  -15.2938   24.9613 N   0  0  0  0  0  0  0  0  0  0  0  0
    8.9576  -15.6191   27.2750 C   0  0  0  0  0  0  0  0  0  0  0  0
    9.8711  -15.3623   28.3012 O   0  0  0  0  0  0  0  0  0  0  0  0
    8.4077  -16.7464   27.3197 O   0  0  0  0  0  0  0  0  0  0  0  0
  2  1  1  6
  3  2  1  0
  4  3  1  0
  5  4  2  0
  6  5  1  0
  6  7  1  0
  7  8  2  0
  8  4  1  0
  9 10  2  0
  9  2  1  0
 11  9  1  0
 12 11  1  0
 13 14  1  0
 12 13  1  1
 15 12  1  0
 15 22  1  0
 16 15  2  0
 18 17  1  0
 19 18  1  0
 19 20  1  1
 21 19  1  0
 21 22  1  6
 21 23  1  0
 23 24  1  0
 25 23  2  0
M  END
$$$$
