HCI.pdb
     RDKit          3D

 25 25  0  0  1  0  0  0  0  0999 V2000
    8.2361  -16.9679   19.1689 N   0  0  0  0  0  0  0  0  0  0  0  0
    8.1764  -15.8902   20.1483 C   0  0  1  0  0  0  0  0  0  0  0  0
    7.2118  -14.8572   19.6440 C   0  0  0  0  0  0  0  0  0  0  0  0
    7.7274  -14.1486   18.4593 C   0  0  0  0  0  0  0  0  0  0  0  0
    8.5587  -13.0717   18.3383 C   0  0  0  0  0  0  0  0  0  0  0  0
    8.7155  -12.8218   17.0405 N   0  0  0  0  0  0  0  0  0  0  0  0
    8.0210  -13.6914   16.3185 C   0  0  0  0  0  0  0  0  0  0  0  0
    7.4127  -14.5083   17.1938 N   0  0  0  0  0  0  0  0  0  0  0  0
    7.7532  -16.4001   21.4596 C   0  0  0  0  0  0  0  0  0  0  0  0
    6.7031  -17.0789   21.5823 O   0  0  0  0  0  0  0  0  0  0  0  0
    8.5155  -16.1383   22.6050 N   0  0  0  0  0  0  0  0  0  0  0  0
    8.2656  -16.6421   23.9161 C   0  0  1  0  0  0  0  0  0  0  0  0
    8.6368  -18.0817   24.1081 C   0  0  0  0  0  0  0  0  0  0  0  0
   10.4027  -18.2743   23.7967 S   0  0  0  0  0  0  0  0  0  0  0  0
    8.8980  -15.7501   24.9260 C   0  0  0  0  0  0  0  0  0  0  0  0
   10.0259  -15.2295   24.6945 O   0  0  0  0  0  0  0  0  0  0  0  0
    6.6165  -11.6474   26.9216 C   0  0  0  0  0  0  0  0  0  0  0  0
    7.6404  -12.6718   26.4299 C   0  0  0  0  0  0  0  0  0  0  0  0
    8.1247  -13.5214   27.5804 C   0  0  2  0  0  0  0  0  0  0  0  0
    8.7394  -12.6025   28.6111 C   0  0  0  0  0  0  0  0  0  0  0  0
    9.0175  -14.6478   27.1630 C   0  0  2  0  0  0  0  0  0  0  0  0
    8.2831  -15.4461   26.1684 N   0  0  0  0  0  0  0  0  0  0  0  0
    9.4423  -15.5133   28.2925 C   0  0  0  0  0  0  0  0  0  0  0  0
   10.5389  -15.1827   29.0934 O   0  0  0  0  0  0  0  0  0  0  0  0
    8.8586  -16.5807   28.6011 O   0  0  0  0  0  0  0  0  0  0  0  0
  2  1  1  6
  3  2  1  0
  4  3  1  0
  5  4  2  0
  6  5  1  0
  6  7  1  0
  7  8  2  0
  8  4  1  0
  9 10  2  0
  9  2  1  0
 11  9  1  0
 12 11  1  0
 13 14  1  0
 12 13  1  6
 15 12  1  0
 15 22  1  0
 16 15  2  0
 18 17  1  0
 19 18  1  0
 19 20  1  1
 21 19  1  0
 21 22  1  6
 21 23  1  0
 23 24  1  0
 25 23  2  0
M  END
$$$$
