HCI.pdb
     RDKit          3D

 25 25  0  0  1  0  0  0  0  0999 V2000
    8.2507  -18.1702   19.2191 N   0  0  0  0  0  0  0  0  0  0  0  0
    8.1873  -16.8848   19.9033 C   0  0  1  0  0  0  0  0  0  0  0  0
    7.6111  -15.8792   18.9501 C   0  0  0  0  0  0  0  0  0  0  0  0
    8.2636  -14.5634   19.0710 C   0  0  0  0  0  0  0  0  0  0  0  0
    9.3325  -14.1468   19.8120 C   0  0  0  0  0  0  0  0  0  0  0  0
    9.5219  -12.8533   19.5625 N   0  0  0  0  0  0  0  0  0  0  0  0
    8.6209  -12.4170   18.6921 C   0  0  0  0  0  0  0  0  0  0  0  0
    7.8462  -13.4716   18.3900 N   0  0  0  0  0  0  0  0  0  0  0  0
    7.3655  -16.9802   21.1175 C   0  0  0  0  0  0  0  0  0  0  0  0
    6.1817  -17.3980   21.0670 O   0  0  0  0  0  0  0  0  0  0  0  0
    7.8878  -16.6055   22.3618 N   0  0  0  0  0  0  0  0  0  0  0  0
    7.2998  -16.8671   23.6351 C   0  0  1  0  0  0  0  0  0  0  0  0
    7.0526  -18.3184   23.9172 C   0  0  0  0  0  0  0  0  0  0  0  0
    6.3377  -18.4777   25.5653 S   0  0  0  0  0  0  0  0  0  0  0  0
    8.0991  -16.2063   24.7027 C   0  0  0  0  0  0  0  0  0  0  0  0
    9.3543  -16.3483   24.7350 O   0  0  0  0  0  0  0  0  0  0  0  0
    5.7643  -11.7756   26.7398 C   0  0  0  0  0  0  0  0  0  0  0  0
    6.7724  -12.7220   26.0861 C   0  0  0  0  0  0  0  0  0  0  0  0
    7.5348  -13.4854   27.1425 C   0  0  2  0  0  0  0  0  0  0  0  0
    8.3121  -12.4865   27.9687 C   0  0  0  0  0  0  0  0  0  0  0  0
    8.3701  -14.6001   26.5949 C   0  0  2  0  0  0  0  0  0  0  0  0
    7.5084  -15.4035   25.7131 N   0  0  0  0  0  0  0  0  0  0  0  0
    8.9634  -15.4642   27.6468 C   0  0  0  0  0  0  0  0  0  0  0  0
    8.5370  -16.7817   27.8358 O   0  0  0  0  0  0  0  0  0  0  0  0
    9.8709  -15.0803   28.4242 O   0  0  0  0  0  0  0  0  0  0  0  0
  2  1  1  6
  3  2  1  0
  4  3  1  0
  5  4  2  0
  6  5  1  0
  6  7  1  0
  7  8  2  0
  8  4  1  0
  9 10  2  0
  9  2  1  0
 11  9  1  0
 12 11  1  0
 13 14  1  0
 12 13  1  1
 15 12  1  0
 15 22  1  0
 16 15  2  0
 18 17  1  0
 19 18  1  0
 19 20  1  6
 21 19  1  0
 21 22  1  6
 21 23  1  0
 23 24  1  0
 25 23  2  0
M  END
$$$$
