HCI.pdb
     RDKit          3D

 25 25  0  0  1  0  0  0  0  0999 V2000
    8.0293  -18.8013   18.7099 N   0  0  0  0  0  0  0  0  0  0  0  0
    8.7152  -17.9336   19.6592 C   0  0  1  0  0  0  0  0  0  0  0  0
    9.1642  -16.7046   18.9245 C   0  0  0  0  0  0  0  0  0  0  0  0
   10.3189  -16.9727   18.0491 C   0  0  0  0  0  0  0  0  0  0  0  0
   10.4099  -17.1471   16.6976 C   0  0  0  0  0  0  0  0  0  0  0  0
   11.6890  -17.3637   16.4000 N   0  0  0  0  0  0  0  0  0  0  0  0
   12.4275  -17.3366   17.5018 C   0  0  0  0  0  0  0  0  0  0  0  0
   11.5821  -17.0956   18.5170 N   0  0  0  0  0  0  0  0  0  0  0  0
    7.8282  -17.5771   20.7749 C   0  0  0  0  0  0  0  0  0  0  0  0
    6.6522  -17.1865   20.5679 O   0  0  0  0  0  0  0  0  0  0  0  0
    8.2781  -17.6659   22.0982 N   0  0  0  0  0  0  0  0  0  0  0  0
    7.5200  -17.3606   23.2676 C   0  0  1  0  0  0  0  0  0  0  0  0
    6.9537  -18.5581   23.9693 C   0  0  0  0  0  0  0  0  0  0  0  0
    6.0893  -18.0086   25.4536 S   0  0  0  0  0  0  0  0  0  0  0  0
    8.3218  -16.4942   24.1741 C   0  0  0  0  0  0  0  0  0  0  0  0
    9.5553  -16.7157   24.3359 O   0  0  0  0  0  0  0  0  0  0  0  0
    6.3059  -11.5450   25.5063 C   0  0  0  0  0  0  0  0  0  0  0  0
    7.2719  -12.6255   25.0177 C   0  0  0  0  0  0  0  0  0  0  0  0
    7.8281  -13.3989   26.1892 C   0  0  2  0  0  0  0  0  0  0  0  0
    8.6010  -12.4342   27.0591 C   0  0  0  0  0  0  0  0  0  0  0  0
    8.6056  -14.6150   25.7933 C   0  0  2  0  0  0  0  0  0  0  0  0
    7.7574  -15.4032   24.8850 N   0  0  0  0  0  0  0  0  0  0  0  0
    9.0226  -15.4502   26.9482 C   0  0  0  0  0  0  0  0  0  0  0  0
   10.2856  -15.3124   27.5307 O   0  0  0  0  0  0  0  0  0  0  0  0
    8.2856  -16.3208   27.4719 O   0  0  0  0  0  0  0  0  0  0  0  0
  2  1  1  6
  3  2  1  0
  4  3  1  0
  5  4  2  0
  6  5  1  0
  6  7  1  0
  7  8  2  0
  8  4  1  0
  9 10  2  0
  9  2  1  0
 11  9  1  0
 12 11  1  0
 13 14  1  0
 12 13  1  1
 15 12  1  0
 15 22  1  0
 16 15  2  0
 18 17  1  0
 19 18  1  0
 19 20  1  6
 21 19  1  0
 21 22  1  6
 21 23  1  0
 23 24  1  0
 25 23  2  0
M  END
$$$$
