HCI.pdb
     RDKit          3D

 25 25  0  0  1  0  0  0  0  0999 V2000
    9.0798  -16.5857   19.9743 N   0  0  0  0  0  0  0  0  0  0  0  0
    8.3244  -17.0778   21.1195 C   0  0  1  0  0  0  0  0  0  0  0  0
    8.7626  -18.4865   21.3943 C   0  0  0  0  0  0  0  0  0  0  0  0
    8.3841  -19.4069   20.3074 C   0  0  0  0  0  0  0  0  0  0  0  0
    7.7809  -19.1862   19.1022 C   0  0  0  0  0  0  0  0  0  0  0  0
    7.6622  -20.3594   18.4851 N   0  0  0  0  0  0  0  0  0  0  0  0
    8.1630  -21.3281   19.2405 C   0  0  0  0  0  0  0  0  0  0  0  0
    8.6075  -20.7399   20.3630 N   0  0  0  0  0  0  0  0  0  0  0  0
    8.5463  -16.2258   22.2957 C   0  0  0  0  0  0  0  0  0  0  0  0
    9.5844  -15.5262   22.4020 O   0  0  0  0  0  0  0  0  0  0  0  0
    7.6002  -16.1761   23.3272 N   0  0  0  0  0  0  0  0  0  0  0  0
    7.6902  -15.3912   24.5152 C   0  0  1  0  0  0  0  0  0  0  0  0
    6.3743  -15.1194   25.1797 C   0  0  0  0  0  0  0  0  0  0  0  0
    6.6318  -13.9432   26.5223 S   0  0  0  0  0  0  0  0  0  0  0  0
    8.6839  -15.9968   25.4433 C   0  0  0  0  0  0  0  0  0  0  0  0
    9.0266  -17.2052   25.3049 O   0  0  0  0  0  0  0  0  0  0  0  0
   10.8702  -12.6525   29.2797 C   0  0  0  0  0  0  0  0  0  0  0  0
   10.8971  -13.6019   28.0808 C   0  0  0  0  0  0  0  0  0  0  0  0
   10.5485  -15.0051   28.5163 C   0  0  2  0  0  0  0  0  0  0  0  0
   11.6411  -15.4904   29.4411 C   0  0  0  0  0  0  0  0  0  0  0  0
   10.2594  -15.9343   27.3792 C   0  0  2  0  0  0  0  0  0  0  0  0
    9.2823  -15.2676   26.5037 N   0  0  0  0  0  0  0  0  0  0  0  0
    9.7320  -17.2526   27.8142 C   0  0  0  0  0  0  0  0  0  0  0  0
   10.5817  -18.3363   28.0526 O   0  0  0  0  0  0  0  0  0  0  0  0
    8.5113  -17.4818   27.9946 O   0  0  0  0  0  0  0  0  0  0  0  0
  2  1  1  6
  3  2  1  0
  4  3  1  0
  5  4  2  0
  6  5  1  0
  6  7  1  0
  7  8  2  0
  8  4  1  0
  9 10  2  0
  9  2  1  0
 11  9  1  0
 12 11  1  0
 13 14  1  0
 12 13  1  1
 15 12  1  0
 15 22  1  0
 16 15  2  0
 18 17  1  0
 19 18  1  0
 19 20  1  6
 21 19  1  0
 21 22  1  6
 21 23  1  0
 23 24  1  0
 25 23  2  0
M  END
$$$$
