AEP.pdb
     RDKit          3D

 22 22  0  0  1  0  0  0  0  0999 V2000
    8.4151  -12.5078   19.6522 C   0  0  0  0  0  0  0  0  0  0  0  0
    8.2292  -13.9958   19.7881 C   0  0  2  0  0  0  0  0  0  0  0  0
    7.3064  -14.5181   18.8060 N   0  0  0  0  0  0  0  0  0  0  0  0
    7.7520  -14.2978   21.1612 C   0  0  0  0  0  0  0  0  0  0  0  0
    6.5619  -14.0288   21.4745 O   0  0  0  0  0  0  0  0  0  0  0  0
    8.5655  -14.8777   22.1547 N   0  0  0  0  0  0  0  0  0  0  0  0
    8.0381  -15.1721   23.4665 C   0  0  1  0  0  0  0  0  0  0  0  0
    7.9604  -16.6436   23.6885 C   0  0  0  0  0  0  0  0  0  0  0  0
    7.0270  -17.3170   22.7391 C   0  0  0  0  0  0  0  0  0  0  0  0
    7.0521  -18.8163   23.0115 C   0  0  0  0  0  0  0  0  0  0  0  0
    6.1658  -19.3882   23.6783 O   0  0  0  0  0  0  0  0  0  0  0  0
    8.6408  -14.4479   24.5756 C   0  0  0  0  0  0  0  0  0  0  0  0
    9.9457  -14.3371   24.6076 O   0  0  0  0  0  0  0  0  0  0  0  0
    8.1184  -19.5145   22.4754 O   0  0  0  0  0  0  0  0  0  0  0  0
    8.0383  -13.8096   25.6786 N   0  0  0  0  0  0  0  0  0  0  0  0
    6.5998  -13.6475   25.8373 C   0  0  0  0  0  0  0  0  0  0  0  0
    6.3929  -12.8590   27.0919 C   0  0  0  0  0  0  0  0  0  0  0  0
    7.7136  -12.1367   27.2674 C   0  0  0  0  0  0  0  0  0  0  0  0
    8.6783  -13.2252   26.7921 C   0  0  1  0  0  0  0  0  0  0  0  0
    8.8487  -14.1493   27.9486 C   0  0  0  0  0  0  0  0  0  0  0  0
    8.2995  -15.2758   28.0394 O   0  0  0  0  0  0  0  0  0  0  0  0
    9.6609  -13.7641   29.0042 O   0  0  0  0  0  0  0  0  0  0  0  0
  2  1  1  1
  2  3  1  0
  4  6  1  0
  4  2  1  0
  5  4  2  0
  7  6  1  0
  7 12  1  0
  7  8  1  1
  9  8  1  0
 10  9  1  0
 11 10  2  0
 12 15  1  0
 13 12  2  0
 14 10  1  0
 15 16  1  0
 15 19  1  0
 16 17  1  0
 18 17  1  0
 19 18  1  0
 19 20  1  1
 20 21  2  0
 20 22  1  0
M  END
$$$$
