AEP.pdb
     RDKit          3D

 22 22  0  0  1  0  0  0  0  0999 V2000
    8.5734  -12.3081   19.8111 C   0  0  0  0  0  0  0  0  0  0  0  0
    8.2514  -13.7771   19.7369 C   0  0  2  0  0  0  0  0  0  0  0  0
    7.3395  -14.0776   18.6567 N   0  0  0  0  0  0  0  0  0  0  0  0
    7.6781  -14.2102   21.0361 C   0  0  0  0  0  0  0  0  0  0  0  0
    6.4532  -14.0238   21.2634 O   0  0  0  0  0  0  0  0  0  0  0  0
    8.4358  -14.8287   22.0503 N   0  0  0  0  0  0  0  0  0  0  0  0
    7.8346  -15.1803   23.3154 C   0  0  1  0  0  0  0  0  0  0  0  0
    7.7326  -16.6598   23.4608 C   0  0  0  0  0  0  0  0  0  0  0  0
    7.1177  -17.0662   24.7581 C   0  0  0  0  0  0  0  0  0  0  0  0
    7.1258  -18.5877   24.8461 C   0  0  0  0  0  0  0  0  0  0  0  0
    8.0385  -19.2798   24.3511 O   0  0  0  0  0  0  0  0  0  0  0  0
    8.3814  -14.5172   24.4898 C   0  0  0  0  0  0  0  0  0  0  0  0
    9.6766  -14.5629   24.6809 O   0  0  0  0  0  0  0  0  0  0  0  0
    6.0586  -19.1646   25.5097 O   0  0  0  0  0  0  0  0  0  0  0  0
    7.7310  -13.7951   25.5110 N   0  0  0  0  0  0  0  0  0  0  0  0
    6.2909  -13.5872   25.5683 C   0  0  0  0  0  0  0  0  0  0  0  0
    6.0303  -12.7157   26.7562 C   0  0  0  0  0  0  0  0  0  0  0  0
    7.3581  -12.0171   26.9697 C   0  0  0  0  0  0  0  0  0  0  0  0
    8.3182  -13.1575   26.6244 C   0  0  1  0  0  0  0  0  0  0  0  0
    8.3903  -14.0103   27.8443 C   0  0  0  0  0  0  0  0  0  0  0  0
    8.9491  -13.6651   28.9155 O   0  0  0  0  0  0  0  0  0  0  0  0
    7.8103  -15.2695   27.8207 O   0  0  0  0  0  0  0  0  0  0  0  0
  2  1  1  1
  2  3  1  0
  4  6  1  0
  4  2  1  0
  5  4  2  0
  7  6  1  0
  7 12  1  0
  7  8  1  1
  9  8  1  0
 10  9  1  0
 11 10  2  0
 12 15  1  0
 13 12  2  0
 14 10  1  0
 15 16  1  0
 15 19  1  0
 16 17  1  0
 18 17  1  0
 19 18  1  0
 19 20  1  1
 20 21  2  0
 20 22  1  0
M  END
$$$$
