AEP.pdb
     RDKit          3D

 22 22  0  0  1  0  0  0  0  0999 V2000
    6.4717  -19.6632   18.7529 C   0  0  0  0  0  0  0  0  0  0  0  0
    6.2029  -19.3981   20.2105 C   0  0  2  0  0  0  0  0  0  0  0  0
    4.7879  -19.3626   20.5024 N   0  0  0  0  0  0  0  0  0  0  0  0
    6.8443  -18.1148   20.5925 C   0  0  0  0  0  0  0  0  0  0  0  0
    6.2247  -17.0344   20.4034 O   0  0  0  0  0  0  0  0  0  0  0  0
    8.1292  -18.0303   21.1645 N   0  0  0  0  0  0  0  0  0  0  0  0
    8.7393  -16.7489   21.4315 C   0  0  1  0  0  0  0  0  0  0  0  0
    9.8188  -16.8778   22.4506 C   0  0  0  0  0  0  0  0  0  0  0  0
   10.4613  -15.5701   22.7721 C   0  0  0  0  0  0  0  0  0  0  0  0
   11.5514  -15.8047   23.8110 C   0  0  0  0  0  0  0  0  0  0  0  0
   12.7597  -15.6128   23.5652 O   0  0  0  0  0  0  0  0  0  0  0  0
    9.1307  -15.9713   20.2652 C   0  0  0  0  0  0  0  0  0  0  0  0
    9.5186  -16.6153   19.1925 O   0  0  0  0  0  0  0  0  0  0  0  0
   11.1260  -16.2451   25.0508 O   0  0  0  0  0  0  0  0  0  0  0  0
    9.1671  -14.5751   20.0744 N   0  0  0  0  0  0  0  0  0  0  0  0
    8.9688  -13.6038   21.1411 C   0  0  0  0  0  0  0  0  0  0  0  0
    9.0109  -12.2512   20.5028 C   0  0  0  0  0  0  0  0  0  0  0  0
    8.6622  -12.5409   19.0567 C   0  0  0  0  0  0  0  0  0  0  0  0
    9.3880  -13.8750   18.8693 C   0  0  1  0  0  0  0  0  0  0  0  0
   10.8159  -13.5285   18.6213 C   0  0  0  0  0  0  0  0  0  0  0  0
   11.7158  -13.5724   19.4972 O   0  0  0  0  0  0  0  0  0  0  0  0
   11.2010  -13.1300   17.3503 O   0  0  0  0  0  0  0  0  0  0  0  0
  2  1  1  6
  2  3  1  0
  4  6  1  0
  4  2  1  0
  5  4  2  0
  7  6  1  0
  7 12  1  0
  7  8  1  1
  9  8  1  0
 10  9  1  0
 11 10  2  0
 12 15  1  0
 13 12  2  0
 14 10  1  0
 15 16  1  0
 15 19  1  0
 16 17  1  0
 18 17  1  0
 19 18  1  0
 19 20  1  1
 20 21  2  0
 20 22  1  0
M  END
$$$$
