AEP.pdb
     RDKit          3D

 22 22  0  0  1  0  0  0  0  0999 V2000
    7.4996  -12.8641   19.2986 C   0  0  0  0  0  0  0  0  0  0  0  0
    8.5284  -13.5385   20.1669 C   0  0  2  0  0  0  0  0  0  0  0  0
    9.0453  -14.7428   19.5580 N   0  0  0  0  0  0  0  0  0  0  0  0
    7.9191  -13.8437   21.4860 C   0  0  0  0  0  0  0  0  0  0  0  0
    7.4603  -12.9029   22.1869 O   0  0  0  0  0  0  0  0  0  0  0  0
    7.8214  -15.1472   22.0119 N   0  0  0  0  0  0  0  0  0  0  0  0
    7.3687  -15.3689   23.3652 C   0  0  1  0  0  0  0  0  0  0  0  0
    7.1978  -16.8244   23.6352 C   0  0  0  0  0  0  0  0  0  0  0  0
    6.6787  -17.0946   25.0078 C   0  0  0  0  0  0  0  0  0  0  0  0
    6.5674  -18.6025   25.1989 C   0  0  0  0  0  0  0  0  0  0  0  0
    6.8746  -19.1637   26.2703 O   0  0  0  0  0  0  0  0  0  0  0  0
    8.1014  -14.6663   24.4080 C   0  0  0  0  0  0  0  0  0  0  0  0
    9.4105  -14.6867   24.3671 O   0  0  0  0  0  0  0  0  0  0  0  0
    6.1037  -19.3211   24.1124 O   0  0  0  0  0  0  0  0  0  0  0  0
    7.6278  -13.9277   25.5114 N   0  0  0  0  0  0  0  0  0  0  0  0
    6.2169  -13.7025   25.7930 C   0  0  0  0  0  0  0  0  0  0  0  0
    6.1560  -12.8174   26.9978 C   0  0  0  0  0  0  0  0  0  0  0  0
    7.5079  -12.1325   26.9916 C   0  0  0  0  0  0  0  0  0  0  0  0
    8.3898  -13.2871   26.5113 C   0  0  1  0  0  0  0  0  0  0  0  0
    8.6450  -14.1298   27.7135 C   0  0  0  0  0  0  0  0  0  0  0  0
    8.1197  -15.2538   27.9126 O   0  0  0  0  0  0  0  0  0  0  0  0
    9.5147  -13.6659   28.6886 O   0  0  0  0  0  0  0  0  0  0  0  0
  2  1  1  6
  2  3  1  0
  4  6  1  0
  4  2  1  0
  5  4  2  0
  7  6  1  0
  7 12  1  0
  7  8  1  1
  9  8  1  0
 10  9  1  0
 11 10  2  0
 12 15  1  0
 13 12  2  0
 14 10  1  0
 15 16  1  0
 15 19  1  0
 16 17  1  0
 18 17  1  0
 19 18  1  0
 19 20  1  1
 20 21  2  0
 20 22  1  0
M  END
$$$$
