FLF.pdb
     RDKit          3D

 31 32  0  0  1  0  0  0  0  0999 V2000
    5.9903  -18.9484   20.7058 N   0  0  0  0  0  0  0  0  0  0  0  0
    6.4075  -18.4754   21.9868 C   0  0  1  0  0  0  0  0  0  0  0  0
    6.5947  -19.6231   22.9240 C   0  0  0  0  0  0  0  0  0  0  0  0
    6.8370  -19.0438   24.2880 C   0  0  0  0  0  0  0  0  0  0  0  0
    7.9878  -19.3130   24.9875 C   0  0  0  0  0  0  0  0  0  0  0  0
    8.2522  -18.8035   26.2416 C   0  0  0  0  0  0  0  0  0  0  0  0
    7.3001  -17.9780   26.8164 C   0  0  0  0  0  0  0  0  0  0  0  0
    6.1193  -17.6776   26.1450 C   0  0  0  0  0  0  0  0  0  0  0  0
    5.9054  -18.2157   24.8894 C   0  0  0  0  0  0  0  0  0  0  0  0
    7.5720  -17.5626   21.9266 C   0  0  0  0  0  0  0  0  0  0  0  0
    8.6838  -18.0135   21.5346 O   0  0  0  0  0  0  0  0  0  0  0  0
    8.2269  -14.0840   19.2444 C   0  0  0  0  0  0  0  0  0  0  0  0
    7.3051  -13.7915   20.4432 C   0  0  2  0  0  0  0  0  0  0  0  0
    6.7802  -12.3986   20.1770 C   0  0  0  0  0  0  0  0  0  0  0  0
    8.1514  -13.8974   21.6562 C   0  0  0  0  0  0  0  0  0  0  0  0
    8.5920  -15.2415   22.0843 C   0  0  2  0  0  0  0  0  0  0  0  0
    7.5248  -16.1943   22.2845 N   0  0  0  0  0  0  0  0  0  0  0  0
    9.4629  -15.1933   23.2652 C   0  0  0  0  0  0  0  0  0  0  0  0
   10.5486  -14.5655   23.3171 O   0  0  0  0  0  0  0  0  0  0  0  0
    9.0807  -15.8880   24.4443 N   0  0  0  0  0  0  0  0  0  0  0  0
    9.8049  -15.7437   25.6975 C   0  0  1  0  0  0  0  0  0  0  0  0
    8.7040  -15.4995   26.7449 C   0  0  0  0  0  0  0  0  0  0  0  0
    7.9837  -14.2438   26.5350 C   0  0  0  0  0  0  0  0  0  0  0  0
    6.6601  -14.2550   26.1590 C   0  0  0  0  0  0  0  0  0  0  0  0
    5.9990  -13.0645   25.9661 C   0  0  0  0  0  0  0  0  0  0  0  0
    6.6198  -11.8408   26.1372 C   0  0  0  0  0  0  0  0  0  0  0  0
    7.9497  -11.8784   26.5152 C   0  0  0  0  0  0  0  0  0  0  0  0
    8.6518  -13.0371   26.7196 C   0  0  0  0  0  0  0  0  0  0  0  0
   10.6337  -16.8912   26.0513 C   0  0  0  0  0  0  0  0  0  0  0  0
   10.7158  -18.0514   25.2845 O   0  0  0  0  0  0  0  0  0  0  0  0
   11.3378  -16.8838   27.1061 O   0  0  0  0  0  0  0  0  0  0  0  0
  2  1  1  6
  3  4  1  0
  3  2  1  0
  4  9  1  0
  4  5  2  0
  5  6  1  0
  6  7  2  0
  8  7  1  0
  9  8  2  0
 10 11  2  0
 10  2  1  0
 13 12  1  6
 13 14  1  0
 13 15  1  0
 16 15  1  1
 16 17  1  0
 17 10  1  0
 18 16  1  0
 19 18  2  0
 20 18  1  0
 21 20  1  0
 21 22  1  1
 22 23  1  0
 23 28  1  0
 24 23  2  0
 24 25  1  0
 25 26  2  0
 26 27  1  0
 28 27  2  0
 29 30  1  0
 29 21  1  0
 31 29  2  0
M  END
$$$$
