FLF.pdb
     RDKit          3D

 31 32  0  0  1  0  0  0  0  0999 V2000
    8.0076  -19.2378   20.8353 N   0  0  0  0  0  0  0  0  0  0  0  0
    8.9908  -18.6040   20.0166 C   0  0  1  0  0  0  0  0  0  0  0  0
    8.5349  -18.5724   18.5947 C   0  0  0  0  0  0  0  0  0  0  0  0
    9.7619  -18.6778   17.7356 C   0  0  0  0  0  0  0  0  0  0  0  0
   10.3622  -17.5635   17.2026 C   0  0  0  0  0  0  0  0  0  0  0  0
   11.4891  -17.6130   16.4088 C   0  0  0  0  0  0  0  0  0  0  0  0
   12.0357  -18.8573   16.1417 C   0  0  0  0  0  0  0  0  0  0  0  0
   11.4618  -20.0135   16.6601 C   0  0  0  0  0  0  0  0  0  0  0  0
   10.3321  -19.9061   17.4502 C   0  0  0  0  0  0  0  0  0  0  0  0
    9.4228  -17.2841   20.5307 C   0  0  0  0  0  0  0  0  0  0  0  0
   10.6325  -16.9456   20.4087 O   0  0  0  0  0  0  0  0  0  0  0  0
    8.8747  -12.9884   19.3028 C   0  0  0  0  0  0  0  0  0  0  0  0
    7.6437  -13.7023   19.8923 C   0  0  2  0  0  0  0  0  0  0  0  0
    6.5121  -12.7199   19.6894 C   0  0  0  0  0  0  0  0  0  0  0  0
    7.9605  -13.9745   21.3150 C   0  0  0  0  0  0  0  0  0  0  0  0
    8.9357  -15.0420   21.6207 C   0  0  2  0  0  0  0  0  0  0  0  0
    8.5579  -16.3583   21.1610 N   0  0  0  0  0  0  0  0  0  0  0  0
    9.2931  -15.0802   23.0441 C   0  0  0  0  0  0  0  0  0  0  0  0
   10.0978  -14.2879   23.5920 O   0  0  0  0  0  0  0  0  0  0  0  0
    8.7057  -16.0627   23.8860 N   0  0  0  0  0  0  0  0  0  0  0  0
    9.0712  -16.2009   25.2872 C   0  0  1  0  0  0  0  0  0  0  0  0
    7.7846  -15.8410   26.0513 C   0  0  0  0  0  0  0  0  0  0  0  0
    7.6276  -14.4017   26.2601 C   0  0  0  0  0  0  0  0  0  0  0  0
    8.7095  -13.6270   26.6104 C   0  0  0  0  0  0  0  0  0  0  0  0
    8.5429  -12.2754   26.8027 C   0  0  0  0  0  0  0  0  0  0  0  0
    7.3154  -11.6560   26.6560 C   0  0  0  0  0  0  0  0  0  0  0  0
    6.2571  -12.4738   26.3033 C   0  0  0  0  0  0  0  0  0  0  0  0
    6.3716  -13.8240   26.1006 C   0  0  0  0  0  0  0  0  0  0  0  0
    9.5586  -17.5258   25.6559 C   0  0  0  0  0  0  0  0  0  0  0  0
    9.7943  -18.5463   24.7373 O   0  0  0  0  0  0  0  0  0  0  0  0
    9.7960  -17.8170   26.8672 O   0  0  0  0  0  0  0  0  0  0  0  0
  2  1  1  1
  3  4  1  0
  3  2  1  0
  4  9  1  0
  4  5  2  0
  5  6  1  0
  6  7  2  0
  8  7  1  0
  9  8  2  0
 10 11  2  0
 10  2  1  0
 13 12  1  6
 13 14  1  0
 13 15  1  0
 16 15  1  1
 16 17  1  0
 17 10  1  0
 18 16  1  0
 19 18  2  0
 20 18  1  0
 21 20  1  0
 21 22  1  1
 22 23  1  0
 23 28  1  0
 24 23  2  0
 24 25  1  0
 25 26  2  0
 26 27  1  0
 28 27  2  0
 29 30  1  0
 29 21  1  0
 31 29  2  0
M  END
$$$$
