FLF.pdb
     RDKit          3D

 31 32  0  0  1  0  0  0  0  0999 V2000
    6.2192  -20.4529   22.2287 N   0  0  0  0  0  0  0  0  0  0  0  0
    6.6618  -19.6033   23.2875 C   0  0  1  0  0  0  0  0  0  0  0  0
    7.3381  -20.4100   24.3471 C   0  0  0  0  0  0  0  0  0  0  0  0
    7.4114  -19.5507   25.5763 C   0  0  0  0  0  0  0  0  0  0  0  0
    6.2805  -19.1851   26.2643 C   0  0  0  0  0  0  0  0  0  0  0  0
    6.3004  -18.3979   27.3967 C   0  0  0  0  0  0  0  0  0  0  0  0
    7.5314  -17.9587   27.8554 C   0  0  0  0  0  0  0  0  0  0  0  0
    8.7036  -18.3040   27.1907 C   0  0  0  0  0  0  0  0  0  0  0  0
    8.6258  -19.0959   26.0598 C   0  0  0  0  0  0  0  0  0  0  0  0
    7.4620  -18.4483   22.8199 C   0  0  0  0  0  0  0  0  0  0  0  0
    8.6035  -18.6554   22.3229 O   0  0  0  0  0  0  0  0  0  0  0  0
    6.3664  -12.5271   21.3603 C   0  0  0  0  0  0  0  0  0  0  0  0
    7.4378  -13.6336   21.3497 C   0  0  2  0  0  0  0  0  0  0  0  0
    7.6840  -13.8982   19.8813 C   0  0  0  0  0  0  0  0  0  0  0  0
    6.8569  -14.7843   22.0826 C   0  0  0  0  0  0  0  0  0  0  0  0
    7.7064  -15.9740   22.2997 C   0  0  2  0  0  0  0  0  0  0  0  0
    7.0282  -17.1033   22.8926 N   0  0  0  0  0  0  0  0  0  0  0  0
    8.9272  -15.6581   23.0513 C   0  0  0  0  0  0  0  0  0  0  0  0
    9.9550  -15.1444   22.5459 O   0  0  0  0  0  0  0  0  0  0  0  0
    8.9820  -15.9354   24.4438 N   0  0  0  0  0  0  0  0  0  0  0  0
   10.0955  -15.5066   25.2758 C   0  0  1  0  0  0  0  0  0  0  0  0
    9.4371  -15.0852   26.6016 C   0  0  0  0  0  0  0  0  0  0  0  0
    8.4899  -13.9818   26.4440 C   0  0  0  0  0  0  0  0  0  0  0  0
    7.1508  -14.2355   26.2547 C   0  0  0  0  0  0  0  0  0  0  0  0
    6.2748  -13.1853   26.1084 C   0  0  0  0  0  0  0  0  0  0  0  0
    6.6918  -11.8675   26.1444 C   0  0  0  0  0  0  0  0  0  0  0  0
    8.0458  -11.6605   26.3367 C   0  0  0  0  0  0  0  0  0  0  0  0
    8.9578  -12.6719   26.4875 C   0  0  0  0  0  0  0  0  0  0  0  0
   11.1183  -16.5254   25.4874 C   0  0  0  0  0  0  0  0  0  0  0  0
   12.3162  -16.2907   26.1587 O   0  0  0  0  0  0  0  0  0  0  0  0
   10.9577  -17.7070   25.0555 O   0  0  0  0  0  0  0  0  0  0  0  0
  2  1  1  6
  3  4  1  0
  3  2  1  0
  4  9  1  0
  4  5  2  0
  5  6  1  0
  6  7  2  0
  8  7  1  0
  9  8  2  0
 10 11  2  0
 10  2  1  0
 13 12  1  6
 13 14  1  0
 13 15  1  0
 16 15  1  1
 16 17  1  0
 17 10  1  0
 18 16  1  0
 19 18  2  0
 20 18  1  0
 21 20  1  0
 21 22  1  1
 22 23  1  0
 23 28  1  0
 24 23  2  0
 24 25  1  0
 25 26  2  0
 26 27  1  0
 28 27  2  0
 29 30  1  0
 29 21  1  0
 31 29  2  0
M  END
$$$$
