FLF.pdb
     RDKit          3D

 31 32  0  0  1  0  0  0  0  0999 V2000
    5.4974  -17.6069   23.6814 N   0  0  0  0  0  0  0  0  0  0  0  0
    6.8495  -18.0596   23.6057 C   0  0  1  0  0  0  0  0  0  0  0  0
    6.8896  -19.5497   23.5123 C   0  0  0  0  0  0  0  0  0  0  0  0
    6.3540  -20.0876   24.8079 C   0  0  0  0  0  0  0  0  0  0  0  0
    6.8528  -19.6718   26.0179 C   0  0  0  0  0  0  0  0  0  0  0  0
    6.3919  -20.1383   27.2313 C   0  0  0  0  0  0  0  0  0  0  0  0
    5.3719  -21.0752   27.2168 C   0  0  0  0  0  0  0  0  0  0  0  0
    4.8357  -21.5257   26.0149 C   0  0  0  0  0  0  0  0  0  0  0  0
    5.3355  -21.0244   24.8271 C   0  0  0  0  0  0  0  0  0  0  0  0
    7.6406  -17.3778   22.5558 C   0  0  0  0  0  0  0  0  0  0  0  0
    8.4201  -18.0612   21.8359 O   0  0  0  0  0  0  0  0  0  0  0  0
    7.8101  -13.9826   19.4138 C   0  0  0  0  0  0  0  0  0  0  0  0
    7.2942  -13.5074   20.7852 C   0  0  2  0  0  0  0  0  0  0  0  0
    6.9503  -12.0509   20.5682 C   0  0  0  0  0  0  0  0  0  0  0  0
    8.3998  -13.7310   21.7476 C   0  0  0  0  0  0  0  0  0  0  0  0
    8.7263  -15.1223   22.1242 C   0  0  2  0  0  0  0  0  0  0  0  0
    7.5827  -15.9876   22.2983 N   0  0  0  0  0  0  0  0  0  0  0  0
    9.6034  -15.1909   23.2994 C   0  0  0  0  0  0  0  0  0  0  0  0
   10.7757  -14.7436   23.3331 O   0  0  0  0  0  0  0  0  0  0  0  0
    9.1249  -15.7928   24.4943 N   0  0  0  0  0  0  0  0  0  0  0  0
    9.8668  -15.7302   25.7440 C   0  0  1  0  0  0  0  0  0  0  0  0
    8.7836  -15.8312   26.8326 C   0  0  0  0  0  0  0  0  0  0  0  0
    7.8645  -14.6933   26.8317 C   0  0  0  0  0  0  0  0  0  0  0  0
    8.3070  -13.4407   27.1903 C   0  0  0  0  0  0  0  0  0  0  0  0
    7.4284  -12.3825   27.1836 C   0  0  0  0  0  0  0  0  0  0  0  0
    6.1009  -12.5293   26.8260 C   0  0  0  0  0  0  0  0  0  0  0  0
    5.7011  -13.8056   26.4732 C   0  0  0  0  0  0  0  0  0  0  0  0
    6.5370  -14.8911   26.4639 C   0  0  0  0  0  0  0  0  0  0  0  0
   10.8779  -16.7707   25.8984 C   0  0  0  0  0  0  0  0  0  0  0  0
   11.0972  -17.7806   24.9641 O   0  0  0  0  0  0  0  0  0  0  0  0
   11.6253  -16.8038   26.9225 O   0  0  0  0  0  0  0  0  0  0  0  0
  2  1  1  6
  3  4  1  0
  3  2  1  0
  4  9  1  0
  4  5  2  0
  5  6  1  0
  6  7  2  0
  8  7  1  0
  9  8  2  0
 10 11  2  0
 10  2  1  0
 13 12  1  6
 13 14  1  0
 13 15  1  0
 16 15  1  1
 16 17  1  0
 17 10  1  0
 18 16  1  0
 19 18  2  0
 20 18  1  0
 21 20  1  0
 21 22  1  1
 22 23  1  0
 23 28  1  0
 24 23  2  0
 24 25  1  0
 25 26  2  0
 26 27  1  0
 28 27  2  0
 29 30  1  0
 29 21  1  0
 31 29  2  0
M  END
$$$$
