FLF.pdb
     RDKit          3D

 31 32  0  0  1  0  0  0  0  0999 V2000
    5.2538  -19.2460   23.4969 N   0  0  0  0  0  0  0  0  0  0  0  0
    5.8604  -18.0804   24.0555 C   0  0  1  0  0  0  0  0  0  0  0  0
    6.2901  -18.3462   25.4610 C   0  0  0  0  0  0  0  0  0  0  0  0
    6.7353  -17.0349   26.0417 C   0  0  0  0  0  0  0  0  0  0  0  0
    7.9189  -16.9196   26.7285 C   0  0  0  0  0  0  0  0  0  0  0  0
    8.3670  -15.7367   27.2783 C   0  0  0  0  0  0  0  0  0  0  0  0
    7.5733  -14.6121   27.1236 C   0  0  0  0  0  0  0  0  0  0  0  0
    6.3663  -14.6814   26.4356 C   0  0  0  0  0  0  0  0  0  0  0  0
    5.9650  -15.8934   25.9043 C   0  0  0  0  0  0  0  0  0  0  0  0
    6.9304  -17.5090   23.2060 C   0  0  0  0  0  0  0  0  0  0  0  0
    7.8354  -18.2710   22.7663 O   0  0  0  0  0  0  0  0  0  0  0  0
    9.5960  -13.3193   20.7803 C   0  0  0  0  0  0  0  0  0  0  0  0
    8.2477  -13.7264   20.1567 C   0  0  2  0  0  0  0  0  0  0  0  0
    7.6884  -12.4343   19.6051 C   0  0  0  0  0  0  0  0  0  0  0  0
    7.4415  -14.3152   21.2531 C   0  0  0  0  0  0  0  0  0  0  0  0
    7.8909  -15.5949   21.8399 C   0  0  2  0  0  0  0  0  0  0  0  0
    7.0108  -16.1429   22.8459 N   0  0  0  0  0  0  0  0  0  0  0  0
    9.2664  -15.5232   22.3478 C   0  0  0  0  0  0  0  0  0  0  0  0
   10.2534  -15.1559   21.6647 O   0  0  0  0  0  0  0  0  0  0  0  0
    9.5331  -15.8820   23.6965 N   0  0  0  0  0  0  0  0  0  0  0  0
   10.8877  -16.0271   24.2062 C   0  0  1  0  0  0  0  0  0  0  0  0
   11.2702  -14.6114   24.6730 C   0  0  0  0  0  0  0  0  0  0  0  0
   10.5817  -14.2084   25.8991 C   0  0  0  0  0  0  0  0  0  0  0  0
    9.5710  -13.2757   25.8555 C   0  0  0  0  0  0  0  0  0  0  0  0
    8.9349  -12.9089   27.0185 C   0  0  0  0  0  0  0  0  0  0  0  0
    9.2752  -13.4473   28.2458 C   0  0  0  0  0  0  0  0  0  0  0  0
   10.2961  -14.3805   28.2412 C   0  0  0  0  0  0  0  0  0  0  0  0
   10.9600  -14.7787   27.1108 C   0  0  0  0  0  0  0  0  0  0  0  0
   11.0260  -17.0007   25.2842 C   0  0  0  0  0  0  0  0  0  0  0  0
   12.2417  -17.3240   25.8827 O   0  0  0  0  0  0  0  0  0  0  0  0
   10.0141  -17.6158   25.7380 O   0  0  0  0  0  0  0  0  0  0  0  0
  2  1  1  6
  3  4  1  0
  3  2  1  0
  4  9  1  0
  4  5  2  0
  5  6  1  0
  6  7  2  0
  8  7  1  0
  9  8  2  0
 10 11  2  0
 10  2  1  0
 13 12  1  1
 13 14  1  0
 13 15  1  0
 16 15  1  1
 16 17  1  0
 17 10  1  0
 18 16  1  0
 19 18  2  0
 20 18  1  0
 21 20  1  0
 21 22  1  1
 22 23  1  0
 23 28  1  0
 24 23  2  0
 24 25  1  0
 25 26  2  0
 26 27  1  0
 28 27  2  0
 29 30  1  0
 29 21  1  0
 31 29  2  0
M  END
$$$$
