FLF.pdb
     RDKit          3D

 31 32  0  0  1  0  0  0  0  0999 V2000
    7.9136  -18.9137   20.9072 N   0  0  0  0  0  0  0  0  0  0  0  0
    9.2725  -18.6240   20.5784 C   0  0  1  0  0  0  0  0  0  0  0  0
    9.5237  -18.9030   19.1328 C   0  0  0  0  0  0  0  0  0  0  0  0
    9.2619  -20.3653   18.9138 C   0  0  0  0  0  0  0  0  0  0  0  0
    8.1035  -20.8057   18.3222 C   0  0  0  0  0  0  0  0  0  0  0  0
    7.8210  -22.1376   18.1014 C   0  0  0  0  0  0  0  0  0  0  0  0
    8.7625  -23.0715   18.5015 C   0  0  0  0  0  0  0  0  0  0  0  0
    9.9503  -22.6717   19.1049 C   0  0  0  0  0  0  0  0  0  0  0  0
   10.1824  -21.3229   19.3022 C   0  0  0  0  0  0  0  0  0  0  0  0
    9.7068  -17.2744   21.0064 C   0  0  0  0  0  0  0  0  0  0  0  0
   10.8767  -16.8910   20.7285 O   0  0  0  0  0  0  0  0  0  0  0  0
    8.4072  -13.9628   19.3648 C   0  0  0  0  0  0  0  0  0  0  0  0
    7.4595  -14.1568   20.5635 C   0  0  2  0  0  0  0  0  0  0  0  0
    6.4015  -13.0927   20.3764 C   0  0  0  0  0  0  0  0  0  0  0  0
    8.2860  -13.9803   21.7819 C   0  0  0  0  0  0  0  0  0  0  0  0
    9.2681  -15.0325   22.1172 C   0  0  2  0  0  0  0  0  0  0  0  0
    8.8865  -16.3675   21.7184 N   0  0  0  0  0  0  0  0  0  0  0  0
    9.6467  -15.0107   23.5354 C   0  0  0  0  0  0  0  0  0  0  0  0
   10.3933  -14.1452   24.0541 O   0  0  0  0  0  0  0  0  0  0  0  0
    9.1507  -16.0177   24.4066 N   0  0  0  0  0  0  0  0  0  0  0  0
    9.5894  -16.1308   25.7889 C   0  0  1  0  0  0  0  0  0  0  0  0
    8.3615  -15.7027   26.6120 C   0  0  0  0  0  0  0  0  0  0  0  0
    8.1714  -14.2527   26.6429 C   0  0  0  0  0  0  0  0  0  0  0  0
    9.2068  -13.4225   27.0064 C   0  0  0  0  0  0  0  0  0  0  0  0
    9.0096  -12.0615   27.0298 C   0  0  0  0  0  0  0  0  0  0  0  0
    7.7964  -11.4869   26.6982 C   0  0  0  0  0  0  0  0  0  0  0  0
    6.7852  -12.3597   26.3394 C   0  0  0  0  0  0  0  0  0  0  0  0
    6.9315  -13.7215   26.3006 C   0  0  0  0  0  0  0  0  0  0  0  0
   10.0495  -17.4623   26.1691 C   0  0  0  0  0  0  0  0  0  0  0  0
   10.1547  -18.5278   25.2778 O   0  0  0  0  0  0  0  0  0  0  0  0
   10.3840  -17.7172   27.3655 O   0  0  0  0  0  0  0  0  0  0  0  0
  2  1  1  6
  3  4  1  0
  3  2  1  0
  4  9  1  0
  4  5  2  0
  5  6  1  0
  6  7  2  0
  8  7  1  0
  9  8  2  0
 10 11  2  0
 10  2  1  0
 13 12  1  6
 13 14  1  0
 13 15  1  0
 16 15  1  1
 16 17  1  0
 17 10  1  0
 18 16  1  0
 19 18  2  0
 20 18  1  0
 21 20  1  0
 21 22  1  1
 22 23  1  0
 23 28  1  0
 24 23  2  0
 24 25  1  0
 25 26  2  0
 26 27  1  0
 28 27  2  0
 29 30  1  0
 29 21  1  0
 31 29  2  0
M  END
$$$$
