FLF.pdb
     RDKit          3D

 31 32  0  0  1  0  0  0  0  0999 V2000
    5.9633  -20.1807   21.2229 N   0  0  0  0  0  0  0  0  0  0  0  0
    5.6943  -18.8619   21.6995 C   0  0  1  0  0  0  0  0  0  0  0  0
    5.1668  -18.9162   23.0958 C   0  0  0  0  0  0  0  0  0  0  0  0
    3.7632  -19.4440   23.0169 C   0  0  0  0  0  0  0  0  0  0  0  0
    2.7913  -18.7925   22.2980 C   0  0  0  0  0  0  0  0  0  0  0  0
    1.4906  -19.2402   22.1980 C   0  0  0  0  0  0  0  0  0  0  0  0
    1.1581  -20.4095   22.8617 C   0  0  0  0  0  0  0  0  0  0  0  0
    2.1096  -21.1034   23.6021 C   0  0  0  0  0  0  0  0  0  0  0  0
    3.3995  -20.6095   23.6686 C   0  0  0  0  0  0  0  0  0  0  0  0
    6.8340  -17.9314   21.5316 C   0  0  0  0  0  0  0  0  0  0  0  0
    7.9996  -18.4039   21.4257 O   0  0  0  0  0  0  0  0  0  0  0  0
    8.9886  -12.8216   21.4365 C   0  0  0  0  0  0  0  0  0  0  0  0
    8.3281  -13.3324   20.1422 C   0  0  2  0  0  0  0  0  0  0  0  0
    7.7600  -12.0873   19.4989 C   0  0  0  0  0  0  0  0  0  0  0  0
    7.3032  -14.3199   20.5580 C   0  0  0  0  0  0  0  0  0  0  0  0
    7.7620  -15.6001   21.1364 C   0  0  2  0  0  0  0  0  0  0  0  0
    6.7055  -16.5232   21.4807 N   0  0  0  0  0  0  0  0  0  0  0  0
    8.6633  -15.4050   22.2786 C   0  0  0  0  0  0  0  0  0  0  0  0
    9.7626  -14.8023   22.2162 O   0  0  0  0  0  0  0  0  0  0  0  0
    8.2971  -15.9156   23.5530 N   0  0  0  0  0  0  0  0  0  0  0  0
    9.1766  -15.8201   24.7077 C   0  0  1  0  0  0  0  0  0  0  0  0
    8.2173  -15.7370   25.9083 C   0  0  0  0  0  0  0  0  0  0  0  0
    7.6411  -14.4046   26.0884 C   0  0  0  0  0  0  0  0  0  0  0  0
    8.4580  -13.3077   26.2399 C   0  0  0  0  0  0  0  0  0  0  0  0
    7.8984  -12.0626   26.4082 C   0  0  0  0  0  0  0  0  0  0  0  0
    6.5298  -11.8669   26.4315 C   0  0  0  0  0  0  0  0  0  0  0  0
    5.7486  -12.9975   26.2755 C   0  0  0  0  0  0  0  0  0  0  0  0
    6.2574  -14.2582   26.1050 C   0  0  0  0  0  0  0  0  0  0  0  0
   10.1121  -16.9310   24.8474 C   0  0  0  0  0  0  0  0  0  0  0  0
   11.1363  -16.9654   25.7911 O   0  0  0  0  0  0  0  0  0  0  0  0
   10.0328  -17.9464   24.0917 O   0  0  0  0  0  0  0  0  0  0  0  0
  2  1  1  1
  3  4  1  0
  3  2  1  0
  4  9  1  0
  4  5  2  0
  5  6  1  0
  6  7  2  0
  8  7  1  0
  9  8  2  0
 10 11  2  0
 10  2  1  0
 13 12  1  1
 13 14  1  0
 13 15  1  0
 16 15  1  1
 16 17  1  0
 17 10  1  0
 18 16  1  0
 19 18  2  0
 20 18  1  0
 21 20  1  0
 21 22  1  1
 22 23  1  0
 23 28  1  0
 24 23  2  0
 24 25  1  0
 25 26  2  0
 26 27  1  0
 28 27  2  0
 29 30  1  0
 29 21  1  0
 31 29  2  0
M  END
$$$$
