FLF.pdb
     RDKit          3D

 31 32  0  0  1  0  0  0  0  0999 V2000
    5.6014  -19.0061   22.3673 N   0  0  0  0  0  0  0  0  0  0  0  0
    6.0330  -17.9189   23.1861 C   0  0  1  0  0  0  0  0  0  0  0  0
    5.8811  -18.2692   24.6300 C   0  0  0  0  0  0  0  0  0  0  0  0
    6.2457  -17.0463   25.4214 C   0  0  0  0  0  0  0  0  0  0  0  0
    7.1977  -17.0893   26.4102 C   0  0  0  0  0  0  0  0  0  0  0  0
    7.5639  -15.9922   27.1616 C   0  0  0  0  0  0  0  0  0  0  0  0
    6.9316  -14.7887   26.8965 C   0  0  0  0  0  0  0  0  0  0  0  0
    5.9610  -14.6977   25.9042 C   0  0  0  0  0  0  0  0  0  0  0  0
    5.6323  -15.8293   25.1807 C   0  0  0  0  0  0  0  0  0  0  0  0
    7.3817  -17.4174   22.8359 C   0  0  0  0  0  0  0  0  0  0  0  0
    8.2871  -18.2474   22.5456 O   0  0  0  0  0  0  0  0  0  0  0  0
    8.2897  -14.2634   19.5795 C   0  0  0  0  0  0  0  0  0  0  0  0
    7.8895  -13.7266   20.9667 C   0  0  2  0  0  0  0  0  0  0  0  0
    7.7651  -12.2331   20.7653 C   0  0  0  0  0  0  0  0  0  0  0  0
    8.9741  -14.1233   21.8967 C   0  0  0  0  0  0  0  0  0  0  0  0
    9.0081  -15.5219   22.3729 C   0  0  2  0  0  0  0  0  0  0  0  0
    7.7330  -16.0470   22.8034 N   0  0  0  0  0  0  0  0  0  0  0  0
   10.0250  -15.7335   23.4103 C   0  0  0  0  0  0  0  0  0  0  0  0
   11.0623  -15.0377   23.5351 O   0  0  0  0  0  0  0  0  0  0  0  0
    9.8539  -16.7827   24.3531 N   0  0  0  0  0  0  0  0  0  0  0  0
   10.7638  -16.9752   25.4715 C   0  0  1  0  0  0  0  0  0  0  0  0
    9.8649  -16.8585   26.7153 C   0  0  0  0  0  0  0  0  0  0  0  0
    9.5819  -15.4726   27.0879 C   0  0  0  0  0  0  0  0  0  0  0  0
    8.3226  -15.1073   27.5054 C   0  0  0  0  0  0  0  0  0  0  0  0
    8.0750  -13.7995   27.8517 C   0  0  0  0  0  0  0  0  0  0  0  0
    9.0538  -12.8245   27.7963 C   0  0  0  0  0  0  0  0  0  0  0  0
   10.3035  -13.2375   27.3712 C   0  0  0  0  0  0  0  0  0  0  0  0
   10.6003  -14.5269   27.0156 C   0  0  0  0  0  0  0  0  0  0  0  0
   11.4855  -18.2431   25.4511 C   0  0  0  0  0  0  0  0  0  0  0  0
   11.2941  -19.2263   24.4829 O   0  0  0  0  0  0  0  0  0  0  0  0
   12.3457  -18.5157   26.3423 O   0  0  0  0  0  0  0  0  0  0  0  0
  2  1  1  6
  3  4  1  0
  3  2  1  0
  4  9  1  0
  4  5  2  0
  5  6  1  0
  6  7  2  0
  8  7  1  0
  9  8  2  0
 10 11  2  0
 10  2  1  0
 13 12  1  6
 13 14  1  0
 13 15  1  0
 16 15  1  1
 16 17  1  0
 17 10  1  0
 18 16  1  0
 19 18  2  0
 20 18  1  0
 21 20  1  0
 21 22  1  1
 22 23  1  0
 23 28  1  0
 24 23  2  0
 24 25  1  0
 25 26  2  0
 26 27  1  0
 28 27  2  0
 29 30  1  0
 29 21  1  0
 31 29  2  0
M  END
$$$$
