FLF.pdb
     RDKit          3D

 31 32  0  0  1  0  0  0  0  0999 V2000
   10.4493  -18.6329   20.7446 N   0  0  0  0  0  0  0  0  0  0  0  0
   11.2866  -17.5112   20.4629 C   0  0  1  0  0  0  0  0  0  0  0  0
   11.3765  -17.2928   18.9881 C   0  0  0  0  0  0  0  0  0  0  0  0
   12.5467  -16.3831   18.7473 C   0  0  0  0  0  0  0  0  0  0  0  0
   12.3720  -15.0739   18.3714 C   0  0  0  0  0  0  0  0  0  0  0  0
   13.4164  -14.2033   18.1396 C   0  0  0  0  0  0  0  0  0  0  0  0
   14.7051  -14.6856   18.2974 C   0  0  0  0  0  0  0  0  0  0  0  0
   14.9304  -16.0048   18.6770 C   0  0  0  0  0  0  0  0  0  0  0  0
   13.8464  -16.8347   18.8966 C   0  0  0  0  0  0  0  0  0  0  0  0
   10.9157  -16.2945   21.2213 C   0  0  0  0  0  0  0  0  0  0  0  0
   11.8219  -15.6345   21.8010 O   0  0  0  0  0  0  0  0  0  0  0  0
    8.7160  -12.5394   19.8193 C   0  0  0  0  0  0  0  0  0  0  0  0
    7.7537  -13.7031   20.1229 C   0  0  2  0  0  0  0  0  0  0  0  0
    6.3890  -13.1601   19.7629 C   0  0  0  0  0  0  0  0  0  0  0  0
    7.9193  -14.0169   21.5626 C   0  0  0  0  0  0  0  0  0  0  0  0
    9.2075  -14.5873   22.0087 C   0  0  2  0  0  0  0  0  0  0  0  0
    9.5915  -15.8110   21.3440 N   0  0  0  0  0  0  0  0  0  0  0  0
    9.2684  -14.7558   23.4658 C   0  0  0  0  0  0  0  0  0  0  0  0
    9.5980  -13.8490   24.2687 O   0  0  0  0  0  0  0  0  0  0  0  0
    8.9354  -16.0128   24.0385 N   0  0  0  0  0  0  0  0  0  0  0  0
    8.9229  -16.2299   25.4767 C   0  0  1  0  0  0  0  0  0  0  0  0
    7.4913  -15.8594   25.9031 C   0  0  0  0  0  0  0  0  0  0  0  0
    7.3649  -14.4666   26.3317 C   0  0  0  0  0  0  0  0  0  0  0  0
    6.1223  -13.9026   26.5083 C   0  0  0  0  0  0  0  0  0  0  0  0
    6.0229  -12.5915   26.9116 C   0  0  0  0  0  0  0  0  0  0  0  0
    7.1366  -11.8074   27.1498 C   0  0  0  0  0  0  0  0  0  0  0  0
    8.3639  -12.4161   26.9595 C   0  0  0  0  0  0  0  0  0  0  0  0
    8.5155  -13.7175   26.5590 C   0  0  0  0  0  0  0  0  0  0  0  0
    9.2674  -17.5876   25.8853 C   0  0  0  0  0  0  0  0  0  0  0  0
    9.6415  -18.5916   24.9948 O   0  0  0  0  0  0  0  0  0  0  0  0
    9.2400  -17.9252   27.1074 O   0  0  0  0  0  0  0  0  0  0  0  0
  2  1  1  6
  3  4  1  0
  3  2  1  0
  4  9  1  0
  4  5  2  0
  5  6  1  0
  6  7  2  0
  8  7  1  0
  9  8  2  0
 10 11  2  0
 10  2  1  0
 13 12  1  1
 13 14  1  0
 13 15  1  0
 16 15  1  1
 16 17  1  0
 17 10  1  0
 18 16  1  0
 19 18  2  0
 20 18  1  0
 21 20  1  0
 21 22  1  6
 22 23  1  0
 23 28  1  0
 24 23  2  0
 24 25  1  0
 25 26  2  0
 26 27  1  0
 28 27  2  0
 29 30  1  0
 29 21  1  0
 31 29  2  0
M  END
$$$$
