FLF.pdb
     RDKit          3D

 31 32  0  0  1  0  0  0  0  0999 V2000
    6.3231  -19.7756   21.8367 N   0  0  0  0  0  0  0  0  0  0  0  0
    6.1330  -18.3706   21.6677 C   0  0  1  0  0  0  0  0  0  0  0  0
    5.1485  -17.8597   22.6679 C   0  0  0  0  0  0  0  0  0  0  0  0
    3.7829  -18.2540   22.1839 C   0  0  0  0  0  0  0  0  0  0  0  0
    2.9161  -18.9612   22.9804 C   0  0  0  0  0  0  0  0  0  0  0  0
    1.6538  -19.3443   22.5778 C   0  0  0  0  0  0  0  0  0  0  0  0
    1.2494  -18.9919   21.3008 C   0  0  0  0  0  0  0  0  0  0  0  0
    2.0936  -18.2757   20.4587 C   0  0  0  0  0  0  0  0  0  0  0  0
    3.3492  -17.9170   20.9135 C   0  0  0  0  0  0  0  0  0  0  0  0
    7.4001  -17.6046   21.6376 C   0  0  0  0  0  0  0  0  0  0  0  0
    8.4946  -18.2326   21.6128 O   0  0  0  0  0  0  0  0  0  0  0  0
    9.0575  -13.9538   18.8966 C   0  0  0  0  0  0  0  0  0  0  0  0
    7.9466  -13.6575   19.9216 C   0  0  2  0  0  0  0  0  0  0  0  0
    7.6460  -12.1880   19.7290 C   0  0  0  0  0  0  0  0  0  0  0  0
    8.5075  -13.9907   21.2532 C   0  0  0  0  0  0  0  0  0  0  0  0
    8.6895  -15.4165   21.5967 C   0  0  2  0  0  0  0  0  0  0  0  0
    7.4709  -16.1913   21.6348 N   0  0  0  0  0  0  0  0  0  0  0  0
    9.4504  -15.5983   22.8389 C   0  0  0  0  0  0  0  0  0  0  0  0
   10.6450  -15.2454   22.9937 O   0  0  0  0  0  0  0  0  0  0  0  0
    8.8236  -16.2064   23.9598 N   0  0  0  0  0  0  0  0  0  0  0  0
    9.4656  -16.2758   25.2632 C   0  0  1  0  0  0  0  0  0  0  0  0
    9.4580  -14.8215   25.7667 C   0  0  0  0  0  0  0  0  0  0  0  0
    8.1250  -14.3561   26.1492 C   0  0  0  0  0  0  0  0  0  0  0  0
    7.0104  -14.8159   25.4862 C   0  0  0  0  0  0  0  0  0  0  0  0
    5.7650  -14.3671   25.8596 C   0  0  0  0  0  0  0  0  0  0  0  0
    5.5864  -13.4604   26.8881 C   0  0  0  0  0  0  0  0  0  0  0  0
    6.7345  -13.0261   27.5255 C   0  0  0  0  0  0  0  0  0  0  0  0
    7.9961  -13.4427   27.1912 C   0  0  0  0  0  0  0  0  0  0  0  0
    8.8124  -17.1726   26.2108 C   0  0  0  0  0  0  0  0  0  0  0  0
    7.6812  -17.9271   25.9076 O   0  0  0  0  0  0  0  0  0  0  0  0
    9.2588  -17.3090   27.3900 O   0  0  0  0  0  0  0  0  0  0  0  0
  2  1  1  1
  3  4  1  0
  3  2  1  0
  4  9  1  0
  4  5  2  0
  5  6  1  0
  6  7  2  0
  8  7  1  0
  9  8  2  0
 10 11  2  0
 10  2  1  0
 13 12  1  6
 13 14  1  0
 13 15  1  0
 16 15  1  1
 16 17  1  0
 17 10  1  0
 18 16  1  0
 19 18  2  0
 20 18  1  0
 21 20  1  0
 21 22  1  1
 22 23  1  0
 23 28  1  0
 24 23  2  0
 24 25  1  0
 25 26  2  0
 26 27  1  0
 28 27  2  0
 29 30  1  0
 29 21  1  0
 31 29  2  0
M  END
$$$$
