FLF.pdb
     RDKit          3D

 31 32  0  0  1  0  0  0  0  0999 V2000
    6.1159  -19.1446   20.4696 N   0  0  0  0  0  0  0  0  0  0  0  0
    6.0301  -17.9314   21.2176 C   0  0  1  0  0  0  0  0  0  0  0  0
    5.2460  -18.1521   22.4694 C   0  0  0  0  0  0  0  0  0  0  0  0
    3.8592  -18.5535   22.0563 C   0  0  0  0  0  0  0  0  0  0  0  0
    3.1965  -19.5845   22.6758 C   0  0  0  0  0  0  0  0  0  0  0  0
    1.9235  -19.9871   22.3297 C   0  0  0  0  0  0  0  0  0  0  0  0
    1.2896  -19.3088   21.3018 C   0  0  0  0  0  0  0  0  0  0  0  0
    1.9221  -18.2581   20.6455 C   0  0  0  0  0  0  0  0  0  0  0  0
    3.1990  -17.8958   21.0332 C   0  0  0  0  0  0  0  0  0  0  0  0
    7.3436  -17.2867   21.4462 C   0  0  0  0  0  0  0  0  0  0  0  0
    8.3906  -17.9876   21.3726 O   0  0  0  0  0  0  0  0  0  0  0  0
    8.0976  -13.7612   19.2204 C   0  0  0  0  0  0  0  0  0  0  0  0
    7.6999  -13.3190   20.6412 C   0  0  2  0  0  0  0  0  0  0  0  0
    7.6102  -11.8123   20.5499 C   0  0  0  0  0  0  0  0  0  0  0  0
    8.7691  -13.8076   21.5451 C   0  0  0  0  0  0  0  0  0  0  0  0
    8.7790  -15.2414   21.9029 C   0  0  2  0  0  0  0  0  0  0  0  0
    7.5101  -15.9141   21.7470 N   0  0  0  0  0  0  0  0  0  0  0  0
    9.3214  -15.4773   23.2466 C   0  0  0  0  0  0  0  0  0  0  0  0
   10.4607  -15.1092   23.6231 O   0  0  0  0  0  0  0  0  0  0  0  0
    8.5306  -16.1605   24.2094 N   0  0  0  0  0  0  0  0  0  0  0  0
    8.9957  -16.3960   25.5674 C   0  0  1  0  0  0  0  0  0  0  0  0
    7.8061  -15.9824   26.4519 C   0  0  0  0  0  0  0  0  0  0  0  0
    7.6556  -14.5318   26.5656 C   0  0  0  0  0  0  0  0  0  0  0  0
    8.7092  -13.7535   26.9869 C   0  0  0  0  0  0  0  0  0  0  0  0
    8.5493  -12.3912   27.0877 C   0  0  0  0  0  0  0  0  0  0  0  0
    7.3561  -11.7645   26.7786 C   0  0  0  0  0  0  0  0  0  0  0  0
    6.3254  -12.5863   26.3597 C   0  0  0  0  0  0  0  0  0  0  0  0
    6.4347  -13.9470   26.2429 C   0  0  0  0  0  0  0  0  0  0  0  0
    9.4076  -17.7700   25.8345 C   0  0  0  0  0  0  0  0  0  0  0  0
   10.0137  -18.1788   27.0204 O   0  0  0  0  0  0  0  0  0  0  0  0
    9.2275  -18.6819   24.9717 O   0  0  0  0  0  0  0  0  0  0  0  0
  2  1  1  1
  3  4  1  0
  3  2  1  0
  4  9  1  0
  4  5  2  0
  5  6  1  0
  6  7  2  0
  8  7  1  0
  9  8  2  0
 10 11  2  0
 10  2  1  0
 13 12  1  6
 13 14  1  0
 13 15  1  0
 16 15  1  1
 16 17  1  0
 17 10  1  0
 18 16  1  0
 19 18  2  0
 20 18  1  0
 21 20  1  0
 21 22  1  1
 22 23  1  0
 23 28  1  0
 24 23  2  0
 24 25  1  0
 25 26  2  0
 26 27  1  0
 28 27  2  0
 29 30  1  0
 29 21  1  0
 31 29  2  0
M  END
$$$$
