TGI.pdb
     RDKit          3D

 20 19  0  0  1  0  0  0  0  0999 V2000
    6.3797  -13.5655   18.7974 C   0  0  0  0  0  0  0  0  0  0  0  0
    7.6464  -14.0494   19.4599 C   0  0  1  0  0  0  0  0  0  0  0  0
    8.3335  -13.0326   20.0833 O   0  0  0  0  0  0  0  0  0  0  0  0
    7.3983  -15.2179   20.3865 C   0  0  2  0  0  0  0  0  0  0  0  0
    6.4898  -14.7846   21.4072 N   0  0  0  0  0  0  0  0  0  0  0  0
    8.6361  -15.7613   20.9797 C   0  0  0  0  0  0  0  0  0  0  0  0
    9.4195  -16.4090   20.2442 O   0  0  0  0  0  0  0  0  0  0  0  0
    9.0134  -15.6041   22.3399 N   0  0  0  0  0  0  0  0  0  0  0  0
   10.2246  -16.1276   22.8862 C   0  0  0  0  0  0  0  0  0  0  0  0
   10.3784  -15.7918   24.3403 C   0  0  0  0  0  0  0  0  0  0  0  0
   11.4884  -15.8864   24.8916 O   0  0  0  0  0  0  0  0  0  0  0  0
    6.7630  -12.3416   25.7219 C   0  0  0  0  0  0  0  0  0  0  0  0
    8.0176  -13.1862   25.5053 C   0  0  0  0  0  0  0  0  0  0  0  0
    8.3086  -13.9552   26.7691 C   0  0  2  0  0  0  0  0  0  0  0  0
    8.6628  -12.9513   27.8426 C   0  0  0  0  0  0  0  0  0  0  0  0
    9.4237  -14.9447   26.5283 C   0  0  2  0  0  0  0  0  0  0  0  0
    9.2764  -15.3607   25.1249 N   0  0  0  0  0  0  0  0  0  0  0  0
    9.4250  -16.1076   27.4223 C   0  0  0  0  0  0  0  0  0  0  0  0
    8.7807  -17.1498   27.0519 O   0  0  0  0  0  0  0  0  0  0  0  0
   10.0550  -16.2138   28.6432 O   0  0  0  0  0  0  0  0  0  0  0  0
  2  1  1  1
  3  2  1  0
  4  2  1  0
  4  5  1  1
  6  7  2  0
  6  4  1  0
  8  6  1  0
  9  8  1  0
 10  9  1  0
 10 11  2  0
 12 13  1  0
 13 14  1  0
 14 16  1  0
 14 15  1  1
 16 17  1  6
 16 18  1  0
 17 10  1  0
 18 19  2  0
 18 20  1  0
M  END
$$$$
