TGI.pdb
     RDKit          3D

 20 19  0  0  1  0  0  0  0  0999 V2000
    8.0617  -12.6249   17.2890 C   0  0  0  0  0  0  0  0  0  0  0  0
    7.6170  -13.4421   18.4773 C   0  0  1  0  0  0  0  0  0  0  0  0
    7.0785  -14.6538   18.1083 O   0  0  0  0  0  0  0  0  0  0  0  0
    8.7119  -13.5980   19.5079 C   0  0  2  0  0  0  0  0  0  0  0  0
    9.7554  -14.3890   18.9245 N   0  0  0  0  0  0  0  0  0  0  0  0
    8.2392  -14.1990   20.7707 C   0  0  0  0  0  0  0  0  0  0  0  0
    7.5554  -13.4939   21.5513 O   0  0  0  0  0  0  0  0  0  0  0  0
    8.5034  -15.5346   21.1750 N   0  0  0  0  0  0  0  0  0  0  0  0
    7.9578  -16.1216   22.3571 C   0  0  0  0  0  0  0  0  0  0  0  0
    8.5842  -15.5673   23.6026 C   0  0  0  0  0  0  0  0  0  0  0  0
    9.8206  -15.4862   23.6999 O   0  0  0  0  0  0  0  0  0  0  0  0
    5.8177  -11.8085   26.0562 C   0  0  0  0  0  0  0  0  0  0  0  0
    6.9270  -12.6820   25.4723 C   0  0  0  0  0  0  0  0  0  0  0  0
    7.3669  -13.6721   26.5209 C   0  0  2  0  0  0  0  0  0  0  0  0
    7.9147  -12.8853   27.6899 C   0  0  0  0  0  0  0  0  0  0  0  0
    8.3933  -14.6171   25.9429 C   0  0  2  0  0  0  0  0  0  0  0  0
    7.7964  -15.1227   24.6970 N   0  0  0  0  0  0  0  0  0  0  0  0
    8.7838  -15.7231   26.8236 C   0  0  0  0  0  0  0  0  0  0  0  0
    8.0311  -16.7580   26.8568 O   0  0  0  0  0  0  0  0  0  0  0  0
    9.8936  -15.7819   27.6383 O   0  0  0  0  0  0  0  0  0  0  0  0
  2  1  1  6
  3  2  1  0
  4  2  1  0
  4  5  1  6
  6  7  2  0
  6  4  1  0
  8  6  1  0
  9  8  1  0
 10  9  1  0
 10 11  2  0
 12 13  1  0
 13 14  1  0
 14 16  1  0
 14 15  1  1
 16 17  1  6
 16 18  1  0
 17 10  1  0
 18 19  2  0
 18 20  1  0
M  END
$$$$
