TGI.pdb
     RDKit          3D

 20 19  0  0  1  0  0  0  0  0999 V2000
    8.0907  -17.5418   16.8038 C   0  0  0  0  0  0  0  0  0  0  0  0
    7.5637  -17.6376   18.2148 C   0  0  1  0  0  0  0  0  0  0  0  0
    7.0852  -18.8936   18.5116 O   0  0  0  0  0  0  0  0  0  0  0  0
    8.5696  -17.1577   19.2362 C   0  0  2  0  0  0  0  0  0  0  0  0
    9.7304  -17.9930   19.1362 N   0  0  0  0  0  0  0  0  0  0  0  0
    8.0408  -17.1542   20.6145 C   0  0  0  0  0  0  0  0  0  0  0  0
    8.4028  -18.0650   21.3979 O   0  0  0  0  0  0  0  0  0  0  0  0
    7.1403  -16.1839   21.1289 N   0  0  0  0  0  0  0  0  0  0  0  0
    6.7032  -16.1582   22.4881 C   0  0  0  0  0  0  0  0  0  0  0  0
    7.6601  -15.4166   23.3742 C   0  0  0  0  0  0  0  0  0  0  0  0
    8.7228  -14.9673   22.9120 O   0  0  0  0  0  0  0  0  0  0  0  0
    5.9602  -11.5369   26.0101 C   0  0  0  0  0  0  0  0  0  0  0  0
    6.8594  -12.5433   25.2938 C   0  0  0  0  0  0  0  0  0  0  0  0
    7.5037  -13.4365   26.3235 C   0  0  2  0  0  0  0  0  0  0  0  0
    8.3454  -12.5611   27.2240 C   0  0  0  0  0  0  0  0  0  0  0  0
    8.3257  -14.5042   25.6416 C   0  0  2  0  0  0  0  0  0  0  0  0
    7.3878  -15.2060   24.7517 N   0  0  0  0  0  0  0  0  0  0  0  0
    8.9936  -15.4455   26.5466 C   0  0  0  0  0  0  0  0  0  0  0  0
    8.3073  -16.4215   27.0103 O   0  0  0  0  0  0  0  0  0  0  0  0
   10.3057  -15.4032   26.9657 O   0  0  0  0  0  0  0  0  0  0  0  0
  2  1  1  6
  3  2  1  0
  4  2  1  0
  4  5  1  1
  6  7  2  0
  6  4  1  0
  8  6  1  0
  9  8  1  0
 10  9  1  0
 10 11  2  0
 12 13  1  0
 13 14  1  0
 14 16  1  0
 14 15  1  1
 16 17  1  6
 16 18  1  0
 17 10  1  0
 18 19  2  0
 18 20  1  0
M  END
$$$$
