TGI.pdb
     RDKit          3D

 20 19  0  0  1  0  0  0  0  0999 V2000
    8.5165  -12.5765   18.7908 C   0  0  0  0  0  0  0  0  0  0  0  0
    8.1423  -13.7047   17.8609 C   0  0  1  0  0  0  0  0  0  0  0  0
    8.6862  -13.5520   16.6058 O   0  0  0  0  0  0  0  0  0  0  0  0
    8.4514  -15.0614   18.4521 C   0  0  2  0  0  0  0  0  0  0  0  0
    8.1590  -16.0513   17.4573 N   0  0  0  0  0  0  0  0  0  0  0  0
    7.7102  -15.3336   19.6994 C   0  0  0  0  0  0  0  0  0  0  0  0
    6.5721  -15.8556   19.6188 O   0  0  0  0  0  0  0  0  0  0  0  0
    8.1946  -15.0455   21.0030 N   0  0  0  0  0  0  0  0  0  0  0  0
    7.4701  -15.3466   22.1962 C   0  0  0  0  0  0  0  0  0  0  0  0
    8.2490  -15.0010   23.4310 C   0  0  0  0  0  0  0  0  0  0  0  0
    9.4586  -14.7263   23.3530 O   0  0  0  0  0  0  0  0  0  0  0  0
    5.8055  -11.8039   26.5758 C   0  0  0  0  0  0  0  0  0  0  0  0
    6.7967  -12.6483   25.7763 C   0  0  0  0  0  0  0  0  0  0  0  0
    7.3909  -13.6915   26.6884 C   0  0  2  0  0  0  0  0  0  0  0  0
    8.0577  -12.9675   27.8360 C   0  0  0  0  0  0  0  0  0  0  0  0
    8.3635  -14.5561   25.9221 C   0  0  2  0  0  0  0  0  0  0  0  0
    7.6388  -14.9765   24.7129 N   0  0  0  0  0  0  0  0  0  0  0  0
    8.8737  -15.7179   26.6579 C   0  0  0  0  0  0  0  0  0  0  0  0
    8.1463  -16.7704   26.6964 O   0  0  0  0  0  0  0  0  0  0  0  0
   10.0743  -15.8129   27.3277 O   0  0  0  0  0  0  0  0  0  0  0  0
  2  1  1  1
  3  2  1  0
  4  2  1  0
  4  5  1  6
  6  7  2  0
  6  4  1  0
  8  6  1  0
  9  8  1  0
 10  9  1  0
 10 11  2  0
 12 13  1  0
 13 14  1  0
 14 16  1  0
 14 15  1  1
 16 17  1  6
 16 18  1  0
 17 10  1  0
 18 19  2  0
 18 20  1  0
M  END
$$$$
