TGI.pdb
     RDKit          3D

 20 19  0  0  1  0  0  0  0  0999 V2000
   10.5186  -19.0927   18.6701 C   0  0  0  0  0  0  0  0  0  0  0  0
    9.9377  -18.2069   19.7451 C   0  0  1  0  0  0  0  0  0  0  0  0
   10.6712  -17.0570   19.9300 O   0  0  0  0  0  0  0  0  0  0  0  0
    8.4721  -17.9145   19.5170 C   0  0  2  0  0  0  0  0  0  0  0  0
    8.3333  -17.3641   18.2007 N   0  0  0  0  0  0  0  0  0  0  0  0
    7.8966  -17.0080   20.5300 C   0  0  0  0  0  0  0  0  0  0  0  0
    7.9044  -15.7738   20.3038 O   0  0  0  0  0  0  0  0  0  0  0  0
    7.3261  -17.4327   21.7593 N   0  0  0  0  0  0  0  0  0  0  0  0
    6.6738  -16.5484   22.6714 C   0  0  0  0  0  0  0  0  0  0  0  0
    7.6461  -15.8663   23.5881 C   0  0  0  0  0  0  0  0  0  0  0  0
    8.8688  -16.0363   23.4438 O   0  0  0  0  0  0  0  0  0  0  0  0
    5.5885  -11.5999   26.1683 C   0  0  0  0  0  0  0  0  0  0  0  0
    6.5779  -12.4513   25.3742 C   0  0  0  0  0  0  0  0  0  0  0  0
    7.3113  -13.3593   26.3286 C   0  0  2  0  0  0  0  0  0  0  0  0
    8.1563  -12.4874   27.2294 C   0  0  0  0  0  0  0  0  0  0  0  0
    8.1456  -14.3551   25.5586 C   0  0  2  0  0  0  0  0  0  0  0  0
    7.2082  -15.0154   24.6369 N   0  0  0  0  0  0  0  0  0  0  0  0
    8.8523  -15.3412   26.3829 C   0  0  0  0  0  0  0  0  0  0  0  0
    8.1936  -16.3560   26.8013 O   0  0  0  0  0  0  0  0  0  0  0  0
   10.1748  -15.3042   26.7682 O   0  0  0  0  0  0  0  0  0  0  0  0
  2  1  1  6
  3  2  1  0
  4  2  1  0
  4  5  1  6
  6  7  2  0
  6  4  1  0
  8  6  1  0
  9  8  1  0
 10  9  1  0
 10 11  2  0
 12 13  1  0
 13 14  1  0
 14 16  1  0
 14 15  1  1
 16 17  1  6
 16 18  1  0
 17 10  1  0
 18 19  2  0
 18 20  1  0
M  END
$$$$
