TGI.pdb
     RDKit          3D

 20 19  0  0  1  0  0  0  0  0999 V2000
   10.9106  -15.0614   19.4916 C   0  0  0  0  0  0  0  0  0  0  0  0
   10.2608  -13.7684   19.0634 C   0  0  1  0  0  0  0  0  0  0  0  0
   10.7526  -13.3064   17.8638 O   0  0  0  0  0  0  0  0  0  0  0  0
    8.7517  -13.8585   19.0611 C   0  0  2  0  0  0  0  0  0  0  0  0
    8.2393  -12.6386   18.5094 N   0  0  0  0  0  0  0  0  0  0  0  0
    8.1831  -14.1103   20.3999 C   0  0  0  0  0  0  0  0  0  0  0  0
    8.0140  -13.1363   21.1725 O   0  0  0  0  0  0  0  0  0  0  0  0
    7.8072  -15.3903   20.8872 N   0  0  0  0  0  0  0  0  0  0  0  0
    7.0963  -15.5895   22.1097 C   0  0  0  0  0  0  0  0  0  0  0  0
    7.9294  -15.2445   23.3088 C   0  0  0  0  0  0  0  0  0  0  0  0
    9.1697  -15.2921   23.2453 O   0  0  0  0  0  0  0  0  0  0  0  0
    5.5936  -11.7440   26.5045 C   0  0  0  0  0  0  0  0  0  0  0  0
    6.5995  -12.5334   25.6681 C   0  0  0  0  0  0  0  0  0  0  0  0
    7.2311  -13.5897   26.5390 C   0  0  2  0  0  0  0  0  0  0  0  0
    7.9820  -12.8811   27.6435 C   0  0  0  0  0  0  0  0  0  0  0  0
    8.1375  -14.4695   25.7115 C   0  0  2  0  0  0  0  0  0  0  0  0
    7.3369  -14.8572   24.5397 N   0  0  0  0  0  0  0  0  0  0  0  0
    8.6571  -15.6524   26.4059 C   0  0  0  0  0  0  0  0  0  0  0  0
    7.9313  -16.7067   26.4202 O   0  0  0  0  0  0  0  0  0  0  0  0
    9.8649  -15.7660   27.0595 O   0  0  0  0  0  0  0  0  0  0  0  0
  2  1  1  6
  3  2  1  0
  4  2  1  0
  4  5  1  1
  6  7  2  0
  6  4  1  0
  8  6  1  0
  9  8  1  0
 10  9  1  0
 10 11  2  0
 12 13  1  0
 13 14  1  0
 14 16  1  0
 14 15  1  1
 16 17  1  6
 16 18  1  0
 17 10  1  0
 18 19  2  0
 18 20  1  0
M  END
$$$$
