TGI.pdb
     RDKit          3D

 20 19  0  0  1  0  0  0  0  0999 V2000
    7.7489  -12.4919   18.4932 C   0  0  0  0  0  0  0  0  0  0  0  0
    7.8617  -13.9146   18.0025 C   0  0  1  0  0  0  0  0  0  0  0  0
    8.4150  -13.9930   16.7446 O   0  0  0  0  0  0  0  0  0  0  0  0
    8.5743  -14.8077   18.9925 C   0  0  2  0  0  0  0  0  0  0  0  0
    8.5586  -16.1428   18.4706 N   0  0  0  0  0  0  0  0  0  0  0  0
    7.9826  -14.7640   20.3442 C   0  0  0  0  0  0  0  0  0  0  0  0
    8.1077  -13.7142   21.0198 O   0  0  0  0  0  0  0  0  0  0  0  0
    7.2719  -15.8357   20.9470 N   0  0  0  0  0  0  0  0  0  0  0  0
    6.6302  -15.7376   22.2190 C   0  0  0  0  0  0  0  0  0  0  0  0
    7.6029  -15.4297   23.3189 C   0  0  0  0  0  0  0  0  0  0  0  0
    8.8258  -15.4465   23.0974 O   0  0  0  0  0  0  0  0  0  0  0  0
    6.0574  -11.9216   27.2284 C   0  0  0  0  0  0  0  0  0  0  0  0
    6.2999  -13.2686   26.5493 C   0  0  0  0  0  0  0  0  0  0  0  0
    7.7311  -13.3234   26.0783 C   0  0  2  0  0  0  0  0  0  0  0  0
    7.8628  -12.3756   24.9078 C   0  0  0  0  0  0  0  0  0  0  0  0
    8.0998  -14.7395   25.7050 C   0  0  2  0  0  0  0  0  0  0  0  0
    7.1652  -15.1133   24.6321 N   0  0  0  0  0  0  0  0  0  0  0  0
    8.0459  -15.7057   26.8072 C   0  0  0  0  0  0  0  0  0  0  0  0
    7.0371  -16.4913   26.8676 O   0  0  0  0  0  0  0  0  0  0  0  0
    8.9770  -15.8729   27.8092 O   0  0  0  0  0  0  0  0  0  0  0  0
  2  1  1  1
  3  2  1  0
  4  2  1  0
  4  5  1  6
  6  7  2  0
  6  4  1  0
  8  6  1  0
  9  8  1  0
 10  9  1  0
 10 11  2  0
 12 13  1  0
 13 14  1  0
 14 16  1  0
 14 15  1  6
 16 17  1  6
 16 18  1  0
 17 10  1  0
 18 19  2  0
 18 20  1  0
M  END
$$$$
