TGI.pdb
     RDKit          3D

 20 19  0  0  1  0  0  0  0  0999 V2000
    8.5363  -19.0085   21.0723 C   0  0  0  0  0  0  0  0  0  0  0  0
    9.8572  -18.5502   20.5043 C   0  0  1  0  0  0  0  0  0  0  0  0
   10.5190  -19.5565   19.8381 O   0  0  0  0  0  0  0  0  0  0  0  0
    9.7161  -17.3060   19.6571 C   0  0  2  0  0  0  0  0  0  0  0  0
   10.9567  -17.0997   18.9690 N   0  0  0  0  0  0  0  0  0  0  0  0
    9.3427  -16.1107   20.4388 C   0  0  0  0  0  0  0  0  0  0  0  0
   10.2569  -15.3769   20.8859 O   0  0  0  0  0  0  0  0  0  0  0  0
    8.0074  -15.7223   20.7274 N   0  0  0  0  0  0  0  0  0  0  0  0
    7.6727  -14.6526   21.6124 C   0  0  0  0  0  0  0  0  0  0  0  0
    7.8909  -15.0214   23.0502 C   0  0  0  0  0  0  0  0  0  0  0  0
    8.6420  -15.9657   23.3483 O   0  0  0  0  0  0  0  0  0  0  0  0
    6.4525  -11.0000   26.3729 C   0  0  0  0  0  0  0  0  0  0  0  0
    7.2802  -12.0865   25.6881 C   0  0  0  0  0  0  0  0  0  0  0  0
    6.9023  -13.4242   26.2722 C   0  0  2  0  0  0  0  0  0  0  0  0
    7.2836  -13.4072   27.7351 C   0  0  0  0  0  0  0  0  0  0  0  0
    7.5967  -14.5334   25.5184 C   0  0  2  0  0  0  0  0  0  0  0  0
    7.2553  -14.3137   24.1044 N   0  0  0  0  0  0  0  0  0  0  0  0
    7.2353  -15.8909   25.9401 C   0  0  0  0  0  0  0  0  0  0  0  0
    6.0930  -16.3457   25.5839 O   0  0  0  0  0  0  0  0  0  0  0  0
    8.0000  -16.7566   26.6917 O   0  0  0  0  0  0  0  0  0  0  0  0
  2  1  1  6
  3  2  1  0
  4  2  1  0
  4  5  1  1
  6  7  2  0
  6  4  1  0
  8  6  1  0
  9  8  1  0
 10  9  1  0
 10 11  2  0
 12 13  1  0
 13 14  1  0
 14 16  1  0
 14 15  1  1
 16 17  1  6
 16 18  1  0
 17 10  1  0
 18 19  2  0
 18 20  1  0
M  END
$$$$
