TGI.pdb
     RDKit          3D

 20 19  0  0  1  0  0  0  0  0999 V2000
    9.0003  -13.7609   16.8715 C   0  0  0  0  0  0  0  0  0  0  0  0
    8.8949  -14.2906   18.2807 C   0  0  1  0  0  0  0  0  0  0  0  0
    9.5294  -13.4799   19.1943 O   0  0  0  0  0  0  0  0  0  0  0  0
    7.4659  -14.5832   18.6778 C   0  0  2  0  0  0  0  0  0  0  0  0
    6.7672  -13.3340   18.7577 N   0  0  0  0  0  0  0  0  0  0  0  0
    7.3572  -15.3291   19.9470 C   0  0  0  0  0  0  0  0  0  0  0  0
    7.8278  -16.4909   20.0020 O   0  0  0  0  0  0  0  0  0  0  0  0
    6.7517  -14.8241   21.1284 N   0  0  0  0  0  0  0  0  0  0  0  0
    6.6158  -15.5841   22.3298 C   0  0  0  0  0  0  0  0  0  0  0  0
    7.5953  -15.1549   23.3821 C   0  0  0  0  0  0  0  0  0  0  0  0
    8.7558  -14.8403   23.0675 O   0  0  0  0  0  0  0  0  0  0  0  0
    5.8805  -11.6202   26.4722 C   0  0  0  0  0  0  0  0  0  0  0  0
    6.7483  -12.5738   25.6524 C   0  0  0  0  0  0  0  0  0  0  0  0
    7.3615  -13.5910   26.5812 C   0  0  2  0  0  0  0  0  0  0  0  0
    8.2234  -12.8425   27.5724 C   0  0  0  0  0  0  0  0  0  0  0  0
    8.1559  -14.6025   25.7899 C   0  0  2  0  0  0  0  0  0  0  0  0
    7.2343  -15.0945   24.7540 N   0  0  0  0  0  0  0  0  0  0  0  0
    8.7028  -15.7139   26.5755 C   0  0  0  0  0  0  0  0  0  0  0  0
    7.9609  -16.7407   26.7595 O   0  0  0  0  0  0  0  0  0  0  0  0
    9.9525  -15.7855   27.1518 O   0  0  0  0  0  0  0  0  0  0  0  0
  2  1  1  6
  3  2  1  0
  4  2  1  0
  4  5  1  1
  6  7  2  0
  6  4  1  0
  8  6  1  0
  9  8  1  0
 10  9  1  0
 10 11  2  0
 12 13  1  0
 13 14  1  0
 14 16  1  0
 14 15  1  1
 16 17  1  6
 16 18  1  0
 17 10  1  0
 18 19  2  0
 18 20  1  0
M  END
$$$$
