SPH.pdb
     RDKit          3D

 24 25  0  0  1  0  0  0  0  0999 V2000
    4.3160  -17.8339   22.0231 O   0  0  0  0  0  0  0  0  0  0  0  0
    5.6795  -17.9427   22.2876 C   0  0  0  0  0  0  0  0  0  0  0  0
    6.4770  -17.6205   21.0104 C   0  0  2  0  0  0  0  0  0  0  0  0
    6.7520  -18.8687   20.3901 N   0  0  0  0  0  0  0  0  0  0  0  0
    7.5983  -16.7842   21.3855 C   0  0  0  0  0  0  0  0  0  0  0  0
    8.5294  -17.3082   22.0481 O   0  0  0  0  0  0  0  0  0  0  0  0
    7.7675  -15.3715   21.0704 N   0  0  0  0  0  0  0  0  0  0  0  0
    6.9301  -14.5943   20.2142 C   0  0  0  0  0  0  0  0  0  0  0  0
    7.1129  -13.1723   20.6556 C   0  0  0  0  0  0  0  0  0  0  0  0
    8.6100  -13.1886   21.0072 C   0  0  0  0  0  0  0  0  0  0  0  0
    8.8258  -14.5508   21.5880 C   0  0  1  0  0  0  0  0  0  0  0  0
    8.8524  -14.5241   23.0735 C   0  0  0  0  0  0  0  0  0  0  0  0
    8.2257  -13.6098   23.6601 O   0  0  0  0  0  0  0  0  0  0  0  0
    9.5421  -15.4680   23.8687 N   0  0  0  0  0  0  0  0  0  0  0  0
    9.5679  -15.4520   25.3142 C   0  0  1  0  0  0  0  0  0  0  0  0
    8.1883  -15.6547   25.9063 C   0  0  0  0  0  0  0  0  0  0  0  0
    7.4766  -14.3754   26.1317 C   0  0  0  0  0  0  0  0  0  0  0  0
    6.1277  -14.0882   26.1054 C   0  0  0  0  0  0  0  0  0  0  0  0
    5.9321  -12.7950   26.3672 N   0  0  0  0  0  0  0  0  0  0  0  0
    7.1472  -12.2409   26.5634 C   0  0  0  0  0  0  0  0  0  0  0  0
    8.0907  -13.2143   26.4179 N   0  0  0  0  0  0  0  0  0  0  0  0
   10.4018  -16.5896   25.7715 C   0  0  0  0  0  0  0  0  0  0  0  0
   10.7031  -16.7832   27.1191 O   0  0  0  0  0  0  0  0  0  0  0  0
   10.8439  -17.3935   24.9211 O   0  0  0  0  0  0  0  0  0  0  0  0
  1  2  1  0
  2  3  1  0
  3  5  1  0
  3  4  1  1
  5  6  2  0
  7 11  1  0
  7  5  1  0
  8  7  1  0
  9  8  1  0
  9 10  1  0
 10 11  1  0
 11 12  1  1
 12 14  1  0
 12 13  2  0
 14 15  1  0
 15 22  1  0
 15 16  1  1
 17 18  2  0
 17 16  1  0
 19 18  1  0
 20 21  2  0
 20 19  1  0
 21 17  1  0
 22 24  2  0
 22 23  1  0
M  END
$$$$
