SPH.pdb
     RDKit          3D

 24 25  0  0  1  0  0  0  0  0999 V2000
    6.9972  -17.6648   16.6207 O   0  0  0  0  0  0  0  0  0  0  0  0
    8.0314  -17.5761   17.5500 C   0  0  0  0  0  0  0  0  0  0  0  0
    8.8650  -16.3120   17.2707 C   0  0  2  0  0  0  0  0  0  0  0  0
    9.9313  -16.7198   16.4251 N   0  0  0  0  0  0  0  0  0  0  0  0
    9.1979  -15.7085   18.5445 C   0  0  0  0  0  0  0  0  0  0  0  0
   10.0970  -16.2499   19.2367 O   0  0  0  0  0  0  0  0  0  0  0  0
    8.5909  -14.5162   19.1219 N   0  0  0  0  0  0  0  0  0  0  0  0
    7.6207  -13.6778   18.4942 C   0  0  0  0  0  0  0  0  0  0  0  0
    6.8914  -12.9978   19.6148 C   0  0  0  0  0  0  0  0  0  0  0  0
    8.0508  -12.7858   20.6028 C   0  0  0  0  0  0  0  0  0  0  0  0
    8.8954  -14.0090   20.4302 C   0  0  1  0  0  0  0  0  0  0  0  0
    8.6502  -15.0097   21.5011 C   0  0  0  0  0  0  0  0  0  0  0  0
    7.4913  -15.4730   21.6238 O   0  0  0  0  0  0  0  0  0  0  0  0
    9.6451  -15.4731   22.3925 N   0  0  0  0  0  0  0  0  0  0  0  0
    9.4037  -16.4088   23.4679 C   0  0  1  0  0  0  0  0  0  0  0  0
    9.6303  -17.8417   23.0317 C   0  0  0  0  0  0  0  0  0  0  0  0
   10.9312  -18.0252   22.3476 C   0  0  0  0  0  0  0  0  0  0  0  0
   11.9121  -17.1072   22.0349 C   0  0  0  0  0  0  0  0  0  0  0  0
   12.9237  -17.7153   21.4135 N   0  0  0  0  0  0  0  0  0  0  0  0
   12.6046  -19.0236   21.3211 C   0  0  0  0  0  0  0  0  0  0  0  0
   11.3820  -19.2083   21.8954 N   0  0  0  0  0  0  0  0  0  0  0  0
   10.3809  -16.1299   24.5477 C   0  0  0  0  0  0  0  0  0  0  0  0
   10.3764  -16.8460   25.7441 O   0  0  0  0  0  0  0  0  0  0  0  0
   11.2293  -15.2271   24.3748 O   0  0  0  0  0  0  0  0  0  0  0  0
  1  2  1  0
  2  3  1  0
  3  5  1  0
  3  4  1  1
  5  6  2  0
  7 11  1  0
  7  5  1  0
  8  7  1  0
  9  8  1  0
  9 10  1  0
 10 11  1  0
 11 12  1  1
 12 14  1  0
 12 13  2  0
 14 15  1  0
 15 22  1  0
 15 16  1  6
 17 18  2  0
 17 16  1  0
 19 18  1  0
 20 21  2  0
 20 19  1  0
 21 17  1  0
 22 24  2  0
 22 23  1  0
M  END
$$$$
