SPH.pdb
     RDKit          3D

 24 25  0  0  1  0  0  0  0  0999 V2000
    7.2310  -17.1343   15.4106 O   0  0  0  0  0  0  0  0  0  0  0  0
    8.3622  -17.0018   16.2131 C   0  0  0  0  0  0  0  0  0  0  0  0
    8.9014  -15.5635   16.1059 C   0  0  2  0  0  0  0  0  0  0  0  0
    9.8166  -15.5639   15.0192 N   0  0  0  0  0  0  0  0  0  0  0  0
    9.3937  -15.1748   17.4113 C   0  0  0  0  0  0  0  0  0  0  0  0
   10.4644  -15.6944   17.8167 O   0  0  0  0  0  0  0  0  0  0  0  0
    8.7692  -14.2261   18.3241 N   0  0  0  0  0  0  0  0  0  0  0  0
    7.5768  -13.4809   18.0770 C   0  0  0  0  0  0  0  0  0  0  0  0
    7.0259  -13.1427   19.4306 C   0  0  0  0  0  0  0  0  0  0  0  0
    8.3340  -12.8972   20.2013 C   0  0  0  0  0  0  0  0  0  0  0  0
    9.2818  -13.9020   19.6257 C   0  0  1  0  0  0  0  0  0  0  0  0
    9.4220  -15.0973   20.4972 C   0  0  0  0  0  0  0  0  0  0  0  0
    8.4841  -15.9298   20.5151 O   0  0  0  0  0  0  0  0  0  0  0  0
   10.5500  -15.3551   21.3097 N   0  0  0  0  0  0  0  0  0  0  0  0
   10.6682  -16.4838   22.2056 C   0  0  1  0  0  0  0  0  0  0  0  0
   12.0711  -17.0554   22.2122 C   0  0  0  0  0  0  0  0  0  0  0  0
   12.3722  -17.8284   20.9851 C   0  0  0  0  0  0  0  0  0  0  0  0
   11.5582  -18.6330   20.2152 C   0  0  0  0  0  0  0  0  0  0  0  0
   12.2510  -19.1364   19.1926 N   0  0  0  0  0  0  0  0  0  0  0  0
   13.5109  -18.6627   19.2946 C   0  0  0  0  0  0  0  0  0  0  0  0
   13.5798  -17.8613   20.3953 N   0  0  0  0  0  0  0  0  0  0  0  0
   10.3928  -16.0081   23.5827 C   0  0  0  0  0  0  0  0  0  0  0  0
   10.3707  -16.8812   24.6697 O   0  0  0  0  0  0  0  0  0  0  0  0
   10.1752  -14.7903   23.7679 O   0  0  0  0  0  0  0  0  0  0  0  0
  1  2  1  0
  2  3  1  0
  3  5  1  0
  3  4  1  6
  5  6  2  0
  7 11  1  0
  7  5  1  0
  8  7  1  0
  9  8  1  0
  9 10  1  0
 10 11  1  0
 11 12  1  1
 12 14  1  0
 12 13  2  0
 14 15  1  0
 15 22  1  0
 15 16  1  1
 17 18  2  0
 17 16  1  0
 19 18  1  0
 20 21  2  0
 20 19  1  0
 21 17  1  0
 22 24  2  0
 22 23  1  0
M  END
$$$$
