SPH.pdb
     RDKit          3D

 24 25  0  0  1  0  0  0  0  0999 V2000
    7.4512  -18.5744   19.7802 O   0  0  0  0  0  0  0  0  0  0  0  0
    7.2130  -17.6698   18.7478 C   0  0  0  0  0  0  0  0  0  0  0  0
    8.4655  -16.8017   18.5275 C   0  0  2  0  0  0  0  0  0  0  0  0
    9.4553  -17.6651   17.9861 N   0  0  0  0  0  0  0  0  0  0  0  0
    8.7604  -16.1227   19.7723 C   0  0  0  0  0  0  0  0  0  0  0  0
    9.5812  -16.6612   20.5578 O   0  0  0  0  0  0  0  0  0  0  0  0
    8.1973  -14.8560   20.2214 N   0  0  0  0  0  0  0  0  0  0  0  0
    7.2336  -14.0684   19.5218 C   0  0  0  0  0  0  0  0  0  0  0  0
    6.5483  -13.2450   20.5718 C   0  0  0  0  0  0  0  0  0  0  0  0
    7.7357  -12.9535   21.5046 C   0  0  0  0  0  0  0  0  0  0  0  0
    8.5452  -14.2112   21.4562 C   0  0  1  0  0  0  0  0  0  0  0  0
    8.3007  -15.0758   22.6398 C   0  0  0  0  0  0  0  0  0  0  0  0
    7.1159  -15.3819   22.9142 O   0  0  0  0  0  0  0  0  0  0  0  0
    9.3236  -15.5760   23.4779 N   0  0  0  0  0  0  0  0  0  0  0  0
    9.0897  -16.3574   24.6717 C   0  0  1  0  0  0  0  0  0  0  0  0
    9.0005  -17.8390   24.3690 C   0  0  0  0  0  0  0  0  0  0  0  0
    7.6830  -18.2238   23.8123 C   0  0  0  0  0  0  0  0  0  0  0  0
    6.5475  -17.4689   23.6040 C   0  0  0  0  0  0  0  0  0  0  0  0
    5.5855  -18.2285   23.0779 N   0  0  0  0  0  0  0  0  0  0  0  0
    6.0906  -19.4731   22.9437 C   0  0  0  0  0  0  0  0  0  0  0  0
    7.3770  -19.4647   23.3954 N   0  0  0  0  0  0  0  0  0  0  0  0
   10.2506  -16.1738   25.5758 C   0  0  0  0  0  0  0  0  0  0  0  0
   11.3727  -15.4418   25.1895 O   0  0  0  0  0  0  0  0  0  0  0  0
   10.2165  -16.6918   26.7139 O   0  0  0  0  0  0  0  0  0  0  0  0
  1  2  1  0
  2  3  1  0
  3  5  1  0
  3  4  1  1
  5  6  2  0
  7 11  1  0
  7  5  1  0
  8  7  1  0
  9  8  1  0
  9 10  1  0
 10 11  1  0
 11 12  1  1
 12 14  1  0
 12 13  2  0
 14 15  1  0
 15 22  1  0
 15 16  1  6
 17 18  2  0
 17 16  1  0
 19 18  1  0
 20 21  2  0
 20 19  1  0
 21 17  1  0
 22 24  2  0
 22 23  1  0
M  END
$$$$
