SPH.pdb
     RDKit          3D

 24 25  0  0  1  0  0  0  0  0999 V2000
    6.5063  -16.4375   21.5277 O   0  0  0  0  0  0  0  0  0  0  0  0
    6.8004  -15.8866   22.7731 C   0  0  0  0  0  0  0  0  0  0  0  0
    7.4486  -14.5030   22.5817 C   0  0  2  0  0  0  0  0  0  0  0  0
    8.1884  -14.5765   21.3711 N   0  0  0  0  0  0  0  0  0  0  0  0
    8.1629  -14.1747   23.7980 C   0  0  0  0  0  0  0  0  0  0  0  0
    9.3493  -14.5753   23.9118 O   0  0  0  0  0  0  0  0  0  0  0  0
    7.6444  -13.4135   24.9273 N   0  0  0  0  0  0  0  0  0  0  0  0
    6.3965  -12.7214   24.9734 C   0  0  0  0  0  0  0  0  0  0  0  0
    6.0450  -12.6224   26.4284 C   0  0  0  0  0  0  0  0  0  0  0  0
    7.4435  -12.4057   27.0303 C   0  0  0  0  0  0  0  0  0  0  0  0
    8.3354  -13.2501   26.1752 C   0  0  1  0  0  0  0  0  0  0  0  0
    8.6597  -14.5480   26.8219 C   0  0  0  0  0  0  0  0  0  0  0  0
    7.7335  -15.3790   26.9780 O   0  0  0  0  0  0  0  0  0  0  0  0
    9.9511  -14.9052   27.2732 N   0  0  0  0  0  0  0  0  0  0  0  0
   10.2654  -16.1468   27.9441 C   0  0  1  0  0  0  0  0  0  0  0  0
   11.5912  -16.7177   27.4844 C   0  0  0  0  0  0  0  0  0  0  0  0
   11.5972  -17.0392   26.0385 C   0  0  0  0  0  0  0  0  0  0  0  0
   10.5505  -17.1764   25.1507 C   0  0  0  0  0  0  0  0  0  0  0  0
   11.0183  -17.4728   23.9372 N   0  0  0  0  0  0  0  0  0  0  0  0
   12.3636  -17.5288   24.0327 C   0  0  0  0  0  0  0  0  0  0  0  0
   12.7133  -17.2622   25.3232 N   0  0  0  0  0  0  0  0  0  0  0  0
   10.3998  -15.8647   29.3936 C   0  0  0  0  0  0  0  0  0  0  0  0
   10.5739  -16.8861   30.3267 O   0  0  0  0  0  0  0  0  0  0  0  0
   10.3550  -14.6769   29.7835 O   0  0  0  0  0  0  0  0  0  0  0  0
  1  2  1  0
  2  3  1  0
  3  5  1  0
  3  4  1  6
  5  6  2  0
  7 11  1  0
  7  5  1  0
  8  7  1  0
  9  8  1  0
  9 10  1  0
 10 11  1  0
 11 12  1  1
 12 14  1  0
 12 13  2  0
 14 15  1  0
 15 22  1  0
 15 16  1  6
 17 18  2  0
 17 16  1  0
 19 18  1  0
 20 21  2  0
 20 19  1  0
 21 17  1  0
 22 24  2  0
 22 23  1  0
M  END
$$$$
