SPH.pdb
     RDKit          3D

 24 25  0  0  1  0  0  0  0  0999 V2000
   10.2680  -18.6189   20.1024 O   0  0  0  0  0  0  0  0  0  0  0  0
    9.3017  -17.9589   19.3463 C   0  0  0  0  0  0  0  0  0  0  0  0
    9.6352  -16.4569   19.2862 C   0  0  2  0  0  0  0  0  0  0  0  0
   10.7957  -16.3412   18.4749 N   0  0  0  0  0  0  0  0  0  0  0  0
    9.7018  -15.9616   20.6455 C   0  0  0  0  0  0  0  0  0  0  0  0
   10.8203  -15.9625   21.2195 O   0  0  0  0  0  0  0  0  0  0  0  0
    8.5890  -15.4508   21.4356 N   0  0  0  0  0  0  0  0  0  0  0  0
    7.2317  -15.3429   21.0062 C   0  0  0  0  0  0  0  0  0  0  0  0
    6.4106  -15.3528   22.2615 C   0  0  0  0  0  0  0  0  0  0  0  0
    7.3337  -14.5516   23.1948 C   0  0  0  0  0  0  0  0  0  0  0  0
    8.7097  -14.9728   22.7842 C   0  0  1  0  0  0  0  0  0  0  0  0
    9.2760  -15.9943   23.7028 C   0  0  0  0  0  0  0  0  0  0  0  0
    9.1605  -17.2026   23.3874 O   0  0  0  0  0  0  0  0  0  0  0  0
    9.9386  -15.6878   24.9136 N   0  0  0  0  0  0  0  0  0  0  0  0
   10.6850  -16.6452   25.6991 C   0  0  1  0  0  0  0  0  0  0  0  0
   11.6261  -15.9661   26.6727 C   0  0  0  0  0  0  0  0  0  0  0  0
   10.9122  -15.0937   27.6336 C   0  0  0  0  0  0  0  0  0  0  0  0
   10.3840  -13.8301   27.4694 C   0  0  0  0  0  0  0  0  0  0  0  0
    9.8245  -13.4187   28.6082 N   0  0  0  0  0  0  0  0  0  0  0  0
    9.9867  -14.4089   29.5112 C   0  0  0  0  0  0  0  0  0  0  0  0
   10.6542  -15.4336   28.9085 N   0  0  0  0  0  0  0  0  0  0  0  0
    9.7199  -17.4261   26.5099 C   0  0  0  0  0  0  0  0  0  0  0  0
   10.1156  -18.5403   27.2492 O   0  0  0  0  0  0  0  0  0  0  0  0
    8.5205  -17.0712   26.5272 O   0  0  0  0  0  0  0  0  0  0  0  0
  1  2  1  0
  2  3  1  0
  3  5  1  0
  3  4  1  1
  5  6  2  0
  7 11  1  0
  7  5  1  0
  8  7  1  0
  9  8  1  0
  9 10  1  0
 10 11  1  0
 11 12  1  1
 12 14  1  0
 12 13  2  0
 14 15  1  0
 15 22  1  0
 15 16  1  1
 17 18  2  0
 17 16  1  0
 19 18  1  0
 20 21  2  0
 20 19  1  0
 21 17  1  0
 22 24  2  0
 22 23  1  0
M  END
$$$$
