SPH.pdb
     RDKit          3D

 24 25  0  0  1  0  0  0  0  0999 V2000
    8.8572  -17.6017   16.3559 O   0  0  0  0  0  0  0  0  0  0  0  0
    8.0590  -16.5656   15.8759 C   0  0  0  0  0  0  0  0  0  0  0  0
    8.8810  -15.2644   15.8292 C   0  0  2  0  0  0  0  0  0  0  0  0
    9.8536  -15.4470   14.8098 N   0  0  0  0  0  0  0  0  0  0  0  0
    9.3456  -14.9836   17.1719 C   0  0  0  0  0  0  0  0  0  0  0  0
   10.4445  -15.4776   17.5313 O   0  0  0  0  0  0  0  0  0  0  0  0
    8.6628  -14.1727   18.1718 N   0  0  0  0  0  0  0  0  0  0  0  0
    7.3749  -13.5726   18.0319 C   0  0  0  0  0  0  0  0  0  0  0  0
    6.8664  -13.3811   19.4300 C   0  0  0  0  0  0  0  0  0  0  0  0
    8.1767  -13.0137   20.1465 C   0  0  0  0  0  0  0  0  0  0  0  0
    9.2064  -13.8574   19.4628 C   0  0  1  0  0  0  0  0  0  0  0  0
    9.5440  -15.0708   20.2514 C   0  0  0  0  0  0  0  0  0  0  0  0
    8.8589  -16.1051   20.0679 O   0  0  0  0  0  0  0  0  0  0  0  0
   10.5923  -15.1316   21.1981 N   0  0  0  0  0  0  0  0  0  0  0  0
   11.0595  -16.3508   21.8194 C   0  0  1  0  0  0  0  0  0  0  0  0
   12.5193  -16.2605   22.2140 C   0  0  0  0  0  0  0  0  0  0  0  0
   13.0370  -17.5362   22.7602 C   0  0  0  0  0  0  0  0  0  0  0  0
   12.4074  -18.7501   22.9413 C   0  0  0  0  0  0  0  0  0  0  0  0
   13.2594  -19.6311   23.4677 N   0  0  0  0  0  0  0  0  0  0  0  0
   14.4392  -18.9954   23.6294 C   0  0  0  0  0  0  0  0  0  0  0  0
   14.2974  -17.7112   23.1940 N   0  0  0  0  0  0  0  0  0  0  0  0
   10.2893  -16.5534   23.0701 C   0  0  0  0  0  0  0  0  0  0  0  0
   10.2734  -17.7811   23.7311 O   0  0  0  0  0  0  0  0  0  0  0  0
    9.6385  -15.5939   23.5399 O   0  0  0  0  0  0  0  0  0  0  0  0
  1  2  1  0
  2  3  1  0
  3  5  1  0
  3  4  1  6
  5  6  2  0
  7 11  1  0
  7  5  1  0
  8  7  1  0
  9  8  1  0
  9 10  1  0
 10 11  1  0
 11 12  1  1
 12 14  1  0
 12 13  2  0
 14 15  1  0
 15 22  1  0
 15 16  1  1
 17 18  2  0
 17 16  1  0
 19 18  1  0
 20 21  2  0
 20 19  1  0
 21 17  1  0
 22 24  2  0
 22 23  1  0
M  END
$$$$
