YTD.pdb
     RDKit          3D

 28 28  0  0  1  0  0  0  0  0999 V2000
   28.0050   -0.5181  -15.6976 O   0  0  0  0  0  0  0  0  0  0  0  0
   26.9498   -1.4137  -15.7989 C   0  0  0  0  0  0  0  0  0  0  0  0
   25.6861   -0.9819  -16.1761 C   0  0  0  0  0  0  0  0  0  0  0  0
   24.6864   -1.9298  -16.2550 C   0  0  0  0  0  0  0  0  0  0  0  0
   24.9268   -3.2596  -15.9709 C   0  0  0  0  0  0  0  0  0  0  0  0
   23.8390   -4.2761  -16.0593 C   0  0  0  0  0  0  0  0  0  0  0  0
   24.1287   -5.1940  -17.2332 C   0  0  2  0  0  0  0  0  0  0  0  0
   24.5126   -4.4597  -18.4190 N   0  0  0  0  0  0  0  0  0  0  0  0
   22.9843   -6.0995  -17.4895 C   0  0  0  0  0  0  0  0  0  0  0  0
   22.0448   -5.6725  -18.2013 O   0  0  0  0  0  0  0  0  0  0  0  0
   26.1950   -3.6662  -15.5969 C   0  0  0  0  0  0  0  0  0  0  0  0
   27.2011   -2.7334  -15.5138 C   0  0  0  0  0  0  0  0  0  0  0  0
   23.4739   -9.9430  -18.2582 C   0  0  0  0  0  0  0  0  0  0  0  0
   22.3537   -9.7487  -17.2700 C   0  0  1  0  0  0  0  0  0  0  0  0
   22.9425   -9.8219  -15.9728 O   0  0  0  0  0  0  0  0  0  0  0  0
   21.8181   -8.3408  -17.3617 C   0  0  2  0  0  0  0  0  0  0  0  0
   22.9073   -7.4161  -16.9689 N   0  0  0  0  0  0  0  0  0  0  0  0
   20.6294   -8.0751  -16.5368 C   0  0  0  0  0  0  0  0  0  0  0  0
   20.8293   -7.7743  -15.3036 O   0  0  0  0  0  0  0  0  0  0  0  0
   19.2846   -8.1051  -16.9273 N   0  0  0  0  0  0  0  0  0  0  0  0
   18.1776   -7.8629  -16.0153 C   0  0  1  0  0  0  0  0  0  0  0  0
   17.0155   -7.3178  -16.8291 C   0  0  0  0  0  0  0  0  0  0  0  0
   15.9934   -6.6720  -15.9455 C   0  0  0  0  0  0  0  0  0  0  0  0
   16.0968   -6.6997  -14.6923 O   0  0  0  0  0  0  0  0  0  0  0  0
   17.7557   -9.0888  -15.3175 C   0  0  0  0  0  0  0  0  0  0  0  0
   18.2372  -10.3068  -15.7317 O   0  0  0  0  0  0  0  0  0  0  0  0
   14.9065   -6.0274  -16.5117 O   0  0  0  0  0  0  0  0  0  0  0  0
   16.9679   -9.0219  -14.3585 O   0  0  0  0  0  0  0  0  0  0  0  0
  1  2  1  0
  2 12  2  0
  3  4  2  0
  3  2  1  0
  4  5  1  0
  5  6  1  0
  5 11  2  0
  6  7  1  0
  7  8  1  6
  9 17  1  0
  9  7  1  0
 10  9  2  0
 12 11  1  0
 14 13  1  6
 14 16  1  0
 15 14  1  0
 16 18  1  0
 16 17  1  1
 18 20  1  0
 19 18  2  0
 20 21  1  0
 21 25  1  0
 21 22  1  6
 22 23  1  0
 23 27  1  0
 24 23  2  0
 25 26  1  0
 28 25  2  0
M  END
$$$$
