YTD.pdb
     RDKit          3D

 28 28  0  0  1  0  0  0  0  0999 V2000
   15.0419  -14.0507  -20.7185 O   0  0  0  0  0  0  0  0  0  0  0  0
   15.5821  -13.1021  -19.8616 C   0  0  0  0  0  0  0  0  0  0  0  0
   16.8126  -12.5202  -20.1320 C   0  0  0  0  0  0  0  0  0  0  0  0
   17.2858  -11.5849  -19.2345 C   0  0  0  0  0  0  0  0  0  0  0  0
   16.5676  -11.2360  -18.1078 C   0  0  0  0  0  0  0  0  0  0  0  0
   17.0884  -10.2239  -17.1441 C   0  0  0  0  0  0  0  0  0  0  0  0
   18.0713  -10.9063  -16.2099 C   0  0  2  0  0  0  0  0  0  0  0  0
   17.4249  -11.8696  -15.3456 N   0  0  0  0  0  0  0  0  0  0  0  0
   18.8486   -9.9067  -15.4404 C   0  0  0  0  0  0  0  0  0  0  0  0
   18.4056   -9.5513  -14.3228 O   0  0  0  0  0  0  0  0  0  0  0  0
   15.3432  -11.8297  -17.8596 C   0  0  0  0  0  0  0  0  0  0  0  0
   14.8588  -12.7633  -18.7446 C   0  0  0  0  0  0  0  0  0  0  0  0
   23.0030   -7.7095  -14.2355 C   0  0  0  0  0  0  0  0  0  0  0  0
   22.1918   -8.7788  -14.9196 C   0  0  1  0  0  0  0  0  0  0  0  0
   22.0642   -9.8487  -13.9849 O   0  0  0  0  0  0  0  0  0  0  0  0
   20.7778   -8.2986  -15.1379 C   0  0  2  0  0  0  0  0  0  0  0  0
   20.0607   -9.3403  -15.9100 N   0  0  0  0  0  0  0  0  0  0  0  0
   20.6624   -7.0074  -15.8333 C   0  0  0  0  0  0  0  0  0  0  0  0
   21.0714   -6.9609  -17.0506 O   0  0  0  0  0  0  0  0  0  0  0  0
   20.1534   -5.8017  -15.3344 N   0  0  0  0  0  0  0  0  0  0  0  0
   20.0717   -4.5788  -16.1176 C   0  0  1  0  0  0  0  0  0  0  0  0
   19.0903   -3.6477  -15.4251 C   0  0  0  0  0  0  0  0  0  0  0  0
   17.7014   -4.2067  -15.4565 C   0  0  0  0  0  0  0  0  0  0  0  0
   16.9928   -4.2640  -14.4188 O   0  0  0  0  0  0  0  0  0  0  0  0
   21.3781   -3.9110  -16.2410 C   0  0  0  0  0  0  0  0  0  0  0  0
   21.6601   -3.1713  -17.3635 O   0  0  0  0  0  0  0  0  0  0  0  0
   17.1766   -4.6733  -16.6499 O   0  0  0  0  0  0  0  0  0  0  0  0
   22.2214   -4.0162  -15.3340 O   0  0  0  0  0  0  0  0  0  0  0  0
  1  2  1  0
  2 12  2  0
  3  4  2  0
  3  2  1  0
  4  5  1  0
  5  6  1  0
  5 11  2  0
  6  7  1  0
  7  8  1  1
  9 17  1  0
  9  7  1  0
 10  9  2  0
 12 11  1  0
 14 13  1  1
 14 16  1  0
 15 14  1  0
 16 18  1  0
 16 17  1  6
 18 20  1  0
 19 18  2  0
 20 21  1  0
 21 25  1  0
 21 22  1  1
 22 23  1  0
 23 27  1  0
 24 23  2  0
 25 26  1  0
 28 25  2  0
M  END
$$$$
