YTD.pdb
     RDKit          3D

 28 28  0  0  1  0  0  0  0  0999 V2000
   31.2220  -24.0878  -16.5716 O   0  0  0  0  0  0  0  0  0  0  0  0
   29.8440  -24.0991  -16.7352 C   0  0  0  0  0  0  0  0  0  0  0  0
   29.2398  -24.9958  -17.6050 C   0  0  0  0  0  0  0  0  0  0  0  0
   27.8652  -24.9480  -17.7156 C   0  0  0  0  0  0  0  0  0  0  0  0
   27.1125  -24.0448  -16.9913 C   0  0  0  0  0  0  0  0  0  0  0  0
   25.6271  -24.0014  -17.1184 C   0  0  0  0  0  0  0  0  0  0  0  0
   25.0274  -24.9707  -16.1157 C   0  0  2  0  0  0  0  0  0  0  0  0
   25.5989  -26.2950  -16.2269 N   0  0  0  0  0  0  0  0  0  0  0  0
   23.5498  -24.9949  -16.2245 C   0  0  0  0  0  0  0  0  0  0  0  0
   23.0467  -25.3279  -17.3234 O   0  0  0  0  0  0  0  0  0  0  0  0
   27.7374  -23.1606  -16.1304 C   0  0  0  0  0  0  0  0  0  0  0  0
   29.1062  -23.1962  -16.0097 C   0  0  0  0  0  0  0  0  0  0  0  0
   21.3554  -27.1343  -14.7013 C   0  0  0  0  0  0  0  0  0  0  0  0
   20.7209  -25.8135  -14.3514 C   0  0  1  0  0  0  0  0  0  0  0  0
   21.2376  -25.4431  -13.0745 O   0  0  0  0  0  0  0  0  0  0  0  0
   21.2154  -24.7359  -15.2850 C   0  0  2  0  0  0  0  0  0  0  0  0
   22.6889  -24.6606  -15.1486 N   0  0  0  0  0  0  0  0  0  0  0  0
   20.6341  -23.4039  -15.0568 C   0  0  0  0  0  0  0  0  0  0  0  0
   21.4203  -22.3947  -15.1784 O   0  0  0  0  0  0  0  0  0  0  0  0
   19.3119  -23.0860  -14.7212 N   0  0  0  0  0  0  0  0  0  0  0  0
   18.8511  -21.7297  -14.4685 C   0  0  1  0  0  0  0  0  0  0  0  0
   19.1374  -20.9023  -15.7107 C   0  0  0  0  0  0  0  0  0  0  0  0
   18.5828  -19.5177  -15.5771 C   0  0  0  0  0  0  0  0  0  0  0  0
   18.9162  -18.7656  -14.6257 O   0  0  0  0  0  0  0  0  0  0  0  0
   17.4107  -21.6806  -14.1674 C   0  0  0  0  0  0  0  0  0  0  0  0
   16.9140  -20.6669  -13.3849 O   0  0  0  0  0  0  0  0  0  0  0  0
   17.6822  -19.0459  -16.5171 O   0  0  0  0  0  0  0  0  0  0  0  0
   16.6482  -22.5521  -14.6190 O   0  0  0  0  0  0  0  0  0  0  0  0
  1  2  1  0
  2 12  2  0
  3  4  2  0
  3  2  1  0
  4  5  1  0
  5  6  1  0
  5 11  2  0
  6  7  1  0
  7  8  1  6
  9 17  1  0
  9  7  1  0
 10  9  2  0
 12 11  1  0
 14 13  1  6
 14 16  1  0
 15 14  1  0
 16 18  1  0
 16 17  1  1
 18 20  1  0
 19 18  2  0
 20 21  1  0
 21 25  1  0
 21 22  1  6
 22 23  1  0
 23 27  1  0
 24 23  2  0
 25 26  1  0
 28 25  2  0
M  END
$$$$
