YTD.pdb
     RDKit          3D

 28 28  0  0  1  0  0  0  0  0999 V2000
   23.3756  -21.6087   -6.7419 O   0  0  0  0  0  0  0  0  0  0  0  0
   24.0043  -21.1453   -7.8890 C   0  0  0  0  0  0  0  0  0  0  0  0
   25.3072  -20.6699   -7.8416 C   0  0  0  0  0  0  0  0  0  0  0  0
   25.8663  -20.2257   -9.0223 C   0  0  0  0  0  0  0  0  0  0  0  0
   25.1623  -20.2502  -10.2101 C   0  0  0  0  0  0  0  0  0  0  0  0
   25.7762  -19.7675  -11.4807 C   0  0  0  0  0  0  0  0  0  0  0  0
   25.9356  -20.9490  -12.4204 C   0  0  2  0  0  0  0  0  0  0  0  0
   27.0125  -21.8266  -12.0167 N   0  0  0  0  0  0  0  0  0  0  0  0
   26.0904  -20.4916  -13.8212 C   0  0  0  0  0  0  0  0  0  0  0  0
   27.0159  -19.6859  -14.0776 O   0  0  0  0  0  0  0  0  0  0  0  0
   23.8646  -20.7287  -10.2323 C   0  0  0  0  0  0  0  0  0  0  0  0
   23.2941  -21.1747   -9.0640 C   0  0  0  0  0  0  0  0  0  0  0  0
   27.3623  -21.7901  -16.5850 C   0  0  0  0  0  0  0  0  0  0  0  0
   25.9986  -21.4282  -17.1129 C   0  0  1  0  0  0  0  0  0  0  0  0
   25.1752  -22.5780  -16.9261 O   0  0  0  0  0  0  0  0  0  0  0  0
   25.3687  -20.3684  -16.2426 C   0  0  2  0  0  0  0  0  0  0  0  0
   25.2440  -20.9225  -14.8741 N   0  0  0  0  0  0  0  0  0  0  0  0
   24.0539  -19.8923  -16.6996 C   0  0  0  0  0  0  0  0  0  0  0  0
   23.1210  -19.8184  -15.8191 O   0  0  0  0  0  0  0  0  0  0  0  0
   23.6802  -19.4996  -17.9911 N   0  0  0  0  0  0  0  0  0  0  0  0
   22.3340  -19.0767  -18.3442 C   0  0  1  0  0  0  0  0  0  0  0  0
   22.0180  -17.8202  -17.5499 C   0  0  0  0  0  0  0  0  0  0  0  0
   20.6596  -17.2914  -17.8933 C   0  0  0  0  0  0  0  0  0  0  0  0
   19.8028  -18.0079  -18.4717 O   0  0  0  0  0  0  0  0  0  0  0  0
   22.2011  -18.7941  -19.7830 C   0  0  0  0  0  0  0  0  0  0  0  0
   23.3259  -18.5654  -20.5376 O   0  0  0  0  0  0  0  0  0  0  0  0
   20.3302  -15.9857  -17.5708 O   0  0  0  0  0  0  0  0  0  0  0  0
   21.0769  -18.7626  -20.3122 O   0  0  0  0  0  0  0  0  0  0  0  0
  1  2  1  0
  2 12  2  0
  3  4  2  0
  3  2  1  0
  4  5  1  0
  5  6  1  0
  5 11  2  0
  6  7  1  0
  7  8  1  1
  9 17  1  0
  9  7  1  0
 10  9  2  0
 12 11  1  0
 14 13  1  1
 14 16  1  0
 15 14  1  0
 16 18  1  0
 16 17  1  1
 18 20  1  0
 19 18  2  0
 20 21  1  0
 21 25  1  0
 21 22  1  1
 22 23  1  0
 23 27  1  0
 24 23  2  0
 25 26  1  0
 28 25  2  0
M  END
$$$$
