YTD.pdb
     RDKit          3D

 28 28  0  0  1  0  0  0  0  0999 V2000
   17.5751   -9.3235  -21.9686 O   0  0  0  0  0  0  0  0  0  0  0  0
   17.5446   -9.4427  -20.5863 C   0  0  0  0  0  0  0  0  0  0  0  0
   17.5310  -10.6917  -19.9817 C   0  0  0  0  0  0  0  0  0  0  0  0
   17.5006  -10.7315  -18.6027 C   0  0  0  0  0  0  0  0  0  0  0  0
   17.4842   -9.5763  -17.8462 C   0  0  0  0  0  0  0  0  0  0  0  0
   17.4512   -9.6306  -16.3562 C   0  0  0  0  0  0  0  0  0  0  0  0
   18.8788   -9.6240  -15.8401 C   0  0  2  0  0  0  0  0  0  0  0  0
   19.5803  -10.8487  -16.1578 N   0  0  0  0  0  0  0  0  0  0  0  0
   18.9137   -9.3271  -14.3889 C   0  0  0  0  0  0  0  0  0  0  0  0
   18.4881  -10.2029  -13.5993 O   0  0  0  0  0  0  0  0  0  0  0  0
   17.4983   -8.3425  -18.4717 C   0  0  0  0  0  0  0  0  0  0  0  0
   17.5286   -8.2870  -19.8447 C   0  0  0  0  0  0  0  0  0  0  0  0
   21.7783   -8.8092  -12.3959 C   0  0  0  0  0  0  0  0  0  0  0  0
   20.9351   -7.6071  -12.0595 C   0  0  1  0  0  0  0  0  0  0  0  0
   21.3272   -6.5738  -12.9613 O   0  0  0  0  0  0  0  0  0  0  0  0
   19.4892   -7.8749  -12.3991 C   0  0  2  0  0  0  0  0  0  0  0  0
   19.4033   -8.1059  -13.8602 N   0  0  0  0  0  0  0  0  0  0  0  0
   18.5546   -6.8050  -12.0169 C   0  0  0  0  0  0  0  0  0  0  0  0
   17.9661   -6.1754  -12.9699 O   0  0  0  0  0  0  0  0  0  0  0  0
   18.2144   -6.3772  -10.7273 N   0  0  0  0  0  0  0  0  0  0  0  0
   17.2796   -5.2953  -10.4602 C   0  0  1  0  0  0  0  0  0  0  0  0
   15.9284   -5.6975  -11.0279 C   0  0  0  0  0  0  0  0  0  0  0  0
   14.8845   -4.6697  -10.7173 C   0  0  0  0  0  0  0  0  0  0  0  0
   15.0606   -3.4532  -10.9841 O   0  0  0  0  0  0  0  0  0  0  0  0
   17.1450   -5.0218   -9.0198 C   0  0  0  0  0  0  0  0  0  0  0  0
   17.7621   -5.8461   -8.1107 O   0  0  0  0  0  0  0  0  0  0  0  0
   13.6954   -5.0576  -10.1232 O   0  0  0  0  0  0  0  0  0  0  0  0
   16.4764   -4.0498   -8.6285 O   0  0  0  0  0  0  0  0  0  0  0  0
  1  2  1  0
  2 12  2  0
  3  4  2  0
  3  2  1  0
  4  5  1  0
  5  6  1  0
  5 11  2  0
  6  7  1  0
  7  8  1  1
  9 17  1  0
  9  7  1  0
 10  9  2  0
 12 11  1  0
 14 13  1  6
 14 16  1  0
 15 14  1  0
 16 18  1  0
 16 17  1  6
 18 20  1  0
 19 18  2  0
 20 21  1  0
 21 25  1  0
 21 22  1  1
 22 23  1  0
 23 27  1  0
 24 23  2  0
 25 26  1  0
 28 25  2  0
M  END
$$$$
