PYW.pdb
     RDKit          3D

 34 37  0  0  1  0  0  0  0  0999 V2000
    8.5558  -15.1866   18.4572 N   0  0  0  0  0  0  0  0  0  0  0  0
    7.5683  -14.7747   17.4893 C   0  0  0  0  0  0  0  0  0  0  0  0
    6.5889  -13.8797   18.1983 C   0  0  0  0  0  0  0  0  0  0  0  0
    7.5178  -13.1897   19.2035 C   0  0  0  0  0  0  0  0  0  0  0  0
    8.5482  -14.2520   19.5447 C   0  0  1  0  0  0  0  0  0  0  0  0
    8.1440  -14.9346   20.8008 C   0  0  0  0  0  0  0  0  0  0  0  0
    7.8473  -14.2460   21.8101 O   0  0  0  0  0  0  0  0  0  0  0  0
    2.7358  -19.0308   18.6002 O   0  0  0  0  0  0  0  0  0  0  0  0
    3.8725  -18.8911   19.4219 C   0  0  0  0  0  0  0  0  0  0  0  0
    3.7562  -18.6574   20.7668 C   0  0  0  0  0  0  0  0  0  0  0  0
    4.8862  -18.5200   21.5774 C   0  0  0  0  0  0  0  0  0  0  0  0
    6.1538  -18.6145   21.0511 C   0  0  0  0  0  0  0  0  0  0  0  0
    7.3200  -18.4696   21.9052 C   0  0  0  0  0  0  0  0  0  0  0  0
    7.7444  -17.0404   22.1359 C   0  0  2  0  0  0  0  0  0  0  0  0
    8.0705  -16.3410   20.9354 N   0  0  0  0  0  0  0  0  0  0  0  0
    8.8157  -16.9582   23.1304 C   0  0  0  0  0  0  0  0  0  0  0  0
   10.0257  -17.0131   22.7190 O   0  0  0  0  0  0  0  0  0  0  0  0
    6.2470  -18.8487   19.7019 C   0  0  0  0  0  0  0  0  0  0  0  0
    5.1444  -18.9874   18.8863 C   0  0  0  0  0  0  0  0  0  0  0  0
    8.5738  -16.8211   24.5165 N   0  0  0  0  0  0  0  0  0  0  0  0
    9.6873  -16.6164   25.4603 C   0  0  1  0  0  0  0  0  0  0  0  0
    9.6699  -15.1818   25.8119 C   0  0  0  0  0  0  0  0  0  0  0  0
    8.3260  -14.6186   26.0226 C   0  0  0  0  0  0  0  0  0  0  0  0
    7.1075  -15.2887   25.8155 C   0  0  0  0  0  0  0  0  0  0  0  0
    6.0824  -14.4638   26.0653 N   0  0  0  0  0  0  0  0  0  0  0  0
    6.5665  -13.2576   26.4357 C   0  0  0  0  0  0  0  0  0  0  0  0
    5.9660  -12.0663   26.8182 C   0  0  0  0  0  0  0  0  0  0  0  0
    6.7313  -10.9745   27.1750 C   0  0  0  0  0  0  0  0  0  0  0  0
    8.0972  -11.0511   27.1565 C   0  0  0  0  0  0  0  0  0  0  0  0
    8.6948  -12.2302   26.7770 C   0  0  0  0  0  0  0  0  0  0  0  0
    7.9343  -13.3377   26.4143 C   0  0  0  0  0  0  0  0  0  0  0  0
    9.5812  -17.4983   26.6158 C   0  0  0  0  0  0  0  0  0  0  0  0
   10.6505  -17.5125   27.5230 O   0  0  0  0  0  0  0  0  0  0  0  0
    8.5998  -18.2407   26.8483 O   0  0  0  0  0  0  0  0  0  0  0  0
  1  2  1  0
  3  2  1  0
  4  5  1  0
  4  3  1  0
  5  6  1  1
  5  1  1  0
  6  7  2  0
  8  9  1  0
  9 19  2  0
  9 10  1  0
 10 11  2  0
 11 12  1  0
 12 13  1  0
 14 13  1  6
 15 14  1  0
 15  6  1  0
 16 14  1  0
 16 17  2  0
 18 12  2  0
 19 18  1  0
 20 16  1  0
 21 20  1  0
 21 32  1  0
 21 22  1  1
 23 22  1  0
 24 23  2  0
 25 26  1  0
 25 24  1  0
 26 31  2  0
 27 26  1  0
 27 28  2  0
 28 29  1  0
 29 30  2  0
 31 23  1  0
 31 30  1  0
 32 33  1  0
 34 32  2  0
M  END
$$$$
