PYW.pdb
     RDKit          3D

 34 37  0  0  1  0  0  0  0  0999 V2000
    9.3958  -14.0119   18.6058 N   0  0  0  0  0  0  0  0  0  0  0  0
    8.4026  -14.0004   17.5593 C   0  0  0  0  0  0  0  0  0  0  0  0
    7.0518  -13.9767   18.2209 C   0  0  0  0  0  0  0  0  0  0  0  0
    7.3655  -13.1412   19.4670 C   0  0  0  0  0  0  0  0  0  0  0  0
    8.7983  -13.5106   19.8091 C   0  0  1  0  0  0  0  0  0  0  0  0
    8.7912  -14.5673   20.8534 C   0  0  0  0  0  0  0  0  0  0  0  0
    8.2221  -14.3456   21.9524 O   0  0  0  0  0  0  0  0  0  0  0  0
    9.9237  -22.4136   24.9217 O   0  0  0  0  0  0  0  0  0  0  0  0
    9.9371  -21.3623   23.9828 C   0  0  0  0  0  0  0  0  0  0  0  0
    8.8598  -21.1146   23.1736 C   0  0  0  0  0  0  0  0  0  0  0  0
    8.8779  -20.0709   22.2446 C   0  0  0  0  0  0  0  0  0  0  0  0
    9.9792  -19.2571   22.1115 C   0  0  0  0  0  0  0  0  0  0  0  0
    9.9846  -18.1756   21.1416 C   0  0  0  0  0  0  0  0  0  0  0  0
    9.4162  -16.8775   21.6588 C   0  0  2  0  0  0  0  0  0  0  0  0
    9.3974  -15.8344   20.6850 N   0  0  0  0  0  0  0  0  0  0  0  0
   10.0782  -16.4638   22.8975 C   0  0  0  0  0  0  0  0  0  0  0  0
   11.0250  -15.6072   22.8180 O   0  0  0  0  0  0  0  0  0  0  0  0
   11.0469  -19.5232   22.9318 C   0  0  0  0  0  0  0  0  0  0  0  0
   11.0478  -20.5476   23.8543 C   0  0  0  0  0  0  0  0  0  0  0  0
    9.7193  -16.9653   24.1696 N   0  0  0  0  0  0  0  0  0  0  0  0
   10.3538  -16.4430   25.3932 C   0  0  1  0  0  0  0  0  0  0  0  0
    9.9507  -15.0253   25.4924 C   0  0  0  0  0  0  0  0  0  0  0  0
    8.5356  -14.8133   25.8390 C   0  0  0  0  0  0  0  0  0  0  0  0
    7.4932  -15.7396   25.6596 C   0  0  0  0  0  0  0  0  0  0  0  0
    6.3295  -15.2005   26.0454 N   0  0  0  0  0  0  0  0  0  0  0  0
    6.5496  -13.9402   26.4809 C   0  0  0  0  0  0  0  0  0  0  0  0
    5.7233  -12.9534   27.0003 C   0  0  0  0  0  0  0  0  0  0  0  0
    6.2412  -11.7362   27.3938 C   0  0  0  0  0  0  0  0  0  0  0  0
    7.5809  -11.4838   27.2772 C   0  0  0  0  0  0  0  0  0  0  0  0
    8.4017  -12.4597   26.7620 C   0  0  0  0  0  0  0  0  0  0  0  0
    7.8916  -13.6906   26.3609 C   0  0  0  0  0  0  0  0  0  0  0  0
    9.9932  -17.2321   26.5643 C   0  0  0  0  0  0  0  0  0  0  0  0
    9.0480  -18.2540   26.3937 O   0  0  0  0  0  0  0  0  0  0  0  0
   10.4721  -17.0557   27.7079 O   0  0  0  0  0  0  0  0  0  0  0  0
  1  2  1  0
  3  2  1  0
  4  5  1  0
  4  3  1  0
  5  6  1  1
  5  1  1  0
  6  7  2  0
  8  9  1  0
  9 19  2  0
  9 10  1  0
 10 11  2  0
 11 12  1  0
 12 13  1  0
 14 13  1  6
 15 14  1  0
 15  6  1  0
 16 14  1  0
 16 17  2  0
 18 12  2  0
 19 18  1  0
 20 16  1  0
 21 20  1  0
 21 32  1  0
 21 22  1  1
 23 22  1  0
 24 23  2  0
 25 26  1  0
 25 24  1  0
 26 31  2  0
 27 26  1  0
 27 28  2  0
 28 29  1  0
 29 30  2  0
 31 23  1  0
 31 30  1  0
 32 33  1  0
 34 32  2  0
M  END
$$$$
