PYW.pdb
     RDKit          3D

 34 37  0  0  1  0  0  0  0  0999 V2000
    8.5943  -14.5045   18.5445 N   0  0  0  0  0  0  0  0  0  0  0  0
    7.4042  -13.7265   18.2992 C   0  0  0  0  0  0  0  0  0  0  0  0
    7.0254  -13.0625   19.5948 C   0  0  0  0  0  0  0  0  0  0  0  0
    8.4126  -12.8148   20.1979 C   0  0  0  0  0  0  0  0  0  0  0  0
    9.2406  -13.9942   19.7185 C   0  0  1  0  0  0  0  0  0  0  0  0
    9.2648  -15.0337   20.7797 C   0  0  0  0  0  0  0  0  0  0  0  0
    8.2343  -15.2342   21.4715 O   0  0  0  0  0  0  0  0  0  0  0  0
   11.2385  -20.3682   16.8376 O   0  0  0  0  0  0  0  0  0  0  0  0
   11.3158  -19.7367   18.0953 C   0  0  0  0  0  0  0  0  0  0  0  0
   10.2254  -19.1238   18.6541 C   0  0  0  0  0  0  0  0  0  0  0  0
   10.3070  -18.4994   19.9016 C   0  0  0  0  0  0  0  0  0  0  0  0
   11.4860  -18.4792   20.6103 C   0  0  0  0  0  0  0  0  0  0  0  0
   11.5569  -17.8263   21.9062 C   0  0  0  0  0  0  0  0  0  0  0  0
   10.4965  -16.7767   22.1292 C   0  0  2  0  0  0  0  0  0  0  0  0
   10.3991  -15.8290   21.0666 N   0  0  0  0  0  0  0  0  0  0  0  0
   10.6555  -16.1294   23.4327 C   0  0  0  0  0  0  0  0  0  0  0  0
   11.5779  -15.2526   23.5619 O   0  0  0  0  0  0  0  0  0  0  0  0
   12.5654  -19.0989   20.0319 C   0  0  0  0  0  0  0  0  0  0  0  0
   12.5045  -19.7202   18.8029 C   0  0  0  0  0  0  0  0  0  0  0  0
    9.8395  -16.4281   24.5479 N   0  0  0  0  0  0  0  0  0  0  0  0
   10.3909  -16.4034   25.9146 C   0  0  1  0  0  0  0  0  0  0  0  0
    9.9603  -15.1211   26.5085 C   0  0  0  0  0  0  0  0  0  0  0  0
    8.5386  -14.7978   26.3042 C   0  0  0  0  0  0  0  0  0  0  0  0
    7.5369  -15.6968   25.8981 C   0  0  0  0  0  0  0  0  0  0  0  0
    6.3679  -15.0551   25.7738 N   0  0  0  0  0  0  0  0  0  0  0  0
    6.5448  -13.7515   26.0833 C   0  0  0  0  0  0  0  0  0  0  0  0
    5.6884  -12.6608   26.1405 C   0  0  0  0  0  0  0  0  0  0  0  0
    6.1541  -11.4188   26.5215 C   0  0  0  0  0  0  0  0  0  0  0  0
    7.4709  -11.2441   26.8493 C   0  0  0  0  0  0  0  0  0  0  0  0
    8.3219  -12.3231   26.7926 C   0  0  0  0  0  0  0  0  0  0  0  0
    7.8647  -13.5802   26.4092 C   0  0  0  0  0  0  0  0  0  0  0  0
    9.9727  -17.5685   26.6840 C   0  0  0  0  0  0  0  0  0  0  0  0
   10.5273  -17.7375   27.9609 O   0  0  0  0  0  0  0  0  0  0  0  0
    9.1533  -18.4241   26.2782 O   0  0  0  0  0  0  0  0  0  0  0  0
  1  2  1  0
  3  2  1  0
  4  5  1  0
  4  3  1  0
  5  6  1  1
  5  1  1  0
  6  7  2  0
  8  9  1  0
  9 19  2  0
  9 10  1  0
 10 11  2  0
 11 12  1  0
 12 13  1  0
 14 13  1  6
 15 14  1  0
 15  6  1  0
 16 14  1  0
 16 17  2  0
 18 12  2  0
 19 18  1  0
 20 16  1  0
 21 20  1  0
 21 32  1  0
 21 22  1  1
 23 22  1  0
 24 23  2  0
 25 26  1  0
 25 24  1  0
 26 31  2  0
 27 26  1  0
 27 28  2  0
 28 29  1  0
 29 30  2  0
 31 23  1  0
 31 30  1  0
 32 33  1  0
 34 32  2  0
M  END
$$$$
