PYW.pdb
     RDKit          3D

 34 37  0  0  1  0  0  0  0  0999 V2000
    7.5590  -17.7782   19.5354 N   0  0  0  0  0  0  0  0  0  0  0  0
    7.3462  -19.0849   18.9620 C   0  0  0  0  0  0  0  0  0  0  0  0
    6.9398  -20.0062   20.0796 C   0  0  0  0  0  0  0  0  0  0  0  0
    6.1496  -19.0378   20.9668 C   0  0  0  0  0  0  0  0  0  0  0  0
    6.8580  -17.7069   20.7843 C   0  0  1  0  0  0  0  0  0  0  0  0
    7.8208  -17.5127   21.8990 C   0  0  0  0  0  0  0  0  0  0  0  0
    7.5736  -18.0177   23.0236 O   0  0  0  0  0  0  0  0  0  0  0  0
    7.7748  -12.9873   16.5067 O   0  0  0  0  0  0  0  0  0  0  0  0
    7.8626  -13.3612   17.8629 C   0  0  0  0  0  0  0  0  0  0  0  0
    6.8575  -13.0746   18.7485 C   0  0  0  0  0  0  0  0  0  0  0  0
    6.9491  -13.4478   20.0920 C   0  0  0  0  0  0  0  0  0  0  0  0
    8.0527  -14.1157   20.5702 C   0  0  0  0  0  0  0  0  0  0  0  0
    8.1350  -14.4978   21.9694 C   0  0  0  0  0  0  0  0  0  0  0  0
    9.2490  -15.4658   22.2822 C   0  0  2  0  0  0  0  0  0  0  0  0
    9.0239  -16.7793   21.7717 N   0  0  0  0  0  0  0  0  0  0  0  0
    9.5581  -15.4757   23.7132 C   0  0  0  0  0  0  0  0  0  0  0  0
    9.9816  -14.3926   24.2460 O   0  0  0  0  0  0  0  0  0  0  0  0
    9.0475  -14.3924   19.6660 C   0  0  0  0  0  0  0  0  0  0  0  0
    8.9752  -14.0328   18.3372 C   0  0  0  0  0  0  0  0  0  0  0  0
    9.4096  -16.6219   24.5274 N   0  0  0  0  0  0  0  0  0  0  0  0
    9.8332  -16.6049   25.9391 C   0  0  1  0  0  0  0  0  0  0  0  0
    8.5984  -16.7280   26.7404 C   0  0  0  0  0  0  0  0  0  0  0  0
    7.6448  -15.6190   26.5714 C   0  0  0  0  0  0  0  0  0  0  0  0
    6.3287  -15.7273   26.0888 C   0  0  0  0  0  0  0  0  0  0  0  0
    5.7618  -14.5155   26.0274 N   0  0  0  0  0  0  0  0  0  0  0  0
    6.6502  -13.5904   26.4533 C   0  0  0  0  0  0  0  0  0  0  0  0
    6.5895  -12.2129   26.6122 C   0  0  0  0  0  0  0  0  0  0  0  0
    7.6726  -11.5121   27.1026 C   0  0  0  0  0  0  0  0  0  0  0  0
    8.8254  -12.1670   27.4403 C   0  0  0  0  0  0  0  0  0  0  0  0
    8.8885  -13.5319   27.2829 C   0  0  0  0  0  0  0  0  0  0  0  0
    7.8037  -14.2497   26.7887 C   0  0  0  0  0  0  0  0  0  0  0  0
   10.8128  -17.6471   26.2188 C   0  0  0  0  0  0  0  0  0  0  0  0
   11.1938  -18.4826   25.1588 O   0  0  0  0  0  0  0  0  0  0  0  0
   11.3333  -17.8425   27.3410 O   0  0  0  0  0  0  0  0  0  0  0  0
  1  2  1  0
  3  2  1  0
  4  5  1  0
  4  3  1  0
  5  6  1  1
  5  1  1  0
  6  7  2  0
  8  9  1  0
  9 19  2  0
  9 10  1  0
 10 11  2  0
 11 12  1  0
 12 13  1  0
 14 13  1  1
 15 14  1  0
 15  6  1  0
 16 14  1  0
 16 17  2  0
 18 12  2  0
 19 18  1  0
 20 16  1  0
 21 20  1  0
 21 32  1  0
 21 22  1  1
 23 22  1  0
 24 23  2  0
 25 26  1  0
 25 24  1  0
 26 31  2  0
 27 26  1  0
 27 28  2  0
 28 29  1  0
 29 30  2  0
 31 23  1  0
 31 30  1  0
 32 33  1  0
 34 32  2  0
M  END
$$$$
