PYW.pdb
     RDKit          3D

 34 37  0  0  1  0  0  0  0  0999 V2000
    7.8338  -18.5342   20.3594 N   0  0  0  0  0  0  0  0  0  0  0  0
    7.0140  -18.3545   19.1858 C   0  0  0  0  0  0  0  0  0  0  0  0
    7.8638  -17.6835   18.1415 C   0  0  0  0  0  0  0  0  0  0  0  0
    9.2328  -18.2947   18.4600 C   0  0  0  0  0  0  0  0  0  0  0  0
    9.2121  -18.4837   19.9668 C   0  0  1  0  0  0  0  0  0  0  0  0
    9.8835  -17.3253   20.6106 C   0  0  0  0  0  0  0  0  0  0  0  0
   11.0747  -17.0570   20.3108 O   0  0  0  0  0  0  0  0  0  0  0  0
    7.0603  -12.9169   16.8979 O   0  0  0  0  0  0  0  0  0  0  0  0
    7.5407  -13.2116   18.1898 C   0  0  0  0  0  0  0  0  0  0  0  0
    8.8110  -12.8711   18.5735 C   0  0  0  0  0  0  0  0  0  0  0  0
    9.2825  -13.1651   19.8557 C   0  0  0  0  0  0  0  0  0  0  0  0
    8.4861  -13.8070   20.7758 C   0  0  0  0  0  0  0  0  0  0  0  0
    8.9890  -14.1067   22.1053 C   0  0  0  0  0  0  0  0  0  0  0  0
    9.8463  -15.3459   22.1780 C   0  0  2  0  0  0  0  0  0  0  0  0
    9.2531  -16.4874   21.5603 N   0  0  0  0  0  0  0  0  0  0  0  0
   10.2688  -15.6198   23.5527 C   0  0  0  0  0  0  0  0  0  0  0  0
   11.2259  -14.9244   24.0393 O   0  0  0  0  0  0  0  0  0  0  0  0
    7.2176  -14.1390   20.3702 C   0  0  0  0  0  0  0  0  0  0  0  0
    6.7345  -13.8572   19.1103 C   0  0  0  0  0  0  0  0  0  0  0  0
    9.6692  -16.6123   24.3616 N   0  0  0  0  0  0  0  0  0  0  0  0
   10.0838  -16.7946   25.7643 C   0  0  1  0  0  0  0  0  0  0  0  0
    9.7546  -15.5324   26.4577 C   0  0  0  0  0  0  0  0  0  0  0  0
    8.3483  -15.1142   26.3345 C   0  0  0  0  0  0  0  0  0  0  0  0
    7.2822  -15.9193   25.8966 C   0  0  0  0  0  0  0  0  0  0  0  0
    6.1496  -15.2050   25.8688 N   0  0  0  0  0  0  0  0  0  0  0  0
    6.4135  -13.9431   26.2742 C   0  0  0  0  0  0  0  0  0  0  0  0
    5.6254  -12.8144   26.4510 C   0  0  0  0  0  0  0  0  0  0  0  0
    6.1763  -11.6358   26.9117 C   0  0  0  0  0  0  0  0  0  0  0  0
    7.5114  -11.5627   27.2016 C   0  0  0  0  0  0  0  0  0  0  0  0
    8.2948  -12.6795   27.0265 C   0  0  0  0  0  0  0  0  0  0  0  0
    7.7514  -13.8734   26.5620 C   0  0  0  0  0  0  0  0  0  0  0  0
    9.4558  -17.9660   26.3623 C   0  0  0  0  0  0  0  0  0  0  0  0
    8.6325  -18.7517   25.5429 O   0  0  0  0  0  0  0  0  0  0  0  0
    9.6047  -18.3133   27.5562 O   0  0  0  0  0  0  0  0  0  0  0  0
  1  2  1  0
  3  2  1  0
  4  5  1  0
  4  3  1  0
  5  6  1  1
  5  1  1  0
  6  7  2  0
  8  9  1  0
  9 19  2  0
  9 10  1  0
 10 11  2  0
 11 12  1  0
 12 13  1  0
 14 13  1  1
 15 14  1  0
 15  6  1  0
 16 14  1  0
 16 17  2  0
 18 12  2  0
 19 18  1  0
 20 16  1  0
 21 20  1  0
 21 32  1  0
 21 22  1  1
 23 22  1  0
 24 23  2  0
 25 26  1  0
 25 24  1  0
 26 31  2  0
 27 26  1  0
 27 28  2  0
 28 29  1  0
 29 30  2  0
 31 23  1  0
 31 30  1  0
 32 33  1  0
 34 32  2  0
M  END
$$$$
