PYW.pdb
     RDKit          3D

 34 37  0  0  1  0  0  0  0  0999 V2000
    6.9710  -18.5602   21.5766 N   0  0  0  0  0  0  0  0  0  0  0  0
    5.8337  -18.3316   20.7187 C   0  0  0  0  0  0  0  0  0  0  0  0
    6.3594  -17.8615   19.3899 C   0  0  0  0  0  0  0  0  0  0  0  0
    7.6708  -18.6511   19.3129 C   0  0  0  0  0  0  0  0  0  0  0  0
    8.1333  -18.7420   20.7566 C   0  0  1  0  0  0  0  0  0  0  0  0
    9.1173  -17.6606   21.0201 C   0  0  0  0  0  0  0  0  0  0  0  0
   10.2342  -17.6877   20.4432 O   0  0  0  0  0  0  0  0  0  0  0  0
    7.3553  -13.1990   16.7999 O   0  0  0  0  0  0  0  0  0  0  0  0
    7.8432  -13.4399   18.1001 C   0  0  0  0  0  0  0  0  0  0  0  0
    7.0008  -13.7731   19.1278 C   0  0  0  0  0  0  0  0  0  0  0  0
    7.4895  -14.0114   20.4151 C   0  0  0  0  0  0  0  0  0  0  0  0
    8.8337  -13.9190   20.6933 C   0  0  0  0  0  0  0  0  0  0  0  0
    9.3281  -14.1693   22.0362 C   0  0  0  0  0  0  0  0  0  0  0  0
    9.8204  -15.5774   22.2620 C   0  0  2  0  0  0  0  0  0  0  0  0
    8.8712  -16.5791   21.8983 N   0  0  0  0  0  0  0  0  0  0  0  0
   10.3133  -15.7550   23.6291 C   0  0  0  0  0  0  0  0  0  0  0  0
   11.4366  -15.2268   23.9384 O   0  0  0  0  0  0  0  0  0  0  0  0
    9.6592  -13.5839   19.6493 C   0  0  0  0  0  0  0  0  0  0  0  0
    9.1962  -13.3454   18.3730 C   0  0  0  0  0  0  0  0  0  0  0  0
    9.6070  -16.4794   24.6166 N   0  0  0  0  0  0  0  0  0  0  0  0
   10.1528  -16.6291   25.9775 C   0  0  1  0  0  0  0  0  0  0  0  0
    9.7248  -15.4299   26.7265 C   0  0  0  0  0  0  0  0  0  0  0  0
    8.3463  -14.9936   26.4490 C   0  0  0  0  0  0  0  0  0  0  0  0
    7.2810  -15.8221   26.0549 C   0  0  0  0  0  0  0  0  0  0  0  0
    6.1804  -15.0870   25.8492 N   0  0  0  0  0  0  0  0  0  0  0  0
    6.4652  -13.7884   26.0920 C   0  0  0  0  0  0  0  0  0  0  0  0
    5.7106  -12.6241   26.0545 C   0  0  0  0  0  0  0  0  0  0  0  0
    6.2748  -11.4083   26.3833 C   0  0  0  0  0  0  0  0  0  0  0  0
    7.5902  -11.3328   26.7521 C   0  0  0  0  0  0  0  0  0  0  0  0
    8.3404  -12.4849   26.7892 C   0  0  0  0  0  0  0  0  0  0  0  0
    7.7834  -13.7167   26.4592 C   0  0  0  0  0  0  0  0  0  0  0  0
    9.7271  -17.8800   26.5926 C   0  0  0  0  0  0  0  0  0  0  0  0
   10.2753  -18.2104   27.8404 O   0  0  0  0  0  0  0  0  0  0  0  0
    8.9064  -18.6745   26.0792 O   0  0  0  0  0  0  0  0  0  0  0  0
  1  2  1  0
  3  2  1  0
  4  5  1  0
  4  3  1  0
  5  6  1  1
  5  1  1  0
  6  7  2  0
  8  9  1  0
  9 19  2  0
  9 10  1  0
 10 11  2  0
 11 12  1  0
 12 13  1  0
 14 13  1  1
 15 14  1  0
 15  6  1  0
 16 14  1  0
 16 17  2  0
 18 12  2  0
 19 18  1  0
 20 16  1  0
 21 20  1  0
 21 32  1  0
 21 22  1  1
 23 22  1  0
 24 23  2  0
 25 26  1  0
 25 24  1  0
 26 31  2  0
 27 26  1  0
 27 28  2  0
 28 29  1  0
 29 30  2  0
 31 23  1  0
 31 30  1  0
 32 33  1  0
 34 32  2  0
M  END
$$$$
