PYW.pdb
     RDKit          3D

 34 37  0  0  1  0  0  0  0  0999 V2000
    8.5257  -14.8399   18.5678 N   0  0  0  0  0  0  0  0  0  0  0  0
    7.4618  -14.4591   17.6709 C   0  0  0  0  0  0  0  0  0  0  0  0
    6.5214  -13.5711   18.4392 C   0  0  0  0  0  0  0  0  0  0  0  0
    7.5096  -12.8508   19.3634 C   0  0  0  0  0  0  0  0  0  0  0  0
    8.5818  -13.8901   19.6406 C   0  0  1  0  0  0  0  0  0  0  0  0
    8.2845  -14.5616   20.9322 C   0  0  0  0  0  0  0  0  0  0  0  0
    8.0766  -13.8641   21.9574 O   0  0  0  0  0  0  0  0  0  0  0  0
    2.5912  -18.3093   19.1742 O   0  0  0  0  0  0  0  0  0  0  0  0
    3.7954  -18.2460   19.9040 C   0  0  0  0  0  0  0  0  0  0  0  0
    5.0117  -18.3694   19.2859 C   0  0  0  0  0  0  0  0  0  0  0  0
    6.2028  -18.3055   20.0138 C   0  0  0  0  0  0  0  0  0  0  0  0
    6.1934  -18.1167   21.3766 C   0  0  0  0  0  0  0  0  0  0  0  0
    7.4391  -18.0522   22.1212 C   0  0  0  0  0  0  0  0  0  0  0  0
    7.9757  -16.6550   22.3100 C   0  0  2  0  0  0  0  0  0  0  0  0
    8.2194  -15.9666   21.0839 N   0  0  0  0  0  0  0  0  0  0  0  0
    9.1476  -16.6500   23.1877 C   0  0  0  0  0  0  0  0  0  0  0  0
   10.2900  -16.9000   22.6693 O   0  0  0  0  0  0  0  0  0  0  0  0
    4.9642  -17.9957   21.9752 C   0  0  0  0  0  0  0  0  0  0  0  0
    3.7788  -18.0557   21.2743 C   0  0  0  0  0  0  0  0  0  0  0  0
    9.0731  -16.3824   24.5738 N   0  0  0  0  0  0  0  0  0  0  0  0
   10.2886  -16.3763   25.4076 C   0  0  1  0  0  0  0  0  0  0  0  0
   10.2601  -15.1094   26.1668 C   0  0  0  0  0  0  0  0  0  0  0  0
    8.9172  -14.6781   26.5892 C   0  0  0  0  0  0  0  0  0  0  0  0
    8.0421  -15.3976   27.4217 C   0  0  0  0  0  0  0  0  0  0  0  0
    6.8910  -14.7281   27.5646 N   0  0  0  0  0  0  0  0  0  0  0  0
    6.9581  -13.5786   26.8571 C   0  0  0  0  0  0  0  0  0  0  0  0
    6.0778  -12.5222   26.6694 C   0  0  0  0  0  0  0  0  0  0  0  0
    6.4329  -11.4390   25.8914 C   0  0  0  0  0  0  0  0  0  0  0  0
    7.6619  -11.3908   25.2919 C   0  0  0  0  0  0  0  0  0  0  0  0
    8.5358  -12.4368   25.4755 C   0  0  0  0  0  0  0  0  0  0  0  0
    8.1892  -13.5348   26.2569 C   0  0  0  0  0  0  0  0  0  0  0  0
   10.3645  -17.5593   26.2555 C   0  0  0  0  0  0  0  0  0  0  0  0
    9.2445  -18.4022   26.2971 O   0  0  0  0  0  0  0  0  0  0  0  0
   11.3624  -17.8688   26.9460 O   0  0  0  0  0  0  0  0  0  0  0  0
  1  2  1  0
  3  2  1  0
  4  5  1  0
  4  3  1  0
  5  6  1  1
  5  1  1  0
  6  7  2  0
  8  9  1  0
  9 19  2  0
  9 10  1  0
 10 11  2  0
 11 12  1  0
 12 13  1  0
 14 13  1  6
 15 14  1  0
 15  6  1  0
 16 14  1  0
 16 17  2  0
 18 12  2  0
 19 18  1  0
 20 16  1  0
 21 20  1  0
 21 32  1  0
 21 22  1  1
 23 22  1  0
 24 23  2  0
 25 26  1  0
 25 24  1  0
 26 31  2  0
 27 26  1  0
 27 28  2  0
 28 29  1  0
 29 30  2  0
 31 23  1  0
 31 30  1  0
 32 33  1  0
 34 32  2  0
M  END
$$$$
