PYW.pdb
     RDKit          3D

 34 37  0  0  1  0  0  0  0  0999 V2000
    9.1648  -14.8394   18.3645 N   0  0  0  0  0  0  0  0  0  0  0  0
    8.1931  -14.6402   17.3168 C   0  0  0  0  0  0  0  0  0  0  0  0
    6.9729  -14.0246   17.9455 C   0  0  0  0  0  0  0  0  0  0  0  0
    7.6233  -13.1685   19.0380 C   0  0  0  0  0  0  0  0  0  0  0  0
    8.8438  -13.9688   19.4577 C   0  0  1  0  0  0  0  0  0  0  0  0
    8.5088  -14.7680   20.6645 C   0  0  0  0  0  0  0  0  0  0  0  0
    8.0917  -14.1832   21.6964 O   0  0  0  0  0  0  0  0  0  0  0  0
    6.7159  -21.6750   25.9813 O   0  0  0  0  0  0  0  0  0  0  0  0
    7.0705  -20.8731   24.8778 C   0  0  0  0  0  0  0  0  0  0  0  0
    8.3765  -20.7317   24.4890 C   0  0  0  0  0  0  0  0  0  0  0  0
    8.7230  -19.9358   23.3939 C   0  0  0  0  0  0  0  0  0  0  0  0
    7.7633  -19.2671   22.6696 C   0  0  0  0  0  0  0  0  0  0  0  0
    8.1374  -18.4429   21.5333 C   0  0  0  0  0  0  0  0  0  0  0  0
    8.3265  -16.9830   21.8632 C   0  0  2  0  0  0  0  0  0  0  0  0
    8.6323  -16.1760   20.7266 N   0  0  0  0  0  0  0  0  0  0  0  0
    9.2977  -16.8041   22.9440 C   0  0  0  0  0  0  0  0  0  0  0  0
   10.5292  -17.0433   22.6937 O   0  0  0  0  0  0  0  0  0  0  0  0
    6.4618  -19.4227   23.0766 C   0  0  0  0  0  0  0  0  0  0  0  0
    6.1004  -20.2034   24.1536 C   0  0  0  0  0  0  0  0  0  0  0  0
    8.9373  -16.3806   24.2438 N   0  0  0  0  0  0  0  0  0  0  0  0
    9.9691  -16.0650   25.2479 C   0  0  1  0  0  0  0  0  0  0  0  0
    9.6934  -14.6864   25.7015 C   0  0  0  0  0  0  0  0  0  0  0  0
    8.2676  -14.3828   25.9080 C   0  0  0  0  0  0  0  0  0  0  0  0
    7.2111  -15.3096   25.8672 C   0  0  0  0  0  0  0  0  0  0  0  0
    6.0433  -14.6822   26.0574 N   0  0  0  0  0  0  0  0  0  0  0  0
    6.2742  -13.3614   26.2266 C   0  0  0  0  0  0  0  0  0  0  0  0
    5.4483  -12.2733   26.4721 C   0  0  0  0  0  0  0  0  0  0  0  0
    5.9776  -11.0082   26.6278 C   0  0  0  0  0  0  0  0  0  0  0  0
    7.3283  -10.8077   26.5418 C   0  0  0  0  0  0  0  0  0  0  0  0
    8.1489  -11.8841   26.2976 C   0  0  0  0  0  0  0  0  0  0  0  0
    7.6274  -13.1644   26.1381 C   0  0  0  0  0  0  0  0  0  0  0  0
    9.9816  -17.0405   26.3307 C   0  0  0  0  0  0  0  0  0  0  0  0
   11.0313  -16.9693   27.2578 O   0  0  0  0  0  0  0  0  0  0  0  0
    9.1177  -17.9342   26.4843 O   0  0  0  0  0  0  0  0  0  0  0  0
  1  2  1  0
  3  2  1  0
  4  5  1  0
  4  3  1  0
  5  6  1  1
  5  1  1  0
  6  7  2  0
  8  9  1  0
  9 19  2  0
  9 10  1  0
 10 11  2  0
 11 12  1  0
 12 13  1  0
 14 13  1  6
 15 14  1  0
 15  6  1  0
 16 14  1  0
 16 17  2  0
 18 12  2  0
 19 18  1  0
 20 16  1  0
 21 20  1  0
 21 32  1  0
 21 22  1  1
 23 22  1  0
 24 23  2  0
 25 26  1  0
 25 24  1  0
 26 31  2  0
 27 26  1  0
 27 28  2  0
 28 29  1  0
 29 30  2  0
 31 23  1  0
 31 30  1  0
 32 33  1  0
 34 32  2  0
M  END
$$$$
