PYW.pdb
     RDKit          3D

 34 37  0  0  1  0  0  0  0  0999 V2000
    8.9833  -15.5668   20.3111 N   0  0  0  0  0  0  0  0  0  0  0  0
    9.2464  -14.3451   19.5901 C   0  0  0  0  0  0  0  0  0  0  0  0
   10.7388  -14.1602   19.5471 C   0  0  0  0  0  0  0  0  0  0  0  0
   11.1991  -15.6201   19.4688 C   0  0  0  0  0  0  0  0  0  0  0  0
   10.1653  -16.3783   20.2829 C   0  0  1  0  0  0  0  0  0  0  0  0
   10.6820  -16.5744   21.6620 C   0  0  0  0  0  0  0  0  0  0  0  0
   11.5286  -17.4777   21.8816 O   0  0  0  0  0  0  0  0  0  0  0  0
   11.4812  -15.5498   30.4935 O   0  0  0  0  0  0  0  0  0  0  0  0
   11.3630  -15.3613   29.1017 C   0  0  0  0  0  0  0  0  0  0  0  0
   12.0247  -16.1678   28.2138 C   0  0  0  0  0  0  0  0  0  0  0  0
   11.9038  -15.9772   26.8347 C   0  0  0  0  0  0  0  0  0  0  0  0
   11.1159  -14.9723   26.3226 C   0  0  0  0  0  0  0  0  0  0  0  0
   10.9993  -14.7853   24.8867 C   0  0  0  0  0  0  0  0  0  0  0  0
   10.6262  -16.0347   24.1281 C   0  0  2  0  0  0  0  0  0  0  0  0
   10.2724  -15.7918   22.7670 N   0  0  0  0  0  0  0  0  0  0  0  0
    9.5986  -16.7997   24.8370 C   0  0  0  0  0  0  0  0  0  0  0  0
    9.8862  -17.2700   25.9913 O   0  0  0  0  0  0  0  0  0  0  0  0
   10.4624  -14.1764   27.2299 C   0  0  0  0  0  0  0  0  0  0  0  0
   10.5688  -14.3489   28.5934 C   0  0  0  0  0  0  0  0  0  0  0  0
    8.3106  -17.0397   24.3059 N   0  0  0  0  0  0  0  0  0  0  0  0
    7.2456  -17.6211   25.1427 C   0  0  1  0  0  0  0  0  0  0  0  0
    5.9940  -16.9458   24.7432 C   0  0  0  0  0  0  0  0  0  0  0  0
    6.1821  -15.6257   24.1190 C   0  0  0  0  0  0  0  0  0  0  0  0
    6.3736  -15.3797   22.7480 C   0  0  0  0  0  0  0  0  0  0  0  0
    6.5516  -14.0690   22.5379 N   0  0  0  0  0  0  0  0  0  0  0  0
    6.4861  -13.4194   23.7212 C   0  0  0  0  0  0  0  0  0  0  0  0
    6.5803  -12.0821   24.0807 C   0  0  0  0  0  0  0  0  0  0  0  0
    6.4477  -11.6962   25.3991 C   0  0  0  0  0  0  0  0  0  0  0  0
    6.2209  -12.6292   26.3739 C   0  0  0  0  0  0  0  0  0  0  0  0
    6.1281  -13.9551   26.0204 C   0  0  0  0  0  0  0  0  0  0  0  0
    6.2606  -14.3569   24.6948 C   0  0  0  0  0  0  0  0  0  0  0  0
    7.1900  -19.0715   25.0107 C   0  0  0  0  0  0  0  0  0  0  0  0
    6.2858  -19.7644   25.8285 O   0  0  0  0  0  0  0  0  0  0  0  0
    7.8958  -19.7346   24.2167 O   0  0  0  0  0  0  0  0  0  0  0  0
  1  2  1  0
  3  2  1  0
  4  5  1  0
  4  3  1  0
  5  6  1  1
  5  1  1  0
  6  7  2  0
  8  9  1  0
  9 19  2  0
  9 10  1  0
 10 11  2  0
 11 12  1  0
 12 13  1  0
 14 13  1  1
 15 14  1  0
 15  6  1  0
 16 14  1  0
 16 17  2  0
 18 12  2  0
 19 18  1  0
 20 16  1  0
 21 20  1  0
 21 32  1  0
 21 22  1  6
 23 22  1  0
 24 23  2  0
 25 26  1  0
 25 24  1  0
 26 31  2  0
 27 26  1  0
 27 28  2  0
 28 29  1  0
 29 30  2  0
 31 23  1  0
 31 30  1  0
 32 33  1  0
 34 32  2  0
M  END
$$$$
