TGL.pdb
     RDKit          3D

 20 19  0  0  1  0  0  0  0  0999 V2000
    8.2773  -12.8004   17.0910 C   0  0  0  0  0  0  0  0  0  0  0  0
    7.8444  -13.7106   18.2103 C   0  0  1  0  0  0  0  0  0  0  0  0
    7.4978  -14.9685   17.7223 O   0  0  0  0  0  0  0  0  0  0  0  0
    8.9621  -13.8644   19.2208 C   0  0  2  0  0  0  0  0  0  0  0  0
   10.0697  -14.6084   18.7107 N   0  0  0  0  0  0  0  0  0  0  0  0
    8.4626  -14.5021   20.4490 C   0  0  0  0  0  0  0  0  0  0  0  0
    7.5574  -13.9678   21.1143 O   0  0  0  0  0  0  0  0  0  0  0  0
    9.0181  -15.7277   20.8695 N   0  0  0  0  0  0  0  0  0  0  0  0
    8.4528  -16.4987   21.9532 C   0  0  0  0  0  0  0  0  0  0  0  0
    8.7089  -15.7292   23.2208 C   0  0  0  0  0  0  0  0  0  0  0  0
    9.8963  -15.3890   23.5444 O   0  0  0  0  0  0  0  0  0  0  0  0
    7.8857  -11.8504   26.7352 C   0  0  0  0  0  0  0  0  0  0  0  0
    6.8007  -12.9601   26.8719 C   0  0  1  0  0  0  0  0  0  0  0  0
    5.4756  -12.2299   27.0606 C   0  0  0  0  0  0  0  0  0  0  0  0
    6.8147  -13.7863   25.6373 C   0  0  0  0  0  0  0  0  0  0  0  0
    7.9841  -14.6712   25.3853 C   0  0  2  0  0  0  0  0  0  0  0  0
    7.6536  -15.3629   24.0840 N   0  0  0  0  0  0  0  0  0  0  0  0
    8.3680  -15.6706   26.3564 C   0  0  0  0  0  0  0  0  0  0  0  0
    9.2522  -15.3449   27.2373 O   0  0  0  0  0  0  0  0  0  0  0  0
    7.9037  -16.9617   26.4867 O   0  0  0  0  0  0  0  0  0  0  0  0
  2  1  1  6
  2  4  1  0
  3  2  1  0
  4  5  1  6
  6  4  1  0
  6  7  2  0
  8  6  1  0
  9  8  1  0
  9 10  1  0
 10 11  2  0
 10 17  1  0
 13 15  1  0
 13 14  1  6
 13 12  1  0
 16 15  1  1
 16 18  1  0
 17 16  1  0
 18 19  2  0
 18 20  1  0
M  END
$$$$
