TGL.pdb
     RDKit          3D

 20 19  0  0  1  0  0  0  0  0999 V2000
    8.2915  -13.0158   17.4470 C   0  0  0  0  0  0  0  0  0  0  0  0
    7.6295  -13.7074   18.6099 C   0  0  1  0  0  0  0  0  0  0  0  0
    6.9723  -14.8626   18.1927 O   0  0  0  0  0  0  0  0  0  0  0  0
    8.6618  -14.0773   19.6546 C   0  0  2  0  0  0  0  0  0  0  0  0
    9.5295  -15.1280   19.2263 N   0  0  0  0  0  0  0  0  0  0  0  0
    8.0058  -14.4614   20.9143 C   0  0  0  0  0  0  0  0  0  0  0  0
    7.2992  -13.6452   21.5324 O   0  0  0  0  0  0  0  0  0  0  0  0
    8.1833  -15.7656   21.4192 N   0  0  0  0  0  0  0  0  0  0  0  0
    7.4780  -16.2427   22.5869 C   0  0  0  0  0  0  0  0  0  0  0  0
    8.1581  -15.6422   23.7875 C   0  0  0  0  0  0  0  0  0  0  0  0
    9.3858  -15.2958   23.7318 O   0  0  0  0  0  0  0  0  0  0  0  0
    5.6074  -12.0789   26.8895 C   0  0  0  0  0  0  0  0  0  0  0  0
    6.6817  -12.8100   26.0301 C   0  0  1  0  0  0  0  0  0  0  0  0
    7.7504  -11.7678   25.7196 C   0  0  0  0  0  0  0  0  0  0  0  0
    7.2206  -13.9477   26.8188 C   0  0  0  0  0  0  0  0  0  0  0  0
    8.2098  -14.8549   26.1764 C   0  0  2  0  0  0  0  0  0  0  0  0
    7.4659  -15.4448   25.0019 N   0  0  0  0  0  0  0  0  0  0  0  0
    8.8130  -15.9308   26.9301 C   0  0  0  0  0  0  0  0  0  0  0  0
    9.6057  -15.6165   27.8980 O   0  0  0  0  0  0  0  0  0  0  0  0
    8.6511  -17.2892   26.7637 O   0  0  0  0  0  0  0  0  0  0  0  0
  2  1  1  6
  2  4  1  0
  3  2  1  0
  4  5  1  6
  6  4  1  0
  6  7  2  0
  8  6  1  0
  9  8  1  0
  9 10  1  0
 10 11  2  0
 10 17  1  0
 13 15  1  0
 13 14  1  1
 13 12  1  0
 16 15  1  1
 16 18  1  0
 17 16  1  0
 18 19  2  0
 18 20  1  0
M  END
$$$$
