TGL.pdb
     RDKit          3D

 20 19  0  0  1  0  0  0  0  0999 V2000
    8.3589  -12.4294   17.9149 C   0  0  0  0  0  0  0  0  0  0  0  0
    7.7630  -13.2362   19.0386 C   0  0  1  0  0  0  0  0  0  0  0  0
    6.3913  -13.4007   18.8596 O   0  0  0  0  0  0  0  0  0  0  0  0
    8.4183  -14.6000   19.1075 C   0  0  2  0  0  0  0  0  0  0  0  0
    8.3519  -15.3082   17.8688 N   0  0  0  0  0  0  0  0  0  0  0  0
    7.8096  -15.4112   20.1734 C   0  0  0  0  0  0  0  0  0  0  0  0
    7.0305  -16.3396   19.8930 O   0  0  0  0  0  0  0  0  0  0  0  0
    8.1157  -15.1293   21.5203 N   0  0  0  0  0  0  0  0  0  0  0  0
    7.4590  -15.8030   22.6173 C   0  0  0  0  0  0  0  0  0  0  0  0
    8.0902  -15.2963   23.8859 C   0  0  0  0  0  0  0  0  0  0  0  0
    8.6274  -14.1386   23.9255 O   0  0  0  0  0  0  0  0  0  0  0  0
    5.8978  -12.3655   26.4140 C   0  0  0  0  0  0  0  0  0  0  0  0
    7.2089  -13.1124   26.0263 C   0  0  1  0  0  0  0  0  0  0  0  0
    8.3445  -12.3323   26.6794 C   0  0  0  0  0  0  0  0  0  0  0  0
    7.1233  -14.5067   26.5320 C   0  0  0  0  0  0  0  0  0  0  0  0
    8.3120  -15.3904   26.3902 C   0  0  2  0  0  0  0  0  0  0  0  0
    8.1078  -16.0782   25.0611 N   0  0  0  0  0  0  0  0  0  0  0  0
    8.6019  -16.3927   27.3904 C   0  0  0  0  0  0  0  0  0  0  0  0
    8.1051  -17.5713   27.2227 O   0  0  0  0  0  0  0  0  0  0  0  0
    9.3651  -16.2691   28.5313 O   0  0  0  0  0  0  0  0  0  0  0  0
  2  1  1  6
  2  4  1  0
  3  2  1  0
  4  5  1  6
  6  4  1  0
  6  7  2  0
  8  6  1  0
  9  8  1  0
  9 10  1  0
 10 11  2  0
 10 17  1  0
 13 15  1  0
 13 14  1  1
 13 12  1  0
 16 15  1  1
 16 18  1  0
 17 16  1  0
 18 19  2  0
 18 20  1  0
M  END
$$$$
