TGL.pdb
     RDKit          3D

 20 19  0  0  1  0  0  0  0  0999 V2000
    8.5246  -18.6436   17.6814 C   0  0  0  0  0  0  0  0  0  0  0  0
    7.8207  -18.1729   18.9270 C   0  0  1  0  0  0  0  0  0  0  0  0
    7.4030  -19.2535   19.7005 O   0  0  0  0  0  0  0  0  0  0  0  0
    8.7457  -17.3034   19.7531 C   0  0  2  0  0  0  0  0  0  0  0  0
    9.9459  -17.9785   20.1330 N   0  0  0  0  0  0  0  0  0  0  0  0
    8.0542  -16.8117   20.9551 C   0  0  0  0  0  0  0  0  0  0  0  0
    7.9387  -17.5381   21.9583 O   0  0  0  0  0  0  0  0  0  0  0  0
    7.5209  -15.5068   20.9636 N   0  0  0  0  0  0  0  0  0  0  0  0
    6.7415  -14.9998   22.0699 C   0  0  0  0  0  0  0  0  0  0  0  0
    7.7048  -14.7031   23.1872 C   0  0  0  0  0  0  0  0  0  0  0  0
    8.8800  -14.2732   22.9334 O   0  0  0  0  0  0  0  0  0  0  0  0
    5.8140  -11.7222   27.0075 C   0  0  0  0  0  0  0  0  0  0  0  0
    6.6926  -12.3820   25.9030 C   0  0  1  0  0  0  0  0  0  0  0  0
    7.6692  -11.3045   25.4447 C   0  0  0  0  0  0  0  0  0  0  0  0
    7.3882  -13.5546   26.4931 C   0  0  0  0  0  0  0  0  0  0  0  0
    8.2667  -14.3769   25.6178 C   0  0  2  0  0  0  0  0  0  0  0  0
    7.3423  -14.8892   24.5388 N   0  0  0  0  0  0  0  0  0  0  0  0
    9.0047  -15.4934   26.1637 C   0  0  0  0  0  0  0  0  0  0  0  0
    8.5122  -16.6751   26.0055 O   0  0  0  0  0  0  0  0  0  0  0  0
   10.2030  -15.4778   26.8442 O   0  0  0  0  0  0  0  0  0  0  0  0
  2  1  1  6
  2  4  1  0
  3  2  1  0
  4  5  1  1
  6  4  1  0
  6  7  2  0
  8  6  1  0
  9  8  1  0
  9 10  1  0
 10 11  2  0
 10 17  1  0
 13 15  1  0
 13 14  1  1
 13 12  1  0
 16 15  1  1
 16 18  1  0
 17 16  1  0
 18 19  2  0
 18 20  1  0
M  END
$$$$
