TGL.pdb
     RDKit          3D

 20 19  0  0  1  0  0  0  0  0999 V2000
    4.0625  -19.0036   22.3480 C   0  0  0  0  0  0  0  0  0  0  0  0
    5.4681  -18.4711   22.2516 C   0  0  1  0  0  0  0  0  0  0  0  0
    6.3775  -19.5042   22.0362 O   0  0  0  0  0  0  0  0  0  0  0  0
    5.5733  -17.4764   21.1142 C   0  0  2  0  0  0  0  0  0  0  0  0
    5.1693  -18.0269   19.8596 N   0  0  0  0  0  0  0  0  0  0  0  0
    6.9464  -16.9590   21.0072 C   0  0  0  0  0  0  0  0  0  0  0  0
    7.6799  -17.3060   20.0642 O   0  0  0  0  0  0  0  0  0  0  0  0
    7.4284  -16.0636   21.9836 N   0  0  0  0  0  0  0  0  0  0  0  0
    8.7863  -15.5692   21.9728 C   0  0  0  0  0  0  0  0  0  0  0  0
    9.0903  -15.0879   23.3658 C   0  0  0  0  0  0  0  0  0  0  0  0
   10.2640  -14.6895   23.6726 O   0  0  0  0  0  0  0  0  0  0  0  0
    5.7894  -12.1048   26.4370 C   0  0  0  0  0  0  0  0  0  0  0  0
    7.0706  -12.6703   25.7544 C   0  0  1  0  0  0  0  0  0  0  0  0
    8.1717  -11.6492   26.0185 C   0  0  0  0  0  0  0  0  0  0  0  0
    7.3781  -13.9941   26.3542 C   0  0  0  0  0  0  0  0  0  0  0  0
    8.5072  -14.7852   25.7943 C   0  0  2  0  0  0  0  0  0  0  0  0
    8.0962  -15.0621   24.3676 N   0  0  0  0  0  0  0  0  0  0  0  0
    8.9050  -16.0303   26.4115 C   0  0  0  0  0  0  0  0  0  0  0  0
    8.4899  -17.1273   25.8747 O   0  0  0  0  0  0  0  0  0  0  0  0
    9.6973  -16.2210   27.5229 O   0  0  0  0  0  0  0  0  0  0  0  0
  2  1  1  6
  2  4  1  0
  3  2  1  0
  4  5  1  6
  6  4  1  0
  6  7  2  0
  8  6  1  0
  9  8  1  0
  9 10  1  0
 10 11  2  0
 10 17  1  0
 13 15  1  0
 13 14  1  1
 13 12  1  0
 16 15  1  1
 16 18  1  0
 17 16  1  0
 18 19  2  0
 18 20  1  0
M  END
$$$$
