TGL.pdb
     RDKit          3D

 20 19  0  0  1  0  0  0  0  0999 V2000
    8.3155  -12.4223   17.8086 C   0  0  0  0  0  0  0  0  0  0  0  0
    7.6020  -13.3090   18.7952 C   0  0  1  0  0  0  0  0  0  0  0  0
    7.0741  -14.4324   18.1628 O   0  0  0  0  0  0  0  0  0  0  0  0
    8.5579  -13.7579   19.8810 C   0  0  2  0  0  0  0  0  0  0  0  0
    9.5180  -14.7070   19.4142 N   0  0  0  0  0  0  0  0  0  0  0  0
    7.8166  -14.3243   21.0187 C   0  0  0  0  0  0  0  0  0  0  0  0
    7.0708  -13.6050   21.7070 O   0  0  0  0  0  0  0  0  0  0  0  0
    7.9569  -15.6931   21.3257 N   0  0  0  0  0  0  0  0  0  0  0  0
    7.2335  -16.3180   22.4095 C   0  0  0  0  0  0  0  0  0  0  0  0
    7.9033  -15.8930   23.6883 C   0  0  0  0  0  0  0  0  0  0  0  0
    9.1669  -15.7143   23.7303 O   0  0  0  0  0  0  0  0  0  0  0  0
    5.8114  -12.1562   27.0730 C   0  0  0  0  0  0  0  0  0  0  0  0
    6.8787  -12.9362   26.2486 C   0  0  1  0  0  0  0  0  0  0  0  0
    8.1803  -12.1577   26.4049 C   0  0  0  0  0  0  0  0  0  0  0  0
    6.9805  -14.3140   26.7948 C   0  0  0  0  0  0  0  0  0  0  0  0
    7.8960  -15.2791   26.1280 C   0  0  2  0  0  0  0  0  0  0  0  0
    7.1619  -15.6804   24.8706 N   0  0  0  0  0  0  0  0  0  0  0  0
    8.3245  -16.4758   26.8161 C   0  0  0  0  0  0  0  0  0  0  0  0
    7.6397  -17.5534   26.6318 O   0  0  0  0  0  0  0  0  0  0  0  0
    9.4000  -16.6393   27.6621 O   0  0  0  0  0  0  0  0  0  0  0  0
  2  1  1  6
  2  4  1  0
  3  2  1  0
  4  5  1  6
  6  4  1  0
  6  7  2  0
  8  6  1  0
  9  8  1  0
  9 10  1  0
 10 11  2  0
 10 17  1  0
 13 15  1  0
 13 14  1  1
 13 12  1  0
 16 15  1  1
 16 18  1  0
 17 16  1  0
 18 19  2  0
 18 20  1  0
M  END
$$$$
