QTA.pdb
     RDKit          3D

 22 21  0  0  1  0  0  0  0  0999 V2000
   15.1447  -13.4648   19.3274 N   0  0  0  0  0  0  0  0  0  0  0  0
   14.5171  -14.7438   19.4974 C   0  0  0  0  0  0  0  0  0  0  0  0
   15.2343  -15.6784   19.8948 O   0  0  0  0  0  0  0  0  0  0  0  0
   13.0968  -14.9666   19.2240 C   0  0  0  0  0  0  0  0  0  0  0  0
   12.1676  -14.6587   20.3395 C   0  0  0  0  0  0  0  0  0  0  0  0
   11.8568  -15.8565   21.1874 C   0  0  2  0  0  0  0  0  0  0  0  0
   11.2786  -16.9348   20.3702 N   0  0  0  0  0  0  0  0  0  0  0  0
   10.8636  -15.4904   22.2352 C   0  0  0  0  0  0  0  0  0  0  0  0
   10.0919  -14.5048   22.1165 O   0  0  0  0  0  0  0  0  0  0  0  0
    8.1193  -17.5178   23.1744 C   0  0  0  0  0  0  0  0  0  0  0  0
    8.9318  -17.3083   24.4198 C   0  0  1  0  0  0  0  0  0  0  0  0
    9.9149  -18.3327   24.3930 O   0  0  0  0  0  0  0  0  0  0  0  0
    9.7313  -16.0213   24.4246 C   0  0  2  0  0  0  0  0  0  0  0  0
   10.7731  -16.2599   23.3982 N   0  0  0  0  0  0  0  0  0  0  0  0
   10.4705  -15.7780   25.6730 C   0  0  0  0  0  0  0  0  0  0  0  0
   11.6134  -16.3063   25.9045 O   0  0  0  0  0  0  0  0  0  0  0  0
    9.8942  -13.4510   28.5999 C   0  0  0  0  0  0  0  0  0  0  0  0
   10.4666  -14.6900   27.9707 C   0  0  2  0  0  0  0  0  0  0  0  0
    9.9200  -14.9342   26.6651 N   0  0  0  0  0  0  0  0  0  0  0  0
   10.3838  -15.8844   28.8629 C   0  0  0  0  0  0  0  0  0  0  0  0
   11.2144  -15.9730   29.9500 O   0  0  0  0  0  0  0  0  0  0  0  0
    9.5652  -16.7843   28.6167 O   0  0  0  0  0  0  0  0  0  0  0  0
  1  2  1  0
  2  4  1  0
  3  2  2  0
  4  5  1  0
  5  6  1  0
  6  8  1  0
  6  7  1  6
  8  9  2  0
 11 10  1  6
 11 12  1  0
 11 13  1  0
 13 15  1  0
 13 14  1  6
 14  8  1  0
 15 19  1  0
 15 16  2  0
 18 17  1  1
 18 20  1  0
 19 18  1  0
 20 22  2  0
 20 21  1  0
M  END
$$$$
