QTA.pdb
     RDKit          3D

 22 21  0  0  1  0  0  0  0  0999 V2000
   16.6570  -18.2069   17.9999 N   0  0  0  0  0  0  0  0  0  0  0  0
   16.1744  -18.0336   16.6599 C   0  0  0  0  0  0  0  0  0  0  0  0
   17.0242  -17.8512   15.7709 O   0  0  0  0  0  0  0  0  0  0  0  0
   14.7502  -18.0670   16.3254 C   0  0  0  0  0  0  0  0  0  0  0  0
   13.8314  -18.4009   17.4421 C   0  0  0  0  0  0  0  0  0  0  0  0
   12.3898  -18.4123   17.0280 C   0  0  2  0  0  0  0  0  0  0  0  0
   12.2456  -17.9540   15.6373 N   0  0  0  0  0  0  0  0  0  0  0  0
   11.6061  -17.4925   17.8988 C   0  0  0  0  0  0  0  0  0  0  0  0
   11.5250  -16.2581   17.6737 O   0  0  0  0  0  0  0  0  0  0  0  0
    8.4053  -19.0451   20.0189 C   0  0  0  0  0  0  0  0  0  0  0  0
    8.6769  -17.6365   19.5749 C   0  0  1  0  0  0  0  0  0  0  0  0
    7.8437  -16.8273   20.3920 O   0  0  0  0  0  0  0  0  0  0  0  0
   10.0811  -17.1550   19.8782 C   0  0  2  0  0  0  0  0  0  0  0  0
   10.9307  -18.0039   19.0102 N   0  0  0  0  0  0  0  0  0  0  0  0
   10.5300  -17.4381   21.2503 C   0  0  0  0  0  0  0  0  0  0  0  0
   10.9741  -18.5865   21.6008 O   0  0  0  0  0  0  0  0  0  0  0  0
   10.7294  -15.2590   24.3603 C   0  0  0  0  0  0  0  0  0  0  0  0
   10.8373  -16.5604   23.6164 C   0  0  2  0  0  0  0  0  0  0  0  0
   10.4794  -16.4220   22.2322 N   0  0  0  0  0  0  0  0  0  0  0  0
   10.1095  -17.6759   24.2912 C   0  0  0  0  0  0  0  0  0  0  0  0
   10.6192  -18.2131   25.4449 O   0  0  0  0  0  0  0  0  0  0  0  0
    9.0510  -18.1060   23.8063 O   0  0  0  0  0  0  0  0  0  0  0  0
  1  2  1  0
  2  4  1  0
  3  2  2  0
  4  5  1  0
  5  6  1  0
  6  8  1  0
  6  7  1  6
  8  9  2  0
 11 10  1  1
 11 12  1  0
 11 13  1  0
 13 15  1  0
 13 14  1  6
 14  8  1  0
 15 19  1  0
 15 16  2  0
 18 17  1  1
 18 20  1  0
 19 18  1  0
 20 22  2  0
 20 21  1  0
M  END
$$$$
