QTA.pdb
     RDKit          3D

 22 21  0  0  1  0  0  0  0  0999 V2000
   13.1169  -20.0945   20.8815 N   0  0  0  0  0  0  0  0  0  0  0  0
   12.9261  -20.1465   19.4604 C   0  0  0  0  0  0  0  0  0  0  0  0
   13.1828  -21.2227   18.8933 O   0  0  0  0  0  0  0  0  0  0  0  0
   12.4500  -18.9988   18.6873 C   0  0  0  0  0  0  0  0  0  0  0  0
   12.0993  -17.7901   19.4738 C   0  0  0  0  0  0  0  0  0  0  0  0
   10.6320  -17.4796   19.4433 C   0  0  2  0  0  0  0  0  0  0  0  0
   10.2039  -17.1295   18.0799 N   0  0  0  0  0  0  0  0  0  0  0  0
   10.3425  -16.3176   20.3289 C   0  0  0  0  0  0  0  0  0  0  0  0
   11.2415  -15.5339   20.7271 O   0  0  0  0  0  0  0  0  0  0  0  0
    7.3928  -13.8000   19.8198 C   0  0  0  0  0  0  0  0  0  0  0  0
    7.3338  -14.4966   21.1487 C   0  0  1  0  0  0  0  0  0  0  0  0
    6.6147  -15.6962   20.9023 O   0  0  0  0  0  0  0  0  0  0  0  0
    8.6812  -14.9653   21.6590 C   0  0  2  0  0  0  0  0  0  0  0  0
    9.0294  -16.0754   20.7412 N   0  0  0  0  0  0  0  0  0  0  0  0
    8.6382  -15.5732   22.9980 C   0  0  0  0  0  0  0  0  0  0  0  0
    8.7688  -16.8335   23.1810 O   0  0  0  0  0  0  0  0  0  0  0  0
    8.0635  -14.0721   26.4448 C   0  0  0  0  0  0  0  0  0  0  0  0
    8.2714  -15.2119   25.4876 C   0  0  2  0  0  0  0  0  0  0  0  0
    8.4483  -14.7569   24.1368 N   0  0  0  0  0  0  0  0  0  0  0  0
    7.2228  -16.2681   25.6075 C   0  0  0  0  0  0  0  0  0  0  0  0
    7.3889  -17.2836   26.5135 O   0  0  0  0  0  0  0  0  0  0  0  0
    6.2109  -16.2186   24.8906 O   0  0  0  0  0  0  0  0  0  0  0  0
  1  2  1  0
  2  4  1  0
  3  2  2  0
  4  5  1  0
  5  6  1  0
  6  8  1  0
  6  7  1  6
  8  9  2  0
 11 10  1  6
 11 12  1  0
 11 13  1  0
 13 15  1  0
 13 14  1  6
 14  8  1  0
 15 19  1  0
 15 16  2  0
 18 17  1  1
 18 20  1  0
 19 18  1  0
 20 22  2  0
 20 21  1  0
M  END
$$$$
