QTA.pdb
     RDKit          3D

 22 21  0  0  1  0  0  0  0  0999 V2000
   15.4845  -17.0466   22.3423 N   0  0  0  0  0  0  0  0  0  0  0  0
   15.2378  -17.8146   21.1559 C   0  0  0  0  0  0  0  0  0  0  0  0
   16.1835  -17.9470   20.3597 O   0  0  0  0  0  0  0  0  0  0  0  0
   13.9401  -18.4279   20.8705 C   0  0  0  0  0  0  0  0  0  0  0  0
   12.9375  -18.3574   21.9625 C   0  0  0  0  0  0  0  0  0  0  0  0
   11.6083  -17.8370   21.5016 C   0  0  2  0  0  0  0  0  0  0  0  0
   11.6721  -17.4292   20.0893 N   0  0  0  0  0  0  0  0  0  0  0  0
   11.2247  -16.6448   22.3077 C   0  0  0  0  0  0  0  0  0  0  0  0
   11.6286  -15.4866   22.0310 O   0  0  0  0  0  0  0  0  0  0  0  0
    7.7894  -15.6399   22.6035 C   0  0  0  0  0  0  0  0  0  0  0  0
    8.3101  -15.8602   23.9947 C   0  0  1  0  0  0  0  0  0  0  0  0
    8.1305  -17.2476   24.2381 O   0  0  0  0  0  0  0  0  0  0  0  0
    9.8034  -15.6452   24.1347 C   0  0  2  0  0  0  0  0  0  0  0  0
   10.3864  -16.8017   23.4146 N   0  0  0  0  0  0  0  0  0  0  0  0
   10.3003  -15.7618   25.5145 C   0  0  0  0  0  0  0  0  0  0  0  0
   10.9585  -16.7821   25.9200 O   0  0  0  0  0  0  0  0  0  0  0  0
   10.0814  -13.4173   28.5008 C   0  0  0  0  0  0  0  0  0  0  0  0
   10.4529  -14.7057   27.8221 C   0  0  2  0  0  0  0  0  0  0  0  0
   10.0554  -14.7229   26.4420 N   0  0  0  0  0  0  0  0  0  0  0  0
    9.9874  -15.9106   28.5711 C   0  0  0  0  0  0  0  0  0  0  0  0
   10.6241  -16.2718   29.7302 O   0  0  0  0  0  0  0  0  0  0  0  0
    9.0294  -16.5731   28.1422 O   0  0  0  0  0  0  0  0  0  0  0  0
  1  2  1  0
  2  4  1  0
  3  2  2  0
  4  5  1  0
  5  6  1  0
  6  8  1  0
  6  7  1  6
  8  9  2  0
 11 10  1  6
 11 12  1  0
 11 13  1  0
 13 15  1  0
 13 14  1  6
 14  8  1  0
 15 19  1  0
 15 16  2  0
 18 17  1  1
 18 20  1  0
 19 18  1  0
 20 22  2  0
 20 21  1  0
M  END
$$$$
