QTA.pdb
     RDKit          3D

 22 21  0  0  1  0  0  0  0  0999 V2000
    7.9837  -13.0917   17.4825 N   0  0  0  0  0  0  0  0  0  0  0  0
    8.4790  -14.4359   17.4027 C   0  0  0  0  0  0  0  0  0  0  0  0
    8.3459  -15.0251   16.3160 O   0  0  0  0  0  0  0  0  0  0  0  0
    9.1184  -15.1080   18.5345 C   0  0  0  0  0  0  0  0  0  0  0  0
    9.1499  -14.3438   19.8064 C   0  0  0  0  0  0  0  0  0  0  0  0
    9.7752  -15.1118   20.9331 C   0  0  2  0  0  0  0  0  0  0  0  0
    9.4763  -16.5473   20.8114 N   0  0  0  0  0  0  0  0  0  0  0  0
    9.2275  -14.6367   22.2342 C   0  0  0  0  0  0  0  0  0  0  0  0
    8.9911  -13.4230   22.4623 O   0  0  0  0  0  0  0  0  0  0  0  0
    6.0983  -15.8859   23.6240 C   0  0  0  0  0  0  0  0  0  0  0  0
    7.1610  -16.1011   24.6628 C   0  0  1  0  0  0  0  0  0  0  0  0
    7.6973  -17.3849   24.3784 O   0  0  0  0  0  0  0  0  0  0  0  0
    8.3449  -15.1639   24.5364 C   0  0  2  0  0  0  0  0  0  0  0  0
    8.9613  -15.5603   23.2485 N   0  0  0  0  0  0  0  0  0  0  0  0
    9.3926  -15.3799   25.5463 C   0  0  0  0  0  0  0  0  0  0  0  0
   10.3782  -16.1729   25.3497 O   0  0  0  0  0  0  0  0  0  0  0  0
   10.0967  -13.7790   28.9075 C   0  0  0  0  0  0  0  0  0  0  0  0
   10.2049  -14.8941   27.9059 C   0  0  2  0  0  0  0  0  0  0  0  0
    9.3302  -14.6982   26.7835 N   0  0  0  0  0  0  0  0  0  0  0  0
   10.0557  -16.2451   28.5240 C   0  0  0  0  0  0  0  0  0  0  0  0
   11.0612  -16.7403   29.3134 O   0  0  0  0  0  0  0  0  0  0  0  0
    9.0254  -16.9070   28.3217 O   0  0  0  0  0  0  0  0  0  0  0  0
  1  2  1  0
  2  4  1  0
  3  2  2  0
  4  5  1  0
  5  6  1  0
  6  8  1  0
  6  7  1  6
  8  9  2  0
 11 10  1  6
 11 12  1  0
 11 13  1  0
 13 15  1  0
 13 14  1  6
 14  8  1  0
 15 19  1  0
 15 16  2  0
 18 17  1  1
 18 20  1  0
 19 18  1  0
 20 22  2  0
 20 21  1  0
M  END
$$$$
