QTA.pdb
     RDKit          3D

 22 21  0  0  1  0  0  0  0  0999 V2000
    8.3134  -13.1411   16.9986 N   0  0  0  0  0  0  0  0  0  0  0  0
    8.6169  -14.5417   17.0678 C   0  0  0  0  0  0  0  0  0  0  0  0
    8.3061  -15.2379   16.0858 O   0  0  0  0  0  0  0  0  0  0  0  0
    9.2646  -15.1506   18.2303 C   0  0  0  0  0  0  0  0  0  0  0  0
    9.5784  -14.2301   19.3514 C   0  0  0  0  0  0  0  0  0  0  0  0
   10.1392  -14.9388   20.5486 C   0  0  2  0  0  0  0  0  0  0  0  0
    9.8236  -16.3750   20.4965 N   0  0  0  0  0  0  0  0  0  0  0  0
    9.5401  -14.3812   21.7930 C   0  0  0  0  0  0  0  0  0  0  0  0
    9.4556  -13.1446   22.0041 O   0  0  0  0  0  0  0  0  0  0  0  0
    6.1463  -15.0128   22.9633 C   0  0  0  0  0  0  0  0  0  0  0  0
    7.0846  -15.4583   24.0478 C   0  0  1  0  0  0  0  0  0  0  0  0
    7.3860  -16.8113   23.7391 O   0  0  0  0  0  0  0  0  0  0  0  0
    8.4290  -14.7600   24.0245 C   0  0  2  0  0  0  0  0  0  0  0  0
    9.0495  -15.2502   22.7713 N   0  0  0  0  0  0  0  0  0  0  0  0
    9.3437  -15.1819   25.0966 C   0  0  0  0  0  0  0  0  0  0  0  0
   10.2387  -16.0795   24.9176 O   0  0  0  0  0  0  0  0  0  0  0  0
    9.9159  -13.8711   28.6098 C   0  0  0  0  0  0  0  0  0  0  0  0
   10.0792  -14.8845   27.5120 C   0  0  2  0  0  0  0  0  0  0  0  0
    9.2505  -14.5887   26.3768 N   0  0  0  0  0  0  0  0  0  0  0  0
    9.9197  -16.2894   27.9917 C   0  0  0  0  0  0  0  0  0  0  0  0
   10.8560  -16.8231   28.8391 O   0  0  0  0  0  0  0  0  0  0  0  0
    8.9433  -16.9612   27.6233 O   0  0  0  0  0  0  0  0  0  0  0  0
  1  2  1  0
  2  4  1  0
  3  2  2  0
  4  5  1  0
  5  6  1  0
  6  8  1  0
  6  7  1  6
  8  9  2  0
 11 10  1  6
 11 12  1  0
 11 13  1  0
 13 15  1  0
 13 14  1  6
 14  8  1  0
 15 19  1  0
 15 16  2  0
 18 17  1  1
 18 20  1  0
 19 18  1  0
 20 22  2  0
 20 21  1  0
M  END
$$$$
