QTA.pdb
     RDKit          3D

 22 21  0  0  1  0  0  0  0  0999 V2000
   14.7887  -14.2928   21.5999 N   0  0  0  0  0  0  0  0  0  0  0  0
   14.7093  -15.3306   20.6124 C   0  0  0  0  0  0  0  0  0  0  0  0
   15.0781  -16.4675   20.9545 O   0  0  0  0  0  0  0  0  0  0  0  0
   14.2182  -15.0901   19.2549 C   0  0  0  0  0  0  0  0  0  0  0  0
   13.1349  -15.9917   18.7900 C   0  0  0  0  0  0  0  0  0  0  0  0
   12.0151  -15.2579   18.1137 C   0  0  2  0  0  0  0  0  0  0  0  0
   12.5331  -14.3983   17.0377 N   0  0  0  0  0  0  0  0  0  0  0  0
   11.3123  -14.3890   19.0984 C   0  0  0  0  0  0  0  0  0  0  0  0
   11.7946  -13.2992   19.4994 O   0  0  0  0  0  0  0  0  0  0  0  0
    7.8859  -13.1602   18.4781 C   0  0  0  0  0  0  0  0  0  0  0  0
    7.9021  -13.8934   19.7885 C   0  0  1  0  0  0  0  0  0  0  0  0
    7.6685  -15.2528   19.4510 O   0  0  0  0  0  0  0  0  0  0  0  0
    9.2544  -13.9037   20.4719 C   0  0  2  0  0  0  0  0  0  0  0  0
   10.0713  -14.7847   19.6046 N   0  0  0  0  0  0  0  0  0  0  0  0
    9.2558  -14.5551   21.7910 C   0  0  0  0  0  0  0  0  0  0  0  0
    9.8577  -15.6646   22.0047 O   0  0  0  0  0  0  0  0  0  0  0  0
    7.6564  -13.5874   25.1031 C   0  0  0  0  0  0  0  0  0  0  0  0
    8.4797  -14.4730   24.2106 C   0  0  2  0  0  0  0  0  0  0  0  0
    8.5767  -13.9530   22.8752 N   0  0  0  0  0  0  0  0  0  0  0  0
    8.0390  -15.8993   24.2431 C   0  0  0  0  0  0  0  0  0  0  0  0
    8.3924  -16.6902   25.3056 O   0  0  0  0  0  0  0  0  0  0  0  0
    7.3564  -16.3566   23.3129 O   0  0  0  0  0  0  0  0  0  0  0  0
  1  2  1  0
  2  4  1  0
  3  2  2  0
  4  5  1  0
  5  6  1  0
  6  8  1  0
  6  7  1  6
  8  9  2  0
 11 10  1  6
 11 12  1  0
 11 13  1  0
 13 15  1  0
 13 14  1  6
 14  8  1  0
 15 19  1  0
 15 16  2  0
 18 17  1  1
 18 20  1  0
 19 18  1  0
 20 22  2  0
 20 21  1  0
M  END
$$$$
