QTA.pdb
     RDKit          3D

 22 21  0  0  1  0  0  0  0  0999 V2000
    8.3653  -12.2009   18.8749 N   0  0  0  0  0  0  0  0  0  0  0  0
    8.7372  -13.4783   18.3378 C   0  0  0  0  0  0  0  0  0  0  0  0
    9.2037  -13.4943   17.1855 O   0  0  0  0  0  0  0  0  0  0  0  0
    8.5864  -14.7236   19.0916 C   0  0  0  0  0  0  0  0  0  0  0  0
    8.0095  -14.5898   20.4524 C   0  0  0  0  0  0  0  0  0  0  0  0
    7.7790  -15.9126   21.1211 C   0  0  2  0  0  0  0  0  0  0  0  0
    6.7590  -16.6886   20.3983 N   0  0  0  0  0  0  0  0  0  0  0  0
    7.2931  -15.6981   22.5126 C   0  0  0  0  0  0  0  0  0  0  0  0
    6.1785  -15.1728   22.7631 O   0  0  0  0  0  0  0  0  0  0  0  0
    6.1139  -17.9813   24.4052 C   0  0  0  0  0  0  0  0  0  0  0  0
    7.2134  -17.4616   25.2860 C   0  0  1  0  0  0  0  0  0  0  0  0
    8.3572  -18.2264   24.9349 O   0  0  0  0  0  0  0  0  0  0  0  0
    7.6144  -16.0305   24.9912 C   0  0  2  0  0  0  0  0  0  0  0  0
    8.0927  -16.0891   23.5899 N   0  0  0  0  0  0  0  0  0  0  0  0
    8.7683  -15.5571   25.7714 C   0  0  0  0  0  0  0  0  0  0  0  0
    9.9758  -15.7662   25.4012 O   0  0  0  0  0  0  0  0  0  0  0  0
    9.0702  -13.3098   28.7998 C   0  0  0  0  0  0  0  0  0  0  0  0
    9.5810  -14.3742   27.8699 C   0  0  2  0  0  0  0  0  0  0  0  0
    8.5608  -14.8434   26.9743 N   0  0  0  0  0  0  0  0  0  0  0  0
   10.2749  -15.4855   28.5862 C   0  0  0  0  0  0  0  0  0  0  0  0
   11.4732  -15.2435   29.2066 O   0  0  0  0  0  0  0  0  0  0  0  0
    9.7630  -16.6157   28.6169 O   0  0  0  0  0  0  0  0  0  0  0  0
  1  2  1  0
  2  4  1  0
  3  2  2  0
  4  5  1  0
  5  6  1  0
  6  8  1  0
  6  7  1  6
  8  9  2  0
 11 10  1  6
 11 12  1  0
 11 13  1  0
 13 15  1  0
 13 14  1  6
 14  8  1  0
 15 19  1  0
 15 16  2  0
 18 17  1  1
 18 20  1  0
 19 18  1  0
 20 22  2  0
 20 21  1  0
M  END
$$$$
