QTA.pdb
     RDKit          3D

 22 21  0  0  1  0  0  0  0  0999 V2000
    7.7626  -14.4858   16.7764 N   0  0  0  0  0  0  0  0  0  0  0  0
    8.6826  -13.6251   17.4630 C   0  0  0  0  0  0  0  0  0  0  0  0
    9.6856  -13.2493   16.8317 O   0  0  0  0  0  0  0  0  0  0  0  0
    8.4737  -13.1916   18.8450 C   0  0  0  0  0  0  0  0  0  0  0  0
    7.4343  -13.9304   19.6042 C   0  0  0  0  0  0  0  0  0  0  0  0
    7.9657  -15.1641   20.2717 C   0  0  2  0  0  0  0  0  0  0  0  0
    7.7344  -16.3494   19.4312 N   0  0  0  0  0  0  0  0  0  0  0  0
    7.2674  -15.3776   21.5698 C   0  0  0  0  0  0  0  0  0  0  0  0
    6.0176  -15.2980   21.6832 O   0  0  0  0  0  0  0  0  0  0  0  0
    7.2917  -17.8306   25.6848 C   0  0  0  0  0  0  0  0  0  0  0  0
    7.7003  -17.3719   24.3145 C   0  0  1  0  0  0  0  0  0  0  0  0
    6.8679  -18.0974   23.4215 O   0  0  0  0  0  0  0  0  0  0  0  0
    7.3788  -15.9189   24.0299 C   0  0  2  0  0  0  0  0  0  0  0  0
    8.0134  -15.6778   22.7127 N   0  0  0  0  0  0  0  0  0  0  0  0
    8.0267  -14.9693   24.9479 C   0  0  0  0  0  0  0  0  0  0  0  0
    9.2963  -14.8080   24.9802 O   0  0  0  0  0  0  0  0  0  0  0  0
    6.6730  -12.3039   27.2614 C   0  0  0  0  0  0  0  0  0  0  0  0
    7.7303  -13.2775   26.8223 C   0  0  2  0  0  0  0  0  0  0  0  0
    7.2403  -14.1968   25.8334 N   0  0  0  0  0  0  0  0  0  0  0  0
    8.3972  -13.9648   27.9679 C   0  0  0  0  0  0  0  0  0  0  0  0
    8.2820  -15.3246   28.0982 O   0  0  0  0  0  0  0  0  0  0  0  0
    9.0508  -13.3032   28.7899 O   0  0  0  0  0  0  0  0  0  0  0  0
  1  2  1  0
  2  4  1  0
  3  2  2  0
  4  5  1  0
  5  6  1  0
  6  8  1  0
  6  7  1  6
  8  9  2  0
 11 10  1  1
 11 12  1  0
 11 13  1  0
 13 15  1  0
 13 14  1  6
 14  8  1  0
 15 19  1  0
 15 16  2  0
 18 17  1  1
 18 20  1  0
 19 18  1  0
 20 22  2  0
 20 21  1  0
M  END
$$$$
