KRR.pdb
     RDKit          3D

 32 31  0  0  1  0  0  0  0  0999 V2000
   27.0759  -17.4583  -16.5856 N   0  0  0  0  0  0  0  0  0  0  0  0
   26.5690  -18.7560  -16.9863 C   0  0  1  0  0  0  0  0  0  0  0  0
   27.5549  -19.4863  -17.8753 C   0  0  0  0  0  0  0  0  0  0  0  0
   28.2996  -18.5321  -18.7789 C   0  0  0  0  0  0  0  0  0  0  0  0
   29.7136  -18.9316  -19.0171 C   0  0  0  0  0  0  0  0  0  0  0  0
   30.6562  -17.7606  -19.1299 C   0  0  0  0  0  0  0  0  0  0  0  0
   30.8724  -17.3530  -20.4987 N   0  0  0  0  0  0  0  0  0  0  0  0
   26.1866  -19.5562  -15.7934 C   0  0  0  0  0  0  0  0  0  0  0  0
   25.7256  -20.7368  -15.9828 O   0  0  0  0  0  0  0  0  0  0  0  0
   30.5839  -21.7117   -8.7676 N   0  0  0  0  0  0  0  0  0  0  0  0
   29.6468  -21.8401   -9.8370 C   0  0  0  0  0  0  0  0  0  0  0  0
   29.8409  -22.8098  -10.6712 N   0  0  0  0  0  0  0  0  0  0  0  0
   28.5493  -20.9599  -10.0034 N   0  0  0  0  0  0  0  0  0  0  0  0
   27.4296  -21.4129  -10.7972 C   0  0  0  0  0  0  0  0  0  0  0  0
   26.3626  -20.3264  -10.9611 C   0  0  0  0  0  0  0  0  0  0  0  0
   26.7174  -19.4292  -12.1135 C   0  0  0  0  0  0  0  0  0  0  0  0
   25.8794  -19.7619  -13.3026 C   0  0  2  0  0  0  0  0  0  0  0  0
   26.3265  -19.0384  -14.4863 N   0  0  0  0  0  0  0  0  0  0  0  0
   24.4390  -19.5831  -13.1617 C   0  0  0  0  0  0  0  0  0  0  0  0
   23.7526  -18.7072  -13.7518 O   0  0  0  0  0  0  0  0  0  0  0  0
   29.1735  -22.9551  -11.4792 N   0  0  0  0  0  0  0  0  0  0  0  0
   16.9654  -22.2009  -14.6687 C   0  0  0  0  0  0  0  0  0  0  0  0
   17.2861  -20.9401  -15.2461 N   0  0  0  0  0  0  0  0  0  0  0  0
   16.3405  -20.1545  -15.5984 N   0  0  0  0  0  0  0  0  0  0  0  0
   18.6510  -20.5608  -15.4239 C   0  0  0  0  0  0  0  0  0  0  0  0
   19.7113  -21.4617  -15.0372 C   0  0  0  0  0  0  0  0  0  0  0  0
   20.2033  -20.9792  -13.6497 C   0  0  0  0  0  0  0  0  0  0  0  0
   21.6984  -20.8186  -13.6698 C   0  0  1  0  0  0  0  0  0  0  0  0
   22.2192  -20.4853  -12.3265 N   0  0  0  0  0  0  0  0  0  0  0  0
   23.6799  -20.4374  -12.2993 C   0  0  0  0  0  0  0  0  0  0  0  0
   21.7155  -21.3538  -11.2457 O   0  0  0  0  0  0  0  0  0  0  0  0
   20.4627  -21.0708  -10.6700 O   0  0  0  0  0  0  0  0  0  0  0  0
  2  1  1  1
  3  2  1  0
  4  3  1  0
  5  4  1  0
  6  7  1  0
  6  5  1  0
  8  9  2  0
  8  2  1  0
 11 10  1  0
 12 11  2  0
 13 11  1  0
 14 13  1  0
 15 14  1  0
 15 16  1  0
 17 16  1  1
 17 18  1  0
 18  8  1  0
 19 17  1  0
 19 20  2  0
 22 21  1  0
 23 22  2  0
 24 22  1  0
 25 24  1  0
 26 27  1  0
 26 25  1  0
 28 27  1  6
 29 28  1  0
 29 19  1  0
 30 28  1  0
 31 30  1  0
 32 30  2  0
M  END
$$$$
