KRR.pdb
     RDKit          3D

 32 31  0  0  1  0  0  0  0  0999 V2000
   23.3010  -26.4235  -14.5488 N   0  0  0  0  0  0  0  0  0  0  0  0
   23.2380  -25.1263  -15.1928 C   0  0  1  0  0  0  0  0  0  0  0  0
   24.3449  -24.9595  -16.2139 C   0  0  0  0  0  0  0  0  0  0  0  0
   25.5504  -25.8013  -15.8678 C   0  0  0  0  0  0  0  0  0  0  0  0
   26.7579  -25.4539  -16.6658 C   0  0  0  0  0  0  0  0  0  0  0  0
   27.9329  -26.3601  -16.4001 C   0  0  0  0  0  0  0  0  0  0  0  0
   29.1097  -25.9741  -17.1434 N   0  0  0  0  0  0  0  0  0  0  0  0
   21.8913  -24.9021  -15.7807 C   0  0  0  0  0  0  0  0  0  0  0  0
   21.3959  -25.8241  -16.5201 O   0  0  0  0  0  0  0  0  0  0  0  0
   15.6575  -21.6318  -11.3220 N   0  0  0  0  0  0  0  0  0  0  0  0
   16.0277  -23.0087  -11.2496 C   0  0  0  0  0  0  0  0  0  0  0  0
   15.4444  -23.7241  -10.3430 N   0  0  0  0  0  0  0  0  0  0  0  0
   16.9876  -23.5902  -12.1142 N   0  0  0  0  0  0  0  0  0  0  0  0
   17.5376  -22.7691  -13.1689 C   0  0  0  0  0  0  0  0  0  0  0  0
   18.4941  -23.5546  -14.0710 C   0  0  0  0  0  0  0  0  0  0  0  0
   18.9980  -22.6704  -15.1769 C   0  0  0  0  0  0  0  0  0  0  0  0
   19.8583  -23.4536  -16.1116 C   0  0  2  0  0  0  0  0  0  0  0  0
   21.1715  -23.7115  -15.5344 N   0  0  0  0  0  0  0  0  0  0  0  0
   20.0358  -22.9094  -17.4528 C   0  0  0  0  0  0  0  0  0  0  0  0
   21.1236  -22.4919  -17.9314 O   0  0  0  0  0  0  0  0  0  0  0  0
   15.6608  -24.7566  -10.2626 N   0  0  0  0  0  0  0  0  0  0  0  0
   24.1826  -21.6716  -22.5253 C   0  0  0  0  0  0  0  0  0  0  0  0
   23.8348  -23.0486  -22.4301 N   0  0  0  0  0  0  0  0  0  0  0  0
   24.7287  -23.9364  -22.6494 N   0  0  0  0  0  0  0  0  0  0  0  0
   22.5012  -23.4279  -22.0892 C   0  0  0  0  0  0  0  0  0  0  0  0
   21.4133  -22.4947  -22.2656 C   0  0  0  0  0  0  0  0  0  0  0  0
   20.1202  -23.2646  -21.8980 C   0  0  0  0  0  0  0  0  0  0  0  0
   20.0591  -23.4712  -20.4097 C   0  0  1  0  0  0  0  0  0  0  0  0
   19.0918  -22.5466  -19.7801 N   0  0  0  0  0  0  0  0  0  0  0  0
   18.9261  -22.8126  -18.3524 C   0  0  0  0  0  0  0  0  0  0  0  0
   17.7769  -22.4948  -20.4469 O   0  0  0  0  0  0  0  0  0  0  0  0
   17.4314  -21.3488  -21.1875 O   0  0  0  0  0  0  0  0  0  0  0  0
  2  1  1  6
  3  2  1  0
  4  3  1  0
  5  4  1  0
  6  7  1  0
  6  5  1  0
  8  9  2  0
  8  2  1  0
 11 10  1  0
 12 11  2  0
 13 11  1  0
 14 13  1  0
 15 14  1  0
 15 16  1  0
 17 16  1  1
 17 18  1  0
 18  8  1  0
 19 17  1  0
 19 20  2  0
 22 21  1  0
 23 22  2  0
 24 22  1  0
 25 24  1  0
 26 27  1  0
 26 25  1  0
 28 27  1  1
 29 28  1  0
 29 19  1  0
 30 28  1  0
 31 30  1  0
 32 30  2  0
M  END
$$$$
