KRR.pdb
     RDKit          3D

 32 31  0  0  1  0  0  0  0  0999 V2000
   27.0865  -22.2115  -17.3449 N   0  0  0  0  0  0  0  0  0  0  0  0
   27.1848  -21.0073  -16.5440 C   0  0  1  0  0  0  0  0  0  0  0  0
   26.1132  -20.0035  -16.9177 C   0  0  0  0  0  0  0  0  0  0  0  0
   25.5081  -20.3141  -18.2664 C   0  0  0  0  0  0  0  0  0  0  0  0
   24.5349  -19.2852  -18.7245 C   0  0  0  0  0  0  0  0  0  0  0  0
   23.8763  -19.6255  -20.0370 C   0  0  0  0  0  0  0  0  0  0  0  0
   22.9397  -18.6131  -20.4661 N   0  0  0  0  0  0  0  0  0  0  0  0
   27.1620  -21.3423  -15.0960 C   0  0  0  0  0  0  0  0  0  0  0  0
   26.3564  -22.2578  -14.7022 O   0  0  0  0  0  0  0  0  0  0  0  0
   32.3256  -22.9787   -8.6271 N   0  0  0  0  0  0  0  0  0  0  0  0
   32.4262  -22.8709  -10.0471 C   0  0  0  0  0  0  0  0  0  0  0  0
   33.1992  -23.7192  -10.6445 N   0  0  0  0  0  0  0  0  0  0  0  0
   31.7272  -21.8896  -10.7922 N   0  0  0  0  0  0  0  0  0  0  0  0
   30.7308  -21.0981  -10.1066 C   0  0  0  0  0  0  0  0  0  0  0  0
   29.3359  -21.2769  -10.7131 C   0  0  0  0  0  0  0  0  0  0  0  0
   29.3761  -20.9834  -12.1866 C   0  0  0  0  0  0  0  0  0  0  0  0
   27.9935  -20.9728  -12.7480 C   0  0  2  0  0  0  0  0  0  0  0  0
   28.0023  -20.6772  -14.1752 N   0  0  0  0  0  0  0  0  0  0  0  0
   27.0264  -20.0982  -12.0953 C   0  0  0  0  0  0  0  0  0  0  0  0
   26.8170  -18.8925  -12.3938 O   0  0  0  0  0  0  0  0  0  0  0  0
   33.3342  -23.6661  -11.6924 N   0  0  0  0  0  0  0  0  0  0  0  0
   20.0671  -21.9410  -15.4344 C   0  0  0  0  0  0  0  0  0  0  0  0
   19.6307  -21.1113  -14.3633 N   0  0  0  0  0  0  0  0  0  0  0  0
   18.4111  -20.7285  -14.3254 N   0  0  0  0  0  0  0  0  0  0  0  0
   20.5487  -20.7173  -13.3434 C   0  0  0  0  0  0  0  0  0  0  0  0
   21.9476  -21.0581  -13.4544 C   0  0  0  0  0  0  0  0  0  0  0  0
   22.6150  -20.5758  -12.1421 C   0  0  0  0  0  0  0  0  0  0  0  0
   24.0982  -20.8142  -12.2105 C   0  0  2  0  0  0  0  0  0  0  0  0
   24.7692  -20.3728  -10.9688 N   0  0  0  0  0  0  0  0  0  0  0  0
   26.2147  -20.5834  -11.0202 C   0  0  0  0  0  0  0  0  0  0  0  0
   24.2106  -20.9567   -9.7346 O   0  0  0  0  0  0  0  0  0  0  0  0
   23.0417  -20.3990   -9.1835 O   0  0  0  0  0  0  0  0  0  0  0  0
  2  1  1  6
  3  2  1  0
  4  3  1  0
  5  4  1  0
  6  7  1  0
  6  5  1  0
  8  9  2  0
  8  2  1  0
 11 10  1  0
 12 11  2  0
 13 11  1  0
 14 13  1  0
 15 14  1  0
 15 16  1  0
 17 16  1  1
 17 18  1  0
 18  8  1  0
 19 17  1  0
 19 20  2  0
 22 21  1  0
 23 22  2  0
 24 22  1  0
 25 24  1  0
 26 27  1  0
 26 25  1  0
 28 27  1  6
 29 28  1  0
 29 19  1  0
 30 28  1  0
 31 30  1  0
 32 30  2  0
M  END
$$$$
