KRR.pdb
     RDKit          3D

 32 31  0  0  1  0  0  0  0  0999 V2000
   18.3517  -21.4275  -11.1207 N   0  0  0  0  0  0  0  0  0  0  0  0
   18.5058  -22.1502  -12.3678 C   0  0  1  0  0  0  0  0  0  0  0  0
   17.2449  -22.9088  -12.7288 C   0  0  0  0  0  0  0  0  0  0  0  0
   16.8693  -23.9034  -11.6558 C   0  0  0  0  0  0  0  0  0  0  0  0
   18.0472  -24.5569  -11.0226 C   0  0  0  0  0  0  0  0  0  0  0  0
   17.6758  -25.5955   -9.9951 C   0  0  0  0  0  0  0  0  0  0  0  0
   18.8268  -26.1255   -9.3016 N   0  0  0  0  0  0  0  0  0  0  0  0
   18.9394  -21.2305  -13.4520 C   0  0  0  0  0  0  0  0  0  0  0  0
   19.0883  -21.7149  -14.6291 O   0  0  0  0  0  0  0  0  0  0  0  0
   17.0563  -15.0756  -15.9175 N   0  0  0  0  0  0  0  0  0  0  0  0
   17.1475  -14.9218  -14.5011 C   0  0  0  0  0  0  0  0  0  0  0  0
   16.0504  -14.6522  -13.8704 N   0  0  0  0  0  0  0  0  0  0  0  0
   18.3683  -15.0494  -13.7938 N   0  0  0  0  0  0  0  0  0  0  0  0
   19.5899  -15.1491  -14.5599 C   0  0  0  0  0  0  0  0  0  0  0  0
   19.9341  -16.6001  -14.9090 C   0  0  0  0  0  0  0  0  0  0  0  0
   19.3828  -17.5244  -13.8598 C   0  0  0  0  0  0  0  0  0  0  0  0
   19.6525  -18.9444  -14.2307 C   0  0  2  0  0  0  0  0  0  0  0  0
   19.1800  -19.8611  -13.2008 N   0  0  0  0  0  0  0  0  0  0  0  0
   21.0305  -19.2858  -14.5639 C   0  0  0  0  0  0  0  0  0  0  0  0
   22.0409  -18.9964  -13.8696 O   0  0  0  0  0  0  0  0  0  0  0  0
   16.0416  -14.6196  -12.8130 N   0  0  0  0  0  0  0  0  0  0  0  0
   25.4970  -25.0187  -14.9360 C   0  0  0  0  0  0  0  0  0  0  0  0
   26.3538  -24.4529  -15.9218 N   0  0  0  0  0  0  0  0  0  0  0  0
   26.9990  -25.2272  -16.7089 N   0  0  0  0  0  0  0  0  0  0  0  0
   26.4842  -23.0351  -16.0280 C   0  0  0  0  0  0  0  0  0  0  0  0
   25.6510  -22.1674  -15.2290 C   0  0  0  0  0  0  0  0  0  0  0  0
   24.2210  -22.2839  -15.8131 C   0  0  0  0  0  0  0  0  0  0  0  0
   23.3176  -21.2842  -15.1452 C   0  0  1  0  0  0  0  0  0  0  0  0
   22.6967  -20.3783  -16.1354 N   0  0  0  0  0  0  0  0  0  0  0  0
   21.3326  -20.0082  -15.7626 C   0  0  0  0  0  0  0  0  0  0  0  0
   22.7301  -20.8784  -17.5228 O   0  0  0  0  0  0  0  0  0  0  0  0
   21.5538  -20.8314  -18.2943 O   0  0  0  0  0  0  0  0  0  0  0  0
  2  1  1  1
  3  2  1  0
  4  3  1  0
  5  4  1  0
  6  7  1  0
  6  5  1  0
  8  9  2  0
  8  2  1  0
 11 10  1  0
 12 11  2  0
 13 11  1  0
 14 13  1  0
 15 14  1  0
 15 16  1  0
 17 16  1  1
 17 18  1  0
 18  8  1  0
 19 17  1  0
 19 20  2  0
 22 21  1  0
 23 22  2  0
 24 22  1  0
 25 24  1  0
 26 27  1  0
 26 25  1  0
 28 27  1  1
 29 28  1  0
 29 19  1  0
 30 28  1  0
 31 30  1  0
 32 30  2  0
M  END
$$$$
