KRR.pdb
     RDKit          3D

 32 31  0  0  1  0  0  0  0  0999 V2000
   17.8583  -24.5179   -9.4921 N   0  0  0  0  0  0  0  0  0  0  0  0
   18.6953  -24.6990  -10.6617 C   0  0  1  0  0  0  0  0  0  0  0  0
   18.2601  -25.9014  -11.4745 C   0  0  0  0  0  0  0  0  0  0  0  0
   18.6266  -27.1966  -10.7890 C   0  0  0  0  0  0  0  0  0  0  0  0
   18.3982  -28.3964  -11.6399 C   0  0  0  0  0  0  0  0  0  0  0  0
   18.8354  -29.6842  -10.9896 C   0  0  0  0  0  0  0  0  0  0  0  0
   18.6962  -30.8232  -11.8669 N   0  0  0  0  0  0  0  0  0  0  0  0
   18.7318  -23.4543  -11.4733 C   0  0  0  0  0  0  0  0  0  0  0  0
   17.7760  -22.6130  -11.3289 O   0  0  0  0  0  0  0  0  0  0  0  0
   24.7742  -24.8134  -14.2037 N   0  0  0  0  0  0  0  0  0  0  0  0
   24.1798  -24.8399  -15.5015 C   0  0  0  0  0  0  0  0  0  0  0  0
   24.3080  -25.9334  -16.1811 N   0  0  0  0  0  0  0  0  0  0  0  0
   23.4800  -23.7351  -16.0461 N   0  0  0  0  0  0  0  0  0  0  0  0
   23.0459  -22.6937  -15.1427 C   0  0  0  0  0  0  0  0  0  0  0  0
   21.6066  -22.9084  -14.6652 C   0  0  0  0  0  0  0  0  0  0  0  0
   21.1883  -21.7743  -13.7719 C   0  0  0  0  0  0  0  0  0  0  0  0
   19.8178  -22.0197  -13.2349 C   0  0  2  0  0  0  0  0  0  0  0  0
   19.7868  -23.1979  -12.3774 N   0  0  0  0  0  0  0  0  0  0  0  0
   18.7390  -22.1230  -14.2105 C   0  0  0  0  0  0  0  0  0  0  0  0
   18.3202  -23.1949  -14.7227 O   0  0  0  0  0  0  0  0  0  0  0  0
   23.9419  -25.9871  -17.1722 N   0  0  0  0  0  0  0  0  0  0  0  0
   19.2778  -16.2327  -19.2053 C   0  0  0  0  0  0  0  0  0  0  0  0
   19.5336  -17.5958  -18.8850 N   0  0  0  0  0  0  0  0  0  0  0  0
   20.4805  -18.2123  -19.4839 N   0  0  0  0  0  0  0  0  0  0  0  0
   18.7403  -18.2610  -17.9018 C   0  0  0  0  0  0  0  0  0  0  0  0
   17.6336  -17.5755  -17.2765 C   0  0  0  0  0  0  0  0  0  0  0  0
   16.9530  -18.6119  -16.3478 C   0  0  0  0  0  0  0  0  0  0  0  0
   17.3147  -20.0031  -16.7898 C   0  0  2  0  0  0  0  0  0  0  0  0
   17.0448  -20.9909  -15.7229 N   0  0  0  0  0  0  0  0  0  0  0  0
   18.0557  -20.9509  -14.6679 C   0  0  0  0  0  0  0  0  0  0  0  0
   16.8629  -22.3731  -16.2052 O   0  0  0  0  0  0  0  0  0  0  0  0
   15.5621  -22.8351  -16.4795 O   0  0  0  0  0  0  0  0  0  0  0  0
  2  1  1  1
  3  2  1  0
  4  3  1  0
  5  4  1  0
  6  7  1  0
  6  5  1  0
  8  9  2  0
  8  2  1  0
 11 10  1  0
 12 11  2  0
 13 11  1  0
 14 13  1  0
 15 14  1  0
 15 16  1  0
 17 16  1  6
 17 18  1  0
 18  8  1  0
 19 17  1  0
 19 20  2  0
 22 21  1  0
 23 22  2  0
 24 22  1  0
 25 24  1  0
 26 27  1  0
 26 25  1  0
 28 27  1  1
 29 28  1  0
 29 19  1  0
 30 28  1  0
 31 30  1  0
 32 30  2  0
M  END
$$$$
