IYY.pdb
     RDKit          3D

 33 34  0  0  1  0  0  0  0  0999 V2000
    8.0138  -13.7537   21.7309 C   0  0  0  0  0  0  0  0  0  0  0  0
    8.4129  -14.5787   20.5362 C   0  0  0  0  0  0  0  0  0  0  0  0
    8.4833  -13.7804   19.2646 C   0  0  2  0  0  0  0  0  0  0  0  0
    7.2314  -13.0244   18.9656 C   0  0  0  0  0  0  0  0  0  0  0  0
    8.9443  -14.6001   18.0894 C   0  0  2  0  0  0  0  0  0  0  0  0
    8.0487  -15.6746   17.7701 N   0  0  0  0  0  0  0  0  0  0  0  0
   10.3094  -15.1441   18.3480 C   0  0  0  0  0  0  0  0  0  0  0  0
   10.5606  -16.3746   18.2315 O   0  0  0  0  0  0  0  0  0  0  0  0
   18.9129  -15.7893   17.3316 O   0  0  0  0  0  0  0  0  0  0  0  0
   17.6293  -15.2733   17.5927 C   0  0  0  0  0  0  0  0  0  0  0  0
   17.4503  -14.1206   18.3192 C   0  0  0  0  0  0  0  0  0  0  0  0
   16.2127  -13.6028   18.5837 C   0  0  0  0  0  0  0  0  0  0  0  0
   15.0784  -14.2633   18.1013 C   0  0  0  0  0  0  0  0  0  0  0  0
   13.7396  -13.7427   18.3722 C   0  0  0  0  0  0  0  0  0  0  0  0
   12.7561  -14.8234   18.7023 C   0  0  2  0  0  0  0  0  0  0  0  0
   11.3849  -14.2981   18.7370 N   0  0  0  0  0  0  0  0  0  0  0  0
   12.9878  -15.5597   19.9329 C   0  0  0  0  0  0  0  0  0  0  0  0
   14.1097  -16.0661   20.1625 O   0  0  0  0  0  0  0  0  0  0  0  0
   15.2352  -15.4176   17.3726 C   0  0  0  0  0  0  0  0  0  0  0  0
   16.5017  -15.9058   17.1285 C   0  0  0  0  0  0  0  0  0  0  0  0
   18.5401  -16.0565   22.1051 O   0  0  0  0  0  0  0  0  0  0  0  0
   17.1769  -15.8455   22.3077 C   0  0  0  0  0  0  0  0  0  0  0  0
   16.5889  -14.6863   21.8685 C   0  0  0  0  0  0  0  0  0  0  0  0
   15.2199  -14.4813   22.0754 C   0  0  0  0  0  0  0  0  0  0  0  0
   14.4512  -15.4200   22.7111 C   0  0  0  0  0  0  0  0  0  0  0  0
   13.0219  -15.2118   22.9328 C   0  0  0  0  0  0  0  0  0  0  0  0
   12.1761  -16.2435   22.2180 C   0  0  2  0  0  0  0  0  0  0  0  0
   11.9606  -15.7157   20.8834 N   0  0  0  0  0  0  0  0  0  0  0  0
   10.8824  -16.5051   22.8625 C   0  0  0  0  0  0  0  0  0  0  0  0
    9.6781  -16.3191   22.1996 O   0  0  0  0  0  0  0  0  0  0  0  0
   15.0489  -16.5729   23.1449 C   0  0  0  0  0  0  0  0  0  0  0  0
   16.4129  -16.8012   22.9507 C   0  0  0  0  0  0  0  0  0  0  0  0
   10.8193  -16.9132   24.0575 O   0  0  0  0  0  0  0  0  0  0  0  0
  2  1  1  0
  3  2  1  0
  3  4  1  6
  5  3  1  0
  5  6  1  1
  7  5  1  0
  8  7  2  0
  9 10  1  0
 10 11  2  0
 10 20  1  0
 11 12  1  0
 12 13  2  0
 13 14  1  0
 15 14  1  1
 15 16  1  0
 16  7  1  0
 17 15  1  0
 17 28  1  0
 18 17  2  0
 19 13  1  0
 20 19  2  0
 21 22  1  0
 22 32  2  0
 23 24  2  0
 23 22  1  0
 24 25  1  0
 25 26  1  0
 25 31  2  0
 27 29  1  0
 27 28  1  0
 27 26  1  1
 29 30  1  0
 32 31  1  0
 33 29  2  0
M  END
$$$$
