IYY.pdb
     RDKit          3D

 33 34  0  0  1  0  0  0  0  0999 V2000
    5.8478  -21.7593   22.9926 C   0  0  0  0  0  0  0  0  0  0  0  0
    6.0075  -20.6787   21.9563 C   0  0  0  0  0  0  0  0  0  0  0  0
    7.0297  -19.6439   22.3354 C   0  0  2  0  0  0  0  0  0  0  0  0
    6.8102  -19.0579   23.6905 C   0  0  0  0  0  0  0  0  0  0  0  0
    7.2010  -18.5837   21.2808 C   0  0  2  0  0  0  0  0  0  0  0  0
    7.4397  -19.1265   19.9743 N   0  0  0  0  0  0  0  0  0  0  0  0
    8.3157  -17.6648   21.6542 C   0  0  0  0  0  0  0  0  0  0  0  0
    9.5219  -17.9851   21.4719 O   0  0  0  0  0  0  0  0  0  0  0  0
    7.6189  -13.9044   16.5114 O   0  0  0  0  0  0  0  0  0  0  0  0
    7.9309  -13.9502   17.8835 C   0  0  0  0  0  0  0  0  0  0  0  0
    7.1649  -13.2967   18.8187 C   0  0  0  0  0  0  0  0  0  0  0  0
    7.4505  -13.3285   20.1555 C   0  0  0  0  0  0  0  0  0  0  0  0
    8.5626  -14.0509   20.5996 C   0  0  0  0  0  0  0  0  0  0  0  0
    8.9023  -14.0998   22.0204 C   0  0  0  0  0  0  0  0  0  0  0  0
    9.1958  -15.4897   22.4962 C   0  0  2  0  0  0  0  0  0  0  0  0
    8.0651  -16.3890   22.2317 N   0  0  0  0  0  0  0  0  0  0  0  0
    9.5689  -15.6337   23.8927 C   0  0  0  0  0  0  0  0  0  0  0  0
   10.7139  -15.3024   24.2764 O   0  0  0  0  0  0  0  0  0  0  0  0
    9.3419  -14.7116   19.6808 C   0  0  0  0  0  0  0  0  0  0  0  0
    9.0184  -14.6535   18.3414 C   0  0  0  0  0  0  0  0  0  0  0  0
    6.2011  -10.4355   26.4118 O   0  0  0  0  0  0  0  0  0  0  0  0
    6.5501  -11.7791   26.5416 C   0  0  0  0  0  0  0  0  0  0  0  0
    7.8355  -12.1256   26.8732 C   0  0  0  0  0  0  0  0  0  0  0  0
    8.1785  -13.4764   27.0017 C   0  0  0  0  0  0  0  0  0  0  0  0
    7.2515  -14.4649   26.8019 C   0  0  0  0  0  0  0  0  0  0  0  0
    7.6030  -15.8773   26.9318 C   0  0  0  0  0  0  0  0  0  0  0  0
    8.9191  -16.2033   26.2594 C   0  0  2  0  0  0  0  0  0  0  0  0
    8.6547  -16.1453   24.8336 N   0  0  0  0  0  0  0  0  0  0  0  0
    9.4578  -17.5240   26.6104 C   0  0  0  0  0  0  0  0  0  0  0  0
    9.9062  -17.8206   27.8892 O   0  0  0  0  0  0  0  0  0  0  0  0
    5.9719  -14.1071   26.4714 C   0  0  0  0  0  0  0  0  0  0  0  0
    5.6045  -12.7664   26.3372 C   0  0  0  0  0  0  0  0  0  0  0  0
    9.5334  -18.4475   25.7502 O   0  0  0  0  0  0  0  0  0  0  0  0
  2  1  1  0
  3  2  1  0
  3  4  1  1
  5  3  1  0
  5  6  1  6
  7  5  1  0
  8  7  2  0
  9 10  1  0
 10 11  2  0
 10 20  1  0
 11 12  1  0
 12 13  2  0
 13 14  1  0
 15 14  1  1
 15 16  1  0
 16  7  1  0
 17 15  1  0
 17 28  1  0
 18 17  2  0
 19 13  1  0
 20 19  2  0
 21 22  1  0
 22 32  2  0
 23 24  2  0
 23 22  1  0
 24 25  1  0
 25 26  1  0
 25 31  2  0
 27 29  1  0
 27 28  1  0
 27 26  1  1
 29 30  1  0
 32 31  1  0
 33 29  2  0
M  END
$$$$
