IYY.pdb
     RDKit          3D

 33 34  0  0  1  0  0  0  0  0999 V2000
    3.8464  -20.3069   23.1446 C   0  0  0  0  0  0  0  0  0  0  0  0
    4.2308  -19.5423   21.9057 C   0  0  0  0  0  0  0  0  0  0  0  0
    5.3842  -18.6038   22.1255 C   0  0  2  0  0  0  0  0  0  0  0  0
    5.1563  -17.6287   23.2324 C   0  0  0  0  0  0  0  0  0  0  0  0
    5.8315  -17.9270   20.8576 C   0  0  2  0  0  0  0  0  0  0  0  0
    6.0535  -18.8475   19.7796 N   0  0  0  0  0  0  0  0  0  0  0  0
    7.0730  -17.1383   21.1083 C   0  0  0  0  0  0  0  0  0  0  0  0
    8.1998  -17.6969   21.2035 O   0  0  0  0  0  0  0  0  0  0  0  0
    7.7415  -13.9364   15.2430 O   0  0  0  0  0  0  0  0  0  0  0  0
    7.8817  -13.8711   16.6423 C   0  0  0  0  0  0  0  0  0  0  0  0
    8.5479  -14.8455   17.3459 C   0  0  0  0  0  0  0  0  0  0  0  0
    8.6953  -14.8009   18.7046 C   0  0  0  0  0  0  0  0  0  0  0  0
    8.1510  -13.7269   19.4159 C   0  0  0  0  0  0  0  0  0  0  0  0
    8.2823  -13.6512   20.8698 C   0  0  0  0  0  0  0  0  0  0  0  0
    8.2884  -15.0009   21.5197 C   0  0  2  0  0  0  0  0  0  0  0  0
    7.0381  -15.7232   21.2506 N   0  0  0  0  0  0  0  0  0  0  0  0
    8.5272  -15.0317   22.9523 C   0  0  0  0  0  0  0  0  0  0  0  0
    7.7796  -14.3954   23.7295 O   0  0  0  0  0  0  0  0  0  0  0  0
    7.4808  -12.7418   18.7316 C   0  0  0  0  0  0  0  0  0  0  0  0
    7.3550  -12.8254   17.3607 C   0  0  0  0  0  0  0  0  0  0  0  0
   10.6168  -15.2792   31.1580 O   0  0  0  0  0  0  0  0  0  0  0  0
   10.2165  -15.4027   29.8281 C   0  0  0  0  0  0  0  0  0  0  0  0
   10.1275  -16.6439   29.2504 C   0  0  0  0  0  0  0  0  0  0  0  0
    9.7250  -16.7601   27.9150 C   0  0  0  0  0  0  0  0  0  0  0  0
    9.4166  -15.6535   27.1691 C   0  0  0  0  0  0  0  0  0  0  0  0
    8.9982  -15.7669   25.7736 C   0  0  0  0  0  0  0  0  0  0  0  0
   10.1465  -15.5467   24.8126 C   0  0  2  0  0  0  0  0  0  0  0  0
    9.5973  -15.7735   23.4885 N   0  0  0  0  0  0  0  0  0  0  0  0
   11.2905  -16.4409   25.0346 C   0  0  0  0  0  0  0  0  0  0  0  0
   11.2840  -17.7633   24.6154 O   0  0  0  0  0  0  0  0  0  0  0  0
    9.5091  -14.4200   27.7563 C   0  0  0  0  0  0  0  0  0  0  0  0
    9.9082  -14.2774   29.0870 C   0  0  0  0  0  0  0  0  0  0  0  0
   12.3329  -16.0332   25.6223 O   0  0  0  0  0  0  0  0  0  0  0  0
  2  1  1  0
  3  2  1  0
  3  4  1  1
  5  3  1  0
  5  6  1  6
  7  5  1  0
  8  7  2  0
  9 10  1  0
 10 11  2  0
 10 20  1  0
 11 12  1  0
 12 13  2  0
 13 14  1  0
 15 14  1  1
 15 16  1  0
 16  7  1  0
 17 15  1  0
 17 28  1  0
 18 17  2  0
 19 13  1  0
 20 19  2  0
 21 22  1  0
 22 32  2  0
 23 24  2  0
 23 22  1  0
 24 25  1  0
 25 26  1  0
 25 31  2  0
 27 29  1  0
 27 28  1  0
 27 26  1  1
 29 30  1  0
 32 31  1  0
 33 29  2  0
M  END
$$$$
