IYY.pdb
     RDKit          3D

 33 34  0  0  1  0  0  0  0  0999 V2000
    6.9420  -11.4314   19.0372 C   0  0  0  0  0  0  0  0  0  0  0  0
    8.0417  -12.3419   18.5587 C   0  0  0  0  0  0  0  0  0  0  0  0
    8.3692  -13.4360   19.5360 C   0  0  2  0  0  0  0  0  0  0  0  0
    8.7014  -12.9348   20.9023 C   0  0  0  0  0  0  0  0  0  0  0  0
    9.4109  -14.3884   19.0133 C   0  0  2  0  0  0  0  0  0  0  0  0
    9.0683  -14.9484   17.7375 N   0  0  0  0  0  0  0  0  0  0  0  0
    9.6420  -15.4857   19.9977 C   0  0  0  0  0  0  0  0  0  0  0  0
    8.9717  -16.5536   19.9625 O   0  0  0  0  0  0  0  0  0  0  0  0
   15.5376  -13.8843   18.3877 O   0  0  0  0  0  0  0  0  0  0  0  0
   14.7077  -14.6989   19.1812 C   0  0  0  0  0  0  0  0  0  0  0  0
   14.7825  -14.6838   20.5533 C   0  0  0  0  0  0  0  0  0  0  0  0
   13.9857  -15.4667   21.3419 C   0  0  0  0  0  0  0  0  0  0  0  0
   13.0552  -16.3196   20.7397 C   0  0  0  0  0  0  0  0  0  0  0  0
   12.1932  -17.1766   21.5517 C   0  0  0  0  0  0  0  0  0  0  0  0
   10.8869  -16.5261   21.8904 C   0  0  2  0  0  0  0  0  0  0  0  0
   10.6277  -15.3738   21.0173 N   0  0  0  0  0  0  0  0  0  0  0  0
   10.7122  -16.0966   23.2671 C   0  0  0  0  0  0  0  0  0  0  0  0
   11.3010  -15.0748   23.6880 O   0  0  0  0  0  0  0  0  0  0  0  0
   12.9642  -16.3501   19.3691 C   0  0  0  0  0  0  0  0  0  0  0  0
   13.7870  -15.5439   18.6107 C   0  0  0  0  0  0  0  0  0  0  0  0
    5.9605  -11.4111   26.1590 O   0  0  0  0  0  0  0  0  0  0  0  0
    6.5227  -12.6845   26.0787 C   0  0  0  0  0  0  0  0  0  0  0  0
    5.7866  -13.7840   26.4412 C   0  0  0  0  0  0  0  0  0  0  0  0
    6.3575  -15.0592   26.3580 C   0  0  0  0  0  0  0  0  0  0  0  0
    7.6436  -15.2323   25.9195 C   0  0  0  0  0  0  0  0  0  0  0  0
    8.2472  -16.5603   25.8324 C   0  0  0  0  0  0  0  0  0  0  0  0
    9.7334  -16.4958   25.5542 C   0  0  2  0  0  0  0  0  0  0  0  0
    9.8822  -16.8177   24.1469 N   0  0  0  0  0  0  0  0  0  0  0  0
   10.5330  -17.4257   26.3627 C   0  0  0  0  0  0  0  0  0  0  0  0
   10.8667  -17.1555   27.6818 O   0  0  0  0  0  0  0  0  0  0  0  0
    8.3686  -14.1277   25.5604 C   0  0  0  0  0  0  0  0  0  0  0  0
    7.8218  -12.8448   25.6344 C   0  0  0  0  0  0  0  0  0  0  0  0
   10.9506  -18.5170   25.8800 O   0  0  0  0  0  0  0  0  0  0  0  0
  2  1  1  0
  3  2  1  0
  3  4  1  1
  5  3  1  0
  5  6  1  6
  7  5  1  0
  8  7  2  0
  9 10  1  0
 10 11  2  0
 10 20  1  0
 11 12  1  0
 12 13  2  0
 13 14  1  0
 15 14  1  1
 15 16  1  0
 16  7  1  0
 17 15  1  0
 17 28  1  0
 18 17  2  0
 19 13  1  0
 20 19  2  0
 21 22  1  0
 22 32  2  0
 23 24  2  0
 23 22  1  0
 24 25  1  0
 25 26  1  0
 25 31  2  0
 27 29  1  0
 27 28  1  0
 27 26  1  1
 29 30  1  0
 32 31  1  0
 33 29  2  0
M  END
$$$$
