IYY.pdb
     RDKit          3D

 33 34  0  0  1  0  0  0  0  0999 V2000
    8.3463  -12.2592   19.3346 C   0  0  0  0  0  0  0  0  0  0  0  0
    7.9083  -13.6997   19.3423 C   0  0  0  0  0  0  0  0  0  0  0  0
    7.7236  -14.2530   20.7276 C   0  0  2  0  0  0  0  0  0  0  0  0
    8.8947  -14.0202   21.6234 C   0  0  0  0  0  0  0  0  0  0  0  0
    7.2912  -15.6948   20.7239 C   0  0  2  0  0  0  0  0  0  0  0  0
    6.0685  -15.9111   20.0050 N   0  0  0  0  0  0  0  0  0  0  0  0
    7.1448  -16.1894   22.1240 C   0  0  0  0  0  0  0  0  0  0  0  0
    6.1141  -15.9386   22.8064 O   0  0  0  0  0  0  0  0  0  0  0  0
    7.6480  -21.1213   29.3398 O   0  0  0  0  0  0  0  0  0  0  0  0
    7.7156  -20.5928   28.0367 C   0  0  0  0  0  0  0  0  0  0  0  0
    8.8894  -20.5852   27.3223 C   0  0  0  0  0  0  0  0  0  0  0  0
    8.9763  -20.0771   26.0558 C   0  0  0  0  0  0  0  0  0  0  0  0
    7.8328  -19.5418   25.4545 C   0  0  0  0  0  0  0  0  0  0  0  0
    7.8911  -18.9825   24.1052 C   0  0  0  0  0  0  0  0  0  0  0  0
    7.9330  -17.4850   24.1026 C   0  0  2  0  0  0  0  0  0  0  0  0
    8.1613  -16.9646   22.7483 N   0  0  0  0  0  0  0  0  0  0  0  0
    8.8952  -16.8600   24.9936 C   0  0  0  0  0  0  0  0  0  0  0  0
   10.0531  -16.6044   24.5912 O   0  0  0  0  0  0  0  0  0  0  0  0
    6.6487  -19.5395   26.1516 C   0  0  0  0  0  0  0  0  0  0  0  0
    6.6047  -20.0621   27.4271 C   0  0  0  0  0  0  0  0  0  0  0  0
    5.8857  -10.8591   25.3774 O   0  0  0  0  0  0  0  0  0  0  0  0
    6.5388  -11.8861   26.0575 C   0  0  0  0  0  0  0  0  0  0  0  0
    7.8960  -12.0404   25.9283 C   0  0  0  0  0  0  0  0  0  0  0  0
    8.5449  -13.0737   26.6141 C   0  0  0  0  0  0  0  0  0  0  0  0
    7.8484  -13.9386   27.4159 C   0  0  0  0  0  0  0  0  0  0  0  0
    8.5188  -15.0212   28.1329 C   0  0  0  0  0  0  0  0  0  0  0  0
    9.4263  -15.8288   27.2303 C   0  0  2  0  0  0  0  0  0  0  0  0
    8.5444  -16.5325   26.3174 N   0  0  0  0  0  0  0  0  0  0  0  0
   10.2730  -16.7938   27.9441 C   0  0  0  0  0  0  0  0  0  0  0  0
   11.3867  -16.3999   28.6715 O   0  0  0  0  0  0  0  0  0  0  0  0
    6.4944  -13.7748   27.5372 C   0  0  0  0  0  0  0  0  0  0  0  0
    5.8236  -12.7518   26.8635 C   0  0  0  0  0  0  0  0  0  0  0  0
   10.0147  -18.0312   27.9206 O   0  0  0  0  0  0  0  0  0  0  0  0
  2  1  1  0
  3  2  1  0
  3  4  1  1
  5  3  1  0
  5  6  1  1
  7  5  1  0
  8  7  2  0
  9 10  1  0
 10 11  2  0
 10 20  1  0
 11 12  1  0
 12 13  2  0
 13 14  1  0
 15 14  1  6
 15 16  1  0
 16  7  1  0
 17 15  1  0
 17 28  1  0
 18 17  2  0
 19 13  1  0
 20 19  2  0
 21 22  1  0
 22 32  2  0
 23 24  2  0
 23 22  1  0
 24 25  1  0
 25 26  1  0
 25 31  2  0
 27 29  1  0
 27 28  1  0
 27 26  1  1
 29 30  1  0
 32 31  1  0
 33 29  2  0
M  END
$$$$
