IYY.pdb
     RDKit          3D

 33 34  0  0  1  0  0  0  0  0999 V2000
    8.3405  -13.0298   18.3276 C   0  0  0  0  0  0  0  0  0  0  0  0
    7.6079  -14.3247   18.5593 C   0  0  0  0  0  0  0  0  0  0  0  0
    7.5830  -14.7383   20.0042 C   0  0  2  0  0  0  0  0  0  0  0  0
    8.9379  -14.8122   20.6263 C   0  0  0  0  0  0  0  0  0  0  0  0
    6.7846  -15.9933   20.2350 C   0  0  2  0  0  0  0  0  0  0  0  0
    5.4448  -15.9058   19.7292 N   0  0  0  0  0  0  0  0  0  0  0  0
    6.7517  -16.3192   21.6907 C   0  0  0  0  0  0  0  0  0  0  0  0
    6.1324  -15.5918   22.5142 O   0  0  0  0  0  0  0  0  0  0  0  0
    8.6367  -20.3605   29.3435 O   0  0  0  0  0  0  0  0  0  0  0  0
    8.2757  -20.0441   28.0200 C   0  0  0  0  0  0  0  0  0  0  0  0
    7.0657  -19.4650   27.7221 C   0  0  0  0  0  0  0  0  0  0  0  0
    6.6960  -19.1498   26.4440 C   0  0  0  0  0  0  0  0  0  0  0  0
    7.5754  -19.4229   25.3914 C   0  0  0  0  0  0  0  0  0  0  0  0
    7.2096  -19.1070   24.0119 C   0  0  0  0  0  0  0  0  0  0  0  0
    7.4535  -17.6702   23.6648 C   0  0  2  0  0  0  0  0  0  0  0  0
    7.4173  -17.4638   22.2110 N   0  0  0  0  0  0  0  0  0  0  0  0
    8.6780  -17.0771   24.1737 C   0  0  0  0  0  0  0  0  0  0  0  0
    9.7865  -17.4165   23.7006 O   0  0  0  0  0  0  0  0  0  0  0  0
    8.7905  -20.0019   25.6675 C   0  0  0  0  0  0  0  0  0  0  0  0
    9.1240  -20.3037   26.9712 C   0  0  0  0  0  0  0  0  0  0  0  0
    5.2459  -11.5645   27.7611 O   0  0  0  0  0  0  0  0  0  0  0  0
    6.3602  -12.1794   27.1918 C   0  0  0  0  0  0  0  0  0  0  0  0
    6.2986  -12.6584   25.9076 C   0  0  0  0  0  0  0  0  0  0  0  0
    7.4212  -13.2745   25.3426 C   0  0  0  0  0  0  0  0  0  0  0  0
    8.5864  -13.4096   26.0499 C   0  0  0  0  0  0  0  0  0  0  0  0
    9.7616  -14.0539   25.4675 C   0  0  0  0  0  0  0  0  0  0  0  0
    9.8266  -15.5297   25.7967 C   0  0  2  0  0  0  0  0  0  0  0  0
    8.6396  -16.1158   25.2020 N   0  0  0  0  0  0  0  0  0  0  0  0
    9.8544  -15.8194   27.2365 C   0  0  0  0  0  0  0  0  0  0  0  0
   10.9936  -15.6281   28.0046 O   0  0  0  0  0  0  0  0  0  0  0  0
    8.6360  -12.9277   27.3306 C   0  0  0  0  0  0  0  0  0  0  0  0
    7.5298  -12.3091   27.9170 C   0  0  0  0  0  0  0  0  0  0  0  0
    8.8301  -16.2586   27.8336 O   0  0  0  0  0  0  0  0  0  0  0  0
  2  1  1  0
  3  2  1  0
  3  4  1  6
  5  3  1  0
  5  6  1  1
  7  5  1  0
  8  7  2  0
  9 10  1  0
 10 11  2  0
 10 20  1  0
 11 12  1  0
 12 13  2  0
 13 14  1  0
 15 14  1  6
 15 16  1  0
 16  7  1  0
 17 15  1  0
 17 28  1  0
 18 17  2  0
 19 13  1  0
 20 19  2  0
 21 22  1  0
 22 32  2  0
 23 24  2  0
 23 22  1  0
 24 25  1  0
 25 26  1  0
 25 31  2  0
 27 29  1  0
 27 28  1  0
 27 26  1  1
 29 30  1  0
 32 31  1  0
 33 29  2  0
M  END
$$$$
