IYY.pdb
     RDKit          3D

 33 34  0  0  1  0  0  0  0  0999 V2000
    7.0517  -11.7402   19.7756 C   0  0  0  0  0  0  0  0  0  0  0  0
    7.4202  -12.9722   18.9923 C   0  0  0  0  0  0  0  0  0  0  0  0
    8.0194  -14.0560   19.8444 C   0  0  2  0  0  0  0  0  0  0  0  0
    9.1811  -13.5974   20.6619 C   0  0  0  0  0  0  0  0  0  0  0  0
    8.3345  -15.3023   19.0616 C   0  0  2  0  0  0  0  0  0  0  0  0
    7.1846  -15.8597   18.4091 N   0  0  0  0  0  0  0  0  0  0  0  0
    8.9507  -16.3264   19.9548 C   0  0  0  0  0  0  0  0  0  0  0  0
    8.2465  -17.0494   20.7113 O   0  0  0  0  0  0  0  0  0  0  0  0
   14.4857  -21.7793   24.0699 O   0  0  0  0  0  0  0  0  0  0  0  0
   13.8596  -20.9203   23.1467 C   0  0  0  0  0  0  0  0  0  0  0  0
   12.6158  -21.1985   22.6328 C   0  0  0  0  0  0  0  0  0  0  0  0
   11.9904  -20.3777   21.7356 C   0  0  0  0  0  0  0  0  0  0  0  0
   12.6318  -19.2073   21.3179 C   0  0  0  0  0  0  0  0  0  0  0  0
   11.9964  -18.3111   20.3537 C   0  0  0  0  0  0  0  0  0  0  0  0
   10.9190  -17.4717   20.9692 C   0  0  2  0  0  0  0  0  0  0  0  0
   10.3582  -16.5304   19.9910 N   0  0  0  0  0  0  0  0  0  0  0  0
   11.2793  -16.7223   22.1603 C   0  0  0  0  0  0  0  0  0  0  0  0
   12.0923  -15.7730   22.0856 O   0  0  0  0  0  0  0  0  0  0  0  0
   13.8761  -18.9105   21.8195 C   0  0  0  0  0  0  0  0  0  0  0  0
   14.4715  -19.7658   22.7229 C   0  0  0  0  0  0  0  0  0  0  0  0
   10.3866  -14.1274   30.5878 O   0  0  0  0  0  0  0  0  0  0  0  0
   10.2323  -14.7034   29.3276 C   0  0  0  0  0  0  0  0  0  0  0  0
    9.8029  -13.9398   28.2717 C   0  0  0  0  0  0  0  0  0  0  0  0
    9.6503  -14.5250   27.0094 C   0  0  0  0  0  0  0  0  0  0  0  0
    9.9224  -15.8519   26.8060 C   0  0  0  0  0  0  0  0  0  0  0  0
    9.7629  -16.4702   25.4916 C   0  0  0  0  0  0  0  0  0  0  0  0
   10.9955  -16.3055   24.6289 C   0  0  2  0  0  0  0  0  0  0  0  0
   10.7235  -17.0486   23.4123 N   0  0  0  0  0  0  0  0  0  0  0  0
   12.2296  -16.8050   25.2495 C   0  0  0  0  0  0  0  0  0  0  0  0
   12.4283  -18.1524   25.5133 O   0  0  0  0  0  0  0  0  0  0  0  0
   10.3503  -16.6040   27.8672 C   0  0  0  0  0  0  0  0  0  0  0  0
   10.5105  -16.0438   29.1364 C   0  0  0  0  0  0  0  0  0  0  0  0
   13.1646  -16.0165   25.5693 O   0  0  0  0  0  0  0  0  0  0  0  0
  2  1  1  0
  3  2  1  0
  3  4  1  6
  5  3  1  0
  5  6  1  1
  7  5  1  0
  8  7  2  0
  9 10  1  0
 10 11  2  0
 10 20  1  0
 11 12  1  0
 12 13  2  0
 13 14  1  0
 15 14  1  6
 15 16  1  0
 16  7  1  0
 17 15  1  0
 17 28  1  0
 18 17  2  0
 19 13  1  0
 20 19  2  0
 21 22  1  0
 22 32  2  0
 23 24  2  0
 23 22  1  0
 24 25  1  0
 25 26  1  0
 25 31  2  0
 27 29  1  0
 27 28  1  0
 27 26  1  1
 29 30  1  0
 32 31  1  0
 33 29  2  0
M  END
$$$$
