IYY.pdb
     RDKit          3D

 33 34  0  0  1  0  0  0  0  0999 V2000
    6.8676  -12.0910   19.7399 C   0  0  0  0  0  0  0  0  0  0  0  0
    7.6467  -13.2708   19.2220 C   0  0  0  0  0  0  0  0  0  0  0  0
    8.0396  -14.2389   20.3027 C   0  0  2  0  0  0  0  0  0  0  0  0
    8.7014  -13.5896   21.4725 C   0  0  0  0  0  0  0  0  0  0  0  0
    8.8345  -15.4041   19.7771 C   0  0  2  0  0  0  0  0  0  0  0  0
    8.1595  -16.1159   18.7300 N   0  0  0  0  0  0  0  0  0  0  0  0
    9.1654  -16.3419   20.8895 C   0  0  0  0  0  0  0  0  0  0  0  0
    8.3013  -17.1258   21.3687 O   0  0  0  0  0  0  0  0  0  0  0  0
   11.8905  -21.5991   17.9966 O   0  0  0  0  0  0  0  0  0  0  0  0
   11.9221  -20.7184   19.0945 C   0  0  0  0  0  0  0  0  0  0  0  0
   11.4418  -21.0871   20.3280 C   0  0  0  0  0  0  0  0  0  0  0  0
   11.4635  -20.2472   21.4068 C   0  0  0  0  0  0  0  0  0  0  0  0
   11.9925  -18.9609   21.2607 C   0  0  0  0  0  0  0  0  0  0  0  0
   12.0238  -18.0338   22.3904 C   0  0  0  0  0  0  0  0  0  0  0  0
   10.7274  -17.3064   22.5761 C   0  0  2  0  0  0  0  0  0  0  0  0
   10.4692  -16.3915   21.4565 N   0  0  0  0  0  0  0  0  0  0  0  0
   10.5719  -16.5603   23.8127 C   0  0  0  0  0  0  0  0  0  0  0  0
   11.2313  -15.5132   24.0041 O   0  0  0  0  0  0  0  0  0  0  0  0
   12.4780  -18.5721   20.0355 C   0  0  0  0  0  0  0  0  0  0  0  0
   12.4372  -19.4507   18.9733 C   0  0  0  0  0  0  0  0  0  0  0  0
    6.9518  -10.5436   26.2783 O   0  0  0  0  0  0  0  0  0  0  0  0
    7.2273  -11.9103   26.2738 C   0  0  0  0  0  0  0  0  0  0  0  0
    6.7897  -12.6954   25.2373 C   0  0  0  0  0  0  0  0  0  0  0  0
    7.0701  -14.0667   25.2395 C   0  0  0  0  0  0  0  0  0  0  0  0
    7.7764  -14.6438   26.2614 C   0  0  0  0  0  0  0  0  0  0  0  0
    8.0708  -16.0751   26.2717 C   0  0  0  0  0  0  0  0  0  0  0  0
    9.5486  -16.3562   26.1061 C   0  0  2  0  0  0  0  0  0  0  0  0
    9.6818  -16.9991   24.8118 N   0  0  0  0  0  0  0  0  0  0  0  0
   10.1122  -17.2222   27.1501 C   0  0  0  0  0  0  0  0  0  0  0  0
   10.5579  -18.5077   26.8797 O   0  0  0  0  0  0  0  0  0  0  0  0
    8.2081  -13.8503   27.2904 C   0  0  0  0  0  0  0  0  0  0  0  0
    7.9413  -12.4796   27.3115 C   0  0  0  0  0  0  0  0  0  0  0  0
   10.2119  -16.8229   28.3455 O   0  0  0  0  0  0  0  0  0  0  0  0
  2  1  1  0
  3  2  1  0
  3  4  1  1
  5  3  1  0
  5  6  1  6
  7  5  1  0
  8  7  2  0
  9 10  1  0
 10 11  2  0
 10 20  1  0
 11 12  1  0
 12 13  2  0
 13 14  1  0
 15 14  1  6
 15 16  1  0
 16  7  1  0
 17 15  1  0
 17 28  1  0
 18 17  2  0
 19 13  1  0
 20 19  2  0
 21 22  1  0
 22 32  2  0
 23 24  2  0
 23 22  1  0
 24 25  1  0
 25 26  1  0
 25 31  2  0
 27 29  1  0
 27 28  1  0
 27 26  1  1
 29 30  1  0
 32 31  1  0
 33 29  2  0
M  END
$$$$
