IYY.pdb
     RDKit          3D

 33 34  0  0  1  0  0  0  0  0999 V2000
    6.4402  -21.4865   26.9740 C   0  0  0  0  0  0  0  0  0  0  0  0
    5.8415  -21.1737   25.6283 C   0  0  0  0  0  0  0  0  0  0  0  0
    6.5344  -20.0416   24.9228 C   0  0  2  0  0  0  0  0  0  0  0  0
    6.6355  -18.7999   25.7450 C   0  0  0  0  0  0  0  0  0  0  0  0
    5.9618  -19.7716   23.5572 C   0  0  2  0  0  0  0  0  0  0  0  0
    6.0015  -20.9188   22.6963 N   0  0  0  0  0  0  0  0  0  0  0  0
    6.6846  -18.6358   22.9139 C   0  0  0  0  0  0  0  0  0  0  0  0
    7.8113  -18.7960   22.3701 O   0  0  0  0  0  0  0  0  0  0  0  0
    8.8603  -12.1859   17.7412 O   0  0  0  0  0  0  0  0  0  0  0  0
    8.1493  -12.9568   18.6805 C   0  0  0  0  0  0  0  0  0  0  0  0
    7.7462  -12.4329   19.8852 C   0  0  0  0  0  0  0  0  0  0  0  0
    7.0548  -13.1643   20.8109 C   0  0  0  0  0  0  0  0  0  0  0  0
    6.7403  -14.4980   20.5314 C   0  0  0  0  0  0  0  0  0  0  0  0
    6.0098  -15.3118   21.5013 C   0  0  0  0  0  0  0  0  0  0  0  0
    6.9039  -16.2382   22.2672 C   0  0  2  0  0  0  0  0  0  0  0  0
    6.1337  -17.3244   22.8869 N   0  0  0  0  0  0  0  0  0  0  0  0
    7.7389  -15.6363   23.2921 C   0  0  0  0  0  0  0  0  0  0  0  0
    7.2218  -14.9541   24.2059 O   0  0  0  0  0  0  0  0  0  0  0  0
    7.1341  -15.0415   19.3324 C   0  0  0  0  0  0  0  0  0  0  0  0
    7.8299  -14.2685   18.4266 C   0  0  0  0  0  0  0  0  0  0  0  0
    5.1031  -12.6960   27.4258 O   0  0  0  0  0  0  0  0  0  0  0  0
    6.1921  -13.4419   26.9769 C   0  0  0  0  0  0  0  0  0  0  0  0
    7.3509  -12.8088   26.6042 C   0  0  0  0  0  0  0  0  0  0  0  0
    8.4401  -13.5641   26.1546 C   0  0  0  0  0  0  0  0  0  0  0  0
    8.3720  -14.9300   26.0786 C   0  0  0  0  0  0  0  0  0  0  0  0
    9.5043  -15.7249   25.6078 C   0  0  0  0  0  0  0  0  0  0  0  0
   10.0263  -15.2412   24.2720 C   0  0  2  0  0  0  0  0  0  0  0  0
    9.1364  -15.8086   23.2758 N   0  0  0  0  0  0  0  0  0  0  0  0
   11.4096  -15.6467   23.9895 C   0  0  0  0  0  0  0  0  0  0  0  0
   12.4908  -15.0942   24.6604 O   0  0  0  0  0  0  0  0  0  0  0  0
    7.2105  -15.5508   26.4533 C   0  0  0  0  0  0  0  0  0  0  0  0
    6.1097  -14.8198   26.9053 C   0  0  0  0  0  0  0  0  0  0  0  0
   11.6671  -16.5226   23.1151 O   0  0  0  0  0  0  0  0  0  0  0  0
  2  1  1  0
  3  2  1  0
  3  4  1  1
  5  3  1  0
  5  6  1  6
  7  5  1  0
  8  7  2  0
  9 10  1  0
 10 11  2  0
 10 20  1  0
 11 12  1  0
 12 13  2  0
 13 14  1  0
 15 14  1  1
 15 16  1  0
 16  7  1  0
 17 15  1  0
 17 28  1  0
 18 17  2  0
 19 13  1  0
 20 19  2  0
 21 22  1  0
 22 32  2  0
 23 24  2  0
 23 22  1  0
 24 25  1  0
 25 26  1  0
 25 31  2  0
 27 29  1  0
 27 28  1  0
 27 26  1  1
 29 30  1  0
 32 31  1  0
 33 29  2  0
M  END
$$$$
