AAY.pdb
     RDKit          3D

 23 23  0  0  1  0  0  0  0  0999 V2000
    7.1909  -19.4465   19.2070 C   0  0  0  0  0  0  0  0  0  0  0  0
    7.5029  -18.9749   20.5985 C   0  0  2  0  0  0  0  0  0  0  0  0
    6.3712  -19.1100   21.4680 N   0  0  0  0  0  0  0  0  0  0  0  0
    8.0508  -17.5842   20.6051 C   0  0  0  0  0  0  0  0  0  0  0  0
    9.1703  -17.3077   20.0856 O   0  0  0  0  0  0  0  0  0  0  0  0
    6.7695  -14.1177   21.1422 C   0  0  0  0  0  0  0  0  0  0  0  0
    7.8537  -15.1663   21.1931 C   0  0  2  0  0  0  0  0  0  0  0  0
    7.3454  -16.4999   21.1938 N   0  0  0  0  0  0  0  0  0  0  0  0
    8.7795  -14.8922   22.3216 C   0  0  0  0  0  0  0  0  0  0  0  0
    9.4485  -13.8330   22.3536 O   0  0  0  0  0  0  0  0  0  0  0  0
    5.8196  -11.2385   26.8082 O   0  0  0  0  0  0  0  0  0  0  0  0
    6.5976  -12.3572   26.5498 C   0  0  0  0  0  0  0  0  0  0  0  0
    7.9773  -12.3221   26.5247 C   0  0  0  0  0  0  0  0  0  0  0  0
    8.7539  -13.4323   26.2682 C   0  0  0  0  0  0  0  0  0  0  0  0
    8.1420  -14.6429   26.0230 C   0  0  0  0  0  0  0  0  0  0  0  0
    8.9732  -15.8213   25.7449 C   0  0  0  0  0  0  0  0  0  0  0  0
    9.8216  -15.6761   24.4809 C   0  0  2  0  0  0  0  0  0  0  0  0
    8.9019  -15.8437   23.3692 N   0  0  0  0  0  0  0  0  0  0  0  0
   10.9316  -16.6411   24.4292 C   0  0  0  0  0  0  0  0  0  0  0  0
   10.8602  -17.6998   23.7585 O   0  0  0  0  0  0  0  0  0  0  0  0
    6.7660  -14.6867   26.0459 C   0  0  0  0  0  0  0  0  0  0  0  0
    5.9917  -13.5752   26.3028 C   0  0  0  0  0  0  0  0  0  0  0  0
   12.1221  -16.4190   25.1296 O   0  0  0  0  0  0  0  0  0  0  0  0
  2  1  1  6
  3  2  1  0
  4  2  1  0
  5  4  2  0
  7  6  1  1
  7  9  1  0
  7  8  1  0
  8  4  1  0
  9 18  1  0
 10  9  2  0
 12 22  2  0
 12 11  1  0
 13 12  1  0
 14 15  1  0
 14 13  2  0
 15 21  2  0
 16 15  1  0
 17 19  1  0
 17 16  1  1
 18 17  1  0
 19 20  2  0
 19 23  1  0
 21 22  1  0
M  END
$$$$
