AAY.pdb
     RDKit          3D

 23 23  0  0  1  0  0  0  0  0999 V2000
    9.5660  -14.8289   17.5753 C   0  0  0  0  0  0  0  0  0  0  0  0
    8.1197  -14.5492   17.8691 C   0  0  2  0  0  0  0  0  0  0  0  0
    7.7147  -13.2722   17.3590 N   0  0  0  0  0  0  0  0  0  0  0  0
    7.8091  -14.6948   19.3240 C   0  0  0  0  0  0  0  0  0  0  0  0
    8.0867  -13.7852   20.1578 O   0  0  0  0  0  0  0  0  0  0  0  0
    6.1823  -17.2997   21.5592 C   0  0  0  0  0  0  0  0  0  0  0  0
    6.9445  -16.0359   21.2435 C   0  0  2  0  0  0  0  0  0  0  0  0
    7.1868  -15.8600   19.8481 N   0  0  0  0  0  0  0  0  0  0  0  0
    8.1791  -15.9629   22.0657 C   0  0  0  0  0  0  0  0  0  0  0  0
    9.2930  -16.2509   21.5689 O   0  0  0  0  0  0  0  0  0  0  0  0
    5.2799  -11.5160   27.3588 O   0  0  0  0  0  0  0  0  0  0  0  0
    6.3159  -12.1452   26.6847 C   0  0  0  0  0  0  0  0  0  0  0  0
    6.3949  -12.1937   25.3075 C   0  0  0  0  0  0  0  0  0  0  0  0
    7.4234  -12.8183   24.6340 C   0  0  0  0  0  0  0  0  0  0  0  0
    8.4292  -13.4285   25.3526 C   0  0  0  0  0  0  0  0  0  0  0  0
    9.5196  -14.0972   24.6309 C   0  0  0  0  0  0  0  0  0  0  0  0
    9.2282  -15.5669   24.3253 C   0  0  2  0  0  0  0  0  0  0  0  0
    8.0879  -15.5623   23.4255 N   0  0  0  0  0  0  0  0  0  0  0  0
    8.9702  -16.3581   25.5391 C   0  0  0  0  0  0  0  0  0  0  0  0
    7.8199  -16.7645   25.8347 O   0  0  0  0  0  0  0  0  0  0  0  0
    8.3581  -13.3850   26.7269 C   0  0  0  0  0  0  0  0  0  0  0  0
    7.3286  -12.7597   27.3979 C   0  0  0  0  0  0  0  0  0  0  0  0
   10.0023  -16.6940   26.4218 O   0  0  0  0  0  0  0  0  0  0  0  0
  2  1  1  1
  3  2  1  0
  4  2  1  0
  5  4  2  0
  7  6  1  6
  7  9  1  0
  7  8  1  0
  8  4  1  0
  9 18  1  0
 10  9  2  0
 12 22  2  0
 12 11  1  0
 13 12  1  0
 14 15  1  0
 14 13  2  0
 15 21  2  0
 16 15  1  0
 17 19  1  0
 17 16  1  1
 18 17  1  0
 19 20  2  0
 19 23  1  0
 21 22  1  0
M  END
$$$$
