AAY.pdb
     RDKit          3D

 23 23  0  0  1  0  0  0  0  0999 V2000
    7.7414  -12.3702   17.6704 C   0  0  0  0  0  0  0  0  0  0  0  0
    8.5826  -13.4462   18.2956 C   0  0  2  0  0  0  0  0  0  0  0  0
    8.8018  -14.5370   17.3918 N   0  0  0  0  0  0  0  0  0  0  0  0
    8.0179  -13.9059   19.6010 C   0  0  0  0  0  0  0  0  0  0  0  0
    7.8476  -13.1104   20.5694 O   0  0  0  0  0  0  0  0  0  0  0  0
    6.6230  -17.1206   21.0500 C   0  0  0  0  0  0  0  0  0  0  0  0
    7.2118  -15.7319   21.0999 C   0  0  2  0  0  0  0  0  0  0  0  0
    7.6426  -15.2584   19.8244 N   0  0  0  0  0  0  0  0  0  0  0  0
    8.2709  -15.6612   22.1387 C   0  0  0  0  0  0  0  0  0  0  0  0
    9.4769  -15.8049   21.8295 O   0  0  0  0  0  0  0  0  0  0  0  0
   11.2042  -15.1027   30.5460 O   0  0  0  0  0  0  0  0  0  0  0  0
   10.4530  -15.0470   29.3814 C   0  0  0  0  0  0  0  0  0  0  0  0
    9.7442  -16.1262   28.8933 C   0  0  0  0  0  0  0  0  0  0  0  0
    8.9964  -16.0743   27.7359 C   0  0  0  0  0  0  0  0  0  0  0  0
    8.9419  -14.8982   27.0189 C   0  0  0  0  0  0  0  0  0  0  0  0
    8.1486  -14.8494   25.7839 C   0  0  0  0  0  0  0  0  0  0  0  0
    8.8619  -15.4735   24.5839 C   0  0  2  0  0  0  0  0  0  0  0  0
    7.9055  -15.4284   23.4915 N   0  0  0  0  0  0  0  0  0  0  0  0
    9.3295  -16.8430   24.8516 C   0  0  0  0  0  0  0  0  0  0  0  0
   10.5341  -17.0972   25.0969 O   0  0  0  0  0  0  0  0  0  0  0  0
    9.6462  -13.8167   27.4987 C   0  0  0  0  0  0  0  0  0  0  0  0
   10.3931  -13.8712   28.6563 C   0  0  0  0  0  0  0  0  0  0  0  0
    8.4464  -17.9280   24.8444 O   0  0  0  0  0  0  0  0  0  0  0  0
  2  1  1  6
  3  2  1  0
  4  2  1  0
  5  4  2  0
  7  6  1  6
  7  9  1  0
  7  8  1  0
  8  4  1  0
  9 18  1  0
 10  9  2  0
 12 22  2  0
 12 11  1  0
 13 12  1  0
 14 15  1  0
 14 13  2  0
 15 21  2  0
 16 15  1  0
 17 19  1  0
 17 16  1  1
 18 17  1  0
 19 20  2  0
 19 23  1  0
 21 22  1  0
M  END
$$$$
