AAY.pdb
     RDKit          3D

 23 23  0  0  1  0  0  0  0  0999 V2000
    7.3907  -12.7971   18.8221 C   0  0  0  0  0  0  0  0  0  0  0  0
    8.5536  -13.7207   19.0481 C   0  0  2  0  0  0  0  0  0  0  0  0
    8.7696  -14.5826   17.9232 N   0  0  0  0  0  0  0  0  0  0  0  0
    8.4147  -14.4886   20.3230 C   0  0  0  0  0  0  0  0  0  0  0  0
    8.3328  -13.9083   21.4437 O   0  0  0  0  0  0  0  0  0  0  0  0
    8.3095  -18.1457   21.3464 C   0  0  0  0  0  0  0  0  0  0  0  0
    8.2687  -16.6521   21.5593 C   0  0  2  0  0  0  0  0  0  0  0  0
    8.3672  -15.9089   20.3450 N   0  0  0  0  0  0  0  0  0  0  0  0
    9.2762  -16.2513   22.5743 C   0  0  0  0  0  0  0  0  0  0  0  0
   10.3556  -15.7194   22.2245 O   0  0  0  0  0  0  0  0  0  0  0  0
    5.4004  -12.0748   27.2003 O   0  0  0  0  0  0  0  0  0  0  0  0
    6.5164  -12.6796   26.6413 C   0  0  0  0  0  0  0  0  0  0  0  0
    6.5250  -13.2050   25.3649 C   0  0  0  0  0  0  0  0  0  0  0  0
    7.6327  -13.8068   24.8061 C   0  0  0  0  0  0  0  0  0  0  0  0
    8.7953  -13.8974   25.5411 C   0  0  0  0  0  0  0  0  0  0  0  0
    9.9708  -14.5442   24.9438 C   0  0  0  0  0  0  0  0  0  0  0  0
    9.9165  -16.0711   25.0075 C   0  0  2  0  0  0  0  0  0  0  0  0
    9.0062  -16.4762   23.9506 N   0  0  0  0  0  0  0  0  0  0  0  0
    9.4891  -16.5688   26.3249 C   0  0  0  0  0  0  0  0  0  0  0  0
   10.1594  -16.3558   27.3646 O   0  0  0  0  0  0  0  0  0  0  0  0
    8.7954  -13.3760   26.8155 C   0  0  0  0  0  0  0  0  0  0  0  0
    7.6865  -12.7746   27.3719 C   0  0  0  0  0  0  0  0  0  0  0  0
    8.3096  -17.3056   26.4767 O   0  0  0  0  0  0  0  0  0  0  0  0
  2  1  1  6
  3  2  1  0
  4  2  1  0
  5  4  2  0
  7  6  1  6
  7  9  1  0
  7  8  1  0
  8  4  1  0
  9 18  1  0
 10  9  2  0
 12 22  2  0
 12 11  1  0
 13 12  1  0
 14 15  1  0
 14 13  2  0
 15 21  2  0
 16 15  1  0
 17 19  1  0
 17 16  1  1
 18 17  1  0
 19 20  2  0
 19 23  1  0
 21 22  1  0
M  END
$$$$
