AAY.pdb
     RDKit          3D

 23 23  0  0  1  0  0  0  0  0999 V2000
    8.5699  -12.1407   19.9385 C   0  0  0  0  0  0  0  0  0  0  0  0
    8.3291  -13.5022   19.3516 C   0  0  2  0  0  0  0  0  0  0  0  0
    7.2020  -13.5034   18.4658 N   0  0  0  0  0  0  0  0  0  0  0  0
    8.2105  -14.5513   20.4097 C   0  0  0  0  0  0  0  0  0  0  0  0
    7.1970  -14.6253   21.1626 O   0  0  0  0  0  0  0  0  0  0  0  0
    9.8254  -17.8248   21.2100 C   0  0  0  0  0  0  0  0  0  0  0  0
    9.0994  -16.5594   21.5964 C   0  0  2  0  0  0  0  0  0  0  0  0
    9.2274  -15.5201   20.6266 N   0  0  0  0  0  0  0  0  0  0  0  0
    9.4978  -16.1367   22.9633 C   0  0  0  0  0  0  0  0  0  0  0  0
   10.4627  -15.3551   23.1324 O   0  0  0  0  0  0  0  0  0  0  0  0
    6.0270  -10.6092   25.8346 O   0  0  0  0  0  0  0  0  0  0  0  0
    6.4484  -11.9289   25.9036 C   0  0  0  0  0  0  0  0  0  0  0  0
    7.7218  -12.3293   25.5523 C   0  0  0  0  0  0  0  0  0  0  0  0
    8.1440  -13.6403   25.6198 C   0  0  0  0  0  0  0  0  0  0  0  0
    7.2677  -14.6107   26.0561 C   0  0  0  0  0  0  0  0  0  0  0  0
    7.7203  -16.0064   26.1210 C   0  0  0  0  0  0  0  0  0  0  0  0
    9.0746  -16.2331   25.4482 C   0  0  2  0  0  0  0  0  0  0  0  0
    8.7738  -16.6270   24.0828 N   0  0  0  0  0  0  0  0  0  0  0  0
    9.8927  -17.2386   26.1451 C   0  0  0  0  0  0  0  0  0  0  0  0
    9.9618  -18.4280   25.7499 O   0  0  0  0  0  0  0  0  0  0  0  0
    5.9953  -14.2199   26.4085 C   0  0  0  0  0  0  0  0  0  0  0  0
    5.5756  -12.9084   26.3402 C   0  0  0  0  0  0  0  0  0  0  0  0
   10.6337  -16.9104   27.2855 O   0  0  0  0  0  0  0  0  0  0  0  0
  2  1  1  1
  3  2  1  0
  4  2  1  0
  5  4  2  0
  7  6  1  6
  7  9  1  0
  7  8  1  0
  8  4  1  0
  9 18  1  0
 10  9  2  0
 12 22  2  0
 12 11  1  0
 13 12  1  0
 14 15  1  0
 14 13  2  0
 15 21  2  0
 16 15  1  0
 17 19  1  0
 17 16  1  1
 18 17  1  0
 19 20  2  0
 19 23  1  0
 21 22  1  0
M  END
$$$$
