AAY.pdb
     RDKit          3D

 23 23  0  0  1  0  0  0  0  0999 V2000
    5.5173  -18.7213   23.7744 C   0  0  0  0  0  0  0  0  0  0  0  0
    5.6696  -18.3787   22.3199 C   0  0  2  0  0  0  0  0  0  0  0  0
    5.7046  -19.5549   21.5012 N   0  0  0  0  0  0  0  0  0  0  0  0
    6.8490  -17.4929   22.0774 C   0  0  0  0  0  0  0  0  0  0  0  0
    8.0257  -17.9528   22.0188 O   0  0  0  0  0  0  0  0  0  0  0  0
    7.3588  -13.8770   21.0649 C   0  0  0  0  0  0  0  0  0  0  0  0
    7.7946  -15.2640   21.4702 C   0  0  2  0  0  0  0  0  0  0  0  0
    6.7126  -16.0893   21.9001 N   0  0  0  0  0  0  0  0  0  0  0  0
    8.8998  -15.1856   22.4592 C   0  0  0  0  0  0  0  0  0  0  0  0
   10.0318  -14.7706   22.1177 O   0  0  0  0  0  0  0  0  0  0  0  0
    4.9043  -12.2932   27.3324 O   0  0  0  0  0  0  0  0  0  0  0  0
    6.1104  -12.7817   26.8523 C   0  0  0  0  0  0  0  0  0  0  0  0
    6.1927  -13.8294   25.9574 C   0  0  0  0  0  0  0  0  0  0  0  0
    7.3900  -14.3175   25.4781 C   0  0  0  0  0  0  0  0  0  0  0  0
    8.5706  -13.7452   25.9007 C   0  0  0  0  0  0  0  0  0  0  0  0
    9.8435  -14.2721   25.3917 C   0  0  0  0  0  0  0  0  0  0  0  0
    9.7200  -15.6743   24.7942 C   0  0  2  0  0  0  0  0  0  0  0  0
    8.6633  -15.5864   23.8014 N   0  0  0  0  0  0  0  0  0  0  0  0
    9.4385  -16.7009   25.8103 C   0  0  0  0  0  0  0  0  0  0  0  0
   10.2212  -16.9205   26.7669 O   0  0  0  0  0  0  0  0  0  0  0  0
    8.4976  -12.6996   26.7936 C   0  0  0  0  0  0  0  0  0  0  0  0
    7.2991  -12.2133   27.2713 C   0  0  0  0  0  0  0  0  0  0  0  0
    8.2790  -17.4817   25.7541 O   0  0  0  0  0  0  0  0  0  0  0  0
  2  1  1  1
  3  2  1  0
  4  2  1  0
  5  4  2  0
  7  6  1  1
  7  9  1  0
  7  8  1  0
  8  4  1  0
  9 18  1  0
 10  9  2  0
 12 22  2  0
 12 11  1  0
 13 12  1  0
 14 15  1  0
 14 13  2  0
 15 21  2  0
 16 15  1  0
 17 19  1  0
 17 16  1  1
 18 17  1  0
 19 20  2  0
 19 23  1  0
 21 22  1  0
M  END
$$$$
