AAY.pdb
     RDKit          3D

 23 23  0  0  1  0  0  0  0  0999 V2000
    5.9694  -19.1915   19.7643 C   0  0  0  0  0  0  0  0  0  0  0  0
    6.3790  -18.7008   21.1236 C   0  0  2  0  0  0  0  0  0  0  0  0
    5.2446  -18.3068   21.9065 N   0  0  0  0  0  0  0  0  0  0  0  0
    7.4039  -17.6162   21.0382 C   0  0  0  0  0  0  0  0  0  0  0  0
    8.5904  -17.8496   20.6675 O   0  0  0  0  0  0  0  0  0  0  0  0
    7.3581  -13.8471   21.0734 C   0  0  0  0  0  0  0  0  0  0  0  0
    8.0227  -15.2003   21.1437 C   0  0  2  0  0  0  0  0  0  0  0  0
    7.1017  -16.2672   21.3680 N   0  0  0  0  0  0  0  0  0  0  0  0
    9.1376  -15.1735   22.1244 C   0  0  0  0  0  0  0  0  0  0  0  0
   10.2336  -14.6428   21.8284 O   0  0  0  0  0  0  0  0  0  0  0  0
    5.0088  -12.6165   27.0288 O   0  0  0  0  0  0  0  0  0  0  0  0
    6.2359  -13.0339   26.5353 C   0  0  0  0  0  0  0  0  0  0  0  0
    7.3917  -12.2919   26.6729 C   0  0  0  0  0  0  0  0  0  0  0  0
    8.6134  -12.7039   26.1836 C   0  0  0  0  0  0  0  0  0  0  0  0
    8.7046  -13.9104   25.5233 C   0  0  0  0  0  0  0  0  0  0  0  0
   10.0067  -14.3424   24.9991 C   0  0  0  0  0  0  0  0  0  0  0  0
    9.9861  -15.7602   24.4264 C   0  0  2  0  0  0  0  0  0  0  0  0
    8.9520  -15.7566   23.4064 N   0  0  0  0  0  0  0  0  0  0  0  0
    9.7427  -16.7838   25.4554 C   0  0  0  0  0  0  0  0  0  0  0  0
    8.6977  -17.4793   25.4660 O   0  0  0  0  0  0  0  0  0  0  0  0
    7.5564  -14.6569   25.3815 C   0  0  0  0  0  0  0  0  0  0  0  0
    6.3361  -14.2427   25.8717 C   0  0  0  0  0  0  0  0  0  0  0  0
   10.6713  -17.0279   26.4729 O   0  0  0  0  0  0  0  0  0  0  0  0
  2  1  1  6
  3  2  1  0
  4  2  1  0
  5  4  2  0
  7  6  1  1
  7  9  1  0
  7  8  1  0
  8  4  1  0
  9 18  1  0
 10  9  2  0
 12 22  2  0
 12 11  1  0
 13 12  1  0
 14 15  1  0
 14 13  2  0
 15 21  2  0
 16 15  1  0
 17 19  1  0
 17 16  1  1
 18 17  1  0
 19 20  2  0
 19 23  1  0
 21 22  1  0
M  END
$$$$
