AAY.pdb
     RDKit          3D

 23 23  0  0  1  0  0  0  0  0999 V2000
    7.2047  -19.1017   19.0159 C   0  0  0  0  0  0  0  0  0  0  0  0
    7.3719  -18.7719   20.4717 C   0  0  2  0  0  0  0  0  0  0  0  0
    6.1101  -18.7238   21.1505 N   0  0  0  0  0  0  0  0  0  0  0  0
    8.1628  -17.5193   20.6713 C   0  0  0  0  0  0  0  0  0  0  0  0
    9.4139  -17.4863   20.4893 O   0  0  0  0  0  0  0  0  0  0  0  0
    7.4054  -13.8553   20.9822 C   0  0  0  0  0  0  0  0  0  0  0  0
    8.2781  -15.0739   21.1586 C   0  0  2  0  0  0  0  0  0  0  0  0
    7.5534  -16.3005   21.0753 N   0  0  0  0  0  0  0  0  0  0  0  0
    9.0827  -14.9527   22.4011 C   0  0  0  0  0  0  0  0  0  0  0  0
    9.9071  -14.0188   22.5375 O   0  0  0  0  0  0  0  0  0  0  0  0
    5.9522  -10.9693   26.7124 O   0  0  0  0  0  0  0  0  0  0  0  0
    6.5923  -12.1789   26.4871 C   0  0  0  0  0  0  0  0  0  0  0  0
    7.9639  -12.2939   26.3818 C   0  0  0  0  0  0  0  0  0  0  0  0
    8.6035  -13.4948   26.1579 C   0  0  0  0  0  0  0  0  0  0  0  0
    7.8552  -14.6454   26.0305 C   0  0  0  0  0  0  0  0  0  0  0  0
    8.5406  -15.9212   25.7866 C   0  0  0  0  0  0  0  0  0  0  0  0
    9.6177  -15.8300   24.7049 C   0  0  2  0  0  0  0  0  0  0  0  0
    8.9101  -15.9075   23.4387 N   0  0  0  0  0  0  0  0  0  0  0  0
   10.6390  -16.8820   24.8316 C   0  0  0  0  0  0  0  0  0  0  0  0
   11.4794  -16.8827   25.7641 O   0  0  0  0  0  0  0  0  0  0  0  0
    6.4863  -14.5397   26.1341 C   0  0  0  0  0  0  0  0  0  0  0  0
    5.8491  -13.3377   26.3581 C   0  0  0  0  0  0  0  0  0  0  0  0
   10.7182  -17.9337   23.9125 O   0  0  0  0  0  0  0  0  0  0  0  0
  2  1  1  6
  3  2  1  0
  4  2  1  0
  5  4  2  0
  7  6  1  1
  7  9  1  0
  7  8  1  0
  8  4  1  0
  9 18  1  0
 10  9  2  0
 12 22  2  0
 12 11  1  0
 13 12  1  0
 14 15  1  0
 14 13  2  0
 15 21  2  0
 16 15  1  0
 17 19  1  0
 17 16  1  1
 18 17  1  0
 19 20  2  0
 19 23  1  0
 21 22  1  0
M  END
$$$$
