AAY.pdb
     RDKit          3D

 23 23  0  0  1  0  0  0  0  0999 V2000
    5.4178  -18.0357   21.8081 C   0  0  0  0  0  0  0  0  0  0  0  0
    6.0750  -17.6360   20.5179 C   0  0  2  0  0  0  0  0  0  0  0  0
    6.4586  -18.7802   19.7442 N   0  0  0  0  0  0  0  0  0  0  0  0
    7.2208  -16.7028   20.7428 C   0  0  0  0  0  0  0  0  0  0  0  0
    8.3991  -17.1266   20.9207 O   0  0  0  0  0  0  0  0  0  0  0  0
    7.8791  -13.0221   20.3597 C   0  0  0  0  0  0  0  0  0  0  0  0
    8.1432  -14.3914   20.9368 C   0  0  2  0  0  0  0  0  0  0  0  0
    7.0490  -15.2922   20.7687 N   0  0  0  0  0  0  0  0  0  0  0  0
    8.5942  -14.2752   22.3471 C   0  0  0  0  0  0  0  0  0  0  0  0
    8.1572  -13.3589   23.0819 O   0  0  0  0  0  0  0  0  0  0  0  0
    5.8190  -11.3631   27.3669 O   0  0  0  0  0  0  0  0  0  0  0  0
    6.4789  -12.4307   26.7766 C   0  0  0  0  0  0  0  0  0  0  0  0
    5.8360  -13.5899   26.3914 C   0  0  0  0  0  0  0  0  0  0  0  0
    6.4889  -14.6531   25.8042 C   0  0  0  0  0  0  0  0  0  0  0  0
    7.8472  -14.5733   25.5833 C   0  0  0  0  0  0  0  0  0  0  0  0
    8.5391  -15.7104   24.9627 C   0  0  0  0  0  0  0  0  0  0  0  0
    9.8462  -15.3175   24.2730 C   0  0  2  0  0  0  0  0  0  0  0  0
    9.5287  -15.2144   22.8593 N   0  0  0  0  0  0  0  0  0  0  0  0
   10.9319  -16.2782   24.5261 C   0  0  0  0  0  0  0  0  0  0  0  0
   11.1913  -17.2122   23.7285 O   0  0  0  0  0  0  0  0  0  0  0  0
    8.4963  -13.4205   25.9647 C   0  0  0  0  0  0  0  0  0  0  0  0
    7.8412  -12.3587   26.5516 C   0  0  0  0  0  0  0  0  0  0  0  0
   11.7271  -16.1919   25.6738 O   0  0  0  0  0  0  0  0  0  0  0  0
  2  1  1  1
  3  2  1  0
  4  2  1  0
  5  4  2  0
  7  6  1  1
  7  9  1  0
  7  8  1  0
  8  4  1  0
  9 18  1  0
 10  9  2  0
 12 22  2  0
 12 11  1  0
 13 12  1  0
 14 15  1  0
 14 13  2  0
 15 21  2  0
 16 15  1  0
 17 19  1  0
 17 16  1  1
 18 17  1  0
 19 20  2  0
 19 23  1  0
 21 22  1  0
M  END
$$$$
