AAY.pdb
     RDKit          3D

 23 23  0  0  1  0  0  0  0  0999 V2000
    8.5169  -12.1121   19.9037 C   0  0  0  0  0  0  0  0  0  0  0  0
    8.2719  -13.4579   19.2834 C   0  0  2  0  0  0  0  0  0  0  0  0
    7.1546  -13.4301   18.3858 N   0  0  0  0  0  0  0  0  0  0  0  0
    8.1336  -14.5298   20.3160 C   0  0  0  0  0  0  0  0  0  0  0  0
    7.0370  -14.7461   20.9077 O   0  0  0  0  0  0  0  0  0  0  0  0
    9.8614  -17.6681   21.2219 C   0  0  0  0  0  0  0  0  0  0  0  0
    9.0841  -16.4363   21.6171 C   0  0  2  0  0  0  0  0  0  0  0  0
    9.2240  -15.3619   20.6881 N   0  0  0  0  0  0  0  0  0  0  0  0
    9.4115  -16.0493   23.0131 C   0  0  0  0  0  0  0  0  0  0  0  0
   10.3629  -15.2691   23.2512 O   0  0  0  0  0  0  0  0  0  0  0  0
    6.2123  -10.5100   26.4918 O   0  0  0  0  0  0  0  0  0  0  0  0
    6.5378  -11.8549   26.3969 C   0  0  0  0  0  0  0  0  0  0  0  0
    7.8394  -12.3086   26.3229 C   0  0  0  0  0  0  0  0  0  0  0  0
    8.1665  -13.6448   26.2286 C   0  0  0  0  0  0  0  0  0  0  0  0
    7.1603  -14.5867   26.2058 C   0  0  0  0  0  0  0  0  0  0  0  0
    7.5135  -16.0084   26.0997 C   0  0  0  0  0  0  0  0  0  0  0  0
    8.8886  -16.2431   25.4732 C   0  0  2  0  0  0  0  0  0  0  0  0
    8.6350  -16.5724   24.0814 N   0  0  0  0  0  0  0  0  0  0  0  0
    9.6518  -17.2976   26.1596 C   0  0  0  0  0  0  0  0  0  0  0  0
    9.5812  -18.5017   25.8118 O   0  0  0  0  0  0  0  0  0  0  0  0
    5.8590  -14.1428   26.2791 C   0  0  0  0  0  0  0  0  0  0  0  0
    5.5346  -12.8061   26.3734 C   0  0  0  0  0  0  0  0  0  0  0  0
   10.4946  -17.0022   27.2365 O   0  0  0  0  0  0  0  0  0  0  0  0
  2  1  1  1
  3  2  1  0
  4  2  1  0
  5  4  2  0
  7  6  1  6
  7  9  1  0
  7  8  1  0
  8  4  1  0
  9 18  1  0
 10  9  2  0
 12 22  2  0
 12 11  1  0
 13 12  1  0
 14 15  1  0
 14 13  2  0
 15 21  2  0
 16 15  1  0
 17 19  1  0
 17 16  1  1
 18 17  1  0
 19 20  2  0
 19 23  1  0
 21 22  1  0
M  END
$$$$
