LLN.pdb
     RDKit          3D

 25 24  0  0  1  0  0  0  0  0999 V2000
   27.1632  -18.0648  -18.1082 C   0  0  0  0  0  0  0  0  0  0  0  0
   27.2479  -17.7824  -16.6271 C   0  0  2  0  0  0  0  0  0  0  0  0
   28.5811  -17.1168  -16.3436 C   0  0  0  0  0  0  0  0  0  0  0  0
   27.0706  -19.0419  -15.8249 C   0  0  0  0  0  0  0  0  0  0  0  0
   25.5716  -19.3284  -15.7632 C   0  0  2  0  0  0  0  0  0  0  0  0
   24.8832  -18.1190  -15.4555 N   0  0  0  0  0  0  0  0  0  0  0  0
   25.2992  -20.4329  -14.7893 C   0  0  0  0  0  0  0  0  0  0  0  0
   25.7250  -21.5720  -15.1044 O   0  0  0  0  0  0  0  0  0  0  0  0
   25.5016  -20.5343   -9.0516 C   0  0  0  0  0  0  0  0  0  0  0  0
   25.4792  -21.2885  -10.3926 C   0  0  2  0  0  0  0  0  0  0  0  0
   26.8692  -21.3826  -10.8908 C   0  0  0  0  0  0  0  0  0  0  0  0
   24.5038  -20.6502  -11.2889 C   0  0  0  0  0  0  0  0  0  0  0  0
   24.2589  -21.2139  -12.6257 C   0  0  2  0  0  0  0  0  0  0  0  0
   24.5965  -20.1536  -13.5955 N   0  0  0  0  0  0  0  0  0  0  0  0
   22.8731  -21.6265  -12.9401 C   0  0  0  0  0  0  0  0  0  0  0  0
   22.0943  -22.1463  -12.0517 O   0  0  0  0  0  0  0  0  0  0  0  0
   18.1848  -20.3871  -14.6545 N   0  0  0  0  0  0  0  0  0  0  0  0
   19.0802  -19.5035  -13.9750 C   0  0  0  0  0  0  0  0  0  0  0  0
   18.6013  -18.4107  -13.5347 O   0  0  0  0  0  0  0  0  0  0  0  0
   20.5044  -19.8419  -13.7863 C   0  0  0  0  0  0  0  0  0  0  0  0
   20.8252  -21.2322  -14.3497 C   0  0  2  0  0  0  0  0  0  0  0  0
   22.2501  -21.5037  -14.2149 N   0  0  0  0  0  0  0  0  0  0  0  0
   20.3893  -21.3076  -15.7483 C   0  0  0  0  0  0  0  0  0  0  0  0
   21.2675  -21.1673  -16.8399 O   0  0  0  0  0  0  0  0  0  0  0  0
   19.1825  -21.5057  -16.0124 O   0  0  0  0  0  0  0  0  0  0  0  0
  2  1  1  6
  2  3  1  0
  4  2  1  0
  4  5  1  0
  5  7  1  0
  5  6  1  1
  7  8  2  0
 10  9  1  1
 10 12  1  0
 11 10  1  0
 13 12  1  1
 14 13  1  0
 14  7  1  0
 15 16  2  0
 15 13  1  0
 17 18  1  0
 18 19  2  0
 18 20  1  0
 21 20  1  6
 21 23  1  0
 21 22  1  0
 22 15  1  0
 23 24  1  0
 25 23  2  0
M  END
$$$$
