LLN.pdb
     RDKit          3D

 25 24  0  0  1  0  0  0  0  0999 V2000
   27.2193  -21.1788  -17.8385 C   0  0  0  0  0  0  0  0  0  0  0  0
   28.0788  -21.2331  -16.5980 C   0  0  2  0  0  0  0  0  0  0  0  0
   29.2978  -22.0841  -16.8988 C   0  0  0  0  0  0  0  0  0  0  0  0
   27.3026  -21.7641  -15.4245 C   0  0  0  0  0  0  0  0  0  0  0  0
   26.0534  -20.8969  -15.2822 C   0  0  2  0  0  0  0  0  0  0  0  0
   26.4519  -19.5445  -15.0738 N   0  0  0  0  0  0  0  0  0  0  0  0
   25.1764  -21.4339  -14.1936 C   0  0  0  0  0  0  0  0  0  0  0  0
   24.7926  -22.6231  -14.3219 O   0  0  0  0  0  0  0  0  0  0  0  0
   26.1367  -22.0607  -10.0870 C   0  0  0  0  0  0  0  0  0  0  0  0
   25.8596  -20.5686  -10.3411 C   0  0  2  0  0  0  0  0  0  0  0  0
   26.2651  -19.8135   -9.1351 C   0  0  0  0  0  0  0  0  0  0  0  0
   24.4655  -20.4045  -10.7788 C   0  0  0  0  0  0  0  0  0  0  0  0
   23.9922  -21.0924  -11.9903 C   0  0  2  0  0  0  0  0  0  0  0  0
   24.8297  -20.6043  -13.1033 N   0  0  0  0  0  0  0  0  0  0  0  0
   22.5908  -20.8504  -12.3992 C   0  0  0  0  0  0  0  0  0  0  0  0
   21.5918  -21.1802  -11.6514 O   0  0  0  0  0  0  0  0  0  0  0  0
   18.2931  -18.5158  -14.7595 N   0  0  0  0  0  0  0  0  0  0  0  0
   19.2401  -19.1038  -15.6549 C   0  0  0  0  0  0  0  0  0  0  0  0
   18.8173  -19.4644  -16.7989 O   0  0  0  0  0  0  0  0  0  0  0  0
   20.6543  -19.2850  -15.2737 C   0  0  0  0  0  0  0  0  0  0  0  0
   20.7819  -20.1025  -13.9818 C   0  0  2  0  0  0  0  0  0  0  0  0
   22.1867  -20.2444  -13.6230 N   0  0  0  0  0  0  0  0  0  0  0  0
   20.1339  -21.4063  -14.1600 C   0  0  0  0  0  0  0  0  0  0  0  0
   20.7683  -22.5081  -14.7652 O   0  0  0  0  0  0  0  0  0  0  0  0
   18.9594  -21.5750  -13.7634 O   0  0  0  0  0  0  0  0  0  0  0  0
  2  1  1  6
  2  3  1  0
  4  2  1  0
  4  5  1  0
  5  7  1  0
  5  6  1  1
  7  8  2  0
 10  9  1  1
 10 12  1  0
 11 10  1  0
 13 12  1  1
 14 13  1  0
 14  7  1  0
 15 16  2  0
 15 13  1  0
 17 18  1  0
 18 19  2  0
 18 20  1  0
 21 20  1  6
 21 23  1  0
 21 22  1  0
 22 15  1  0
 23 24  1  0
 25 23  2  0
M  END
$$$$
