LLN.pdb
     RDKit          3D

 25 24  0  0  1  0  0  0  0  0999 V2000
   18.0680  -13.3820  -19.2967 C   0  0  0  0  0  0  0  0  0  0  0  0
   18.9621  -14.0878  -18.3053 C   0  0  2  0  0  0  0  0  0  0  0  0
   18.2258  -15.3061  -17.7816 C   0  0  0  0  0  0  0  0  0  0  0  0
   19.3733  -13.1628  -17.1932 C   0  0  0  0  0  0  0  0  0  0  0  0
   20.0944  -11.9796  -17.8359 C   0  0  2  0  0  0  0  0  0  0  0  0
   21.2437  -12.4606  -18.5280 N   0  0  0  0  0  0  0  0  0  0  0  0
   20.4124  -10.9469  -16.7991 C   0  0  0  0  0  0  0  0  0  0  0  0
   19.4957  -10.6729  -15.9851 O   0  0  0  0  0  0  0  0  0  0  0  0
   23.4075  -10.5951  -13.5842 C   0  0  0  0  0  0  0  0  0  0  0  0
   24.0770  -10.4283  -14.9595 C   0  0  2  0  0  0  0  0  0  0  0  0
   25.5415  -10.3776  -14.7551 C   0  0  0  0  0  0  0  0  0  0  0  0
   23.4724   -9.2823  -15.6546 C   0  0  0  0  0  0  0  0  0  0  0  0
   22.0166   -9.2369  -15.8633 C   0  0  2  0  0  0  0  0  0  0  0  0
   21.6906  -10.3446  -16.7828 N   0  0  0  0  0  0  0  0  0  0  0  0
   21.4625   -8.0145  -16.4865 C   0  0  0  0  0  0  0  0  0  0  0  0
   21.6235   -7.7505  -17.7396 O   0  0  0  0  0  0  0  0  0  0  0  0
   18.6325   -4.7138  -19.3294 N   0  0  0  0  0  0  0  0  0  0  0  0
   18.3212   -5.1169  -17.9934 C   0  0  0  0  0  0  0  0  0  0  0  0
   17.4563   -4.4308  -17.3621 O   0  0  0  0  0  0  0  0  0  0  0  0
   18.9722   -6.2841  -17.3672 C   0  0  0  0  0  0  0  0  0  0  0  0
   20.1646   -5.8579  -16.5011 C   0  0  2  0  0  0  0  0  0  0  0  0
   20.7095   -7.0160  -15.8053 N   0  0  0  0  0  0  0  0  0  0  0  0
   19.7412   -4.8123  -15.5636 C   0  0  0  0  0  0  0  0  0  0  0  0
   19.7416   -3.4411  -15.8839 O   0  0  0  0  0  0  0  0  0  0  0  0
   19.3558   -5.1269  -14.4156 O   0  0  0  0  0  0  0  0  0  0  0  0
  2  1  1  6
  2  3  1  0
  4  2  1  0
  4  5  1  0
  5  7  1  0
  5  6  1  1
  7  8  2  0
 10  9  1  1
 10 12  1  0
 11 10  1  0
 13 12  1  6
 14 13  1  0
 14  7  1  0
 15 16  2  0
 15 13  1  0
 17 18  1  0
 18 19  2  0
 18 20  1  0
 21 20  1  1
 21 23  1  0
 21 22  1  0
 22 15  1  0
 23 24  1  0
 25 23  2  0
M  END
$$$$
