HHV.pdb
     RDKit          3D

 28 29  0  0  1  0  0  0  0  0999 V2000
   21.3708  -15.4640  -17.6683 N   0  0  0  0  0  0  0  0  0  0  0  0
   21.0445  -14.0729  -17.8547 C   0  0  1  0  0  0  0  0  0  0  0  0
   19.5529  -13.8281  -17.8957 C   0  0  0  0  0  0  0  0  0  0  0  0
   19.0191  -14.5758  -19.0603 C   0  0  0  0  0  0  0  0  0  0  0  0
   19.5163  -14.5337  -20.3355 C   0  0  0  0  0  0  0  0  0  0  0  0
   18.8055  -15.3238  -21.1447 N   0  0  0  0  0  0  0  0  0  0  0  0
   17.8494  -15.8733  -20.3820 C   0  0  0  0  0  0  0  0  0  0  0  0
   17.9668  -15.4277  -19.1123 N   0  0  0  0  0  0  0  0  0  0  0  0
   21.7283  -13.2152  -16.8512 C   0  0  0  0  0  0  0  0  0  0  0  0
   21.3563  -13.2540  -15.6510 O   0  0  0  0  0  0  0  0  0  0  0  0
   22.7918  -12.3544  -17.2214 N   0  0  0  0  0  0  0  0  0  0  0  0
   23.4235  -11.5017  -16.1920 C   0  0  1  0  0  0  0  0  0  0  0  0
   24.9110  -11.6041  -16.3195 C   0  0  0  0  0  0  0  0  0  0  0  0
   25.5181  -12.8766  -15.9259 C   0  0  0  0  0  0  0  0  0  0  0  0
   24.7952  -13.9589  -15.4103 C   0  0  0  0  0  0  0  0  0  0  0  0
   25.6328  -14.9700  -15.1494 N   0  0  0  0  0  0  0  0  0  0  0  0
   26.8686  -14.5729  -15.4802 C   0  0  0  0  0  0  0  0  0  0  0  0
   26.7893  -13.3118  -15.9465 N   0  0  0  0  0  0  0  0  0  0  0  0
   22.8807  -10.1377  -16.2725 C   0  0  0  0  0  0  0  0  0  0  0  0
   23.2205   -9.3526  -17.2387 O   0  0  0  0  0  0  0  0  0  0  0  0
   19.2814   -9.1635  -15.0477 C   0  0  0  0  0  0  0  0  0  0  0  0
   20.0641   -8.3194  -15.9976 C   0  0  1  0  0  0  0  0  0  0  0  0
   19.4515   -6.9687  -16.1737 C   0  0  0  0  0  0  0  0  0  0  0  0
   21.4934   -8.1998  -15.4828 C   0  0  2  0  0  0  0  0  0  0  0  0
   21.9707   -9.5596  -15.3582 N   0  0  0  0  0  0  0  0  0  0  0  0
   21.5179   -7.4251  -14.2380 C   0  0  0  0  0  0  0  0  0  0  0  0
   21.5399   -7.9194  -13.0958 O   0  0  0  0  0  0  0  0  0  0  0  0
   21.5155   -6.0252  -14.3918 O   0  0  0  0  0  0  0  0  0  0  0  0
  2  9  1  0
  2  1  1  1
  3  2  1  0
  4  3  1  0
  5  4  2  0
  6  7  1  0
  6  5  1  0
  7  8  2  0
  8  4  1  0
  9 11  1  0
 10  9  2  0
 11 12  1  0
 12 13  1  6
 13 14  1  0
 14 18  1  0
 15 14  2  0
 15 16  1  0
 16 17  1  0
 18 17  2  0
 19 12  1  0
 19 20  2  0
 22 21  1  1
 22 24  1  0
 23 22  1  0
 24 26  1  0
 24 25  1  1
 25 19  1  0
 26 28  1  0
 27 26  2  0
M  END
$$$$
