HHV.pdb
     RDKit          3D

 28 29  0  0  1  0  0  0  0  0999 V2000
   26.4953  -19.4540  -16.1380 N   0  0  0  0  0  0  0  0  0  0  0  0
   27.1012  -18.8361  -14.9859 C   0  0  1  0  0  0  0  0  0  0  0  0
   27.5506  -17.4181  -15.2579 C   0  0  0  0  0  0  0  0  0  0  0  0
   28.3431  -17.4436  -16.5115 C   0  0  0  0  0  0  0  0  0  0  0  0
   29.5065  -18.1381  -16.7096 C   0  0  0  0  0  0  0  0  0  0  0  0
   29.9644  -17.9464  -17.9497 N   0  0  0  0  0  0  0  0  0  0  0  0
   29.0885  -17.1251  -18.5465 C   0  0  0  0  0  0  0  0  0  0  0  0
   28.0975  -16.8110  -17.6841 N   0  0  0  0  0  0  0  0  0  0  0  0
   26.2187  -18.9279  -13.7930 C   0  0  0  0  0  0  0  0  0  0  0  0
   25.5901  -17.9083  -13.4110 O   0  0  0  0  0  0  0  0  0  0  0  0
   26.0722  -20.1428  -13.0777 N   0  0  0  0  0  0  0  0  0  0  0  0
   25.1879  -20.1824  -11.8935 C   0  0  1  0  0  0  0  0  0  0  0  0
   23.9890  -21.0209  -12.2080 C   0  0  0  0  0  0  0  0  0  0  0  0
   22.9667  -21.1227  -11.1652 C   0  0  0  0  0  0  0  0  0  0  0  0
   21.8386  -20.2966  -11.0960 C   0  0  0  0  0  0  0  0  0  0  0  0
   21.1004  -20.6391  -10.0331 N   0  0  0  0  0  0  0  0  0  0  0  0
   21.7169  -21.6571   -9.4181 C   0  0  0  0  0  0  0  0  0  0  0  0
   22.8390  -21.9409  -10.1068 N   0  0  0  0  0  0  0  0  0  0  0  0
   25.9548  -20.6048  -10.7123 C   0  0  0  0  0  0  0  0  0  0  0  0
   26.7577  -21.6130  -10.7777 O   0  0  0  0  0  0  0  0  0  0  0  0
   26.5473  -18.9508   -6.4597 C   0  0  0  0  0  0  0  0  0  0  0  0
   27.3067  -19.5843   -7.5774 C   0  0  1  0  0  0  0  0  0  0  0  0
   28.5802  -20.2030   -7.1022 C   0  0  0  0  0  0  0  0  0  0  0  0
   26.4174  -20.6266   -8.2447 C   0  0  2  0  0  0  0  0  0  0  0  0
   25.9112  -19.9892   -9.4405 N   0  0  0  0  0  0  0  0  0  0  0  0
   25.3845  -21.0818   -7.3087 C   0  0  0  0  0  0  0  0  0  0  0  0
   24.1964  -20.7112   -7.3291 O   0  0  0  0  0  0  0  0  0  0  0  0
   25.8105  -22.0040   -6.3331 O   0  0  0  0  0  0  0  0  0  0  0  0
  2  9  1  0
  2  1  1  6
  3  2  1  0
  4  3  1  0
  5  4  2  0
  6  7  1  0
  6  5  1  0
  7  8  2  0
  8  4  1  0
  9 11  1  0
 10  9  2  0
 11 12  1  0
 12 13  1  6
 13 14  1  0
 14 18  1  0
 15 14  2  0
 15 16  1  0
 16 17  1  0
 18 17  2  0
 19 12  1  0
 19 20  2  0
 22 21  1  1
 22 24  1  0
 23 22  1  0
 24 26  1  0
 24 25  1  6
 25 19  1  0
 26 28  1  0
 27 26  2  0
M  END
$$$$
