HHV.pdb
     RDKit          3D

 28 29  0  0  1  0  0  0  0  0999 V2000
   23.1386  -16.6774  -18.7623 N   0  0  0  0  0  0  0  0  0  0  0  0
   23.4637  -17.8504  -17.9911 C   0  0  1  0  0  0  0  0  0  0  0  0
   24.9544  -18.0839  -17.8920 C   0  0  0  0  0  0  0  0  0  0  0  0
   25.4500  -18.3341  -19.2676 C   0  0  0  0  0  0  0  0  0  0  0  0
   25.1023  -19.3924  -20.0641 C   0  0  0  0  0  0  0  0  0  0  0  0
   25.7263  -19.3199  -21.2429 N   0  0  0  0  0  0  0  0  0  0  0  0
   26.4764  -18.2094  -21.1987 C   0  0  0  0  0  0  0  0  0  0  0  0
   26.3185  -17.5998  -20.0037 N   0  0  0  0  0  0  0  0  0  0  0  0
   22.8085  -17.8222  -16.6569 C   0  0  0  0  0  0  0  0  0  0  0  0
   23.0542  -16.8738  -15.8691 O   0  0  0  0  0  0  0  0  0  0  0  0
   21.9121  -18.8442  -16.2555 N   0  0  0  0  0  0  0  0  0  0  0  0
   21.2056  -18.7195  -14.9628 C   0  0  1  0  0  0  0  0  0  0  0  0
   19.7479  -18.5028  -15.2225 C   0  0  0  0  0  0  0  0  0  0  0  0
   19.3231  -17.1248  -15.4742 C   0  0  0  0  0  0  0  0  0  0  0  0
   20.1819  -16.0209  -15.4140 C   0  0  0  0  0  0  0  0  0  0  0  0
   19.4947  -14.9064  -15.6926 N   0  0  0  0  0  0  0  0  0  0  0  0
   18.2240  -15.2581  -15.9293 C   0  0  0  0  0  0  0  0  0  0  0  0
   18.1306  -16.5950  -15.7955 N   0  0  0  0  0  0  0  0  0  0  0  0
   21.5245  -19.8718  -14.1071 C   0  0  0  0  0  0  0  0  0  0  0  0
   21.3429  -21.0760  -14.5341 O   0  0  0  0  0  0  0  0  0  0  0  0
   22.5130  -19.4036  -10.1017 C   0  0  0  0  0  0  0  0  0  0  0  0
   23.1643  -20.5231  -10.8432 C   0  0  1  0  0  0  0  0  0  0  0  0
   23.4951  -21.6672   -9.9419 C   0  0  0  0  0  0  0  0  0  0  0  0
   22.2366  -20.9722  -11.9656 C   0  0  2  0  0  0  0  0  0  0  0  0
   22.0431  -19.8021  -12.7939 N   0  0  0  0  0  0  0  0  0  0  0  0
   21.0048  -21.5375  -11.4059 C   0  0  0  0  0  0  0  0  0  0  0  0
   19.9406  -20.9093  -11.2565 O   0  0  0  0  0  0  0  0  0  0  0  0
   21.0749  -22.8910  -11.0232 O   0  0  0  0  0  0  0  0  0  0  0  0
  2  9  1  0
  2  1  1  1
  3  2  1  0
  4  3  1  0
  5  4  2  0
  6  7  1  0
  6  5  1  0
  7  8  2  0
  8  4  1  0
  9 11  1  0
 10  9  2  0
 11 12  1  0
 12 13  1  6
 13 14  1  0
 14 18  1  0
 15 14  2  0
 15 16  1  0
 16 17  1  0
 18 17  2  0
 19 12  1  0
 19 20  2  0
 22 21  1  1
 22 24  1  0
 23 22  1  0
 24 26  1  0
 24 25  1  6
 25 19  1  0
 26 28  1  0
 27 26  2  0
M  END
$$$$
