HHV.pdb
     RDKit          3D

 28 29  0  0  1  0  0  0  0  0999 V2000
   17.3665  -14.8433  -17.6057 N   0  0  0  0  0  0  0  0  0  0  0  0
   17.0920  -13.8017  -16.6485 C   0  0  1  0  0  0  0  0  0  0  0  0
   17.1418  -14.2986  -15.2212 C   0  0  0  0  0  0  0  0  0  0  0  0
   16.0350  -15.2726  -15.0586 C   0  0  0  0  0  0  0  0  0  0  0  0
   14.7152  -14.9610  -14.8683 C   0  0  0  0  0  0  0  0  0  0  0  0
   13.9800  -16.0708  -14.7591 N   0  0  0  0  0  0  0  0  0  0  0  0
   14.8350  -17.0965  -14.8803 C   0  0  0  0  0  0  0  0  0  0  0  0
   16.0881  -16.6264  -15.0629 N   0  0  0  0  0  0  0  0  0  0  0  0
   17.9688  -12.6207  -16.8643 C   0  0  0  0  0  0  0  0  0  0  0  0
   19.2088  -12.7873  -16.9869 O   0  0  0  0  0  0  0  0  0  0  0  0
   17.4338  -11.3100  -16.9345 N   0  0  0  0  0  0  0  0  0  0  0  0
   18.3403  -10.1722  -17.1980 C   0  0  1  0  0  0  0  0  0  0  0  0
   17.5427   -9.0289  -17.7419 C   0  0  0  0  0  0  0  0  0  0  0  0
   17.1269   -9.1251  -19.1422 C   0  0  0  0  0  0  0  0  0  0  0  0
   17.6304  -10.0725  -20.0415 C   0  0  0  0  0  0  0  0  0  0  0  0
   17.0544   -9.9009  -21.2377 N   0  0  0  0  0  0  0  0  0  0  0  0
   16.1985   -8.8755  -21.1360 C   0  0  0  0  0  0  0  0  0  0  0  0
   16.2492   -8.4153  -19.8712 N   0  0  0  0  0  0  0  0  0  0  0  0
   19.1251   -9.8702  -15.9919 C   0  0  0  0  0  0  0  0  0  0  0  0
   18.5615   -9.8479  -14.8312 O   0  0  0  0  0  0  0  0  0  0  0  0
   23.2874   -9.6523  -16.0716 C   0  0  0  0  0  0  0  0  0  0  0  0
   22.5333  -10.2256  -14.9184 C   0  0  1  0  0  0  0  0  0  0  0  0
   23.3475  -10.2223  -13.6663 C   0  0  0  0  0  0  0  0  0  0  0  0
   21.2489   -9.4278  -14.7280 C   0  0  2  0  0  0  0  0  0  0  0  0
   20.5105   -9.5906  -15.9611 N   0  0  0  0  0  0  0  0  0  0  0  0
   21.5650   -8.0384  -14.3817 C   0  0  0  0  0  0  0  0  0  0  0  0
   21.9100   -7.6508  -13.2502 O   0  0  0  0  0  0  0  0  0  0  0  0
   21.4578   -7.1090  -15.4343 O   0  0  0  0  0  0  0  0  0  0  0  0
  2  9  1  0
  2  1  1  6
  3  2  1  0
  4  3  1  0
  5  4  2  0
  6  7  1  0
  6  5  1  0
  7  8  2  0
  8  4  1  0
  9 11  1  0
 10  9  2  0
 11 12  1  0
 12 13  1  1
 13 14  1  0
 14 18  1  0
 15 14  2  0
 15 16  1  0
 16 17  1  0
 18 17  2  0
 19 12  1  0
 19 20  2  0
 22 21  1  6
 22 24  1  0
 23 22  1  0
 24 26  1  0
 24 25  1  6
 25 19  1  0
 26 28  1  0
 27 26  2  0
M  END
$$$$
