HHV.pdb
     RDKit          3D

 28 29  0  0  1  0  0  0  0  0999 V2000
   16.2866  -13.1761  -17.9872 N   0  0  0  0  0  0  0  0  0  0  0  0
   16.6403  -11.8608  -18.4576 C   0  0  1  0  0  0  0  0  0  0  0  0
   15.6121  -10.8164  -18.0856 C   0  0  0  0  0  0  0  0  0  0  0  0
   14.6324  -11.4695  -17.1834 C   0  0  0  0  0  0  0  0  0  0  0  0
   14.6518  -12.7828  -16.7960 C   0  0  0  0  0  0  0  0  0  0  0  0
   13.6279  -13.0487  -15.9804 N   0  0  0  0  0  0  0  0  0  0  0  0
   12.9512  -11.8990  -15.8463 C   0  0  0  0  0  0  0  0  0  0  0  0
   13.5503  -10.9300  -16.5721 N   0  0  0  0  0  0  0  0  0  0  0  0
   18.0111  -11.4799  -18.0262 C   0  0  0  0  0  0  0  0  0  0  0  0
   18.5348  -12.0678  -17.0461 O   0  0  0  0  0  0  0  0  0  0  0  0
   18.7392  -10.4666  -18.6985 N   0  0  0  0  0  0  0  0  0  0  0  0
   20.0769  -10.0845  -18.1981 C   0  0  1  0  0  0  0  0  0  0  0  0
   20.8718   -9.5039  -19.3252 C   0  0  0  0  0  0  0  0  0  0  0  0
   22.2596   -9.1419  -19.0323 C   0  0  0  0  0  0  0  0  0  0  0  0
   23.3073  -10.0673  -18.9563 C   0  0  0  0  0  0  0  0  0  0  0  0
   24.4480   -9.4261  -18.6739 N   0  0  0  0  0  0  0  0  0  0  0  0
   24.1674   -8.1207  -18.5661 C   0  0  0  0  0  0  0  0  0  0  0  0
   22.8480   -7.9596  -18.7834 N   0  0  0  0  0  0  0  0  0  0  0  0
   19.9392   -9.2184  -17.0180 C   0  0  0  0  0  0  0  0  0  0  0  0
   18.9381   -8.4113  -16.9100 O   0  0  0  0  0  0  0  0  0  0  0  0
   20.3930  -10.2319  -13.3272 C   0  0  0  0  0  0  0  0  0  0  0  0
   21.2271   -9.0244  -13.5979 C   0  0  1  0  0  0  0  0  0  0  0  0
   22.6568   -9.3811  -13.8419 C   0  0  0  0  0  0  0  0  0  0  0  0
   20.6442   -8.2852  -14.7963 C   0  0  2  0  0  0  0  0  0  0  0  0
   20.8315   -9.1734  -15.9225 N   0  0  0  0  0  0  0  0  0  0  0  0
   21.2823   -6.9726  -14.9383 C   0  0  0  0  0  0  0  0  0  0  0  0
   22.1327   -6.6874  -15.8014 O   0  0  0  0  0  0  0  0  0  0  0  0
   20.8746   -5.9939  -14.0112 O   0  0  0  0  0  0  0  0  0  0  0  0
  2  9  1  0
  2  1  1  1
  3  2  1  0
  4  3  1  0
  5  4  2  0
  6  7  1  0
  6  5  1  0
  7  8  2  0
  8  4  1  0
  9 11  1  0
 10  9  2  0
 11 12  1  0
 12 13  1  6
 13 14  1  0
 14 18  1  0
 15 14  2  0
 15 16  1  0
 16 17  1  0
 18 17  2  0
 19 12  1  0
 19 20  2  0
 22 21  1  6
 22 24  1  0
 23 22  1  0
 24 26  1  0
 24 25  1  6
 25 19  1  0
 26 28  1  0
 27 26  2  0
M  END
$$$$
