HHV.pdb
     RDKit          3D

 28 29  0  0  1  0  0  0  0  0999 V2000
   28.7456  -22.3655  -17.9346 N   0  0  0  0  0  0  0  0  0  0  0  0
   28.1019  -22.8354  -16.7341 C   0  0  1  0  0  0  0  0  0  0  0  0
   29.0818  -23.4200  -15.7419 C   0  0  0  0  0  0  0  0  0  0  0  0
   29.5506  -24.7119  -16.3000 C   0  0  0  0  0  0  0  0  0  0  0  0
   30.8326  -24.9999  -16.6857 C   0  0  0  0  0  0  0  0  0  0  0  0
   30.9168  -26.2516  -17.1443 N   0  0  0  0  0  0  0  0  0  0  0  0
   29.6819  -26.7655  -17.0510 C   0  0  0  0  0  0  0  0  0  0  0  0
   28.8407  -25.8408  -16.5393 N   0  0  0  0  0  0  0  0  0  0  0  0
   27.2479  -21.7806  -16.1270 C   0  0  0  0  0  0  0  0  0  0  0  0
   27.7883  -20.7605  -15.6291 O   0  0  0  0  0  0  0  0  0  0  0  0
   25.8361  -21.9028  -16.0986 N   0  0  0  0  0  0  0  0  0  0  0  0
   25.0299  -20.8296  -15.4787 C   0  0  1  0  0  0  0  0  0  0  0  0
   24.0494  -20.3134  -16.4843 C   0  0  0  0  0  0  0  0  0  0  0  0
   23.0271  -19.3892  -15.9908 C   0  0  0  0  0  0  0  0  0  0  0  0
   22.9704  -18.9209  -14.6727 C   0  0  0  0  0  0  0  0  0  0  0  0
   21.9251  -18.0955  -14.5380 N   0  0  0  0  0  0  0  0  0  0  0  0
   21.3094  -18.0185  -15.7252 C   0  0  0  0  0  0  0  0  0  0  0  0
   21.9799  -18.8004  -16.5930 N   0  0  0  0  0  0  0  0  0  0  0  0
   24.4412  -21.3116  -14.2205 C   0  0  0  0  0  0  0  0  0  0  0  0
   23.7420  -22.3960  -14.1967 O   0  0  0  0  0  0  0  0  0  0  0  0
   26.2797  -21.5643  -11.0749 C   0  0  0  0  0  0  0  0  0  0  0  0
   24.9732  -20.9805  -10.6512 C   0  0  1  0  0  0  0  0  0  0  0  0
   25.0926  -19.5261  -10.3330 C   0  0  0  0  0  0  0  0  0  0  0  0
   23.9528  -21.2075  -11.7600 C   0  0  2  0  0  0  0  0  0  0  0  0
   24.5684  -20.6846  -12.9600 N   0  0  0  0  0  0  0  0  0  0  0  0
   22.6746  -20.5828  -11.4047 C   0  0  0  0  0  0  0  0  0  0  0  0
   22.2307  -19.5374  -11.9142 O   0  0  0  0  0  0  0  0  0  0  0  0
   21.9280  -21.2459  -10.4116 O   0  0  0  0  0  0  0  0  0  0  0  0
  2  9  1  0
  2  1  1  6
  3  2  1  0
  4  3  1  0
  5  4  2  0
  6  7  1  0
  6  5  1  0
  7  8  2  0
  8  4  1  0
  9 11  1  0
 10  9  2  0
 11 12  1  0
 12 13  1  6
 13 14  1  0
 14 18  1  0
 15 14  2  0
 15 16  1  0
 16 17  1  0
 18 17  2  0
 19 12  1  0
 19 20  2  0
 22 21  1  6
 22 24  1  0
 23 22  1  0
 24 26  1  0
 24 25  1  6
 25 19  1  0
 26 28  1  0
 27 26  2  0
M  END
$$$$
