HHV.pdb
     RDKit          3D

 28 29  0  0  1  0  0  0  0  0999 V2000
   25.9127  -17.2402  -18.6040 N   0  0  0  0  0  0  0  0  0  0  0  0
   26.2082  -17.8319  -17.3238 C   0  0  1  0  0  0  0  0  0  0  0  0
   27.4066  -17.1972  -16.6548 C   0  0  0  0  0  0  0  0  0  0  0  0
   28.5785  -17.4470  -17.5290 C   0  0  0  0  0  0  0  0  0  0  0  0
   28.5557  -18.1015  -18.7317 C   0  0  0  0  0  0  0  0  0  0  0  0
   29.7804  -18.1555  -19.2621 N   0  0  0  0  0  0  0  0  0  0  0  0
   30.5895  -17.5322  -18.3935 C   0  0  0  0  0  0  0  0  0  0  0  0
   29.8727  -17.0961  -17.3349 N   0  0  0  0  0  0  0  0  0  0  0  0
   25.0117  -17.8438  -16.4415 C   0  0  0  0  0  0  0  0  0  0  0  0
   24.5304  -16.7538  -16.0405 O   0  0  0  0  0  0  0  0  0  0  0  0
   24.4029  -19.0603  -16.0435 N   0  0  0  0  0  0  0  0  0  0  0  0
   23.1962  -19.0196  -15.1902 C   0  0  1  0  0  0  0  0  0  0  0  0
   21.9827  -18.9603  -16.0639 C   0  0  0  0  0  0  0  0  0  0  0  0
   20.6873  -18.8937  -15.3855 C   0  0  0  0  0  0  0  0  0  0  0  0
   20.5331  -18.9272  -13.9945 C   0  0  0  0  0  0  0  0  0  0  0  0
   19.2322  -18.8484  -13.6887 N   0  0  0  0  0  0  0  0  0  0  0  0
   18.5467  -18.7655  -14.8366 C   0  0  0  0  0  0  0  0  0  0  0  0
   19.4311  -18.7935  -15.8521 N   0  0  0  0  0  0  0  0  0  0  0  0
   23.2245  -20.1354  -14.2330 C   0  0  0  0  0  0  0  0  0  0  0  0
   23.3469  -21.3515  -14.6469 O   0  0  0  0  0  0  0  0  0  0  0  0
   25.4081  -20.8294  -11.5260 C   0  0  0  0  0  0  0  0  0  0  0  0
   24.0721  -20.9503  -10.8718 C   0  0  1  0  0  0  0  0  0  0  0  0
   23.7498  -19.7504  -10.0429 C   0  0  0  0  0  0  0  0  0  0  0  0
   23.0160  -21.1596  -11.9503 C   0  0  2  0  0  0  0  0  0  0  0  0
   23.1322  -20.0154  -12.8275 N   0  0  0  0  0  0  0  0  0  0  0  0
   21.6952  -21.3296  -11.3363 C   0  0  0  0  0  0  0  0  0  0  0  0
   20.8014  -20.4633  -11.3265 O   0  0  0  0  0  0  0  0  0  0  0  0
   21.4636  -22.5771  -10.7254 O   0  0  0  0  0  0  0  0  0  0  0  0
  2  9  1  0
  2  1  1  6
  3  2  1  0
  4  3  1  0
  5  4  2  0
  6  7  1  0
  6  5  1  0
  7  8  2  0
  8  4  1  0
  9 11  1  0
 10  9  2  0
 11 12  1  0
 12 13  1  6
 13 14  1  0
 14 18  1  0
 15 14  2  0
 15 16  1  0
 16 17  1  0
 18 17  2  0
 19 12  1  0
 19 20  2  0
 22 21  1  6
 22 24  1  0
 23 22  1  0
 24 26  1  0
 24 25  1  6
 25 19  1  0
 26 28  1  0
 27 26  2  0
M  END
$$$$
