HHV.pdb
     RDKit          3D

 28 29  0  0  1  0  0  0  0  0999 V2000
   27.5229  -18.4079  -18.4637 N   0  0  0  0  0  0  0  0  0  0  0  0
   27.6547  -17.5880  -17.2861 C   0  0  1  0  0  0  0  0  0  0  0  0
   27.9606  -16.1445  -17.6164 C   0  0  0  0  0  0  0  0  0  0  0  0
   29.1532  -16.1411  -18.4984 C   0  0  0  0  0  0  0  0  0  0  0  0
   30.4514  -15.9898  -18.0897 C   0  0  0  0  0  0  0  0  0  0  0  0
   31.2825  -16.0339  -19.1344 N   0  0  0  0  0  0  0  0  0  0  0  0
   30.5108  -16.2142  -20.2160 C   0  0  0  0  0  0  0  0  0  0  0  0
   29.2138  -16.2812  -19.8446 N   0  0  0  0  0  0  0  0  0  0  0  0
   26.4726  -17.7232  -16.3948 C   0  0  0  0  0  0  0  0  0  0  0  0
   26.4183  -17.0478  -15.3359 O   0  0  0  0  0  0  0  0  0  0  0  0
   25.4053  -18.5991  -16.7155 N   0  0  0  0  0  0  0  0  0  0  0  0
   24.2583  -18.7106  -15.7894 C   0  0  1  0  0  0  0  0  0  0  0  0
   22.9908  -18.7413  -16.5843 C   0  0  0  0  0  0  0  0  0  0  0  0
   21.7437  -18.8637  -15.8278 C   0  0  0  0  0  0  0  0  0  0  0  0
   21.6862  -18.9939  -14.4351 C   0  0  0  0  0  0  0  0  0  0  0  0
   20.4076  -19.0837  -14.0487 N   0  0  0  0  0  0  0  0  0  0  0  0
   19.6430  -19.0155  -15.1465 C   0  0  0  0  0  0  0  0  0  0  0  0
   20.4561  -18.8832  -16.2121 N   0  0  0  0  0  0  0  0  0  0  0  0
   24.4574  -19.8521  -14.8843 C   0  0  0  0  0  0  0  0  0  0  0  0
   24.5903  -21.0465  -15.3544 O   0  0  0  0  0  0  0  0  0  0  0  0
   25.1486  -19.4043  -10.7902 C   0  0  0  0  0  0  0  0  0  0  0  0
   25.7071  -20.5446  -11.5744 C   0  0  1  0  0  0  0  0  0  0  0  0
   26.0465  -21.7063  -10.6992 C   0  0  0  0  0  0  0  0  0  0  0  0
   24.6943  -20.9497  -12.6387 C   0  0  2  0  0  0  0  0  0  0  0  0
   24.5285  -19.7806  -13.4743 N   0  0  0  0  0  0  0  0  0  0  0  0
   23.4622  -21.4301  -12.0053 C   0  0  0  0  0  0  0  0  0  0  0  0
   23.3055  -22.5720  -11.5352 O   0  0  0  0  0  0  0  0  0  0  0  0
   22.4057  -20.5007  -11.9456 O   0  0  0  0  0  0  0  0  0  0  0  0
  2  9  1  0
  2  1  1  6
  3  2  1  0
  4  3  1  0
  5  4  2  0
  6  7  1  0
  6  5  1  0
  7  8  2  0
  8  4  1  0
  9 11  1  0
 10  9  2  0
 11 12  1  0
 12 13  1  6
 13 14  1  0
 14 18  1  0
 15 14  2  0
 15 16  1  0
 16 17  1  0
 18 17  2  0
 19 12  1  0
 19 20  2  0
 22 21  1  1
 22 24  1  0
 23 22  1  0
 24 26  1  0
 24 25  1  6
 25 19  1  0
 26 28  1  0
 27 26  2  0
M  END
$$$$
