DAF.pdb
     RDKit          3D

 25 25  0  0  1  0  0  0  0  0999 V2000
    6.6369  -18.3892   20.7778 N   0  0  0  0  0  0  0  0  0  0  0  0
    8.0200  -18.3624   20.3477 C   0  0  1  0  0  0  0  0  0  0  0  0
    8.0279  -18.6905   18.8705 C   0  0  0  0  0  0  0  0  0  0  0  0
    7.4798  -20.0656   18.7278 C   0  0  0  0  0  0  0  0  0  0  0  0
    7.9002  -21.0449   19.4134 O   0  0  0  0  0  0  0  0  0  0  0  0
    8.5595  -17.0144   20.6227 C   0  0  0  0  0  0  0  0  0  0  0  0
    9.7754  -16.7838   20.4430 O   0  0  0  0  0  0  0  0  0  0  0  0
    6.4592  -20.3646   17.8216 O   0  0  0  0  0  0  0  0  0  0  0  0
    7.1169  -13.5707   21.2196 C   0  0  0  0  0  0  0  0  0  0  0  0
    8.2312  -14.6192   21.3360 C   0  0  2  0  0  0  0  0  0  0  0  0
    7.7488  -15.9367   21.0932 N   0  0  0  0  0  0  0  0  0  0  0  0
    8.8694  -14.4871   22.6863 C   0  0  0  0  0  0  0  0  0  0  0  0
    9.5064  -13.4504   22.9941 O   0  0  0  0  0  0  0  0  0  0  0  0
    8.7795  -15.5165   23.6577 N   0  0  0  0  0  0  0  0  0  0  0  0
    9.3509  -15.4120   24.9856 C   0  0  1  0  0  0  0  0  0  0  0  0
    8.2993  -15.4853   26.0584 C   0  0  0  0  0  0  0  0  0  0  0  0
    7.6204  -14.1791   26.1662 C   0  0  0  0  0  0  0  0  0  0  0  0
    8.2722  -13.0286   26.5093 C   0  0  0  0  0  0  0  0  0  0  0  0
    7.6390  -11.7873   26.6193 C   0  0  0  0  0  0  0  0  0  0  0  0
    6.2786  -11.7771   26.3562 C   0  0  0  0  0  0  0  0  0  0  0  0
    5.6226  -12.9305   26.0115 C   0  0  0  0  0  0  0  0  0  0  0  0
    6.2624  -14.1429   25.9084 C   0  0  0  0  0  0  0  0  0  0  0  0
   10.3159  -16.5223   25.1527 C   0  0  0  0  0  0  0  0  0  0  0  0
   11.0105  -16.6500   26.1952 O   0  0  0  0  0  0  0  0  0  0  0  0
   10.5034  -17.4796   24.1668 O   0  0  0  0  0  0  0  0  0  0  0  0
  2  1  1  6
  2  6  1  0
  3  2  1  0
  3  4  1  0
  4  8  1  0
  5  4  2  0
  6  7  2  0
 10  9  1  1
 10 12  1  0
 11 10  1  0
 11  6  1  0
 12 13  2  0
 12 14  1  0
 14 15  1  0
 15 23  1  0
 15 16  1  1
 17 16  1  0
 17 22  2  0
 18 17  1  0
 19 18  2  0
 19 20  1  0
 20 21  2  0
 21 22  1  0
 23 24  2  0
 23 25  1  0
M  END
$$$$
