DAF.pdb
     RDKit          3D

 25 25  0  0  1  0  0  0  0  0999 V2000
    8.4401  -16.2584   19.7280 N   0  0  0  0  0  0  0  0  0  0  0  0
    8.2575  -14.9946   20.4123 C   0  0  1  0  0  0  0  0  0  0  0  0
    7.2729  -14.1889   19.5929 C   0  0  0  0  0  0  0  0  0  0  0  0
    7.8777  -14.0024   18.2470 C   0  0  0  0  0  0  0  0  0  0  0  0
    8.9959  -14.5031   17.9235 O   0  0  0  0  0  0  0  0  0  0  0  0
    7.7517  -15.2782   21.7715 C   0  0  0  0  0  0  0  0  0  0  0  0
    7.3517  -14.3388   22.4936 O   0  0  0  0  0  0  0  0  0  0  0  0
    7.2447  -13.2576   17.2486 O   0  0  0  0  0  0  0  0  0  0  0  0
    7.0340  -18.3923   23.8515 C   0  0  0  0  0  0  0  0  0  0  0  0
    7.2982  -16.8940   23.6523 C   0  0  2  0  0  0  0  0  0  0  0  0
    7.6939  -16.5969   22.3171 N   0  0  0  0  0  0  0  0  0  0  0  0
    8.3179  -16.4528   24.6590 C   0  0  0  0  0  0  0  0  0  0  0  0
    9.5309  -16.3707   24.3471 O   0  0  0  0  0  0  0  0  0  0  0  0
    7.9563  -16.1147   25.9880 N   0  0  0  0  0  0  0  0  0  0  0  0
    8.9135  -15.6984   26.9936 C   0  0  1  0  0  0  0  0  0  0  0  0
    8.3002  -14.7677   28.0034 C   0  0  0  0  0  0  0  0  0  0  0  0
    7.6947  -13.6182   27.3029 C   0  0  0  0  0  0  0  0  0  0  0  0
    6.3445  -13.4313   27.2102 C   0  0  0  0  0  0  0  0  0  0  0  0
    5.7598  -12.3496   26.5455 C   0  0  0  0  0  0  0  0  0  0  0  0
    6.6393  -11.4482   25.9674 C   0  0  0  0  0  0  0  0  0  0  0  0
    7.9945  -11.6338   26.0593 C   0  0  0  0  0  0  0  0  0  0  0  0
    8.5516  -12.7044   26.7176 C   0  0  0  0  0  0  0  0  0  0  0  0
    9.4157  -16.9144   27.6726 C   0  0  0  0  0  0  0  0  0  0  0  0
    8.8827  -18.0420   27.5000 O   0  0  0  0  0  0  0  0  0  0  0  0
   10.5012  -16.8720   28.5349 O   0  0  0  0  0  0  0  0  0  0  0  0
  2  1  1  6
  2  6  1  0
  3  2  1  0
  3  4  1  0
  4  8  1  0
  5  4  2  0
  6  7  2  0
 10  9  1  6
 10 12  1  0
 11 10  1  0
 11  6  1  0
 12 13  2  0
 12 14  1  0
 14 15  1  0
 15 23  1  0
 15 16  1  1
 17 16  1  0
 17 22  2  0
 18 17  1  0
 19 18  2  0
 19 20  1  0
 20 21  2  0
 21 22  1  0
 23 24  2  0
 23 25  1  0
M  END
$$$$
