DAF.pdb
     RDKit          3D

 25 25  0  0  1  0  0  0  0  0999 V2000
    6.6610  -18.3982   20.8836 N   0  0  0  0  0  0  0  0  0  0  0  0
    8.0908  -18.5102   20.6788 C   0  0  1  0  0  0  0  0  0  0  0  0
    8.2960  -18.9717   19.2522 C   0  0  0  0  0  0  0  0  0  0  0  0
    7.5790  -20.2665   19.1070 C   0  0  0  0  0  0  0  0  0  0  0  0
    7.8285  -21.2728   19.8356 O   0  0  0  0  0  0  0  0  0  0  0  0
    8.6949  -17.1850   20.9288 C   0  0  0  0  0  0  0  0  0  0  0  0
    9.9364  -17.0475   20.8699 O   0  0  0  0  0  0  0  0  0  0  0  0
    6.5780  -20.4543   18.1504 O   0  0  0  0  0  0  0  0  0  0  0  0
    7.4747  -13.6153   21.2688 C   0  0  0  0  0  0  0  0  0  0  0  0
    8.4737  -14.7488   21.5369 C   0  0  2  0  0  0  0  0  0  0  0  0
    7.9196  -16.0267   21.2411 N   0  0  0  0  0  0  0  0  0  0  0  0
    8.9393  -14.6461   22.9584 C   0  0  0  0  0  0  0  0  0  0  0  0
    9.5391  -13.6202   23.3625 O   0  0  0  0  0  0  0  0  0  0  0  0
    8.7228  -15.6918   23.8916 N   0  0  0  0  0  0  0  0  0  0  0  0
    9.1154  -15.6115   25.2846 C   0  0  1  0  0  0  0  0  0  0  0  0
    7.9295  -15.6704   26.2078 C   0  0  0  0  0  0  0  0  0  0  0  0
    7.3771  -14.3125   26.3797 C   0  0  0  0  0  0  0  0  0  0  0  0
    8.1384  -13.2423   26.7559 C   0  0  0  0  0  0  0  0  0  0  0  0
    7.6254  -11.9533   26.9265 C   0  0  0  0  0  0  0  0  0  0  0  0
    6.2681  -11.8063   26.6891 C   0  0  0  0  0  0  0  0  0  0  0  0
    5.5024  -12.8789   26.3114 C   0  0  0  0  0  0  0  0  0  0  0  0
    6.0247  -14.1401   26.1487 C   0  0  0  0  0  0  0  0  0  0  0  0
   10.0260  -16.7446   25.5651 C   0  0  0  0  0  0  0  0  0  0  0  0
   10.5318  -16.9265   26.7038 O   0  0  0  0  0  0  0  0  0  0  0  0
   10.3683  -17.6645   24.5852 O   0  0  0  0  0  0  0  0  0  0  0  0
  2  1  1  6
  2  6  1  0
  3  2  1  0
  3  4  1  0
  4  8  1  0
  5  4  2  0
  6  7  2  0
 10  9  1  1
 10 12  1  0
 11 10  1  0
 11  6  1  0
 12 13  2  0
 12 14  1  0
 14 15  1  0
 15 23  1  0
 15 16  1  1
 17 16  1  0
 17 22  2  0
 18 17  1  0
 19 18  2  0
 19 20  1  0
 20 21  2  0
 21 22  1  0
 23 24  2  0
 23 25  1  0
M  END
$$$$
