DAF.pdb
     RDKit          3D

 25 25  0  0  1  0  0  0  0  0999 V2000
    9.7255  -17.1921   19.1602 N   0  0  0  0  0  0  0  0  0  0  0  0
   10.0348  -17.9985   20.3233 C   0  0  1  0  0  0  0  0  0  0  0  0
   11.5432  -18.0797   20.4139 C   0  0  0  0  0  0  0  0  0  0  0  0
   12.0019  -18.9226   19.2777 C   0  0  0  0  0  0  0  0  0  0  0  0
   12.7717  -18.4878   18.3698 O   0  0  0  0  0  0  0  0  0  0  0  0
    9.4393  -17.3435   21.5066 C   0  0  0  0  0  0  0  0  0  0  0  0
    9.5468  -16.1060   21.6511 O   0  0  0  0  0  0  0  0  0  0  0  0
   11.6092  -20.2564   19.1405 O   0  0  0  0  0  0  0  0  0  0  0  0
    7.1312  -18.4114   24.3419 C   0  0  0  0  0  0  0  0  0  0  0  0
    8.1117  -17.4578   23.6462 C   0  0  2  0  0  0  0  0  0  0  0  0
    8.7317  -18.0639   22.5168 N   0  0  0  0  0  0  0  0  0  0  0  0
    9.1118  -16.9832   24.6574 C   0  0  0  0  0  0  0  0  0  0  0  0
   10.2197  -17.5601   24.7809 O   0  0  0  0  0  0  0  0  0  0  0  0
    8.8486  -15.8765   25.5043 N   0  0  0  0  0  0  0  0  0  0  0  0
    9.8442  -15.2845   26.3757 C   0  0  1  0  0  0  0  0  0  0  0  0
    9.8481  -13.7831   26.2874 C   0  0  0  0  0  0  0  0  0  0  0  0
    8.4625  -13.2848   26.3890 C   0  0  0  0  0  0  0  0  0  0  0  0
    7.5632  -13.3744   25.3645 C   0  0  0  0  0  0  0  0  0  0  0  0
    6.2504  -12.9018   25.4475 C   0  0  0  0  0  0  0  0  0  0  0  0
    5.8921  -12.3207   26.6533 C   0  0  0  0  0  0  0  0  0  0  0  0
    6.7929  -12.2299   27.6828 C   0  0  0  0  0  0  0  0  0  0  0  0
    8.0806  -12.7005   27.5827 C   0  0  0  0  0  0  0  0  0  0  0  0
    9.5405  -15.7045   27.7625 C   0  0  0  0  0  0  0  0  0  0  0  0
   10.2507  -15.3448   28.7381 O   0  0  0  0  0  0  0  0  0  0  0  0
    8.4559  -16.5172   28.0569 O   0  0  0  0  0  0  0  0  0  0  0  0
  2  1  1  6
  2  6  1  0
  3  2  1  0
  3  4  1  0
  4  8  1  0
  5  4  2  0
  6  7  2  0
 10  9  1  1
 10 12  1  0
 11 10  1  0
 11  6  1  0
 12 13  2  0
 12 14  1  0
 14 15  1  0
 15 23  1  0
 15 16  1  1
 17 16  1  0
 17 22  2  0
 18 17  1  0
 19 18  2  0
 19 20  1  0
 20 21  2  0
 21 22  1  0
 23 24  2  0
 23 25  1  0
M  END
$$$$
