DAF.pdb
     RDKit          3D

 25 25  0  0  1  0  0  0  0  0999 V2000
    9.5888  -14.7793   18.8285 N   0  0  0  0  0  0  0  0  0  0  0  0
    8.8433  -13.8075   19.6023 C   0  0  1  0  0  0  0  0  0  0  0  0
    7.7587  -13.2635   18.6980 C   0  0  0  0  0  0  0  0  0  0  0  0
    8.2655  -13.3629   17.3033 C   0  0  0  0  0  0  0  0  0  0  0  0
    7.5019  -13.3217   16.2928 O   0  0  0  0  0  0  0  0  0  0  0  0
    8.2889  -14.4937   20.7879 C   0  0  0  0  0  0  0  0  0  0  0  0
    7.5406  -13.8705   21.5725 O   0  0  0  0  0  0  0  0  0  0  0  0
    9.6257  -13.5092   17.0193 O   0  0  0  0  0  0  0  0  0  0  0  0
    8.1784  -18.0619   22.1014 C   0  0  0  0  0  0  0  0  0  0  0  0
    8.0863  -16.5373   22.2494 C   0  0  2  0  0  0  0  0  0  0  0  0
    8.5680  -15.8609   21.0928 N   0  0  0  0  0  0  0  0  0  0  0  0
    8.8230  -16.1347   23.4917 C   0  0  0  0  0  0  0  0  0  0  0  0
   10.0150  -15.7464   23.4310 O   0  0  0  0  0  0  0  0  0  0  0  0
    8.2091  -16.1762   24.7694 N   0  0  0  0  0  0  0  0  0  0  0  0
    8.8743  -15.7589   25.9878 C   0  0  1  0  0  0  0  0  0  0  0  0
    7.9081  -15.1897   26.9901 C   0  0  0  0  0  0  0  0  0  0  0  0
    7.4495  -13.8651   26.5279 C   0  0  0  0  0  0  0  0  0  0  0  0
    8.2715  -12.7760   26.4594 C   0  0  0  0  0  0  0  0  0  0  0  0
    7.8473  -11.5159   26.0281 C   0  0  0  0  0  0  0  0  0  0  0  0
    6.5144  -11.4192   25.6619 C   0  0  0  0  0  0  0  0  0  0  0  0
    5.6878  -12.5109   25.7297 C   0  0  0  0  0  0  0  0  0  0  0  0
    6.1231  -13.7430   26.1568 C   0  0  0  0  0  0  0  0  0  0  0  0
    9.5532  -16.9427   26.5620 C   0  0  0  0  0  0  0  0  0  0  0  0
   10.3341  -16.8509   27.5455 O   0  0  0  0  0  0  0  0  0  0  0  0
    9.3623  -18.2150   26.0440 O   0  0  0  0  0  0  0  0  0  0  0  0
  2  1  1  6
  2  6  1  0
  3  2  1  0
  3  4  1  0
  4  8  1  0
  5  4  2  0
  6  7  2  0
 10  9  1  6
 10 12  1  0
 11 10  1  0
 11  6  1  0
 12 13  2  0
 12 14  1  0
 14 15  1  0
 15 23  1  0
 15 16  1  1
 17 16  1  0
 17 22  2  0
 18 17  1  0
 19 18  2  0
 19 20  1  0
 20 21  2  0
 21 22  1  0
 23 24  2  0
 23 25  1  0
M  END
$$$$
