DAF.pdb
     RDKit          3D

 25 25  0  0  1  0  0  0  0  0999 V2000
    9.9401  -16.0166   19.2880 N   0  0  0  0  0  0  0  0  0  0  0  0
    8.7252  -15.3906   19.7687 C   0  0  1  0  0  0  0  0  0  0  0  0
    7.6165  -15.7975   18.8224 C   0  0  0  0  0  0  0  0  0  0  0  0
    7.8898  -17.2002   18.4104 C   0  0  0  0  0  0  0  0  0  0  0  0
    8.6913  -17.9545   19.0385 O   0  0  0  0  0  0  0  0  0  0  0  0
    8.4819  -15.8613   21.1482 C   0  0  0  0  0  0  0  0  0  0  0  0
    7.5097  -15.4134   21.7946 O   0  0  0  0  0  0  0  0  0  0  0  0
    7.2744  -17.7770   17.2965 O   0  0  0  0  0  0  0  0  0  0  0  0
    9.5471  -18.6850   23.3750 C   0  0  0  0  0  0  0  0  0  0  0  0
    9.1775  -17.2113   23.1600 C   0  0  2  0  0  0  0  0  0  0  0  0
    9.3162  -16.8218   21.7975 N   0  0  0  0  0  0  0  0  0  0  0  0
   10.0138  -16.3722   24.0792 C   0  0  0  0  0  0  0  0  0  0  0  0
   11.0502  -15.8022   23.6593 O   0  0  0  0  0  0  0  0  0  0  0  0
    9.6706  -16.1918   25.4433 N   0  0  0  0  0  0  0  0  0  0  0  0
   10.4170  -15.3393   26.3473 C   0  0  1  0  0  0  0  0  0  0  0  0
   10.2824  -13.8847   25.9892 C   0  0  0  0  0  0  0  0  0  0  0  0
    8.8954  -13.4467   26.2404 C   0  0  0  0  0  0  0  0  0  0  0  0
    7.8861  -13.6187   25.3358 C   0  0  0  0  0  0  0  0  0  0  0  0
    6.5704  -13.2037   25.5606 C   0  0  0  0  0  0  0  0  0  0  0  0
    6.3295  -12.5915   26.7802 C   0  0  0  0  0  0  0  0  0  0  0  0
    7.3409  -12.4181   27.6894 C   0  0  0  0  0  0  0  0  0  0  0  0
    8.6295  -12.8329   27.4506 C   0  0  0  0  0  0  0  0  0  0  0  0
    9.9015  -15.5685   27.7161 C   0  0  0  0  0  0  0  0  0  0  0  0
   10.3999  -14.9952   28.7203 O   0  0  0  0  0  0  0  0  0  0  0  0
    8.8412  -16.4283   27.9612 O   0  0  0  0  0  0  0  0  0  0  0  0
  2  1  1  6
  2  6  1  0
  3  2  1  0
  3  4  1  0
  4  8  1  0
  5  4  2  0
  6  7  2  0
 10  9  1  6
 10 12  1  0
 11 10  1  0
 11  6  1  0
 12 13  2  0
 12 14  1  0
 14 15  1  0
 15 23  1  0
 15 16  1  6
 17 16  1  0
 17 22  2  0
 18 17  1  0
 19 18  2  0
 19 20  1  0
 20 21  2  0
 21 22  1  0
 23 24  2  0
 23 25  1  0
M  END
$$$$
