DAF.pdb
     RDKit          3D

 25 25  0  0  1  0  0  0  0  0999 V2000
   11.5419  -17.4106   18.7587 N   0  0  0  0  0  0  0  0  0  0  0  0
   11.8555  -17.8839   20.0915 C   0  0  1  0  0  0  0  0  0  0  0  0
   13.2936  -17.5017   20.3671 C   0  0  0  0  0  0  0  0  0  0  0  0
   14.1417  -18.3145   19.4551 C   0  0  0  0  0  0  0  0  0  0  0  0
   14.9808  -17.7979   18.6584 O   0  0  0  0  0  0  0  0  0  0  0  0
   10.9173  -17.2446   21.0374 C   0  0  0  0  0  0  0  0  0  0  0  0
   11.3459  -16.4235   21.8775 O   0  0  0  0  0  0  0  0  0  0  0  0
   14.0647  -19.7092   19.4206 O   0  0  0  0  0  0  0  0  0  0  0  0
    7.1650  -17.4636   21.7394 C   0  0  0  0  0  0  0  0  0  0  0  0
    8.5881  -16.9290   21.9479 C   0  0  2  0  0  0  0  0  0  0  0  0
    9.5158  -17.5203   21.0440 N   0  0  0  0  0  0  0  0  0  0  0  0
    8.9727  -17.1465   23.3807 C   0  0  0  0  0  0  0  0  0  0  0  0
    9.7185  -18.1026   23.7047 O   0  0  0  0  0  0  0  0  0  0  0  0
    8.5144  -16.2904   24.4142 N   0  0  0  0  0  0  0  0  0  0  0  0
    8.9333  -16.4136   25.7963 C   0  0  1  0  0  0  0  0  0  0  0  0
    9.3227  -15.0863   26.3869 C   0  0  0  0  0  0  0  0  0  0  0  0
    8.1885  -14.1488   26.2703 C   0  0  0  0  0  0  0  0  0  0  0  0
    7.3159  -14.1647   25.2192 C   0  0  0  0  0  0  0  0  0  0  0  0
    6.2416  -13.2791   25.0957 C   0  0  0  0  0  0  0  0  0  0  0  0
    6.0978  -12.3564   26.1195 C   0  0  0  0  0  0  0  0  0  0  0  0
    6.9723  -12.3388   27.1752 C   0  0  0  0  0  0  0  0  0  0  0  0
    8.0238  -13.2182   27.2796 C   0  0  0  0  0  0  0  0  0  0  0  0
    7.8059  -16.9918   26.5621 C   0  0  0  0  0  0  0  0  0  0  0  0
    7.9347  -17.3647   27.7579 O   0  0  0  0  0  0  0  0  0  0  0  0
    6.5485  -17.1519   25.9992 O   0  0  0  0  0  0  0  0  0  0  0  0
  2  1  1  6
  2  6  1  0
  3  2  1  0
  3  4  1  0
  4  8  1  0
  5  4  2  0
  6  7  2  0
 10  9  1  1
 10 12  1  0
 11 10  1  0
 11  6  1  0
 12 13  2  0
 12 14  1  0
 14 15  1  0
 15 23  1  0
 15 16  1  1
 17 16  1  0
 17 22  2  0
 18 17  1  0
 19 18  2  0
 19 20  1  0
 20 21  2  0
 21 22  1  0
 23 24  2  0
 23 25  1  0
M  END
$$$$
