DAF.pdb
     RDKit          3D

 25 25  0  0  1  0  0  0  0  0999 V2000
    8.0629  -13.2218   18.4460 N   0  0  0  0  0  0  0  0  0  0  0  0
    8.9439  -14.0418   19.2525 C   0  0  1  0  0  0  0  0  0  0  0  0
   10.1434  -13.1875   19.6012 C   0  0  0  0  0  0  0  0  0  0  0  0
   11.2472  -13.5965   18.6922 C   0  0  0  0  0  0  0  0  0  0  0  0
   11.0719  -14.3797   17.7115 O   0  0  0  0  0  0  0  0  0  0  0  0
    8.1977  -14.4724   20.4531 C   0  0  0  0  0  0  0  0  0  0  0  0
    7.6013  -13.6233   21.1510 O   0  0  0  0  0  0  0  0  0  0  0  0
   12.5558  -13.1386   18.8653 O   0  0  0  0  0  0  0  0  0  0  0  0
    7.0165  -17.7711   21.8959 C   0  0  0  0  0  0  0  0  0  0  0  0
    7.3888  -16.2865   22.0050 C   0  0  2  0  0  0  0  0  0  0  0  0
    8.1193  -15.8367   20.8686 N   0  0  0  0  0  0  0  0  0  0  0  0
    8.1423  -16.0778   23.2844 C   0  0  0  0  0  0  0  0  0  0  0  0
    9.3966  -16.0305   23.2876 O   0  0  0  0  0  0  0  0  0  0  0  0
    7.4754  -15.9275   24.5268 N   0  0  0  0  0  0  0  0  0  0  0  0
    8.1634  -15.8910   25.8021 C   0  0  1  0  0  0  0  0  0  0  0  0
    7.3330  -15.2357   26.8712 C   0  0  0  0  0  0  0  0  0  0  0  0
    7.2079  -13.7947   26.5771 C   0  0  0  0  0  0  0  0  0  0  0  0
    8.2388  -13.0436   26.0874 C   0  0  0  0  0  0  0  0  0  0  0  0
    8.1335  -11.6777   25.8099 C   0  0  0  0  0  0  0  0  0  0  0  0
    6.8980  -11.1030   26.0619 C   0  0  0  0  0  0  0  0  0  0  0  0
    5.8622  -11.8549   26.5531 C   0  0  0  0  0  0  0  0  0  0  0  0
    5.9845  -13.1979   26.8202 C   0  0  0  0  0  0  0  0  0  0  0  0
    8.4717  -17.2858   26.1911 C   0  0  0  0  0  0  0  0  0  0  0  0
    7.9464  -18.2713   25.6094 O   0  0  0  0  0  0  0  0  0  0  0  0
    9.3568  -17.5773   27.2184 O   0  0  0  0  0  0  0  0  0  0  0  0
  2  1  1  6
  2  6  1  0
  3  2  1  0
  3  4  1  0
  4  8  1  0
  5  4  2  0
  6  7  2  0
 10  9  1  6
 10 12  1  0
 11 10  1  0
 11  6  1  0
 12 13  2  0
 12 14  1  0
 14 15  1  0
 15 23  1  0
 15 16  1  1
 17 16  1  0
 17 22  2  0
 18 17  1  0
 19 18  2  0
 19 20  1  0
 20 21  2  0
 21 22  1  0
 23 24  2  0
 23 25  1  0
M  END
$$$$
