DAF.pdb
     RDKit          3D

 25 25  0  0  1  0  0  0  0  0999 V2000
    7.0319  -15.9172   19.4705 N   0  0  0  0  0  0  0  0  0  0  0  0
    8.0184  -15.2584   20.3021 C   0  0  1  0  0  0  0  0  0  0  0  0
    7.7496  -13.7720   20.2099 C   0  0  0  0  0  0  0  0  0  0  0  0
    8.1549  -13.3410   18.8454 C   0  0  0  0  0  0  0  0  0  0  0  0
    9.2373  -13.7147   18.3025 O   0  0  0  0  0  0  0  0  0  0  0  0
    7.8690  -15.7677   21.6812 C   0  0  0  0  0  0  0  0  0  0  0  0
    6.8844  -15.4188   22.3687 O   0  0  0  0  0  0  0  0  0  0  0  0
    7.3606  -12.4907   18.0720 O   0  0  0  0  0  0  0  0  0  0  0  0
    9.1876  -18.6565   23.6533 C   0  0  0  0  0  0  0  0  0  0  0  0
    8.6612  -17.2167   23.5856 C   0  0  2  0  0  0  0  0  0  0  0  0
    8.8098  -16.6571   22.2848 N   0  0  0  0  0  0  0  0  0  0  0  0
    9.3581  -16.4056   24.6366 C   0  0  0  0  0  0  0  0  0  0  0  0
   10.4424  -15.8264   24.3832 O   0  0  0  0  0  0  0  0  0  0  0  0
    8.8258  -16.2625   25.9433 N   0  0  0  0  0  0  0  0  0  0  0  0
    9.4834  -15.5120   26.9945 C   0  0  1  0  0  0  0  0  0  0  0  0
    8.5010  -14.7513   27.8421 C   0  0  0  0  0  0  0  0  0  0  0  0
    7.8808  -13.6848   27.0319 C   0  0  0  0  0  0  0  0  0  0  0  0
    6.5292  -13.5032   26.9511 C   0  0  0  0  0  0  0  0  0  0  0  0
    5.9306  -12.5000   26.1835 C   0  0  0  0  0  0  0  0  0  0  0  0
    6.7975  -11.6731   25.4872 C   0  0  0  0  0  0  0  0  0  0  0  0
    8.1542  -11.8535   25.5669 C   0  0  0  0  0  0  0  0  0  0  0  0
    8.7251  -12.8462   26.3275 C   0  0  0  0  0  0  0  0  0  0  0  0
   10.2336  -16.4720   27.8358 C   0  0  0  0  0  0  0  0  0  0  0  0
   10.9811  -16.0920   28.7751 O   0  0  0  0  0  0  0  0  0  0  0  0
   10.1501  -17.8411   27.6307 O   0  0  0  0  0  0  0  0  0  0  0  0
  2  1  1  6
  2  6  1  0
  3  2  1  0
  3  4  1  0
  4  8  1  0
  5  4  2  0
  6  7  2  0
 10  9  1  6
 10 12  1  0
 11 10  1  0
 11  6  1  0
 12 13  2  0
 12 14  1  0
 14 15  1  0
 15 23  1  0
 15 16  1  1
 17 16  1  0
 17 22  2  0
 18 17  1  0
 19 18  2  0
 19 20  1  0
 20 21  2  0
 21 22  1  0
 23 24  2  0
 23 25  1  0
M  END
$$$$
