DAF.pdb
     RDKit          3D

 25 25  0  0  1  0  0  0  0  0999 V2000
    7.6523  -13.1188   18.5574 N   0  0  0  0  0  0  0  0  0  0  0  0
    8.7226  -13.9139   19.1238 C   0  0  1  0  0  0  0  0  0  0  0  0
    9.9401  -13.0188   19.2052 C   0  0  0  0  0  0  0  0  0  0  0  0
   11.0913  -13.8837   19.5773 C   0  0  0  0  0  0  0  0  0  0  0  0
   11.0664  -15.1451   19.4589 O   0  0  0  0  0  0  0  0  0  0  0  0
    8.2877  -14.3864   20.4547 C   0  0  0  0  0  0  0  0  0  0  0  0
    7.9693  -13.5568   21.3345 O   0  0  0  0  0  0  0  0  0  0  0  0
   12.2807  -13.3541   20.0844 O   0  0  0  0  0  0  0  0  0  0  0  0
    7.2816  -17.7620   21.8875 C   0  0  0  0  0  0  0  0  0  0  0  0
    7.6112  -16.2669   21.9909 C   0  0  2  0  0  0  0  0  0  0  0  0
    8.2096  -15.7707   20.7979 N   0  0  0  0  0  0  0  0  0  0  0  0
    8.4800  -16.0535   23.1941 C   0  0  0  0  0  0  0  0  0  0  0  0
    9.7267  -15.9688   23.0760 O   0  0  0  0  0  0  0  0  0  0  0  0
    7.9338  -15.9403   24.4980 N   0  0  0  0  0  0  0  0  0  0  0  0
    8.7411  -15.7559   25.6876 C   0  0  1  0  0  0  0  0  0  0  0  0
    7.9455  -15.1724   26.8228 C   0  0  0  0  0  0  0  0  0  0  0  0
    7.4832  -13.8210   26.4507 C   0  0  0  0  0  0  0  0  0  0  0  0
    6.1650  -13.4619   26.4434 C   0  0  0  0  0  0  0  0  0  0  0  0
    5.7153  -12.1870   26.0882 C   0  0  0  0  0  0  0  0  0  0  0  0
    6.6977  -11.2764   25.7333 C   0  0  0  0  0  0  0  0  0  0  0  0
    8.0210  -11.6346   25.7401 C   0  0  0  0  0  0  0  0  0  0  0  0
    8.4447  -12.8940   26.0924 C   0  0  0  0  0  0  0  0  0  0  0  0
    9.2792  -17.0781   26.0800 C   0  0  0  0  0  0  0  0  0  0  0  0
    8.8413  -18.1494   25.5840 O   0  0  0  0  0  0  0  0  0  0  0  0
   10.2951  -17.2030   27.0159 O   0  0  0  0  0  0  0  0  0  0  0  0
  2  1  1  1
  2  6  1  0
  3  2  1  0
  3  4  1  0
  4  8  1  0
  5  4  2  0
  6  7  2  0
 10  9  1  6
 10 12  1  0
 11 10  1  0
 11  6  1  0
 12 13  2  0
 12 14  1  0
 14 15  1  0
 15 23  1  0
 15 16  1  1
 17 16  1  0
 17 22  2  0
 18 17  1  0
 19 18  2  0
 19 20  1  0
 20 21  2  0
 21 22  1  0
 23 24  2  0
 23 25  1  0
M  END
$$$$
