DAF.pdb
     RDKit          3D

 25 25  0  0  1  0  0  0  0  0999 V2000
    6.5169  -15.9418   19.5146 N   0  0  0  0  0  0  0  0  0  0  0  0
    7.5674  -15.3429   20.3124 C   0  0  1  0  0  0  0  0  0  0  0  0
    7.4985  -13.8490   20.0805 C   0  0  0  0  0  0  0  0  0  0  0  0
    8.5340  -13.5187   19.0654 C   0  0  0  0  0  0  0  0  0  0  0  0
    9.5717  -14.2249   18.8909 O   0  0  0  0  0  0  0  0  0  0  0  0
    7.3288  -15.6995   21.7265 C   0  0  0  0  0  0  0  0  0  0  0  0
    6.3547  -15.2054   22.3355 O   0  0  0  0  0  0  0  0  0  0  0  0
    8.4254  -12.4002   18.2351 O   0  0  0  0  0  0  0  0  0  0  0  0
    8.1242  -18.5222   23.9711 C   0  0  0  0  0  0  0  0  0  0  0  0
    7.9317  -17.0103   23.7934 C   0  0  2  0  0  0  0  0  0  0  0  0
    8.1696  -16.5982   22.4514 N   0  0  0  0  0  0  0  0  0  0  0  0
    8.8181  -16.2997   24.7720 C   0  0  0  0  0  0  0  0  0  0  0  0
    9.9988  -16.0026   24.4668 O   0  0  0  0  0  0  0  0  0  0  0  0
    8.3627  -15.9396   26.0658 N   0  0  0  0  0  0  0  0  0  0  0  0
    9.2085  -15.3155   27.0639 C   0  0  1  0  0  0  0  0  0  0  0  0
    8.4231  -14.4335   27.9953 C   0  0  0  0  0  0  0  0  0  0  0  0
    7.7250  -13.3956   27.2116 C   0  0  0  0  0  0  0  0  0  0  0  0
    6.3725  -13.3934   27.0190 C   0  0  0  0  0  0  0  0  0  0  0  0
    5.7013  -12.4188   26.2751 C   0  0  0  0  0  0  0  0  0  0  0  0
    6.4949  -11.4247   25.7254 C   0  0  0  0  0  0  0  0  0  0  0  0
    7.8523  -11.4249   25.9175 C   0  0  0  0  0  0  0  0  0  0  0  0
    8.4952  -12.3924   26.6527 C   0  0  0  0  0  0  0  0  0  0  0  0
    9.8721  -16.3921   27.8334 C   0  0  0  0  0  0  0  0  0  0  0  0
   10.7294  -16.1447   28.7218 O   0  0  0  0  0  0  0  0  0  0  0  0
    9.5819  -17.7304   27.6136 O   0  0  0  0  0  0  0  0  0  0  0  0
  2  1  1  6
  2  6  1  0
  3  2  1  0
  3  4  1  0
  4  8  1  0
  5  4  2  0
  6  7  2  0
 10  9  1  6
 10 12  1  0
 11 10  1  0
 11  6  1  0
 12 13  2  0
 12 14  1  0
 14 15  1  0
 15 23  1  0
 15 16  1  1
 17 16  1  0
 17 22  2  0
 18 17  1  0
 19 18  2  0
 19 20  1  0
 20 21  2  0
 21 22  1  0
 23 24  2  0
 23 25  1  0
M  END
$$$$
