DAF.pdb
     RDKit          3D

 25 25  0  0  1  0  0  0  0  0999 V2000
   11.1060  -17.4491   16.1815 N   0  0  0  0  0  0  0  0  0  0  0  0
    9.8701  -16.7424   16.4495 C   0  0  1  0  0  0  0  0  0  0  0  0
    8.8592  -17.2219   15.4306 C   0  0  0  0  0  0  0  0  0  0  0  0
    9.4010  -16.8822   14.0879 C   0  0  0  0  0  0  0  0  0  0  0  0
   10.2513  -17.6064   13.4893 O   0  0  0  0  0  0  0  0  0  0  0  0
    9.4563  -17.0516   17.8341 C   0  0  0  0  0  0  0  0  0  0  0  0
    8.4149  -16.5394   18.2999 O   0  0  0  0  0  0  0  0  0  0  0  0
    9.0023  -15.7342   13.3984 O   0  0  0  0  0  0  0  0  0  0  0  0
   10.4439  -19.5841   20.4757 C   0  0  0  0  0  0  0  0  0  0  0  0
    9.8113  -18.2641   20.0153 C   0  0  2  0  0  0  0  0  0  0  0  0
   10.1984  -17.9236   18.6880 N   0  0  0  0  0  0  0  0  0  0  0  0
   10.1690  -17.1950   21.0038 C   0  0  0  0  0  0  0  0  0  0  0  0
   11.2861  -16.6250   20.9533 O   0  0  0  0  0  0  0  0  0  0  0  0
    9.2696  -16.7903   22.0229 N   0  0  0  0  0  0  0  0  0  0  0  0
    9.5286  -15.6829   22.9215 C   0  0  1  0  0  0  0  0  0  0  0  0
    8.3251  -14.7953   23.0824 C   0  0  0  0  0  0  0  0  0  0  0  0
    7.9872  -14.1904   21.7791 C   0  0  0  0  0  0  0  0  0  0  0  0
    7.0109  -14.6843   20.9610 C   0  0  0  0  0  0  0  0  0  0  0  0
    6.6856  -14.1228   19.7229 C   0  0  0  0  0  0  0  0  0  0  0  0
    7.4211  -13.0085   19.3524 C   0  0  0  0  0  0  0  0  0  0  0  0
    8.4012  -12.5111   20.1719 C   0  0  0  0  0  0  0  0  0  0  0  0
    8.7073  -13.0770   21.3868 C   0  0  0  0  0  0  0  0  0  0  0  0
    9.9157  -16.2457   24.2350 C   0  0  0  0  0  0  0  0  0  0  0  0
    9.6911  -17.4473   24.5372 O   0  0  0  0  0  0  0  0  0  0  0  0
   10.5467  -15.4756   25.2006 O   0  0  0  0  0  0  0  0  0  0  0  0
  2  1  1  6
  2  6  1  0
  3  2  1  0
  3  4  1  0
  4  8  1  0
  5  4  2  0
  6  7  2  0
 10  9  1  1
 10 12  1  0
 11 10  1  0
 11  6  1  0
 12 13  2  0
 12 14  1  0
 14 15  1  0
 15 23  1  0
 15 16  1  1
 17 16  1  0
 17 22  2  0
 18 17  1  0
 19 18  2  0
 19 20  1  0
 20 21  2  0
 21 22  1  0
 23 24  2  0
 23 25  1  0
M  END
$$$$
