QGE.pdb
     RDKit          3D

 23 22  0  0  1  0  0  0  0  0999 V2000
    8.2653  -12.8571   18.3153 N   0  0  0  0  0  0  0  0  0  0  0  0
    8.2362  -12.6751   19.7335 C   0  0  0  0  0  0  0  0  0  0  0  0
    9.3071  -12.1512   20.1958 O   0  0  0  0  0  0  0  0  0  0  0  0
    7.0954  -13.0567   20.5618 C   0  0  0  0  0  0  0  0  0  0  0  0
    6.5107  -14.4072   20.3075 C   0  0  0  0  0  0  0  0  0  0  0  0
    7.3342  -15.5687   20.7774 C   0  0  2  0  0  0  0  0  0  0  0  0
    7.0510  -16.8025   20.0956 N   0  0  0  0  0  0  0  0  0  0  0  0
    7.2949  -15.7573   22.2193 C   0  0  0  0  0  0  0  0  0  0  0  0
    7.5988  -14.7485   22.9443 O   0  0  0  0  0  0  0  0  0  0  0  0
    6.9443  -16.9691   22.8225 N   0  0  0  0  0  0  0  0  0  0  0  0
    6.7628  -17.0715   24.2570 C   0  0  0  0  0  0  0  0  0  0  0  0
    8.1321  -17.2364   24.8639 C   0  0  0  0  0  0  0  0  0  0  0  0
    9.1664  -17.3025   24.1495 O   0  0  0  0  0  0  0  0  0  0  0  0
    8.2748  -17.3203   26.2641 N   0  0  0  0  0  0  0  0  0  0  0  0
    9.6166  -17.2212   26.8961 C   0  0  1  0  0  0  0  0  0  0  0  0
    9.5504  -15.9596   27.6806 C   0  0  0  0  0  0  0  0  0  0  0  0
    9.0798  -14.7244   27.0329 C   0  0  0  0  0  0  0  0  0  0  0  0
    9.1034  -13.5141   27.8479 C   0  0  0  0  0  0  0  0  0  0  0  0
    9.4806  -13.5380   29.0371 O   0  0  0  0  0  0  0  0  0  0  0  0
    9.8772  -18.4771   27.5686 C   0  0  0  0  0  0  0  0  0  0  0  0
    8.9135  -19.4661   27.6232 O   0  0  0  0  0  0  0  0  0  0  0  0
    8.6929  -12.3186   27.2676 O   0  0  0  0  0  0  0  0  0  0  0  0
   10.9814  -18.7018   28.1185 O   0  0  0  0  0  0  0  0  0  0  0  0
  1  2  1  0
  2  3  2  0
  4  2  1  0
  4  5  1  0
  6  5  1  0
  6  8  1  0
  6  7  1  6
  8 10  1  0
  9  8  2  0
 10 11  1  0
 12 11  1  0
 12 13  2  0
 14 12  1  0
 15 14  1  0
 15 20  1  0
 15 16  1  1
 17 18  1  0
 17 16  1  0
 18 22  1  0
 18 19  2  0
 20 23  2  0
 20 21  1  0
M  END
$$$$
