QGE.pdb
     RDKit          3D

 23 22  0  0  1  0  0  0  0  0999 V2000
    8.4142  -11.6968   20.1005 N   0  0  0  0  0  0  0  0  0  0  0  0
    8.7582  -12.7112   19.1529 C   0  0  0  0  0  0  0  0  0  0  0  0
    9.7741  -12.4085   18.4379 O   0  0  0  0  0  0  0  0  0  0  0  0
    8.0149  -13.9614   19.0200 C   0  0  0  0  0  0  0  0  0  0  0  0
    7.0151  -14.2579   20.0891 C   0  0  0  0  0  0  0  0  0  0  0  0
    7.2926  -15.4778   20.9154 C   0  0  2  0  0  0  0  0  0  0  0  0
    6.2075  -15.8618   21.7771 N   0  0  0  0  0  0  0  0  0  0  0  0
    8.5384  -15.3971   21.6621 C   0  0  0  0  0  0  0  0  0  0  0  0
    9.6214  -15.3772   20.9822 O   0  0  0  0  0  0  0  0  0  0  0  0
    8.5906  -15.3401   23.0583 N   0  0  0  0  0  0  0  0  0  0  0  0
    9.2457  -16.3773   23.8303 C   0  0  0  0  0  0  0  0  0  0  0  0
    8.9877  -16.0744   25.2837 C   0  0  0  0  0  0  0  0  0  0  0  0
    7.8602  -16.2701   25.8080 O   0  0  0  0  0  0  0  0  0  0  0  0
   10.0240  -15.5588   26.0889 N   0  0  0  0  0  0  0  0  0  0  0  0
   10.1006  -15.8980   27.5341 C   0  0  1  0  0  0  0  0  0  0  0  0
   10.2327  -17.3792   27.5475 C   0  0  0  0  0  0  0  0  0  0  0  0
   10.0781  -18.1116   28.8150 C   0  0  0  0  0  0  0  0  0  0  0  0
   10.3512  -19.5446   28.7745 C   0  0  0  0  0  0  0  0  0  0  0  0
   10.6184  -20.1258   27.7031 O   0  0  0  0  0  0  0  0  0  0  0  0
   11.1370  -15.0750   28.1223 C   0  0  0  0  0  0  0  0  0  0  0  0
   12.0804  -14.4484   27.3304 O   0  0  0  0  0  0  0  0  0  0  0  0
   10.3076  -20.2595   29.9668 O   0  0  0  0  0  0  0  0  0  0  0  0
   11.2073  -14.9084   29.3630 O   0  0  0  0  0  0  0  0  0  0  0  0
  1  2  1  0
  2  3  2  0
  4  2  1  0
  4  5  1  0
  6  5  1  0
  6  8  1  0
  6  7  1  1
  8 10  1  0
  9  8  2  0
 10 11  1  0
 12 11  1  0
 12 13  2  0
 14 12  1  0
 15 14  1  0
 15 20  1  0
 15 16  1  6
 17 18  1  0
 17 16  1  0
 18 22  1  0
 18 19  2  0
 20 23  2  0
 20 21  1  0
M  END
$$$$
