QGE.pdb
     RDKit          3D

 23 22  0  0  1  0  0  0  0  0999 V2000
    4.3226  -21.0175   20.2705 N   0  0  0  0  0  0  0  0  0  0  0  0
    4.5476  -21.0448   21.6826 C   0  0  0  0  0  0  0  0  0  0  0  0
    5.0191  -22.1592   22.0958 O   0  0  0  0  0  0  0  0  0  0  0  0
    4.2602  -19.9104   22.5565 C   0  0  0  0  0  0  0  0  0  0  0  0
    3.6075  -18.7280   21.9190 C   0  0  0  0  0  0  0  0  0  0  0  0
    4.4438  -17.9872   20.9191 C   0  0  2  0  0  0  0  0  0  0  0  0
    5.6029  -18.7113   20.4726 N   0  0  0  0  0  0  0  0  0  0  0  0
    4.8100  -16.6479   21.3533 C   0  0  0  0  0  0  0  0  0  0  0  0
    3.8696  -15.9071   21.8032 O   0  0  0  0  0  0  0  0  0  0  0  0
    6.1183  -16.1576   21.2989 N   0  0  0  0  0  0  0  0  0  0  0  0
    6.4300  -14.7979   21.6929 C   0  0  0  0  0  0  0  0  0  0  0  0
    7.4037  -14.8835   22.8397 C   0  0  0  0  0  0  0  0  0  0  0  0
    7.8662  -13.8504   23.3905 O   0  0  0  0  0  0  0  0  0  0  0  0
    7.8164  -16.1437   23.3187 N   0  0  0  0  0  0  0  0  0  0  0  0
    8.9006  -16.2519   24.3299 C   0  0  1  0  0  0  0  0  0  0  0  0
    8.3474  -17.1823   25.3497 C   0  0  0  0  0  0  0  0  0  0  0  0
    9.2113  -17.6630   26.4401 C   0  0  0  0  0  0  0  0  0  0  0  0
    8.6049  -18.5931   27.3872 C   0  0  0  0  0  0  0  0  0  0  0  0
    7.4294  -18.9883   27.2487 O   0  0  0  0  0  0  0  0  0  0  0  0
   10.1209  -16.5919   23.6282 C   0  0  0  0  0  0  0  0  0  0  0  0
   11.3490  -16.5014   24.2555 O   0  0  0  0  0  0  0  0  0  0  0  0
    9.3707  -19.0366   28.4602 O   0  0  0  0  0  0  0  0  0  0  0  0
   10.0977  -16.9769   22.4352 O   0  0  0  0  0  0  0  0  0  0  0  0
  1  2  1  0
  2  3  2  0
  4  2  1  0
  4  5  1  0
  6  5  1  0
  6  8  1  0
  6  7  1  1
  8 10  1  0
  9  8  2  0
 10 11  1  0
 12 11  1  0
 12 13  2  0
 14 12  1  0
 15 14  1  0
 15 20  1  0
 15 16  1  1
 17 18  1  0
 17 16  1  0
 18 22  1  0
 18 19  2  0
 20 23  2  0
 20 21  1  0
M  END
$$$$
