QGE.pdb
     RDKit          3D

 23 22  0  0  1  0  0  0  0  0999 V2000
    7.8568  -14.0430   15.1423 N   0  0  0  0  0  0  0  0  0  0  0  0
    8.2740  -13.7299   16.4739 C   0  0  0  0  0  0  0  0  0  0  0  0
    9.5257  -13.9090   16.6644 O   0  0  0  0  0  0  0  0  0  0  0  0
    7.3546  -13.2582   17.5060 C   0  0  0  0  0  0  0  0  0  0  0  0
    7.8723  -13.2544   18.9069 C   0  0  0  0  0  0  0  0  0  0  0  0
    8.2301  -14.5975   19.4690 C   0  0  2  0  0  0  0  0  0  0  0  0
    7.7810  -15.7059   18.6709 N   0  0  0  0  0  0  0  0  0  0  0  0
    7.8283  -14.7671   20.8568 C   0  0  0  0  0  0  0  0  0  0  0  0
    6.6060  -14.5202   21.1407 O   0  0  0  0  0  0  0  0  0  0  0  0
    8.7076  -15.1810   21.8622 N   0  0  0  0  0  0  0  0  0  0  0  0
    8.2572  -15.3658   23.2275 C   0  0  0  0  0  0  0  0  0  0  0  0
    9.4621  -15.7666   24.0387 C   0  0  0  0  0  0  0  0  0  0  0  0
   10.5671  -16.0255   23.4943 O   0  0  0  0  0  0  0  0  0  0  0  0
    9.3656  -15.8584   25.4424 N   0  0  0  0  0  0  0  0  0  0  0  0
   10.5471  -16.2398   26.2597 C   0  0  1  0  0  0  0  0  0  0  0  0
   10.3374  -15.5257   27.5471 C   0  0  0  0  0  0  0  0  0  0  0  0
   11.2434  -15.7842   28.6780 C   0  0  0  0  0  0  0  0  0  0  0  0
   10.9762  -15.0434   29.9067 C   0  0  0  0  0  0  0  0  0  0  0  0
   10.0196  -14.2467   29.9908 O   0  0  0  0  0  0  0  0  0  0  0  0
   10.6430  -17.6848   26.2424 C   0  0  0  0  0  0  0  0  0  0  0  0
   11.8642  -18.3167   26.3804 O   0  0  0  0  0  0  0  0  0  0  0  0
   11.8177  -15.2444   30.9957 O   0  0  0  0  0  0  0  0  0  0  0  0
    9.6235  -18.4011   26.1021 O   0  0  0  0  0  0  0  0  0  0  0  0
  1  2  1  0
  2  3  2  0
  4  2  1  0
  4  5  1  0
  6  5  1  0
  6  8  1  0
  6  7  1  6
  8 10  1  0
  9  8  2  0
 10 11  1  0
 12 11  1  0
 12 13  2  0
 14 12  1  0
 15 14  1  0
 15 20  1  0
 15 16  1  1
 17 18  1  0
 17 16  1  0
 18 22  1  0
 18 19  2  0
 20 23  2  0
 20 21  1  0
M  END
$$$$
