QGE.pdb
     RDKit          3D

 23 22  0  0  1  0  0  0  0  0999 V2000
   10.3392  -12.4575   19.5874 N   0  0  0  0  0  0  0  0  0  0  0  0
    9.0758  -12.4363   20.2573 C   0  0  0  0  0  0  0  0  0  0  0  0
    9.1745  -12.2029   21.5106 O   0  0  0  0  0  0  0  0  0  0  0  0
    7.8069  -12.6639   19.5708 C   0  0  0  0  0  0  0  0  0  0  0  0
    7.8747  -12.8441   18.0898 C   0  0  0  0  0  0  0  0  0  0  0  0
    8.0657  -14.2540   17.6168 C   0  0  2  0  0  0  0  0  0  0  0  0
    7.3916  -15.2383   18.4193 N   0  0  0  0  0  0  0  0  0  0  0  0
    9.4623  -14.6141   17.4271 C   0  0  0  0  0  0  0  0  0  0  0  0
   10.1425  -13.8922   16.6198 O   0  0  0  0  0  0  0  0  0  0  0  0
   10.0697  -15.6910   18.0803 N   0  0  0  0  0  0  0  0  0  0  0  0
   11.4829  -15.9699   17.9186 C   0  0  0  0  0  0  0  0  0  0  0  0
   12.2109  -15.1875   18.9808 C   0  0  0  0  0  0  0  0  0  0  0  0
   12.2521  -13.9295   18.9614 O   0  0  0  0  0  0  0  0  0  0  0  0
   12.8668  -15.8662   20.0283 N   0  0  0  0  0  0  0  0  0  0  0  0
   13.4551  -15.1137   21.1673 C   0  0  1  0  0  0  0  0  0  0  0  0
   12.5883  -15.4745   22.3205 C   0  0  0  0  0  0  0  0  0  0  0  0
   12.6352  -16.8409   22.8659 C   0  0  0  0  0  0  0  0  0  0  0  0
   11.7736  -17.1127   24.0119 C   0  0  0  0  0  0  0  0  0  0  0  0
   11.1967  -16.1915   24.6249 O   0  0  0  0  0  0  0  0  0  0  0  0
   14.8711  -15.4150   21.2058 C   0  0  0  0  0  0  0  0  0  0  0  0
   15.7152  -14.7482   22.0734 O   0  0  0  0  0  0  0  0  0  0  0  0
   11.6050  -18.4336   24.4134 O   0  0  0  0  0  0  0  0  0  0  0  0
   15.3697  -16.2868   20.4551 O   0  0  0  0  0  0  0  0  0  0  0  0
  1  2  1  0
  2  3  2  0
  4  2  1  0
  4  5  1  0
  6  5  1  0
  6  8  1  0
  6  7  1  1
  8 10  1  0
  9  8  2  0
 10 11  1  0
 12 11  1  0
 12 13  2  0
 14 12  1  0
 15 14  1  0
 15 20  1  0
 15 16  1  1
 17 18  1  0
 17 16  1  0
 18 22  1  0
 18 19  2  0
 20 23  2  0
 20 21  1  0
M  END
$$$$
