QGE.pdb
     RDKit          3D

 23 22  0  0  1  0  0  0  0  0999 V2000
    8.8261  -13.6071   16.6977 N   0  0  0  0  0  0  0  0  0  0  0  0
    7.5680  -13.0744   17.1205 C   0  0  0  0  0  0  0  0  0  0  0  0
    6.7947  -12.7765   16.1467 O   0  0  0  0  0  0  0  0  0  0  0  0
    7.2136  -12.8892   18.5252 C   0  0  0  0  0  0  0  0  0  0  0  0
    8.1380  -13.4945   19.5300 C   0  0  0  0  0  0  0  0  0  0  0  0
    8.1602  -14.9932   19.5698 C   0  0  2  0  0  0  0  0  0  0  0  0
    6.8879  -15.5907   19.8726 N   0  0  0  0  0  0  0  0  0  0  0  0
    9.1997  -15.5315   20.4334 C   0  0  0  0  0  0  0  0  0  0  0  0
   10.4070  -15.2166   20.1528 O   0  0  0  0  0  0  0  0  0  0  0  0
    8.9312  -16.3566   21.5299 N   0  0  0  0  0  0  0  0  0  0  0  0
    9.8621  -17.3886   21.9416 C   0  0  0  0  0  0  0  0  0  0  0  0
   10.9907  -16.7009   22.6655 C   0  0  0  0  0  0  0  0  0  0  0  0
   11.1291  -15.4502   22.6341 O   0  0  0  0  0  0  0  0  0  0  0  0
   11.9224  -17.4629   23.3999 N   0  0  0  0  0  0  0  0  0  0  0  0
   13.0001  -16.7973   24.1777 C   0  0  1  0  0  0  0  0  0  0  0  0
   13.1587  -17.6590   25.3793 C   0  0  0  0  0  0  0  0  0  0  0  0
   12.0173  -17.8580   26.2872 C   0  0  0  0  0  0  0  0  0  0  0  0
   12.2507  -18.7137   27.4461 C   0  0  0  0  0  0  0  0  0  0  0  0
   11.3635  -18.9051   28.3024 O   0  0  0  0  0  0  0  0  0  0  0  0
   14.1208  -16.5907   23.2840 C   0  0  0  0  0  0  0  0  0  0  0  0
   15.0945  -15.6531   23.5718 O   0  0  0  0  0  0  0  0  0  0  0  0
   13.4954  -19.3195   27.5802 O   0  0  0  0  0  0  0  0  0  0  0  0
   14.2389  -17.2547   22.2270 O   0  0  0  0  0  0  0  0  0  0  0  0
  1  2  1  0
  2  3  2  0
  4  2  1  0
  4  5  1  0
  6  5  1  0
  6  8  1  0
  6  7  1  1
  8 10  1  0
  9  8  2  0
 10 11  1  0
 12 11  1  0
 12 13  2  0
 14 12  1  0
 15 14  1  0
 15 20  1  0
 15 16  1  1
 17 18  1  0
 17 16  1  0
 18 22  1  0
 18 19  2  0
 20 23  2  0
 20 21  1  0
M  END
$$$$
