IFN.pdb
     RDKit          3D

 28 28  0  0  1  0  0  0  0  0999 V2000
   10.4643  -20.2398   18.5742 C   0  0  0  0  0  0  0  0  0  0  0  0
    9.8854  -18.8499   18.4127 C   0  0  0  0  0  0  0  0  0  0  0  0
    9.9235  -18.1846   19.7509 C   0  0  2  0  0  0  0  0  0  0  0  0
    9.1915  -19.0670   20.7364 C   0  0  0  0  0  0  0  0  0  0  0  0
    9.3418  -16.7956   19.7802 C   0  0  2  0  0  0  0  0  0  0  0  0
    9.9647  -16.0360   18.7154 N   0  0  0  0  0  0  0  0  0  0  0  0
    9.5322  -16.1003   21.0495 C   0  0  0  0  0  0  0  0  0  0  0  0
   10.6540  -15.8765   21.5764 O   0  0  0  0  0  0  0  0  0  0  0  0
    8.3954  -15.6357   21.7566 N   0  0  0  0  0  0  0  0  0  0  0  0
    8.4606  -15.0171   23.0720 C   0  0  1  0  0  0  0  0  0  0  0  0
    7.1481  -14.3358   23.3598 C   0  0  0  0  0  0  0  0  0  0  0  0
    7.0745  -13.6830   24.6663 C   0  0  0  0  0  0  0  0  0  0  0  0
    6.1771  -14.0625   25.6490 C   0  0  0  0  0  0  0  0  0  0  0  0
    6.0947  -13.4770   26.8809 C   0  0  0  0  0  0  0  0  0  0  0  0
    6.9661  -12.4281   27.1785 C   0  0  0  0  0  0  0  0  0  0  0  0
    7.8576  -12.0489   26.2069 C   0  0  0  0  0  0  0  0  0  0  0  0
    7.9320  -12.6428   24.9752 C   0  0  0  0  0  0  0  0  0  0  0  0
    8.7586  -16.0656   24.0718 C   0  0  0  0  0  0  0  0  0  0  0  0
    8.6740  -17.2955   23.7861 O   0  0  0  0  0  0  0  0  0  0  0  0
   10.7081  -19.6204   25.4102 N   0  0  0  0  0  0  0  0  0  0  0  0
   11.5580  -18.5151   25.6682 C   0  0  0  0  0  0  0  0  0  0  0  0
   12.7068  -18.7364   26.1047 O   0  0  0  0  0  0  0  0  0  0  0  0
   11.1000  -17.1501   25.4283 C   0  0  0  0  0  0  0  0  0  0  0  0
    9.9122  -16.7103   26.2183 C   0  0  2  0  0  0  0  0  0  0  0  0
    9.1556  -15.7733   25.4076 N   0  0  0  0  0  0  0  0  0  0  0  0
   10.2465  -16.1417   27.5406 C   0  0  0  0  0  0  0  0  0  0  0  0
   10.8282  -16.8469   28.3972 O   0  0  0  0  0  0  0  0  0  0  0  0
    9.9492  -14.8301   27.9132 O   0  0  0  0  0  0  0  0  0  0  0  0
  2  3  1  0
  2  1  1  0
  3  5  1  0
  3  4  1  1
  5  6  1  6
  7  8  2  0
  7  5  1  0
  9  7  1  0
 10  9  1  0
 10 11  1  1
 11 12  1  0
 12 13  2  0
 12 17  1  0
 13 14  1  0
 14 15  2  0
 16 15  1  0
 17 16  2  0
 18 10  1  0
 19 18  2  0
 20 21  1  0
 21 22  2  0
 21 23  1  0
 24 23  1  6
 24 26  1  0
 24 25  1  0
 25 18  1  0
 26 28  1  0
 27 26  2  0
M  END
$$$$
