IFN.pdb
     RDKit          3D

 28 28  0  0  1  0  0  0  0  0999 V2000
    9.9506  -20.2950   18.7732 C   0  0  0  0  0  0  0  0  0  0  0  0
    9.6154  -18.8328   18.5668 C   0  0  0  0  0  0  0  0  0  0  0  0
    9.6574  -18.1649   19.9036 C   0  0  2  0  0  0  0  0  0  0  0  0
    8.7261  -18.9108   20.8321 C   0  0  0  0  0  0  0  0  0  0  0  0
    9.2984  -16.7023   19.8882 C   0  0  2  0  0  0  0  0  0  0  0  0
   10.1019  -16.0634   18.8659 N   0  0  0  0  0  0  0  0  0  0  0  0
    9.5090  -16.0271   21.1652 C   0  0  0  0  0  0  0  0  0  0  0  0
   10.6250  -15.9251   21.7400 O   0  0  0  0  0  0  0  0  0  0  0  0
    8.4006  -15.4384   21.8232 N   0  0  0  0  0  0  0  0  0  0  0  0
    8.4884  -14.7746   23.1150 C   0  0  1  0  0  0  0  0  0  0  0  0
    7.3320  -13.8193   23.2557 C   0  0  0  0  0  0  0  0  0  0  0  0
    7.1964  -13.2186   24.5821 C   0  0  0  0  0  0  0  0  0  0  0  0
    6.3631  -13.7319   25.5604 C   0  0  0  0  0  0  0  0  0  0  0  0
    6.2260  -13.1968   26.8102 C   0  0  0  0  0  0  0  0  0  0  0  0
    6.9686  -12.0597   27.1321 C   0  0  0  0  0  0  0  0  0  0  0  0
    7.7963  -11.5476   26.1649 C   0  0  0  0  0  0  0  0  0  0  0  0
    7.9264  -12.0921   24.9151 C   0  0  0  0  0  0  0  0  0  0  0  0
    8.4739  -15.8046   24.1763 C   0  0  0  0  0  0  0  0  0  0  0  0
    7.6869  -16.7943   24.1271 O   0  0  0  0  0  0  0  0  0  0  0  0
   10.9079  -19.3730   26.9683 N   0  0  0  0  0  0  0  0  0  0  0  0
   11.2284  -18.9518   25.6529 C   0  0  0  0  0  0  0  0  0  0  0  0
   11.9956  -19.6624   24.9704 O   0  0  0  0  0  0  0  0  0  0  0  0
   10.6737  -17.7159   25.1094 C   0  0  0  0  0  0  0  0  0  0  0  0
    9.7602  -16.9560   26.0131 C   0  0  2  0  0  0  0  0  0  0  0  0
    9.3298  -15.7590   25.3133 N   0  0  0  0  0  0  0  0  0  0  0  0
   10.3474  -16.6362   27.3309 C   0  0  0  0  0  0  0  0  0  0  0  0
   10.7850  -17.5548   28.0616 O   0  0  0  0  0  0  0  0  0  0  0  0
   10.4513  -15.3387   27.8341 O   0  0  0  0  0  0  0  0  0  0  0  0
  2  3  1  0
  2  1  1  0
  3  5  1  0
  3  4  1  1
  5  6  1  6
  7  8  2  0
  7  5  1  0
  9  7  1  0
 10  9  1  0
 10 11  1  1
 11 12  1  0
 12 13  2  0
 12 17  1  0
 13 14  1  0
 14 15  2  0
 16 15  1  0
 17 16  2  0
 18 10  1  0
 19 18  2  0
 20 21  1  0
 21 22  2  0
 21 23  1  0
 24 23  1  6
 24 26  1  0
 24 25  1  0
 25 18  1  0
 26 28  1  0
 27 26  2  0
M  END
$$$$
