IFN.pdb
     RDKit          3D

 28 28  0  0  1  0  0  0  0  0999 V2000
    6.9008  -12.6944   18.6199 C   0  0  0  0  0  0  0  0  0  0  0  0
    7.2030  -14.0361   19.2536 C   0  0  0  0  0  0  0  0  0  0  0  0
    8.0841  -13.7908   20.4361 C   0  0  2  0  0  0  0  0  0  0  0  0
    9.3002  -13.0252   19.9664 C   0  0  0  0  0  0  0  0  0  0  0  0
    8.5158  -15.0343   21.1683 C   0  0  2  0  0  0  0  0  0  0  0  0
    7.3458  -15.8709   21.3409 N   0  0  0  0  0  0  0  0  0  0  0  0
    9.1245  -14.7744   22.4693 C   0  0  0  0  0  0  0  0  0  0  0  0
   10.1561  -14.0735   22.6445 O   0  0  0  0  0  0  0  0  0  0  0  0
    8.5350  -15.3362   23.6291 N   0  0  0  0  0  0  0  0  0  0  0  0
    9.1003  -15.2092   24.9638 C   0  0  1  0  0  0  0  0  0  0  0  0
    7.9785  -15.1063   25.9643 C   0  0  0  0  0  0  0  0  0  0  0  0
    7.4588  -13.7534   26.1595 C   0  0  0  0  0  0  0  0  0  0  0  0
    8.2746  -12.6558   26.3708 C   0  0  0  0  0  0  0  0  0  0  0  0
    7.8158  -11.3805   26.5452 C   0  0  0  0  0  0  0  0  0  0  0  0
    6.4383  -11.1586   26.5101 C   0  0  0  0  0  0  0  0  0  0  0  0
    5.6258  -12.2443   26.3006 C   0  0  0  0  0  0  0  0  0  0  0  0
    6.0962  -13.5186   26.1267 C   0  0  0  0  0  0  0  0  0  0  0  0
    9.9564  -16.3861   25.2273 C   0  0  0  0  0  0  0  0  0  0  0  0
    9.6898  -17.2038   26.1555 O   0  0  0  0  0  0  0  0  0  0  0  0
   11.4051  -20.0016   26.5048 N   0  0  0  0  0  0  0  0  0  0  0  0
   10.7623  -20.0834   25.2436 C   0  0  0  0  0  0  0  0  0  0  0  0
   10.0217  -21.0624   25.0151 O   0  0  0  0  0  0  0  0  0  0  0  0
   10.9619  -19.0464   24.2360 C   0  0  0  0  0  0  0  0  0  0  0  0
   11.8627  -17.9213   24.6247 C   0  0  2  0  0  0  0  0  0  0  0  0
   11.1248  -16.6807   24.4688 N   0  0  0  0  0  0  0  0  0  0  0  0
   13.1417  -17.8920   23.8851 C   0  0  0  0  0  0  0  0  0  0  0  0
   14.1660  -18.4135   24.3836 O   0  0  0  0  0  0  0  0  0  0  0  0
   13.2922  -17.3042   22.6285 O   0  0  0  0  0  0  0  0  0  0  0  0
  2  3  1  0
  2  1  1  0
  3  5  1  0
  3  4  1  6
  5  6  1  1
  7  8  2  0
  7  5  1  0
  9  7  1  0
 10  9  1  0
 10 11  1  1
 11 12  1  0
 12 13  2  0
 12 17  1  0
 13 14  1  0
 14 15  2  0
 16 15  1  0
 17 16  2  0
 18 10  1  0
 19 18  2  0
 20 21  1  0
 21 22  2  0
 21 23  1  0
 24 23  1  6
 24 26  1  0
 24 25  1  0
 25 18  1  0
 26 28  1  0
 27 26  2  0
M  END
$$$$
