IFN.pdb
     RDKit          3D

 28 28  0  0  1  0  0  0  0  0999 V2000
    8.8806  -20.1914   18.0352 C   0  0  0  0  0  0  0  0  0  0  0  0
    8.2558  -18.8130   17.9819 C   0  0  0  0  0  0  0  0  0  0  0  0
    8.6154  -18.1029   19.2473 C   0  0  2  0  0  0  0  0  0  0  0  0
    8.1768  -18.9630   20.4108 C   0  0  0  0  0  0  0  0  0  0  0  0
    8.0281  -16.7227   19.3836 C   0  0  2  0  0  0  0  0  0  0  0  0
    8.3428  -15.9901   18.1740 N   0  0  0  0  0  0  0  0  0  0  0  0
    8.5180  -15.9822   20.5422 C   0  0  0  0  0  0  0  0  0  0  0  0
    9.7276  -15.6950   20.7431 O   0  0  0  0  0  0  0  0  0  0  0  0
    7.5914  -15.5455   21.5215 N   0  0  0  0  0  0  0  0  0  0  0  0
    7.9725  -14.8358   22.7332 C   0  0  1  0  0  0  0  0  0  0  0  0
    6.7651  -14.1239   23.2855 C   0  0  0  0  0  0  0  0  0  0  0  0
    6.9824  -13.4658   24.5733 C   0  0  0  0  0  0  0  0  0  0  0  0
    7.6276  -12.2480   24.6980 C   0  0  0  0  0  0  0  0  0  0  0  0
    7.8342  -11.6068   25.8869 C   0  0  0  0  0  0  0  0  0  0  0  0
    7.3691  -12.2091   27.0570 C   0  0  0  0  0  0  0  0  0  0  0  0
    6.7284  -13.4166   26.9377 C   0  0  0  0  0  0  0  0  0  0  0  0
    6.5265  -14.0506   25.7408 C   0  0  0  0  0  0  0  0  0  0  0  0
    8.5160  -15.8134   23.7010 C   0  0  0  0  0  0  0  0  0  0  0  0
    7.9955  -16.9573   23.8490 O   0  0  0  0  0  0  0  0  0  0  0  0
   12.7947  -18.8867   24.4336 N   0  0  0  0  0  0  0  0  0  0  0  0
   12.7799  -17.5353   24.8625 C   0  0  0  0  0  0  0  0  0  0  0  0
   13.6479  -17.1600   25.6781 O   0  0  0  0  0  0  0  0  0  0  0  0
   11.7732  -16.6046   24.3616 C   0  0  0  0  0  0  0  0  0  0  0  0
   10.4689  -16.5987   25.0878 C   0  0  2  0  0  0  0  0  0  0  0  0
    9.6460  -15.5438   24.5243 N   0  0  0  0  0  0  0  0  0  0  0  0
   10.5976  -16.4660   26.5539 C   0  0  0  0  0  0  0  0  0  0  0  0
   10.3727  -15.3640   27.1056 O   0  0  0  0  0  0  0  0  0  0  0  0
   10.9646  -17.5182   27.3939 O   0  0  0  0  0  0  0  0  0  0  0  0
  2  3  1  0
  2  1  1  0
  3  5  1  0
  3  4  1  1
  5  6  1  6
  7  8  2  0
  7  5  1  0
  9  7  1  0
 10  9  1  0
 10 11  1  1
 11 12  1  0
 12 13  2  0
 12 17  1  0
 13 14  1  0
 14 15  2  0
 16 15  1  0
 17 16  2  0
 18 10  1  0
 19 18  2  0
 20 21  1  0
 21 22  2  0
 21 23  1  0
 24 23  1  6
 24 26  1  0
 24 25  1  0
 25 18  1  0
 26 28  1  0
 27 26  2  0
M  END
$$$$
