IFN.pdb
     RDKit          3D

 28 28  0  0  1  0  0  0  0  0999 V2000
   10.5901  -20.7055   19.8351 C   0  0  0  0  0  0  0  0  0  0  0  0
    9.8155  -19.4512   19.4889 C   0  0  0  0  0  0  0  0  0  0  0  0
   10.0008  -18.4799   20.6101 C   0  0  2  0  0  0  0  0  0  0  0  0
    9.5355  -19.1412   21.8876 C   0  0  0  0  0  0  0  0  0  0  0  0
    9.2893  -17.1649   20.4281 C   0  0  2  0  0  0  0  0  0  0  0  0
    9.7255  -16.6004   19.1672 N   0  0  0  0  0  0  0  0  0  0  0  0
    9.5335  -16.2058   21.5010 C   0  0  0  0  0  0  0  0  0  0  0  0
   10.6253  -15.6049   21.6828 O   0  0  0  0  0  0  0  0  0  0  0  0
    8.4890  -15.9129   22.4128 N   0  0  0  0  0  0  0  0  0  0  0  0
    8.6442  -15.0350   23.5627 C   0  0  1  0  0  0  0  0  0  0  0  0
    7.3258  -14.3650   23.8504 C   0  0  0  0  0  0  0  0  0  0  0  0
    7.3134  -13.5380   25.0564 C   0  0  0  0  0  0  0  0  0  0  0  0
    7.9585  -12.3165   25.1394 C   0  0  0  0  0  0  0  0  0  0  0  0
    7.9539  -11.5198   26.2495 C   0  0  0  0  0  0  0  0  0  0  0  0
    7.2575  -11.9553   27.3779 C   0  0  0  0  0  0  0  0  0  0  0  0
    6.6162  -13.1658   27.2998 C   0  0  0  0  0  0  0  0  0  0  0  0
    6.6271  -13.9566   26.1818 C   0  0  0  0  0  0  0  0  0  0  0  0
    9.1055  -15.8419   24.7131 C   0  0  0  0  0  0  0  0  0  0  0  0
    8.5073  -16.9016   25.0604 O   0  0  0  0  0  0  0  0  0  0  0  0
    9.6400  -17.4348   29.8476 N   0  0  0  0  0  0  0  0  0  0  0  0
    9.9810  -16.4991   28.8383 C   0  0  0  0  0  0  0  0  0  0  0  0
   10.4944  -15.4137   29.1815 O   0  0  0  0  0  0  0  0  0  0  0  0
    9.7376  -16.7985   27.4306 C   0  0  0  0  0  0  0  0  0  0  0  0
   10.8158  -16.3954   26.4802 C   0  0  2  0  0  0  0  0  0  0  0  0
   10.2377  -15.4915   25.5023 N   0  0  0  0  0  0  0  0  0  0  0  0
   11.5028  -17.5325   25.8329 C   0  0  0  0  0  0  0  0  0  0  0  0
   12.1104  -18.3771   26.5307 O   0  0  0  0  0  0  0  0  0  0  0  0
   11.5220  -17.7370   24.4527 O   0  0  0  0  0  0  0  0  0  0  0  0
  2  3  1  0
  2  1  1  0
  3  5  1  0
  3  4  1  1
  5  6  1  6
  7  8  2  0
  7  5  1  0
  9  7  1  0
 10  9  1  0
 10 11  1  1
 11 12  1  0
 12 13  2  0
 12 17  1  0
 13 14  1  0
 14 15  2  0
 16 15  1  0
 17 16  2  0
 18 10  1  0
 19 18  2  0
 20 21  1  0
 21 22  2  0
 21 23  1  0
 24 23  1  1
 24 26  1  0
 24 25  1  0
 25 18  1  0
 26 28  1  0
 27 26  2  0
M  END
$$$$
