IFN.pdb
     RDKit          3D

 28 28  0  0  1  0  0  0  0  0999 V2000
    7.4482  -12.2321   17.4163 C   0  0  0  0  0  0  0  0  0  0  0  0
    7.7391  -13.6581   17.8347 C   0  0  0  0  0  0  0  0  0  0  0  0
    8.2478  -13.6234   19.2400 C   0  0  2  0  0  0  0  0  0  0  0  0
    9.4858  -12.7561   19.2713 C   0  0  0  0  0  0  0  0  0  0  0  0
    8.5561  -14.9737   19.8316 C   0  0  2  0  0  0  0  0  0  0  0  0
    7.3842  -15.8075   19.6575 N   0  0  0  0  0  0  0  0  0  0  0  0
    8.9183  -14.9326   21.2450 C   0  0  0  0  0  0  0  0  0  0  0  0
   10.0682  -14.6541   21.6766 O   0  0  0  0  0  0  0  0  0  0  0  0
    7.9286  -15.2210   22.2175 N   0  0  0  0  0  0  0  0  0  0  0  0
    8.1417  -15.0853   23.6504 C   0  0  1  0  0  0  0  0  0  0  0  0
    6.8332  -14.7361   24.3104 C   0  0  0  0  0  0  0  0  0  0  0  0
    6.9619  -13.9792   25.5551 C   0  0  0  0  0  0  0  0  0  0  0  0
    7.2180  -14.5760   26.7771 C   0  0  0  0  0  0  0  0  0  0  0  0
    7.3534  -13.8919   27.9522 C   0  0  0  0  0  0  0  0  0  0  0  0
    7.2271  -12.5021   27.9310 C   0  0  0  0  0  0  0  0  0  0  0  0
    6.9734  -11.9063   26.7213 C   0  0  0  0  0  0  0  0  0  0  0  0
    6.8397  -12.6016   25.5491 C   0  0  0  0  0  0  0  0  0  0  0  0
    8.6883  -16.3582   24.1684 C   0  0  0  0  0  0  0  0  0  0  0  0
    8.4420  -17.4630   23.6027 O   0  0  0  0  0  0  0  0  0  0  0  0
   11.8879  -17.7779   21.9289 N   0  0  0  0  0  0  0  0  0  0  0  0
   11.6019  -18.1405   23.2695 C   0  0  0  0  0  0  0  0  0  0  0  0
   11.3830  -19.3425   23.5275 O   0  0  0  0  0  0  0  0  0  0  0  0
   11.5647  -17.1313   24.3235 C   0  0  0  0  0  0  0  0  0  0  0  0
   10.6068  -17.3862   25.4397 C   0  0  2  0  0  0  0  0  0  0  0  0
    9.5177  -16.4334   25.3233 N   0  0  0  0  0  0  0  0  0  0  0  0
   11.2238  -17.3484   26.7820 C   0  0  0  0  0  0  0  0  0  0  0  0
   11.5392  -18.4157   27.3571 O   0  0  0  0  0  0  0  0  0  0  0  0
   11.4880  -16.1668   27.4758 O   0  0  0  0  0  0  0  0  0  0  0  0
  2  3  1  0
  2  1  1  0
  3  5  1  0
  3  4  1  6
  5  6  1  1
  7  8  2  0
  7  5  1  0
  9  7  1  0
 10  9  1  0
 10 11  1  1
 11 12  1  0
 12 13  2  0
 12 17  1  0
 13 14  1  0
 14 15  2  0
 16 15  1  0
 17 16  2  0
 18 10  1  0
 19 18  2  0
 20 21  1  0
 21 22  2  0
 21 23  1  0
 24 23  1  6
 24 26  1  0
 24 25  1  0
 25 18  1  0
 26 28  1  0
 27 26  2  0
M  END
$$$$
