LFC.pdb
     RDKit          3D

 26 26  0  0  1  0  0  0  0  0999 V2000
   27.7998  -20.3529  -21.6798 C   0  0  0  0  0  0  0  0  0  0  0  0
   27.5475  -19.4915  -20.4641 C   0  0  1  0  0  0  0  0  0  0  0  0
   26.7051  -18.2873  -20.8291 C   0  0  0  0  0  0  0  0  0  0  0  0
   26.8792  -20.2676  -19.3438 C   0  0  0  0  0  0  0  0  0  0  0  0
   26.6602  -19.2849  -18.2109 C   0  0  2  0  0  0  0  0  0  0  0  0
   27.8994  -18.5676  -17.9913 N   0  0  0  0  0  0  0  0  0  0  0  0
   26.2460  -19.9284  -16.9680 C   0  0  0  0  0  0  0  0  0  0  0  0
   25.5911  -21.0012  -17.0067 O   0  0  0  0  0  0  0  0  0  0  0  0
   26.5354  -19.4190  -15.6698 N   0  0  0  0  0  0  0  0  0  0  0  0
   26.0475  -20.0330  -14.4593 C   0  0  1  0  0  0  0  0  0  0  0  0
   26.7274  -19.4742  -13.2275 C   0  0  0  0  0  0  0  0  0  0  0  0
   26.2312  -20.1047  -11.9866 C   0  0  0  0  0  0  0  0  0  0  0  0
   26.8760  -21.2186  -11.4969 C   0  0  0  0  0  0  0  0  0  0  0  0
   26.4793  -21.8660  -10.3493 C   0  0  0  0  0  0  0  0  0  0  0  0
   25.3942  -21.4081   -9.6331 C   0  0  0  0  0  0  0  0  0  0  0  0
   24.7323  -20.2949  -10.1029 C   0  0  0  0  0  0  0  0  0  0  0  0
   25.1441  -19.6550  -11.2593 C   0  0  0  0  0  0  0  0  0  0  0  0
   24.5932  -19.7968  -14.2991 C   0  0  0  0  0  0  0  0  0  0  0  0
   24.1610  -18.6276  -14.4202 O   0  0  0  0  0  0  0  0  0  0  0  0
   23.6659  -20.8306  -14.0152 N   0  0  0  0  0  0  0  0  0  0  0  0
   22.2620  -20.4901  -13.8501 C   0  0  1  0  0  0  0  0  0  0  0  0
   21.5057  -21.1180  -15.0266 C   0  0  0  0  0  0  0  0  0  0  0  0
   22.0245  -22.8528  -15.1709 S   0  0  0  0  0  0  0  0  0  0  0  0
   21.7175  -21.1228  -12.6268 C   0  0  0  0  0  0  0  0  0  0  0  0
   20.4685  -20.8199  -12.1270 O   0  0  0  0  0  0  0  0  0  0  0  0
   22.4241  -21.9685  -12.0228 O   0  0  0  0  0  0  0  0  0  0  0  0
  2  1  1  6
  2  4  1  0
  3  2  1  0
  4  5  1  0
  5  6  1  1
  7  9  1  0
  7  5  1  0
  8  7  2  0
 10  9  1  0
 11 12  1  0
 10 11  1  1
 12 13  2  0
 12 17  1  0
 13 14  1  0
 14 15  2  0
 16 15  1  0
 17 16  2  0
 18 20  1  0
 18 10  1  0
 19 18  2  0
 21 20  1  0
 21 24  1  0
 22 23  1  0
 21 22  1  6
 24 25  1  0
 26 24  2  0
M  END
$$$$
