LFC.pdb
     RDKit          3D

 26 26  0  0  1  0  0  0  0  0999 V2000
   21.1611  -29.8032  -11.9181 C   0  0  0  0  0  0  0  0  0  0  0  0
   19.9676  -29.7990  -10.9913 C   0  0  1  0  0  0  0  0  0  0  0  0
   19.9072  -31.0846  -10.1934 C   0  0  0  0  0  0  0  0  0  0  0  0
   19.9805  -28.6083  -10.0498 C   0  0  0  0  0  0  0  0  0  0  0  0
   18.7722  -28.7601   -9.1477 C   0  0  2  0  0  0  0  0  0  0  0  0
   17.5834  -28.5469   -9.9476 N   0  0  0  0  0  0  0  0  0  0  0  0
   18.7752  -27.8261   -8.0260 C   0  0  0  0  0  0  0  0  0  0  0  0
   19.7835  -27.7492   -7.2784 O   0  0  0  0  0  0  0  0  0  0  0  0
   17.6883  -26.9652   -7.7004 N   0  0  0  0  0  0  0  0  0  0  0  0
   17.7621  -25.9667   -6.6622 C   0  0  1  0  0  0  0  0  0  0  0  0
   17.1593  -24.6490   -7.1006 C   0  0  0  0  0  0  0  0  0  0  0  0
   17.8658  -24.0768   -8.2654 C   0  0  0  0  0  0  0  0  0  0  0  0
   17.2420  -24.0756   -9.4930 C   0  0  0  0  0  0  0  0  0  0  0  0
   17.8284  -23.5631  -10.6274 C   0  0  0  0  0  0  0  0  0  0  0  0
   19.0938  -23.0194  -10.5703 C   0  0  0  0  0  0  0  0  0  0  0  0
   19.7389  -23.0089   -9.3530 C   0  0  0  0  0  0  0  0  0  0  0  0
   19.1349  -23.5286   -8.2210 C   0  0  0  0  0  0  0  0  0  0  0  0
   17.0200  -26.4057   -5.4568 C   0  0  0  0  0  0  0  0  0  0  0  0
   15.9437  -27.0272   -5.6113 O   0  0  0  0  0  0  0  0  0  0  0  0
   17.4691  -26.1565   -4.1357 N   0  0  0  0  0  0  0  0  0  0  0  0
   16.6360  -26.5736   -3.0194 C   0  0  1  0  0  0  0  0  0  0  0  0
   17.5339  -26.6104   -1.7773 C   0  0  0  0  0  0  0  0  0  0  0  0
   19.2394  -26.9183   -2.3217 S   0  0  0  0  0  0  0  0  0  0  0  0
   15.5947  -25.5573   -2.7439 C   0  0  0  0  0  0  0  0  0  0  0  0
   14.6347  -25.7232   -1.7679 O   0  0  0  0  0  0  0  0  0  0  0  0
   15.5884  -24.5033   -3.4283 O   0  0  0  0  0  0  0  0  0  0  0  0
  2  1  1  1
  2  4  1  0
  3  2  1  0
  4  5  1  0
  5  6  1  6
  7  9  1  0
  7  5  1  0
  8  7  2  0
 10  9  1  0
 11 12  1  0
 10 11  1  6
 12 13  2  0
 12 17  1  0
 13 14  1  0
 14 15  2  0
 16 15  1  0
 17 16  2  0
 18 20  1  0
 18 10  1  0
 19 18  2  0
 21 20  1  0
 21 24  1  0
 22 23  1  0
 21 22  1  1
 24 25  1  0
 26 24  2  0
M  END
$$$$
