LFC.pdb
     RDKit          3D

 26 26  0  0  1  0  0  0  0  0999 V2000
   14.7695  -11.3725  -17.2570 C   0  0  0  0  0  0  0  0  0  0  0  0
   16.2452  -11.6623  -17.4050 C   0  0  1  0  0  0  0  0  0  0  0  0
   16.7272  -11.2824  -18.7894 C   0  0  0  0  0  0  0  0  0  0  0  0
   17.0755  -10.9457  -16.3556 C   0  0  0  0  0  0  0  0  0  0  0  0
   18.5098  -11.3878  -16.5663 C   0  0  2  0  0  0  0  0  0  0  0  0
   18.6288  -12.7597  -16.1169 N   0  0  0  0  0  0  0  0  0  0  0  0
   19.4746  -10.5582  -15.8511 C   0  0  0  0  0  0  0  0  0  0  0  0
   19.5306  -10.6046  -14.5957 O   0  0  0  0  0  0  0  0  0  0  0  0
   20.3892   -9.6696  -16.4854 N   0  0  0  0  0  0  0  0  0  0  0  0
   21.4290   -8.9716  -15.7700 C   0  0  1  0  0  0  0  0  0  0  0  0
   22.7835   -9.1521  -16.4215 C   0  0  0  0  0  0  0  0  0  0  0  0
   23.2800  -10.5379  -16.2928 C   0  0  0  0  0  0  0  0  0  0  0  0
   22.9576  -11.4580  -17.2652 C   0  0  0  0  0  0  0  0  0  0  0  0
   23.3782  -12.7675  -17.2221 C   0  0  0  0  0  0  0  0  0  0  0  0
   24.1573  -13.2128  -16.1757 C   0  0  0  0  0  0  0  0  0  0  0  0
   24.4934  -12.3108  -15.1901 C   0  0  0  0  0  0  0  0  0  0  0  0
   24.0620  -10.9967  -15.2483 C   0  0  0  0  0  0  0  0  0  0  0  0
   21.1545   -7.5157  -15.7316 C   0  0  0  0  0  0  0  0  0  0  0  0
   20.4146   -7.0238  -16.6142 O   0  0  0  0  0  0  0  0  0  0  0  0
   21.6891   -6.6512  -14.7435 N   0  0  0  0  0  0  0  0  0  0  0  0
   21.3247   -5.2438  -14.7690 C   0  0  1  0  0  0  0  0  0  0  0  0
   19.8260   -5.1617  -14.4565 C   0  0  0  0  0  0  0  0  0  0  0  0
   19.3735   -3.4082  -14.3144 S   0  0  0  0  0  0  0  0  0  0  0  0
   22.0123   -4.5125  -13.6802 C   0  0  0  0  0  0  0  0  0  0  0  0
   22.3747   -3.1865  -13.7895 O   0  0  0  0  0  0  0  0  0  0  0  0
   22.2744   -5.1274  -12.6160 O   0  0  0  0  0  0  0  0  0  0  0  0
  2  1  1  6
  2  4  1  0
  3  2  1  0
  4  5  1  0
  5  6  1  1
  7  9  1  0
  7  5  1  0
  8  7  2  0
 10  9  1  0
 11 12  1  0
 10 11  1  6
 12 13  2  0
 12 17  1  0
 13 14  1  0
 14 15  2  0
 16 15  1  0
 17 16  2  0
 18 20  1  0
 18 10  1  0
 19 18  2  0
 21 20  1  0
 21 24  1  0
 22 23  1  0
 21 22  1  1
 24 25  1  0
 26 24  2  0
M  END
$$$$
