LFC.pdb
     RDKit          3D

 26 26  0  0  1  0  0  0  0  0999 V2000
   15.0806   -9.2143  -18.3117 C   0  0  0  0  0  0  0  0  0  0  0  0
   16.4939   -9.0426  -17.8051 C   0  0  1  0  0  0  0  0  0  0  0  0
   16.9920   -7.6391  -18.0793 C   0  0  0  0  0  0  0  0  0  0  0  0
   16.6100   -9.3504  -16.3232 C   0  0  0  0  0  0  0  0  0  0  0  0
   18.0447   -9.0552  -15.9338 C   0  0  2  0  0  0  0  0  0  0  0  0
   18.8454  -10.2209  -16.2476 N   0  0  0  0  0  0  0  0  0  0  0  0
   18.1976   -8.7289  -14.5193 C   0  0  0  0  0  0  0  0  0  0  0  0
   17.9870   -9.6103  -13.6475 O   0  0  0  0  0  0  0  0  0  0  0  0
   18.5798   -7.4463  -14.0322 N   0  0  0  0  0  0  0  0  0  0  0  0
   18.8574   -7.1861  -12.6410 C   0  0  1  0  0  0  0  0  0  0  0  0
   20.2896   -6.7469  -12.4222 C   0  0  0  0  0  0  0  0  0  0  0  0
   21.2390   -7.8727  -12.5433 C   0  0  0  0  0  0  0  0  0  0  0  0
   21.4875   -8.6609  -11.4419 C   0  0  0  0  0  0  0  0  0  0  0  0
   22.3563   -9.7277  -11.4686 C   0  0  0  0  0  0  0  0  0  0  0  0
   23.0242  -10.0507  -12.6303 C   0  0  0  0  0  0  0  0  0  0  0  0
   22.7923   -9.2769  -13.7463 C   0  0  0  0  0  0  0  0  0  0  0  0
   21.9150   -8.2069  -13.7028 C   0  0  0  0  0  0  0  0  0  0  0  0
   17.9862   -6.1042  -12.1244 C   0  0  0  0  0  0  0  0  0  0  0  0
   17.8633   -5.0600  -12.8047 O   0  0  0  0  0  0  0  0  0  0  0  0
   17.2841   -6.1933  -10.8962 N   0  0  0  0  0  0  0  0  0  0  0  0
   16.3606   -5.1297  -10.5354 C   0  0  1  0  0  0  0  0  0  0  0  0
   15.2255   -5.7735   -9.7308 C   0  0  0  0  0  0  0  0  0  0  0  0
   14.1229   -4.4512   -9.1515 S   0  0  0  0  0  0  0  0  0  0  0  0
   17.0154   -4.1647   -9.6227 C   0  0  0  0  0  0  0  0  0  0  0  0
   16.6332   -2.8421   -9.5418 O   0  0  0  0  0  0  0  0  0  0  0  0
   17.9561   -4.5700   -8.8947 O   0  0  0  0  0  0  0  0  0  0  0  0
  2  1  1  1
  2  4  1  0
  3  2  1  0
  4  5  1  0
  5  6  1  1
  7  9  1  0
  7  5  1  0
  8  7  2  0
 10  9  1  0
 11 12  1  0
 10 11  1  6
 12 13  2  0
 12 17  1  0
 13 14  1  0
 14 15  2  0
 16 15  1  0
 17 16  2  0
 18 20  1  0
 18 10  1  0
 19 18  2  0
 21 20  1  0
 21 24  1  0
 22 23  1  0
 21 22  1  1
 24 25  1  0
 26 24  2  0
M  END
$$$$
