LFC.pdb
     RDKit          3D

 26 26  0  0  1  0  0  0  0  0999 V2000
   27.4924  -19.7341  -19.0167 C   0  0  0  0  0  0  0  0  0  0  0  0
   27.8716  -20.2836  -17.6610 C   0  0  1  0  0  0  0  0  0  0  0  0
   28.8010  -19.3301  -16.9398 C   0  0  0  0  0  0  0  0  0  0  0  0
   26.6543  -20.5672  -16.7996 C   0  0  0  0  0  0  0  0  0  0  0  0
   27.1604  -21.2784  -15.5606 C   0  0  2  0  0  0  0  0  0  0  0  0
   27.6982  -22.5610  -15.9658 N   0  0  0  0  0  0  0  0  0  0  0  0
   26.1224  -21.4840  -14.5553 C   0  0  0  0  0  0  0  0  0  0  0  0
   25.4710  -22.5595  -14.5393 O   0  0  0  0  0  0  0  0  0  0  0  0
   25.7775  -20.5292  -13.5564 N   0  0  0  0  0  0  0  0  0  0  0  0
   24.7334  -20.7508  -12.5863 C   0  0  1  0  0  0  0  0  0  0  0  0
   24.7896  -19.7465  -11.4549 C   0  0  0  0  0  0  0  0  0  0  0  0
   23.8044  -20.0491  -10.3959 C   0  0  0  0  0  0  0  0  0  0  0  0
   22.5400  -19.5109  -10.4837 C   0  0  0  0  0  0  0  0  0  0  0  0
   21.5638  -19.7419   -9.5418 C   0  0  0  0  0  0  0  0  0  0  0  0
   21.8271  -20.5413   -8.4501 C   0  0  0  0  0  0  0  0  0  0  0  0
   23.0853  -21.0916   -8.3399 C   0  0  0  0  0  0  0  0  0  0  0  0
   24.0563  -20.8494   -9.2962 C   0  0  0  0  0  0  0  0  0  0  0  0
   23.3969  -20.6253  -13.2143 C   0  0  0  0  0  0  0  0  0  0  0  0
   23.1853  -19.6574  -13.9802 O   0  0  0  0  0  0  0  0  0  0  0  0
   22.3447  -21.5483  -12.9903 N   0  0  0  0  0  0  0  0  0  0  0  0
   21.0790  -21.3524  -13.6786 C   0  0  1  0  0  0  0  0  0  0  0  0
   20.8875  -22.5494  -14.6171 C   0  0  0  0  0  0  0  0  0  0  0  0
   19.2433  -22.4142  -15.3774 S   0  0  0  0  0  0  0  0  0  0  0  0
   19.9546  -21.4007  -12.7160 C   0  0  0  0  0  0  0  0  0  0  0  0
   18.8336  -20.6077  -12.8429 O   0  0  0  0  0  0  0  0  0  0  0  0
   20.0281  -22.1969  -11.7464 O   0  0  0  0  0  0  0  0  0  0  0  0
  2  1  1  6
  2  4  1  0
  3  2  1  0
  4  5  1  0
  5  6  1  6
  7  9  1  0
  7  5  1  0
  8  7  2  0
 10  9  1  0
 11 12  1  0
 10 11  1  1
 12 13  2  0
 12 17  1  0
 13 14  1  0
 14 15  2  0
 16 15  1  0
 17 16  2  0
 18 20  1  0
 18 10  1  0
 19 18  2  0
 21 20  1  0
 21 24  1  0
 22 23  1  0
 21 22  1  6
 24 25  1  0
 26 24  2  0
M  END
$$$$
