LFC.pdb
     RDKit          3D

 26 26  0  0  1  0  0  0  0  0999 V2000
   19.5145  -12.7481  -20.8226 C   0  0  0  0  0  0  0  0  0  0  0  0
   20.8771  -12.3626  -20.2951 C   0  0  1  0  0  0  0  0  0  0  0  0
   21.6209  -11.5162  -21.3067 C   0  0  0  0  0  0  0  0  0  0  0  0
   20.7886  -11.6249  -18.9714 C   0  0  0  0  0  0  0  0  0  0  0  0
   22.2061  -11.2394  -18.5983 C   0  0  2  0  0  0  0  0  0  0  0  0
   22.8721  -12.4177  -18.0820 N   0  0  0  0  0  0  0  0  0  0  0  0
   22.2655  -10.1739  -17.6024 C   0  0  0  0  0  0  0  0  0  0  0  0
   21.7883  -10.3629  -16.4545 O   0  0  0  0  0  0  0  0  0  0  0  0
   22.8414   -8.8926  -17.8370 N   0  0  0  0  0  0  0  0  0  0  0  0
   22.7761   -7.8158  -16.8796 C   0  0  1  0  0  0  0  0  0  0  0  0
   24.1449   -7.2451  -16.5754 C   0  0  0  0  0  0  0  0  0  0  0  0
   25.0396   -8.2484  -15.9617 C   0  0  0  0  0  0  0  0  0  0  0  0
   26.2643   -8.4968  -16.5403 C   0  0  0  0  0  0  0  0  0  0  0  0
   27.1564   -9.4138  -16.0337 C   0  0  0  0  0  0  0  0  0  0  0  0
   26.8448  -10.1330  -14.8998 C   0  0  0  0  0  0  0  0  0  0  0  0
   25.6250   -9.9024  -14.3025 C   0  0  0  0  0  0  0  0  0  0  0  0
   24.7385   -8.9762  -14.8248 C   0  0  0  0  0  0  0  0  0  0  0  0
   21.9449   -6.7028  -17.3960 C   0  0  0  0  0  0  0  0  0  0  0  0
   22.1619   -6.2836  -18.5560 O   0  0  0  0  0  0  0  0  0  0  0  0
   20.9149   -6.0883  -16.6405 N   0  0  0  0  0  0  0  0  0  0  0  0
   20.2029   -4.9568  -17.2122 C   0  0  1  0  0  0  0  0  0  0  0  0
   18.7190   -5.1421  -16.8745 C   0  0  0  0  0  0  0  0  0  0  0  0
   17.8405   -3.6199  -17.3337 S   0  0  0  0  0  0  0  0  0  0  0  0
   20.6202   -3.6978  -16.5535 C   0  0  0  0  0  0  0  0  0  0  0  0
   21.3440   -3.6781  -15.3798 O   0  0  0  0  0  0  0  0  0  0  0  0
   20.3007   -2.6060  -17.0877 O   0  0  0  0  0  0  0  0  0  0  0  0
  2  1  1  6
  2  4  1  0
  3  2  1  0
  4  5  1  0
  5  6  1  1
  7  9  1  0
  7  5  1  0
  8  7  2  0
 10  9  1  0
 11 12  1  0
 10 11  1  6
 12 13  2  0
 12 17  1  0
 13 14  1  0
 14 15  2  0
 16 15  1  0
 17 16  2  0
 18 20  1  0
 18 10  1  0
 19 18  2  0
 21 20  1  0
 21 24  1  0
 22 23  1  0
 21 22  1  1
 24 25  1  0
 26 24  2  0
M  END
$$$$
