LFC.pdb
     RDKit          3D

 26 26  0  0  1  0  0  0  0  0999 V2000
   24.1578  -20.9629  -21.0706 C   0  0  0  0  0  0  0  0  0  0  0  0
   24.8044  -20.0607  -20.0451 C   0  0  1  0  0  0  0  0  0  0  0  0
   24.0931  -18.7252  -19.9854 C   0  0  0  0  0  0  0  0  0  0  0  0
   24.8309  -20.6926  -18.6652 C   0  0  0  0  0  0  0  0  0  0  0  0
   25.4813  -19.6820  -17.7417 C   0  0  2  0  0  0  0  0  0  0  0  0
   26.7701  -19.3266  -18.2994 N   0  0  0  0  0  0  0  0  0  0  0  0
   25.6629  -20.1832  -16.3829 C   0  0  0  0  0  0  0  0  0  0  0  0
   25.0658  -21.2272  -16.0159 O   0  0  0  0  0  0  0  0  0  0  0  0
   26.4919  -19.5609  -15.4062 N   0  0  0  0  0  0  0  0  0  0  0  0
   26.6134  -20.0488  -14.0543 C   0  0  1  0  0  0  0  0  0  0  0  0
   27.7000  -19.3259  -13.2872 C   0  0  0  0  0  0  0  0  0  0  0  0
   27.7779  -19.7744  -11.8814 C   0  0  0  0  0  0  0  0  0  0  0  0
   26.9569  -19.1877  -10.9445 C   0  0  0  0  0  0  0  0  0  0  0  0
   26.9658  -19.5458   -9.6159 C   0  0  0  0  0  0  0  0  0  0  0  0
   27.8200  -20.5303   -9.1675 C   0  0  0  0  0  0  0  0  0  0  0  0
   28.6516  -21.1326  -10.0861 C   0  0  0  0  0  0  0  0  0  0  0  0
   28.6304  -20.7607  -11.4193 C   0  0  0  0  0  0  0  0  0  0  0  0
   25.3481  -19.8510  -13.3083 C   0  0  0  0  0  0  0  0  0  0  0  0
   24.8043  -18.7234  -13.3429 O   0  0  0  0  0  0  0  0  0  0  0  0
   24.7223  -20.8768  -12.5565 N   0  0  0  0  0  0  0  0  0  0  0  0
   23.5640  -20.5451  -11.7425 C   0  0  1  0  0  0  0  0  0  0  0  0
   22.3381  -21.1482  -12.4379 C   0  0  0  0  0  0  0  0  0  0  0  0
   22.7309  -22.8635  -12.8888 S   0  0  0  0  0  0  0  0  0  0  0  0
   23.6545  -21.2077  -10.4211 C   0  0  0  0  0  0  0  0  0  0  0  0
   22.7175  -21.0150   -9.4279 O   0  0  0  0  0  0  0  0  0  0  0  0
   24.6246  -21.9753  -10.1995 O   0  0  0  0  0  0  0  0  0  0  0  0
  2  1  1  6
  2  4  1  0
  3  2  1  0
  4  5  1  0
  5  6  1  6
  7  9  1  0
  7  5  1  0
  8  7  2  0
 10  9  1  0
 11 12  1  0
 10 11  1  1
 12 13  2  0
 12 17  1  0
 13 14  1  0
 14 15  2  0
 16 15  1  0
 17 16  2  0
 18 20  1  0
 18 10  1  0
 19 18  2  0
 21 20  1  0
 21 24  1  0
 22 23  1  0
 21 22  1  6
 24 25  1  0
 26 24  2  0
M  END
$$$$
