LFC.pdb
     RDKit          3D

 26 26  0  0  1  0  0  0  0  0999 V2000
   21.7970  -19.0002  -21.4145 C   0  0  0  0  0  0  0  0  0  0  0  0
   23.0070  -18.9476  -20.5107 C   0  0  1  0  0  0  0  0  0  0  0  0
   23.1464  -17.5754  -19.8855 C   0  0  0  0  0  0  0  0  0  0  0  0
   22.9539  -20.0061  -19.4241 C   0  0  0  0  0  0  0  0  0  0  0  0
   24.2225  -19.8505  -18.6096 C   0  0  2  0  0  0  0  0  0  0  0  0
   25.3064  -20.4739  -19.3409 N   0  0  0  0  0  0  0  0  0  0  0  0
   24.1265  -20.4491  -17.2819 C   0  0  0  0  0  0  0  0  0  0  0  0
   24.0820  -21.7000  -17.1611 O   0  0  0  0  0  0  0  0  0  0  0  0
   24.0776  -19.7018  -16.0704 N   0  0  0  0  0  0  0  0  0  0  0  0
   23.9522  -20.3186  -14.7726 C   0  0  1  0  0  0  0  0  0  0  0  0
   24.6033  -19.4890  -13.6864 C   0  0  0  0  0  0  0  0  0  0  0  0
   24.5041  -20.1351  -12.3612 C   0  0  0  0  0  0  0  0  0  0  0  0
   23.4982  -19.7516  -11.5026 C   0  0  0  0  0  0  0  0  0  0  0  0
   23.3347  -20.3018  -10.2519 C   0  0  0  0  0  0  0  0  0  0  0  0
   24.1960  -21.2813   -9.8059 C   0  0  0  0  0  0  0  0  0  0  0  0
   25.2108  -21.6821  -10.6470 C   0  0  0  0  0  0  0  0  0  0  0  0
   25.3616  -21.1185  -11.9023 C   0  0  0  0  0  0  0  0  0  0  0  0
   22.5262  -20.4791  -14.4024 C   0  0  0  0  0  0  0  0  0  0  0  0
   21.7968  -19.4614  -14.3793 O   0  0  0  0  0  0  0  0  0  0  0  0
   21.9463  -21.7299  -14.0726 N   0  0  0  0  0  0  0  0  0  0  0  0
   20.5625  -21.7680  -13.6279 C   0  0  1  0  0  0  0  0  0  0  0  0
   19.9048  -22.9744  -14.3078 C   0  0  0  0  0  0  0  0  0  0  0  0
   20.2282  -22.8637  -16.0918 S   0  0  0  0  0  0  0  0  0  0  0  0
   20.4950  -22.0293  -12.1718 C   0  0  0  0  0  0  0  0  0  0  0  0
   21.5963  -22.4079  -11.4333 O   0  0  0  0  0  0  0  0  0  0  0  0
   19.3890  -21.9002  -11.5892 O   0  0  0  0  0  0  0  0  0  0  0  0
  2  1  1  1
  2  4  1  0
  3  2  1  0
  4  5  1  0
  5  6  1  6
  7  9  1  0
  7  5  1  0
  8  7  2  0
 10  9  1  0
 11 12  1  0
 10 11  1  1
 12 13  2  0
 12 17  1  0
 13 14  1  0
 14 15  2  0
 16 15  1  0
 17 16  2  0
 18 20  1  0
 18 10  1  0
 19 18  2  0
 21 20  1  0
 21 24  1  0
 22 23  1  0
 21 22  1  6
 24 25  1  0
 26 24  2  0
M  END
$$$$
