RLM.pdb
     RDKit          3D

 28 27  0  0  1  0  0  0  0  0999 V2000
   12.6647  -19.4965   20.9956 N   0  0  0  0  0  0  0  0  0  0  0  0
   12.1721  -20.1431   22.1596 C   0  0  0  0  0  0  0  0  0  0  0  0
   12.9148  -20.2177   23.2305 N   0  0  0  0  0  0  0  0  0  0  0  0
   10.8889  -20.7375   22.2581 N   0  0  0  0  0  0  0  0  0  0  0  0
    9.9034  -20.7338   21.1982 C   0  0  0  0  0  0  0  0  0  0  0  0
    9.6471  -19.2806   20.7833 C   0  0  0  0  0  0  0  0  0  0  0  0
    8.6191  -18.6368   21.6959 C   0  0  0  0  0  0  0  0  0  0  0  0
    8.3427  -17.2650   21.1236 C   0  0  2  0  0  0  0  0  0  0  0  0
    9.0983  -17.2021   19.8663 N   0  0  0  0  0  0  0  0  0  0  0  0
    8.7590  -16.1635   22.0222 C   0  0  0  0  0  0  0  0  0  0  0  0
    9.8832  -15.6208   21.8418 O   0  0  0  0  0  0  0  0  0  0  0  0
   12.5542  -20.6614   24.1040 C   0  0  0  0  0  0  0  0  0  0  0  0
    6.1724  -12.8362   26.5300 C   0  0  1  0  0  0  0  0  0  0  0  0
    7.4464  -12.9767   25.6850 C   0  0  0  0  0  0  0  0  0  0  0  0
    7.7284  -11.6406   25.0924 C   0  0  0  0  0  0  0  0  0  0  0  0
    7.1679  -14.0731   24.6886 C   0  0  2  0  0  0  0  0  0  0  0  0
    8.3613  -14.5548   23.9370 N   0  0  0  0  0  0  0  0  0  0  0  0
    7.9598  -15.6780   23.0851 C   0  0  0  0  0  0  0  0  0  0  0  0
    9.5326  -14.9345   24.6940 O   0  0  0  0  0  0  0  0  0  0  0  0
   10.4161  -14.0703   24.9462 C   0  0  0  0  0  0  0  0  0  0  0  0
    9.9750  -13.4438   29.4904 S   0  0  0  0  0  0  0  0  0  0  0  0
   10.4735  -15.1051   30.0230 C   0  0  0  0  0  0  0  0  0  0  0  0
   11.2902  -15.9792   28.6267 C   0  0  0  0  0  0  0  0  0  0  0  0
   10.3803  -15.8211   27.4535 C   0  0  1  0  0  0  0  0  0  0  0  0
   10.8661  -16.4728   26.1798 N   0  0  0  0  0  0  0  0  0  0  0  0
    9.7932  -16.2391   25.2035 C   0  0  0  0  0  0  0  0  0  0  0  0
   11.0723  -17.9038   26.4058 O   0  0  0  0  0  0  0  0  0  0  0  0
   10.2803  -18.9136   25.9090 O   0  0  0  0  0  0  0  0  0  0  0  0
  2  1  1  0
  3  2  2  0
  4  2  1  0
  5  4  1  0
  6  5  1  0
  7  6  1  0
  8  7  1  0
  8  9  1  6
 10  8  1  0
 10 11  2  0
 13 15  1  0
 13 12  1  1
 14 13  1  0
 16 15  1  6
 16 17  1  0
 16 18  1  0
 17 10  1  0
 18 19  2  0
 18 25  1  0
 20 21  1  0
 21 22  1  0
 22 23  1  0
 24 23  1  6
 24 26  1  0
 25 24  1  0
 26 28  2  0
 26 27  1  0
M  END
$$$$
