RLM.pdb
     RDKit          3D

 28 27  0  0  1  0  0  0  0  0999 V2000
    8.1496  -21.5333   16.5561 N   0  0  0  0  0  0  0  0  0  0  0  0
    7.7778  -20.2016   16.2334 C   0  0  0  0  0  0  0  0  0  0  0  0
    6.8698  -19.9783   15.3224 N   0  0  0  0  0  0  0  0  0  0  0  0
    8.3333  -19.0491   16.8439 N   0  0  0  0  0  0  0  0  0  0  0  0
    9.4006  -19.0765   17.8210 C   0  0  0  0  0  0  0  0  0  0  0  0
    8.7842  -18.9002   19.2133 C   0  0  0  0  0  0  0  0  0  0  0  0
    9.3074  -17.6380   19.8745 C   0  0  0  0  0  0  0  0  0  0  0  0
    9.3094  -17.9070   21.3622 C   0  0  2  0  0  0  0  0  0  0  0  0
    8.0326  -18.5748   21.6444 N   0  0  0  0  0  0  0  0  0  0  0  0
    9.4300  -16.6761   22.1773 C   0  0  0  0  0  0  0  0  0  0  0  0
   10.4664  -15.9666   22.0613 O   0  0  0  0  0  0  0  0  0  0  0  0
    6.6440  -19.0060   15.0166 C   0  0  0  0  0  0  0  0  0  0  0  0
    5.8649  -13.4226   26.0240 C   0  0  1  0  0  0  0  0  0  0  0  0
    7.2726  -13.4941   25.4158 C   0  0  0  0  0  0  0  0  0  0  0  0
    7.5427  -12.1753   24.7805 C   0  0  0  0  0  0  0  0  0  0  0  0
    7.2604  -14.6691   24.4716 C   0  0  2  0  0  0  0  0  0  0  0  0
    8.5965  -15.0581   23.9380 N   0  0  0  0  0  0  0  0  0  0  0  0
    8.4385  -16.2437   23.0905 C   0  0  0  0  0  0  0  0  0  0  0  0
    9.6626  -15.2960   24.8846 O   0  0  0  0  0  0  0  0  0  0  0  0
   10.6365  -14.4962   24.9370 C   0  0  0  0  0  0  0  0  0  0  0  0
   11.6498  -13.8253   30.2683 S   0  0  0  0  0  0  0  0  0  0  0  0
   10.5018  -13.1929   29.0137 C   0  0  0  0  0  0  0  0  0  0  0  0
   10.7105  -14.1441   27.4541 C   0  0  0  0  0  0  0  0  0  0  0  0
   10.6135  -15.5846   27.8344 C   0  0  2  0  0  0  0  0  0  0  0  0
   10.8631  -16.5583   26.7061 N   0  0  0  0  0  0  0  0  0  0  0  0
    9.7195  -16.3863   25.7997 C   0  0  0  0  0  0  0  0  0  0  0  0
   10.9182  -17.9216   27.2346 O   0  0  0  0  0  0  0  0  0  0  0  0
   11.9863  -18.4780   27.9006 O   0  0  0  0  0  0  0  0  0  0  0  0
  2  1  1  0
  3  2  2  0
  4  2  1  0
  5  4  1  0
  6  5  1  0
  7  6  1  0
  8  7  1  0
  8  9  1  1
 10  8  1  0
 10 11  2  0
 13 15  1  0
 13 12  1  1
 14 13  1  0
 16 15  1  6
 16 17  1  0
 16 18  1  0
 17 10  1  0
 18 19  2  0
 18 25  1  0
 20 21  1  0
 21 22  1  0
 22 23  1  0
 24 23  1  6
 24 26  1  0
 25 24  1  0
 26 28  2  0
 26 27  1  0
M  END
$$$$
