RLM.pdb
     RDKit          3D

 28 27  0  0  1  0  0  0  0  0999 V2000
    8.6625  -12.5270   16.7989 N   0  0  0  0  0  0  0  0  0  0  0  0
    8.4799  -13.7210   16.0527 C   0  0  0  0  0  0  0  0  0  0  0  0
    9.1842  -13.9327   14.9742 N   0  0  0  0  0  0  0  0  0  0  0  0
    7.5594  -14.7426   16.3969 N   0  0  0  0  0  0  0  0  0  0  0  0
    6.7008  -14.7101   17.5615 C   0  0  0  0  0  0  0  0  0  0  0  0
    7.2989  -15.6351   18.6274 C   0  0  0  0  0  0  0  0  0  0  0  0
    7.7543  -14.8361   19.8351 C   0  0  0  0  0  0  0  0  0  0  0  0
    8.3879  -15.8264   20.7856 C   0  0  2  0  0  0  0  0  0  0  0  0
    7.3459  -16.8202   21.0729 N   0  0  0  0  0  0  0  0  0  0  0  0
    8.8595  -15.2061   22.0452 C   0  0  0  0  0  0  0  0  0  0  0  0
    9.9974  -14.6625   22.0690 O   0  0  0  0  0  0  0  0  0  0  0  0
    8.9664  -14.7322   14.3393 C   0  0  0  0  0  0  0  0  0  0  0  0
    7.5852  -11.9624   25.5321 C   0  0  2  0  0  0  0  0  0  0  0  0
    6.6119  -13.1082   25.2216 C   0  0  0  0  0  0  0  0  0  0  0  0
    5.4490  -12.9556   26.1383 C   0  0  0  0  0  0  0  0  0  0  0  0
    7.3989  -14.3825   25.3924 C   0  0  2  0  0  0  0  0  0  0  0  0
    8.5579  -14.5319   24.4674 N   0  0  0  0  0  0  0  0  0  0  0  0
    8.0991  -15.1874   23.2392 C   0  0  0  0  0  0  0  0  0  0  0  0
    9.7322  -15.2187   24.9560 O   0  0  0  0  0  0  0  0  0  0  0  0
   10.8650  -14.6784   24.8300 C   0  0  0  0  0  0  0  0  0  0  0  0
   11.5229  -13.0925   28.7816 S   0  0  0  0  0  0  0  0  0  0  0  0
   11.7232  -14.6027   29.7672 C   0  0  0  0  0  0  0  0  0  0  0  0
   11.8542  -16.0549   28.6472 C   0  0  0  0  0  0  0  0  0  0  0  0
   10.8233  -15.8512   27.5866 C   0  0  1  0  0  0  0  0  0  0  0  0
   10.8226  -16.8930   26.4922 N   0  0  0  0  0  0  0  0  0  0  0  0
    9.7323  -16.4935   25.5919 C   0  0  0  0  0  0  0  0  0  0  0  0
   10.5738  -18.2143   27.0696 O   0  0  0  0  0  0  0  0  0  0  0  0
   11.4863  -18.9610   27.7794 O   0  0  0  0  0  0  0  0  0  0  0  0
  2  1  1  0
  3  2  2  0
  4  2  1  0
  5  4  1  0
  6  5  1  0
  7  6  1  0
  8  7  1  0
  8  9  1  1
 10  8  1  0
 10 11  2  0
 13 15  1  0
 13 12  1  6
 14 13  1  0
 16 15  1  6
 16 17  1  0
 16 18  1  0
 17 10  1  0
 18 19  2  0
 18 25  1  0
 20 21  1  0
 21 22  1  0
 22 23  1  0
 24 23  1  6
 24 26  1  0
 25 24  1  0
 26 28  2  0
 26 27  1  0
M  END
$$$$
