RLM.pdb
     RDKit          3D

 28 27  0  0  1  0  0  0  0  0999 V2000
    8.6217  -13.5636   17.7199 N   0  0  0  0  0  0  0  0  0  0  0  0
    8.4002  -14.3782   16.5783 C   0  0  0  0  0  0  0  0  0  0  0  0
    7.6833  -13.9299   15.5837 N   0  0  0  0  0  0  0  0  0  0  0  0
    8.9145  -15.6902   16.4239 N   0  0  0  0  0  0  0  0  0  0  0  0
    8.8449  -16.7196   17.4389 C   0  0  0  0  0  0  0  0  0  0  0  0
    7.7615  -16.3274   18.4498 C   0  0  0  0  0  0  0  0  0  0  0  0
    8.3180  -15.3672   19.4854 C   0  0  0  0  0  0  0  0  0  0  0  0
    8.4614  -16.1590   20.7653 C   0  0  2  0  0  0  0  0  0  0  0  0
    7.1849  -16.8633   20.9391 N   0  0  0  0  0  0  0  0  0  0  0  0
    8.7389  -15.3111   21.9477 C   0  0  0  0  0  0  0  0  0  0  0  0
    9.8447  -14.7089   22.0207 O   0  0  0  0  0  0  0  0  0  0  0  0
    7.5002  -14.5226   14.7441 C   0  0  0  0  0  0  0  0  0  0  0  0
    5.4571  -13.0410   26.6402 C   0  0  1  0  0  0  0  0  0  0  0  0
    6.8300  -12.9720   25.9568 C   0  0  0  0  0  0  0  0  0  0  0  0
    7.0939  -11.5401   25.6476 C   0  0  0  0  0  0  0  0  0  0  0  0
    6.7456  -13.8810   24.7572 C   0  0  2  0  0  0  0  0  0  0  0  0
    8.0533  -14.1923   24.1135 N   0  0  0  0  0  0  0  0  0  0  0  0
    7.8248  -15.1347   23.0143 C   0  0  0  0  0  0  0  0  0  0  0  0
    9.1190  -14.6957   24.9501 O   0  0  0  0  0  0  0  0  0  0  0  0
    9.9533  -13.8895   25.4453 C   0  0  0  0  0  0  0  0  0  0  0  0
   11.6425  -14.6178   30.3476 S   0  0  0  0  0  0  0  0  0  0  0  0
   10.3496  -13.8912   29.3023 C   0  0  0  0  0  0  0  0  0  0  0  0
   10.6178  -14.3936   27.5541 C   0  0  0  0  0  0  0  0  0  0  0  0
   10.1931  -15.8223   27.4667 C   0  0  2  0  0  0  0  0  0  0  0  0
   10.4493  -16.4811   26.1312 N   0  0  0  0  0  0  0  0  0  0  0  0
    9.3235  -16.0655   25.2834 C   0  0  0  0  0  0  0  0  0  0  0  0
   10.4782  -17.9348   26.2961 O   0  0  0  0  0  0  0  0  0  0  0  0
   11.5344  -18.6614   26.7965 O   0  0  0  0  0  0  0  0  0  0  0  0
  2  1  1  0
  3  2  2  0
  4  2  1  0
  5  4  1  0
  6  5  1  0
  7  6  1  0
  8  7  1  0
  8  9  1  1
 10  8  1  0
 10 11  2  0
 13 15  1  0
 13 12  1  1
 14 13  1  0
 16 15  1  6
 16 17  1  0
 16 18  1  0
 17 10  1  0
 18 19  2  0
 18 25  1  0
 20 21  1  0
 21 22  1  0
 22 23  1  0
 24 23  1  6
 24 26  1  0
 25 24  1  0
 26 28  2  0
 26 27  1  0
M  END
$$$$
