RLM.pdb
     RDKit          3D

 28 27  0  0  1  0  0  0  0  0999 V2000
   11.2466  -21.9212   17.8018 N   0  0  0  0  0  0  0  0  0  0  0  0
   12.5327  -21.5365   18.2641 C   0  0  0  0  0  0  0  0  0  0  0  0
   13.5347  -22.3689   18.1787 N   0  0  0  0  0  0  0  0  0  0  0  0
   12.8297  -20.2724   18.8328 N   0  0  0  0  0  0  0  0  0  0  0  0
   11.8395  -19.3705   19.3812 C   0  0  0  0  0  0  0  0  0  0  0  0
   11.0097  -18.8041   18.2236 C   0  0  0  0  0  0  0  0  0  0  0  0
   10.1461  -17.6497   18.6987 C   0  0  0  0  0  0  0  0  0  0  0  0
   10.2159  -17.6603   20.2089 C   0  0  2  0  0  0  0  0  0  0  0  0
    9.1058  -18.5143   20.6496 N   0  0  0  0  0  0  0  0  0  0  0  0
   10.0882  -16.3117   20.8081 C   0  0  0  0  0  0  0  0  0  0  0  0
   11.1309  -15.6289   21.0017 O   0  0  0  0  0  0  0  0  0  0  0  0
   14.4786  -22.1119   18.5431 C   0  0  0  0  0  0  0  0  0  0  0  0
    8.6380  -12.4400   19.4203 C   0  0  2  0  0  0  0  0  0  0  0  0
    7.5593  -13.5088   19.6456 C   0  0  0  0  0  0  0  0  0  0  0  0
    6.2994  -12.9932   19.0434 C   0  0  0  0  0  0  0  0  0  0  0  0
    7.5084  -13.7436   21.1338 C   0  0  2  0  0  0  0  0  0  0  0  0
    8.7288  -14.3752   21.7106 N   0  0  0  0  0  0  0  0  0  0  0  0
    8.8496  -15.7369   21.1815 C   0  0  0  0  0  0  0  0  0  0  0  0
    8.8557  -14.4175   23.1498 O   0  0  0  0  0  0  0  0  0  0  0  0
    8.7754  -13.3469   23.8120 C   0  0  0  0  0  0  0  0  0  0  0  0
    7.5767  -11.5237   27.2497 S   0  0  0  0  0  0  0  0  0  0  0  0
    6.6885  -13.0902   27.0280 C   0  0  0  0  0  0  0  0  0  0  0  0
    7.1865  -13.8591   25.4338 C   0  0  0  0  0  0  0  0  0  0  0  0
    7.6373  -15.2428   25.7673 C   0  0  2  0  0  0  0  0  0  0  0  0
    9.0669  -15.5541   25.3895 N   0  0  0  0  0  0  0  0  0  0  0  0
    9.0681  -15.5965   23.9208 C   0  0  0  0  0  0  0  0  0  0  0  0
    9.4564  -16.8459   25.9558 O   0  0  0  0  0  0  0  0  0  0  0  0
    9.8102  -17.0697   27.2668 O   0  0  0  0  0  0  0  0  0  0  0  0
  2  1  1  0
  3  2  2  0
  4  2  1  0
  5  4  1  0
  6  5  1  0
  7  6  1  0
  8  7  1  0
  8  9  1  1
 10  8  1  0
 10 11  2  0
 13 15  1  0
 13 12  1  6
 14 13  1  0
 16 15  1  6
 16 17  1  0
 16 18  1  0
 17 10  1  0
 18 19  2  0
 18 25  1  0
 20 21  1  0
 21 22  1  0
 22 23  1  0
 24 23  1  6
 24 26  1  0
 25 24  1  0
 26 28  2  0
 26 27  1  0
M  END
$$$$
