RLM.pdb
     RDKit          3D

 28 27  0  0  1  0  0  0  0  0999 V2000
    6.9532  -22.2584   22.3877 N   0  0  0  0  0  0  0  0  0  0  0  0
    7.5607  -23.1917   21.5070 C   0  0  0  0  0  0  0  0  0  0  0  0
    7.0283  -24.3710   21.3346 N   0  0  0  0  0  0  0  0  0  0  0  0
    8.7447  -22.9374   20.7699 N   0  0  0  0  0  0  0  0  0  0  0  0
    9.4546  -21.6762   20.7743 C   0  0  0  0  0  0  0  0  0  0  0  0
    8.5253  -20.5978   20.2058 C   0  0  0  0  0  0  0  0  0  0  0  0
    8.6648  -19.3044   20.9879 C   0  0  0  0  0  0  0  0  0  0  0  0
    8.9545  -18.2227   19.9722 C   0  0  2  0  0  0  0  0  0  0  0  0
   10.0385  -18.7491   19.1331 N   0  0  0  0  0  0  0  0  0  0  0  0
    9.3658  -16.9398   20.5876 C   0  0  0  0  0  0  0  0  0  0  0  0
   10.5721  -16.7815   20.9201 O   0  0  0  0  0  0  0  0  0  0  0  0
    7.4418  -25.0534   20.6614 C   0  0  0  0  0  0  0  0  0  0  0  0
    8.9709  -12.6602   18.9555 C   0  0  2  0  0  0  0  0  0  0  0  0
    7.7068  -13.3625   19.4707 C   0  0  0  0  0  0  0  0  0  0  0  0
    6.5459  -12.5164   19.0804 C   0  0  0  0  0  0  0  0  0  0  0  0
    7.9016  -13.5368   20.9553 C   0  0  2  0  0  0  0  0  0  0  0  0
    8.9106  -14.5646   21.3385 N   0  0  0  0  0  0  0  0  0  0  0  0
    8.4735  -15.8673   20.8281 C   0  0  0  0  0  0  0  0  0  0  0  0
    9.2469  -14.6971   22.7380 O   0  0  0  0  0  0  0  0  0  0  0  0
   10.0804  -13.9035   23.2542 C   0  0  0  0  0  0  0  0  0  0  0  0
    7.0801  -11.8294   27.5526 S   0  0  0  0  0  0  0  0  0  0  0  0
    6.1429  -13.3434   27.2042 C   0  0  0  0  0  0  0  0  0  0  0  0
    7.3072  -14.7470   26.9697 C   0  0  0  0  0  0  0  0  0  0  0  0
    7.5021  -14.8781   25.4952 C   0  0  1  0  0  0  0  0  0  0  0  0
    8.8077  -15.5161   25.0808 N   0  0  0  0  0  0  0  0  0  0  0  0
    8.7051  -15.6727   23.6235 C   0  0  0  0  0  0  0  0  0  0  0  0
    8.9547  -16.8128   25.7426 O   0  0  0  0  0  0  0  0  0  0  0  0
    9.3868  -17.0061   27.0349 O   0  0  0  0  0  0  0  0  0  0  0  0
  2  1  1  0
  3  2  2  0
  4  2  1  0
  5  4  1  0
  6  5  1  0
  7  6  1  0
  8  7  1  0
  8  9  1  6
 10  8  1  0
 10 11  2  0
 13 15  1  0
 13 12  1  6
 14 13  1  0
 16 15  1  6
 16 17  1  0
 16 18  1  0
 17 10  1  0
 18 19  2  0
 18 25  1  0
 20 21  1  0
 21 22  1  0
 22 23  1  0
 24 23  1  6
 24 26  1  0
 25 24  1  0
 26 28  2  0
 26 27  1  0
M  END
$$$$
