RLM.pdb
     RDKit          3D

 28 27  0  0  1  0  0  0  0  0999 V2000
    7.7417  -14.2334   15.6477 N   0  0  0  0  0  0  0  0  0  0  0  0
    8.8239  -14.8636   16.3167 C   0  0  0  0  0  0  0  0  0  0  0  0
    9.3221  -15.9767   15.8509 N   0  0  0  0  0  0  0  0  0  0  0  0
    9.4320  -14.3631   17.4954 N   0  0  0  0  0  0  0  0  0  0  0  0
    8.9376  -13.2336   18.2533 C   0  0  0  0  0  0  0  0  0  0  0  0
    7.7358  -13.6987   19.0833 C   0  0  0  0  0  0  0  0  0  0  0  0
    7.9580  -13.4077   20.5565 C   0  0  0  0  0  0  0  0  0  0  0  0
    8.2135  -14.7423   21.2194 C   0  0  2  0  0  0  0  0  0  0  0  0
    6.9686  -15.5051   21.0642 N   0  0  0  0  0  0  0  0  0  0  0  0
    8.5611  -14.6236   22.6543 C   0  0  0  0  0  0  0  0  0  0  0  0
    9.7049  -14.1972   22.9718 O   0  0  0  0  0  0  0  0  0  0  0  0
   10.1290  -16.4422   16.3221 C   0  0  0  0  0  0  0  0  0  0  0  0
    8.0020  -12.1297   26.3634 C   0  0  2  0  0  0  0  0  0  0  0  0
    6.7834  -12.7617   25.6762 C   0  0  0  0  0  0  0  0  0  0  0  0
    5.5708  -12.1529   26.2883 C   0  0  0  0  0  0  0  0  0  0  0  0
    6.9199  -14.2504   25.8703 C   0  0  2  0  0  0  0  0  0  0  0  0
    8.0433  -14.8798   25.1198 N   0  0  0  0  0  0  0  0  0  0  0  0
    7.6744  -14.9652   23.7037 C   0  0  0  0  0  0  0  0  0  0  0  0
    8.5144  -16.1729   25.5614 O   0  0  0  0  0  0  0  0  0  0  0  0
    7.7519  -17.1741   25.4759 C   0  0  0  0  0  0  0  0  0  0  0  0
   13.5198  -16.9530   22.2192 S   0  0  0  0  0  0  0  0  0  0  0  0
   13.3661  -17.3426   23.9846 C   0  0  0  0  0  0  0  0  0  0  0  0
   11.6150  -17.7445   24.3754 C   0  0  0  0  0  0  0  0  0  0  0  0
   11.5676  -17.9892   25.8474 C   0  0  2  0  0  0  0  0  0  0  0  0
   10.2091  -17.7964   26.4804 N   0  0  0  0  0  0  0  0  0  0  0  0
    9.8063  -16.4352   26.1016 C   0  0  0  0  0  0  0  0  0  0  0  0
   10.3189  -17.9300   27.9335 O   0  0  0  0  0  0  0  0  0  0  0  0
   10.5801  -19.0991   28.6110 O   0  0  0  0  0  0  0  0  0  0  0  0
  2  1  1  0
  3  2  2  0
  4  2  1  0
  5  4  1  0
  6  5  1  0
  7  6  1  0
  8  7  1  0
  8  9  1  1
 10  8  1  0
 10 11  2  0
 13 15  1  0
 13 12  1  6
 14 13  1  0
 16 15  1  6
 16 17  1  0
 16 18  1  0
 17 10  1  0
 18 19  2  0
 18 25  1  0
 20 21  1  0
 21 22  1  0
 22 23  1  0
 24 23  1  6
 24 26  1  0
 25 24  1  0
 26 28  2  0
 26 27  1  0
M  END
$$$$
