RLM.pdb
     RDKit          3D

 28 27  0  0  1  0  0  0  0  0999 V2000
   10.4192  -13.8774   19.3768 N   0  0  0  0  0  0  0  0  0  0  0  0
    9.1455  -13.3282   19.0737 C   0  0  0  0  0  0  0  0  0  0  0  0
    9.0502  -12.2956   18.2807 N   0  0  0  0  0  0  0  0  0  0  0  0
    7.9205  -13.8294   19.5813 N   0  0  0  0  0  0  0  0  0  0  0  0
    7.7039  -15.2026   19.9839 C   0  0  0  0  0  0  0  0  0  0  0  0
    9.0292  -15.7657   20.5093 C   0  0  0  0  0  0  0  0  0  0  0  0
    8.9135  -16.1226   21.9802 C   0  0  0  0  0  0  0  0  0  0  0  0
   10.2444  -16.7188   22.3788 C   0  0  2  0  0  0  0  0  0  0  0  0
   10.3459  -17.9854   21.6431 N   0  0  0  0  0  0  0  0  0  0  0  0
   10.3601  -16.9662   23.8346 C   0  0  0  0  0  0  0  0  0  0  0  0
   10.0911  -18.1145   24.2816 O   0  0  0  0  0  0  0  0  0  0  0  0
    8.1247  -11.8558   18.0812 C   0  0  0  0  0  0  0  0  0  0  0  0
    9.8175  -14.8373   28.6533 C   0  0  1  0  0  0  0  0  0  0  0  0
   11.3049  -15.1317   28.4132 C   0  0  0  0  0  0  0  0  0  0  0  0
   12.0794  -14.0628   29.1013 C   0  0  0  0  0  0  0  0  0  0  0  0
   11.4831  -15.1896   26.9175 C   0  0  1  0  0  0  0  0  0  0  0  0
   10.5476  -16.1092   26.2101 N   0  0  0  0  0  0  0  0  0  0  0  0
   10.7596  -15.9774   24.7657 C   0  0  0  0  0  0  0  0  0  0  0  0
    9.1348  -15.9881   26.4906 O   0  0  0  0  0  0  0  0  0  0  0  0
    8.6263  -14.8428   26.6345 C   0  0  0  0  0  0  0  0  0  0  0  0
    6.4973  -12.7966   26.6408 S   0  0  0  0  0  0  0  0  0  0  0  0
    4.9880  -13.4664   25.8889 C   0  0  0  0  0  0  0  0  0  0  0  0
    5.3173  -15.1597   25.2526 C   0  0  0  0  0  0  0  0  0  0  0  0
    6.6790  -15.5262   25.7433 C   0  0  2  0  0  0  0  0  0  0  0  0
    6.8365  -16.9693   26.1628 N   0  0  0  0  0  0  0  0  0  0  0  0
    8.2278  -17.0786   26.6225 C   0  0  0  0  0  0  0  0  0  0  0  0
    6.5880  -17.8455   25.0176 O   0  0  0  0  0  0  0  0  0  0  0  0
    7.4361  -18.0233   23.9485 O   0  0  0  0  0  0  0  0  0  0  0  0
  2  1  1  0
  3  2  2  0
  4  2  1  0
  5  4  1  0
  6  5  1  0
  7  6  1  0
  8  7  1  0
  8  9  1  6
 10  8  1  0
 10 11  2  0
 13 15  1  0
 13 12  1  1
 14 13  1  0
 16 15  1  1
 16 17  1  0
 16 18  1  0
 17 10  1  0
 18 19  2  0
 18 25  1  0
 20 21  1  0
 21 22  1  0
 22 23  1  0
 24 23  1  1
 24 26  1  0
 25 24  1  0
 26 28  2  0
 26 27  1  0
M  END
$$$$
