RLM.pdb
     RDKit          3D

 28 27  0  0  1  0  0  0  0  0999 V2000
    6.6850  -14.5743   15.8282 N   0  0  0  0  0  0  0  0  0  0  0  0
    7.8571  -13.8209   15.5557 C   0  0  0  0  0  0  0  0  0  0  0  0
    7.9355  -13.1030   14.4683 N   0  0  0  0  0  0  0  0  0  0  0  0
    8.9941  -13.7825   16.4016 N   0  0  0  0  0  0  0  0  0  0  0  0
    9.3510  -14.8266   17.3382 C   0  0  0  0  0  0  0  0  0  0  0  0
    8.3459  -14.8007   18.4952 C   0  0  0  0  0  0  0  0  0  0  0  0
    8.9848  -14.2262   19.7466 C   0  0  0  0  0  0  0  0  0  0  0  0
    9.1958  -15.3899   20.6884 C   0  0  2  0  0  0  0  0  0  0  0  0
    8.0103  -16.2424   20.5347 N   0  0  0  0  0  0  0  0  0  0  0  0
    9.3439  -14.9759   22.1029 C   0  0  0  0  0  0  0  0  0  0  0  0
   10.3572  -14.3045   22.4393 O   0  0  0  0  0  0  0  0  0  0  0  0
    8.8160  -12.6005   14.2192 C   0  0  0  0  0  0  0  0  0  0  0  0
    5.6088  -13.1692   26.4154 C   0  0  1  0  0  0  0  0  0  0  0  0
    7.0963  -13.3464   26.0797 C   0  0  0  0  0  0  0  0  0  0  0  0
    7.7010  -11.9868   26.0392 C   0  0  0  0  0  0  0  0  0  0  0  0
    7.1432  -14.1070   24.7791 C   0  0  2  0  0  0  0  0  0  0  0  0
    8.4609  -14.7276   24.4632 N   0  0  0  0  0  0  0  0  0  0  0  0
    8.4035  -15.2935   23.1123 C   0  0  0  0  0  0  0  0  0  0  0  0
    8.9749  -15.7285   25.3705 O   0  0  0  0  0  0  0  0  0  0  0  0
    8.5782  -15.7437   26.5678 C   0  0  0  0  0  0  0  0  0  0  0  0
   11.0964  -13.5969   28.7349 S   0  0  0  0  0  0  0  0  0  0  0  0
   11.3843  -15.2105   29.5131 C   0  0  0  0  0  0  0  0  0  0  0  0
   10.7026  -16.5402   28.4418 C   0  0  0  0  0  0  0  0  0  0  0  0
   11.0059  -16.1335   27.0376 C   0  0  1  0  0  0  0  0  0  0  0  0
   10.8860  -17.2398   26.0153 N   0  0  0  0  0  0  0  0  0  0  0  0
    9.9196  -16.7385   25.0287 C   0  0  0  0  0  0  0  0  0  0  0  0
   10.3972  -18.4579   26.6622 O   0  0  0  0  0  0  0  0  0  0  0  0
   11.1614  -19.3324   27.4006 O   0  0  0  0  0  0  0  0  0  0  0  0
  2  1  1  0
  3  2  2  0
  4  2  1  0
  5  4  1  0
  6  5  1  0
  7  6  1  0
  8  7  1  0
  8  9  1  1
 10  8  1  0
 10 11  2  0
 13 15  1  0
 13 12  1  1
 14 13  1  0
 16 15  1  6
 16 17  1  0
 16 18  1  0
 17 10  1  0
 18 19  2  0
 18 25  1  0
 20 21  1  0
 21 22  1  0
 22 23  1  0
 24 23  1  6
 24 26  1  0
 25 24  1  0
 26 28  2  0
 26 27  1  0
M  END
$$$$
