RLM.pdb
     RDKit          3D

 28 27  0  0  1  0  0  0  0  0999 V2000
    9.6890  -16.9111   12.8721 N   0  0  0  0  0  0  0  0  0  0  0  0
   10.7143  -16.8468   13.8521 C   0  0  0  0  0  0  0  0  0  0  0  0
   11.9632  -16.7425   13.4866 N   0  0  0  0  0  0  0  0  0  0  0  0
   10.4838  -16.8879   15.2502 N   0  0  0  0  0  0  0  0  0  0  0  0
    9.9282  -18.0243   15.9535 C   0  0  0  0  0  0  0  0  0  0  0  0
   11.0029  -18.5822   16.8933 C   0  0  0  0  0  0  0  0  0  0  0  0
   11.3685  -17.5605   17.9548 C   0  0  0  0  0  0  0  0  0  0  0  0
   10.5445  -17.9024   19.1754 C   0  0  2  0  0  0  0  0  0  0  0  0
    9.2150  -18.2615   18.6664 N   0  0  0  0  0  0  0  0  0  0  0  0
   10.4345  -16.7815   20.1374 C   0  0  0  0  0  0  0  0  0  0  0  0
   11.4867  -16.3137   20.6522 O   0  0  0  0  0  0  0  0  0  0  0  0
   12.7289  -16.7089   14.1954 C   0  0  0  0  0  0  0  0  0  0  0  0
    8.5987  -12.7005   19.3931 C   0  0  2  0  0  0  0  0  0  0  0  0
    7.6257  -13.8679   19.6099 C   0  0  0  0  0  0  0  0  0  0  0  0
    6.2634  -13.3705   19.2746 C   0  0  0  0  0  0  0  0  0  0  0  0
    7.8128  -14.3075   21.0397 C   0  0  2  0  0  0  0  0  0  0  0  0
    9.1140  -14.9761   21.3245 N   0  0  0  0  0  0  0  0  0  0  0  0
    9.2026  -16.1972   20.5185 C   0  0  0  0  0  0  0  0  0  0  0  0
    9.4260  -15.2967   22.6989 O   0  0  0  0  0  0  0  0  0  0  0  0
   10.5993  -15.6442   23.0046 C   0  0  0  0  0  0  0  0  0  0  0  0
    6.4706  -11.6816   26.1135 S   0  0  0  0  0  0  0  0  0  0  0  0
    7.3919  -12.2085   27.5851 C   0  0  0  0  0  0  0  0  0  0  0  0
    8.3877  -13.7015   27.1851 C   0  0  0  0  0  0  0  0  0  0  0  0
    8.2002  -13.9419   25.7235 C   0  0  1  0  0  0  0  0  0  0  0  0
    8.9637  -15.1228   25.1705 N   0  0  0  0  0  0  0  0  0  0  0  0
    8.5014  -15.2538   23.7819 C   0  0  0  0  0  0  0  0  0  0  0  0
    8.6481  -16.3217   25.9478 O   0  0  0  0  0  0  0  0  0  0  0  0
    7.8876  -17.3814   25.5090 O   0  0  0  0  0  0  0  0  0  0  0  0
  2  1  1  0
  3  2  2  0
  4  2  1  0
  5  4  1  0
  6  5  1  0
  7  6  1  0
  8  7  1  0
  8  9  1  6
 10  8  1  0
 10 11  2  0
 13 15  1  0
 13 12  1  6
 14 13  1  0
 16 15  1  6
 16 17  1  0
 16 18  1  0
 17 10  1  0
 18 19  2  0
 18 25  1  0
 20 21  1  0
 21 22  1  0
 22 23  1  0
 24 23  1  6
 24 26  1  0
 25 24  1  0
 26 28  2  0
 26 27  1  0
M  END
$$$$
