RLM.pdb
     RDKit          3D

 28 27  0  0  1  0  0  0  0  0999 V2000
    8.4662  -12.7374   15.3015 N   0  0  0  0  0  0  0  0  0  0  0  0
    8.6714  -14.1192   15.0480 C   0  0  0  0  0  0  0  0  0  0  0  0
    8.5098  -14.5944   13.8429 N   0  0  0  0  0  0  0  0  0  0  0  0
    9.0531  -15.0622   16.0352 N   0  0  0  0  0  0  0  0  0  0  0  0
    9.3471  -14.7292   17.4127 C   0  0  0  0  0  0  0  0  0  0  0  0
    8.0219  -14.4830   18.1426 C   0  0  0  0  0  0  0  0  0  0  0  0
    8.2729  -13.9909   19.5564 C   0  0  0  0  0  0  0  0  0  0  0  0
    8.5577  -15.2197   20.3898 C   0  0  2  0  0  0  0  0  0  0  0  0
    7.2579  -15.8739   20.5859 N   0  0  0  0  0  0  0  0  0  0  0  0
    9.1714  -14.9059   21.7008 C   0  0  0  0  0  0  0  0  0  0  0  0
   10.4001  -14.6248   21.7478 O   0  0  0  0  0  0  0  0  0  0  0  0
    8.6573  -15.6080   13.6414 C   0  0  0  0  0  0  0  0  0  0  0  0
    7.4174  -12.0632   24.3574 C   0  0  2  0  0  0  0  0  0  0  0  0
    6.9155  -13.4950   24.5910 C   0  0  0  0  0  0  0  0  0  0  0  0
    5.7013  -13.3992   25.4469 C   0  0  0  0  0  0  0  0  0  0  0  0
    8.0704  -14.2482   25.2002 C   0  0  2  0  0  0  0  0  0  0  0  0
    9.0930  -14.7227   24.2253 N   0  0  0  0  0  0  0  0  0  0  0  0
    8.4514  -14.9031   22.9198 C   0  0  0  0  0  0  0  0  0  0  0  0
    9.8390  -15.9171   24.5512 O   0  0  0  0  0  0  0  0  0  0  0  0
   10.8081  -16.2625   23.8215 C   0  0  0  0  0  0  0  0  0  0  0  0
   10.5971  -12.9447   28.9041 S   0  0  0  0  0  0  0  0  0  0  0  0
   10.5779  -14.4228   29.9561 C   0  0  0  0  0  0  0  0  0  0  0  0
   11.0886  -15.8871   28.9685 C   0  0  0  0  0  0  0  0  0  0  0  0
   10.2761  -15.8430   27.7167 C   0  0  1  0  0  0  0  0  0  0  0  0
   10.5654  -16.9518   26.7316 N   0  0  0  0  0  0  0  0  0  0  0  0
    9.5762  -16.7719   25.6602 C   0  0  0  0  0  0  0  0  0  0  0  0
   10.4031  -18.2493   27.3883 O   0  0  0  0  0  0  0  0  0  0  0  0
   11.3616  -18.8900   28.1398 O   0  0  0  0  0  0  0  0  0  0  0  0
  2  1  1  0
  3  2  2  0
  4  2  1  0
  5  4  1  0
  6  5  1  0
  7  6  1  0
  8  7  1  0
  8  9  1  1
 10  8  1  0
 10 11  2  0
 13 15  1  0
 13 12  1  6
 14 13  1  0
 16 15  1  6
 16 17  1  0
 16 18  1  0
 17 10  1  0
 18 19  2  0
 18 25  1  0
 20 21  1  0
 21 22  1  0
 22 23  1  0
 24 23  1  6
 24 26  1  0
 25 24  1  0
 26 28  2  0
 26 27  1  0
M  END
$$$$
