RLM.pdb
     RDKit          3D

 28 27  0  0  1  0  0  0  0  0999 V2000
    8.9770  -17.9373   16.7741 N   0  0  0  0  0  0  0  0  0  0  0  0
    8.2730  -19.1701   16.7575 C   0  0  0  0  0  0  0  0  0  0  0  0
    8.7452  -20.1842   16.0846 N   0  0  0  0  0  0  0  0  0  0  0  0
    7.0514  -19.3993   17.4393 N   0  0  0  0  0  0  0  0  0  0  0  0
    6.3584  -18.4048   18.2301 C   0  0  0  0  0  0  0  0  0  0  0  0
    7.3980  -17.4374   18.8070 C   0  0  0  0  0  0  0  0  0  0  0  0
    6.8080  -16.6409   19.9566 C   0  0  0  0  0  0  0  0  0  0  0  0
    7.5196  -17.1076   21.2062 C   0  0  2  0  0  0  0  0  0  0  0  0
    6.5385  -17.9161   21.9407 N   0  0  0  0  0  0  0  0  0  0  0  0
    7.9975  -15.9927   22.0562 C   0  0  0  0  0  0  0  0  0  0  0  0
    9.0566  -15.3892   21.7324 O   0  0  0  0  0  0  0  0  0  0  0  0
    8.2361  -21.0953   16.0591 C   0  0  0  0  0  0  0  0  0  0  0  0
    8.3699  -12.3264   25.3981 C   0  0  1  0  0  0  0  0  0  0  0  0
    6.8882  -12.6630   25.6172 C   0  0  0  0  0  0  0  0  0  0  0  0
    6.6688  -12.7373   27.0876 C   0  0  0  0  0  0  0  0  0  0  0  0
    6.6360  -13.9458   24.8667 C   0  0  1  0  0  0  0  0  0  0  0  0
    7.7714  -14.4104   24.0203 N   0  0  0  0  0  0  0  0  0  0  0  0
    7.3274  -15.5592   23.2255 C   0  0  0  0  0  0  0  0  0  0  0  0
    9.0147  -14.7457   24.6769 O   0  0  0  0  0  0  0  0  0  0  0  0
    9.8486  -13.8339   24.9303 C   0  0  0  0  0  0  0  0  0  0  0  0
   10.4951  -13.1458   29.0580 S   0  0  0  0  0  0  0  0  0  0  0  0
   10.8294  -14.8070   29.7068 C   0  0  0  0  0  0  0  0  0  0  0  0
   11.2730  -15.9306   28.3207 C   0  0  0  0  0  0  0  0  0  0  0  0
   10.2545  -15.6920   27.2554 C   0  0  1  0  0  0  0  0  0  0  0  0
   10.6000  -16.2731   25.9040 N   0  0  0  0  0  0  0  0  0  0  0  0
    9.4016  -16.0554   25.0823 C   0  0  0  0  0  0  0  0  0  0  0  0
   10.8943  -17.6999   26.0416 O   0  0  0  0  0  0  0  0  0  0  0  0
   12.0292  -18.2304   26.6114 O   0  0  0  0  0  0  0  0  0  0  0  0
  2  1  1  0
  3  2  2  0
  4  2  1  0
  5  4  1  0
  6  5  1  0
  7  6  1  0
  8  7  1  0
  8  9  1  1
 10  8  1  0
 10 11  2  0
 13 15  1  0
 13 12  1  1
 14 13  1  0
 16 15  1  6
 16 17  1  0
 16 18  1  0
 17 10  1  0
 18 19  2  0
 18 25  1  0
 20 21  1  0
 21 22  1  0
 22 23  1  0
 24 23  1  6
 24 26  1  0
 25 24  1  0
 26 28  2  0
 26 27  1  0
M  END
$$$$
