TNK.pdb
     RDKit          3D

 25 24  0  0  1  0  0  0  0  0999 V2000
    7.2857  -12.9624   18.9849 C   0  0  0  0  0  0  0  0  0  0  0  0
    8.0953  -13.7532   19.9829 C   0  0  1  0  0  0  0  0  0  0  0  0
    7.3048  -13.8627   21.1525 O   0  0  0  0  0  0  0  0  0  0  0  0
    8.4409  -15.1467   19.4763 C   0  0  2  0  0  0  0  0  0  0  0  0
    7.1545  -15.8064   19.1888 N   0  0  0  0  0  0  0  0  0  0  0  0
    9.1900  -15.9418   20.4577 C   0  0  0  0  0  0  0  0  0  0  0  0
    8.5818  -16.9083   21.0419 O   0  0  0  0  0  0  0  0  0  0  0  0
   13.1300  -18.6506   22.8033 N   0  0  0  0  0  0  0  0  0  0  0  0
   13.4390  -17.3044   22.5490 C   0  0  0  0  0  0  0  0  0  0  0  0
   14.4154  -16.8203   23.2163 O   0  0  0  0  0  0  0  0  0  0  0  0
   12.7206  -16.4857   21.5994 C   0  0  0  0  0  0  0  0  0  0  0  0
   11.2324  -16.5295   21.7125 C   0  0  2  0  0  0  0  0  0  0  0  0
   10.5480  -15.6770   20.7703 N   0  0  0  0  0  0  0  0  0  0  0  0
   10.7815  -16.2009   23.0821 C   0  0  0  0  0  0  0  0  0  0  0  0
   11.3944  -16.5809   24.1379 O   0  0  0  0  0  0  0  0  0  0  0  0
    9.6013  -15.4159   23.3460 N   0  0  0  0  0  0  0  0  0  0  0  0
    9.2873  -14.9419   24.6903 C   0  0  1  0  0  0  0  0  0  0  0  0
    8.1729  -13.9252   24.6583 C   0  0  0  0  0  0  0  0  0  0  0  0
    7.7192  -13.4763   26.0007 C   0  0  0  0  0  0  0  0  0  0  0  0
    6.6679  -12.3948   25.9014 C   0  0  0  0  0  0  0  0  0  0  0  0
    6.2881  -11.8871   27.2772 C   0  0  0  0  0  0  0  0  0  0  0  0
    5.2728  -10.8621   27.2023 N   0  0  0  0  0  0  0  0  0  0  0  0
    8.9899  -16.0996   25.5377 C   0  0  0  0  0  0  0  0  0  0  0  0
    8.5311  -17.3132   25.0459 O   0  0  0  0  0  0  0  0  0  0  0  0
    9.1486  -16.0203   26.7802 O   0  0  0  0  0  0  0  0  0  0  0  0
  2  1  1  6
  3  2  1  0
  4  2  1  0
  4  5  1  1
  6  4  1  0
  6  7  2  0
  9 11  1  0
  9  8  1  0
 10  9  2  0
 12 13  1  0
 12 11  1  1
 13  6  1  0
 14 12  1  0
 15 14  2  0
 16 14  1  0
 17 18  1  6
 17 16  1  0
 19 20  1  0
 19 18  1  0
 20 21  1  0
 21 22  1  0
 23 24  1  0
 23 17  1  0
 25 23  2  0
M  END
$$$$
