TNK.pdb
     RDKit          3D

 25 24  0  0  1  0  0  0  0  0999 V2000
    7.2063  -12.1438   19.0794 C   0  0  0  0  0  0  0  0  0  0  0  0
    8.3019  -13.1292   19.4041 C   0  0  1  0  0  0  0  0  0  0  0  0
    7.6875  -14.2140   20.0754 O   0  0  0  0  0  0  0  0  0  0  0  0
    9.0086  -13.6434   18.1576 C   0  0  2  0  0  0  0  0  0  0  0  0
    7.9965  -14.3994   17.3980 N   0  0  0  0  0  0  0  0  0  0  0  0
   10.1451  -14.5207   18.4661 C   0  0  0  0  0  0  0  0  0  0  0  0
   10.0101  -15.7791   18.2569 O   0  0  0  0  0  0  0  0  0  0  0  0
   15.0498  -16.4946   18.6007 N   0  0  0  0  0  0  0  0  0  0  0  0
   14.9601  -15.1493   18.9935 C   0  0  0  0  0  0  0  0  0  0  0  0
   15.9802  -14.6760   19.6005 O   0  0  0  0  0  0  0  0  0  0  0  0
   13.8033  -14.3200   18.7444 C   0  0  0  0  0  0  0  0  0  0  0  0
   12.4902  -14.9217   19.1225 C   0  0  2  0  0  0  0  0  0  0  0  0
   11.3705  -14.0226   18.9780 N   0  0  0  0  0  0  0  0  0  0  0  0
   12.5127  -15.4520   20.5029 C   0  0  0  0  0  0  0  0  0  0  0  0
   12.5379  -14.7106   21.5443 O   0  0  0  0  0  0  0  0  0  0  0  0
   12.5077  -16.8639   20.7949 N   0  0  0  0  0  0  0  0  0  0  0  0
   12.4015  -17.3576   22.1643 C   0  0  1  0  0  0  0  0  0  0  0  0
   11.7749  -18.7298   22.1971 C   0  0  0  0  0  0  0  0  0  0  0  0
   11.6237  -19.2980   23.5621 C   0  0  0  0  0  0  0  0  0  0  0  0
   10.9550  -20.6533   23.5314 C   0  0  0  0  0  0  0  0  0  0  0  0
   10.8545  -21.2342   24.9269 C   0  0  0  0  0  0  0  0  0  0  0  0
   10.0921  -22.4613   24.9365 N   0  0  0  0  0  0  0  0  0  0  0  0
   13.7292  -17.3132   22.7826 C   0  0  0  0  0  0  0  0  0  0  0  0
   14.9109  -17.4869   22.0765 O   0  0  0  0  0  0  0  0  0  0  0  0
   13.8361  -17.1091   24.0163 O   0  0  0  0  0  0  0  0  0  0  0  0
  2  1  1  6
  3  2  1  0
  4  2  1  0
  4  5  1  6
  6  4  1  0
  6  7  2  0
  9 11  1  0
  9  8  1  0
 10  9  2  0
 12 13  1  0
 12 11  1  1
 13  6  1  0
 14 12  1  0
 15 14  2  0
 16 14  1  0
 17 18  1  6
 17 16  1  0
 19 20  1  0
 19 18  1  0
 20 21  1  0
 21 22  1  0
 23 24  1  0
 23 17  1  0
 25 23  2  0
M  END
$$$$
