TNK.pdb
     RDKit          3D

 25 24  0  0  1  0  0  0  0  0999 V2000
    9.1776  -12.5837   19.4274 C   0  0  0  0  0  0  0  0  0  0  0  0
    8.3647  -13.4206   18.4705 C   0  0  1  0  0  0  0  0  0  0  0  0
    8.4145  -12.7673   17.2153 O   0  0  0  0  0  0  0  0  0  0  0  0
    8.9127  -14.8335   18.3250 C   0  0  2  0  0  0  0  0  0  0  0  0
    8.0569  -15.5018   17.3283 N   0  0  0  0  0  0  0  0  0  0  0  0
    8.8818  -15.5907   19.5829 C   0  0  0  0  0  0  0  0  0  0  0  0
    7.7405  -15.9605   20.0367 O   0  0  0  0  0  0  0  0  0  0  0  0
    9.6881  -19.8158   20.9417 N   0  0  0  0  0  0  0  0  0  0  0  0
   10.7728  -18.9369   20.7889 C   0  0  0  0  0  0  0  0  0  0  0  0
   11.5893  -19.2168   19.8465 O   0  0  0  0  0  0  0  0  0  0  0  0
   10.9858  -17.7780   21.6253 C   0  0  0  0  0  0  0  0  0  0  0  0
    9.9556  -16.7038   21.5062 C   0  0  2  0  0  0  0  0  0  0  0  0
   10.0613  -15.9223   20.2975 N   0  0  0  0  0  0  0  0  0  0  0  0
    9.9778  -15.7975   22.6746 C   0  0  0  0  0  0  0  0  0  0  0  0
   10.9639  -15.0347   22.9583 O   0  0  0  0  0  0  0  0  0  0  0  0
    8.8786  -15.6955   23.6020 N   0  0  0  0  0  0  0  0  0  0  0  0
    8.9137  -14.7630   24.7243 C   0  0  1  0  0  0  0  0  0  0  0  0
    7.5984  -14.0371   24.8652 C   0  0  0  0  0  0  0  0  0  0  0  0
    7.5340  -13.1133   26.0278 C   0  0  0  0  0  0  0  0  0  0  0  0
    6.1845  -12.4403   26.1314 C   0  0  0  0  0  0  0  0  0  0  0  0
    6.1503  -11.4835   27.3054 C   0  0  0  0  0  0  0  0  0  0  0  0
    4.8292  -10.9332   27.5025 N   0  0  0  0  0  0  0  0  0  0  0  0
    9.3013  -15.4972   25.9316 C   0  0  0  0  0  0  0  0  0  0  0  0
    9.4662  -16.8744   25.9727 O   0  0  0  0  0  0  0  0  0  0  0  0
    9.5020  -14.8747   27.0027 O   0  0  0  0  0  0  0  0  0  0  0  0
  2  1  1  1
  3  2  1  0
  4  2  1  0
  4  5  1  6
  6  4  1  0
  6  7  2  0
  9 11  1  0
  9  8  1  0
 10  9  2  0
 12 13  1  0
 12 11  1  1
 13  6  1  0
 14 12  1  0
 15 14  2  0
 16 14  1  0
 17 18  1  1
 17 16  1  0
 19 20  1  0
 19 18  1  0
 20 21  1  0
 21 22  1  0
 23 24  1  0
 23 17  1  0
 25 23  2  0
M  END
$$$$
