TNK.pdb
     RDKit          3D

 25 24  0  0  1  0  0  0  0  0999 V2000
   14.5787  -22.0072   18.5358 C   0  0  0  0  0  0  0  0  0  0  0  0
   13.5946  -21.3716   17.5847 C   0  0  1  0  0  0  0  0  0  0  0  0
   13.4152  -22.2828   16.5159 O   0  0  0  0  0  0  0  0  0  0  0  0
   12.2493  -21.0939   18.2410 C   0  0  2  0  0  0  0  0  0  0  0  0
   11.3579  -20.6300   17.1627 N   0  0  0  0  0  0  0  0  0  0  0  0
   12.3256  -20.0675   19.2885 C   0  0  0  0  0  0  0  0  0  0  0  0
   12.9868  -18.9973   19.0375 O   0  0  0  0  0  0  0  0  0  0  0  0
    9.1314  -18.5685   20.7458 N   0  0  0  0  0  0  0  0  0  0  0  0
    9.4253  -18.8378   22.0924 C   0  0  0  0  0  0  0  0  0  0  0  0
    8.4411  -18.7631   22.9041 O   0  0  0  0  0  0  0  0  0  0  0  0
   10.7457  -19.1814   22.5684 C   0  0  0  0  0  0  0  0  0  0  0  0
   11.8218  -19.1743   21.5334 C   0  0  2  0  0  0  0  0  0  0  0  0
   11.6954  -20.2227   20.5497 N   0  0  0  0  0  0  0  0  0  0  0  0
   13.1660  -19.2425   22.1464 C   0  0  0  0  0  0  0  0  0  0  0  0
   13.7252  -20.3356   22.5030 O   0  0  0  0  0  0  0  0  0  0  0  0
   13.9683  -18.0709   22.3961 N   0  0  0  0  0  0  0  0  0  0  0  0
   15.3404  -18.1775   22.8825 C   0  0  1  0  0  0  0  0  0  0  0  0
   16.1827  -17.0313   22.3792 C   0  0  0  0  0  0  0  0  0  0  0  0
   17.5919  -17.0578   22.8511 C   0  0  0  0  0  0  0  0  0  0  0  0
   18.4087  -15.9471   22.2316 C   0  0  0  0  0  0  0  0  0  0  0  0
   19.8657  -16.0659   22.6293 C   0  0  0  0  0  0  0  0  0  0  0  0
   20.6968  -15.1560   21.8755 N   0  0  0  0  0  0  0  0  0  0  0  0
   15.3129  -18.2769   24.3441 C   0  0  0  0  0  0  0  0  0  0  0  0
   16.2507  -18.9840   25.0830 O   0  0  0  0  0  0  0  0  0  0  0  0
   14.4041  -17.7024   24.9913 O   0  0  0  0  0  0  0  0  0  0  0  0
  2  1  1  1
  3  2  1  0
  4  2  1  0
  4  5  1  6
  6  4  1  0
  6  7  2  0
  9 11  1  0
  9  8  1  0
 10  9  2  0
 12 13  1  0
 12 11  1  1
 13  6  1  0
 14 12  1  0
 15 14  2  0
 16 14  1  0
 17 18  1  1
 17 16  1  0
 19 20  1  0
 19 18  1  0
 20 21  1  0
 21 22  1  0
 23 24  1  0
 23 17  1  0
 25 23  2  0
M  END
$$$$
