TNK.pdb
     RDKit          3D

 25 24  0  0  1  0  0  0  0  0999 V2000
    7.4877  -12.6702   17.3960 C   0  0  0  0  0  0  0  0  0  0  0  0
    7.6267  -13.7855   18.4030 C   0  0  1  0  0  0  0  0  0  0  0  0
    8.0186  -14.9388   17.6811 O   0  0  0  0  0  0  0  0  0  0  0  0
    8.6703  -13.4793   19.4683 C   0  0  2  0  0  0  0  0  0  0  0  0
    9.9488  -13.3201   18.7524 N   0  0  0  0  0  0  0  0  0  0  0  0
    8.7982  -14.5486   20.4666 C   0  0  0  0  0  0  0  0  0  0  0  0
    7.7916  -14.7905   21.2241 O   0  0  0  0  0  0  0  0  0  0  0  0
   10.6359  -19.9156   21.8153 N   0  0  0  0  0  0  0  0  0  0  0  0
   11.0867  -18.6068   22.0522 C   0  0  0  0  0  0  0  0  0  0  0  0
   11.6505  -18.4066   23.1815 O   0  0  0  0  0  0  0  0  0  0  0  0
   10.9401  -17.5275   21.1027 C   0  0  0  0  0  0  0  0  0  0  0  0
    9.9844  -16.4509   21.4988 C   0  0  2  0  0  0  0  0  0  0  0  0
    9.9848  -15.3120   20.6123 N   0  0  0  0  0  0  0  0  0  0  0  0
   10.2284  -15.9898   22.8827 C   0  0  0  0  0  0  0  0  0  0  0  0
   11.1241  -15.1320   23.1940 O   0  0  0  0  0  0  0  0  0  0  0  0
    9.4695  -16.4724   24.0095 N   0  0  0  0  0  0  0  0  0  0  0  0
    9.3720  -15.7043   25.2468 C   0  0  1  0  0  0  0  0  0  0  0  0
    8.2549  -14.6930   25.1686 C   0  0  0  0  0  0  0  0  0  0  0  0
    8.0681  -13.8947   26.4083 C   0  0  0  0  0  0  0  0  0  0  0  0
    6.9513  -12.8869   26.2599 C   0  0  0  0  0  0  0  0  0  0  0  0
    6.8079  -12.0553   27.5179 C   0  0  0  0  0  0  0  0  0  0  0  0
    5.6977  -11.1359   27.4218 N   0  0  0  0  0  0  0  0  0  0  0  0
    9.2300  -16.6374   26.3675 C   0  0  0  0  0  0  0  0  0  0  0  0
    9.6434  -16.3520   27.6610 O   0  0  0  0  0  0  0  0  0  0  0  0
    8.7104  -17.7641   26.1790 O   0  0  0  0  0  0  0  0  0  0  0  0
  2  1  1  6
  3  2  1  0
  4  2  1  0
  4  5  1  6
  6  4  1  0
  6  7  2  0
  9 11  1  0
  9  8  1  0
 10  9  2  0
 12 13  1  0
 12 11  1  6
 13  6  1  0
 14 12  1  0
 15 14  2  0
 16 14  1  0
 17 18  1  6
 17 16  1  0
 19 20  1  0
 19 18  1  0
 20 21  1  0
 21 22  1  0
 23 24  1  0
 23 17  1  0
 25 23  2  0
M  END
$$$$
