TNK.pdb
     RDKit          3D

 25 24  0  0  1  0  0  0  0  0999 V2000
    7.5344  -13.2477   20.8647 C   0  0  0  0  0  0  0  0  0  0  0  0
    7.3091  -14.2235   19.7360 C   0  0  1  0  0  0  0  0  0  0  0  0
    6.8641  -13.4656   18.6258 O   0  0  0  0  0  0  0  0  0  0  0  0
    8.5772  -14.9756   19.3567 C   0  0  2  0  0  0  0  0  0  0  0  0
    8.2071  -15.8600   18.2371 N   0  0  0  0  0  0  0  0  0  0  0  0
    9.1150  -15.7818   20.4600 C   0  0  0  0  0  0  0  0  0  0  0  0
    8.8331  -17.0329   20.4863 O   0  0  0  0  0  0  0  0  0  0  0  0
   13.2757  -17.6292   23.5331 N   0  0  0  0  0  0  0  0  0  0  0  0
   12.5747  -16.4560   23.8564 C   0  0  0  0  0  0  0  0  0  0  0  0
   12.5441  -16.1479   25.0963 O   0  0  0  0  0  0  0  0  0  0  0  0
   11.9164  -15.6232   22.8761 C   0  0  0  0  0  0  0  0  0  0  0  0
   10.5784  -16.1049   22.4210 C   0  0  2  0  0  0  0  0  0  0  0  0
    9.9278  -15.2247   21.4803 N   0  0  0  0  0  0  0  0  0  0  0  0
    9.6719  -16.3510   23.5633 C   0  0  0  0  0  0  0  0  0  0  0  0
    9.1461  -15.4180   24.2617 O   0  0  0  0  0  0  0  0  0  0  0  0
    9.2998  -17.6768   23.9905 N   0  0  0  0  0  0  0  0  0  0  0  0
    8.5241  -17.8946   25.2076 C   0  0  1  0  0  0  0  0  0  0  0  0
    7.5796  -19.0600   25.0452 C   0  0  0  0  0  0  0  0  0  0  0  0
    6.5945  -18.8968   23.9443 C   0  0  0  0  0  0  0  0  0  0  0  0
    5.8112  -20.1670   23.7037 C   0  0  0  0  0  0  0  0  0  0  0  0
    4.7768  -19.9621   22.6161 C   0  0  0  0  0  0  0  0  0  0  0  0
    4.0212  -21.1684   22.3693 N   0  0  0  0  0  0  0  0  0  0  0  0
    9.4507  -18.0534   26.3316 C   0  0  0  0  0  0  0  0  0  0  0  0
   10.8112  -18.2795   26.1788 O   0  0  0  0  0  0  0  0  0  0  0  0
    9.0205  -17.9865   27.5087 O   0  0  0  0  0  0  0  0  0  0  0  0
  2  1  1  1
  3  2  1  0
  4  2  1  0
  4  5  1  6
  6  4  1  0
  6  7  2  0
  9 11  1  0
  9  8  1  0
 10  9  2  0
 12 13  1  0
 12 11  1  1
 13  6  1  0
 14 12  1  0
 15 14  2  0
 16 14  1  0
 17 18  1  6
 17 16  1  0
 19 20  1  0
 19 18  1  0
 20 21  1  0
 21 22  1  0
 23 24  1  0
 23 17  1  0
 25 23  2  0
M  END
$$$$
