TNK.pdb
     RDKit          3D

 25 24  0  0  1  0  0  0  0  0999 V2000
    8.9461  -19.1674   15.8411 C   0  0  0  0  0  0  0  0  0  0  0  0
    9.3087  -17.9686   16.6826 C   0  0  1  0  0  0  0  0  0  0  0  0
    8.3758  -16.9517   16.3654 O   0  0  0  0  0  0  0  0  0  0  0  0
    9.2429  -18.2649   18.1744 C   0  0  2  0  0  0  0  0  0  0  0  0
    7.8675  -18.7245   18.4383 N   0  0  0  0  0  0  0  0  0  0  0  0
    9.5334  -17.0886   19.0039 C   0  0  0  0  0  0  0  0  0  0  0  0
   10.7351  -16.6398   19.0149 O   0  0  0  0  0  0  0  0  0  0  0  0
    6.4876  -12.7794   19.2194 N   0  0  0  0  0  0  0  0  0  0  0  0
    7.6919  -13.4161   19.5606 C   0  0  0  0  0  0  0  0  0  0  0  0
    8.6798  -13.1966   18.7803 O   0  0  0  0  0  0  0  0  0  0  0  0
    7.8433  -14.2730   20.7143 C   0  0  0  0  0  0  0  0  0  0  0  0
    8.9058  -15.3161   20.6026 C   0  0  2  0  0  0  0  0  0  0  0  0
    8.5367  -16.4424   19.7792 N   0  0  0  0  0  0  0  0  0  0  0  0
    9.3298  -15.8045   21.9326 C   0  0  0  0  0  0  0  0  0  0  0  0
    8.5563  -16.4319   22.7344 O   0  0  0  0  0  0  0  0  0  0  0  0
   10.6645  -15.6135   22.4431 N   0  0  0  0  0  0  0  0  0  0  0  0
   11.2737  -16.5729   23.3592 C   0  0  1  0  0  0  0  0  0  0  0  0
   11.2205  -17.9702   22.7923 C   0  0  0  0  0  0  0  0  0  0  0  0
   11.8290  -19.0061   23.6675 C   0  0  0  0  0  0  0  0  0  0  0  0
   11.6638  -20.3926   23.0886 C   0  0  0  0  0  0  0  0  0  0  0  0
   12.3601  -21.4224   23.9544 C   0  0  0  0  0  0  0  0  0  0  0  0
   12.2911  -22.7412   23.3687 N   0  0  0  0  0  0  0  0  0  0  0  0
   12.6342  -16.1258   23.6692 C   0  0  0  0  0  0  0  0  0  0  0  0
   13.2460  -16.3245   24.8986 O   0  0  0  0  0  0  0  0  0  0  0  0
   13.3082  -15.5274   22.7959 O   0  0  0  0  0  0  0  0  0  0  0  0
  2  1  1  6
  3  2  1  0
  4  2  1  0
  4  5  1  1
  6  4  1  0
  6  7  2  0
  9 11  1  0
  9  8  1  0
 10  9  2  0
 12 13  1  0
 12 11  1  1
 13  6  1  0
 14 12  1  0
 15 14  2  0
 16 14  1  0
 17 18  1  6
 17 16  1  0
 19 20  1  0
 19 18  1  0
 20 21  1  0
 21 22  1  0
 23 24  1  0
 23 17  1  0
 25 23  2  0
M  END
$$$$
