VCG.pdb
     RDKit          3D

 18 17  0  0  1  0  0  0  0  0999 V2000
   17.1663  -15.6297  -12.8099 C   0  0  0  0  0  0  0  0  0  0  0  0
   16.5765  -14.2195  -12.7973 C   0  0  1  0  0  0  0  0  0  0  0  0
   16.4157  -13.7604  -14.2118 C   0  0  0  0  0  0  0  0  0  0  0  0
   15.2662  -14.2745  -12.0487 C   0  0  2  0  0  0  0  0  0  0  0  0
   14.3091  -15.1445  -12.6542 N   0  0  0  0  0  0  0  0  0  0  0  0
   14.6914  -12.8981  -11.9926 C   0  0  0  0  0  0  0  0  0  0  0  0
   13.6697  -12.5687  -12.6487 O   0  0  0  0  0  0  0  0  0  0  0  0
   15.2851  -11.8892  -11.1828 N   0  0  0  0  0  0  0  0  0  0  0  0
   14.7582  -10.5398  -11.1865 C   0  0  1  0  0  0  0  0  0  0  0  0
   13.7068  -10.4023  -10.1215 C   0  0  0  0  0  0  0  0  0  0  0  0
   13.1010   -8.7393   -9.9100 S   0  0  0  0  0  0  0  0  0  0  0  0
   15.8503   -9.5872  -11.0790 C   0  0  0  0  0  0  0  0  0  0  0  0
   16.6894   -9.5365  -10.1453 O   0  0  0  0  0  0  0  0  0  0  0  0
   16.0157   -8.6025  -12.1124 N   0  0  0  0  0  0  0  0  0  0  0  0
   17.0579   -7.6040  -12.0200 C   0  0  0  0  0  0  0  0  0  0  0  0
   17.0827   -6.7211  -13.2140 C   0  0  0  0  0  0  0  0  0  0  0  0
   16.2686   -6.9550  -14.3020 O   0  0  0  0  0  0  0  0  0  0  0  0
   17.8662   -5.7402  -13.2258 O   0  0  0  0  0  0  0  0  0  0  0  0
  2  1  1  6
  2  3  1  0
  4  5  1  6
  4  2  1  0
  6  4  1  0
  7  6  2  0
  8  6  1  0
  9  8  1  0
  9 12  1  0
  9 10  1  1
 11 10  1  0
 12 14  1  0
 13 12  2  0
 14 15  1  0
 15 16  1  0
 16 17  1  0
 18 16  2  0
M  END
$$$$
