VCG.pdb
     RDKit          3D

 18 17  0  0  1  0  0  0  0  0999 V2000
   24.3205  -18.3488  -14.9367 C   0  0  0  0  0  0  0  0  0  0  0  0
   23.9688  -19.4013  -15.9880 C   0  0  1  0  0  0  0  0  0  0  0  0
   23.3194  -18.7147  -17.1474 C   0  0  0  0  0  0  0  0  0  0  0  0
   25.2437  -20.1143  -16.3710 C   0  0  2  0  0  0  0  0  0  0  0  0
   25.0319  -21.1943  -17.2812 N   0  0  0  0  0  0  0  0  0  0  0  0
   25.8795  -20.6520  -15.1323 C   0  0  0  0  0  0  0  0  0  0  0  0
   25.3948  -21.6220  -14.4942 O   0  0  0  0  0  0  0  0  0  0  0  0
   27.0767  -20.0804  -14.6165 N   0  0  0  0  0  0  0  0  0  0  0  0
   27.6499  -20.5685  -13.3789 C   0  0  1  0  0  0  0  0  0  0  0  0
   29.1472  -20.4498  -13.4311 C   0  0  0  0  0  0  0  0  0  0  0  0
   29.9623  -20.8675  -11.9020 S   0  0  0  0  0  0  0  0  0  0  0  0
   27.0326  -19.8901  -12.2519 C   0  0  0  0  0  0  0  0  0  0  0  0
   26.9897  -18.6464  -12.0791 O   0  0  0  0  0  0  0  0  0  0  0  0
   26.4068  -20.6782  -11.2261 N   0  0  0  0  0  0  0  0  0  0  0  0
   25.9098  -20.0568  -10.0184 C   0  0  0  0  0  0  0  0  0  0  0  0
   25.4137  -21.0629   -9.0449 C   0  0  0  0  0  0  0  0  0  0  0  0
   24.8998  -20.6908   -7.8207 O   0  0  0  0  0  0  0  0  0  0  0  0
   25.4667  -22.2793   -9.3509 O   0  0  0  0  0  0  0  0  0  0  0  0
  2  1  1  1
  2  3  1  0
  4  5  1  6
  4  2  1  0
  6  4  1  0
  7  6  2  0
  8  6  1  0
  9  8  1  0
  9 12  1  0
  9 10  1  6
 11 10  1  0
 12 14  1  0
 13 12  2  0
 14 15  1  0
 15 16  1  0
 16 17  1  0
 18 16  2  0
M  END
$$$$
