VCG.pdb
     RDKit          3D

 18 17  0  0  1  0  0  0  0  0999 V2000
   15.3241  -21.7800  -13.5758 C   0  0  0  0  0  0  0  0  0  0  0  0
   15.7400  -21.6649  -15.0423 C   0  0  1  0  0  0  0  0  0  0  0  0
   14.6503  -20.9648  -15.7903 C   0  0  0  0  0  0  0  0  0  0  0  0
   17.0534  -20.9213  -15.0920 C   0  0  2  0  0  0  0  0  0  0  0  0
   17.5534  -20.7520  -16.4191 N   0  0  0  0  0  0  0  0  0  0  0  0
   18.0615  -21.6811  -14.2957 C   0  0  0  0  0  0  0  0  0  0  0  0
   18.5241  -22.7875  -14.6764 O   0  0  0  0  0  0  0  0  0  0  0  0
   18.5465  -21.1768  -13.0562 N   0  0  0  0  0  0  0  0  0  0  0  0
   19.5395  -21.9135  -12.3013 C   0  0  1  0  0  0  0  0  0  0  0  0
   20.6775  -21.0028  -11.9349 C   0  0  0  0  0  0  0  0  0  0  0  0
   21.4952  -20.2632  -13.3355 S   0  0  0  0  0  0  0  0  0  0  0  0
   18.9070  -22.5697  -11.1696 C   0  0  0  0  0  0  0  0  0  0  0  0
   18.0863  -22.0395  -10.3798 O   0  0  0  0  0  0  0  0  0  0  0  0
   19.2240  -23.9451  -10.8995 N   0  0  0  0  0  0  0  0  0  0  0  0
   18.7273  -24.5963   -9.7075 C   0  0  0  0  0  0  0  0  0  0  0  0
   19.1201  -26.0278   -9.6573 C   0  0  0  0  0  0  0  0  0  0  0  0
   18.7699  -26.8358   -8.5962 O   0  0  0  0  0  0  0  0  0  0  0  0
   19.7869  -26.5066  -10.6071 O   0  0  0  0  0  0  0  0  0  0  0  0
  2  1  1  1
  2  3  1  0
  4  5  1  6
  4  2  1  0
  6  4  1  0
  7  6  2  0
  8  6  1  0
  9  8  1  0
  9 12  1  0
  9 10  1  1
 11 10  1  0
 12 14  1  0
 13 12  2  0
 14 15  1  0
 15 16  1  0
 16 17  1  0
 18 16  2  0
M  END
$$$$
