VCG.pdb
     RDKit          3D

 18 17  0  0  1  0  0  0  0  0999 V2000
   13.2478   -6.3961   -8.3514 C   0  0  0  0  0  0  0  0  0  0  0  0
   14.6072   -6.6718   -8.9939 C   0  0  1  0  0  0  0  0  0  0  0  0
   15.6414   -6.7162   -7.9141 C   0  0  0  0  0  0  0  0  0  0  0  0
   14.5021   -7.9714   -9.7556 C   0  0  2  0  0  0  0  0  0  0  0  0
   14.2532   -9.0978   -8.9135 N   0  0  0  0  0  0  0  0  0  0  0  0
   15.7817   -8.1982  -10.4898 C   0  0  0  0  0  0  0  0  0  0  0  0
   16.7632   -8.7852   -9.9652 O   0  0  0  0  0  0  0  0  0  0  0  0
   15.9446   -7.7530  -11.8319 N   0  0  0  0  0  0  0  0  0  0  0  0
   17.1749   -8.0174  -12.5494 C   0  0  1  0  0  0  0  0  0  0  0  0
   16.8805   -8.8262  -13.7814 C   0  0  0  0  0  0  0  0  0  0  0  0
   16.3177  -10.4836  -13.4445 S   0  0  0  0  0  0  0  0  0  0  0  0
   17.8721   -6.7681  -12.8035 C   0  0  0  0  0  0  0  0  0  0  0  0
   17.3297   -5.6484  -12.9784 O   0  0  0  0  0  0  0  0  0  0  0  0
   19.3077   -6.7756  -12.8671 N   0  0  0  0  0  0  0  0  0  0  0  0
   20.0418   -5.5533  -13.1094 C   0  0  0  0  0  0  0  0  0  0  0  0
   21.5098   -5.7697  -13.0425 C   0  0  0  0  0  0  0  0  0  0  0  0
   22.4024   -4.7566  -13.3220 O   0  0  0  0  0  0  0  0  0  0  0  0
   21.9408   -6.9047  -12.7231 O   0  0  0  0  0  0  0  0  0  0  0  0
  2  1  1  1
  2  3  1  0
  4  5  1  1
  4  2  1  0
  6  4  1  0
  7  6  2  0
  8  6  1  0
  9  8  1  0
  9 12  1  0
  9 10  1  6
 11 10  1  0
 12 14  1  0
 13 12  2  0
 14 15  1  0
 15 16  1  0
 16 17  1  0
 18 16  2  0
M  END
$$$$
