VCG.pdb
     RDKit          3D

 18 17  0  0  1  0  0  0  0  0999 V2000
   19.5666  -17.4984  -16.4505 C   0  0  0  0  0  0  0  0  0  0  0  0
   20.7636  -18.1408  -15.7494 C   0  0  1  0  0  0  0  0  0  0  0  0
   20.2566  -19.1913  -14.8130 C   0  0  0  0  0  0  0  0  0  0  0  0
   21.6764  -18.6996  -16.8147 C   0  0  2  0  0  0  0  0  0  0  0  0
   21.0660  -19.7285  -17.5948 N   0  0  0  0  0  0  0  0  0  0  0  0
   22.8924  -19.2593  -16.1546 C   0  0  0  0  0  0  0  0  0  0  0  0
   22.9500  -20.4488  -15.7487 O   0  0  0  0  0  0  0  0  0  0  0  0
   24.0517  -18.4579  -15.9551 N   0  0  0  0  0  0  0  0  0  0  0  0
   25.2084  -18.9969  -15.2695 C   0  0  1  0  0  0  0  0  0  0  0  0
   26.4399  -18.2384  -15.6777 C   0  0  0  0  0  0  0  0  0  0  0  0
   27.9129  -18.7167  -14.7953 S   0  0  0  0  0  0  0  0  0  0  0  0
   24.9631  -19.0181  -13.8373 C   0  0  0  0  0  0  0  0  0  0  0  0
   24.5525  -18.0501  -13.1497 O   0  0  0  0  0  0  0  0  0  0  0  0
   25.2001  -20.2353  -13.1112 N   0  0  0  0  0  0  0  0  0  0  0  0
   25.0358  -20.2813  -11.6750 C   0  0  0  0  0  0  0  0  0  0  0  0
   25.3738  -21.6187  -11.1243 C   0  0  0  0  0  0  0  0  0  0  0  0
   25.2628  -21.8942   -9.7778 O   0  0  0  0  0  0  0  0  0  0  0  0
   25.7693  -22.5148  -11.9096 O   0  0  0  0  0  0  0  0  0  0  0  0
  2  1  1  6
  2  3  1  0
  4  5  1  1
  4  2  1  0
  6  4  1  0
  7  6  2  0
  8  6  1  0
  9  8  1  0
  9 12  1  0
  9 10  1  1
 11 10  1  0
 12 14  1  0
 13 12  2  0
 14 15  1  0
 15 16  1  0
 16 17  1  0
 18 16  2  0
M  END
$$$$
