VCG.pdb
     RDKit          3D

 18 17  0  0  1  0  0  0  0  0999 V2000
   18.0618  -13.1603  -19.0729 C   0  0  0  0  0  0  0  0  0  0  0  0
   18.1109  -12.0324  -18.0423 C   0  0  1  0  0  0  0  0  0  0  0  0
   16.7151  -11.7444  -17.5882 C   0  0  0  0  0  0  0  0  0  0  0  0
   19.0117  -12.4770  -16.9148 C   0  0  2  0  0  0  0  0  0  0  0  0
   18.5308  -13.6377  -16.2356 N   0  0  0  0  0  0  0  0  0  0  0  0
   19.1280  -11.3617  -15.9298 C   0  0  0  0  0  0  0  0  0  0  0  0
   18.3879  -11.2803  -14.9156 O   0  0  0  0  0  0  0  0  0  0  0  0
   20.0947  -10.3311  -16.1014 N   0  0  0  0  0  0  0  0  0  0  0  0
   20.0675   -9.1512  -15.2614 C   0  0  1  0  0  0  0  0  0  0  0  0
   21.3359   -9.0694  -14.4594 C   0  0  0  0  0  0  0  0  0  0  0  0
   21.4579   -7.6119  -13.4406 S   0  0  0  0  0  0  0  0  0  0  0  0
   19.7938   -7.9777  -16.0737 C   0  0  0  0  0  0  0  0  0  0  0  0
   20.3840   -7.6700  -17.1393 O   0  0  0  0  0  0  0  0  0  0  0  0
   18.7649   -7.0673  -15.6523 N   0  0  0  0  0  0  0  0  0  0  0  0
   18.5005   -5.8566  -16.3980 C   0  0  0  0  0  0  0  0  0  0  0  0
   18.5590   -4.6518  -15.5313 C   0  0  0  0  0  0  0  0  0  0  0  0
   18.3779   -3.3845  -16.0435 O   0  0  0  0  0  0  0  0  0  0  0  0
   18.7790   -4.7987  -14.3041 O   0  0  0  0  0  0  0  0  0  0  0  0
  2  1  1  6
  2  3  1  0
  4  5  1  1
  4  2  1  0
  6  4  1  0
  7  6  2  0
  8  6  1  0
  9  8  1  0
  9 12  1  0
  9 10  1  6
 11 10  1  0
 12 14  1  0
 13 12  2  0
 14 15  1  0
 15 16  1  0
 16 17  1  0
 18 16  2  0
M  END
$$$$
