VCG.pdb
     RDKit          3D

 18 17  0  0  1  0  0  0  0  0999 V2000
   26.9251   -9.8518  -15.8374 C   0  0  0  0  0  0  0  0  0  0  0  0
   26.7371  -11.0439  -16.7755 C   0  0  1  0  0  0  0  0  0  0  0  0
   27.9515  -11.9127  -16.6870 C   0  0  0  0  0  0  0  0  0  0  0  0
   25.4744  -11.7615  -16.3619 C   0  0  2  0  0  0  0  0  0  0  0  0
   25.2163  -12.9350  -17.1339 N   0  0  0  0  0  0  0  0  0  0  0  0
   24.3221  -10.8256  -16.5166 C   0  0  0  0  0  0  0  0  0  0  0  0
   23.9112  -10.4452  -17.6433 O   0  0  0  0  0  0  0  0  0  0  0  0
   23.6324  -10.3191  -15.3792 N   0  0  0  0  0  0  0  0  0  0  0  0
   22.5068   -9.4218  -15.5419 C   0  0  1  0  0  0  0  0  0  0  0  0
   21.2381  -10.1209  -15.1416 C   0  0  0  0  0  0  0  0  0  0  0  0
   21.1270  -11.8062  -15.7116 S   0  0  0  0  0  0  0  0  0  0  0  0
   22.7609   -8.1824  -14.8271 C   0  0  0  0  0  0  0  0  0  0  0  0
   23.1488   -8.0898  -13.6357 O   0  0  0  0  0  0  0  0  0  0  0  0
   22.5618   -6.9343  -15.5108 N   0  0  0  0  0  0  0  0  0  0  0  0
   22.8154   -5.6777  -14.8412 C   0  0  0  0  0  0  0  0  0  0  0  0
   21.5739   -5.0992  -14.2665 C   0  0  0  0  0  0  0  0  0  0  0  0
   21.5892   -3.9162  -13.5584 O   0  0  0  0  0  0  0  0  0  0  0  0
   20.4885   -5.7076  -14.4335 O   0  0  0  0  0  0  0  0  0  0  0  0
  2  1  1  1
  2  3  1  0
  4  5  1  6
  4  2  1  0
  6  4  1  0
  7  6  2  0
  8  6  1  0
  9  8  1  0
  9 12  1  0
  9 10  1  1
 11 10  1  0
 12 14  1  0
 13 12  2  0
 14 15  1  0
 15 16  1  0
 16 17  1  0
 18 16  2  0
M  END
$$$$
