VCG.pdb
     RDKit          3D

 18 17  0  0  1  0  0  0  0  0999 V2000
   26.9155  -17.9891  -15.0351 C   0  0  0  0  0  0  0  0  0  0  0  0
   27.3758  -19.0748  -16.0077 C   0  0  1  0  0  0  0  0  0  0  0  0
   28.4006  -18.4863  -16.9246 C   0  0  0  0  0  0  0  0  0  0  0  0
   27.9143  -20.2261  -15.1922 C   0  0  2  0  0  0  0  0  0  0  0  0
   28.3811  -21.3124  -15.9934 N   0  0  0  0  0  0  0  0  0  0  0  0
   26.8288  -20.7251  -14.2976 C   0  0  0  0  0  0  0  0  0  0  0  0
   25.9388  -21.5190  -14.6983 O   0  0  0  0  0  0  0  0  0  0  0  0
   26.7565  -20.3167  -12.9360 N   0  0  0  0  0  0  0  0  0  0  0  0
   25.7369  -20.8568  -12.0602 C   0  0  1  0  0  0  0  0  0  0  0  0
   26.1965  -20.7703  -10.6319 C   0  0  0  0  0  0  0  0  0  0  0  0
   24.9409  -21.1906   -9.4386 S   0  0  0  0  0  0  0  0  0  0  0  0
   24.4672  -20.2008  -12.3233 C   0  0  0  0  0  0  0  0  0  0  0  0
   24.2663  -18.9607  -12.3097 O   0  0  0  0  0  0  0  0  0  0  0  0
   23.3194  -21.0093  -12.6295 N   0  0  0  0  0  0  0  0  0  0  0  0
   22.0388  -20.3972  -12.9070 C   0  0  0  0  0  0  0  0  0  0  0  0
   20.9943  -21.4123  -13.1980 C   0  0  0  0  0  0  0  0  0  0  0  0
   19.6858  -21.0524  -13.4424 O   0  0  0  0  0  0  0  0  0  0  0  0
   21.3179  -22.6251  -13.2203 O   0  0  0  0  0  0  0  0  0  0  0  0
  2  1  1  1
  2  3  1  0
  4  5  1  6
  4  2  1  0
  6  4  1  0
  7  6  2  0
  8  6  1  0
  9  8  1  0
  9 12  1  0
  9 10  1  1
 11 10  1  0
 12 14  1  0
 13 12  2  0
 14 15  1  0
 15 16  1  0
 16 17  1  0
 18 16  2  0
M  END
$$$$
