VCG.pdb
     RDKit          3D

 18 17  0  0  1  0  0  0  0  0999 V2000
   21.2107  -11.8006  -19.8770 C   0  0  0  0  0  0  0  0  0  0  0  0
   20.5065  -10.8197  -18.9396 C   0  0  1  0  0  0  0  0  0  0  0  0
   19.5453  -11.5859  -18.0872 C   0  0  0  0  0  0  0  0  0  0  0  0
   21.5676  -10.1118  -18.1314 C   0  0  2  0  0  0  0  0  0  0  0  0
   22.3050  -10.9902  -17.2802 N   0  0  0  0  0  0  0  0  0  0  0  0
   20.9091   -9.0715  -17.2878 C   0  0  0  0  0  0  0  0  0  0  0  0
   20.1777   -8.1724  -17.7775 O   0  0  0  0  0  0  0  0  0  0  0  0
   21.0849   -9.0551  -15.8754 N   0  0  0  0  0  0  0  0  0  0  0  0
   20.4369   -8.0433  -15.0661 C   0  0  1  0  0  0  0  0  0  0  0  0
   19.5492   -8.7001  -14.0467 C   0  0  0  0  0  0  0  0  0  0  0  0
   18.5800  -10.0504  -14.6905 S   0  0  0  0  0  0  0  0  0  0  0  0
   21.4366   -7.1500  -14.5055 C   0  0  0  0  0  0  0  0  0  0  0  0
   22.6087   -7.4700  -14.1858 O   0  0  0  0  0  0  0  0  0  0  0  0
   21.0898   -5.7732  -14.2837 N   0  0  0  0  0  0  0  0  0  0  0  0
   22.0831   -4.8268  -13.8260 C   0  0  0  0  0  0  0  0  0  0  0  0
   21.5354   -3.4485  -13.7459 C   0  0  0  0  0  0  0  0  0  0  0  0
   22.1720   -2.4593  -13.0267 O   0  0  0  0  0  0  0  0  0  0  0  0
   20.4669   -3.1854  -14.3501 O   0  0  0  0  0  0  0  0  0  0  0  0
  2  1  1  6
  2  3  1  0
  4  5  1  1
  4  2  1  0
  6  4  1  0
  7  6  2  0
  8  6  1  0
  9  8  1  0
  9 12  1  0
  9 10  1  1
 11 10  1  0
 12 14  1  0
 13 12  2  0
 14 15  1  0
 15 16  1  0
 16 17  1  0
 18 16  2  0
M  END
$$$$
