RAM.pdb
     RDKit          3D

 25 24  0  0  1  0  0  0  0  0999 V2000
   27.9334  -21.5049  -18.8131 N   0  0  0  0  0  0  0  0  0  0  0  0
   28.7601  -22.6383  -18.5703 C   0  0  0  0  0  0  0  0  0  0  0  0
   29.4908  -23.0997  -19.5215 N   0  0  0  0  0  0  0  0  0  0  0  0
   28.7767  -23.2503  -17.2901 N   0  0  0  0  0  0  0  0  0  0  0  0
   28.0526  -22.6414  -16.1968 C   0  0  0  0  0  0  0  0  0  0  0  0
   28.9347  -21.5394  -15.6258 C   0  0  0  0  0  0  0  0  0  0  0  0
   28.2417  -21.0558  -14.3771 C   0  0  0  0  0  0  0  0  0  0  0  0
   26.8223  -20.5634  -14.6762 C   0  0  2  0  0  0  0  0  0  0  0  0
   26.9461  -19.4795  -15.6340 N   0  0  0  0  0  0  0  0  0  0  0  0
   26.3036  -20.0735  -13.3682 C   0  0  0  0  0  0  0  0  0  0  0  0
   27.0525  -19.3096  -12.7063 O   0  0  0  0  0  0  0  0  0  0  0  0
   30.0267  -23.9840  -19.4725 C   0  0  0  0  0  0  0  0  0  0  0  0
   23.0639  -20.3495  -11.5503 C   0  0  1  0  0  0  0  0  0  0  0  0
   24.5567  -19.9837  -11.5386 N   0  0  0  0  0  0  0  0  0  0  0  0
   25.0495  -20.4058  -12.8354 C   0  0  0  0  0  0  0  0  0  0  0  0
   25.2538  -20.6540  -10.4279 O   0  0  0  0  0  0  0  0  0  0  0  0
   25.5705  -21.8672  -10.5044 C   0  0  0  0  0  0  0  0  0  0  0  0
   29.7705  -18.6036   -6.2207 S   0  0  0  0  0  0  0  0  0  0  0  0
   28.5942  -19.3887   -5.0830 C   0  0  0  0  0  0  0  0  0  0  0  0
   27.4011  -20.4070   -5.9567 C   0  0  0  0  0  0  0  0  0  0  0  0
   26.9954  -19.8504   -7.2990 C   0  0  1  0  0  0  0  0  0  0  0  0
   26.0069  -20.7338   -8.0232 N   0  0  0  0  0  0  0  0  0  0  0  0
   25.6056  -19.9803   -9.2221 C   0  0  0  0  0  0  0  0  0  0  0  0
   24.8515  -21.1418   -7.2315 O   0  0  0  0  0  0  0  0  0  0  0  0
   24.8733  -22.1524   -6.2868 O   0  0  0  0  0  0  0  0  0  0  0  0
  1  2  1  0
  2  3  2  0
  4  2  1  0
  5  4  1  0
  6  5  1  0
  7  6  1  0
  7  8  1  0
  8  9  1  6
  8 10  1  0
 10 11  2  0
 13 12  1  6
 14 10  1  0
 14 13  1  0
 15 13  1  0
 15 16  2  0
 17 18  1  0
 19 20  1  0
 19 18  1  0
 21 20  1  6
 21 23  1  0
 21 22  1  0
 22 15  1  0
 23 24  1  0
 25 23  2  0
M  END
$$$$
