RAM.pdb
     RDKit          3D

 25 24  0  0  1  0  0  0  0  0999 V2000
   27.6380  -23.1681  -16.3913 N   0  0  0  0  0  0  0  0  0  0  0  0
   27.1480  -21.9221  -16.8757 C   0  0  0  0  0  0  0  0  0  0  0  0
   27.5599  -21.4822  -18.0107 N   0  0  0  0  0  0  0  0  0  0  0  0
   26.2136  -21.1755  -16.1121 N   0  0  0  0  0  0  0  0  0  0  0  0
   25.6712  -21.7387  -14.8959 C   0  0  0  0  0  0  0  0  0  0  0  0
   24.8102  -22.9305  -15.2919 C   0  0  0  0  0  0  0  0  0  0  0  0
   23.3817  -22.5092  -15.0566 C   0  0  0  0  0  0  0  0  0  0  0  0
   22.4042  -23.6555  -15.3340 C   0  0  2  0  0  0  0  0  0  0  0  0
   22.1916  -23.6890  -16.7697 N   0  0  0  0  0  0  0  0  0  0  0  0
   21.1574  -23.2787  -14.6106 C   0  0  0  0  0  0  0  0  0  0  0  0
   20.7097  -22.1199  -14.8089 O   0  0  0  0  0  0  0  0  0  0  0  0
   27.2780  -20.5767  -18.4255 C   0  0  0  0  0  0  0  0  0  0  0  0
   18.1896  -23.6291  -14.1774 C   0  0  2  0  0  0  0  0  0  0  0  0
   19.2265  -23.7822  -13.0533 N   0  0  0  0  0  0  0  0  0  0  0  0
   20.4604  -24.1233  -13.7343 C   0  0  0  0  0  0  0  0  0  0  0  0
   18.8112  -24.8177  -12.0920 O   0  0  0  0  0  0  0  0  0  0  0  0
   18.8270  -26.0335  -12.4077 C   0  0  0  0  0  0  0  0  0  0  0  0
   19.2578  -24.1004   -5.6351 S   0  0  0  0  0  0  0  0  0  0  0  0
   17.8349  -25.2247   -5.7084 C   0  0  0  0  0  0  0  0  0  0  0  0
   17.5804  -25.8699   -7.3646 C   0  0  0  0  0  0  0  0  0  0  0  0
   18.0342  -24.9338   -8.4572 C   0  0  1  0  0  0  0  0  0  0  0  0
   18.0171  -25.5783   -9.8233 N   0  0  0  0  0  0  0  0  0  0  0  0
   18.3750  -24.5101  -10.7704 C   0  0  0  0  0  0  0  0  0  0  0  0
   16.7577  -26.2194  -10.1851 O   0  0  0  0  0  0  0  0  0  0  0  0
   16.4595  -27.5466   -9.9324 O   0  0  0  0  0  0  0  0  0  0  0  0
  1  2  1  0
  2  3  2  0
  4  2  1  0
  5  4  1  0
  6  5  1  0
  7  6  1  0
  7  8  1  0
  8  9  1  6
  8 10  1  0
 10 11  2  0
 13 12  1  6
 14 10  1  0
 14 13  1  0
 15 13  1  0
 15 16  2  0
 17 18  1  0
 19 20  1  0
 19 18  1  0
 21 20  1  1
 21 23  1  0
 21 22  1  0
 22 15  1  0
 23 24  1  0
 25 23  2  0
M  END
$$$$
