RAM.pdb
     RDKit          3D

 25 24  0  0  1  0  0  0  0  0999 V2000
   32.2546  -23.2496  -12.2645 N   0  0  0  0  0  0  0  0  0  0  0  0
   32.3510  -22.8070  -10.9147 C   0  0  0  0  0  0  0  0  0  0  0  0
   33.4981  -22.4709  -10.4429 N   0  0  0  0  0  0  0  0  0  0  0  0
   31.1908  -22.7373  -10.1005 N   0  0  0  0  0  0  0  0  0  0  0  0
   29.9641  -22.2020  -10.6474 C   0  0  0  0  0  0  0  0  0  0  0  0
   30.0424  -20.6852  -10.5388 C   0  0  0  0  0  0  0  0  0  0  0  0
   29.1377  -20.1429  -11.6163 C   0  0  0  0  0  0  0  0  0  0  0  0
   27.7180  -20.7051  -11.4945 C   0  0  2  0  0  0  0  0  0  0  0  0
   27.8494  -22.1288  -11.2430 N   0  0  0  0  0  0  0  0  0  0  0  0
   27.0884  -20.4451  -12.8196 C   0  0  0  0  0  0  0  0  0  0  0  0
   26.7199  -19.2657  -13.0557 O   0  0  0  0  0  0  0  0  0  0  0  0
   33.6854  -22.2712   -9.4446 C   0  0  0  0  0  0  0  0  0  0  0  0
   26.5652  -22.2745  -15.9903 C   0  0  2  0  0  0  0  0  0  0  0  0
   26.0250  -21.2642  -14.9656 N   0  0  0  0  0  0  0  0  0  0  0  0
   26.8836  -21.4195  -13.8074 C   0  0  0  0  0  0  0  0  0  0  0  0
   24.6107  -21.5340  -14.6561 O   0  0  0  0  0  0  0  0  0  0  0  0
   24.2654  -22.6086  -14.1048 C   0  0  0  0  0  0  0  0  0  0  0  0
   23.4644  -20.6437   -9.6275 S   0  0  0  0  0  0  0  0  0  0  0  0
   21.9549  -19.7797  -10.1462 C   0  0  0  0  0  0  0  0  0  0  0  0
   21.5167  -20.1656  -11.8441 C   0  0  0  0  0  0  0  0  0  0  0  0
   22.7014  -20.2376  -12.7755 C   0  0  1  0  0  0  0  0  0  0  0  0
   22.3129  -20.6085  -14.1874 N   0  0  0  0  0  0  0  0  0  0  0  0
   23.5676  -20.6103  -14.9567 C   0  0  0  0  0  0  0  0  0  0  0  0
   21.3088  -19.7431  -14.7965 O   0  0  0  0  0  0  0  0  0  0  0  0
   21.6030  -18.6196  -15.5486 O   0  0  0  0  0  0  0  0  0  0  0  0
  1  2  1  0
  2  3  2  0
  4  2  1  0
  5  4  1  0
  6  5  1  0
  7  6  1  0
  7  8  1  0
  8  9  1  6
  8 10  1  0
 10 11  2  0
 13 12  1  6
 14 10  1  0
 14 13  1  0
 15 13  1  0
 15 16  2  0
 17 18  1  0
 19 20  1  0
 19 18  1  0
 21 20  1  1
 21 23  1  0
 21 22  1  0
 22 15  1  0
 23 24  1  0
 25 23  2  0
M  END
$$$$
