RAM.pdb
     RDKit          3D

 25 24  0  0  1  0  0  0  0  0999 V2000
   21.5928  -19.9403  -18.1142 N   0  0  0  0  0  0  0  0  0  0  0  0
   21.1537  -18.5869  -18.0610 C   0  0  0  0  0  0  0  0  0  0  0  0
   21.2280  -17.8591  -19.1175 N   0  0  0  0  0  0  0  0  0  0  0  0
   20.6384  -18.0493  -16.8530 N   0  0  0  0  0  0  0  0  0  0  0  0
   20.5563  -18.8848  -15.6759 C   0  0  0  0  0  0  0  0  0  0  0  0
   21.9691  -19.0396  -15.1294 C   0  0  0  0  0  0  0  0  0  0  0  0
   21.8410  -19.8554  -13.8679 C   0  0  0  0  0  0  0  0  0  0  0  0
   23.1893  -20.0078  -13.1571 C   0  0  2  0  0  0  0  0  0  0  0  0
   24.0587  -20.7435  -14.0573 N   0  0  0  0  0  0  0  0  0  0  0  0
   22.8880  -20.7971  -11.9299 C   0  0  0  0  0  0  0  0  0  0  0  0
   22.4945  -21.9806  -12.0939 O   0  0  0  0  0  0  0  0  0  0  0  0
   20.8812  -16.8860  -19.1842 C   0  0  0  0  0  0  0  0  0  0  0  0
   23.1898  -20.1662   -8.2657 C   0  0  1  0  0  0  0  0  0  0  0  0
   22.7146  -21.0645   -9.4188 N   0  0  0  0  0  0  0  0  0  0  0  0
   23.0138  -20.3102  -10.6206 C   0  0  0  0  0  0  0  0  0  0  0  0
   21.2797  -21.3700   -9.2905 O   0  0  0  0  0  0  0  0  0  0  0  0
   20.4123  -20.6140   -9.7947 C   0  0  0  0  0  0  0  0  0  0  0  0
   15.8697  -26.6463   -6.7409 S   0  0  0  0  0  0  0  0  0  0  0  0
   17.6092  -26.1331   -6.8122 C   0  0  0  0  0  0  0  0  0  0  0  0
   17.7921  -24.4969   -7.5284 C   0  0  0  0  0  0  0  0  0  0  0  0
   19.2274  -24.0859   -7.7450 C   0  0  2  0  0  0  0  0  0  0  0  0
   19.3549  -22.7240   -8.3862 N   0  0  0  0  0  0  0  0  0  0  0  0
   20.7965  -22.5199   -8.6006 C   0  0  0  0  0  0  0  0  0  0  0  0
   18.7629  -21.6286   -7.6261 O   0  0  0  0  0  0  0  0  0  0  0  0
   19.3965  -20.9715   -6.5863 O   0  0  0  0  0  0  0  0  0  0  0  0
  1  2  1  0
  2  3  2  0
  4  2  1  0
  5  4  1  0
  6  5  1  0
  7  6  1  0
  7  8  1  0
  8  9  1  6
  8 10  1  0
 10 11  2  0
 13 12  1  6
 14 10  1  0
 14 13  1  0
 15 13  1  0
 15 16  2  0
 17 18  1  0
 19 20  1  0
 19 18  1  0
 21 20  1  6
 21 23  1  0
 21 22  1  0
 22 15  1  0
 23 24  1  0
 25 23  2  0
M  END
$$$$
