RAM.pdb
     RDKit          3D

 25 24  0  0  1  0  0  0  0  0999 V2000
   27.1415  -25.3766  -16.4012 N   0  0  0  0  0  0  0  0  0  0  0  0
   27.4279  -24.2701  -17.2504 C   0  0  0  0  0  0  0  0  0  0  0  0
   28.1708  -24.4459  -18.2841 N   0  0  0  0  0  0  0  0  0  0  0  0
   26.8966  -22.9874  -16.9572 N   0  0  0  0  0  0  0  0  0  0  0  0
   26.0023  -22.8234  -15.8329 C   0  0  0  0  0  0  0  0  0  0  0  0
   24.6115  -23.2366  -16.2949 C   0  0  0  0  0  0  0  0  0  0  0  0
   23.6840  -22.9370  -15.1445 C   0  0  0  0  0  0  0  0  0  0  0  0
   24.0925  -21.6554  -14.4116 C   0  0  2  0  0  0  0  0  0  0  0  0
   25.2939  -21.9662  -13.6582 N   0  0  0  0  0  0  0  0  0  0  0  0
   22.9491  -21.3513  -13.5062 C   0  0  0  0  0  0  0  0  0  0  0  0
   22.8912  -21.9904  -12.4242 O   0  0  0  0  0  0  0  0  0  0  0  0
   28.4473  -23.6955  -18.9414 C   0  0  0  0  0  0  0  0  0  0  0  0
   20.0648  -18.9843  -13.6211 C   0  0  1  0  0  0  0  0  0  0  0  0
   20.7806  -20.1688  -12.9524 N   0  0  0  0  0  0  0  0  0  0  0  0
   21.9464  -20.4097  -13.7804 C   0  0  0  0  0  0  0  0  0  0  0  0
   19.8949  -21.3428  -12.8748 O   0  0  0  0  0  0  0  0  0  0  0  0
   19.7150  -22.0814  -13.8748 C   0  0  0  0  0  0  0  0  0  0  0  0
   18.4178  -23.6877   -7.0119 S   0  0  0  0  0  0  0  0  0  0  0  0
   17.6508  -24.9335   -8.0860 C   0  0  0  0  0  0  0  0  0  0  0  0
   17.9964  -24.6216   -9.8201 C   0  0  0  0  0  0  0  0  0  0  0  0
   18.0858  -23.1561  -10.1673 C   0  0  2  0  0  0  0  0  0  0  0  0
   18.3693  -22.9188  -11.6320 N   0  0  0  0  0  0  0  0  0  0  0  0
   19.2018  -21.7062  -11.6836 C   0  0  0  0  0  0  0  0  0  0  0  0
   17.1854  -22.7958  -12.4754 O   0  0  0  0  0  0  0  0  0  0  0  0
   16.7070  -23.8016  -13.2963 O   0  0  0  0  0  0  0  0  0  0  0  0
  1  2  1  0
  2  3  2  0
  4  2  1  0
  5  4  1  0
  6  5  1  0
  7  6  1  0
  7  8  1  0
  8  9  1  1
  8 10  1  0
 10 11  2  0
 13 12  1  1
 14 10  1  0
 14 13  1  0
 15 13  1  0
 15 16  2  0
 17 18  1  0
 19 20  1  0
 19 18  1  0
 21 20  1  1
 21 23  1  0
 21 22  1  0
 22 15  1  0
 23 24  1  0
 25 23  2  0
M  END
$$$$
