NYD.pdb
     RDKit          3D

 29 29  0  0  1  0  0  0  0  0999 V2000
    9.2550  -15.3040   15.0969 N   0  0  0  0  0  0  0  0  0  0  0  0
    8.4510  -15.7827   16.1919 C   0  0  0  0  0  0  0  0  0  0  0  0
    7.4754  -16.5278   15.9636 O   0  0  0  0  0  0  0  0  0  0  0  0
    8.8175  -15.3703   17.5361 C   0  0  0  0  0  0  0  0  0  0  0  0
    7.8147  -14.4644   18.2177 C   0  0  2  0  0  0  0  0  0  0  0  0
    8.1185  -13.1306   17.6073 N   0  0  0  0  0  0  0  0  0  0  0  0
    8.2136  -14.3169   19.6361 C   0  0  0  0  0  0  0  0  0  0  0  0
    9.4181  -13.9377   19.8698 O   0  0  0  0  0  0  0  0  0  0  0  0
    7.8456  -12.7429   28.3505 O   0  0  0  0  0  0  0  0  0  0  0  0
    7.5504  -13.0269   27.0234 C   0  0  0  0  0  0  0  0  0  0  0  0
    6.8784  -14.1643   26.6263 C   0  0  0  0  0  0  0  0  0  0  0  0
    6.6166  -14.3819   25.2673 C   0  0  0  0  0  0  0  0  0  0  0  0
    7.0254  -13.4668   24.3205 C   0  0  0  0  0  0  0  0  0  0  0  0
    6.7523  -13.6998   22.9101 C   0  0  0  0  0  0  0  0  0  0  0  0
    7.9083  -14.2858   22.1214 C   0  0  2  0  0  0  0  0  0  0  0  0
    7.3979  -14.5464   20.7671 N   0  0  0  0  0  0  0  0  0  0  0  0
    8.4688  -15.4856   22.7685 C   0  0  0  0  0  0  0  0  0  0  0  0
    7.8240  -16.5578   22.6498 O   0  0  0  0  0  0  0  0  0  0  0  0
    7.6919  -12.3431   24.7368 C   0  0  0  0  0  0  0  0  0  0  0  0
    7.9678  -12.0972   26.0784 C   0  0  0  0  0  0  0  0  0  0  0  0
    9.6634  -15.5445   23.5096 N   0  0  0  0  0  0  0  0  0  0  0  0
   10.2055  -16.7737   24.0764 C   0  0  1  0  0  0  0  0  0  0  0  0
   11.6750  -16.8829   23.8310 C   0  0  0  0  0  0  0  0  0  0  0  0
   11.9382  -17.1687   22.4105 C   0  0  0  0  0  0  0  0  0  0  0  0
   11.1685  -17.8367   21.6791 O   0  0  0  0  0  0  0  0  0  0  0  0
    9.9221  -16.7557   25.5171 C   0  0  0  0  0  0  0  0  0  0  0  0
    9.4197  -15.7480   26.0588 O   0  0  0  0  0  0  0  0  0  0  0  0
   13.1007  -16.6758   21.8386 O   0  0  0  0  0  0  0  0  0  0  0  0
   10.2054  -17.8542   26.2963 O   0  0  0  0  0  0  0  0  0  0  0  0
  1  2  1  0
  2  3  2  0
  4  2  1  0
  4  5  1  0
  5  6  1  6
  5  7  1  0
  7  8  2  0
  9 10  1  0
 10 20  2  0
 10 11  1  0
 11 12  2  0
 12 13  1  0
 13 14  1  0
 15 14  1  1
 16  7  1  0
 16 15  1  0
 17 21  1  0
 17 15  1  0
 18 17  2  0
 19 13  2  0
 20 19  1  0
 22 26  1  0
 22 23  1  1
 22 21  1  0
 23 24  1  0
 24 28  1  0
 24 25  2  0
 26 29  1  0
 27 26  2  0
M  END
$$$$
