NYD.pdb
     RDKit          3D

 29 29  0  0  1  0  0  0  0  0999 V2000
    9.4282  -18.3671   17.0645 N   0  0  0  0  0  0  0  0  0  0  0  0
    9.0275  -19.0564   18.2639 C   0  0  0  0  0  0  0  0  0  0  0  0
    8.9388  -20.3018   18.2614 O   0  0  0  0  0  0  0  0  0  0  0  0
    8.7396  -18.2581   19.4434 C   0  0  0  0  0  0  0  0  0  0  0  0
    8.8240  -16.7616   19.2331 C   0  0  2  0  0  0  0  0  0  0  0  0
   10.1668  -16.6020   18.5890 N   0  0  0  0  0  0  0  0  0  0  0  0
    8.9744  -16.1160   20.5573 C   0  0  0  0  0  0  0  0  0  0  0  0
   10.0947  -16.2775   21.1641 O   0  0  0  0  0  0  0  0  0  0  0  0
    7.1215  -11.8608   28.1654 O   0  0  0  0  0  0  0  0  0  0  0  0
    7.1615  -12.3148   26.8535 C   0  0  0  0  0  0  0  0  0  0  0  0
    7.9261  -11.7195   25.8716 C   0  0  0  0  0  0  0  0  0  0  0  0
    7.9147  -12.2354   24.5691 C   0  0  0  0  0  0  0  0  0  0  0  0
    7.1442  -13.3358   24.2589 C   0  0  0  0  0  0  0  0  0  0  0  0
    7.1351  -13.8655   22.9034 C   0  0  0  0  0  0  0  0  0  0  0  0
    8.2568  -14.8368   22.5869 C   0  0  2  0  0  0  0  0  0  0  0  0
    8.0076  -15.3301   21.2241 N   0  0  0  0  0  0  0  0  0  0  0  0
    8.3517  -15.9178   23.5844 C   0  0  0  0  0  0  0  0  0  0  0  0
    7.6252  -16.9281   23.4089 O   0  0  0  0  0  0  0  0  0  0  0  0
    6.3916  -13.9121   25.2497 C   0  0  0  0  0  0  0  0  0  0  0  0
    6.3804  -13.4244   26.5530 C   0  0  0  0  0  0  0  0  0  0  0  0
    9.1830  -15.9258   24.7196 N   0  0  0  0  0  0  0  0  0  0  0  0
    9.6276  -17.1419   25.3898 C   0  0  1  0  0  0  0  0  0  0  0  0
   10.3567  -18.0448   24.4491 C   0  0  0  0  0  0  0  0  0  0  0  0
   10.8024  -19.2620   25.1480 C   0  0  0  0  0  0  0  0  0  0  0  0
   10.0761  -19.9246   25.9271 O   0  0  0  0  0  0  0  0  0  0  0  0
   10.5003  -16.7383   26.4995 C   0  0  0  0  0  0  0  0  0  0  0  0
   11.0369  -15.6099   26.5150 O   0  0  0  0  0  0  0  0  0  0  0  0
   12.0975  -19.7103   24.9398 O   0  0  0  0  0  0  0  0  0  0  0  0
   10.7405  -17.5999   27.5454 O   0  0  0  0  0  0  0  0  0  0  0  0
  1  2  1  0
  2  3  2  0
  4  2  1  0
  4  5  1  0
  5  6  1  6
  5  7  1  0
  7  8  2  0
  9 10  1  0
 10 20  2  0
 10 11  1  0
 11 12  2  0
 12 13  1  0
 13 14  1  0
 15 14  1  1
 16  7  1  0
 16 15  1  0
 17 21  1  0
 17 15  1  0
 18 17  2  0
 19 13  2  0
 20 19  1  0
 22 26  1  0
 22 23  1  6
 22 21  1  0
 23 24  1  0
 24 28  1  0
 24 25  2  0
 26 29  1  0
 27 26  2  0
M  END
$$$$
