NYD.pdb
     RDKit          3D

 29 29  0  0  1  0  0  0  0  0999 V2000
    6.4979  -20.7808   24.1159 N   0  0  0  0  0  0  0  0  0  0  0  0
    5.8573  -19.9135   23.1611 C   0  0  0  0  0  0  0  0  0  0  0  0
    4.6381  -19.6672   23.2698 O   0  0  0  0  0  0  0  0  0  0  0  0
    6.6723  -19.3543   22.0960 C   0  0  0  0  0  0  0  0  0  0  0  0
    8.0560  -19.9553   21.9734 C   0  0  2  0  0  0  0  0  0  0  0  0
    8.5556  -19.9043   23.3846 N   0  0  0  0  0  0  0  0  0  0  0  0
    8.9154  -18.9933   21.2462 C   0  0  0  0  0  0  0  0  0  0  0  0
    9.7952  -18.3580   21.9329 O   0  0  0  0  0  0  0  0  0  0  0  0
    8.1850  -11.0061   18.7498 O   0  0  0  0  0  0  0  0  0  0  0  0
    8.1881  -12.3389   19.1404 C   0  0  0  0  0  0  0  0  0  0  0  0
    8.7641  -12.7804   20.3136 C   0  0  0  0  0  0  0  0  0  0  0  0
    8.7270  -14.1422   20.6402 C   0  0  0  0  0  0  0  0  0  0  0  0
    8.1182  -15.0478   19.7975 C   0  0  0  0  0  0  0  0  0  0  0  0
    8.0851  -16.4615   20.1415 C   0  0  0  0  0  0  0  0  0  0  0  0
    9.0697  -17.3298   19.3808 C   0  0  2  0  0  0  0  0  0  0  0  0
    8.8709  -18.7046   19.8635 N   0  0  0  0  0  0  0  0  0  0  0  0
   10.4578  -16.8585   19.5343 C   0  0  0  0  0  0  0  0  0  0  0  0
   10.8060  -15.8621   18.8524 O   0  0  0  0  0  0  0  0  0  0  0  0
    7.5520  -14.5878   18.6365 C   0  0  0  0  0  0  0  0  0  0  0  0
    7.5716  -13.2421   18.2826 C   0  0  0  0  0  0  0  0  0  0  0  0
   11.4344  -17.4212   20.3766 N   0  0  0  0  0  0  0  0  0  0  0  0
   12.7957  -16.9118   20.4920 C   0  0  1  0  0  0  0  0  0  0  0  0
   13.0199  -15.7501   19.5800 C   0  0  0  0  0  0  0  0  0  0  0  0
   14.3903  -15.2335   19.7345 C   0  0  0  0  0  0  0  0  0  0  0  0
   15.2222  -15.6959   20.5516 O   0  0  0  0  0  0  0  0  0  0  0  0
   13.0002  -16.5172   21.8915 C   0  0  0  0  0  0  0  0  0  0  0  0
   14.1013  -16.0692   22.2766 O   0  0  0  0  0  0  0  0  0  0  0  0
   14.7947  -14.1753   18.9356 O   0  0  0  0  0  0  0  0  0  0  0  0
   11.9770  -16.6339   22.8045 O   0  0  0  0  0  0  0  0  0  0  0  0
  1  2  1  0
  2  3  2  0
  4  2  1  0
  4  5  1  0
  5  6  1  1
  5  7  1  0
  7  8  2  0
  9 10  1  0
 10 20  2  0
 10 11  1  0
 11 12  2  0
 12 13  1  0
 13 14  1  0
 15 14  1  1
 16  7  1  0
 16 15  1  0
 17 21  1  0
 17 15  1  0
 18 17  2  0
 19 13  2  0
 20 19  1  0
 22 26  1  0
 22 23  1  6
 22 21  1  0
 23 24  1  0
 24 28  1  0
 24 25  2  0
 26 29  1  0
 27 26  2  0
M  END
$$$$
