NYD.pdb
     RDKit          3D

 29 29  0  0  1  0  0  0  0  0999 V2000
    8.2784  -15.1939   18.1980 N   0  0  0  0  0  0  0  0  0  0  0  0
    8.3128  -13.9418   18.9089 C   0  0  0  0  0  0  0  0  0  0  0  0
    8.0616  -12.8794   18.3030 O   0  0  0  0  0  0  0  0  0  0  0  0
    8.6439  -13.9714   20.3234 C   0  0  0  0  0  0  0  0  0  0  0  0
    8.9430  -15.3481   20.8766 C   0  0  2  0  0  0  0  0  0  0  0  0
    7.5904  -15.9915   20.8884 N   0  0  0  0  0  0  0  0  0  0  0  0
    9.2927  -15.2055   22.3085 C   0  0  0  0  0  0  0  0  0  0  0  0
   10.4380  -14.6941   22.5840 O   0  0  0  0  0  0  0  0  0  0  0  0
    5.7967  -10.1966   26.2562 O   0  0  0  0  0  0  0  0  0  0  0  0
    6.2501  -11.5004   26.1031 C   0  0  0  0  0  0  0  0  0  0  0  0
    5.4489  -12.5306   25.6559 C   0  0  0  0  0  0  0  0  0  0  0  0
    5.9784  -13.8212   25.5268 C   0  0  0  0  0  0  0  0  0  0  0  0
    7.2966  -14.0718   25.8434 C   0  0  0  0  0  0  0  0  0  0  0  0
    7.8400  -15.4153   25.7093 C   0  0  0  0  0  0  0  0  0  0  0  0
    9.0309  -15.5351   24.7770 C   0  0  2  0  0  0  0  0  0  0  0  0
    8.4876  -15.5712   23.4109 N   0  0  0  0  0  0  0  0  0  0  0  0
    9.8692  -16.7047   25.0965 C   0  0  0  0  0  0  0  0  0  0  0  0
   10.1793  -16.8785   26.3018 O   0  0  0  0  0  0  0  0  0  0  0  0
    8.0753  -13.0337   26.2862 C   0  0  0  0  0  0  0  0  0  0  0  0
    7.5804  -11.7406   26.4256 C   0  0  0  0  0  0  0  0  0  0  0  0
   10.3570  -17.6497   24.1752 N   0  0  0  0  0  0  0  0  0  0  0  0
   11.1390  -18.8208   24.5531 C   0  0  1  0  0  0  0  0  0  0  0  0
   11.1882  -19.8216   23.4451 C   0  0  0  0  0  0  0  0  0  0  0  0
   12.0501  -20.9564   23.8164 C   0  0  0  0  0  0  0  0  0  0  0  0
   11.6652  -21.9263   24.5125 O   0  0  0  0  0  0  0  0  0  0  0  0
   12.4906  -18.3567   24.8906 C   0  0  0  0  0  0  0  0  0  0  0  0
   13.0339  -17.4384   24.2403 O   0  0  0  0  0  0  0  0  0  0  0  0
   13.3647  -20.9631   23.3765 O   0  0  0  0  0  0  0  0  0  0  0  0
   13.1825  -18.9276   25.9343 O   0  0  0  0  0  0  0  0  0  0  0  0
  1  2  1  0
  2  3  2  0
  4  2  1  0
  4  5  1  0
  5  6  1  1
  5  7  1  0
  7  8  2  0
  9 10  1  0
 10 20  2  0
 10 11  1  0
 11 12  2  0
 12 13  1  0
 13 14  1  0
 15 14  1  1
 16  7  1  0
 16 15  1  0
 17 21  1  0
 17 15  1  0
 18 17  2  0
 19 13  2  0
 20 19  1  0
 22 26  1  0
 22 23  1  6
 22 21  1  0
 23 24  1  0
 24 28  1  0
 24 25  2  0
 26 29  1  0
 27 26  2  0
M  END
$$$$
