NYD.pdb
     RDKit          3D

 29 29  0  0  1  0  0  0  0  0999 V2000
   12.7646  -17.7551   17.9254 N   0  0  0  0  0  0  0  0  0  0  0  0
   11.3817  -17.4749   18.2137 C   0  0  0  0  0  0  0  0  0  0  0  0
   10.4867  -17.9907   17.5123 O   0  0  0  0  0  0  0  0  0  0  0  0
   11.0846  -16.5894   19.3268 C   0  0  0  0  0  0  0  0  0  0  0  0
   10.7595  -17.2920   20.6275 C   0  0  2  0  0  0  0  0  0  0  0  0
    9.4340  -17.9231   20.3301 N   0  0  0  0  0  0  0  0  0  0  0  0
   10.4536  -16.2615   21.6460 C   0  0  0  0  0  0  0  0  0  0  0  0
   11.4100  -15.4773   21.9919 O   0  0  0  0  0  0  0  0  0  0  0  0
    6.2399  -11.2342   27.6561 O   0  0  0  0  0  0  0  0  0  0  0  0
    6.5566  -12.1120   26.6274 C   0  0  0  0  0  0  0  0  0  0  0  0
    6.1819  -13.4396   26.6257 C   0  0  0  0  0  0  0  0  0  0  0  0
    6.5387  -14.2643   25.5509 C   0  0  0  0  0  0  0  0  0  0  0  0
    7.2628  -13.7597   24.4918 C   0  0  0  0  0  0  0  0  0  0  0  0
    7.6322  -14.6223   23.3793 C   0  0  0  0  0  0  0  0  0  0  0  0
    9.0816  -15.0706   23.3694 C   0  0  2  0  0  0  0  0  0  0  0  0
    9.2073  -16.0469   22.2768 N   0  0  0  0  0  0  0  0  0  0  0  0
    9.5045  -15.6073   24.6754 C   0  0  0  0  0  0  0  0  0  0  0  0
    9.4825  -14.8208   25.6553 O   0  0  0  0  0  0  0  0  0  0  0  0
    7.6251  -12.4374   24.5135 C   0  0  0  0  0  0  0  0  0  0  0  0
    7.2869  -11.5917   25.5656 C   0  0  0  0  0  0  0  0  0  0  0  0
    9.9322  -16.9234   24.9300 N   0  0  0  0  0  0  0  0  0  0  0  0
   10.3675  -17.3949   26.2393 C   0  0  1  0  0  0  0  0  0  0  0  0
    9.3537  -18.3039   26.8537 C   0  0  0  0  0  0  0  0  0  0  0  0
    9.8742  -18.8826   28.1039 C   0  0  0  0  0  0  0  0  0  0  0  0
   10.3188  -18.1990   29.0570 O   0  0  0  0  0  0  0  0  0  0  0  0
   11.6440  -18.0960   26.0518 C   0  0  0  0  0  0  0  0  0  0  0  0
   12.0708  -18.3548   24.9063 O   0  0  0  0  0  0  0  0  0  0  0  0
    9.8776  -20.2615   28.2460 O   0  0  0  0  0  0  0  0  0  0  0  0
   12.3943  -18.4793   27.1400 O   0  0  0  0  0  0  0  0  0  0  0  0
  1  2  1  0
  2  3  2  0
  4  2  1  0
  4  5  1  0
  5  6  1  6
  5  7  1  0
  7  8  2  0
  9 10  1  0
 10 20  2  0
 10 11  1  0
 11 12  2  0
 12 13  1  0
 13 14  1  0
 15 14  1  1
 16  7  1  0
 16 15  1  0
 17 21  1  0
 17 15  1  0
 18 17  2  0
 19 13  2  0
 20 19  1  0
 22 26  1  0
 22 23  1  6
 22 21  1  0
 23 24  1  0
 24 28  1  0
 24 25  2  0
 26 29  1  0
 27 26  2  0
M  END
$$$$
