NYD.pdb
     RDKit          3D

 29 29  0  0  1  0  0  0  0  0999 V2000
   11.9893  -17.4772   17.3778 N   0  0  0  0  0  0  0  0  0  0  0  0
   10.6765  -17.3708   17.9603 C   0  0  0  0  0  0  0  0  0  0  0  0
    9.7118  -17.9526   17.4220 O   0  0  0  0  0  0  0  0  0  0  0  0
   10.5307  -16.5776   19.1690 C   0  0  0  0  0  0  0  0  0  0  0  0
   10.3681  -17.3824   20.4405 C   0  0  2  0  0  0  0  0  0  0  0  0
    9.0391  -18.0426   20.2362 N   0  0  0  0  0  0  0  0  0  0  0  0
   10.1397  -16.4392   21.5591 C   0  0  0  0  0  0  0  0  0  0  0  0
   11.1501  -15.7612   21.9696 O   0  0  0  0  0  0  0  0  0  0  0  0
    6.3127  -11.3145   27.7369 O   0  0  0  0  0  0  0  0  0  0  0  0
    6.6242  -12.1150   26.6455 C   0  0  0  0  0  0  0  0  0  0  0  0
    7.4287  -11.6951   25.6065 C   0  0  0  0  0  0  0  0  0  0  0  0
    7.6982  -12.5608   24.5385 C   0  0  0  0  0  0  0  0  0  0  0  0
    7.1654  -13.8322   24.5165 C   0  0  0  0  0  0  0  0  0  0  0  0
    7.4474  -14.7259   23.4030 C   0  0  0  0  0  0  0  0  0  0  0  0
    8.8537  -15.2948   23.3777 C   0  0  2  0  0  0  0  0  0  0  0  0
    8.9144  -16.2024   22.2221 N   0  0  0  0  0  0  0  0  0  0  0  0
    9.2083  -15.9524   24.6482 C   0  0  0  0  0  0  0  0  0  0  0  0
    9.3365  -15.2183   25.6601 O   0  0  0  0  0  0  0  0  0  0  0  0
    6.3683  -14.2293   25.5591 C   0  0  0  0  0  0  0  0  0  0  0  0
    6.0810  -13.3942   26.6346 C   0  0  0  0  0  0  0  0  0  0  0  0
    9.4175  -17.3311   24.8363 N   0  0  0  0  0  0  0  0  0  0  0  0
    9.7020  -17.9383   26.1310 C   0  0  1  0  0  0  0  0  0  0  0  0
    9.1208  -19.3112   26.2263 C   0  0  0  0  0  0  0  0  0  0  0  0
    7.6503  -19.2507   26.1734 C   0  0  0  0  0  0  0  0  0  0  0  0
    6.9960  -18.1805   26.1642 O   0  0  0  0  0  0  0  0  0  0  0  0
   11.1616  -17.9833   26.2841 C   0  0  0  0  0  0  0  0  0  0  0  0
   11.7018  -17.6811   27.3697 O   0  0  0  0  0  0  0  0  0  0  0  0
    6.9383  -20.4393   26.1309 O   0  0  0  0  0  0  0  0  0  0  0  0
   11.9611  -18.3621   25.2298 O   0  0  0  0  0  0  0  0  0  0  0  0
  1  2  1  0
  2  3  2  0
  4  2  1  0
  4  5  1  0
  5  6  1  6
  5  7  1  0
  7  8  2  0
  9 10  1  0
 10 20  2  0
 10 11  1  0
 11 12  2  0
 12 13  1  0
 13 14  1  0
 15 14  1  1
 16  7  1  0
 16 15  1  0
 17 21  1  0
 17 15  1  0
 18 17  2  0
 19 13  2  0
 20 19  1  0
 22 26  1  0
 22 23  1  6
 22 21  1  0
 23 24  1  0
 24 28  1  0
 24 25  2  0
 26 29  1  0
 27 26  2  0
M  END
$$$$
