NYD.pdb
     RDKit          3D

 29 29  0  0  1  0  0  0  0  0999 V2000
   10.5114  -17.0645   15.9640 N   0  0  0  0  0  0  0  0  0  0  0  0
    9.3373  -17.1103   16.7968 C   0  0  0  0  0  0  0  0  0  0  0  0
    8.3911  -17.8655   16.4911 O   0  0  0  0  0  0  0  0  0  0  0  0
    9.3057  -16.2612   17.9755 C   0  0  0  0  0  0  0  0  0  0  0  0
    9.6995  -16.9499   19.2645 C   0  0  2  0  0  0  0  0  0  0  0  0
    8.5501  -17.8821   19.4960 N   0  0  0  0  0  0  0  0  0  0  0  0
    9.5985  -15.9644   20.3652 C   0  0  0  0  0  0  0  0  0  0  0  0
   10.5489  -15.1076   20.4737 O   0  0  0  0  0  0  0  0  0  0  0  0
    6.8821  -11.8095   27.7688 O   0  0  0  0  0  0  0  0  0  0  0  0
    6.9948  -12.4547   26.5440 C   0  0  0  0  0  0  0  0  0  0  0  0
    7.3719  -11.8110   25.3836 C   0  0  0  0  0  0  0  0  0  0  0  0
    7.4635  -12.5300   24.1847 C   0  0  0  0  0  0  0  0  0  0  0  0
    7.1797  -13.8788   24.1540 C   0  0  0  0  0  0  0  0  0  0  0  0
    7.2747  -14.6195   22.9048 C   0  0  0  0  0  0  0  0  0  0  0  0
    8.6854  -14.9815   22.4796 C   0  0  2  0  0  0  0  0  0  0  0  0
    8.5537  -15.8653   21.3116 N   0  0  0  0  0  0  0  0  0  0  0  0
    9.4570  -15.5881   23.5792 C   0  0  0  0  0  0  0  0  0  0  0  0
    9.7951  -14.8366   24.5280 O   0  0  0  0  0  0  0  0  0  0  0  0
    6.8067  -14.4990   25.3186 C   0  0  0  0  0  0  0  0  0  0  0  0
    6.7059  -13.8140   26.5257 C   0  0  0  0  0  0  0  0  0  0  0  0
    9.8524  -16.9356   23.6677 N   0  0  0  0  0  0  0  0  0  0  0  0
   10.7328  -17.4551   24.7074 C   0  0  1  0  0  0  0  0  0  0  0  0
   10.5548  -18.9278   24.8838 C   0  0  0  0  0  0  0  0  0  0  0  0
   11.4352  -19.4265   25.9538 C   0  0  0  0  0  0  0  0  0  0  0  0
   11.9820  -18.6885   26.8080 O   0  0  0  0  0  0  0  0  0  0  0  0
   12.1122  -17.1451   24.3106 C   0  0  0  0  0  0  0  0  0  0  0  0
   12.7847  -16.2990   24.9377 O   0  0  0  0  0  0  0  0  0  0  0  0
   11.6804  -20.7887   26.0304 O   0  0  0  0  0  0  0  0  0  0  0  0
   12.6888  -17.7858   23.2377 O   0  0  0  0  0  0  0  0  0  0  0  0
  1  2  1  0
  2  3  2  0
  4  2  1  0
  4  5  1  0
  5  6  1  1
  5  7  1  0
  7  8  2  0
  9 10  1  0
 10 20  2  0
 10 11  1  0
 11 12  2  0
 12 13  1  0
 13 14  1  0
 15 14  1  1
 16  7  1  0
 16 15  1  0
 17 21  1  0
 17 15  1  0
 18 17  2  0
 19 13  2  0
 20 19  1  0
 22 26  1  0
 22 23  1  6
 22 21  1  0
 23 24  1  0
 24 28  1  0
 24 25  2  0
 26 29  1  0
 27 26  2  0
M  END
$$$$
