NYD.pdb
     RDKit          3D

 29 29  0  0  1  0  0  0  0  0999 V2000
    8.3662  -19.0178   17.3027 N   0  0  0  0  0  0  0  0  0  0  0  0
    8.6962  -19.5741   18.5895 C   0  0  0  0  0  0  0  0  0  0  0  0
    8.7002  -20.8129   18.7453 O   0  0  0  0  0  0  0  0  0  0  0  0
    9.0154  -18.6532   19.6672 C   0  0  0  0  0  0  0  0  0  0  0  0
    8.7102  -17.2004   19.3720 C   0  0  2  0  0  0  0  0  0  0  0  0
    9.8594  -16.8010   18.4982 N   0  0  0  0  0  0  0  0  0  0  0  0
    8.9099  -16.4235   20.6167 C   0  0  0  0  0  0  0  0  0  0  0  0
   10.1144  -16.3027   21.0453 O   0  0  0  0  0  0  0  0  0  0  0  0
    7.3333  -11.8297   28.0798 O   0  0  0  0  0  0  0  0  0  0  0  0
    7.2200  -12.4762   26.8559 C   0  0  0  0  0  0  0  0  0  0  0  0
    6.4427  -13.5997   26.6648 C   0  0  0  0  0  0  0  0  0  0  0  0
    6.3783  -14.1970   25.3992 C   0  0  0  0  0  0  0  0  0  0  0  0
    7.0866  -13.6706   24.3399 C   0  0  0  0  0  0  0  0  0  0  0  0
    7.0172  -14.2972   23.0281 C   0  0  0  0  0  0  0  0  0  0  0  0
    8.2466  -15.0930   22.6318 C   0  0  2  0  0  0  0  0  0  0  0  0
    7.9050  -15.7918   21.3837 N   0  0  0  0  0  0  0  0  0  0  0  0
    8.6854  -16.0052   23.7032 C   0  0  0  0  0  0  0  0  0  0  0  0
    7.9381  -16.9792   23.9717 O   0  0  0  0  0  0  0  0  0  0  0  0
    7.8531  -12.5536   24.5517 C   0  0  0  0  0  0  0  0  0  0  0  0
    7.9388  -11.9364   25.7959 C   0  0  0  0  0  0  0  0  0  0  0  0
    9.8676  -15.8882   24.4572 N   0  0  0  0  0  0  0  0  0  0  0  0
   10.2596  -16.8282   25.5005 C   0  0  1  0  0  0  0  0  0  0  0  0
   11.7245  -17.1166   25.4491 C   0  0  0  0  0  0  0  0  0  0  0  0
   12.0442  -17.9405   24.2711 C   0  0  0  0  0  0  0  0  0  0  0  0
   11.2956  -18.8441   23.8277 O   0  0  0  0  0  0  0  0  0  0  0  0
    9.8958  -16.2295   26.7909 C   0  0  0  0  0  0  0  0  0  0  0  0
    9.5501  -15.0311   26.8667 O   0  0  0  0  0  0  0  0  0  0  0  0
   13.2391  -17.7126   23.6064 O   0  0  0  0  0  0  0  0  0  0  0  0
    9.9286  -16.9829   27.9422 O   0  0  0  0  0  0  0  0  0  0  0  0
  1  2  1  0
  2  3  2  0
  4  2  1  0
  4  5  1  0
  5  6  1  6
  5  7  1  0
  7  8  2  0
  9 10  1  0
 10 20  2  0
 10 11  1  0
 11 12  2  0
 12 13  1  0
 13 14  1  0
 15 14  1  1
 16  7  1  0
 16 15  1  0
 17 21  1  0
 17 15  1  0
 18 17  2  0
 19 13  2  0
 20 19  1  0
 22 26  1  0
 22 23  1  1
 22 21  1  0
 23 24  1  0
 24 28  1  0
 24 25  2  0
 26 29  1  0
 27 26  2  0
M  END
$$$$
