NYD.pdb
     RDKit          3D

 29 29  0  0  1  0  0  0  0  0999 V2000
   12.3826  -17.3641   17.4485 N   0  0  0  0  0  0  0  0  0  0  0  0
   11.0812  -17.4209   18.0627 C   0  0  0  0  0  0  0  0  0  0  0  0
   10.2050  -18.1729   17.5875 O   0  0  0  0  0  0  0  0  0  0  0  0
   10.8418  -16.5864   19.2279 C   0  0  0  0  0  0  0  0  0  0  0  0
   10.6140  -17.3463   20.5169 C   0  0  2  0  0  0  0  0  0  0  0  0
    9.2919  -18.0065   20.2723 N   0  0  0  0  0  0  0  0  0  0  0  0
   10.3393  -16.3642   21.5907 C   0  0  0  0  0  0  0  0  0  0  0  0
   11.3292  -15.6610   22.0089 O   0  0  0  0  0  0  0  0  0  0  0  0
    6.2720  -11.4596   27.7983 O   0  0  0  0  0  0  0  0  0  0  0  0
    6.5581  -12.3069   26.7357 C   0  0  0  0  0  0  0  0  0  0  0  0
    6.1307  -13.6173   26.6789 C   0  0  0  0  0  0  0  0  0  0  0  0
    6.4593  -14.4114   25.5725 C   0  0  0  0  0  0  0  0  0  0  0  0
    7.2078  -13.8936   24.5369 C   0  0  0  0  0  0  0  0  0  0  0  0
    7.5477  -14.7244   23.3913 C   0  0  0  0  0  0  0  0  0  0  0  0
    8.9888  -15.1966   23.3467 C   0  0  2  0  0  0  0  0  0  0  0  0
    9.0901  -16.1152   22.2027 N   0  0  0  0  0  0  0  0  0  0  0  0
    9.4108  -15.8094   24.6190 C   0  0  0  0  0  0  0  0  0  0  0  0
    9.5091  -15.0528   25.6176 O   0  0  0  0  0  0  0  0  0  0  0  0
    7.6225  -12.5888   24.6135 C   0  0  0  0  0  0  0  0  0  0  0  0
    7.3134  -11.7736   25.6981 C   0  0  0  0  0  0  0  0  0  0  0  0
    9.7150  -17.1680   24.8224 N   0  0  0  0  0  0  0  0  0  0  0  0
   10.1214  -17.7238   26.1077 C   0  0  1  0  0  0  0  0  0  0  0  0
    9.3993  -18.9982   26.4011 C   0  0  0  0  0  0  0  0  0  0  0  0
    9.1780  -19.1407   27.8500 C   0  0  0  0  0  0  0  0  0  0  0  0
    9.9727  -18.7151   28.7223 O   0  0  0  0  0  0  0  0  0  0  0  0
   11.5707  -17.9527   26.0490 C   0  0  0  0  0  0  0  0  0  0  0  0
   12.1805  -18.4513   27.0190 O   0  0  0  0  0  0  0  0  0  0  0  0
    8.0283  -19.7807   28.2860 O   0  0  0  0  0  0  0  0  0  0  0  0
   12.2828  -17.6214   24.9189 O   0  0  0  0  0  0  0  0  0  0  0  0
  1  2  1  0
  2  3  2  0
  4  2  1  0
  4  5  1  0
  5  6  1  6
  5  7  1  0
  7  8  2  0
  9 10  1  0
 10 20  2  0
 10 11  1  0
 11 12  2  0
 12 13  1  0
 13 14  1  0
 15 14  1  1
 16  7  1  0
 16 15  1  0
 17 21  1  0
 17 15  1  0
 18 17  2  0
 19 13  2  0
 20 19  1  0
 22 26  1  0
 22 23  1  6
 22 21  1  0
 23 24  1  0
 24 28  1  0
 24 25  2  0
 26 29  1  0
 27 26  2  0
M  END
$$$$
