CWA.pdb
     RDKit          3D

 26 27  0  0  1  0  0  0  0  0999 V2000
   28.5153  -20.1184  -15.4216 N   0  0  0  0  0  0  0  0  0  0  0  0
   27.7459  -19.3564  -14.4759 C   0  0  1  0  0  0  0  0  0  0  0  0
   26.8487  -18.3722  -15.2024 C   0  0  0  0  0  0  0  0  0  0  0  0
   25.3914  -19.2619  -15.7836 S   0  0  0  0  0  0  0  0  0  0  0  0
   26.9460  -20.2371  -13.5787 C   0  0  0  0  0  0  0  0  0  0  0  0
   26.9067  -21.4627  -13.8532 O   0  0  0  0  0  0  0  0  0  0  0  0
   26.2498  -19.7369  -12.4570 N   0  0  0  0  0  0  0  0  0  0  0  0
   25.6486  -20.6290  -11.4310 C   0  0  1  0  0  0  0  0  0  0  0  0
   26.0752  -20.0458  -10.1386 C   0  0  0  0  0  0  0  0  0  0  0  0
   27.3183  -20.4916   -9.5329 C   0  0  0  0  0  0  0  0  0  0  0  0
   28.3447  -21.2615  -10.0503 C   0  0  0  0  0  0  0  0  0  0  0  0
   29.2668  -21.4130   -9.0901 N   0  0  0  0  0  0  0  0  0  0  0  0
   28.9032  -20.7853   -7.9723 C   0  0  0  0  0  0  0  0  0  0  0  0
   29.5007  -20.6201   -6.7185 C   0  0  0  0  0  0  0  0  0  0  0  0
   28.9074  -19.8830   -5.7149 C   0  0  0  0  0  0  0  0  0  0  0  0
   27.6945  -19.3028   -5.9737 C   0  0  0  0  0  0  0  0  0  0  0  0
   27.1099  -19.4673   -7.2059 C   0  0  0  0  0  0  0  0  0  0  0  0
   27.6981  -20.2079   -8.2256 C   0  0  0  0  0  0  0  0  0  0  0  0
   24.2111  -20.6461  -11.6546 C   0  0  0  0  0  0  0  0  0  0  0  0
   23.5960  -19.5864  -11.9301 O   0  0  0  0  0  0  0  0  0  0  0  0
   21.2420  -21.3936  -10.5494 C   0  0  0  0  0  0  0  0  0  0  0  0
   21.9883  -21.8604  -11.8102 C   0  0  2  0  0  0  0  0  0  0  0  0
   23.4038  -21.8292  -11.5920 N   0  0  0  0  0  0  0  0  0  0  0  0
   21.4988  -21.0185  -12.9005 C   0  0  0  0  0  0  0  0  0  0  0  0
   20.8999  -21.6724  -13.9921 O   0  0  0  0  0  0  0  0  0  0  0  0
   21.5968  -19.7803  -12.8850 O   0  0  0  0  0  0  0  0  0  0  0  0
  2  5  1  0
  2  1  1  6
  3  2  1  0
  4  3  1  0
  5  6  2  0
  7  8  1  0
  7  5  1  0
  8  9  1  1
 10  9  1  0
 11 10  2  0
 12 13  1  0
 12 11  1  0
 13 18  2  0
 14 13  1  0
 14 15  2  0
 15 16  1  0
 16 17  2  0
 18 10  1  0
 18 17  1  0
 19 20  2  0
 19  8  1  0
 22 21  1  1
 22 23  1  0
 23 19  1  0
 24 22  1  0
 24 25  1  0
 26 24  2  0
M  END
$$$$
