CWA.pdb
     RDKit          3D

 26 27  0  0  1  0  0  0  0  0999 V2000
   14.2992  -11.3989  -15.9210 N   0  0  0  0  0  0  0  0  0  0  0  0
   14.1838  -10.0052  -16.2546 C   0  0  1  0  0  0  0  0  0  0  0  0
   12.8014   -9.4934  -15.8961 C   0  0  0  0  0  0  0  0  0  0  0  0
   11.7084   -9.7944  -17.2989 S   0  0  0  0  0  0  0  0  0  0  0  0
   15.2379   -9.1896  -15.5883 C   0  0  0  0  0  0  0  0  0  0  0  0
   15.3647   -9.3100  -14.3440 O   0  0  0  0  0  0  0  0  0  0  0  0
   16.0747   -8.3078  -16.3063 N   0  0  0  0  0  0  0  0  0  0  0  0
   17.1504   -7.5198  -15.6493 C   0  0  1  0  0  0  0  0  0  0  0  0
   18.4037   -8.0397  -16.2420 C   0  0  0  0  0  0  0  0  0  0  0  0
   18.8266   -9.3954  -15.9355 C   0  0  0  0  0  0  0  0  0  0  0  0
   18.8139  -10.0923  -14.7404 C   0  0  0  0  0  0  0  0  0  0  0  0
   19.3257  -11.3090  -14.9706 N   0  0  0  0  0  0  0  0  0  0  0  0
   19.6729  -11.4494  -16.2494 C   0  0  0  0  0  0  0  0  0  0  0  0
   20.2191  -12.5009  -16.9928 C   0  0  0  0  0  0  0  0  0  0  0  0
   20.4670  -12.3913  -18.3452 C   0  0  0  0  0  0  0  0  0  0  0  0
   20.1622  -11.2072  -18.9615 C   0  0  0  0  0  0  0  0  0  0  0  0
   19.6265  -10.1762  -18.2286 C   0  0  0  0  0  0  0  0  0  0  0  0
   19.3719  -10.2745  -16.8648 C   0  0  0  0  0  0  0  0  0  0  0  0
   16.8831   -6.1135  -15.9089 C   0  0  0  0  0  0  0  0  0  0  0  0
   16.7963   -5.6879  -17.0873 O   0  0  0  0  0  0  0  0  0  0  0  0
   15.5768   -3.1038  -14.1107 C   0  0  0  0  0  0  0  0  0  0  0  0
   16.5586   -3.7239  -15.1188 C   0  0  2  0  0  0  0  0  0  0  0  0
   16.6934   -5.1305  -14.8828 N   0  0  0  0  0  0  0  0  0  0  0  0
   17.7905   -2.9445  -15.0096 C   0  0  0  0  0  0  0  0  0  0  0  0
   17.7406   -1.6079  -15.4444 O   0  0  0  0  0  0  0  0  0  0  0  0
   18.8449   -3.4202  -14.5571 O   0  0  0  0  0  0  0  0  0  0  0  0
  2  5  1  0
  2  1  1  1
  3  2  1  0
  4  3  1  0
  5  6  2  0
  7  8  1  0
  7  5  1  0
  8  9  1  6
 10  9  1  0
 11 10  2  0
 12 13  1  0
 12 11  1  0
 13 18  2  0
 14 13  1  0
 14 15  2  0
 15 16  1  0
 16 17  2  0
 18 10  1  0
 18 17  1  0
 19 20  2  0
 19  8  1  0
 22 21  1  1
 22 23  1  0
 23 19  1  0
 24 22  1  0
 24 25  1  0
 26 24  2  0
M  END
$$$$
