CWA.pdb
     RDKit          3D

 26 27  0  0  1  0  0  0  0  0999 V2000
   16.7342  -25.2581   -3.8212 N   0  0  0  0  0  0  0  0  0  0  0  0
   16.3577  -26.2472   -2.8481 C   0  0  1  0  0  0  0  0  0  0  0  0
   17.2439  -27.4719   -2.9760 C   0  0  0  0  0  0  0  0  0  0  0  0
   16.7423  -28.6636   -1.7185 S   0  0  0  0  0  0  0  0  0  0  0  0
   16.4059  -25.7032   -1.4617 C   0  0  0  0  0  0  0  0  0  0  0  0
   17.4774  -25.1645   -1.0868 O   0  0  0  0  0  0  0  0  0  0  0  0
   15.3027  -25.7784   -0.5839 N   0  0  0  0  0  0  0  0  0  0  0  0
   15.3362  -25.2047    0.7870 C   0  0  1  0  0  0  0  0  0  0  0  0
   14.2419  -24.2073    0.7970 C   0  0  0  0  0  0  0  0  0  0  0  0
   14.5241  -22.8378    0.4024 C   0  0  0  0  0  0  0  0  0  0  0  0
   14.5738  -22.2560   -0.8518 C   0  0  0  0  0  0  0  0  0  0  0  0
   14.8934  -20.9647   -0.6916 N   0  0  0  0  0  0  0  0  0  0  0  0
   15.0556  -20.6668    0.5970 C   0  0  0  0  0  0  0  0  0  0  0  0
   15.3651  -19.4891    1.2853 C   0  0  0  0  0  0  0  0  0  0  0  0
   15.4520  -19.4452    2.6612 C   0  0  0  0  0  0  0  0  0  0  0  0
   15.2252  -20.6021    3.3576 C   0  0  0  0  0  0  0  0  0  0  0  0
   14.9219  -21.7572    2.6788 C   0  0  0  0  0  0  0  0  0  0  0  0
   14.8313  -21.8142    1.2921 C   0  0  0  0  0  0  0  0  0  0  0  0
   15.1758  -26.3048    1.7255 C   0  0  0  0  0  0  0  0  0  0  0  0
   14.1960  -27.0848    1.6320 O   0  0  0  0  0  0  0  0  0  0  0  0
   16.9614  -27.4707    4.8931 C   0  0  0  0  0  0  0  0  0  0  0  0
   15.8689  -27.5668    3.8151 C   0  0  2  0  0  0  0  0  0  0  0  0
   16.0911  -26.5895    2.7915 N   0  0  0  0  0  0  0  0  0  0  0  0
   14.5952  -27.4594    4.5248 C   0  0  0  0  0  0  0  0  0  0  0  0
   14.0007  -28.6596    4.9537 O   0  0  0  0  0  0  0  0  0  0  0  0
   14.0449  -26.3688    4.7496 O   0  0  0  0  0  0  0  0  0  0  0  0
  2  5  1  0
  2  1  1  6
  3  2  1  0
  4  3  1  0
  5  6  2  0
  7  8  1  0
  7  5  1  0
  8  9  1  6
 10  9  1  0
 11 10  2  0
 12 13  1  0
 12 11  1  0
 13 18  2  0
 14 13  1  0
 14 15  2  0
 15 16  1  0
 16 17  2  0
 18 10  1  0
 18 17  1  0
 19 20  2  0
 19  8  1  0
 22 21  1  1
 22 23  1  0
 23 19  1  0
 24 22  1  0
 24 25  1  0
 26 24  2  0
M  END
$$$$
