CWA.pdb
     RDKit          3D

 26 27  0  0  1  0  0  0  0  0999 V2000
   27.5584  -24.2808  -16.5983 N   0  0  0  0  0  0  0  0  0  0  0  0
   26.6177  -23.2078  -16.7737 C   0  0  1  0  0  0  0  0  0  0  0  0
   25.8520  -23.3891  -18.0708 C   0  0  0  0  0  0  0  0  0  0  0  0
   26.9910  -23.1078  -19.4407 S   0  0  0  0  0  0  0  0  0  0  0  0
   25.6820  -23.1005  -15.6190 C   0  0  0  0  0  0  0  0  0  0  0  0
   25.4886  -24.1340  -14.9309 O   0  0  0  0  0  0  0  0  0  0  0  0
   25.0257  -21.8945  -15.2905 N   0  0  0  0  0  0  0  0  0  0  0  0
   24.1343  -21.7704  -14.1073 C   0  0  1  0  0  0  0  0  0  0  0  0
   24.5725  -20.5213  -13.4440 C   0  0  0  0  0  0  0  0  0  0  0  0
   25.6654  -20.5693  -12.4878 C   0  0  0  0  0  0  0  0  0  0  0  0
   27.0344  -20.5747  -12.6873 C   0  0  0  0  0  0  0  0  0  0  0  0
   27.6228  -20.6462  -11.4857 N   0  0  0  0  0  0  0  0  0  0  0  0
   26.7168  -20.6873  -10.5094 C   0  0  0  0  0  0  0  0  0  0  0  0
   26.8010  -20.7433   -9.1143 C   0  0  0  0  0  0  0  0  0  0  0  0
   25.6792  -20.7525   -8.3118 C   0  0  0  0  0  0  0  0  0  0  0  0
   24.4530  -20.7052   -8.9193 C   0  0  0  0  0  0  0  0  0  0  0  0
   24.3735  -20.6509  -10.2896 C   0  0  0  0  0  0  0  0  0  0  0  0
   25.4970  -20.6410  -11.1094 C   0  0  0  0  0  0  0  0  0  0  0  0
   22.7626  -21.7621  -14.5922 C   0  0  0  0  0  0  0  0  0  0  0  0
   22.4417  -21.0638  -15.5855 O   0  0  0  0  0  0  0  0  0  0  0  0
   19.6042  -23.7729  -14.0701 C   0  0  0  0  0  0  0  0  0  0  0  0
   20.3298  -22.4626  -14.4182 C   0  0  2  0  0  0  0  0  0  0  0  0
   21.7008  -22.5276  -14.0077 N   0  0  0  0  0  0  0  0  0  0  0  0
   19.5390  -21.3932  -13.8115 C   0  0  0  0  0  0  0  0  0  0  0  0
   18.2714  -21.1432  -14.3669 O   0  0  0  0  0  0  0  0  0  0  0  0
   19.9479  -20.7228  -12.8491 O   0  0  0  0  0  0  0  0  0  0  0  0
  2  5  1  0
  2  1  1  1
  3  2  1  0
  4  3  1  0
  5  6  2  0
  7  8  1  0
  7  5  1  0
  8  9  1  6
 10  9  1  0
 11 10  2  0
 12 13  1  0
 12 11  1  0
 13 18  2  0
 14 13  1  0
 14 15  2  0
 15 16  1  0
 16 17  2  0
 18 10  1  0
 18 17  1  0
 19 20  2  0
 19  8  1  0
 22 21  1  1
 22 23  1  0
 23 19  1  0
 24 22  1  0
 24 25  1  0
 26 24  2  0
M  END
$$$$
