CWA.pdb
     RDKit          3D

 26 27  0  0  1  0  0  0  0  0999 V2000
   21.3251  -18.5492  -15.4757 N   0  0  0  0  0  0  0  0  0  0  0  0
   21.1023  -17.1941  -15.9011 C   0  0  1  0  0  0  0  0  0  0  0  0
   19.6878  -16.7640  -15.5608 C   0  0  0  0  0  0  0  0  0  0  0  0
   18.5487  -17.7093  -16.5913 S   0  0  0  0  0  0  0  0  0  0  0  0
   22.0966  -16.2583  -15.3046 C   0  0  0  0  0  0  0  0  0  0  0  0
   22.3563  -16.3895  -14.0822 O   0  0  0  0  0  0  0  0  0  0  0  0
   22.7359  -15.2540  -16.0635 N   0  0  0  0  0  0  0  0  0  0  0  0
   23.7011  -14.2961  -15.4629 C   0  0  1  0  0  0  0  0  0  0  0  0
   24.9376  -14.4697  -16.2586 C   0  0  0  0  0  0  0  0  0  0  0  0
   26.0939  -13.6398  -15.9664 C   0  0  0  0  0  0  0  0  0  0  0  0
   26.8070  -13.4733  -14.7927 C   0  0  0  0  0  0  0  0  0  0  0  0
   27.7802  -12.5828  -15.0279 N   0  0  0  0  0  0  0  0  0  0  0  0
   27.7457  -12.1564  -16.2900 C   0  0  0  0  0  0  0  0  0  0  0  0
   28.5298  -11.2665  -17.0313 C   0  0  0  0  0  0  0  0  0  0  0  0
   28.2883  -11.0126  -18.3654 C   0  0  0  0  0  0  0  0  0  0  0  0
   27.2426  -11.6620  -18.9651 C   0  0  0  0  0  0  0  0  0  0  0  0
   26.4739  -12.5350  -18.2342 C   0  0  0  0  0  0  0  0  0  0  0  0
   26.7075  -12.7994  -16.8888 C   0  0  0  0  0  0  0  0  0  0  0  0
   23.1038  -12.9713  -15.5338 C   0  0  0  0  0  0  0  0  0  0  0  0
   22.4134  -12.6355  -16.5276 O   0  0  0  0  0  0  0  0  0  0  0  0
   22.7888   -9.9543  -13.2213 C   0  0  0  0  0  0  0  0  0  0  0  0
   22.6943  -10.6523  -14.5883 C   0  0  2  0  0  0  0  0  0  0  0  0
   23.2378  -11.9755  -14.5112 N   0  0  0  0  0  0  0  0  0  0  0  0
   23.3466   -9.7563  -15.5417 C   0  0  0  0  0  0  0  0  0  0  0  0
   22.7373   -8.5084  -15.7642 O   0  0  0  0  0  0  0  0  0  0  0  0
   24.3915  -10.0622  -16.1396 O   0  0  0  0  0  0  0  0  0  0  0  0
  2  5  1  0
  2  1  1  1
  3  2  1  0
  4  3  1  0
  5  6  2  0
  7  8  1  0
  7  5  1  0
  8  9  1  6
 10  9  1  0
 11 10  2  0
 12 13  1  0
 12 11  1  0
 13 18  2  0
 14 13  1  0
 14 15  2  0
 15 16  1  0
 16 17  2  0
 18 10  1  0
 18 17  1  0
 19 20  2  0
 19  8  1  0
 22 21  1  1
 22 23  1  0
 23 19  1  0
 24 22  1  0
 24 25  1  0
 26 24  2  0
M  END
$$$$
