CWA.pdb
     RDKit          3D

 26 27  0  0  1  0  0  0  0  0999 V2000
   29.1820  -22.2885  -15.6724 N   0  0  0  0  0  0  0  0  0  0  0  0
   28.1086  -21.3383  -15.5627 C   0  0  1  0  0  0  0  0  0  0  0  0
   27.3673  -21.2309  -16.8820 C   0  0  0  0  0  0  0  0  0  0  0  0
   26.0702  -19.9909  -16.6995 S   0  0  0  0  0  0  0  0  0  0  0  0
   27.1722  -21.6893  -14.4581 C   0  0  0  0  0  0  0  0  0  0  0  0
   26.8126  -22.8894  -14.3615 O   0  0  0  0  0  0  0  0  0  0  0  0
   26.6931  -20.7275  -13.5422 N   0  0  0  0  0  0  0  0  0  0  0  0
   25.7603  -21.0754  -12.4383 C   0  0  1  0  0  0  0  0  0  0  0  0
   26.2060  -20.2393  -11.3006 C   0  0  0  0  0  0  0  0  0  0  0  0
   27.3342  -20.6761  -10.4960 C   0  0  0  0  0  0  0  0  0  0  0  0
   28.5189  -21.2871  -10.8661 C   0  0  0  0  0  0  0  0  0  0  0  0
   29.2310  -21.5076   -9.7527 N   0  0  0  0  0  0  0  0  0  0  0  0
   28.5802  -21.0750   -8.6734 C   0  0  0  0  0  0  0  0  0  0  0  0
   28.8830  -21.0486   -7.3081 C   0  0  0  0  0  0  0  0  0  0  0  0
   28.0214  -20.5083   -6.3762 C   0  0  0  0  0  0  0  0  0  0  0  0
   26.8365  -19.9864   -6.8218 C   0  0  0  0  0  0  0  0  0  0  0  0
   26.5417  -20.0144   -8.1632 C   0  0  0  0  0  0  0  0  0  0  0  0
   27.4020  -20.5562   -9.1123 C   0  0  0  0  0  0  0  0  0  0  0  0
   24.4091  -20.8083  -12.9071 C   0  0  0  0  0  0  0  0  0  0  0  0
   24.1249  -19.7068  -13.4391 O   0  0  0  0  0  0  0  0  0  0  0  0
   21.1633  -22.7462  -13.3272 C   0  0  0  0  0  0  0  0  0  0  0  0
   21.9637  -21.4475  -13.1332 C   0  0  2  0  0  0  0  0  0  0  0  0
   23.3283  -21.7457  -12.8151 N   0  0  0  0  0  0  0  0  0  0  0  0
   21.2356  -20.6744  -12.1285 C   0  0  0  0  0  0  0  0  0  0  0  0
   19.9448  -20.2355  -12.4734 O   0  0  0  0  0  0  0  0  0  0  0  0
   21.7154  -20.4053  -11.0149 O   0  0  0  0  0  0  0  0  0  0  0  0
  2  5  1  0
  2  1  1  6
  3  2  1  0
  4  3  1  0
  5  6  2  0
  7  8  1  0
  7  5  1  0
  8  9  1  1
 10  9  1  0
 11 10  2  0
 12 13  1  0
 12 11  1  0
 13 18  2  0
 14 13  1  0
 14 15  2  0
 15 16  1  0
 16 17  2  0
 18 10  1  0
 18 17  1  0
 19 20  2  0
 19  8  1  0
 22 21  1  1
 22 23  1  0
 23 19  1  0
 24 22  1  0
 24 25  1  0
 26 24  2  0
M  END
$$$$
