CWA.pdb
     RDKit          3D

 26 27  0  0  1  0  0  0  0  0999 V2000
   27.2047  -18.0026  -14.2490 N   0  0  0  0  0  0  0  0  0  0  0  0
   27.4632  -19.3586  -14.6508 C   0  0  1  0  0  0  0  0  0  0  0  0
   28.9575  -19.6177  -14.6892 C   0  0  0  0  0  0  0  0  0  0  0  0
   29.6942  -18.4878  -15.8866 S   0  0  0  0  0  0  0  0  0  0  0  0
   26.7804  -20.3377  -13.7589 C   0  0  0  0  0  0  0  0  0  0  0  0
   26.9770  -21.5590  -13.9798 O   0  0  0  0  0  0  0  0  0  0  0  0
   25.9397  -19.9330  -12.6994 N   0  0  0  0  0  0  0  0  0  0  0  0
   25.2132  -20.9074  -11.8435 C   0  0  1  0  0  0  0  0  0  0  0  0
   25.5592  -20.5130  -10.4590 C   0  0  0  0  0  0  0  0  0  0  0  0
   26.9022  -20.7612   -9.9632 C   0  0  0  0  0  0  0  0  0  0  0  0
   27.9879  -21.3644  -10.5726 C   0  0  0  0  0  0  0  0  0  0  0  0
   28.9992  -21.3708   -9.6937 N   0  0  0  0  0  0  0  0  0  0  0  0
   28.6380  -20.8053   -8.5425 C   0  0  0  0  0  0  0  0  0  0  0  0
   29.3056  -20.5484   -7.3405 C   0  0  0  0  0  0  0  0  0  0  0  0
   28.6919  -19.9103   -6.2828 C   0  0  0  0  0  0  0  0  0  0  0  0
   27.3869  -19.5241   -6.4337 C   0  0  0  0  0  0  0  0  0  0  0  0
   26.7338  -19.7784   -7.6152 C   0  0  0  0  0  0  0  0  0  0  0  0
   27.3416  -20.4207   -8.6886 C   0  0  0  0  0  0  0  0  0  0  0  0
   23.8000  -20.8130  -12.1761 C   0  0  0  0  0  0  0  0  0  0  0  0
   23.1998  -19.7123  -12.1023 O   0  0  0  0  0  0  0  0  0  0  0  0
   21.1374  -23.1727  -13.5634 C   0  0  0  0  0  0  0  0  0  0  0  0
   21.6192  -21.8370  -12.9731 C   0  0  2  0  0  0  0  0  0  0  0  0
   23.0022  -21.9225  -12.6095 N   0  0  0  0  0  0  0  0  0  0  0  0
   20.6976  -21.5255  -11.8819 C   0  0  0  0  0  0  0  0  0  0  0  0
   19.4364  -21.0152  -12.2380 O   0  0  0  0  0  0  0  0  0  0  0  0
   20.9936  -21.6954  -10.6876 O   0  0  0  0  0  0  0  0  0  0  0  0
  2  5  1  0
  2  1  1  1
  3  2  1  0
  4  3  1  0
  5  6  2  0
  7  8  1  0
  7  5  1  0
  8  9  1  1
 10  9  1  0
 11 10  2  0
 12 13  1  0
 12 11  1  0
 13 18  2  0
 14 13  1  0
 14 15  2  0
 15 16  1  0
 16 17  2  0
 18 10  1  0
 18 17  1  0
 19 20  2  0
 19  8  1  0
 22 21  1  1
 22 23  1  0
 23 19  1  0
 24 22  1  0
 24 25  1  0
 26 24  2  0
M  END
$$$$
