KDI.pdb
     RDKit          3D

 26 25  0  0  1  0  0  0  0  0999 V2000
   10.1064  -13.7586   19.0353 N   0  0  0  0  0  0  0  0  0  0  0  0
    8.7746  -13.5377   19.5255 C   0  0  1  0  0  0  0  0  0  0  0  0
    7.6849  -13.5791   18.5320 C   0  0  0  0  0  0  0  0  0  0  0  0
    8.0216  -14.3778   17.3228 C   0  0  0  0  0  0  0  0  0  0  0  0
    7.3909  -13.8617   16.0666 C   0  0  0  0  0  0  0  0  0  0  0  0
    7.7599  -14.7637   14.9176 C   0  0  0  0  0  0  0  0  0  0  0  0
    7.1349  -14.2452   13.7198 N   0  0  0  0  0  0  0  0  0  0  0  0
    8.5541  -14.4966   20.6590 C   0  0  0  0  0  0  0  0  0  0  0  0
    7.4775  -14.5169   21.3076 O   0  0  0  0  0  0  0  0  0  0  0  0
    9.5676  -15.4368   21.0537 N   0  0  0  0  0  0  0  0  0  0  0  0
    9.3835  -16.2425   22.2245 C   0  0  1  0  0  0  0  0  0  0  0  0
   10.3562  -17.4006   22.1766 C   0  0  0  0  0  0  0  0  0  0  0  0
   10.2449  -18.2925   23.3588 C   0  0  0  0  0  0  0  0  0  0  0  0
    9.1191  -18.8176   23.5555 O   0  0  0  0  0  0  0  0  0  0  0  0
    9.6649  -15.4989   23.4794 C   0  0  0  0  0  0  0  0  0  0  0  0
   10.7152  -14.8426   23.6907 O   0  0  0  0  0  0  0  0  0  0  0  0
   11.2515  -18.5843   24.2367 O   0  0  0  0  0  0  0  0  0  0  0  0
    6.6242  -11.6110   26.5923 C   0  0  0  0  0  0  0  0  0  0  0  0
    7.7302  -12.5932   26.6518 C   0  0  0  0  0  0  0  0  0  0  0  0
    7.7390  -13.7288   25.7207 C   0  0  2  0  0  0  0  0  0  0  0  0
    6.3514  -14.3858   25.7307 C   0  0  0  0  0  0  0  0  0  0  0  0
    8.8148  -14.7416   25.7538 C   0  0  2  0  0  0  0  0  0  0  0  0
    8.6768  -15.5410   24.4949 N   0  0  0  0  0  0  0  0  0  0  0  0
    8.8872  -15.6696   26.8608 C   0  0  0  0  0  0  0  0  0  0  0  0
    9.4533  -15.3762   28.0707 O   0  0  0  0  0  0  0  0  0  0  0  0
    8.4102  -16.8440   26.7374 O   0  0  0  0  0  0  0  0  0  0  0  0
  2  1  1  6
  3  4  1  0
  3  2  1  0
  5  4  1  0
  5  6  1  0
  7  6  1  0
  8  2  1  0
  8  9  2  0
 10  8  1  0
 11 10  1  0
 11 12  1  6
 13 12  1  0
 14 13  2  0
 15 11  1  0
 16 15  2  0
 17 13  1  0
 19 18  1  0
 20 19  1  0
 20 22  1  0
 20 21  1  1
 22 24  1  0
 22 23  1  6
 23 15  1  0
 24 25  1  0
 26 24  2  0
M  END
$$$$
