KDI.pdb
     RDKit          3D

 26 25  0  0  1  0  0  0  0  0999 V2000
    9.9626  -15.4751   19.1438 N   0  0  0  0  0  0  0  0  0  0  0  0
    9.1543  -14.4472   19.7377 C   0  0  1  0  0  0  0  0  0  0  0  0
    8.0285  -13.9376   18.9319 C   0  0  0  0  0  0  0  0  0  0  0  0
    8.0375  -14.4339   17.5293 C   0  0  0  0  0  0  0  0  0  0  0  0
    7.5344  -13.4340   16.5347 C   0  0  0  0  0  0  0  0  0  0  0  0
    7.4550  -14.0802   15.1759 C   0  0  0  0  0  0  0  0  0  0  0  0
    6.9787  -13.0903   14.2340 N   0  0  0  0  0  0  0  0  0  0  0  0
    8.7159  -14.9488   21.0828 C   0  0  0  0  0  0  0  0  0  0  0  0
    7.9153  -14.2991   21.8018 O   0  0  0  0  0  0  0  0  0  0  0  0
    9.1942  -16.1983   21.6093 N   0  0  0  0  0  0  0  0  0  0  0  0
    8.7196  -16.6731   22.8755 C   0  0  1  0  0  0  0  0  0  0  0  0
    9.2126  -18.0888   23.0807 C   0  0  0  0  0  0  0  0  0  0  0  0
    8.5929  -19.0545   22.1379 C   0  0  0  0  0  0  0  0  0  0  0  0
    9.3610  -19.5722   21.2871 O   0  0  0  0  0  0  0  0  0  0  0  0
    9.2343  -15.8713   24.0154 C   0  0  0  0  0  0  0  0  0  0  0  0
   10.4296  -15.5043   24.1375 O   0  0  0  0  0  0  0  0  0  0  0  0
    7.2757  -19.4203   22.1204 O   0  0  0  0  0  0  0  0  0  0  0  0
    6.1051  -11.8689   25.3629 C   0  0  0  0  0  0  0  0  0  0  0  0
    7.2543  -12.7889   25.2072 C   0  0  0  0  0  0  0  0  0  0  0  0
    7.6676  -13.6272   26.3399 C   0  0  2  0  0  0  0  0  0  0  0  0
    7.9431  -12.7220   27.5490 C   0  0  0  0  0  0  0  0  0  0  0  0
    8.7143  -14.6598   26.1904 C   0  0  2  0  0  0  0  0  0  0  0  0
    8.3067  -15.5038   25.0223 N   0  0  0  0  0  0  0  0  0  0  0  0
    9.0051  -15.5461   27.2958 C   0  0  0  0  0  0  0  0  0  0  0  0
    8.4266  -16.7736   27.4663 O   0  0  0  0  0  0  0  0  0  0  0  0
    9.8421  -15.1942   28.1888 O   0  0  0  0  0  0  0  0  0  0  0  0
  2  1  1  6
  3  4  1  0
  3  2  1  0
  5  4  1  0
  5  6  1  0
  7  6  1  0
  8  2  1  0
  8  9  2  0
 10  8  1  0
 11 10  1  0
 11 12  1  1
 13 12  1  0
 14 13  2  0
 15 11  1  0
 16 15  2  0
 17 13  1  0
 19 18  1  0
 20 19  1  0
 20 22  1  0
 20 21  1  1
 22 24  1  0
 22 23  1  6
 23 15  1  0
 24 25  1  0
 26 24  2  0
M  END
$$$$
