KDI.pdb
     RDKit          3D

 26 25  0  0  1  0  0  0  0  0999 V2000
    9.9828  -13.3575   19.2940 N   0  0  0  0  0  0  0  0  0  0  0  0
    8.6018  -13.4265   19.6825 C   0  0  1  0  0  0  0  0  0  0  0  0
    7.6291  -13.7597   18.6246 C   0  0  0  0  0  0  0  0  0  0  0  0
    8.0187  -14.9499   17.8215 C   0  0  0  0  0  0  0  0  0  0  0  0
    7.0333  -15.3009   16.7501 C   0  0  0  0  0  0  0  0  0  0  0  0
    7.4690  -16.5730   16.0705 C   0  0  0  0  0  0  0  0  0  0  0  0
    6.5601  -16.8319   14.9747 N   0  0  0  0  0  0  0  0  0  0  0  0
    8.5166  -14.3599   20.8548 C   0  0  0  0  0  0  0  0  0  0  0  0
    7.4768  -14.4475   21.5557 O   0  0  0  0  0  0  0  0  0  0  0  0
    9.6239  -15.1973   21.2285 N   0  0  0  0  0  0  0  0  0  0  0  0
    9.5239  -16.0518   22.3747 C   0  0  1  0  0  0  0  0  0  0  0  0
   10.6271  -17.0853   22.3095 C   0  0  0  0  0  0  0  0  0  0  0  0
   10.5561  -17.9240   21.0860 C   0  0  0  0  0  0  0  0  0  0  0  0
    9.7252  -18.8680   21.1061 O   0  0  0  0  0  0  0  0  0  0  0  0
    9.7019  -15.3159   23.6528 C   0  0  0  0  0  0  0  0  0  0  0  0
   10.7158  -14.6308   23.9376 O   0  0  0  0  0  0  0  0  0  0  0  0
   11.3092  -17.7555   19.9574 O   0  0  0  0  0  0  0  0  0  0  0  0
    6.5510  -11.6025   26.8727 C   0  0  0  0  0  0  0  0  0  0  0  0
    7.5164  -12.7160   27.0113 C   0  0  0  0  0  0  0  0  0  0  0  0
    7.6457  -13.6993   25.9283 C   0  0  2  0  0  0  0  0  0  0  0  0
    6.2795  -14.3601   25.6961 C   0  0  0  0  0  0  0  0  0  0  0  0
    8.7352  -14.6980   25.9228 C   0  0  2  0  0  0  0  0  0  0  0  0
    8.6531  -15.4006   24.6027 N   0  0  0  0  0  0  0  0  0  0  0  0
    8.7832  -15.7069   26.9580 C   0  0  0  0  0  0  0  0  0  0  0  0
    8.4563  -17.0206   26.7634 O   0  0  0  0  0  0  0  0  0  0  0  0
    9.1420  -15.3895   28.1381 O   0  0  0  0  0  0  0  0  0  0  0  0
  2  1  1  6
  3  4  1  0
  3  2  1  0
  5  4  1  0
  5  6  1  0
  7  6  1  0
  8  2  1  0
  8  9  2  0
 10  8  1  0
 11 10  1  0
 11 12  1  6
 13 12  1  0
 14 13  2  0
 15 11  1  0
 16 15  2  0
 17 13  1  0
 19 18  1  0
 20 19  1  0
 20 22  1  0
 20 21  1  1
 22 24  1  0
 22 23  1  6
 23 15  1  0
 24 25  1  0
 26 24  2  0
M  END
$$$$
