KDI.pdb
     RDKit          3D

 26 25  0  0  1  0  0  0  0  0999 V2000
   10.1729  -15.8906   19.7394 N   0  0  0  0  0  0  0  0  0  0  0  0
    9.3982  -14.8525   20.3599 C   0  0  1  0  0  0  0  0  0  0  0  0
    8.2156  -14.3726   19.6198 C   0  0  0  0  0  0  0  0  0  0  0  0
    8.4949  -14.0876   18.1865 C   0  0  0  0  0  0  0  0  0  0  0  0
    7.2861  -13.6626   17.4116 C   0  0  0  0  0  0  0  0  0  0  0  0
    7.6743  -13.4236   15.9755 C   0  0  0  0  0  0  0  0  0  0  0  0
    6.4834  -13.0490   15.2438 N   0  0  0  0  0  0  0  0  0  0  0  0
    9.0571  -15.3206   21.7446 C   0  0  0  0  0  0  0  0  0  0  0  0
    8.2993  -14.6587   22.4981 O   0  0  0  0  0  0  0  0  0  0  0  0
    9.5838  -16.5502   22.2714 N   0  0  0  0  0  0  0  0  0  0  0  0
    9.2401  -16.9692   23.5981 C   0  0  1  0  0  0  0  0  0  0  0  0
    9.8323  -18.3396   23.8449 C   0  0  0  0  0  0  0  0  0  0  0  0
    9.7385  -19.2274   22.6581 C   0  0  0  0  0  0  0  0  0  0  0  0
    8.5788  -19.5605   22.3029 O   0  0  0  0  0  0  0  0  0  0  0  0
    9.7938  -16.0694   24.6425 C   0  0  0  0  0  0  0  0  0  0  0  0
   10.9285  -15.5333   24.5832 O   0  0  0  0  0  0  0  0  0  0  0  0
   10.7942  -19.7044   21.9321 O   0  0  0  0  0  0  0  0  0  0  0  0
    6.5146  -12.3859   26.1115 C   0  0  0  0  0  0  0  0  0  0  0  0
    7.7303  -13.2049   25.9052 C   0  0  0  0  0  0  0  0  0  0  0  0
    8.3333  -13.9037   27.0474 C   0  0  2  0  0  0  0  0  0  0  0  0
    8.6838  -12.8713   28.1283 C   0  0  0  0  0  0  0  0  0  0  0  0
    9.4265  -14.8807   26.8608 C   0  0  2  0  0  0  0  0  0  0  0  0
    8.9793  -15.8074   25.7727 N   0  0  0  0  0  0  0  0  0  0  0  0
    9.8594  -15.6890   27.9794 C   0  0  0  0  0  0  0  0  0  0  0  0
    9.4661  -16.9822   28.1878 O   0  0  0  0  0  0  0  0  0  0  0  0
   10.6515  -15.1992   28.8480 O   0  0  0  0  0  0  0  0  0  0  0  0
  2  1  1  6
  3  4  1  0
  3  2  1  0
  5  4  1  0
  5  6  1  0
  7  6  1  0
  8  2  1  0
  8  9  2  0
 10  8  1  0
 11 10  1  0
 11 12  1  1
 13 12  1  0
 14 13  2  0
 15 11  1  0
 16 15  2  0
 17 13  1  0
 19 18  1  0
 20 19  1  0
 20 22  1  0
 20 21  1  1
 22 24  1  0
 22 23  1  6
 23 15  1  0
 24 25  1  0
 26 24  2  0
M  END
$$$$
