KDI.pdb
     RDKit          3D

 26 25  0  0  1  0  0  0  0  0999 V2000
    9.5865  -15.0137   19.8815 N   0  0  0  0  0  0  0  0  0  0  0  0
    8.6393  -14.3986   20.7687 C   0  0  1  0  0  0  0  0  0  0  0  0
    7.2608  -14.2441   20.2664 C   0  0  0  0  0  0  0  0  0  0  0  0
    7.1336  -14.5075   18.8077 C   0  0  0  0  0  0  0  0  0  0  0  0
    7.8870  -13.5355   17.9534 C   0  0  0  0  0  0  0  0  0  0  0  0
    7.6433  -13.8560   16.5015 C   0  0  0  0  0  0  0  0  0  0  0  0
    8.4612  -12.9698   15.7017 N   0  0  0  0  0  0  0  0  0  0  0  0
    8.6957  -15.1486   22.0676 C   0  0  0  0  0  0  0  0  0  0  0  0
    7.8099  -15.0117   22.9490 O   0  0  0  0  0  0  0  0  0  0  0  0
    9.7687  -16.0593   22.3615 N   0  0  0  0  0  0  0  0  0  0  0  0
    9.8106  -16.7371   23.6235 C   0  0  1  0  0  0  0  0  0  0  0  0
   10.8421  -17.8416   23.5493 C   0  0  0  0  0  0  0  0  0  0  0  0
   10.5400  -18.8386   22.4909 C   0  0  0  0  0  0  0  0  0  0  0  0
   11.4423  -19.0336   21.6366 O   0  0  0  0  0  0  0  0  0  0  0  0
   10.2194  -15.8440   24.7381 C   0  0  0  0  0  0  0  0  0  0  0  0
   11.2887  -15.1847   24.7584 O   0  0  0  0  0  0  0  0  0  0  0  0
    9.3786  -19.5501   22.3719 O   0  0  0  0  0  0  0  0  0  0  0  0
    6.3594  -12.7163   26.0598 C   0  0  0  0  0  0  0  0  0  0  0  0
    7.6494  -13.4227   25.8922 C   0  0  0  0  0  0  0  0  0  0  0  0
    8.3362  -13.9628   27.0725 C   0  0  2  0  0  0  0  0  0  0  0  0
    8.4905  -12.8414   28.1097 C   0  0  0  0  0  0  0  0  0  0  0  0
    9.5788  -14.7528   26.9444 C   0  0  2  0  0  0  0  0  0  0  0  0
    9.3374  -15.7381   25.8427 N   0  0  0  0  0  0  0  0  0  0  0  0
   10.0812  -15.4825   28.0876 C   0  0  0  0  0  0  0  0  0  0  0  0
   10.9584  -14.9661   29.0010 O   0  0  0  0  0  0  0  0  0  0  0  0
    9.7111  -16.6848   28.2864 O   0  0  0  0  0  0  0  0  0  0  0  0
  2  1  1  6
  3  4  1  0
  3  2  1  0
  5  4  1  0
  5  6  1  0
  7  6  1  0
  8  2  1  0
  8  9  2  0
 10  8  1  0
 11 10  1  0
 11 12  1  6
 13 12  1  0
 14 13  2  0
 15 11  1  0
 16 15  2  0
 17 13  1  0
 19 18  1  0
 20 19  1  0
 20 22  1  0
 20 21  1  1
 22 24  1  0
 22 23  1  6
 23 15  1  0
 24 25  1  0
 26 24  2  0
M  END
$$$$
