KDI.pdb
     RDKit          3D

 26 25  0  0  1  0  0  0  0  0999 V2000
    6.6061  -16.3229   20.8367 N   0  0  0  0  0  0  0  0  0  0  0  0
    7.7432  -15.5029   21.1485 C   0  0  1  0  0  0  0  0  0  0  0  0
    7.5348  -14.0425   21.1314 C   0  0  0  0  0  0  0  0  0  0  0  0
    7.2127  -13.5104   19.7799 C   0  0  0  0  0  0  0  0  0  0  0  0
    8.3383  -13.6364   18.8004 C   0  0  0  0  0  0  0  0  0  0  0  0
    7.9252  -13.0257   17.4864 C   0  0  0  0  0  0  0  0  0  0  0  0
    9.0311  -13.1557   16.5623 N   0  0  0  0  0  0  0  0  0  0  0  0
    8.2949  -15.9882   22.4574 C   0  0  0  0  0  0  0  0  0  0  0  0
    7.5481  -16.2417   23.4362 O   0  0  0  0  0  0  0  0  0  0  0  0
    9.7061  -16.1850   22.6494 N   0  0  0  0  0  0  0  0  0  0  0  0
   10.1932  -16.7455   23.8751 C   0  0  1  0  0  0  0  0  0  0  0  0
   11.5460  -17.3735   23.6199 C   0  0  0  0  0  0  0  0  0  0  0  0
   11.4815  -18.5045   22.6597 C   0  0  0  0  0  0  0  0  0  0  0  0
   12.4564  -18.6233   21.8739 O   0  0  0  0  0  0  0  0  0  0  0  0
   10.3897  -15.7212   24.9331 C   0  0  0  0  0  0  0  0  0  0  0  0
   11.2126  -14.7750   24.8554 O   0  0  0  0  0  0  0  0  0  0  0  0
   10.4642  -19.4126   22.5625 O   0  0  0  0  0  0  0  0  0  0  0  0
    6.5768  -12.7944   26.3313 C   0  0  0  0  0  0  0  0  0  0  0  0
    7.8915  -13.4612   26.1959 C   0  0  0  0  0  0  0  0  0  0  0  0
    8.4791  -14.1424   27.3566 C   0  0  2  0  0  0  0  0  0  0  0  0
    8.4974  -13.1685   28.5434 C   0  0  0  0  0  0  0  0  0  0  0  0
    9.7529  -14.8843   27.2489 C   0  0  2  0  0  0  0  0  0  0  0  0
    9.5911  -15.8303   26.0991 N   0  0  0  0  0  0  0  0  0  0  0  0
   10.2340  -15.6440   28.3818 C   0  0  0  0  0  0  0  0  0  0  0  0
   10.0936  -16.9982   28.5114 O   0  0  0  0  0  0  0  0  0  0  0  0
   10.8250  -15.0494   29.3404 O   0  0  0  0  0  0  0  0  0  0  0  0
  2  1  1  1
  3  4  1  0
  3  2  1  0
  5  4  1  0
  5  6  1  0
  7  6  1  0
  8  2  1  0
  8  9  2  0
 10  8  1  0
 11 10  1  0
 11 12  1  6
 13 12  1  0
 14 13  2  0
 15 11  1  0
 16 15  2  0
 17 13  1  0
 19 18  1  0
 20 19  1  0
 20 22  1  0
 20 21  1  1
 22 24  1  0
 22 23  1  6
 23 15  1  0
 24 25  1  0
 26 24  2  0
M  END
$$$$
