KDI.pdb
     RDKit          3D

 26 25  0  0  1  0  0  0  0  0999 V2000
    5.8091  -17.1938   19.9477 N   0  0  0  0  0  0  0  0  0  0  0  0
    6.7736  -16.2686   20.4738 C   0  0  1  0  0  0  0  0  0  0  0  0
    6.4495  -14.8339   20.3607 C   0  0  0  0  0  0  0  0  0  0  0  0
    6.9790  -14.2075   19.1195 C   0  0  0  0  0  0  0  0  0  0  0  0
    8.1391  -13.2909   19.3565 C   0  0  0  0  0  0  0  0  0  0  0  0
    8.5506  -12.6612   18.0510 C   0  0  0  0  0  0  0  0  0  0  0  0
    9.5045  -11.6118   18.3386 N   0  0  0  0  0  0  0  0  0  0  0  0
    7.0601  -16.6823   21.8879 C   0  0  0  0  0  0  0  0  0  0  0  0
    6.1463  -16.7820   22.7454 O   0  0  0  0  0  0  0  0  0  0  0  0
    8.3963  -16.9834   22.3249 N   0  0  0  0  0  0  0  0  0  0  0  0
    8.6482  -17.3008   23.6996 C   0  0  1  0  0  0  0  0  0  0  0  0
    9.7132  -18.3737   23.7644 C   0  0  0  0  0  0  0  0  0  0  0  0
   10.1015  -18.7132   25.1570 C   0  0  0  0  0  0  0  0  0  0  0  0
   11.0640  -18.0635   25.6402 O   0  0  0  0  0  0  0  0  0  0  0  0
    9.1638  -16.1390   24.4686 C   0  0  0  0  0  0  0  0  0  0  0  0
   10.1237  -15.4176   24.0990 O   0  0  0  0  0  0  0  0  0  0  0  0
    9.5068  -19.6602   25.9437 O   0  0  0  0  0  0  0  0  0  0  0  0
    6.6105  -11.4646   26.8115 C   0  0  0  0  0  0  0  0  0  0  0  0
    7.7459  -12.3867   27.0388 C   0  0  0  0  0  0  0  0  0  0  0  0
    7.7021  -13.7405   26.4715 C   0  0  2  0  0  0  0  0  0  0  0  0
    6.4606  -14.4629   27.0139 C   0  0  0  0  0  0  0  0  0  0  0  0
    8.8890  -14.6209   26.4907 C   0  0  2  0  0  0  0  0  0  0  0  0
    8.5225  -15.8362   25.6960 N   0  0  0  0  0  0  0  0  0  0  0  0
    9.4260  -15.0668   27.7575 C   0  0  0  0  0  0  0  0  0  0  0  0
   10.1951  -14.2901   28.5796 O   0  0  0  0  0  0  0  0  0  0  0  0
    9.1946  -16.2514   28.1639 O   0  0  0  0  0  0  0  0  0  0  0  0
  2  1  1  1
  3  4  1  0
  3  2  1  0
  5  4  1  0
  5  6  1  0
  7  6  1  0
  8  2  1  0
  8  9  2  0
 10  8  1  0
 11 10  1  0
 11 12  1  6
 13 12  1  0
 14 13  2  0
 15 11  1  0
 16 15  2  0
 17 13  1  0
 19 18  1  0
 20 19  1  0
 20 22  1  0
 20 21  1  1
 22 24  1  0
 22 23  1  6
 23 15  1  0
 24 25  1  0
 26 24  2  0
M  END
$$$$
