KDI.pdb
     RDKit          3D

 26 25  0  0  1  0  0  0  0  0999 V2000
   10.1611  -14.4493   19.0959 N   0  0  0  0  0  0  0  0  0  0  0  0
    8.9915  -13.7747   19.5854 C   0  0  1  0  0  0  0  0  0  0  0  0
    7.9212  -13.5043   18.6068 C   0  0  0  0  0  0  0  0  0  0  0  0
    8.2179  -14.0357   17.2492 C   0  0  0  0  0  0  0  0  0  0  0  0
    7.2108  -13.6382   16.2148 C   0  0  0  0  0  0  0  0  0  0  0  0
    7.5906  -14.2479   14.8903 C   0  0  0  0  0  0  0  0  0  0  0  0
    6.5464  -13.9398   13.9372 N   0  0  0  0  0  0  0  0  0  0  0  0
    8.4993  -14.5461   20.7752 C   0  0  0  0  0  0  0  0  0  0  0  0
    7.4775  -14.1920   21.4159 O   0  0  0  0  0  0  0  0  0  0  0  0
    9.1771  -15.7276   21.2353 N   0  0  0  0  0  0  0  0  0  0  0  0
    8.7355  -16.3915   22.4262 C   0  0  1  0  0  0  0  0  0  0  0  0
    9.2736  -17.8057   22.4235 C   0  0  0  0  0  0  0  0  0  0  0  0
    8.9256  -18.5544   23.6579 C   0  0  0  0  0  0  0  0  0  0  0  0
    7.7088  -18.5677   23.9759 O   0  0  0  0  0  0  0  0  0  0  0  0
    9.2426  -15.7431   23.6629 C   0  0  0  0  0  0  0  0  0  0  0  0
   10.4332  -15.3793   23.8320 O   0  0  0  0  0  0  0  0  0  0  0  0
    9.8072  -19.2195   24.4638 O   0  0  0  0  0  0  0  0  0  0  0  0
    6.0023  -12.0272   25.5813 C   0  0  0  0  0  0  0  0  0  0  0  0
    7.1592  -12.8975   25.2727 C   0  0  0  0  0  0  0  0  0  0  0  0
    7.6192  -13.8697   26.2726 C   0  0  2  0  0  0  0  0  0  0  0  0
    7.8682  -13.1347   27.5974 C   0  0  0  0  0  0  0  0  0  0  0  0
    8.7074  -14.8240   25.9732 C   0  0  2  0  0  0  0  0  0  0  0  0
    8.3130  -15.5269   24.7110 N   0  0  0  0  0  0  0  0  0  0  0  0
    9.0606  -15.8320   26.9485 C   0  0  0  0  0  0  0  0  0  0  0  0
   10.0608  -15.6890   27.8702 O   0  0  0  0  0  0  0  0  0  0  0  0
    8.4274  -16.9366   26.9781 O   0  0  0  0  0  0  0  0  0  0  0  0
  2  1  1  6
  3  4  1  0
  3  2  1  0
  5  4  1  0
  5  6  1  0
  7  6  1  0
  8  2  1  0
  8  9  2  0
 10  8  1  0
 11 10  1  0
 11 12  1  6
 13 12  1  0
 14 13  2  0
 15 11  1  0
 16 15  2  0
 17 13  1  0
 19 18  1  0
 20 19  1  0
 20 22  1  0
 20 21  1  1
 22 24  1  0
 22 23  1  6
 23 15  1  0
 24 25  1  0
 26 24  2  0
M  END
$$$$
