KDI.pdb
     RDKit          3D

 26 25  0  0  1  0  0  0  0  0999 V2000
   10.1291  -14.8771   19.6050 N   0  0  0  0  0  0  0  0  0  0  0  0
    8.9926  -14.3028   20.2694 C   0  0  1  0  0  0  0  0  0  0  0  0
    7.7442  -14.2072   19.4890 C   0  0  0  0  0  0  0  0  0  0  0  0
    7.9214  -14.5499   18.0521 C   0  0  0  0  0  0  0  0  0  0  0  0
    7.3983  -13.5048   17.1160 C   0  0  0  0  0  0  0  0  0  0  0  0
    7.4780  -14.0185   15.7019 C   0  0  0  0  0  0  0  0  0  0  0  0
    6.8897  -13.0259   14.8287 N   0  0  0  0  0  0  0  0  0  0  0  0
    8.8076  -15.0497   21.5581 C   0  0  0  0  0  0  0  0  0  0  0  0
    7.8244  -14.8348   22.3113 O   0  0  0  0  0  0  0  0  0  0  0  0
    9.7497  -16.0466   21.9888 N   0  0  0  0  0  0  0  0  0  0  0  0
    9.5792  -16.6973   23.2543 C   0  0  1  0  0  0  0  0  0  0  0  0
   10.5105  -17.8880   23.3192 C   0  0  0  0  0  0  0  0  0  0  0  0
   10.3455  -18.6783   24.5656 C   0  0  0  0  0  0  0  0  0  0  0  0
    9.3004  -18.4578   25.2297 O   0  0  0  0  0  0  0  0  0  0  0  0
    9.9280  -15.8182   24.3999 C   0  0  0  0  0  0  0  0  0  0  0  0
   11.0337  -15.2366   24.5324 O   0  0  0  0  0  0  0  0  0  0  0  0
   11.2240  -19.6113   25.0420 O   0  0  0  0  0  0  0  0  0  0  0  0
    6.0462  -12.5080   25.7418 C   0  0  0  0  0  0  0  0  0  0  0  0
    7.3383  -13.2098   25.5707 C   0  0  0  0  0  0  0  0  0  0  0  0
    7.9308  -13.9211   26.7107 C   0  0  2  0  0  0  0  0  0  0  0  0
    8.0254  -12.9547   27.9001 C   0  0  0  0  0  0  0  0  0  0  0  0
    9.1683  -14.7154   26.5623 C   0  0  2  0  0  0  0  0  0  0  0  0
    8.9410  -15.6324   25.4003 N   0  0  0  0  0  0  0  0  0  0  0  0
    9.6397  -15.5156   27.6710 C   0  0  0  0  0  0  0  0  0  0  0  0
    9.3648  -16.8462   27.8270 O   0  0  0  0  0  0  0  0  0  0  0  0
   10.3529  -14.9821   28.5814 O   0  0  0  0  0  0  0  0  0  0  0  0
  2  1  1  6
  3  4  1  0
  3  2  1  0
  5  4  1  0
  5  6  1  0
  7  6  1  0
  8  2  1  0
  8  9  2  0
 10  8  1  0
 11 10  1  0
 11 12  1  6
 13 12  1  0
 14 13  2  0
 15 11  1  0
 16 15  2  0
 17 13  1  0
 19 18  1  0
 20 19  1  0
 20 22  1  0
 20 21  1  1
 22 24  1  0
 22 23  1  6
 23 15  1  0
 24 25  1  0
 26 24  2  0
M  END
$$$$
