KDI.pdb
     RDKit          3D

 26 25  0  0  1  0  0  0  0  0999 V2000
    6.4510  -16.3293   20.3778 N   0  0  0  0  0  0  0  0  0  0  0  0
    7.4862  -15.4914   20.9154 C   0  0  1  0  0  0  0  0  0  0  0  0
    7.1472  -14.0722   21.1330 C   0  0  0  0  0  0  0  0  0  0  0  0
    7.6883  -13.1705   20.0805 C   0  0  0  0  0  0  0  0  0  0  0  0
    7.6197  -13.7482   18.7007 C   0  0  0  0  0  0  0  0  0  0  0  0
    8.2942  -12.8096   17.7341 C   0  0  0  0  0  0  0  0  0  0  0  0
    8.3673  -13.4658   16.4465 N   0  0  0  0  0  0  0  0  0  0  0  0
    7.9940  -16.1572   22.1612 C   0  0  0  0  0  0  0  0  0  0  0  0
    7.2235  -16.7647   22.9469 O   0  0  0  0  0  0  0  0  0  0  0  0
    9.3882  -16.1292   22.5112 N   0  0  0  0  0  0  0  0  0  0  0  0
    9.8456  -16.7966   23.6941 C   0  0  1  0  0  0  0  0  0  0  0  0
   11.0716  -17.6136   23.3492 C   0  0  0  0  0  0  0  0  0  0  0  0
   11.5404  -18.4511   24.4824 C   0  0  0  0  0  0  0  0  0  0  0  0
   12.6228  -19.0674   24.3079 O   0  0  0  0  0  0  0  0  0  0  0  0
   10.2500  -15.8489   24.7642 C   0  0  0  0  0  0  0  0  0  0  0  0
   11.2814  -15.1327   24.7201 O   0  0  0  0  0  0  0  0  0  0  0  0
   10.9005  -18.6040   25.6808 O   0  0  0  0  0  0  0  0  0  0  0  0
    6.8921  -12.3513   26.0755 C   0  0  0  0  0  0  0  0  0  0  0  0
    8.0909  -13.2108   25.9513 C   0  0  0  0  0  0  0  0  0  0  0  0
    8.6246  -13.8831   27.1428 C   0  0  2  0  0  0  0  0  0  0  0  0
    8.8896  -12.8288   28.2271 C   0  0  0  0  0  0  0  0  0  0  0  0
    9.7395  -14.8485   27.0462 C   0  0  2  0  0  0  0  0  0  0  0  0
    9.4096  -15.7567   25.9020 N   0  0  0  0  0  0  0  0  0  0  0  0
   10.0679  -15.6756   28.1864 C   0  0  0  0  0  0  0  0  0  0  0  0
    9.5243  -16.9086   28.4203 O   0  0  0  0  0  0  0  0  0  0  0  0
   10.9067  -15.2618   29.0507 O   0  0  0  0  0  0  0  0  0  0  0  0
  2  1  1  1
  3  4  1  0
  3  2  1  0
  5  4  1  0
  5  6  1  0
  7  6  1  0
  8  2  1  0
  8  9  2  0
 10  8  1  0
 11 10  1  0
 11 12  1  6
 13 12  1  0
 14 13  2  0
 15 11  1  0
 16 15  2  0
 17 13  1  0
 19 18  1  0
 20 19  1  0
 20 22  1  0
 20 21  1  1
 22 24  1  0
 22 23  1  6
 23 15  1  0
 24 25  1  0
 26 24  2  0
M  END
$$$$
