KDI.pdb
     RDKit          3D

 26 25  0  0  1  0  0  0  0  0999 V2000
   10.0899  -13.5124   19.0954 N   0  0  0  0  0  0  0  0  0  0  0  0
    8.8001  -13.2202   19.6556 C   0  0  1  0  0  0  0  0  0  0  0  0
    7.6579  -13.2031   18.7220 C   0  0  0  0  0  0  0  0  0  0  0  0
    7.6981  -14.3054   17.7237 C   0  0  0  0  0  0  0  0  0  0  0  0
    8.0023  -13.8449   16.3317 C   0  0  0  0  0  0  0  0  0  0  0  0
    7.8483  -15.0025   15.3797 C   0  0  0  0  0  0  0  0  0  0  0  0
    6.4642  -15.0599   14.9612 N   0  0  0  0  0  0  0  0  0  0  0  0
    8.5895  -14.1656   20.8023 C   0  0  0  0  0  0  0  0  0  0  0  0
    7.4813  -14.2573   21.3883 O   0  0  0  0  0  0  0  0  0  0  0  0
    9.6495  -15.0101   21.2820 N   0  0  0  0  0  0  0  0  0  0  0  0
    9.3927  -15.9678   22.3167 C   0  0  1  0  0  0  0  0  0  0  0  0
   10.3143  -17.1523   22.1237 C   0  0  0  0  0  0  0  0  0  0  0  0
   10.1400  -18.1914   23.1703 C   0  0  0  0  0  0  0  0  0  0  0  0
    9.0689  -18.8493   23.1279 O   0  0  0  0  0  0  0  0  0  0  0  0
    9.6665  -15.4293   23.6739 C   0  0  0  0  0  0  0  0  0  0  0  0
   10.7954  -15.0401   24.0645 O   0  0  0  0  0  0  0  0  0  0  0  0
   11.0355  -18.4858   24.1605 O   0  0  0  0  0  0  0  0  0  0  0  0
    5.7417  -12.3181   25.5654 C   0  0  0  0  0  0  0  0  0  0  0  0
    7.0242  -13.0054   25.2933 C   0  0  0  0  0  0  0  0  0  0  0  0
    7.5151  -14.0188   26.2359 C   0  0  2  0  0  0  0  0  0  0  0  0
    7.5506  -13.4072   27.6437 C   0  0  0  0  0  0  0  0  0  0  0  0
    8.7386  -14.7996   25.9568 C   0  0  2  0  0  0  0  0  0  0  0  0
    8.5753  -15.3554   24.5757 N   0  0  0  0  0  0  0  0  0  0  0  0
    9.1031  -15.8917   26.8323 C   0  0  0  0  0  0  0  0  0  0  0  0
    8.6050  -17.1606   26.7225 O   0  0  0  0  0  0  0  0  0  0  0  0
    9.9322  -15.6970   27.7792 O   0  0  0  0  0  0  0  0  0  0  0  0
  2  1  1  6
  3  4  1  0
  3  2  1  0
  5  4  1  0
  5  6  1  0
  7  6  1  0
  8  2  1  0
  8  9  2  0
 10  8  1  0
 11 10  1  0
 11 12  1  6
 13 12  1  0
 14 13  2  0
 15 11  1  0
 16 15  2  0
 17 13  1  0
 19 18  1  0
 20 19  1  0
 20 22  1  0
 20 21  1  1
 22 24  1  0
 22 23  1  6
 23 15  1  0
 24 25  1  0
 26 24  2  0
M  END
$$$$
