CDD.pdb
     RDKit          3D

 23 22  0  0  1  0  0  0  0  0999 V2000
   13.4337  -12.1450  -13.9598 N   0  0  0  0  0  0  0  0  0  0  0  0
   14.0525  -10.8457  -13.8937 C   0  0  1  0  0  0  0  0  0  0  0  0
   13.4686  -10.0358  -12.7663 C   0  0  0  0  0  0  0  0  0  0  0  0
   11.6632  -10.3100  -12.7977 S   0  0  0  0  0  0  0  0  0  0  0  0
   15.5171  -10.9031  -13.8946 C   0  0  0  0  0  0  0  0  0  0  0  0
   16.0941  -12.0105  -13.7575 O   0  0  0  0  0  0  0  0  0  0  0  0
   16.3228   -9.7461  -14.0458 N   0  0  0  0  0  0  0  0  0  0  0  0
   17.6498   -9.8435  -14.5797 C   0  0  1  0  0  0  0  0  0  0  0  0
   17.6811  -10.6621  -15.8664 C   0  0  0  0  0  0  0  0  0  0  0  0
   19.0570  -10.8131  -16.3788 C   0  0  0  0  0  0  0  0  0  0  0  0
   19.4535  -10.0657  -17.2961 O   0  0  0  0  0  0  0  0  0  0  0  0
   18.2768   -8.5077  -14.7932 C   0  0  0  0  0  0  0  0  0  0  0  0
   17.7065   -7.6510  -15.4929 O   0  0  0  0  0  0  0  0  0  0  0  0
   19.8892  -11.7677  -15.8479 O   0  0  0  0  0  0  0  0  0  0  0  0
   19.5265   -8.1904  -14.2072 N   0  0  0  0  0  0  0  0  0  0  0  0
   20.0949   -6.8761  -14.1796 C   0  0  1  0  0  0  0  0  0  0  0  0
   21.2021   -6.8329  -13.1601 C   0  0  0  0  0  0  0  0  0  0  0  0
   21.8440   -5.5175  -13.0165 C   0  0  0  0  0  0  0  0  0  0  0  0
   21.1398   -4.5657  -12.5479 O   0  0  0  0  0  0  0  0  0  0  0  0
   20.6294   -6.5692  -15.5349 C   0  0  0  0  0  0  0  0  0  0  0  0
   20.7353   -5.2476  -15.9398 O   0  0  0  0  0  0  0  0  0  0  0  0
   23.1560   -5.2194  -13.3485 O   0  0  0  0  0  0  0  0  0  0  0  0
   20.9943   -7.4606  -16.3411 O   0  0  0  0  0  0  0  0  0  0  0  0
  2  1  1  1
  2  3  1  0
  3  4  1  0
  5  2  1  0
  6  5  2  0
  7  5  1  0
  8  7  1  0
  8 12  1  0
  8  9  1  6
 10 14  1  0
 10  9  1  0
 11 10  2  0
 12 15  1  0
 13 12  2  0
 15 16  1  0
 16 17  1  1
 16 20  1  0
 18 22  1  0
 18 17  1  0
 19 18  2  0
 20 21  1  0
 23 20  2  0
M  END
$$$$
