CDD.pdb
     RDKit          3D

 23 22  0  0  1  0  0  0  0  0999 V2000
   16.7272  -14.5390  -16.1633 N   0  0  0  0  0  0  0  0  0  0  0  0
   17.0319  -13.6816  -15.0464 C   0  0  1  0  0  0  0  0  0  0  0  0
   18.2475  -14.1796  -14.3101 C   0  0  0  0  0  0  0  0  0  0  0  0
   17.7203  -15.6363  -13.3428 S   0  0  0  0  0  0  0  0  0  0  0  0
   17.0892  -12.2621  -15.4071 C   0  0  0  0  0  0  0  0  0  0  0  0
   17.7765  -11.9009  -16.3946 O   0  0  0  0  0  0  0  0  0  0  0  0
   16.3926  -11.2643  -14.6793 N   0  0  0  0  0  0  0  0  0  0  0  0
   16.3861   -9.9024  -15.1273 C   0  0  1  0  0  0  0  0  0  0  0  0
   15.0271   -9.2443  -14.9113 C   0  0  0  0  0  0  0  0  0  0  0  0
   13.9653   -9.9328  -15.6709 C   0  0  0  0  0  0  0  0  0  0  0  0
   14.1258  -10.1466  -16.8899 O   0  0  0  0  0  0  0  0  0  0  0  0
   17.4671   -9.0911  -14.4979 C   0  0  0  0  0  0  0  0  0  0  0  0
   17.5942   -9.0668  -13.2601 O   0  0  0  0  0  0  0  0  0  0  0  0
   12.8140  -10.3326  -15.0382 O   0  0  0  0  0  0  0  0  0  0  0  0
   18.3647   -8.3368  -15.2923 N   0  0  0  0  0  0  0  0  0  0  0  0
   19.3679   -7.4604  -14.7661 C   0  0  1  0  0  0  0  0  0  0  0  0
   20.6536   -7.6624  -15.5233 C   0  0  0  0  0  0  0  0  0  0  0  0
   21.7275   -6.7269  -15.1564 C   0  0  0  0  0  0  0  0  0  0  0  0
   22.0824   -6.6865  -13.9342 O   0  0  0  0  0  0  0  0  0  0  0  0
   18.8922   -6.0581  -14.9222 C   0  0  0  0  0  0  0  0  0  0  0  0
   17.7905   -5.8000  -15.7232 O   0  0  0  0  0  0  0  0  0  0  0  0
   22.3919   -5.8792  -16.0284 O   0  0  0  0  0  0  0  0  0  0  0  0
   19.4471   -5.0837  -14.3563 O   0  0  0  0  0  0  0  0  0  0  0  0
  2  1  1  6
  2  3  1  0
  3  4  1  0
  5  2  1  0
  6  5  2  0
  7  5  1  0
  8  7  1  0
  8 12  1  0
  8  9  1  1
 10 14  1  0
 10  9  1  0
 11 10  2  0
 12 15  1  0
 13 12  2  0
 15 16  1  0
 16 17  1  6
 16 20  1  0
 18 22  1  0
 18 17  1  0
 19 18  2  0
 20 21  1  0
 23 20  2  0
M  END
$$$$
