CDD.pdb
     RDKit          3D

 23 22  0  0  1  0  0  0  0  0999 V2000
   15.1444  -14.4256  -13.8915 N   0  0  0  0  0  0  0  0  0  0  0  0
   14.5910  -13.1045  -13.7369 C   0  0  1  0  0  0  0  0  0  0  0  0
   13.2458  -13.1672  -13.0629 C   0  0  0  0  0  0  0  0  0  0  0  0
   12.0916  -13.9297  -14.2555 S   0  0  0  0  0  0  0  0  0  0  0  0
   15.5250  -12.1556  -13.1238 C   0  0  0  0  0  0  0  0  0  0  0  0
   16.2292  -12.5206  -12.1498 O   0  0  0  0  0  0  0  0  0  0  0  0
   15.6702  -10.8241  -13.5891 N   0  0  0  0  0  0  0  0  0  0  0  0
   16.6021   -9.9294  -12.9673 C   0  0  1  0  0  0  0  0  0  0  0  0
   17.6694   -9.4556  -13.9487 C   0  0  0  0  0  0  0  0  0  0  0  0
   18.6247   -8.5323  -13.3056 C   0  0  0  0  0  0  0  0  0  0  0  0
   18.8889   -8.6721  -12.0940 O   0  0  0  0  0  0  0  0  0  0  0  0
   15.9298   -8.7655  -12.3222 C   0  0  0  0  0  0  0  0  0  0  0  0
   15.1615   -8.0403  -12.9800 O   0  0  0  0  0  0  0  0  0  0  0  0
   19.2146   -7.5313  -14.0373 O   0  0  0  0  0  0  0  0  0  0  0  0
   16.1516   -8.4645  -10.9562 N   0  0  0  0  0  0  0  0  0  0  0  0
   15.5366   -7.3751  -10.2591 C   0  0  1  0  0  0  0  0  0  0  0  0
   15.7651   -7.5369   -8.7797 C   0  0  0  0  0  0  0  0  0  0  0  0
   15.1307   -6.5011   -7.9506 C   0  0  0  0  0  0  0  0  0  0  0  0
   14.4074   -5.6347   -8.5403 O   0  0  0  0  0  0  0  0  0  0  0  0
   16.1499   -6.1064  -10.7400 C   0  0  0  0  0  0  0  0  0  0  0  0
   17.4692   -6.1088  -11.1661 O   0  0  0  0  0  0  0  0  0  0  0  0
   15.2510   -6.3828   -6.5751 O   0  0  0  0  0  0  0  0  0  0  0  0
   15.5229   -5.0188  -10.7796 O   0  0  0  0  0  0  0  0  0  0  0  0
  2  1  1  1
  2  3  1  0
  3  4  1  0
  5  2  1  0
  6  5  2  0
  7  5  1  0
  8  7  1  0
  8 12  1  0
  8  9  1  6
 10 14  1  0
 10  9  1  0
 11 10  2  0
 12 15  1  0
 13 12  2  0
 15 16  1  0
 16 17  1  1
 16 20  1  0
 18 22  1  0
 18 17  1  0
 19 18  2  0
 20 21  1  0
 23 20  2  0
M  END
$$$$
