CDD.pdb
     RDKit          3D

 23 22  0  0  1  0  0  0  0  0999 V2000
   24.0027  -12.3509  -17.7108 N   0  0  0  0  0  0  0  0  0  0  0  0
   24.0508  -11.5002  -16.5491 C   0  0  1  0  0  0  0  0  0  0  0  0
   25.4149  -10.8796  -16.4009 C   0  0  0  0  0  0  0  0  0  0  0  0
   26.5087  -12.1663  -15.7055 S   0  0  0  0  0  0  0  0  0  0  0  0
   22.9455  -10.5392  -16.4912 C   0  0  0  0  0  0  0  0  0  0  0  0
   22.7560   -9.7539  -17.4531 O   0  0  0  0  0  0  0  0  0  0  0  0
   22.0680  -10.4564  -15.3805 N   0  0  0  0  0  0  0  0  0  0  0  0
   20.9880   -9.5135  -15.3702 C   0  0  1  0  0  0  0  0  0  0  0  0
   19.7678  -10.0621  -14.6375 C   0  0  0  0  0  0  0  0  0  0  0  0
   18.6343   -9.1182  -14.6913 C   0  0  0  0  0  0  0  0  0  0  0  0
   18.2522   -8.6838  -15.7971 O   0  0  0  0  0  0  0  0  0  0  0  0
   21.3897   -8.1941  -14.8041 C   0  0  0  0  0  0  0  0  0  0  0  0
   22.4744   -8.0712  -14.2064 O   0  0  0  0  0  0  0  0  0  0  0  0
   18.0092   -8.7252  -13.5336 O   0  0  0  0  0  0  0  0  0  0  0  0
   20.5491   -7.0617  -14.9348 N   0  0  0  0  0  0  0  0  0  0  0  0
   20.9164   -5.7339  -14.5435 C   0  0  1  0  0  0  0  0  0  0  0  0
   22.1264   -5.2996  -15.3273 C   0  0  0  0  0  0  0  0  0  0  0  0
   22.5072   -3.8934  -15.1263 C   0  0  0  0  0  0  0  0  0  0  0  0
   22.4782   -3.4387  -13.9373 O   0  0  0  0  0  0  0  0  0  0  0  0
   19.7678   -4.8291  -14.8244 C   0  0  0  0  0  0  0  0  0  0  0  0
   19.4734   -3.8088  -13.9331 O   0  0  0  0  0  0  0  0  0  0  0  0
   22.8970   -3.0127  -16.1228 O   0  0  0  0  0  0  0  0  0  0  0  0
   19.0421   -4.9456  -15.8429 O   0  0  0  0  0  0  0  0  0  0  0  0
  2  1  1  6
  2  3  1  0
  3  4  1  0
  5  2  1  0
  6  5  2  0
  7  5  1  0
  8  7  1  0
  8 12  1  0
  8  9  1  1
 10 14  1  0
 10  9  1  0
 11 10  2  0
 12 15  1  0
 13 12  2  0
 15 16  1  0
 16 17  1  6
 16 20  1  0
 18 22  1  0
 18 17  1  0
 19 18  2  0
 20 21  1  0
 23 20  2  0
M  END
$$$$
