CDD.pdb
     RDKit          3D

 23 22  0  0  1  0  0  0  0  0999 V2000
   18.1086  -14.2753  -15.2155 N   0  0  0  0  0  0  0  0  0  0  0  0
   17.8564  -12.9687  -15.7674 C   0  0  1  0  0  0  0  0  0  0  0  0
   16.6713  -12.3274  -15.0949 C   0  0  0  0  0  0  0  0  0  0  0  0
   15.2518  -13.4498  -15.3416 S   0  0  0  0  0  0  0  0  0  0  0  0
   19.0512  -12.1208  -15.8129 C   0  0  0  0  0  0  0  0  0  0  0  0
   19.8171  -12.0753  -14.8183 O   0  0  0  0  0  0  0  0  0  0  0  0
   19.3849  -11.3384  -16.9473 N   0  0  0  0  0  0  0  0  0  0  0  0
   20.5844  -10.5532  -16.9672 C   0  0  1  0  0  0  0  0  0  0  0  0
   21.2257  -10.5386  -18.3511 C   0  0  0  0  0  0  0  0  0  0  0  0
   22.4798   -9.7605  -18.3586 C   0  0  0  0  0  0  0  0  0  0  0  0
   22.5497   -8.7196  -19.0435 O   0  0  0  0  0  0  0  0  0  0  0  0
   20.3624   -9.1625  -16.4779 C   0  0  0  0  0  0  0  0  0  0  0  0
   19.3362   -8.5384  -16.8039 O   0  0  0  0  0  0  0  0  0  0  0  0
   23.5564  -10.1813  -17.6173 O   0  0  0  0  0  0  0  0  0  0  0  0
   21.3101   -8.5286  -15.6377 N   0  0  0  0  0  0  0  0  0  0  0  0
   21.1612   -7.2074  -15.1054 C   0  0  1  0  0  0  0  0  0  0  0  0
   22.1829   -6.9883  -14.0212 C   0  0  0  0  0  0  0  0  0  0  0  0
   22.0822   -5.6855  -13.3466 C   0  0  0  0  0  0  0  0  0  0  0  0
   20.9320   -5.3180  -12.9423 O   0  0  0  0  0  0  0  0  0  0  0  0
   21.3655   -6.2319  -16.2114 C   0  0  0  0  0  0  0  0  0  0  0  0
   20.4743   -5.1808  -16.3631 O   0  0  0  0  0  0  0  0  0  0  0  0
   23.1349   -4.8157  -13.1104 O   0  0  0  0  0  0  0  0  0  0  0  0
   22.3185   -6.3147  -17.0254 O   0  0  0  0  0  0  0  0  0  0  0  0
  2  1  1  1
  2  3  1  0
  3  4  1  0
  5  2  1  0
  6  5  2  0
  7  5  1  0
  8  7  1  0
  8 12  1  0
  8  9  1  6
 10 14  1  0
 10  9  1  0
 11 10  2  0
 12 15  1  0
 13 12  2  0
 15 16  1  0
 16 17  1  1
 16 20  1  0
 18 22  1  0
 18 17  1  0
 19 18  2  0
 20 21  1  0
 23 20  2  0
M  END
$$$$
