CDD.pdb
     RDKit          3D

 23 22  0  0  1  0  0  0  0  0999 V2000
   26.8023  -11.6036  -17.9642 N   0  0  0  0  0  0  0  0  0  0  0  0
   26.2622  -10.9647  -16.7914 C   0  0  1  0  0  0  0  0  0  0  0  0
   27.3529  -10.2839  -16.0072 C   0  0  0  0  0  0  0  0  0  0  0  0
   28.3632  -11.6040  -15.2505 S   0  0  0  0  0  0  0  0  0  0  0  0
   25.1079  -10.1087  -17.0801 C   0  0  0  0  0  0  0  0  0  0  0  0
   25.2149   -9.1896  -17.9296 O   0  0  0  0  0  0  0  0  0  0  0  0
   23.8574  -10.2755  -16.4328 N   0  0  0  0  0  0  0  0  0  0  0  0
   22.7495   -9.4231  -16.7511 C   0  0  1  0  0  0  0  0  0  0  0  0
   21.4217  -10.1692  -16.6670 C   0  0  0  0  0  0  0  0  0  0  0  0
   21.4441  -11.4065  -17.4715 C   0  0  0  0  0  0  0  0  0  0  0  0
   21.7227  -11.3412  -18.6862 O   0  0  0  0  0  0  0  0  0  0  0  0
   22.7149   -8.1953  -15.9059 C   0  0  0  0  0  0  0  0  0  0  0  0
   22.9144   -8.2712  -14.6798 O   0  0  0  0  0  0  0  0  0  0  0  0
   21.1609  -12.6153  -16.8847 O   0  0  0  0  0  0  0  0  0  0  0  0
   22.4556   -6.9264  -16.4791 N   0  0  0  0  0  0  0  0  0  0  0  0
   22.4141   -5.7000  -15.7407 C   0  0  1  0  0  0  0  0  0  0  0  0
   22.4607   -4.5392  -16.6986 C   0  0  0  0  0  0  0  0  0  0  0  0
   22.3324   -3.2203  -16.0607 C   0  0  0  0  0  0  0  0  0  0  0  0
   23.2736   -2.8438  -15.2900 O   0  0  0  0  0  0  0  0  0  0  0  0
   21.1498   -5.6699  -14.9549 C   0  0  0  0  0  0  0  0  0  0  0  0
   21.1118   -4.9745  -13.7561 O   0  0  0  0  0  0  0  0  0  0  0  0
   21.2708   -2.3448  -16.2243 O   0  0  0  0  0  0  0  0  0  0  0  0
   20.1011   -6.2511  -15.3292 O   0  0  0  0  0  0  0  0  0  0  0  0
  2  1  1  6
  2  3  1  0
  3  4  1  0
  5  2  1  0
  6  5  2  0
  7  5  1  0
  8  7  1  0
  8 12  1  0
  8  9  1  1
 10 14  1  0
 10  9  1  0
 11 10  2  0
 12 15  1  0
 13 12  2  0
 15 16  1  0
 16 17  1  6
 16 20  1  0
 18 22  1  0
 18 17  1  0
 19 18  2  0
 20 21  1  0
 23 20  2  0
M  END
$$$$
