CDD.pdb
     RDKit          3D

 23 22  0  0  1  0  0  0  0  0999 V2000
   20.1165  -14.8328  -17.0868 N   0  0  0  0  0  0  0  0  0  0  0  0
   19.4527  -13.5917  -17.3942 C   0  0  1  0  0  0  0  0  0  0  0  0
   18.3258  -13.3381  -16.4279 C   0  0  0  0  0  0  0  0  0  0  0  0
   17.0933  -14.6592  -16.6942 S   0  0  0  0  0  0  0  0  0  0  0  0
   20.3776  -12.4646  -17.5457 C   0  0  0  0  0  0  0  0  0  0  0  0
   21.1567  -12.1714  -16.6050 O   0  0  0  0  0  0  0  0  0  0  0  0
   20.4317  -11.6793  -18.7251 N   0  0  0  0  0  0  0  0  0  0  0  0
   21.3437  -10.5780  -18.8295 C   0  0  1  0  0  0  0  0  0  0  0  0
   21.6778  -10.2586  -20.2831 C   0  0  0  0  0  0  0  0  0  0  0  0
   22.4728  -11.3354  -20.9052 C   0  0  0  0  0  0  0  0  0  0  0  0
   22.0548  -11.8803  -21.9472 O   0  0  0  0  0  0  0  0  0  0  0  0
   20.8484   -9.3603  -18.1260 C   0  0  0  0  0  0  0  0  0  0  0  0
   19.7279   -8.8911  -18.3963 O   0  0  0  0  0  0  0  0  0  0  0  0
   23.6601  -11.7303  -20.3396 O   0  0  0  0  0  0  0  0  0  0  0  0
   21.6395   -8.7181  -17.1424 N   0  0  0  0  0  0  0  0  0  0  0  0
   21.2379   -7.5478  -16.4210 C   0  0  1  0  0  0  0  0  0  0  0  0
   21.9076   -7.5389  -15.0724 C   0  0  0  0  0  0  0  0  0  0  0  0
   20.9909   -7.7302  -13.9383 C   0  0  0  0  0  0  0  0  0  0  0  0
   19.7410   -7.6657  -14.1728 O   0  0  0  0  0  0  0  0  0  0  0  0
   21.6457   -6.3510  -17.2072 C   0  0  0  0  0  0  0  0  0  0  0  0
   20.9189   -5.1769  -17.0828 O   0  0  0  0  0  0  0  0  0  0  0  0
   21.3690   -7.9757  -12.6278 O   0  0  0  0  0  0  0  0  0  0  0  0
   22.6292   -6.3518  -17.9885 O   0  0  0  0  0  0  0  0  0  0  0  0
  2  1  1  1
  2  3  1  0
  3  4  1  0
  5  2  1  0
  6  5  2  0
  7  5  1  0
  8  7  1  0
  8 12  1  0
  8  9  1  6
 10 14  1  0
 10  9  1  0
 11 10  2  0
 12 15  1  0
 13 12  2  0
 15 16  1  0
 16 17  1  1
 16 20  1  0
 18 22  1  0
 18 17  1  0
 19 18  2  0
 20 21  1  0
 23 20  2  0
M  END
$$$$
