GVS.pdb
     RDKit          3D

 18 17  0  0  1  0  0  0  0  0999 V2000
    4.7410  -18.9499   23.9073 N   0  0  0  0  0  0  0  0  0  0  0  0
    5.1872  -18.2683   25.0849 C   0  0  0  0  0  0  0  0  0  0  0  0
    6.0124  -17.0797   24.6684 C   0  0  0  0  0  0  0  0  0  0  0  0
    6.3502  -16.9048   23.4623 O   0  0  0  0  0  0  0  0  0  0  0  0
    5.9415  -13.2391   26.2651 C   0  0  0  0  0  0  0  0  0  0  0  0
    7.2795  -13.8637   26.1707 C   0  0  2  0  0  0  0  0  0  0  0  0
    8.2948  -12.8360   25.7265 C   0  0  0  0  0  0  0  0  0  0  0  0
    7.3679  -15.0565   25.2634 C   0  0  2  0  0  0  0  0  0  0  0  0
    6.4457  -16.1065   25.6105 N   0  0  0  0  0  0  0  0  0  0  0  0
    8.7745  -15.5751   25.1697 C   0  0  0  0  0  0  0  0  0  0  0  0
    9.2880  -16.2515   26.0978 O   0  0  0  0  0  0  0  0  0  0  0  0
   10.2666  -16.4419   21.4931 O   0  0  0  0  0  0  0  0  0  0  0  0
   11.2319  -15.8917   22.2992 C   0  0  0  0  0  0  0  0  0  0  0  0
   10.8125  -15.9847   23.7534 C   0  0  2  0  0  0  0  0  0  0  0  0
    9.5760  -15.3110   24.0105 N   0  0  0  0  0  0  0  0  0  0  0  0
   11.8745  -15.4083   24.6050 C   0  0  0  0  0  0  0  0  0  0  0  0
   11.6043  -14.4074   25.3092 O   0  0  0  0  0  0  0  0  0  0  0  0
   13.1657  -15.9374   24.6532 O   0  0  0  0  0  0  0  0  0  0  0  0
  1  2  1  0
  3  4  2  0
  3  2  1  0
  6  5  1  6
  6  8  1  0
  7  6  1  0
  8  9  1  1
  9  3  1  0
 10 15  1  0
 10  8  1  0
 11 10  2  0
 14 13  1  6
 13 12  1  0
 14 15  1  0
 14 16  1  0
 16 18  1  0
 17 16  2  0
M  END
$$$$
