GVS.pdb
     RDKit          3D

 18 17  0  0  1  0  0  0  0  0999 V2000
    6.5515  -14.6365   20.4960 N   0  0  0  0  0  0  0  0  0  0  0  0
    5.9363  -14.7924   21.7796 C   0  0  0  0  0  0  0  0  0  0  0  0
    6.9453  -14.4434   22.8414 C   0  0  0  0  0  0  0  0  0  0  0  0
    8.1777  -14.3532   22.5721 O   0  0  0  0  0  0  0  0  0  0  0  0
    6.2257  -11.8759   25.9502 C   0  0  0  0  0  0  0  0  0  0  0  0
    6.9421  -13.1060   26.3536 C   0  0  2  0  0  0  0  0  0  0  0  0
    8.0537  -12.7591   27.3171 C   0  0  0  0  0  0  0  0  0  0  0  0
    7.5132  -13.9150   25.2253 C   0  0  2  0  0  0  0  0  0  0  0  0
    6.5567  -14.2011   24.1877 N   0  0  0  0  0  0  0  0  0  0  0  0
    8.1690  -15.1710   25.7238 C   0  0  0  0  0  0  0  0  0  0  0  0
    7.4965  -16.1076   26.2267 O   0  0  0  0  0  0  0  0  0  0  0  0
   11.5755  -16.2713   23.9847 O   0  0  0  0  0  0  0  0  0  0  0  0
   11.6246  -16.6623   25.2996 C   0  0  0  0  0  0  0  0  0  0  0  0
   10.2436  -16.5796   25.9205 C   0  0  2  0  0  0  0  0  0  0  0  0
    9.5907  -15.3373   25.6391 N   0  0  0  0  0  0  0  0  0  0  0  0
   10.3555  -16.7576   27.3837 C   0  0  0  0  0  0  0  0  0  0  0  0
   10.1894  -15.7613   28.1256 O   0  0  0  0  0  0  0  0  0  0  0  0
   10.6391  -17.9934   27.9685 O   0  0  0  0  0  0  0  0  0  0  0  0
  1  2  1  0
  3  4  2  0
  3  2  1  0
  6  5  1  6
  6  8  1  0
  7  6  1  0
  8  9  1  6
  9  3  1  0
 10 15  1  0
 10  8  1  0
 11 10  2  0
 14 13  1  6
 13 12  1  0
 14 15  1  0
 14 16  1  0
 16 18  1  0
 17 16  2  0
M  END
$$$$
