GVS.pdb
     RDKit          3D

 18 17  0  0  1  0  0  0  0  0999 V2000
    8.5892  -17.9273   16.7301 N   0  0  0  0  0  0  0  0  0  0  0  0
    7.6385  -17.4668   17.6968 C   0  0  0  0  0  0  0  0  0  0  0  0
    8.3052  -16.4421   18.5760 C   0  0  0  0  0  0  0  0  0  0  0  0
    9.5573  -16.2667   18.5469 O   0  0  0  0  0  0  0  0  0  0  0  0
    7.2871  -12.6633   19.5862 C   0  0  0  0  0  0  0  0  0  0  0  0
    7.4703  -13.5409   20.7632 C   0  0  2  0  0  0  0  0  0  0  0  0
    8.2058  -12.7926   21.8510 C   0  0  0  0  0  0  0  0  0  0  0  0
    8.1856  -14.8332   20.4947 C   0  0  2  0  0  0  0  0  0  0  0  0
    7.5578  -15.6308   19.4734 N   0  0  0  0  0  0  0  0  0  0  0  0
    8.3888  -15.6235   21.7558 C   0  0  0  0  0  0  0  0  0  0  0  0
    7.4307  -16.2034   22.3286 O   0  0  0  0  0  0  0  0  0  0  0  0
   10.7020  -18.3818   22.0231 O   0  0  0  0  0  0  0  0  0  0  0  0
    9.8371  -18.0830   23.0464 C   0  0  0  0  0  0  0  0  0  0  0  0
    9.9726  -16.6234   23.4347 C   0  0  2  0  0  0  0  0  0  0  0  0
    9.6908  -15.7390   22.3451 N   0  0  0  0  0  0  0  0  0  0  0  0
   11.3435  -16.3757   23.9291 C   0  0  0  0  0  0  0  0  0  0  0  0
   12.0809  -15.5894   23.2899 O   0  0  0  0  0  0  0  0  0  0  0  0
   11.8460  -16.9849   25.0806 O   0  0  0  0  0  0  0  0  0  0  0  0
  1  2  1  0
  3  4  2  0
  3  2  1  0
  6  5  1  6
  6  8  1  0
  7  6  1  0
  8  9  1  6
  9  3  1  0
 10 15  1  0
 10  8  1  0
 11 10  2  0
 14 13  1  6
 13 12  1  0
 14 15  1  0
 14 16  1  0
 16 18  1  0
 17 16  2  0
M  END
$$$$
