GVS.pdb
     RDKit          3D

 18 17  0  0  1  0  0  0  0  0999 V2000
    5.8197  -18.7930   18.1539 N   0  0  0  0  0  0  0  0  0  0  0  0
    5.5196  -17.8685   19.2054 C   0  0  0  0  0  0  0  0  0  0  0  0
    6.7607  -17.0742   19.5155 C   0  0  0  0  0  0  0  0  0  0  0  0
    7.8825  -17.3904   19.0246 O   0  0  0  0  0  0  0  0  0  0  0  0
    6.9303  -13.0432   19.8662 C   0  0  0  0  0  0  0  0  0  0  0  0
    7.6532  -13.7394   20.9533 C   0  0  2  0  0  0  0  0  0  0  0  0
    8.9711  -13.0481   21.2172 C   0  0  0  0  0  0  0  0  0  0  0  0
    7.9099  -15.2001   20.7202 C   0  0  2  0  0  0  0  0  0  0  0  0
    6.7243  -15.9386   20.3707 N   0  0  0  0  0  0  0  0  0  0  0  0
    8.6199  -15.8281   21.8854 C   0  0  0  0  0  0  0  0  0  0  0  0
    8.0613  -15.9513   23.0057 O   0  0  0  0  0  0  0  0  0  0  0  0
   10.0383  -19.1152   22.1950 O   0  0  0  0  0  0  0  0  0  0  0  0
   11.1260  -18.3337   22.4957 C   0  0  0  0  0  0  0  0  0  0  0  0
   10.6791  -16.9231   22.8275 C   0  0  2  0  0  0  0  0  0  0  0  0
    9.9644  -16.3080   21.7507 N   0  0  0  0  0  0  0  0  0  0  0  0
   11.8622  -16.1039   23.1658 C   0  0  0  0  0  0  0  0  0  0  0  0
   12.2337  -15.2209   22.3577 O   0  0  0  0  0  0  0  0  0  0  0  0
   12.5797  -16.2776   24.3509 O   0  0  0  0  0  0  0  0  0  0  0  0
  1  2  1  0
  3  4  2  0
  3  2  1  0
  6  5  1  6
  6  8  1  0
  7  6  1  0
  8  9  1  1
  9  3  1  0
 10 15  1  0
 10  8  1  0
 11 10  2  0
 14 13  1  6
 13 12  1  0
 14 15  1  0
 14 16  1  0
 16 18  1  0
 17 16  2  0
M  END
$$$$
