GVS.pdb
     RDKit          3D

 18 17  0  0  1  0  0  0  0  0999 V2000
    8.0883  -17.4200   16.3762 N   0  0  0  0  0  0  0  0  0  0  0  0
    7.3494  -17.0529   17.5466 C   0  0  0  0  0  0  0  0  0  0  0  0
    8.2719  -16.3255   18.4885 C   0  0  0  0  0  0  0  0  0  0  0  0
    9.5280  -16.4385   18.3954 O   0  0  0  0  0  0  0  0  0  0  0  0
    6.8495  -13.7089   21.8464 C   0  0  0  0  0  0  0  0  0  0  0  0
    8.0943  -13.5924   21.0552 C   0  0  2  0  0  0  0  0  0  0  0  0
    7.8863  -12.6262   19.9117 C   0  0  0  0  0  0  0  0  0  0  0  0
    8.6298  -14.8836   20.5078 C   0  0  2  0  0  0  0  0  0  0  0  0
    7.7714  -15.4834   19.5194 N   0  0  0  0  0  0  0  0  0  0  0  0
    8.9581  -15.8543   21.6060 C   0  0  0  0  0  0  0  0  0  0  0  0
    8.0586  -16.5038   22.1988 O   0  0  0  0  0  0  0  0  0  0  0  0
   11.2145  -18.6178   21.3655 O   0  0  0  0  0  0  0  0  0  0  0  0
   11.6755  -18.0429   22.5237 C   0  0  0  0  0  0  0  0  0  0  0  0
   10.6839  -17.0106   23.0243 C   0  0  2  0  0  0  0  0  0  0  0  0
   10.3167  -16.0683   22.0114 N   0  0  0  0  0  0  0  0  0  0  0  0
   11.2677  -16.2929   24.1773 C   0  0  0  0  0  0  0  0  0  0  0  0
   11.5804  -16.9485   25.1986 O   0  0  0  0  0  0  0  0  0  0  0  0
   11.4830  -14.9133   24.1700 O   0  0  0  0  0  0  0  0  0  0  0  0
  1  2  1  0
  3  4  2  0
  3  2  1  0
  6  5  1  6
  6  8  1  0
  7  6  1  0
  8  9  1  6
  9  3  1  0
 10 15  1  0
 10  8  1  0
 11 10  2  0
 14 13  1  6
 13 12  1  0
 14 15  1  0
 14 16  1  0
 16 18  1  0
 17 16  2  0
M  END
$$$$
