GVS.pdb
     RDKit          3D

 18 17  0  0  1  0  0  0  0  0999 V2000
   -2.0370  -20.8819   23.9208 N   0  0  0  0  0  0  0  0  0  0  0  0
   -1.8167  -21.3231   25.2651 C   0  0  0  0  0  0  0  0  0  0  0  0
   -2.9608  -22.2135   25.6721 C   0  0  0  0  0  0  0  0  0  0  0  0
   -3.9336  -22.4299   24.8935 O   0  0  0  0  0  0  0  0  0  0  0  0
   -2.9527  -25.8449   26.2861 C   0  0  0  0  0  0  0  0  0  0  0  0
   -3.4832  -25.1899   27.5021 C   0  0  2  0  0  0  0  0  0  0  0  0
   -4.5703  -26.0448   28.1120 C   0  0  0  0  0  0  0  0  0  0  0  0
   -4.0141  -23.8000   27.3024 C   0  0  2  0  0  0  0  0  0  0  0  0
   -2.9959  -22.8467   26.9449 N   0  0  0  0  0  0  0  0  0  0  0  0
   -4.8030  -23.3345   28.4928 C   0  0  0  0  0  0  0  0  0  0  0  0
   -4.2394  -23.0280   29.5748 O   0  0  0  0  0  0  0  0  0  0  0  0
   -9.0745  -21.6715   30.0848 O   0  0  0  0  0  0  0  0  0  0  0  0
   -8.3415  -22.1280   29.0177 C   0  0  0  0  0  0  0  0  0  0  0  0
   -7.0179  -22.6917   29.4969 C   0  0  2  0  0  0  0  0  0  0  0  0
   -6.2313  -23.2262   28.4272 N   0  0  0  0  0  0  0  0  0  0  0  0
   -7.2722  -23.7491   30.4981 C   0  0  0  0  0  0  0  0  0  0  0  0
   -7.4666  -24.9212   30.0994 O   0  0  0  0  0  0  0  0  0  0  0  0
   -7.3038  -23.4900   31.8698 O   0  0  0  0  0  0  0  0  0  0  0  0
  1  2  1  0
  3  4  2  0
  3  2  1  0
  6  5  1  6
  6  8  1  0
  7  6  1  0
  8  9  1  1
  9  3  1  0
 10 15  1  0
 10  8  1  0
 11 10  2  0
 14 13  1  6
 13 12  1  0
 14 15  1  0
 14 16  1  0
 16 18  1  0
 17 16  2  0
M  END
$$$$
