GVS.pdb
     RDKit          3D

 18 17  0  0  1  0  0  0  0  0999 V2000
    7.4881  -18.4659   17.2292 N   0  0  0  0  0  0  0  0  0  0  0  0
    6.7319  -17.7568   18.2170 C   0  0  0  0  0  0  0  0  0  0  0  0
    7.6641  -16.8504   18.9764 C   0  0  0  0  0  0  0  0  0  0  0  0
    8.9177  -17.0114   18.9319 O   0  0  0  0  0  0  0  0  0  0  0  0
    7.0733  -12.8276   19.6306 C   0  0  0  0  0  0  0  0  0  0  0  0
    7.4900  -13.5833   20.8324 C   0  0  2  0  0  0  0  0  0  0  0  0
    8.5079  -12.7841   21.6130 C   0  0  0  0  0  0  0  0  0  0  0  0
    8.0471  -14.9521   20.5683 C   0  0  2  0  0  0  0  0  0  0  0  0
    7.1762  -15.7785   19.7734 N   0  0  0  0  0  0  0  0  0  0  0  0
    8.4406  -15.6428   21.8428 C   0  0  0  0  0  0  0  0  0  0  0  0
    7.5835  -15.9728   22.7023 O   0  0  0  0  0  0  0  0  0  0  0  0
   10.9507  -18.4482   21.9595 O   0  0  0  0  0  0  0  0  0  0  0  0
   10.2837  -18.1342   23.1176 C   0  0  0  0  0  0  0  0  0  0  0  0
   10.2368  -16.6297   23.3011 C   0  0  2  0  0  0  0  0  0  0  0  0
    9.8150  -15.9468   22.1160 N   0  0  0  0  0  0  0  0  0  0  0  0
   11.5754  -16.1452   23.6994 C   0  0  0  0  0  0  0  0  0  0  0  0
   12.1843  -15.3618   22.9339 O   0  0  0  0  0  0  0  0  0  0  0  0
   12.1853  -16.5281   24.8958 O   0  0  0  0  0  0  0  0  0  0  0  0
  1  2  1  0
  3  4  2  0
  3  2  1  0
  6  5  1  6
  6  8  1  0
  7  6  1  0
  8  9  1  1
  9  3  1  0
 10 15  1  0
 10  8  1  0
 11 10  2  0
 14 13  1  6
 13 12  1  0
 14 15  1  0
 14 16  1  0
 16 18  1  0
 17 16  2  0
M  END
$$$$
