GVS.pdb
     RDKit          3D

 18 17  0  0  1  0  0  0  0  0999 V2000
    8.5898  -17.9075   16.7070 N   0  0  0  0  0  0  0  0  0  0  0  0
    7.6787  -17.5922   17.7657 C   0  0  0  0  0  0  0  0  0  0  0  0
    8.3588  -16.6456   18.7190 C   0  0  0  0  0  0  0  0  0  0  0  0
    9.5959  -16.7377   18.9651 O   0  0  0  0  0  0  0  0  0  0  0  0
    7.2333  -12.6948   19.5896 C   0  0  0  0  0  0  0  0  0  0  0  0
    7.4611  -13.5806   20.7527 C   0  0  2  0  0  0  0  0  0  0  0  0
    8.1876  -12.8225   21.8398 C   0  0  0  0  0  0  0  0  0  0  0  0
    8.2134  -14.8458   20.4579 C   0  0  2  0  0  0  0  0  0  0  0  0
    7.6415  -15.6114   19.3808 N   0  0  0  0  0  0  0  0  0  0  0  0
    8.3862  -15.6850   21.6916 C   0  0  0  0  0  0  0  0  0  0  0  0
    7.3959  -16.1139   22.3378 O   0  0  0  0  0  0  0  0  0  0  0  0
   11.0954  -18.4272   22.0930 O   0  0  0  0  0  0  0  0  0  0  0  0
   10.1151  -18.2741   23.0418 C   0  0  0  0  0  0  0  0  0  0  0  0
    9.9121  -16.8032   23.3494 C   0  0  2  0  0  0  0  0  0  0  0  0
    9.6953  -16.0223   22.1697 N   0  0  0  0  0  0  0  0  0  0  0  0
   11.0949  -16.2883   24.0713 C   0  0  0  0  0  0  0  0  0  0  0  0
   11.4008  -16.8053   25.1712 O   0  0  0  0  0  0  0  0  0  0  0  0
   11.8825  -15.2486   23.5731 O   0  0  0  0  0  0  0  0  0  0  0  0
  1  2  1  0
  3  4  2  0
  3  2  1  0
  6  5  1  6
  6  8  1  0
  7  6  1  0
  8  9  1  6
  9  3  1  0
 10 15  1  0
 10  8  1  0
 11 10  2  0
 14 13  1  6
 13 12  1  0
 14 15  1  0
 14 16  1  0
 16 18  1  0
 17 16  2  0
M  END
$$$$
