GVS.pdb
     RDKit          3D

 18 17  0  0  1  0  0  0  0  0999 V2000
    7.8081  -17.8689   16.1351 N   0  0  0  0  0  0  0  0  0  0  0  0
    6.9904  -17.3723   17.2005 C   0  0  0  0  0  0  0  0  0  0  0  0
    7.8600  -16.5911   18.1495 C   0  0  0  0  0  0  0  0  0  0  0  0
    9.1209  -16.6794   18.1088 O   0  0  0  0  0  0  0  0  0  0  0  0
    6.9447  -12.8251   19.7039 C   0  0  0  0  0  0  0  0  0  0  0  0
    7.4331  -13.8230   20.6809 C   0  0  2  0  0  0  0  0  0  0  0  0
    8.3736  -13.1619   21.6622 C   0  0  0  0  0  0  0  0  0  0  0  0
    8.1154  -15.0213   20.0873 C   0  0  2  0  0  0  0  0  0  0  0  0
    7.3023  -15.7236   19.1287 N   0  0  0  0  0  0  0  0  0  0  0  0
    8.6266  -15.9489   21.1524 C   0  0  0  0  0  0  0  0  0  0  0  0
    7.8414  -16.5720   21.9124 O   0  0  0  0  0  0  0  0  0  0  0  0
   12.0404  -17.8602   20.6048 O   0  0  0  0  0  0  0  0  0  0  0  0
   11.2269  -18.2713   21.6313 C   0  0  0  0  0  0  0  0  0  0  0  0
   10.5693  -17.0730   22.2878 C   0  0  2  0  0  0  0  0  0  0  0  0
   10.0347  -16.1506   21.3327 N   0  0  0  0  0  0  0  0  0  0  0  0
   11.5582  -16.3811   23.1414 C   0  0  0  0  0  0  0  0  0  0  0  0
   11.8785  -15.2031   22.8579 O   0  0  0  0  0  0  0  0  0  0  0  0
   12.1477  -16.9914   24.2504 O   0  0  0  0  0  0  0  0  0  0  0  0
  1  2  1  0
  3  4  2  0
  3  2  1  0
  6  5  1  6
  6  8  1  0
  7  6  1  0
  8  9  1  6
  9  3  1  0
 10 15  1  0
 10  8  1  0
 11 10  2  0
 14 13  1  6
 13 12  1  0
 14 15  1  0
 14 16  1  0
 16 18  1  0
 17 16  2  0
M  END
$$$$
