MMN.pdb
     RDKit          3D

 25 24  0  0  1  0  0  0  0  0999 V2000
   28.2495  -16.7748  -15.6004 C   0  0  0  0  0  0  0  0  0  0  0  0
   26.9144  -17.9371  -15.2590 S   0  0  0  0  0  0  0  0  0  0  0  0
   25.3237  -17.3305  -15.9441 C   0  0  0  0  0  0  0  0  0  0  0  0
   25.3241  -15.8345  -15.9492 C   0  0  0  0  0  0  0  0  0  0  0  0
   24.0516  -15.1956  -16.3849 C   0  0  2  0  0  0  0  0  0  0  0  0
   23.7173  -15.8065  -17.6832 N   0  0  0  0  0  0  0  0  0  0  0  0
   24.2250  -13.7450  -16.6406 C   0  0  0  0  0  0  0  0  0  0  0  0
   24.5558  -13.0146  -15.6687 O   0  0  0  0  0  0  0  0  0  0  0  0
   26.0993   -9.3289  -21.6160 C   0  0  0  0  0  0  0  0  0  0  0  0
   26.0642  -11.1409  -21.6623 S   0  0  0  0  0  0  0  0  0  0  0  0
   25.6681  -11.7364  -20.0182 C   0  0  0  0  0  0  0  0  0  0  0  0
   24.3112  -11.3397  -19.5251 C   0  0  0  0  0  0  0  0  0  0  0  0
   24.0951  -11.7352  -18.0714 C   0  0  2  0  0  0  0  0  0  0  0  0
   24.0343  -13.1610  -17.9208 N   0  0  0  0  0  0  0  0  0  0  0  0
   22.8665  -11.0732  -17.5311 C   0  0  0  0  0  0  0  0  0  0  0  0
   21.7115  -11.4736  -17.7167 O   0  0  0  0  0  0  0  0  0  0  0  0
   20.0804   -8.9811  -13.2979 N   0  0  0  0  0  0  0  0  0  0  0  0
   21.0486   -8.2526  -14.0313 C   0  0  0  0  0  0  0  0  0  0  0  0
   20.8897   -7.0049  -14.0798 O   0  0  0  0  0  0  0  0  0  0  0  0
   22.1400   -8.9930  -14.6654 C   0  0  0  0  0  0  0  0  0  0  0  0
   21.9814   -9.1352  -16.1798 C   0  0  2  0  0  0  0  0  0  0  0  0
   23.0716   -9.8940  -16.7439 N   0  0  0  0  0  0  0  0  0  0  0  0
   21.9673   -7.7155  -16.6818 C   0  0  0  0  0  0  0  0  0  0  0  0
   22.9729   -7.2569  -17.2827 O   0  0  0  0  0  0  0  0  0  0  0  0
   20.8995   -6.8766  -16.5189 O   0  0  0  0  0  0  0  0  0  0  0  0
  1  2  1  0
  3  2  1  0
  4  3  1  0
  5  6  1  6
  5  4  1  0
  7  5  1  0
  8  7  2  0
 10  9  1  0
 10 11  1  0
 11 12  1  0
 13 12  1  6
 13 15  1  0
 13 14  1  0
 14  7  1  0
 15 16  2  0
 18 17  1  0
 19 18  2  0
 20 18  1  0
 21 20  1  1
 22 21  1  0
 22 15  1  0
 23 21  1  0
 24 23  2  0
 25 23  1  0
M  END
$$$$
