MMN.pdb
     RDKit          3D

 25 24  0  0  1  0  0  0  0  0999 V2000
   18.0845   -9.7325  -16.8553 C   0  0  0  0  0  0  0  0  0  0  0  0
   17.7157  -10.8546  -18.2173 S   0  0  0  0  0  0  0  0  0  0  0  0
   19.2059  -11.8076  -18.7057 C   0  0  0  0  0  0  0  0  0  0  0  0
   20.3028  -11.5525  -17.7209 C   0  0  0  0  0  0  0  0  0  0  0  0
   21.6189  -12.1626  -18.0565 C   0  0  2  0  0  0  0  0  0  0  0  0
   21.4133  -13.6204  -18.0030 N   0  0  0  0  0  0  0  0  0  0  0  0
   22.6459  -11.8499  -17.0331 C   0  0  0  0  0  0  0  0  0  0  0  0
   22.5843  -12.4646  -15.9350 O   0  0  0  0  0  0  0  0  0  0  0  0
   28.9216  -10.7389  -17.9672 C   0  0  0  0  0  0  0  0  0  0  0  0
   28.7116   -9.8512  -16.4005 S   0  0  0  0  0  0  0  0  0  0  0  0
   27.0771  -10.2190  -15.7621 C   0  0  0  0  0  0  0  0  0  0  0  0
   26.0508  -10.5064  -16.8138 C   0  0  0  0  0  0  0  0  0  0  0  0
   24.6581  -10.6685  -16.2216 C   0  0  2  0  0  0  0  0  0  0  0  0
   23.6783  -10.8982  -17.2446 N   0  0  0  0  0  0  0  0  0  0  0  0
   24.3090   -9.4783  -15.3843 C   0  0  0  0  0  0  0  0  0  0  0  0
   24.9078   -9.1403  -14.3567 O   0  0  0  0  0  0  0  0  0  0  0  0
   21.8591   -5.1974  -13.9404 N   0  0  0  0  0  0  0  0  0  0  0  0
   22.6918   -5.0401  -15.0753 C   0  0  0  0  0  0  0  0  0  0  0  0
   22.9965   -3.8587  -15.3848 O   0  0  0  0  0  0  0  0  0  0  0  0
   23.1264   -6.2417  -15.7886 C   0  0  0  0  0  0  0  0  0  0  0  0
   22.7160   -7.5429  -15.0978 C   0  0  2  0  0  0  0  0  0  0  0  0
   23.1986   -8.6897  -15.8288 N   0  0  0  0  0  0  0  0  0  0  0  0
   21.2113   -7.4860  -15.0731 C   0  0  0  0  0  0  0  0  0  0  0  0
   20.6320   -6.6129  -14.3770 O   0  0  0  0  0  0  0  0  0  0  0  0
   20.4200   -8.3482  -15.7807 O   0  0  0  0  0  0  0  0  0  0  0  0
  1  2  1  0
  3  2  1  0
  4  3  1  0
  5  6  1  1
  5  4  1  0
  7  5  1  0
  8  7  2  0
 10  9  1  0
 10 11  1  0
 11 12  1  0
 13 12  1  6
 13 15  1  0
 13 14  1  0
 14  7  1  0
 15 16  2  0
 18 17  1  0
 19 18  2  0
 20 18  1  0
 21 20  1  6
 22 21  1  0
 22 15  1  0
 23 21  1  0
 24 23  2  0
 25 23  1  0
M  END
$$$$
