MMN.pdb
     RDKit          3D

 25 24  0  0  1  0  0  0  0  0999 V2000
   25.6086  -29.9421  -15.9703 C   0  0  0  0  0  0  0  0  0  0  0  0
   23.9434  -30.2904  -16.5667 S   0  0  0  0  0  0  0  0  0  0  0  0
   23.2465  -28.8426  -17.4531 C   0  0  0  0  0  0  0  0  0  0  0  0
   22.8944  -27.7774  -16.4634 C   0  0  0  0  0  0  0  0  0  0  0  0
   21.7286  -28.0778  -15.5872 C   0  0  2  0  0  0  0  0  0  0  0  0
   20.5691  -28.2033  -16.4873 N   0  0  0  0  0  0  0  0  0  0  0  0
   21.4244  -26.9506  -14.6725 C   0  0  0  0  0  0  0  0  0  0  0  0
   22.3200  -26.5986  -13.8591 O   0  0  0  0  0  0  0  0  0  0  0  0
   18.0966  -21.9363  -16.4902 C   0  0  0  0  0  0  0  0  0  0  0  0
   19.8782  -21.8393  -16.1690 S   0  0  0  0  0  0  0  0  0  0  0  0
   20.3956  -23.3782  -15.4085 C   0  0  0  0  0  0  0  0  0  0  0  0
   19.4024  -23.9621  -14.4522 C   0  0  0  0  0  0  0  0  0  0  0  0
   19.9455  -25.1992  -13.7514 C   0  0  2  0  0  0  0  0  0  0  0  0
   20.1801  -26.2665  -14.6815 N   0  0  0  0  0  0  0  0  0  0  0  0
   19.0202  -25.6212  -12.6535 C   0  0  0  0  0  0  0  0  0  0  0  0
   18.0011  -26.3025  -12.8145 O   0  0  0  0  0  0  0  0  0  0  0  0
   18.9192  -24.8675   -6.4466 N   0  0  0  0  0  0  0  0  0  0  0  0
   18.5029  -25.4311   -7.6775 C   0  0  0  0  0  0  0  0  0  0  0  0
   17.4996  -26.1899   -7.6332 O   0  0  0  0  0  0  0  0  0  0  0  0
   19.2577  -25.0942   -8.8851 C   0  0  0  0  0  0  0  0  0  0  0  0
   18.5438  -25.4860  -10.1795 C   0  0  2  0  0  0  0  0  0  0  0  0
   19.3643  -25.1936  -11.3302 N   0  0  0  0  0  0  0  0  0  0  0  0
   17.2828  -24.6630  -10.1662 C   0  0  0  0  0  0  0  0  0  0  0  0
   16.1877  -25.2054   -9.8672 O   0  0  0  0  0  0  0  0  0  0  0  0
   17.2587  -23.3290  -10.4667 O   0  0  0  0  0  0  0  0  0  0  0  0
  1  2  1  0
  3  2  1  0
  4  3  1  0
  5  6  1  6
  5  4  1  0
  7  5  1  0
  8  7  2  0
 10  9  1  0
 10 11  1  0
 11 12  1  0
 13 12  1  6
 13 15  1  0
 13 14  1  0
 14  7  1  0
 15 16  2  0
 18 17  1  0
 19 18  2  0
 20 18  1  0
 21 20  1  1
 22 21  1  0
 22 15  1  0
 23 21  1  0
 24 23  2  0
 25 23  1  0
M  END
$$$$
