MMN.pdb
     RDKit          3D

 25 24  0  0  1  0  0  0  0  0999 V2000
   27.9403  -18.1059   -6.3338 C   0  0  0  0  0  0  0  0  0  0  0  0
   28.2504  -19.7959   -5.7884 S   0  0  0  0  0  0  0  0  0  0  0  0
   28.0792  -20.9780   -7.1815 C   0  0  0  0  0  0  0  0  0  0  0  0
   27.2515  -20.3558   -8.2612 C   0  0  0  0  0  0  0  0  0  0  0  0
   26.9693  -21.2282   -9.4344 C   0  0  2  0  0  0  0  0  0  0  0  0
   28.2761  -21.5028  -10.0567 N   0  0  0  0  0  0  0  0  0  0  0  0
   26.1604  -20.5250  -10.4596 C   0  0  0  0  0  0  0  0  0  0  0  0
   26.7242  -19.6198  -11.1306 O   0  0  0  0  0  0  0  0  0  0  0  0
   24.7486  -23.3520  -16.8870 C   0  0  0  0  0  0  0  0  0  0  0  0
   25.2978  -23.4875  -15.1646 S   0  0  0  0  0  0  0  0  0  0  0  0
   24.5743  -22.1346  -14.2371 C   0  0  0  0  0  0  0  0  0  0  0  0
   25.0354  -22.0406  -12.8157 C   0  0  0  0  0  0  0  0  0  0  0  0
   24.3201  -20.9322  -12.0567 C   0  0  2  0  0  0  0  0  0  0  0  0
   24.7960  -20.8313  -10.7066 N   0  0  0  0  0  0  0  0  0  0  0  0
   22.8394  -21.1447  -12.1023 C   0  0  0  0  0  0  0  0  0  0  0  0
   22.2424  -22.0660  -11.5336 O   0  0  0  0  0  0  0  0  0  0  0  0
   20.4814  -16.6506  -12.8508 N   0  0  0  0  0  0  0  0  0  0  0  0
   20.0620  -17.9551  -12.4926 C   0  0  0  0  0  0  0  0  0  0  0  0
   19.7217  -18.1223  -11.2924 O   0  0  0  0  0  0  0  0  0  0  0  0
   20.0564  -18.9903  -13.5269 C   0  0  0  0  0  0  0  0  0  0  0  0
   20.6584  -20.3178  -13.0642 C   0  0  2  0  0  0  0  0  0  0  0  0
   22.0826  -20.1970  -12.8649 N   0  0  0  0  0  0  0  0  0  0  0  0
   20.3272  -21.2779  -14.1761 C   0  0  0  0  0  0  0  0  0  0  0  0
   19.1883  -21.8103  -14.2213 O   0  0  0  0  0  0  0  0  0  0  0  0
   21.2133  -21.6116  -15.1630 O   0  0  0  0  0  0  0  0  0  0  0  0
  1  2  1  0
  3  2  1  0
  4  3  1  0
  5  6  1  6
  5  4  1  0
  7  5  1  0
  8  7  2  0
 10  9  1  0
 10 11  1  0
 11 12  1  0
 13 12  1  1
 13 15  1  0
 13 14  1  0
 14  7  1  0
 15 16  2  0
 18 17  1  0
 19 18  2  0
 20 18  1  0
 21 20  1  6
 22 21  1  0
 22 15  1  0
 23 21  1  0
 24 23  2  0
 25 23  1  0
M  END
$$$$
