MMN.pdb
     RDKit          3D

 25 24  0  0  1  0  0  0  0  0999 V2000
   27.9013  -18.0053   -6.6103 C   0  0  0  0  0  0  0  0  0  0  0  0
   28.5116  -19.6543   -6.2128 S   0  0  0  0  0  0  0  0  0  0  0  0
   27.4152  -20.9478   -6.9145 C   0  0  0  0  0  0  0  0  0  0  0  0
   26.7886  -20.4375   -8.1735 C   0  0  0  0  0  0  0  0  0  0  0  0
   26.9576  -21.3068   -9.3705 C   0  0  2  0  0  0  0  0  0  0  0  0
   28.4019  -21.3171   -9.6610 N   0  0  0  0  0  0  0  0  0  0  0  0
   26.2974  -20.7289  -10.5663 C   0  0  0  0  0  0  0  0  0  0  0  0
   26.7066  -19.6107  -10.9781 O   0  0  0  0  0  0  0  0  0  0  0  0
   27.5770  -18.6334  -13.7998 C   0  0  0  0  0  0  0  0  0  0  0  0
   26.7875  -19.8015  -14.9394 S   0  0  0  0  0  0  0  0  0  0  0  0
   26.5852  -21.3661  -14.0878 C   0  0  0  0  0  0  0  0  0  0  0  0
   25.1782  -21.6708  -13.6761 C   0  0  0  0  0  0  0  0  0  0  0  0
   24.7405  -20.8354  -12.4816 C   0  0  2  0  0  0  0  0  0  0  0  0
   25.2382  -21.3811  -11.2512 N   0  0  0  0  0  0  0  0  0  0  0  0
   23.2500  -20.7025  -12.4601 C   0  0  0  0  0  0  0  0  0  0  0  0
   22.5057  -21.2534  -11.6408 O   0  0  0  0  0  0  0  0  0  0  0  0
   18.5912  -18.9588  -13.7252 N   0  0  0  0  0  0  0  0  0  0  0  0
   19.4971  -18.0126  -14.2638 C   0  0  0  0  0  0  0  0  0  0  0  0
   18.9878  -16.9897  -14.7916 O   0  0  0  0  0  0  0  0  0  0  0  0
   20.9304  -18.2916  -14.1672 C   0  0  0  0  0  0  0  0  0  0  0  0
   21.2452  -19.6748  -13.5960 C   0  0  2  0  0  0  0  0  0  0  0  0
   22.6696  -19.8696  -13.4709 N   0  0  0  0  0  0  0  0  0  0  0  0
   20.6336  -20.6288  -14.5877 C   0  0  0  0  0  0  0  0  0  0  0  0
   21.2283  -20.8688  -15.6700 O   0  0  0  0  0  0  0  0  0  0  0  0
   19.4417  -21.2647  -14.3745 O   0  0  0  0  0  0  0  0  0  0  0  0
  1  2  1  0
  3  2  1  0
  4  3  1  0
  5  6  1  6
  5  4  1  0
  7  5  1  0
  8  7  2  0
 10  9  1  0
 10 11  1  0
 11 12  1  0
 13 12  1  6
 13 15  1  0
 13 14  1  0
 14  7  1  0
 15 16  2  0
 18 17  1  0
 19 18  2  0
 20 18  1  0
 21 20  1  6
 22 21  1  0
 22 15  1  0
 23 21  1  0
 24 23  2  0
 25 23  1  0
M  END
$$$$
