MMN.pdb
     RDKit          3D

 25 24  0  0  1  0  0  0  0  0999 V2000
   26.2237  -23.5898  -20.2726 C   0  0  0  0  0  0  0  0  0  0  0  0
   27.4838  -22.4589  -20.8917 S   0  0  0  0  0  0  0  0  0  0  0  0
   28.4737  -21.7598  -19.5138 C   0  0  0  0  0  0  0  0  0  0  0  0
   27.5844  -21.5230  -18.3343 C   0  0  0  0  0  0  0  0  0  0  0  0
   28.2389  -20.8901  -17.1561 C   0  0  2  0  0  0  0  0  0  0  0  0
   28.9678  -21.9713  -16.4704 N   0  0  0  0  0  0  0  0  0  0  0  0
   27.2426  -20.3788  -16.1835 C   0  0  0  0  0  0  0  0  0  0  0  0
   27.0155  -21.0742  -15.1577 O   0  0  0  0  0  0  0  0  0  0  0  0
   23.0839  -15.1685  -17.9908 C   0  0  0  0  0  0  0  0  0  0  0  0
   23.6115  -15.7119  -16.3436 S   0  0  0  0  0  0  0  0  0  0  0  0
   25.2133  -16.5018  -16.5000 C   0  0  0  0  0  0  0  0  0  0  0  0
   25.7097  -17.1512  -15.2455 C   0  0  0  0  0  0  0  0  0  0  0  0
   25.6722  -18.6700  -15.3369 C   0  0  2  0  0  0  0  0  0  0  0  0
   26.5479  -19.1538  -16.3656 N   0  0  0  0  0  0  0  0  0  0  0  0
   24.2674  -19.1424  -15.5447 C   0  0  0  0  0  0  0  0  0  0  0  0
   23.7781  -19.4351  -16.6417 O   0  0  0  0  0  0  0  0  0  0  0  0
   20.0031  -21.3973  -14.9318 N   0  0  0  0  0  0  0  0  0  0  0  0
   20.6942  -21.6118  -13.7143 C   0  0  0  0  0  0  0  0  0  0  0  0
   20.3517  -22.6239  -13.0488 O   0  0  0  0  0  0  0  0  0  0  0  0
   21.7349  -20.6575  -13.3299 C   0  0  0  0  0  0  0  0  0  0  0  0
   22.0628  -19.6397  -14.4232 C   0  0  2  0  0  0  0  0  0  0  0  0
   23.4532  -19.2568  -14.3715 N   0  0  0  0  0  0  0  0  0  0  0  0
   21.1500  -18.4787  -14.1289 C   0  0  0  0  0  0  0  0  0  0  0  0
   21.6016  -17.4658  -13.5350 O   0  0  0  0  0  0  0  0  0  0  0  0
   19.8280  -18.4611  -14.4788 O   0  0  0  0  0  0  0  0  0  0  0  0
  1  2  1  0
  3  2  1  0
  4  3  1  0
  5  6  1  1
  5  4  1  0
  7  5  1  0
  8  7  2  0
 10  9  1  0
 10 11  1  0
 11 12  1  0
 13 12  1  6
 13 15  1  0
 13 14  1  0
 14  7  1  0
 15 16  2  0
 18 17  1  0
 19 18  2  0
 20 18  1  0
 21 20  1  1
 22 21  1  0
 22 15  1  0
 23 21  1  0
 24 23  2  0
 25 23  1  0
M  END
$$$$
