MMN.pdb
     RDKit          3D

 25 24  0  0  1  0  0  0  0  0999 V2000
   27.4933  -16.6337  -15.8796 C   0  0  0  0  0  0  0  0  0  0  0  0
   28.7660  -17.7834  -16.4350 S   0  0  0  0  0  0  0  0  0  0  0  0
   28.0366  -19.1387  -17.4343 C   0  0  0  0  0  0  0  0  0  0  0  0
   27.1276  -19.9567  -16.5726 C   0  0  0  0  0  0  0  0  0  0  0  0
   27.7901  -20.6907  -15.4593 C   0  0  2  0  0  0  0  0  0  0  0  0
   28.3229  -21.9291  -16.0533 N   0  0  0  0  0  0  0  0  0  0  0  0
   26.8160  -21.1124  -14.4233 C   0  0  0  0  0  0  0  0  0  0  0  0
   26.0565  -22.0808  -14.6934 O   0  0  0  0  0  0  0  0  0  0  0  0
   27.0621  -20.4766   -7.8596 C   0  0  0  0  0  0  0  0  0  0  0  0
   25.2746  -20.3931   -8.1504 S   0  0  0  0  0  0  0  0  0  0  0  0
   24.9592  -20.8770   -9.8476 C   0  0  0  0  0  0  0  0  0  0  0  0
   25.9783  -20.3904  -10.8308 C   0  0  0  0  0  0  0  0  0  0  0  0
   25.6764  -20.8635  -12.2456 C   0  0  2  0  0  0  0  0  0  0  0  0
   26.7116  -20.4733  -13.1596 N   0  0  0  0  0  0  0  0  0  0  0  0
   24.3373  -20.3607  -12.6857 C   0  0  0  0  0  0  0  0  0  0  0  0
   24.0680  -19.1741  -12.9049 O   0  0  0  0  0  0  0  0  0  0  0  0
   22.0734  -21.0754  -16.0575 N   0  0  0  0  0  0  0  0  0  0  0  0
   21.5180  -22.2238  -15.4423 C   0  0  0  0  0  0  0  0  0  0  0  0
   21.2362  -23.1847  -16.2049 O   0  0  0  0  0  0  0  0  0  0  0  0
   21.3178  -22.2058  -13.9927 C   0  0  0  0  0  0  0  0  0  0  0  0
   21.9789  -21.0131  -13.3006 C   0  0  2  0  0  0  0  0  0  0  0  0
   23.3122  -21.3462  -12.8600 N   0  0  0  0  0  0  0  0  0  0  0  0
   21.0654  -20.7085  -12.1429 C   0  0  0  0  0  0  0  0  0  0  0  0
   21.3338  -21.1627  -11.0008 O   0  0  0  0  0  0  0  0  0  0  0  0
   19.9349  -19.9484  -12.2639 O   0  0  0  0  0  0  0  0  0  0  0  0
  1  2  1  0
  3  2  1  0
  4  3  1  0
  5  6  1  6
  5  4  1  0
  7  5  1  0
  8  7  2  0
 10  9  1  0
 10 11  1  0
 11 12  1  0
 13 12  1  1
 13 15  1  0
 13 14  1  0
 14  7  1  0
 15 16  2  0
 18 17  1  0
 19 18  2  0
 20 18  1  0
 21 20  1  1
 22 21  1  0
 22 15  1  0
 23 21  1  0
 24 23  2  0
 25 23  1  0
M  END
$$$$
