MMN.pdb
     RDKit          3D

 25 24  0  0  1  0  0  0  0  0999 V2000
   18.7822  -11.1760  -20.1805 C   0  0  0  0  0  0  0  0  0  0  0  0
   19.3818  -12.8656  -19.9915 S   0  0  0  0  0  0  0  0  0  0  0  0
   19.7625  -13.2352  -18.2348 C   0  0  0  0  0  0  0  0  0  0  0  0
   20.4791  -12.0712  -17.6269 C   0  0  0  0  0  0  0  0  0  0  0  0
   21.8071  -12.3790  -17.0278 C   0  0  2  0  0  0  0  0  0  0  0  0
   21.5727  -13.4699  -16.0659 N   0  0  0  0  0  0  0  0  0  0  0  0
   22.3324  -11.2368  -16.2408 C   0  0  0  0  0  0  0  0  0  0  0  0
   21.7331  -10.9358  -15.1742 O   0  0  0  0  0  0  0  0  0  0  0  0
   27.5365  -12.4036  -15.0391 C   0  0  0  0  0  0  0  0  0  0  0  0
   26.3043  -11.5014  -16.0160 S   0  0  0  0  0  0  0  0  0  0  0  0
   26.2255   -9.8184  -15.4032 C   0  0  0  0  0  0  0  0  0  0  0  0
   25.2872   -8.9273  -16.1565 C   0  0  0  0  0  0  0  0  0  0  0  0
   23.8312   -9.2999  -15.9161 C   0  0  2  0  0  0  0  0  0  0  0  0
   23.4678  -10.4838  -16.6412 N   0  0  0  0  0  0  0  0  0  0  0  0
   22.9380   -8.1495  -16.2601 C   0  0  0  0  0  0  0  0  0  0  0  0
   22.4760   -7.9289  -17.3855 O   0  0  0  0  0  0  0  0  0  0  0  0
   18.3226   -5.3210  -15.8797 N   0  0  0  0  0  0  0  0  0  0  0  0
   19.4887   -5.1579  -15.0925 C   0  0  0  0  0  0  0  0  0  0  0  0
   19.6806   -4.0114  -14.6099 O   0  0  0  0  0  0  0  0  0  0  0  0
   20.3655   -6.3142  -14.9039 C   0  0  0  0  0  0  0  0  0  0  0  0
   21.7988   -6.0769  -15.3815 C   0  0  2  0  0  0  0  0  0  0  0  0
   22.6085   -7.2560  -15.1899 N   0  0  0  0  0  0  0  0  0  0  0  0
   22.2793   -4.9239  -14.5403 C   0  0  0  0  0  0  0  0  0  0  0  0
   22.7165   -5.1382  -13.3804 O   0  0  0  0  0  0  0  0  0  0  0  0
   22.2681   -3.6272  -14.9750 O   0  0  0  0  0  0  0  0  0  0  0  0
  1  2  1  0
  3  2  1  0
  4  3  1  0
  5  6  1  1
  5  4  1  0
  7  5  1  0
  8  7  2  0
 10  9  1  0
 10 11  1  0
 11 12  1  0
 13 12  1  6
 13 15  1  0
 13 14  1  0
 14  7  1  0
 15 16  2  0
 18 17  1  0
 19 18  2  0
 20 18  1  0
 21 20  1  1
 22 21  1  0
 22 15  1  0
 23 21  1  0
 24 23  2  0
 25 23  1  0
M  END
$$$$
