MMN.pdb
     RDKit          3D

 25 24  0  0  1  0  0  0  0  0999 V2000
   17.5571  -15.6641  -15.5988 C   0  0  0  0  0  0  0  0  0  0  0  0
   16.4410  -14.8313  -16.7437 S   0  0  0  0  0  0  0  0  0  0  0  0
   17.3586  -13.6696  -17.8280 C   0  0  0  0  0  0  0  0  0  0  0  0
   18.2122  -12.7746  -16.9865 C   0  0  0  0  0  0  0  0  0  0  0  0
   19.0771  -11.8234  -17.7376 C   0  0  2  0  0  0  0  0  0  0  0  0
   20.0015  -12.6557  -18.5270 N   0  0  0  0  0  0  0  0  0  0  0  0
   19.9221  -11.0131  -16.8269 C   0  0  0  0  0  0  0  0  0  0  0  0
   19.3423  -10.3453  -15.9295 O   0  0  0  0  0  0  0  0  0  0  0  0
   26.9594   -9.8845  -16.1833 C   0  0  0  0  0  0  0  0  0  0  0  0
   26.0141  -10.3502  -14.7081 S   0  0  0  0  0  0  0  0  0  0  0  0
   24.3198   -9.8094  -14.9338 C   0  0  0  0  0  0  0  0  0  0  0  0
   23.5201  -10.6528  -15.8778 C   0  0  0  0  0  0  0  0  0  0  0  0
   22.0919  -10.1474  -16.0232 C   0  0  2  0  0  0  0  0  0  0  0  0
   21.3375  -10.9649  -16.9299 N   0  0  0  0  0  0  0  0  0  0  0  0
   22.0905   -8.7121  -16.4471 C   0  0  0  0  0  0  0  0  0  0  0  0
   22.5539   -8.2926  -17.5139 O   0  0  0  0  0  0  0  0  0  0  0  0
   19.9407   -3.3921  -14.0970 N   0  0  0  0  0  0  0  0  0  0  0  0
   20.3987   -4.2017  -15.1651 C   0  0  0  0  0  0  0  0  0  0  0  0
   20.7566   -3.5977  -16.2098 O   0  0  0  0  0  0  0  0  0  0  0  0
   20.4204   -5.6526  -14.9758 C   0  0  0  0  0  0  0  0  0  0  0  0
   21.5413   -6.3514  -15.7465 C   0  0  2  0  0  0  0  0  0  0  0  0
   21.5019   -7.7782  -15.5340 N   0  0  0  0  0  0  0  0  0  0  0  0
   22.8018   -5.7372  -15.1974 C   0  0  0  0  0  0  0  0  0  0  0  0
   23.5153   -5.0118  -15.9373 O   0  0  0  0  0  0  0  0  0  0  0  0
   23.2253   -5.9262  -13.9108 O   0  0  0  0  0  0  0  0  0  0  0  0
  1  2  1  0
  3  2  1  0
  4  3  1  0
  5  6  1  6
  5  4  1  0
  7  5  1  0
  8  7  2  0
 10  9  1  0
 10 11  1  0
 11 12  1  0
 13 12  1  6
 13 15  1  0
 13 14  1  0
 14  7  1  0
 15 16  2  0
 18 17  1  0
 19 18  2  0
 20 18  1  0
 21 20  1  1
 22 21  1  0
 22 15  1  0
 23 21  1  0
 24 23  2  0
 25 23  1  0
M  END
$$$$
