HSK.pdb
     RDKit          3D

 26 26  0  0  1  0  0  0  0  0999 V2000
   16.5383  -13.7771  -17.7706 N   0  0  0  0  0  0  0  0  0  0  0  0
   17.2156  -13.2106  -16.6380 C   0  0  1  0  0  0  0  0  0  0  0  0
   18.4651  -14.0659  -16.3959 C   0  0  0  0  0  0  0  0  0  0  0  0
   18.0810  -15.4634  -15.9934 C   0  0  0  0  0  0  0  0  0  0  0  0
   17.6798  -15.8359  -14.7394 C   0  0  0  0  0  0  0  0  0  0  0  0
   17.4233  -17.1508  -14.7719 N   0  0  0  0  0  0  0  0  0  0  0  0
   17.6629  -17.5781  -16.0235 C   0  0  0  0  0  0  0  0  0  0  0  0
   18.0658  -16.5438  -16.7716 N   0  0  0  0  0  0  0  0  0  0  0  0
   17.7201  -11.8408  -16.9087 C   0  0  0  0  0  0  0  0  0  0  0  0
   18.5230  -11.6126  -17.8742 O   0  0  0  0  0  0  0  0  0  0  0  0
   16.7597   -8.5508  -14.4261 O   0  0  0  0  0  0  0  0  0  0  0  0
   16.8072   -8.3458  -15.8160 C   0  0  0  0  0  0  0  0  0  0  0  0
   17.7471   -9.3613  -16.4541 C   0  0  2  0  0  0  0  0  0  0  0  0
   17.3549  -10.7111  -16.1311 N   0  0  0  0  0  0  0  0  0  0  0  0
   19.1572   -9.0761  -16.1227 C   0  0  0  0  0  0  0  0  0  0  0  0
   19.6498   -9.7277  -15.1477 O   0  0  0  0  0  0  0  0  0  0  0  0
   19.9506   -8.1568  -16.8037 N   0  0  0  0  0  0  0  0  0  0  0  0
   21.3293   -7.7990  -16.3999 C   0  0  1  0  0  0  0  0  0  0  0  0
   22.0965   -7.2961  -17.5801 C   0  0  0  0  0  0  0  0  0  0  0  0
   23.5204   -6.9605  -17.2410 C   0  0  0  0  0  0  0  0  0  0  0  0
   24.3182   -6.5700  -18.4668 C   0  0  0  0  0  0  0  0  0  0  0  0
   25.7709   -6.2864  -18.1007 C   0  0  0  0  0  0  0  0  0  0  0  0
   26.5201   -5.8041  -19.2373 N   0  0  0  0  0  0  0  0  0  0  0  0
   21.2587   -6.8538  -15.2592 C   0  0  0  0  0  0  0  0  0  0  0  0
   22.0347   -7.0589  -14.1127 O   0  0  0  0  0  0  0  0  0  0  0  0
   20.5247   -5.8395  -15.2402 O   0  0  0  0  0  0  0  0  0  0  0  0
  2  1  1  6
  2  9  1  0
  3  4  1  0
  3  2  1  0
  4  5  2  0
  4  8  1  0
  5  6  1  0
  6  7  1  0
  8  7  2  0
  9 10  2  0
 13 12  1  1
 12 11  1  0
 13 15  1  0
 14  9  1  0
 14 13  1  0
 15 16  2  0
 17 15  1  0
 17 18  1  0
 18 24  1  0
 18 19  1  6
 20 19  1  0
 21 22  1  0
 21 20  1  0
 22 23  1  0
 24 25  1  0
 26 24  2  0
M  END
$$$$
