HSK.pdb
     RDKit          3D

 26 26  0  0  1  0  0  0  0  0999 V2000
   19.2833  -12.9434  -16.2549 N   0  0  0  0  0  0  0  0  0  0  0  0
   19.8075  -11.7972  -16.9433 C   0  0  1  0  0  0  0  0  0  0  0  0
   19.1658  -11.7854  -18.3360 C   0  0  0  0  0  0  0  0  0  0  0  0
   19.6444  -12.9563  -19.1500 C   0  0  0  0  0  0  0  0  0  0  0  0
   19.0328  -14.1793  -19.1993 C   0  0  0  0  0  0  0  0  0  0  0  0
   19.7469  -14.9543  -20.0272 N   0  0  0  0  0  0  0  0  0  0  0  0
   20.7785  -14.2203  -20.4781 C   0  0  0  0  0  0  0  0  0  0  0  0
   20.7153  -12.9961  -19.9404 N   0  0  0  0  0  0  0  0  0  0  0  0
   19.3969  -10.5199  -16.3077 C   0  0  0  0  0  0  0  0  0  0  0  0
   18.1906  -10.3243  -15.9398 O   0  0  0  0  0  0  0  0  0  0  0  0
   21.8039   -8.3725  -14.0449 O   0  0  0  0  0  0  0  0  0  0  0  0
   20.4377   -8.0421  -14.0690 C   0  0  0  0  0  0  0  0  0  0  0  0
   19.8975   -8.1898  -15.4861 C   0  0  2  0  0  0  0  0  0  0  0  0
   20.2955   -9.4477  -16.0685 N   0  0  0  0  0  0  0  0  0  0  0  0
   20.2539   -7.0281  -16.3246 C   0  0  0  0  0  0  0  0  0  0  0  0
   21.3495   -7.1107  -16.9654 O   0  0  0  0  0  0  0  0  0  0  0  0
   19.4739   -5.8811  -16.4450 N   0  0  0  0  0  0  0  0  0  0  0  0
   19.8895   -4.6770  -17.1994 C   0  0  1  0  0  0  0  0  0  0  0  0
   18.6898   -3.8753  -17.5897 C   0  0  0  0  0  0  0  0  0  0  0  0
   19.0399   -2.6979  -18.4536 C   0  0  0  0  0  0  0  0  0  0  0  0
   17.8130   -1.9142  -18.8681 C   0  0  0  0  0  0  0  0  0  0  0  0
   18.1859   -0.7921  -19.8307 C   0  0  0  0  0  0  0  0  0  0  0  0
   17.0317   -0.0090  -20.2055 N   0  0  0  0  0  0  0  0  0  0  0  0
   20.8934   -3.9376  -16.3961 C   0  0  0  0  0  0  0  0  0  0  0  0
   22.0157   -3.3660  -17.0063 O   0  0  0  0  0  0  0  0  0  0  0  0
   20.8122   -3.7775  -15.1569 O   0  0  0  0  0  0  0  0  0  0  0  0
  2  1  1  1
  2  9  1  0
  3  4  1  0
  3  2  1  0
  4  5  2  0
  4  8  1  0
  5  6  1  0
  6  7  1  0
  8  7  2  0
  9 10  2  0
 13 12  1  1
 12 11  1  0
 13 15  1  0
 14  9  1  0
 14 13  1  0
 15 16  2  0
 17 15  1  0
 17 18  1  0
 18 24  1  0
 18 19  1  1
 20 19  1  0
 21 22  1  0
 21 20  1  0
 22 23  1  0
 24 25  1  0
 26 24  2  0
M  END
$$$$
