HSK.pdb
     RDKit          3D

 26 26  0  0  1  0  0  0  0  0999 V2000
   27.7941  -18.4232  -18.2496 N   0  0  0  0  0  0  0  0  0  0  0  0
   26.4953  -18.5851  -17.6586 C   0  0  1  0  0  0  0  0  0  0  0  0
   25.5013  -18.7550  -18.8138 C   0  0  0  0  0  0  0  0  0  0  0  0
   25.3240  -17.4585  -19.5556 C   0  0  0  0  0  0  0  0  0  0  0  0
   24.2945  -16.5785  -19.3614 C   0  0  0  0  0  0  0  0  0  0  0  0
   24.4807  -15.5486  -20.1985 N   0  0  0  0  0  0  0  0  0  0  0  0
   25.6045  -15.7921  -20.8943 C   0  0  0  0  0  0  0  0  0  0  0  0
   26.1210  -16.9624  -20.5000 N   0  0  0  0  0  0  0  0  0  0  0  0
   26.3899  -19.8317  -16.8594 C   0  0  0  0  0  0  0  0  0  0  0  0
   27.2604  -20.7589  -16.9658 O   0  0  0  0  0  0  0  0  0  0  0  0
   23.0540  -20.7243  -14.3816 O   0  0  0  0  0  0  0  0  0  0  0  0
   24.3461  -20.9866  -13.8939 C   0  0  0  0  0  0  0  0  0  0  0  0
   25.2987  -21.2199  -15.0600 C   0  0  2  0  0  0  0  0  0  0  0  0
   25.3372  -20.0777  -15.9398 N   0  0  0  0  0  0  0  0  0  0  0  0
   24.9921  -22.4803  -15.7651 C   0  0  0  0  0  0  0  0  0  0  0  0
   24.2360  -22.3865  -16.7836 O   0  0  0  0  0  0  0  0  0  0  0  0
   25.4747  -23.7287  -15.3820 N   0  0  0  0  0  0  0  0  0  0  0  0
   25.1304  -24.9928  -16.0714 C   0  0  1  0  0  0  0  0  0  0  0  0
   26.1624  -26.0344  -15.7810 C   0  0  0  0  0  0  0  0  0  0  0  0
   25.9297  -27.3051  -16.5468 C   0  0  0  0  0  0  0  0  0  0  0  0
   26.9915  -28.3443  -16.2569 C   0  0  0  0  0  0  0  0  0  0  0  0
   26.7647  -29.5992  -17.0926 C   0  0  0  0  0  0  0  0  0  0  0  0
   27.7501  -30.6146  -16.8034 N   0  0  0  0  0  0  0  0  0  0  0  0
   23.7457  -25.3730  -15.7002 C   0  0  0  0  0  0  0  0  0  0  0  0
   22.9083  -26.0101  -16.6231 O   0  0  0  0  0  0  0  0  0  0  0  0
   23.2433  -25.1584  -14.5735 O   0  0  0  0  0  0  0  0  0  0  0  0
  2  1  1  6
  2  9  1  0
  3  4  1  0
  3  2  1  0
  4  5  2  0
  4  8  1  0
  5  6  1  0
  6  7  1  0
  8  7  2  0
  9 10  2  0
 13 12  1  1
 12 11  1  0
 13 15  1  0
 14  9  1  0
 14 13  1  0
 15 16  2  0
 17 15  1  0
 17 18  1  0
 18 24  1  0
 18 19  1  1
 20 19  1  0
 21 22  1  0
 21 20  1  0
 22 23  1  0
 24 25  1  0
 26 24  2  0
M  END
$$$$
