LEK.pdb
     RDKit          3D

 27 26  0  0  1  0  0  0  0  0999 V2000
   28.7066  -11.5834  -17.2372 C   0  0  0  0  0  0  0  0  0  0  0  0
   27.3505  -12.1745  -16.9444 C   0  0  1  0  0  0  0  0  0  0  0  0
   27.3018  -12.7976  -15.5670 C   0  0  0  0  0  0  0  0  0  0  0  0
   26.3109  -11.1199  -17.1355 C   0  0  0  0  0  0  0  0  0  0  0  0
   24.9216  -11.6795  -16.9237 C   0  0  2  0  0  0  0  0  0  0  0  0
   24.6369  -12.7696  -17.8323 N   0  0  0  0  0  0  0  0  0  0  0  0
   23.9042  -10.6173  -17.0945 C   0  0  0  0  0  0  0  0  0  0  0  0
   23.6276  -10.2105  -18.2483 O   0  0  0  0  0  0  0  0  0  0  0  0
   23.2197  -10.0313  -16.0033 N   0  0  0  0  0  0  0  0  0  0  0  0
   22.1782   -9.0101  -16.2521 C   0  0  1  0  0  0  0  0  0  0  0  0
   20.8870   -9.5038  -15.6936 C   0  0  0  0  0  0  0  0  0  0  0  0
   20.2250  -10.5759  -16.4921 C   0  0  0  0  0  0  0  0  0  0  0  0
   18.9223  -10.9915  -15.8318 C   0  0  0  0  0  0  0  0  0  0  0  0
   18.5422  -10.4522  -14.7693 O   0  0  0  0  0  0  0  0  0  0  0  0
   22.5871   -7.7302  -15.6702 C   0  0  0  0  0  0  0  0  0  0  0  0
   23.3566   -7.6920  -14.6335 O   0  0  0  0  0  0  0  0  0  0  0  0
   18.1810  -11.9726  -16.4369 O   0  0  0  0  0  0  0  0  0  0  0  0
   22.1887   -6.4785  -16.1913 N   0  0  0  0  0  0  0  0  0  0  0  0
   22.6011   -5.2546  -15.5024 C   0  0  1  0  0  0  0  0  0  0  0  0
   22.2170   -4.1231  -16.4674 C   0  0  0  0  0  0  0  0  0  0  0  0
   22.4914   -2.8076  -15.8277 C   0  0  0  0  0  0  0  0  0  0  0  0
   22.0243   -1.7343  -16.8327 C   0  0  0  0  0  0  0  0  0  0  0  0
   22.3375   -0.3936  -16.1597 C   0  0  0  0  0  0  0  0  0  0  0  0
   22.0979    0.6680  -17.0941 N   0  0  0  0  0  0  0  0  0  0  0  0
   21.8842   -5.1781  -14.2237 C   0  0  0  0  0  0  0  0  0  0  0  0
   22.4145   -4.6576  -13.2121 O   0  0  0  0  0  0  0  0  0  0  0  0
   20.5838   -5.6624  -14.0251 O   0  0  0  0  0  0  0  0  0  0  0  0
  2  1  1  1
  2  3  1  0
  4  5  1  0
  4  2  1  0
  5  6  1  6
  7  5  1  0
  7  8  2  0
  9  7  1  0
 10  9  1  0
 10 11  1  1
 12 11  1  0
 12 13  1  0
 13 14  2  0
 15 10  1  0
 16 15  2  0
 17 13  1  0
 18 15  1  0
 19 18  1  0
 19 25  1  0
 19 20  1  6
 21 20  1  0
 22 23  1  0
 22 21  1  0
 23 24  1  0
 25 27  1  0
 26 25  2  0
M  END
$$$$
