LEK.pdb
     RDKit          3D

 27 26  0  0  1  0  0  0  0  0999 V2000
   17.4511  -19.4375    0.9795 C   0  0  0  0  0  0  0  0  0  0  0  0
   17.5163  -18.3510    2.0233 C   0  0  1  0  0  0  0  0  0  0  0  0
   18.3495  -17.1791    1.5540 C   0  0  0  0  0  0  0  0  0  0  0  0
   16.1261  -17.9549    2.3975 C   0  0  0  0  0  0  0  0  0  0  0  0
   15.4815  -18.9989    3.2823 C   0  0  2  0  0  0  0  0  0  0  0  0
   14.0370  -18.9128    3.2504 N   0  0  0  0  0  0  0  0  0  0  0  0
   15.9528  -18.8564    4.6788 C   0  0  0  0  0  0  0  0  0  0  0  0
   15.5670  -17.8771    5.3611 O   0  0  0  0  0  0  0  0  0  0  0  0
   16.8295  -19.7848    5.2886 N   0  0  0  0  0  0  0  0  0  0  0  0
   17.3068  -19.5475    6.6689 C   0  0  1  0  0  0  0  0  0  0  0  0
   17.5837  -20.8656    7.3081 C   0  0  0  0  0  0  0  0  0  0  0  0
   17.9878  -20.7968    8.7425 C   0  0  0  0  0  0  0  0  0  0  0  0
   18.2254  -22.1942    9.2869 C   0  0  0  0  0  0  0  0  0  0  0  0
   19.3864  -22.6191    9.4762 O   0  0  0  0  0  0  0  0  0  0  0  0
   18.4847  -18.6781    6.6456 C   0  0  0  0  0  0  0  0  0  0  0  0
   19.3815  -18.8056    5.7248 O   0  0  0  0  0  0  0  0  0  0  0  0
   17.1298  -22.9701    9.5623 O   0  0  0  0  0  0  0  0  0  0  0  0
   18.7153  -17.6584    7.5965 N   0  0  0  0  0  0  0  0  0  0  0  0
   19.9388  -16.8602    7.5047 C   0  0  1  0  0  0  0  0  0  0  0  0
   19.4756  -15.4176    7.7565 C   0  0  0  0  0  0  0  0  0  0  0  0
   20.6565  -14.5121    7.7825 C   0  0  0  0  0  0  0  0  0  0  0  0
   20.1043  -13.0911    8.0191 C   0  0  0  0  0  0  0  0  0  0  0  0
   21.3318  -12.1743    7.9822 C   0  0  0  0  0  0  0  0  0  0  0  0
   20.9297  -10.8378    8.3135 N   0  0  0  0  0  0  0  0  0  0  0  0
   20.8824  -17.3392    8.5220 C   0  0  0  0  0  0  0  0  0  0  0  0
   22.1214  -17.2038    8.3735 O   0  0  0  0  0  0  0  0  0  0  0  0
   20.4963  -17.9691    9.7133 O   0  0  0  0  0  0  0  0  0  0  0  0
  2  1  1  6
  2  3  1  0
  4  5  1  0
  4  2  1  0
  5  6  1  1
  7  5  1  0
  7  8  2  0
  9  7  1  0
 10  9  1  0
 10 11  1  6
 12 11  1  0
 12 13  1  0
 13 14  2  0
 15 10  1  0
 16 15  2  0
 17 13  1  0
 18 15  1  0
 19 18  1  0
 19 25  1  0
 19 20  1  1
 21 20  1  0
 22 23  1  0
 22 21  1  0
 23 24  1  0
 25 27  1  0
 26 25  2  0
M  END
$$$$
