LEK.pdb
     RDKit          3D

 27 26  0  0  1  0  0  0  0  0999 V2000
   27.4582  -18.5526  -15.3579 C   0  0  0  0  0  0  0  0  0  0  0  0
   26.7016  -19.8511  -15.2329 C   0  0  1  0  0  0  0  0  0  0  0  0
   27.6228  -21.0446  -15.3544 C   0  0  0  0  0  0  0  0  0  0  0  0
   25.9359  -19.8439  -13.9512 C   0  0  0  0  0  0  0  0  0  0  0  0
   25.1238  -21.1105  -13.7945 C   0  0  2  0  0  0  0  0  0  0  0  0
   24.9896  -21.8214  -15.0482 N   0  0  0  0  0  0  0  0  0  0  0  0
   23.7792  -20.8003  -13.2577 C   0  0  0  0  0  0  0  0  0  0  0  0
   23.6781  -20.2172  -12.1517 O   0  0  0  0  0  0  0  0  0  0  0  0
   22.5866  -21.1347  -13.9421 N   0  0  0  0  0  0  0  0  0  0  0  0
   21.2768  -20.7748  -13.3550 C   0  0  1  0  0  0  0  0  0  0  0  0
   20.4624  -20.0878  -14.3978 C   0  0  0  0  0  0  0  0  0  0  0  0
   19.1134  -19.6379  -13.9473 C   0  0  0  0  0  0  0  0  0  0  0  0
   18.3842  -18.9481  -15.0867 C   0  0  0  0  0  0  0  0  0  0  0  0
   17.6758  -17.9391  -14.8761 O   0  0  0  0  0  0  0  0  0  0  0  0
   20.6198  -21.9741  -12.8315 C   0  0  0  0  0  0  0  0  0  0  0  0
   20.7657  -23.1160  -13.4172 O   0  0  0  0  0  0  0  0  0  0  0  0
   18.5282  -19.4662  -16.3472 O   0  0  0  0  0  0  0  0  0  0  0  0
   19.8086  -21.9717  -11.6743 N   0  0  0  0  0  0  0  0  0  0  0  0
   19.1841  -23.2215  -11.2379 C   0  0  1  0  0  0  0  0  0  0  0  0
   19.1099  -23.0998   -9.7086 C   0  0  0  0  0  0  0  0  0  0  0  0
   18.3930  -24.2777   -9.1489 C   0  0  0  0  0  0  0  0  0  0  0  0
   18.3563  -24.0730   -7.6201 C   0  0  0  0  0  0  0  0  0  0  0  0
   17.6454  -25.3133   -7.0679 C   0  0  0  0  0  0  0  0  0  0  0  0
   17.6036  -25.2321   -5.6364 N   0  0  0  0  0  0  0  0  0  0  0  0
   17.8602  -23.3218  -11.8642 C   0  0  0  0  0  0  0  0  0  0  0  0
   17.4438  -24.4097  -12.3315 O   0  0  0  0  0  0  0  0  0  0  0  0
   16.9704  -22.2460  -11.9906 O   0  0  0  0  0  0  0  0  0  0  0  0
  2  1  1  1
  2  3  1  0
  4  5  1  0
  4  2  1  0
  5  6  1  6
  7  5  1  0
  7  8  2  0
  9  7  1  0
 10  9  1  0
 10 11  1  6
 12 11  1  0
 12 13  1  0
 13 14  2  0
 15 10  1  0
 16 15  2  0
 17 13  1  0
 18 15  1  0
 19 18  1  0
 19 25  1  0
 19 20  1  1
 21 20  1  0
 22 23  1  0
 22 21  1  0
 23 24  1  0
 25 27  1  0
 26 25  2  0
M  END
$$$$
