LEK.pdb
     RDKit          3D

 27 26  0  0  1  0  0  0  0  0999 V2000
   26.7731  -21.2796   -6.7436 C   0  0  0  0  0  0  0  0  0  0  0  0
   26.5455  -20.2213   -7.7936 C   0  0  1  0  0  0  0  0  0  0  0  0
   27.8040  -19.4268   -8.0635 C   0  0  0  0  0  0  0  0  0  0  0  0
   25.9994  -20.8687   -9.0233 C   0  0  0  0  0  0  0  0  0  0  0  0
   25.7409  -19.8467  -10.1081 C   0  0  2  0  0  0  0  0  0  0  0  0
   25.2063  -18.6143   -9.5693 N   0  0  0  0  0  0  0  0  0  0  0  0
   24.8045  -20.3898  -11.1184 C   0  0  0  0  0  0  0  0  0  0  0  0
   25.0822  -21.4669  -11.6981 O   0  0  0  0  0  0  0  0  0  0  0  0
   23.5948  -19.7429  -11.4658 N   0  0  0  0  0  0  0  0  0  0  0  0
   22.7287  -20.3199  -12.5177 C   0  0  1  0  0  0  0  0  0  0  0  0
   21.4318  -20.7173  -11.8990 C   0  0  0  0  0  0  0  0  0  0  0  0
   20.4257  -21.2739  -12.8495 C   0  0  0  0  0  0  0  0  0  0  0  0
   19.1812  -21.7112  -12.0974 C   0  0  0  0  0  0  0  0  0  0  0  0
   19.0957  -21.5617  -10.8586 O   0  0  0  0  0  0  0  0  0  0  0  0
   22.5577  -19.3553  -13.6060 C   0  0  0  0  0  0  0  0  0  0  0  0
   22.2900  -18.1169  -13.3547 O   0  0  0  0  0  0  0  0  0  0  0  0
   18.1600  -22.2724  -12.8187 O   0  0  0  0  0  0  0  0  0  0  0  0
   22.6789  -19.6971  -14.9719 N   0  0  0  0  0  0  0  0  0  0  0  0
   22.5733  -18.6443  -15.9832 C   0  0  1  0  0  0  0  0  0  0  0  0
   23.3178  -19.2077  -17.2028 C   0  0  0  0  0  0  0  0  0  0  0  0
   23.3806  -18.1728  -18.2705 C   0  0  0  0  0  0  0  0  0  0  0  0
   24.2389  -18.7739  -19.4028 C   0  0  0  0  0  0  0  0  0  0  0  0
   24.3581  -17.6596  -20.4483 C   0  0  0  0  0  0  0  0  0  0  0  0
   25.1854  -18.1154  -21.5278 N   0  0  0  0  0  0  0  0  0  0  0  0
   21.1509  -18.3985  -16.2501 C   0  0  0  0  0  0  0  0  0  0  0  0
   20.3478  -19.3486  -16.4162 O   0  0  0  0  0  0  0  0  0  0  0  0
   20.5803  -17.1210  -16.3386 O   0  0  0  0  0  0  0  0  0  0  0  0
  2  1  1  1
  2  3  1  0
  4  5  1  0
  4  2  1  0
  5  6  1  1
  7  5  1  0
  7  8  2  0
  9  7  1  0
 10  9  1  0
 10 11  1  1
 12 11  1  0
 12 13  1  0
 13 14  2  0
 15 10  1  0
 16 15  2  0
 17 13  1  0
 18 15  1  0
 19 18  1  0
 19 25  1  0
 19 20  1  6
 21 20  1  0
 22 23  1  0
 22 21  1  0
 23 24  1  0
 25 27  1  0
 26 25  2  0
M  END
$$$$
