LEK.pdb
     RDKit          3D

 27 26  0  0  1  0  0  0  0  0999 V2000
    7.9699  -22.5489   -2.4500 C   0  0  0  0  0  0  0  0  0  0  0  0
    9.3126  -23.1417   -2.1037 C   0  0  1  0  0  0  0  0  0  0  0  0
    9.3115  -24.6466   -2.2569 C   0  0  0  0  0  0  0  0  0  0  0  0
   10.3628  -22.4802   -2.9337 C   0  0  0  0  0  0  0  0  0  0  0  0
   10.5235  -21.0255   -2.5510 C   0  0  2  0  0  0  0  0  0  0  0  0
   10.6537  -20.1748   -3.7148 N   0  0  0  0  0  0  0  0  0  0  0  0
   11.7050  -20.8479   -1.6763 C   0  0  0  0  0  0  0  0  0  0  0  0
   12.8538  -20.8922   -2.1779 O   0  0  0  0  0  0  0  0  0  0  0  0
   11.5984  -20.6276   -0.2825 N   0  0  0  0  0  0  0  0  0  0  0  0
   12.8234  -20.4680    0.5320 C   0  0  1  0  0  0  0  0  0  0  0  0
   12.6066  -19.3567    1.5019 C   0  0  0  0  0  0  0  0  0  0  0  0
   13.7818  -19.0343    2.3624 C   0  0  0  0  0  0  0  0  0  0  0  0
   13.4803  -17.8236    3.2279 C   0  0  0  0  0  0  0  0  0  0  0  0
   13.4961  -16.6704    2.7440 O   0  0  0  0  0  0  0  0  0  0  0  0
   13.1495  -21.7329    1.1935 C   0  0  0  0  0  0  0  0  0  0  0  0
   12.2568  -22.3713    1.8746 O   0  0  0  0  0  0  0  0  0  0  0  0
   13.1918  -18.0366    4.5506 O   0  0  0  0  0  0  0  0  0  0  0  0
   14.4261  -22.3356    1.1290 N   0  0  0  0  0  0  0  0  0  0  0  0
   14.6395  -23.6274    1.7832 C   0  0  1  0  0  0  0  0  0  0  0  0
   15.2470  -24.5165    0.6880 C   0  0  0  0  0  0  0  0  0  0  0  0
   14.2561  -25.5480    0.2764 C   0  0  0  0  0  0  0  0  0  0  0  0
   14.9787  -26.4587   -0.7378 C   0  0  0  0  0  0  0  0  0  0  0  0
   13.9052  -27.4323   -1.2361 C   0  0  0  0  0  0  0  0  0  0  0  0
   14.4890  -28.3236   -2.1965 N   0  0  0  0  0  0  0  0  0  0  0  0
   15.5464  -23.4275    2.9200 C   0  0  0  0  0  0  0  0  0  0  0  0
   15.7854  -24.3552    3.7309 O   0  0  0  0  0  0  0  0  0  0  0  0
   16.2070  -22.2213    3.1918 O   0  0  0  0  0  0  0  0  0  0  0  0
  2  1  1  6
  2  3  1  0
  4  5  1  0
  4  2  1  0
  5  6  1  6
  7  5  1  0
  7  8  2  0
  9  7  1  0
 10  9  1  0
 10 11  1  1
 12 11  1  0
 12 13  1  0
 13 14  2  0
 15 10  1  0
 16 15  2  0
 17 13  1  0
 18 15  1  0
 19 18  1  0
 19 25  1  0
 19 20  1  6
 21 20  1  0
 22 23  1  0
 22 21  1  0
 23 24  1  0
 25 27  1  0
 26 25  2  0
M  END
$$$$
