LEK.pdb
     RDKit          3D

 27 26  0  0  1  0  0  0  0  0999 V2000
   23.1106  -32.1686  -20.3349 C   0  0  0  0  0  0  0  0  0  0  0  0
   24.2327  -32.0332  -19.3366 C   0  0  1  0  0  0  0  0  0  0  0  0
   25.5854  -32.0802  -20.0117 C   0  0  0  0  0  0  0  0  0  0  0  0
   24.0284  -30.7840  -18.5447 C   0  0  0  0  0  0  0  0  0  0  0  0
   25.1725  -30.5559  -17.5818 C   0  0  2  0  0  0  0  0  0  0  0  0
   25.0755  -31.4126  -16.4192 N   0  0  0  0  0  0  0  0  0  0  0  0
   25.2104  -29.1404  -17.1490 C   0  0  0  0  0  0  0  0  0  0  0  0
   24.5173  -28.7785  -16.1682 O   0  0  0  0  0  0  0  0  0  0  0  0
   26.0020  -28.1631  -17.7978 N   0  0  0  0  0  0  0  0  0  0  0  0
   26.0189  -26.7742  -17.2878 C   0  0  1  0  0  0  0  0  0  0  0  0
   27.4170  -26.2610  -17.3561 C   0  0  0  0  0  0  0  0  0  0  0  0
   28.3056  -26.7061  -16.2437 C   0  0  0  0  0  0  0  0  0  0  0  0
   28.5665  -28.1984  -16.3473 C   0  0  0  0  0  0  0  0  0  0  0  0
   28.9917  -28.7020  -17.4102 O   0  0  0  0  0  0  0  0  0  0  0  0
   25.0821  -25.9510  -18.0550 C   0  0  0  0  0  0  0  0  0  0  0  0
   25.0700  -25.9933  -19.3459 O   0  0  0  0  0  0  0  0  0  0  0  0
   28.3212  -28.9706  -15.2420 O   0  0  0  0  0  0  0  0  0  0  0  0
   24.1429  -25.0815  -17.4559 N   0  0  0  0  0  0  0  0  0  0  0  0
   23.2461  -24.3015  -18.3101 C   0  0  1  0  0  0  0  0  0  0  0  0
   21.9662  -24.1399  -17.4765 C   0  0  0  0  0  0  0  0  0  0  0  0
   20.9389  -23.4175  -18.2750 C   0  0  0  0  0  0  0  0  0  0  0  0
   19.6764  -23.3486  -17.3910 C   0  0  0  0  0  0  0  0  0  0  0  0
   18.6188  -22.6570  -18.2581 C   0  0  0  0  0  0  0  0  0  0  0  0
   17.4270  -22.4673  -17.4827 N   0  0  0  0  0  0  0  0  0  0  0  0
   23.8926  -23.0186  -18.6121 C   0  0  0  0  0  0  0  0  0  0  0  0
   23.6652  -22.4144  -19.6884 O   0  0  0  0  0  0  0  0  0  0  0  0
   24.7918  -22.3734  -17.7516 O   0  0  0  0  0  0  0  0  0  0  0  0
  2  1  1  6
  2  3  1  0
  4  5  1  0
  4  2  1  0
  5  6  1  1
  7  5  1  0
  7  8  2  0
  9  7  1  0
 10  9  1  0
 10 11  1  6
 12 11  1  0
 12 13  1  0
 13 14  2  0
 15 10  1  0
 16 15  2  0
 17 13  1  0
 18 15  1  0
 19 18  1  0
 19 25  1  0
 19 20  1  1
 21 20  1  0
 22 23  1  0
 22 21  1  0
 23 24  1  0
 25 27  1  0
 26 25  2  0
M  END
$$$$
