LEK.pdb
     RDKit          3D

 27 26  0  0  1  0  0  0  0  0999 V2000
   27.4852  -15.5085  -16.3675 C   0  0  0  0  0  0  0  0  0  0  0  0
   26.4300  -16.5103  -15.9710 C   0  0  1  0  0  0  0  0  0  0  0  0
   26.0714  -16.3890  -14.5066 C   0  0  0  0  0  0  0  0  0  0  0  0
   25.2473  -16.3486  -16.8679 C   0  0  0  0  0  0  0  0  0  0  0  0
   24.1168  -17.2622  -16.4489 C   0  0  2  0  0  0  0  0  0  0  0  0
   24.2377  -18.5754  -17.0455 N   0  0  0  0  0  0  0  0  0  0  0  0
   22.8101  -16.6717  -16.8183 C   0  0  0  0  0  0  0  0  0  0  0  0
   22.4985  -16.5769  -18.0296 O   0  0  0  0  0  0  0  0  0  0  0  0
   21.8836  -16.2028  -15.8569 N   0  0  0  0  0  0  0  0  0  0  0  0
   20.6198  -15.5736  -16.3001 C   0  0  1  0  0  0  0  0  0  0  0  0
   19.5345  -15.9766  -15.3608 C   0  0  0  0  0  0  0  0  0  0  0  0
   18.7938  -17.2122  -15.7482 C   0  0  0  0  0  0  0  0  0  0  0  0
   17.6460  -17.4581  -14.7849 C   0  0  0  0  0  0  0  0  0  0  0  0
   16.5028  -17.7368  -15.2085 O   0  0  0  0  0  0  0  0  0  0  0  0
   20.7861  -14.1207  -16.3733 C   0  0  0  0  0  0  0  0  0  0  0  0
   21.7751  -13.5386  -15.7805 O   0  0  0  0  0  0  0  0  0  0  0  0
   17.9044  -17.3645  -13.4422 O   0  0  0  0  0  0  0  0  0  0  0  0
   19.9070  -13.2740  -17.0855 N   0  0  0  0  0  0  0  0  0  0  0  0
   20.2697  -11.8693  -17.2797 C   0  0  1  0  0  0  0  0  0  0  0  0
   21.5768  -11.9183  -18.0848 C   0  0  0  0  0  0  0  0  0  0  0  0
   21.9898  -10.5359  -18.4495 C   0  0  0  0  0  0  0  0  0  0  0  0
   23.2673  -10.6791  -19.3027 C   0  0  0  0  0  0  0  0  0  0  0  0
   23.7059   -9.2431  -19.6096 C   0  0  0  0  0  0  0  0  0  0  0  0
   22.7506   -8.6391  -20.4929 N   0  0  0  0  0  0  0  0  0  0  0  0
   19.1804  -11.2051  -18.0056 C   0  0  0  0  0  0  0  0  0  0  0  0
   18.2880  -11.8691  -18.5871 O   0  0  0  0  0  0  0  0  0  0  0  0
   19.0429   -9.8138  -18.1093 O   0  0  0  0  0  0  0  0  0  0  0  0
  2  1  1  6
  2  3  1  0
  4  5  1  0
  4  2  1  0
  5  6  1  6
  7  5  1  0
  7  8  2  0
  9  7  1  0
 10  9  1  0
 10 11  1  1
 12 11  1  0
 12 13  1  0
 13 14  2  0
 15 10  1  0
 16 15  2  0
 17 13  1  0
 18 15  1  0
 19 18  1  0
 19 25  1  0
 19 20  1  6
 21 20  1  0
 22 23  1  0
 22 21  1  0
 23 24  1  0
 25 27  1  0
 26 25  2  0
M  END
$$$$
