LEK.pdb
     RDKit          3D

 27 26  0  0  1  0  0  0  0  0999 V2000
   26.7403  -18.3090  -15.4132 C   0  0  0  0  0  0  0  0  0  0  0  0
   26.0307  -19.6322  -15.2725 C   0  0  1  0  0  0  0  0  0  0  0  0
   27.0108  -20.7793  -15.1645 C   0  0  0  0  0  0  0  0  0  0  0  0
   25.0989  -19.5606  -14.1080 C   0  0  0  0  0  0  0  0  0  0  0  0
   24.3761  -20.8742  -13.9069 C   0  0  2  0  0  0  0  0  0  0  0  0
   23.9466  -21.4492  -15.1639 N   0  0  0  0  0  0  0  0  0  0  0  0
   23.2024  -20.6891  -13.0232 C   0  0  0  0  0  0  0  0  0  0  0  0
   23.3663  -20.2109  -11.8753 O   0  0  0  0  0  0  0  0  0  0  0  0
   21.8869  -21.0308  -13.4174 N   0  0  0  0  0  0  0  0  0  0  0  0
   20.7550  -20.7751  -12.4993 C   0  0  1  0  0  0  0  0  0  0  0  0
   19.7714  -19.8952  -13.1927 C   0  0  0  0  0  0  0  0  0  0  0  0
   18.5744  -19.5280  -12.3816 C   0  0  0  0  0  0  0  0  0  0  0  0
   17.5785  -18.7628  -13.2351 C   0  0  0  0  0  0  0  0  0  0  0  0
   16.5846  -19.3379  -13.7306 O   0  0  0  0  0  0  0  0  0  0  0  0
   20.1655  -22.0450  -12.0705 C   0  0  0  0  0  0  0  0  0  0  0  0
   20.0631  -23.0363  -12.8922 O   0  0  0  0  0  0  0  0  0  0  0  0
   17.8049  -17.4272  -13.4428 O   0  0  0  0  0  0  0  0  0  0  0  0
   19.6875  -22.2754  -10.7607 N   0  0  0  0  0  0  0  0  0  0  0  0
   19.1104  -23.5794  -10.4306 C   0  0  1  0  0  0  0  0  0  0  0  0
   19.0103  -23.5778   -8.8979 C   0  0  0  0  0  0  0  0  0  0  0  0
   18.3746  -24.8426   -8.4384 C   0  0  0  0  0  0  0  0  0  0  0  0
   18.4331  -24.8187   -6.8969 C   0  0  0  0  0  0  0  0  0  0  0  0
   17.7617  -26.1223   -6.4513 C   0  0  0  0  0  0  0  0  0  0  0  0
   17.7588  -26.1828   -5.0182 N   0  0  0  0  0  0  0  0  0  0  0  0
   17.8007  -23.6861  -11.0849 C   0  0  0  0  0  0  0  0  0  0  0  0
   17.4053  -24.7728  -11.5730 O   0  0  0  0  0  0  0  0  0  0  0  0
   16.9024  -22.6181  -11.2173 O   0  0  0  0  0  0  0  0  0  0  0  0
  2  1  1  1
  2  3  1  0
  4  5  1  0
  4  2  1  0
  5  6  1  6
  7  5  1  0
  7  8  2  0
  9  7  1  0
 10  9  1  0
 10 11  1  6
 12 11  1  0
 12 13  1  0
 13 14  2  0
 15 10  1  0
 16 15  2  0
 17 13  1  0
 18 15  1  0
 19 18  1  0
 19 25  1  0
 19 20  1  1
 21 20  1  0
 22 23  1  0
 22 21  1  0
 23 24  1  0
 25 27  1  0
 26 25  2  0
M  END
$$$$
