ATT.pdb
     RDKit          3D

 20 19  0  0  1  0  0  0  0  0999 V2000
   18.9042  -12.5801  -18.9676 C   0  0  0  0  0  0  0  0  0  0  0  0
   20.2205  -12.6937  -18.2439 C   0  0  2  0  0  0  0  0  0  0  0  0
   20.4400  -14.0526  -17.8418 N   0  0  0  0  0  0  0  0  0  0  0  0
   20.2166  -11.7582  -17.0870 C   0  0  0  0  0  0  0  0  0  0  0  0
   19.4027  -11.9397  -16.1480 O   0  0  0  0  0  0  0  0  0  0  0  0
   22.3663  -11.1512  -14.3290 C   0  0  0  0  0  0  0  0  0  0  0  0
   22.3010   -9.8190  -15.0290 C   0  0  1  0  0  0  0  0  0  0  0  0
   23.4081   -9.6502  -15.8584 O   0  0  0  0  0  0  0  0  0  0  0  0
   21.0526   -9.7388  -15.8817 C   0  0  2  0  0  0  0  0  0  0  0  0
   21.0969  -10.6617  -16.9949 N   0  0  0  0  0  0  0  0  0  0  0  0
   20.8224   -8.3716  -16.3743 C   0  0  0  0  0  0  0  0  0  0  0  0
   21.3397   -7.9969  -17.4501 O   0  0  0  0  0  0  0  0  0  0  0  0
   18.0245   -4.2873  -16.0951 C   0  0  0  0  0  0  0  0  0  0  0  0
   18.4571   -5.5722  -15.4655 C   0  0  1  0  0  0  0  0  0  0  0  0
   17.4482   -6.5310  -15.6061 O   0  0  0  0  0  0  0  0  0  0  0  0
   19.7142   -6.1288  -16.1197 C   0  0  2  0  0  0  0  0  0  0  0  0
   20.0040   -7.4571  -15.6267 N   0  0  0  0  0  0  0  0  0  0  0  0
   20.8762   -5.2255  -15.8599 C   0  0  0  0  0  0  0  0  0  0  0  0
   21.1863   -4.2223  -16.7667 O   0  0  0  0  0  0  0  0  0  0  0  0
   21.5885   -5.3486  -14.8340 O   0  0  0  0  0  0  0  0  0  0  0  0
  2  3  1  0
  2  4  1  0
  2  1  1  1
  4  5  2  0
  7  6  1  6
  7  9  1  0
  8  7  1  0
  9 11  1  0
 10  4  1  0
  9 10  1  6
 11 17  1  0
 11 12  2  0
 14 13  1  6
 14 16  1  0
 15 14  1  0
 16 18  1  0
 16 17  1  1
 18 20  2  0
 18 19  1  0
M  END
$$$$
