ATT.pdb
     RDKit          3D

 20 19  0  0  1  0  0  0  0  0999 V2000
   20.1594  -14.1494  -19.5463 C   0  0  0  0  0  0  0  0  0  0  0  0
   20.7320  -12.8101  -19.1619 C   0  0  2  0  0  0  0  0  0  0  0  0
   21.7253  -12.9794  -18.1415 N   0  0  0  0  0  0  0  0  0  0  0  0
   19.6231  -11.9193  -18.7254 C   0  0  0  0  0  0  0  0  0  0  0  0
   18.6936  -11.6516  -19.5263 O   0  0  0  0  0  0  0  0  0  0  0  0
   17.0074  -12.3381  -16.1839 C   0  0  0  0  0  0  0  0  0  0  0  0
   17.7504  -11.0830  -15.8075 C   0  0  1  0  0  0  0  0  0  0  0  0
   18.7025  -11.3564  -14.8273 O   0  0  0  0  0  0  0  0  0  0  0  0
   18.4637  -10.5170  -17.0170 C   0  0  2  0  0  0  0  0  0  0  0  0
   19.5668  -11.3539  -17.4360 N   0  0  0  0  0  0  0  0  0  0  0  0
   18.9406   -9.1471  -16.7702 C   0  0  0  0  0  0  0  0  0  0  0  0
   20.1251   -8.9488  -16.4197 O   0  0  0  0  0  0  0  0  0  0  0  0
   16.4948   -5.7048  -17.8653 C   0  0  0  0  0  0  0  0  0  0  0  0
   17.9881   -5.7716  -17.8649 C   0  0  1  0  0  0  0  0  0  0  0  0
   18.5187   -4.4933  -17.6626 O   0  0  0  0  0  0  0  0  0  0  0  0
   18.5148   -6.6689  -16.7533 C   0  0  2  0  0  0  0  0  0  0  0  0
   18.0531   -8.0281  -16.9291 N   0  0  0  0  0  0  0  0  0  0  0  0
   18.0784   -6.1522  -15.4205 C   0  0  0  0  0  0  0  0  0  0  0  0
   18.5627   -4.9365  -14.9597 O   0  0  0  0  0  0  0  0  0  0  0  0
   17.2775   -6.7926  -14.6969 O   0  0  0  0  0  0  0  0  0  0  0  0
  2  3  1  0
  2  4  1  0
  2  1  1  1
  4  5  2  0
  7  6  1  6
  7  9  1  0
  8  7  1  0
  9 11  1  0
 10  4  1  0
  9 10  1  1
 11 17  1  0
 11 12  2  0
 14 13  1  1
 14 16  1  0
 15 14  1  0
 16 18  1  0
 16 17  1  6
 18 20  2  0
 18 19  1  0
M  END
$$$$
