ATT.pdb
     RDKit          3D

 20 19  0  0  1  0  0  0  0  0999 V2000
   19.8147  -12.2691  -19.0272 C   0  0  0  0  0  0  0  0  0  0  0  0
   20.8856  -11.6311  -18.1815 C   0  0  2  0  0  0  0  0  0  0  0  0
   21.2942  -12.5367  -17.1474 N   0  0  0  0  0  0  0  0  0  0  0  0
   20.3667  -10.3487  -17.6336 C   0  0  0  0  0  0  0  0  0  0  0  0
   19.9638   -9.4579  -18.4218 O   0  0  0  0  0  0  0  0  0  0  0  0
   17.5289   -9.5352  -15.4228 C   0  0  0  0  0  0  0  0  0  0  0  0
   18.7375   -8.9428  -14.7464 C   0  0  1  0  0  0  0  0  0  0  0  0
   19.1653   -9.7656  -13.7062 O   0  0  0  0  0  0  0  0  0  0  0  0
   19.8730   -8.8023  -15.7378 C   0  0  2  0  0  0  0  0  0  0  0  0
   20.3057  -10.0838  -16.2510 N   0  0  0  0  0  0  0  0  0  0  0  0
   21.0166   -8.0865  -15.1506 C   0  0  0  0  0  0  0  0  0  0  0  0
   21.8911   -8.7160  -14.5146 O   0  0  0  0  0  0  0  0  0  0  0  0
   23.4290   -5.7917  -17.0382 C   0  0  0  0  0  0  0  0  0  0  0  0
   22.8565   -5.0264  -15.8889 C   0  0  1  0  0  0  0  0  0  0  0  0
   21.8067   -4.2171  -16.3356 O   0  0  0  0  0  0  0  0  0  0  0  0
   22.2994   -5.9501  -14.8144 C   0  0  2  0  0  0  0  0  0  0  0  0
   21.1392   -6.6628  -15.3018 N   0  0  0  0  0  0  0  0  0  0  0  0
   21.9388   -5.1662  -13.5941 C   0  0  0  0  0  0  0  0  0  0  0  0
   22.9341   -4.5422  -12.8559 O   0  0  0  0  0  0  0  0  0  0  0  0
   20.7485   -5.0540  -13.2123 O   0  0  0  0  0  0  0  0  0  0  0  0
  2  3  1  0
  2  4  1  0
  2  1  1  1
  4  5  2  0
  7  6  1  6
  7  9  1  0
  8  7  1  0
  9 11  1  0
 10  4  1  0
  9 10  1  1
 11 17  1  0
 11 12  2  0
 14 13  1  6
 14 16  1  0
 15 14  1  0
 16 18  1  0
 16 17  1  6
 18 20  2  0
 18 19  1  0
M  END
$$$$
