ATT.pdb
     RDKit          3D

 20 19  0  0  1  0  0  0  0  0999 V2000
   14.3681  -14.0611  -15.8114 C   0  0  0  0  0  0  0  0  0  0  0  0
   15.7644  -13.4960  -15.8030 C   0  0  2  0  0  0  0  0  0  0  0  0
   16.6607  -14.4207  -15.1722 N   0  0  0  0  0  0  0  0  0  0  0  0
   15.7455  -12.1750  -15.1186 C   0  0  0  0  0  0  0  0  0  0  0  0
   15.2376  -11.1847  -15.7002 O   0  0  0  0  0  0  0  0  0  0  0  0
   16.1849   -9.4871  -11.0022 C   0  0  0  0  0  0  0  0  0  0  0  0
   16.2930  -10.8399  -11.6558 C   0  0  1  0  0  0  0  0  0  0  0  0
   15.2509  -11.6663  -11.2395 O   0  0  0  0  0  0  0  0  0  0  0  0
   16.2147  -10.6993  -13.1611 C   0  0  2  0  0  0  0  0  0  0  0  0
   16.2791  -11.9810  -13.8289 N   0  0  0  0  0  0  0  0  0  0  0  0
   17.2704   -9.8132  -13.6760 C   0  0  0  0  0  0  0  0  0  0  0  0
   18.4703  -10.1608  -13.6063 O   0  0  0  0  0  0  0  0  0  0  0  0
   17.6000   -8.4290  -17.2147 C   0  0  0  0  0  0  0  0  0  0  0  0
   17.5473   -7.2796  -16.2605 C   0  0  1  0  0  0  0  0  0  0  0  0
   16.2442   -6.7747  -16.1998 O   0  0  0  0  0  0  0  0  0  0  0  0
   17.9452   -7.6948  -14.8507 C   0  0  2  0  0  0  0  0  0  0  0  0
   16.9342   -8.5449  -14.2618 N   0  0  0  0  0  0  0  0  0  0  0  0
   18.1552   -6.4873  -13.9954 C   0  0  0  0  0  0  0  0  0  0  0  0
   19.2512   -5.6664  -14.2181 O   0  0  0  0  0  0  0  0  0  0  0  0
   17.3605   -6.1900  -13.0707 O   0  0  0  0  0  0  0  0  0  0  0  0
  2  3  1  0
  2  4  1  0
  2  1  1  1
  4  5  2  0
  7  6  1  1
  7  9  1  0
  8  7  1  0
  9 11  1  0
 10  4  1  0
  9 10  1  6
 11 17  1  0
 11 12  2  0
 14 13  1  6
 14 16  1  0
 15 14  1  0
 16 18  1  0
 16 17  1  1
 18 20  2  0
 18 19  1  0
M  END
$$$$
