ATT.pdb
     RDKit          3D

 20 19  0  0  1  0  0  0  0  0999 V2000
   22.8397  -20.3224  -10.1164 C   0  0  0  0  0  0  0  0  0  0  0  0
   24.2304  -20.8641   -9.9124 C   0  0  2  0  0  0  0  0  0  0  0  0
   24.6086  -20.7303   -8.5356 N   0  0  0  0  0  0  0  0  0  0  0  0
   25.1643  -20.1499  -10.8243 C   0  0  0  0  0  0  0  0  0  0  0  0
   25.9003  -19.2408  -10.3671 O   0  0  0  0  0  0  0  0  0  0  0  0
   28.0021  -21.4430  -12.5973 C   0  0  0  0  0  0  0  0  0  0  0  0
   27.1973  -20.7644  -13.6747 C   0  0  1  0  0  0  0  0  0  0  0  0
   26.4741  -21.7041  -14.4068 O   0  0  0  0  0  0  0  0  0  0  0  0
   26.2185  -19.7883  -13.0575 C   0  0  2  0  0  0  0  0  0  0  0  0
   25.2624  -20.4508  -12.1974 N   0  0  0  0  0  0  0  0  0  0  0  0
   25.5107  -19.0103  -14.0865 C   0  0  0  0  0  0  0  0  0  0  0  0
   24.2834  -19.1758  -14.2644 O   0  0  0  0  0  0  0  0  0  0  0  0
   26.1713  -15.0356  -14.8012 C   0  0  0  0  0  0  0  0  0  0  0  0
   26.2624  -15.8904  -16.0241 C   0  0  1  0  0  0  0  0  0  0  0  0
   27.6026  -16.1823  -16.2984 O   0  0  0  0  0  0  0  0  0  0  0  0
   25.5311  -17.2139  -15.8460 C   0  0  2  0  0  0  0  0  0  0  0  0
   26.2203  -18.0567  -14.8940 N   0  0  0  0  0  0  0  0  0  0  0  0
   25.4125  -17.9204  -17.1576 C   0  0  0  0  0  0  0  0  0  0  0  0
   26.0886  -19.1146  -17.3615 O   0  0  0  0  0  0  0  0  0  0  0  0
   24.7114  -17.4604  -18.0914 O   0  0  0  0  0  0  0  0  0  0  0  0
  2  3  1  0
  2  4  1  0
  2  1  1  1
  4  5  2  0
  7  6  1  1
  7  9  1  0
  8  7  1  0
  9 11  1  0
 10  4  1  0
  9 10  1  6
 11 17  1  0
 11 12  2  0
 14 13  1  1
 14 16  1  0
 15 14  1  0
 16 18  1  0
 16 17  1  1
 18 20  2  0
 18 19  1  0
M  END
$$$$
