ATT.pdb
     RDKit          3D

 20 19  0  0  1  0  0  0  0  0999 V2000
   17.5506  -12.6370  -17.5915 C   0  0  0  0  0  0  0  0  0  0  0  0
   18.7900  -12.2246  -16.8411 C   0  0  2  0  0  0  0  0  0  0  0  0
   18.9376  -13.0298  -15.6637 N   0  0  0  0  0  0  0  0  0  0  0  0
   18.7004  -10.7739  -16.5230 C   0  0  0  0  0  0  0  0  0  0  0  0
   18.6246   -9.9395  -17.4584 O   0  0  0  0  0  0  0  0  0  0  0  0
   17.4263   -9.4713  -12.7878 C   0  0  0  0  0  0  0  0  0  0  0  0
   17.3688   -8.5974  -14.0134 C   0  0  1  0  0  0  0  0  0  0  0  0
   17.3991   -7.2515  -13.6533 O   0  0  0  0  0  0  0  0  0  0  0  0
   18.5576   -8.8759  -14.9085 C   0  0  2  0  0  0  0  0  0  0  0  0
   18.6966  -10.2858  -15.2011 N   0  0  0  0  0  0  0  0  0  0  0  0
   19.8057   -8.3609  -14.3239 C   0  0  0  0  0  0  0  0  0  0  0  0
   20.3469   -8.9630  -13.3699 O   0  0  0  0  0  0  0  0  0  0  0  0
   23.0959   -8.0944  -15.8960 C   0  0  0  0  0  0  0  0  0  0  0  0
   22.7249   -6.7061  -15.4847 C   0  0  1  0  0  0  0  0  0  0  0  0
   22.1659   -6.0244  -16.5708 O   0  0  0  0  0  0  0  0  0  0  0  0
   21.6964   -6.7034  -14.3620 C   0  0  2  0  0  0  0  0  0  0  0  0
   20.4126   -7.1656  -14.8415 N   0  0  0  0  0  0  0  0  0  0  0  0
   21.5602   -5.3303  -13.7880 C   0  0  0  0  0  0  0  0  0  0  0  0
   22.6228   -4.7615  -13.1008 O   0  0  0  0  0  0  0  0  0  0  0  0
   20.5010   -4.6683  -13.9102 O   0  0  0  0  0  0  0  0  0  0  0  0
  2  3  1  0
  2  4  1  0
  2  1  1  1
  4  5  2  0
  7  6  1  1
  7  9  1  0
  8  7  1  0
  9 11  1  0
 10  4  1  0
  9 10  1  1
 11 17  1  0
 11 12  2  0
 14 13  1  6
 14 16  1  0
 15 14  1  0
 16 18  1  0
 16 17  1  6
 18 20  2  0
 18 19  1  0
M  END
$$$$
