IPF.pdb
     RDKit          3D

 27 28  0  0  1  0  0  0  0  0999 V2000
   20.8615  -18.1215  -11.2515 C   0  0  0  0  0  0  0  0  0  0  0  0
   21.0470  -19.4735  -11.8735 C   0  0  0  0  0  0  0  0  0  0  0  0
   21.7631  -19.4342  -13.1872 C   0  0  2  0  0  0  0  0  0  0  0  0
   21.0117  -18.6404  -14.2324 C   0  0  0  0  0  0  0  0  0  0  0  0
   22.1696  -20.8086  -13.6879 C   0  0  2  0  0  0  0  0  0  0  0  0
   20.9807  -21.6024  -13.7758 N   0  0  0  0  0  0  0  0  0  0  0  0
   23.0804  -21.3858  -12.6813 C   0  0  0  0  0  0  0  0  0  0  0  0
   22.5095  -22.2326  -11.8927 O   0  0  0  0  0  0  0  0  0  0  0  0
   24.4480  -21.1180  -12.5009 N   0  0  0  0  0  0  0  0  0  0  0  0
   25.2470  -20.1819  -13.2113 C   0  0  0  0  0  0  0  0  0  0  0  0
   26.6749  -20.6790  -13.0205 C   0  0  0  0  0  0  0  0  0  0  0  0
   26.5396  -22.0214  -12.3274 C   0  0  0  0  0  0  0  0  0  0  0  0
   25.2817  -21.7588  -11.5163 C   0  0  1  0  0  0  0  0  0  0  0  0
   25.6561  -20.8242  -10.4172 C   0  0  0  0  0  0  0  0  0  0  0  0
   25.6362  -19.5727  -10.5387 O   0  0  0  0  0  0  0  0  0  0  0  0
   26.0552  -21.3484   -9.1719 N   0  0  0  0  0  0  0  0  0  0  0  0
   26.4269  -20.4559   -8.0902 C   0  0  1  0  0  0  0  0  0  0  0  0
   27.0188  -21.2584   -6.9322 C   0  0  0  0  0  0  0  0  0  0  0  0
   27.6658  -20.3806   -5.9261 C   0  0  0  0  0  0  0  0  0  0  0  0
   27.2033  -20.3482   -4.6124 C   0  0  0  0  0  0  0  0  0  0  0  0
   27.7671  -19.5472   -3.6420 C   0  0  0  0  0  0  0  0  0  0  0  0
   28.8351  -18.7338   -3.9576 C   0  0  0  0  0  0  0  0  0  0  0  0
   29.3184  -18.7371   -5.2369 C   0  0  0  0  0  0  0  0  0  0  0  0
   28.7320  -19.5557   -6.2020 C   0  0  0  0  0  0  0  0  0  0  0  0
   27.4897  -19.5581   -8.5929 C   0  0  0  0  0  0  0  0  0  0  0  0
   28.4006  -19.9921   -9.3405 O   0  0  0  0  0  0  0  0  0  0  0  0
   27.5499  -18.2072   -8.2802 O   0  0  0  0  0  0  0  0  0  0  0  0
  2  3  1  0
  2  1  1  0
  3  5  1  0
  3  4  1  6
  5  6  1  1
  7  8  2  0
  7  5  1  0
  9  7  1  0
 10  9  1  0
 11 10  1  0
 12 11  1  0
 12 13  1  0
 13  9  1  0
 13 14  1  1
 14 15  2  0
 16 14  1  0
 17 16  1  0
 17 18  1  1
 19 18  1  0
 19 20  2  0
 21 20  1  0
 22 21  2  0
 23 24  2  0
 23 22  1  0
 24 19  1  0
 25 17  1  0
 26 25  2  0
 27 25  1  0
M  END
$$$$
