IPF.pdb
     RDKit          3D

 27 28  0  0  1  0  0  0  0  0999 V2000
   26.0996  -14.4378  -15.0441 C   0  0  0  0  0  0  0  0  0  0  0  0
   25.8235  -15.8166  -15.5655 C   0  0  0  0  0  0  0  0  0  0  0  0
   25.9281  -16.8831  -14.5207 C   0  0  2  0  0  0  0  0  0  0  0  0
   27.2755  -16.8899  -13.8336 C   0  0  0  0  0  0  0  0  0  0  0  0
   25.5319  -18.2580  -15.0281 C   0  0  2  0  0  0  0  0  0  0  0  0
   24.2719  -18.1227  -15.6954 N   0  0  0  0  0  0  0  0  0  0  0  0
   25.3791  -19.1294  -13.8476 C   0  0  0  0  0  0  0  0  0  0  0  0
   24.2264  -19.0287  -13.2766 O   0  0  0  0  0  0  0  0  0  0  0  0
   26.3213  -20.0191  -13.3043 N   0  0  0  0  0  0  0  0  0  0  0  0
   27.7057  -20.1071  -13.6126 C   0  0  0  0  0  0  0  0  0  0  0  0
   28.0992  -21.5187  -13.1940 C   0  0  0  0  0  0  0  0  0  0  0  0
   26.7961  -22.2024  -12.8262 C   0  0  0  0  0  0  0  0  0  0  0  0
   26.0257  -21.0047  -12.2961 C   0  0  1  0  0  0  0  0  0  0  0  0
   26.6256  -20.6452  -10.9799 C   0  0  0  0  0  0  0  0  0  0  0  0
   27.8059  -20.2312  -10.8494 O   0  0  0  0  0  0  0  0  0  0  0  0
   25.8487  -20.7683   -9.8110 N   0  0  0  0  0  0  0  0  0  0  0  0
   26.4926  -20.9323   -8.5213 C   0  0  1  0  0  0  0  0  0  0  0  0
   27.3130  -19.6874   -8.1861 C   0  0  0  0  0  0  0  0  0  0  0  0
   27.8836  -19.7542   -6.8181 C   0  0  0  0  0  0  0  0  0  0  0  0
   27.4867  -18.8450   -5.8400 C   0  0  0  0  0  0  0  0  0  0  0  0
   27.9898  -18.8624   -4.5564 C   0  0  0  0  0  0  0  0  0  0  0  0
   28.9266  -19.8090   -4.1983 C   0  0  0  0  0  0  0  0  0  0  0  0
   29.3421  -20.7194   -5.1304 C   0  0  0  0  0  0  0  0  0  0  0  0
   28.8193  -20.6826   -6.4230 C   0  0  0  0  0  0  0  0  0  0  0  0
   25.4293  -21.0478   -7.4992 C   0  0  0  0  0  0  0  0  0  0  0  0
   24.2609  -20.6534   -7.7365 O   0  0  0  0  0  0  0  0  0  0  0  0
   25.6461  -21.5879   -6.2393 O   0  0  0  0  0  0  0  0  0  0  0  0
  2  3  1  0
  2  1  1  0
  3  5  1  0
  3  4  1  6
  5  6  1  1
  7  8  2  0
  7  5  1  0
  9  7  1  0
 10  9  1  0
 11 10  1  0
 12 11  1  0
 12 13  1  0
 13  9  1  0
 13 14  1  1
 14 15  2  0
 16 14  1  0
 17 16  1  0
 17 18  1  1
 19 18  1  0
 19 20  2  0
 21 20  1  0
 22 21  2  0
 23 24  2  0
 23 22  1  0
 24 19  1  0
 25 17  1  0
 26 25  2  0
 27 25  1  0
M  END
$$$$
