IPF.pdb
     RDKit          3D

 27 28  0  0  1  0  0  0  0  0999 V2000
   22.2037  -19.2547  -14.6186 C   0  0  0  0  0  0  0  0  0  0  0  0
   23.2286  -20.3494  -14.6411 C   0  0  0  0  0  0  0  0  0  0  0  0
   24.0020  -20.4707  -13.3655 C   0  0  2  0  0  0  0  0  0  0  0  0
   24.7037  -19.1847  -12.9897 C   0  0  0  0  0  0  0  0  0  0  0  0
   24.9375  -21.6662  -13.3450 C   0  0  2  0  0  0  0  0  0  0  0  0
   24.1524  -22.8306  -13.6265 N   0  0  0  0  0  0  0  0  0  0  0  0
   25.4945  -21.7587  -11.9822 C   0  0  0  0  0  0  0  0  0  0  0  0
   24.7448  -22.4127  -11.1606 O   0  0  0  0  0  0  0  0  0  0  0  0
   26.7064  -21.2287  -11.5078 N   0  0  0  0  0  0  0  0  0  0  0  0
   27.5776  -20.3280  -12.1779 C   0  0  0  0  0  0  0  0  0  0  0  0
   28.9256  -20.5237  -11.4942 C   0  0  0  0  0  0  0  0  0  0  0  0
   28.7316  -21.7053  -10.5632 C   0  0  0  0  0  0  0  0  0  0  0  0
   27.2667  -21.5085  -10.2105 C   0  0  1  0  0  0  0  0  0  0  0  0
   27.1883  -20.3248   -9.3082 C   0  0  0  0  0  0  0  0  0  0  0  0
   27.0633  -19.1454   -9.7263 O   0  0  0  0  0  0  0  0  0  0  0  0
   27.2558  -20.5146   -7.9138 N   0  0  0  0  0  0  0  0  0  0  0  0
   26.9437  -19.4211   -7.0129 C   0  0  1  0  0  0  0  0  0  0  0  0
   26.7090  -19.9588   -5.6018 C   0  0  0  0  0  0  0  0  0  0  0  0
   27.9833  -20.1621   -4.8695 C   0  0  0  0  0  0  0  0  0  0  0  0
   28.5695  -21.4243   -4.8049 C   0  0  0  0  0  0  0  0  0  0  0  0
   29.7497  -21.6658   -4.1341 C   0  0  0  0  0  0  0  0  0  0  0  0
   30.3984  -20.6325   -3.4911 C   0  0  0  0  0  0  0  0  0  0  0  0
   29.8547  -19.3783   -3.5314 C   0  0  0  0  0  0  0  0  0  0  0  0
   28.6598  -19.1577   -4.2161 C   0  0  0  0  0  0  0  0  0  0  0  0
   28.1263  -18.5341   -6.9556 C   0  0  0  0  0  0  0  0  0  0  0  0
   29.2422  -18.9183   -7.3847 O   0  0  0  0  0  0  0  0  0  0  0  0
   28.0830  -17.2476   -6.4366 O   0  0  0  0  0  0  0  0  0  0  0  0
  2  3  1  0
  2  1  1  0
  3  5  1  0
  3  4  1  6
  5  6  1  1
  7  8  2  0
  7  5  1  0
  9  7  1  0
 10  9  1  0
 11 10  1  0
 12 11  1  0
 12 13  1  0
 13  9  1  0
 13 14  1  1
 14 15  2  0
 16 14  1  0
 17 16  1  0
 17 18  1  1
 19 18  1  0
 19 20  2  0
 21 20  1  0
 22 21  2  0
 23 24  2  0
 23 22  1  0
 24 19  1  0
 25 17  1  0
 26 25  2  0
 27 25  1  0
M  END
$$$$
