IPF.pdb
     RDKit          3D

 27 28  0  0  1  0  0  0  0  0999 V2000
   26.0030  -14.7815  -15.7669 C   0  0  0  0  0  0  0  0  0  0  0  0
   26.6774  -15.7920  -16.6462 C   0  0  0  0  0  0  0  0  0  0  0  0
   26.2759  -17.2035  -16.3519 C   0  0  2  0  0  0  0  0  0  0  0  0
   26.5020  -17.5796  -14.9045 C   0  0  0  0  0  0  0  0  0  0  0  0
   26.8838  -18.2104  -17.3117 C   0  0  2  0  0  0  0  0  0  0  0  0
   26.7162  -17.6952  -18.6375 N   0  0  0  0  0  0  0  0  0  0  0  0
   26.1219  -19.4651  -17.1651 C   0  0  0  0  0  0  0  0  0  0  0  0
   25.0519  -19.5073  -17.8849 O   0  0  0  0  0  0  0  0  0  0  0  0
   26.4294  -20.5715  -16.3551 N   0  0  0  0  0  0  0  0  0  0  0  0
   27.5397  -20.7214  -15.4810 C   0  0  0  0  0  0  0  0  0  0  0  0
   27.6839  -22.2283  -15.3049 C   0  0  0  0  0  0  0  0  0  0  0  0
   26.6993  -22.8392  -16.2837 C   0  0  0  0  0  0  0  0  0  0  0  0
   25.6260  -21.7637  -16.2636 C   0  0  1  0  0  0  0  0  0  0  0  0
   24.9316  -21.8619  -14.9484 C   0  0  0  0  0  0  0  0  0  0  0  0
   25.0559  -22.8449  -14.1741 O   0  0  0  0  0  0  0  0  0  0  0  0
   24.0890  -20.8119  -14.5331 N   0  0  0  0  0  0  0  0  0  0  0  0
   23.3164  -20.9365  -13.3115 C   0  0  1  0  0  0  0  0  0  0  0  0
   23.9461  -20.0878  -12.2076 C   0  0  0  0  0  0  0  0  0  0  0  0
   25.3760  -20.4247  -12.0000 C   0  0  0  0  0  0  0  0  0  0  0  0
   26.3771  -19.6653  -12.6016 C   0  0  0  0  0  0  0  0  0  0  0  0
   27.7191  -19.9397  -12.4434 C   0  0  0  0  0  0  0  0  0  0  0  0
   28.1152  -21.0049  -11.6621 C   0  0  0  0  0  0  0  0  0  0  0  0
   27.1622  -21.7748  -11.0544 C   0  0  0  0  0  0  0  0  0  0  0  0
   25.8105  -21.4783  -11.2288 C   0  0  0  0  0  0  0  0  0  0  0  0
   21.9679  -20.3880  -13.5742 C   0  0  0  0  0  0  0  0  0  0  0  0
   21.7302  -19.7331  -14.6190 O   0  0  0  0  0  0  0  0  0  0  0  0
   20.8995  -20.5569  -12.7046 O   0  0  0  0  0  0  0  0  0  0  0  0
  2  3  1  0
  2  1  1  0
  3  5  1  0
  3  4  1  1
  5  6  1  6
  7  8  2  0
  7  5  1  0
  9  7  1  0
 10  9  1  0
 11 10  1  0
 12 11  1  0
 12 13  1  0
 13  9  1  0
 13 14  1  1
 14 15  2  0
 16 14  1  0
 17 16  1  0
 17 18  1  1
 19 18  1  0
 19 20  2  0
 21 20  1  0
 22 21  2  0
 23 24  2  0
 23 22  1  0
 24 19  1  0
 25 17  1  0
 26 25  2  0
 27 25  1  0
M  END
$$$$
