IPF.pdb
     RDKit          3D

 27 28  0  0  1  0  0  0  0  0999 V2000
   26.7365  -15.0623  -16.0436 C   0  0  0  0  0  0  0  0  0  0  0  0
   26.2547  -16.2888  -16.7597 C   0  0  0  0  0  0  0  0  0  0  0  0
   26.2130  -17.5090  -15.8941 C   0  0  2  0  0  0  0  0  0  0  0  0
   27.5475  -17.8053  -15.2470 C   0  0  0  0  0  0  0  0  0  0  0  0
   25.6307  -18.7216  -16.5979 C   0  0  2  0  0  0  0  0  0  0  0  0
   24.4594  -18.2894  -17.2996 N   0  0  0  0  0  0  0  0  0  0  0  0
   25.2551  -19.6920  -15.5522 C   0  0  0  0  0  0  0  0  0  0  0  0
   24.0997  -19.4631  -15.0256 O   0  0  0  0  0  0  0  0  0  0  0  0
   25.9965  -20.7929  -15.0905 N   0  0  0  0  0  0  0  0  0  0  0  0
   27.3416  -21.1238  -15.4073 C   0  0  0  0  0  0  0  0  0  0  0  0
   27.4449  -22.6159  -15.1146 C   0  0  0  0  0  0  0  0  0  0  0  0
   26.0276  -23.0598  -14.8063 C   0  0  0  0  0  0  0  0  0  0  0  0
   25.4981  -21.7845  -14.1721 C   0  0  1  0  0  0  0  0  0  0  0  0
   26.1359  -21.6646  -12.8303 C   0  0  0  0  0  0  0  0  0  0  0  0
   27.3751  -21.7690  -12.6434 O   0  0  0  0  0  0  0  0  0  0  0  0
   25.3281  -21.4222  -11.7017 N   0  0  0  0  0  0  0  0  0  0  0  0
   25.9297  -21.2983  -10.3873 C   0  0  1  0  0  0  0  0  0  0  0  0
   26.8267  -20.0621  -10.3389 C   0  0  0  0  0  0  0  0  0  0  0  0
   27.4184  -19.8617   -8.9932 C   0  0  0  0  0  0  0  0  0  0  0  0
   26.8484  -18.9613   -8.0958 C   0  0  0  0  0  0  0  0  0  0  0  0
   27.3623  -18.7364   -6.8362 C   0  0  0  0  0  0  0  0  0  0  0  0
   28.4872  -19.4178   -6.4213 C   0  0  0  0  0  0  0  0  0  0  0  0
   29.0763  -20.3106   -7.2735 C   0  0  0  0  0  0  0  0  0  0  0  0
   28.5387  -20.5218   -8.5431 C   0  0  0  0  0  0  0  0  0  0  0  0
   24.8382  -21.0895   -9.4110 C   0  0  0  0  0  0  0  0  0  0  0  0
   24.9272  -21.5326   -8.2393 O   0  0  0  0  0  0  0  0  0  0  0  0
   23.6700  -20.4052   -9.7166 O   0  0  0  0  0  0  0  0  0  0  0  0
  2  3  1  0
  2  1  1  0
  3  5  1  0
  3  4  1  6
  5  6  1  1
  7  8  2  0
  7  5  1  0
  9  7  1  0
 10  9  1  0
 11 10  1  0
 12 11  1  0
 12 13  1  0
 13  9  1  0
 13 14  1  1
 14 15  2  0
 16 14  1  0
 17 16  1  0
 17 18  1  6
 19 18  1  0
 19 20  2  0
 21 20  1  0
 22 21  2  0
 23 24  2  0
 23 22  1  0
 24 19  1  0
 25 17  1  0
 26 25  2  0
 27 25  1  0
M  END
$$$$
