IPF.pdb
     RDKit          3D

 27 28  0  0  1  0  0  0  0  0999 V2000
   20.5422  -18.5665  -14.5914 C   0  0  0  0  0  0  0  0  0  0  0  0
   21.6026  -19.4943  -15.1054 C   0  0  0  0  0  0  0  0  0  0  0  0
   22.5529  -19.9609  -14.0474 C   0  0  2  0  0  0  0  0  0  0  0  0
   23.1385  -18.8168  -13.2503 C   0  0  0  0  0  0  0  0  0  0  0  0
   23.6203  -20.9024  -14.5757 C   0  0  2  0  0  0  0  0  0  0  0  0
   22.9506  -21.9958  -15.2139 N   0  0  0  0  0  0  0  0  0  0  0  0
   24.3800  -21.3951  -13.4112 C   0  0  0  0  0  0  0  0  0  0  0  0
   23.8209  -22.3927  -12.8137 O   0  0  0  0  0  0  0  0  0  0  0  0
   25.5983  -20.9086  -12.9073 N   0  0  0  0  0  0  0  0  0  0  0  0
   26.3100  -19.7540  -13.3311 C   0  0  0  0  0  0  0  0  0  0  0  0
   27.7431  -20.0026  -12.8758 C   0  0  0  0  0  0  0  0  0  0  0  0
   27.7547  -21.4289  -12.3597 C   0  0  0  0  0  0  0  0  0  0  0  0
   26.3341  -21.5142  -11.8271 C   0  0  1  0  0  0  0  0  0  0  0  0
   26.2797  -20.6857  -10.5892 C   0  0  0  0  0  0  0  0  0  0  0  0
   26.1557  -19.4344  -10.6012 O   0  0  0  0  0  0  0  0  0  0  0  0
   26.3701  -21.3163   -9.3326 N   0  0  0  0  0  0  0  0  0  0  0  0
   26.2888  -20.5314   -8.1152 C   0  0  1  0  0  0  0  0  0  0  0  0
   26.5952  -21.4129   -6.9051 C   0  0  0  0  0  0  0  0  0  0  0  0
   27.4169  -20.6996   -5.8964 C   0  0  0  0  0  0  0  0  0  0  0  0
   27.1578  -19.3663   -5.5865 C   0  0  0  0  0  0  0  0  0  0  0  0
   27.8944  -18.6584   -4.6605 C   0  0  0  0  0  0  0  0  0  0  0  0
   28.9373  -19.2715   -3.9983 C   0  0  0  0  0  0  0  0  0  0  0  0
   29.2234  -20.5799   -4.2748 C   0  0  0  0  0  0  0  0  0  0  0  0
   28.4646  -21.2760   -5.2155 C   0  0  0  0  0  0  0  0  0  0  0  0
   27.3386  -19.4911   -8.1798 C   0  0  0  0  0  0  0  0  0  0  0  0
   28.4709  -19.7462   -8.6594 O   0  0  0  0  0  0  0  0  0  0  0  0
   27.1472  -18.1935   -7.7262 O   0  0  0  0  0  0  0  0  0  0  0  0
  2  3  1  0
  2  1  1  0
  3  5  1  0
  3  4  1  6
  5  6  1  1
  7  8  2  0
  7  5  1  0
  9  7  1  0
 10  9  1  0
 11 10  1  0
 12 11  1  0
 12 13  1  0
 13  9  1  0
 13 14  1  1
 14 15  2  0
 16 14  1  0
 17 16  1  0
 17 18  1  1
 19 18  1  0
 19 20  2  0
 21 20  1  0
 22 21  2  0
 23 24  2  0
 23 22  1  0
 24 19  1  0
 25 17  1  0
 26 25  2  0
 27 25  1  0
M  END
$$$$
