IPF.pdb
     RDKit          3D

 27 28  0  0  1  0  0  0  0  0999 V2000
   25.7775  -14.4973  -15.0422 C   0  0  0  0  0  0  0  0  0  0  0  0
   25.6878  -15.8870  -15.5987 C   0  0  0  0  0  0  0  0  0  0  0  0
   25.8845  -16.9568  -14.5706 C   0  0  2  0  0  0  0  0  0  0  0  0
   27.1893  -16.8059  -13.8208 C   0  0  0  0  0  0  0  0  0  0  0  0
   25.6943  -18.3583  -15.1222 C   0  0  2  0  0  0  0  0  0  0  0  0
   24.4832  -18.3582  -15.8867 N   0  0  0  0  0  0  0  0  0  0  0  0
   25.5538  -19.2646  -13.9668 C   0  0  0  0  0  0  0  0  0  0  0  0
   24.3853  -19.2286  -13.4207 O   0  0  0  0  0  0  0  0  0  0  0  0
   26.5220  -20.1256  -13.4229 N   0  0  0  0  0  0  0  0  0  0  0  0
   27.9117  -20.1603  -13.7175 C   0  0  0  0  0  0  0  0  0  0  0  0
   28.3518  -21.5612  -13.3095 C   0  0  0  0  0  0  0  0  0  0  0  0
   27.0706  -22.2954  -12.9625 C   0  0  0  0  0  0  0  0  0  0  0  0
   26.2521  -21.1320  -12.4281 C   0  0  1  0  0  0  0  0  0  0  0  0
   26.8253  -20.7653  -11.1020 C   0  0  0  0  0  0  0  0  0  0  0  0
   28.0108  -20.3756  -10.9465 O   0  0  0  0  0  0  0  0  0  0  0  0
   26.0154  -20.8526   -9.9525 N   0  0  0  0  0  0  0  0  0  0  0  0
   26.6220  -20.9167   -8.6362 C   0  0  1  0  0  0  0  0  0  0  0  0
   27.4345  -19.6492   -8.3742 C   0  0  0  0  0  0  0  0  0  0  0  0
   27.9991  -19.6290   -7.0023 C   0  0  0  0  0  0  0  0  0  0  0  0
   27.5533  -18.6982   -6.0666 C   0  0  0  0  0  0  0  0  0  0  0  0
   28.0486  -18.6357   -4.7813 C   0  0  0  0  0  0  0  0  0  0  0  0
   29.0272  -19.5199   -4.3783 C   0  0  0  0  0  0  0  0  0  0  0  0
   29.4914  -20.4491   -5.2680 C   0  0  0  0  0  0  0  0  0  0  0  0
   28.9754  -20.4935   -6.5631 C   0  0  0  0  0  0  0  0  0  0  0  0
   25.5299  -20.9541   -7.6390 C   0  0  0  0  0  0  0  0  0  0  0  0
   25.7543  -21.2857   -6.4487 O   0  0  0  0  0  0  0  0  0  0  0  0
   24.2149  -20.6320   -7.9443 O   0  0  0  0  0  0  0  0  0  0  0  0
  2  3  1  0
  2  1  1  0
  3  5  1  0
  3  4  1  6
  5  6  1  6
  7  8  2  0
  7  5  1  0
  9  7  1  0
 10  9  1  0
 11 10  1  0
 12 11  1  0
 12 13  1  0
 13  9  1  0
 13 14  1  1
 14 15  2  0
 16 14  1  0
 17 16  1  0
 17 18  1  1
 19 18  1  0
 19 20  2  0
 21 20  1  0
 22 21  2  0
 23 24  2  0
 23 22  1  0
 24 19  1  0
 25 17  1  0
 26 25  2  0
 27 25  1  0
M  END
$$$$
