IPF.pdb
     RDKit          3D

 27 28  0  0  1  0  0  0  0  0999 V2000
   19.3728  -16.4129  -19.1070 C   0  0  0  0  0  0  0  0  0  0  0  0
   20.2134  -15.7756  -20.1731 C   0  0  0  0  0  0  0  0  0  0  0  0
   20.8071  -14.4645  -19.7624 C   0  0  2  0  0  0  0  0  0  0  0  0
   19.7651  -13.4883  -19.2637 C   0  0  0  0  0  0  0  0  0  0  0  0
   21.7063  -13.8567  -20.8239 C   0  0  2  0  0  0  0  0  0  0  0  0
   22.6804  -14.8450  -21.1786 N   0  0  0  0  0  0  0  0  0  0  0  0
   22.3767  -12.6940  -20.2117 C   0  0  0  0  0  0  0  0  0  0  0  0
   23.4404  -13.0006  -19.5487 O   0  0  0  0  0  0  0  0  0  0  0  0
   21.9907  -11.3443  -20.2736 N   0  0  0  0  0  0  0  0  0  0  0  0
   20.8122  -10.8078  -20.8590 C   0  0  0  0  0  0  0  0  0  0  0  0
   21.1551   -9.3486  -21.1344 C   0  0  0  0  0  0  0  0  0  0  0  0
   22.6345   -9.2222  -20.8242 C   0  0  0  0  0  0  0  0  0  0  0  0
   22.7465  -10.2533  -19.7136 C   0  0  1  0  0  0  0  0  0  0  0  0
   22.0781   -9.6777  -18.5122 C   0  0  0  0  0  0  0  0  0  0  0  0
   20.8610   -9.8536  -18.2489 O   0  0  0  0  0  0  0  0  0  0  0  0
   22.8292   -8.8945  -17.6137 N   0  0  0  0  0  0  0  0  0  0  0  0
   22.2606   -8.5001  -16.3385 C   0  0  1  0  0  0  0  0  0  0  0  0
   23.3257   -8.5806  -15.2456 C   0  0  0  0  0  0  0  0  0  0  0  0
   22.8023   -8.1345  -13.9309 C   0  0  0  0  0  0  0  0  0  0  0  0
   22.7369   -6.7786  -13.6178 C   0  0  0  0  0  0  0  0  0  0  0  0
   22.2630   -6.3135  -12.4093 C   0  0  0  0  0  0  0  0  0  0  0  0
   21.8290   -7.2062  -11.4520 C   0  0  0  0  0  0  0  0  0  0  0  0
   21.8773   -8.5461  -11.7213 C   0  0  0  0  0  0  0  0  0  0  0  0
   22.3607   -8.9935  -12.9508 C   0  0  0  0  0  0  0  0  0  0  0  0
   21.8482   -7.0837  -16.4486 C   0  0  0  0  0  0  0  0  0  0  0  0
   22.4873   -6.2802  -17.1718 O   0  0  0  0  0  0  0  0  0  0  0  0
   20.7526   -6.5600  -15.7767 O   0  0  0  0  0  0  0  0  0  0  0  0
  2  3  1  0
  2  1  1  0
  3  5  1  0
  3  4  1  6
  5  6  1  1
  7  8  2  0
  7  5  1  0
  9  7  1  0
 10  9  1  0
 11 10  1  0
 12 11  1  0
 12 13  1  0
 13  9  1  0
 13 14  1  1
 14 15  2  0
 16 14  1  0
 17 16  1  0
 17 18  1  1
 19 18  1  0
 19 20  2  0
 21 20  1  0
 22 21  2  0
 23 24  2  0
 23 22  1  0
 24 19  1  0
 25 17  1  0
 26 25  2  0
 27 25  1  0
M  END
$$$$
