IPF.pdb
     RDKit          3D

 27 28  0  0  1  0  0  0  0  0999 V2000
   24.7879  -17.5037  -15.1421 C   0  0  0  0  0  0  0  0  0  0  0  0
   25.9503  -18.4298  -15.3430 C   0  0  0  0  0  0  0  0  0  0  0  0
   26.3177  -19.2034  -14.1155 C   0  0  2  0  0  0  0  0  0  0  0  0
   26.5745  -18.3090  -12.9232 C   0  0  0  0  0  0  0  0  0  0  0  0
   27.4448  -20.1935  -14.3479 C   0  0  2  0  0  0  0  0  0  0  0  0
   27.0973  -20.9782  -15.4946 N   0  0  0  0  0  0  0  0  0  0  0  0
   27.5157  -21.0589  -13.1553 C   0  0  0  0  0  0  0  0  0  0  0  0
   26.6926  -22.0520  -13.1876 O   0  0  0  0  0  0  0  0  0  0  0  0
   28.3521  -20.9170  -12.0351 N   0  0  0  0  0  0  0  0  0  0  0  0
   29.1507  -19.7938  -11.6887 C   0  0  0  0  0  0  0  0  0  0  0  0
   30.2179  -20.3586  -10.7589 C   0  0  0  0  0  0  0  0  0  0  0  0
   30.0252  -21.8626  -10.7991 C   0  0  0  0  0  0  0  0  0  0  0  0
   28.5216  -21.9168  -11.0119 C   0  0  1  0  0  0  0  0  0  0  0  0
   27.8823  -21.5079   -9.7290 C   0  0  0  0  0  0  0  0  0  0  0  0
   28.4833  -21.5184   -8.6244 O   0  0  0  0  0  0  0  0  0  0  0  0
   26.5384  -21.0852   -9.7320 N   0  0  0  0  0  0  0  0  0  0  0  0
   25.8513  -20.8302   -8.4799 C   0  0  1  0  0  0  0  0  0  0  0  0
   26.3747  -19.5393   -7.8514 C   0  0  0  0  0  0  0  0  0  0  0  0
   27.1909  -19.8060   -6.6414 C   0  0  0  0  0  0  0  0  0  0  0  0
   26.8769  -20.8670   -5.7950 C   0  0  0  0  0  0  0  0  0  0  0  0
   27.6010  -21.1537   -4.6571 C   0  0  0  0  0  0  0  0  0  0  0  0
   28.6867  -20.3736   -4.3188 C   0  0  0  0  0  0  0  0  0  0  0  0
   29.0272  -19.3223   -5.1244 C   0  0  0  0  0  0  0  0  0  0  0  0
   28.2800  -19.0511   -6.2705 C   0  0  0  0  0  0  0  0  0  0  0  0
   24.4192  -20.6218   -8.7870 C   0  0  0  0  0  0  0  0  0  0  0  0
   24.0575  -20.1731   -9.9027 O   0  0  0  0  0  0  0  0  0  0  0  0
   23.4030  -20.9023   -7.8843 O   0  0  0  0  0  0  0  0  0  0  0  0
  2  3  1  0
  2  1  1  0
  3  5  1  0
  3  4  1  1
  5  6  1  6
  7  8  2  0
  7  5  1  0
  9  7  1  0
 10  9  1  0
 11 10  1  0
 12 11  1  0
 12 13  1  0
 13  9  1  0
 13 14  1  1
 14 15  2  0
 16 14  1  0
 17 16  1  0
 17 18  1  6
 19 18  1  0
 19 20  2  0
 21 20  1  0
 22 21  2  0
 23 24  2  0
 23 22  1  0
 24 19  1  0
 25 17  1  0
 26 25  2  0
 27 25  1  0
M  END
$$$$
