IPF.pdb
     RDKit          3D

 27 28  0  0  1  0  0  0  0  0999 V2000
   15.8683  -15.2013  -18.0401 C   0  0  0  0  0  0  0  0  0  0  0  0
   16.6820  -14.8334  -19.2450 C   0  0  0  0  0  0  0  0  0  0  0  0
   17.6239  -13.6952  -19.0057 C   0  0  2  0  0  0  0  0  0  0  0  0
   16.9140  -12.4462  -18.5329 C   0  0  0  0  0  0  0  0  0  0  0  0
   18.5461  -13.4252  -20.1810 C   0  0  2  0  0  0  0  0  0  0  0  0
   19.1698  -14.6660  -20.5313 N   0  0  0  0  0  0  0  0  0  0  0  0
   19.5683  -12.4668  -19.7199 C   0  0  0  0  0  0  0  0  0  0  0  0
   20.6138  -13.0293  -19.2146 O   0  0  0  0  0  0  0  0  0  0  0  0
   19.5208  -11.0633  -19.7719 N   0  0  0  0  0  0  0  0  0  0  0  0
   18.4269  -10.2492  -20.1718 C   0  0  0  0  0  0  0  0  0  0  0  0
   19.0643   -8.9209  -20.5617 C   0  0  0  0  0  0  0  0  0  0  0  0
   20.5602   -9.1675  -20.5112 C   0  0  0  0  0  0  0  0  0  0  0  0
   20.6070  -10.1959  -19.3935 C   0  0  1  0  0  0  0  0  0  0  0  0
   20.3197   -9.4741  -18.1215 C   0  0  0  0  0  0  0  0  0  0  0  0
   19.1616   -9.3409  -17.6499 O   0  0  0  0  0  0  0  0  0  0  0  0
   21.3847   -8.9051  -17.3956 N   0  0  0  0  0  0  0  0  0  0  0  0
   21.1581   -8.3721  -16.0654 C   0  0  1  0  0  0  0  0  0  0  0  0
   22.3505   -8.6929  -15.1651 C   0  0  0  0  0  0  0  0  0  0  0  0
   22.1804   -8.1307  -13.8026 C   0  0  0  0  0  0  0  0  0  0  0  0
   22.3534   -6.7677  -13.5721 C   0  0  0  0  0  0  0  0  0  0  0  0
   22.2109   -6.1975  -12.3249 C   0  0  0  0  0  0  0  0  0  0  0  0
   21.8837   -6.9864  -11.2420 C   0  0  0  0  0  0  0  0  0  0  0  0
   21.7054   -8.3296  -11.4273 C   0  0  0  0  0  0  0  0  0  0  0  0
   21.8549   -8.8843  -12.6983 C   0  0  0  0  0  0  0  0  0  0  0  0
   21.0751   -6.8995  -16.1790 C   0  0  0  0  0  0  0  0  0  0  0  0
   21.7342   -6.2816  -17.0514 O   0  0  0  0  0  0  0  0  0  0  0  0
   20.2814   -6.1199  -15.3493 O   0  0  0  0  0  0  0  0  0  0  0  0
  2  3  1  0
  2  1  1  0
  3  5  1  0
  3  4  1  6
  5  6  1  1
  7  8  2  0
  7  5  1  0
  9  7  1  0
 10  9  1  0
 11 10  1  0
 12 11  1  0
 12 13  1  0
 13  9  1  0
 13 14  1  1
 14 15  2  0
 16 14  1  0
 17 16  1  0
 17 18  1  1
 19 18  1  0
 19 20  2  0
 21 20  1  0
 22 21  2  0
 23 24  2  0
 23 22  1  0
 24 19  1  0
 25 17  1  0
 26 25  2  0
 27 25  1  0
M  END
$$$$
