IPF.pdb
     RDKit          3D

 27 28  0  0  1  0  0  0  0  0999 V2000
   21.6664  -18.4857  -15.3388 C   0  0  0  0  0  0  0  0  0  0  0  0
   22.7528  -19.4739  -15.6432 C   0  0  0  0  0  0  0  0  0  0  0  0
   23.5111  -19.9207  -14.4327 C   0  0  2  0  0  0  0  0  0  0  0  0
   24.1018  -18.7627  -13.6598 C   0  0  0  0  0  0  0  0  0  0  0  0
   24.5381  -20.9973  -14.7343 C   0  0  2  0  0  0  0  0  0  0  0  0
   23.8464  -22.0901  -15.3496 N   0  0  0  0  0  0  0  0  0  0  0  0
   25.1052  -21.4306  -13.4433 C   0  0  0  0  0  0  0  0  0  0  0  0
   24.4393  -22.3808  -12.8789 O   0  0  0  0  0  0  0  0  0  0  0  0
   26.2477  -20.9343  -12.7929 N   0  0  0  0  0  0  0  0  0  0  0  0
   27.0139  -19.7900  -13.1435 C   0  0  0  0  0  0  0  0  0  0  0  0
   28.3729  -20.0299  -12.4968 C   0  0  0  0  0  0  0  0  0  0  0  0
   28.3105  -21.4445  -11.9529 C   0  0  0  0  0  0  0  0  0  0  0  0
   26.8315  -21.5166  -11.6117 C   0  0  1  0  0  0  0  0  0  0  0  0
   26.6166  -20.6611  -10.4103 C   0  0  0  0  0  0  0  0  0  0  0  0
   26.4062  -19.4229  -10.4735 O   0  0  0  0  0  0  0  0  0  0  0  0
   26.6467  -21.2491   -9.1303 N   0  0  0  0  0  0  0  0  0  0  0  0
   26.2023  -20.4974   -7.9717 C   0  0  1  0  0  0  0  0  0  0  0  0
   26.4080  -21.3245   -6.7033 C   0  0  0  0  0  0  0  0  0  0  0  0
   27.5740  -20.8502   -5.9180 C   0  0  0  0  0  0  0  0  0  0  0  0
   28.8403  -21.3892   -6.1346 C   0  0  0  0  0  0  0  0  0  0  0  0
   29.9540  -20.9857   -5.4288 C   0  0  0  0  0  0  0  0  0  0  0  0
   29.8382  -20.0092   -4.4619 C   0  0  0  0  0  0  0  0  0  0  0  0
   28.6116  -19.4552   -4.2196 C   0  0  0  0  0  0  0  0  0  0  0  0
   27.4989  -19.8792   -4.9460 C   0  0  0  0  0  0  0  0  0  0  0  0
   27.0591  -19.2967   -7.8588 C   0  0  0  0  0  0  0  0  0  0  0  0
   28.2163  -19.2820   -8.3461 O   0  0  0  0  0  0  0  0  0  0  0  0
   26.6509  -18.1329   -7.2224 O   0  0  0  0  0  0  0  0  0  0  0  0
  2  3  1  0
  2  1  1  0
  3  5  1  0
  3  4  1  6
  5  6  1  1
  7  8  2  0
  7  5  1  0
  9  7  1  0
 10  9  1  0
 11 10  1  0
 12 11  1  0
 12 13  1  0
 13  9  1  0
 13 14  1  1
 14 15  2  0
 16 14  1  0
 17 16  1  0
 17 18  1  1
 19 18  1  0
 19 20  2  0
 21 20  1  0
 22 21  2  0
 23 24  2  0
 23 22  1  0
 24 19  1  0
 25 17  1  0
 26 25  2  0
 27 25  1  0
M  END
$$$$
