KWQ.pdb
     RDKit          3D

 33 34  0  0  1  0  0  0  0  0999 V2000
    8.9329  -17.0287   18.8029 N   0  0  0  0  0  0  0  0  0  0  0  0
   10.0741  -17.2510   19.7028 C   0  0  1  0  0  0  0  0  0  0  0  0
   11.2706  -16.7554   18.9825 C   0  0  0  0  0  0  0  0  0  0  0  0
   12.0801  -17.8416   18.3865 C   0  0  0  0  0  0  0  0  0  0  0  0
   12.9618  -17.5922   17.2552 C   0  0  0  0  0  0  0  0  0  0  0  0
   13.8018  -18.6235   16.6342 C   0  0  0  0  0  0  0  0  0  0  0  0
   14.5566  -18.0214   15.4829 N   0  0  0  0  0  0  0  0  0  0  0  0
    9.8191  -16.4685   20.9583 C   0  0  0  0  0  0  0  0  0  0  0  0
   10.4346  -15.3974   21.1436 O   0  0  0  0  0  0  0  0  0  0  0  0
    8.9068  -16.9052   21.9346 N   0  0  0  0  0  0  0  0  0  0  0  0
    8.7626  -16.1375   23.1589 C   0  0  1  0  0  0  0  0  0  0  0  0
    7.3377  -15.7370   23.4087 C   0  0  0  0  0  0  0  0  0  0  0  0
    7.0064  -15.2786   24.7506 C   0  0  0  0  0  0  0  0  0  0  0  0
    6.5531  -15.9181   25.8763 C   0  0  0  0  0  0  0  0  0  0  0  0
    6.4223  -15.0040   26.8343 N   0  0  0  0  0  0  0  0  0  0  0  0
    6.7694  -13.7864   26.3928 C   0  0  0  0  0  0  0  0  0  0  0  0
    6.8032  -12.5315   26.9936 C   0  0  0  0  0  0  0  0  0  0  0  0
    7.2138  -11.4425   26.2565 C   0  0  0  0  0  0  0  0  0  0  0  0
    7.5969  -11.5356   24.9384 C   0  0  0  0  0  0  0  0  0  0  0  0
    7.5492  -12.8018   24.3791 C   0  0  0  0  0  0  0  0  0  0  0  0
    7.1431  -13.9170   25.0856 C   0  0  0  0  0  0  0  0  0  0  0  0
    9.4592  -16.7596   24.2920 C   0  0  0  0  0  0  0  0  0  0  0  0
    9.2643  -17.9873   24.5112 O   0  0  0  0  0  0  0  0  0  0  0  0
   14.4207  -15.7596   24.2171 N   0  0  0  0  0  0  0  0  0  0  0  0
   14.4078  -17.1128   24.6375 C   0  0  0  0  0  0  0  0  0  0  0  0
   15.2274  -17.9243   24.1618 O   0  0  0  0  0  0  0  0  0  0  0  0
   13.4225  -17.5675   25.6425 C   0  0  0  0  0  0  0  0  0  0  0  0
   12.5599  -16.4064   26.0352 C   0  0  0  0  0  0  0  0  0  0  0  0
   11.1117  -16.8060   26.1999 C   0  0  2  0  0  0  0  0  0  0  0  0
   10.3456  -16.0932   25.1736 N   0  0  0  0  0  0  0  0  0  0  0  0
   10.6243  -16.5088   27.5406 C   0  0  0  0  0  0  0  0  0  0  0  0
    9.7331  -15.6022   27.6466 O   0  0  0  0  0  0  0  0  0  0  0  0
   11.0401  -17.1207   28.7087 O   0  0  0  0  0  0  0  0  0  0  0  0
  2  1  1  6
  2  3  1  0
  3  4  1  0
  5  6  1  0
  5  4  1  0
  7  6  1  0
  8  2  1  0
  9  8  2  0
 10  8  1  0
 11 22  1  0
 11 10  1  0
 11 12  1  1
 13 12  1  0
 14 13  2  0
 15 16  1  0
 15 14  1  0
 16 21  2  0
 17 18  2  0
 17 16  1  0
 18 19  1  0
 19 20  2  0
 21 20  1  0
 21 13  1  0
 22 30  1  0
 23 22  2  0
 25 24  1  0
 25 27  1  0
 26 25  2  0
 29 28  1  1
 28 27  1  0
 29 31  1  0
 30 29  1  0
 31 32  2  0
 31 33  1  0
M  END
$$$$
