KWQ.pdb
     RDKit          3D

 33 34  0  0  1  0  0  0  0  0999 V2000
    7.7221  -17.6900   19.7095 N   0  0  0  0  0  0  0  0  0  0  0  0
    8.9997  -18.1985   20.2296 C   0  0  1  0  0  0  0  0  0  0  0  0
    9.9910  -18.0126   19.1438 C   0  0  0  0  0  0  0  0  0  0  0  0
    9.4989  -18.4693   17.8249 C   0  0  0  0  0  0  0  0  0  0  0  0
    9.4044  -17.5543   16.6964 C   0  0  0  0  0  0  0  0  0  0  0  0
    8.9551  -17.9556   15.3578 C   0  0  0  0  0  0  0  0  0  0  0  0
    7.7213  -17.1784   14.9951 N   0  0  0  0  0  0  0  0  0  0  0  0
    9.3488  -17.3874   21.4437 C   0  0  0  0  0  0  0  0  0  0  0  0
   10.5511  -17.1891   21.7183 O   0  0  0  0  0  0  0  0  0  0  0  0
    8.3616  -16.8428   22.2834 N   0  0  0  0  0  0  0  0  0  0  0  0
    8.7672  -16.1703   23.5051 C   0  0  1  0  0  0  0  0  0  0  0  0
    7.7902  -15.1068   23.9143 C   0  0  0  0  0  0  0  0  0  0  0  0
    7.9429  -14.5491   25.2507 C   0  0  0  0  0  0  0  0  0  0  0  0
    8.6541  -14.9410   26.3563 C   0  0  0  0  0  0  0  0  0  0  0  0
    8.4323  -14.0470   27.3164 N   0  0  0  0  0  0  0  0  0  0  0  0
    7.6050  -13.0792   26.8955 C   0  0  0  0  0  0  0  0  0  0  0  0
    7.0774  -11.9466   27.5085 C   0  0  0  0  0  0  0  0  0  0  0  0
    6.2295  -11.1278   26.7953 C   0  0  0  0  0  0  0  0  0  0  0  0
    5.8741  -11.3779   25.4899 C   0  0  0  0  0  0  0  0  0  0  0  0
    6.4215  -12.5142   24.9175 C   0  0  0  0  0  0  0  0  0  0  0  0
    7.2745  -13.3592   25.6001 C   0  0  0  0  0  0  0  0  0  0  0  0
    9.1600  -17.1159   24.5575 C   0  0  0  0  0  0  0  0  0  0  0  0
    8.3243  -17.9916   24.9153 O   0  0  0  0  0  0  0  0  0  0  0  0
   13.5681  -20.6157   24.4024 N   0  0  0  0  0  0  0  0  0  0  0  0
   13.8226  -19.2233   24.3360 C   0  0  0  0  0  0  0  0  0  0  0  0
   14.8185  -18.7975   23.7170 O   0  0  0  0  0  0  0  0  0  0  0  0
   12.9074  -18.2699   25.0002 C   0  0  0  0  0  0  0  0  0  0  0  0
   11.8002  -19.0382   25.6563 C   0  0  0  0  0  0  0  0  0  0  0  0
   10.7465  -18.1263   26.2413 C   0  0  2  0  0  0  0  0  0  0  0  0
   10.4144  -17.1332   25.2157 N   0  0  0  0  0  0  0  0  0  0  0  0
   11.2076  -17.4972   27.4721 C   0  0  0  0  0  0  0  0  0  0  0  0
   11.3558  -16.2302   27.4563 O   0  0  0  0  0  0  0  0  0  0  0  0
   11.4990  -18.1491   28.6562 O   0  0  0  0  0  0  0  0  0  0  0  0
  2  1  1  6
  2  3  1  0
  3  4  1  0
  5  6  1  0
  5  4  1  0
  7  6  1  0
  8  2  1  0
  9  8  2  0
 10  8  1  0
 11 22  1  0
 11 10  1  0
 11 12  1  1
 13 12  1  0
 14 13  2  0
 15 16  1  0
 15 14  1  0
 16 21  2  0
 17 18  2  0
 17 16  1  0
 18 19  1  0
 19 20  2  0
 21 20  1  0
 21 13  1  0
 22 30  1  0
 23 22  2  0
 25 24  1  0
 25 27  1  0
 26 25  2  0
 29 28  1  6
 28 27  1  0
 29 31  1  0
 30 29  1  0
 31 32  2  0
 31 33  1  0
M  END
$$$$
