KWQ.pdb
     RDKit          3D

 33 34  0  0  1  0  0  0  0  0999 V2000
    7.4267  -16.9869   18.9692 N   0  0  0  0  0  0  0  0  0  0  0  0
    8.4694  -15.9505   18.9528 C   0  0  1  0  0  0  0  0  0  0  0  0
    7.8844  -14.7873   18.2450 C   0  0  0  0  0  0  0  0  0  0  0  0
    8.2055  -14.7660   16.8004 C   0  0  0  0  0  0  0  0  0  0  0  0
    7.3222  -14.1199   15.8403 C   0  0  0  0  0  0  0  0  0  0  0  0
    7.6740  -12.9014   15.1013 C   0  0  0  0  0  0  0  0  0  0  0  0
    6.5248  -12.5086   14.2166 N   0  0  0  0  0  0  0  0  0  0  0  0
    8.8024  -15.6213   20.3792 C   0  0  0  0  0  0  0  0  0  0  0  0
    9.6768  -14.7617   20.6173 O   0  0  0  0  0  0  0  0  0  0  0  0
    8.1589  -16.2526   21.4579 N   0  0  0  0  0  0  0  0  0  0  0  0
    8.4451  -15.8051   22.8096 C   0  0  1  0  0  0  0  0  0  0  0  0
    7.1987  -15.6727   23.6355 C   0  0  0  0  0  0  0  0  0  0  0  0
    7.3731  -15.3871   25.0527 C   0  0  0  0  0  0  0  0  0  0  0  0
    7.7343  -16.1577   26.1285 C   0  0  0  0  0  0  0  0  0  0  0  0
    7.7400  -15.3730   27.2030 N   0  0  0  0  0  0  0  0  0  0  0  0
    7.3986  -14.1155   26.8863 C   0  0  0  0  0  0  0  0  0  0  0  0
    7.2585  -12.9512   27.6358 C   0  0  0  0  0  0  0  0  0  0  0  0
    6.8805  -11.7858   27.0058 C   0  0  0  0  0  0  0  0  0  0  0  0
    6.6314  -11.7154   25.6546 C   0  0  0  0  0  0  0  0  0  0  0  0
    6.7828  -12.8957   24.9458 C   0  0  0  0  0  0  0  0  0  0  0  0
    7.1598  -14.0833   25.5419 C   0  0  0  0  0  0  0  0  0  0  0  0
    9.5424  -16.5614   23.4262 C   0  0  0  0  0  0  0  0  0  0  0  0
    9.4444  -17.8187   23.4799 O   0  0  0  0  0  0  0  0  0  0  0  0
   15.8709  -16.6002   23.4242 N   0  0  0  0  0  0  0  0  0  0  0  0
   14.9553  -17.3669   24.1870 C   0  0  0  0  0  0  0  0  0  0  0  0
   14.8123  -18.5843   23.9552 O   0  0  0  0  0  0  0  0  0  0  0  0
   14.1664  -16.7258   25.2614 C   0  0  0  0  0  0  0  0  0  0  0  0
   13.0212  -15.9819   24.6436 C   0  0  0  0  0  0  0  0  0  0  0  0
   11.7585  -16.8116   24.6092 C   0  0  2  0  0  0  0  0  0  0  0  0
   10.7204  -15.9955   23.9732 N   0  0  0  0  0  0  0  0  0  0  0  0
   11.3645  -17.2410   25.9447 C   0  0  0  0  0  0  0  0  0  0  0  0
   11.3830  -18.4946   26.1805 O   0  0  0  0  0  0  0  0  0  0  0  0
   10.9724  -16.4128   26.9801 O   0  0  0  0  0  0  0  0  0  0  0  0
  2  1  1  1
  2  3  1  0
  3  4  1  0
  5  6  1  0
  5  4  1  0
  7  6  1  0
  8  2  1  0
  9  8  2  0
 10  8  1  0
 11 22  1  0
 11 10  1  0
 11 12  1  1
 13 12  1  0
 14 13  2  0
 15 16  1  0
 15 14  1  0
 16 21  2  0
 17 18  2  0
 17 16  1  0
 18 19  1  0
 19 20  2  0
 21 20  1  0
 21 13  1  0
 22 30  1  0
 23 22  2  0
 25 24  1  0
 25 27  1  0
 26 25  2  0
 29 28  1  1
 28 27  1  0
 29 31  1  0
 30 29  1  0
 31 32  2  0
 31 33  1  0
M  END
$$$$
