KWQ.pdb
     RDKit          3D

 33 34  0  0  1  0  0  0  0  0999 V2000
    7.1486  -13.8883   19.9855 N   0  0  0  0  0  0  0  0  0  0  0  0
    7.6314  -15.2438   20.2869 C   0  0  1  0  0  0  0  0  0  0  0  0
    8.4739  -15.6474   19.1364 C   0  0  0  0  0  0  0  0  0  0  0  0
    7.6969  -15.8594   17.8948 C   0  0  0  0  0  0  0  0  0  0  0  0
    7.9934  -16.9680   16.9988 C   0  0  0  0  0  0  0  0  0  0  0  0
    7.3713  -17.1385   15.6803 C   0  0  0  0  0  0  0  0  0  0  0  0
    7.9524  -18.3518   15.0108 N   0  0  0  0  0  0  0  0  0  0  0  0
    8.4275  -15.1684   21.5575 C   0  0  0  0  0  0  0  0  0  0  0  0
    9.3393  -14.3203   21.6551 O   0  0  0  0  0  0  0  0  0  0  0  0
    8.1777  -16.0252   22.6436 N   0  0  0  0  0  0  0  0  0  0  0  0
    9.0091  -15.9212   23.8298 C   0  0  1  0  0  0  0  0  0  0  0  0
    8.2167  -16.1037   25.0915 C   0  0  0  0  0  0  0  0  0  0  0  0
    7.0928  -15.2018   25.3014 C   0  0  0  0  0  0  0  0  0  0  0  0
    5.7424  -15.3196   25.0917 C   0  0  0  0  0  0  0  0  0  0  0  0
    5.1746  -14.1765   25.4676 N   0  0  0  0  0  0  0  0  0  0  0  0
    6.0900  -13.3060   25.9177 C   0  0  0  0  0  0  0  0  0  0  0  0
    6.0051  -12.0068   26.4095 C   0  0  0  0  0  0  0  0  0  0  0  0
    7.1560  -11.3572   26.7985 C   0  0  0  0  0  0  0  0  0  0  0  0
    8.4014  -11.9371   26.7236 C   0  0  0  0  0  0  0  0  0  0  0  0
    8.4415  -13.2303   26.2293 C   0  0  0  0  0  0  0  0  0  0  0  0
    7.3099  -13.9138   25.8292 C   0  0  0  0  0  0  0  0  0  0  0  0
   10.2344  -16.7233   23.7235 C   0  0  0  0  0  0  0  0  0  0  0  0
   10.1300  -17.9267   23.3568 O   0  0  0  0  0  0  0  0  0  0  0  0
   16.6650  -16.4668   21.7123 N   0  0  0  0  0  0  0  0  0  0  0  0
   16.2509  -16.2111   23.0431 C   0  0  0  0  0  0  0  0  0  0  0  0
   16.7740  -15.2847   23.6948 O   0  0  0  0  0  0  0  0  0  0  0  0
   15.1962  -17.0418   23.6639 C   0  0  0  0  0  0  0  0  0  0  0  0
   13.9230  -16.2522   23.7116 C   0  0  0  0  0  0  0  0  0  0  0  0
   12.7163  -17.1350   23.9322 C   0  0  2  0  0  0  0  0  0  0  0  0
   11.5438  -16.2580   23.9989 N   0  0  0  0  0  0  0  0  0  0  0  0
   12.8568  -17.9408   25.1381 C   0  0  0  0  0  0  0  0  0  0  0  0
   13.5983  -18.9760   25.0615 O   0  0  0  0  0  0  0  0  0  0  0  0
   12.2592  -17.6850   26.3585 O   0  0  0  0  0  0  0  0  0  0  0  0
  2  1  1  6
  2  3  1  0
  3  4  1  0
  5  6  1  0
  5  4  1  0
  7  6  1  0
  8  2  1  0
  9  8  2  0
 10  8  1  0
 11 22  1  0
 11 10  1  0
 11 12  1  1
 13 12  1  0
 14 13  2  0
 15 16  1  0
 15 14  1  0
 16 21  2  0
 17 18  2  0
 17 16  1  0
 18 19  1  0
 19 20  2  0
 21 20  1  0
 21 13  1  0
 22 30  1  0
 23 22  2  0
 25 24  1  0
 25 27  1  0
 26 25  2  0
 29 28  1  1
 28 27  1  0
 29 31  1  0
 30 29  1  0
 31 32  2  0
 31 33  1  0
M  END
$$$$
