KWQ.pdb
     RDKit          3D

 33 34  0  0  1  0  0  0  0  0999 V2000
    6.6434  -15.7504   20.9556 N   0  0  0  0  0  0  0  0  0  0  0  0
    8.0098  -15.2683   20.7062 C   0  0  1  0  0  0  0  0  0  0  0  0
    7.8683  -13.9721   20.0020 C   0  0  0  0  0  0  0  0  0  0  0  0
    7.3328  -14.1131   18.6295 C   0  0  0  0  0  0  0  0  0  0  0  0
    8.2040  -14.0237   17.4665 C   0  0  0  0  0  0  0  0  0  0  0  0
    7.7302  -14.1456   16.0825 C   0  0  0  0  0  0  0  0  0  0  0  0
    8.8963  -14.0068   15.1450 N   0  0  0  0  0  0  0  0  0  0  0  0
    8.6820  -15.1049   22.0386 C   0  0  0  0  0  0  0  0  0  0  0  0
    9.2297  -14.0167   22.3146 O   0  0  0  0  0  0  0  0  0  0  0  0
    8.7143  -16.1415   22.9875 N   0  0  0  0  0  0  0  0  0  0  0  0
    9.4996  -15.9667   24.1967 C   0  0  1  0  0  0  0  0  0  0  0  0
    8.6641  -16.1031   25.4362 C   0  0  0  0  0  0  0  0  0  0  0  0
    7.4358  -15.3229   25.4935 C   0  0  0  0  0  0  0  0  0  0  0  0
    6.1269  -15.6093   25.2000 C   0  0  0  0  0  0  0  0  0  0  0  0
    5.4105  -14.5144   25.4417 N   0  0  0  0  0  0  0  0  0  0  0  0
    6.1876  -13.5146   25.8830 C   0  0  0  0  0  0  0  0  0  0  0  0
    5.9236  -12.2015   26.2612 C   0  0  0  0  0  0  0  0  0  0  0  0
    6.9630  -11.3980   26.6760 C   0  0  0  0  0  0  0  0  0  0  0  0
    8.2660  -11.8355   26.7355 C   0  0  0  0  0  0  0  0  0  0  0  0
    8.4852  -13.1480   26.3512 C   0  0  0  0  0  0  0  0  0  0  0  0
    7.4695  -13.9837   25.9295 C   0  0  0  0  0  0  0  0  0  0  0  0
   10.7405  -16.7514   24.1734 C   0  0  0  0  0  0  0  0  0  0  0  0
   10.6761  -17.9594   23.8130 O   0  0  0  0  0  0  0  0  0  0  0  0
   16.9562  -16.8204   22.2367 N   0  0  0  0  0  0  0  0  0  0  0  0
   16.0938  -15.7560   22.5989 C   0  0  0  0  0  0  0  0  0  0  0  0
   16.5477  -14.6026   22.7405 O   0  0  0  0  0  0  0  0  0  0  0  0
   14.6519  -16.0092   22.8096 C   0  0  0  0  0  0  0  0  0  0  0  0
   14.4068  -16.2261   24.2723 C   0  0  0  0  0  0  0  0  0  0  0  0
   13.2137  -17.1198   24.5209 C   0  0  2  0  0  0  0  0  0  0  0  0
   12.0237  -16.2640   24.5237 N   0  0  0  0  0  0  0  0  0  0  0  0
   13.3500  -17.8585   25.7695 C   0  0  0  0  0  0  0  0  0  0  0  0
   12.7386  -17.3942   26.7884 O   0  0  0  0  0  0  0  0  0  0  0  0
   14.0820  -19.0175   25.9504 O   0  0  0  0  0  0  0  0  0  0  0  0
  2  1  1  1
  2  3  1  0
  3  4  1  0
  5  6  1  0
  5  4  1  0
  7  6  1  0
  8  2  1  0
  9  8  2  0
 10  8  1  0
 11 22  1  0
 11 10  1  0
 11 12  1  1
 13 12  1  0
 14 13  2  0
 15 16  1  0
 15 14  1  0
 16 21  2  0
 17 18  2  0
 17 16  1  0
 18 19  1  0
 19 20  2  0
 21 20  1  0
 21 13  1  0
 22 30  1  0
 23 22  2  0
 25 24  1  0
 25 27  1  0
 26 25  2  0
 29 28  1  1
 28 27  1  0
 29 31  1  0
 30 29  1  0
 31 32  2  0
 31 33  1  0
M  END
$$$$
