QYS.pdb
     RDKit          3D

 28 28  0  0  1  0  0  0  0  0999 V2000
   13.3659  -19.0353   18.6948 N   0  0  0  0  0  0  0  0  0  0  0  0
   12.4850  -18.1452   17.9608 C   0  0  0  0  0  0  0  0  0  0  0  0
   12.7621  -17.9862   16.7602 O   0  0  0  0  0  0  0  0  0  0  0  0
   11.3629  -17.5045   18.6477 C   0  0  0  0  0  0  0  0  0  0  0  0
   11.3227  -17.7666   20.0996 C   0  0  0  0  0  0  0  0  0  0  0  0
   12.2722  -17.0385   20.9734 C   0  0  2  0  0  0  0  0  0  0  0  0
   13.6361  -17.4054   20.9415 N   0  0  0  0  0  0  0  0  0  0  0  0
   11.6912  -17.0863   22.3681 C   0  0  0  0  0  0  0  0  0  0  0  0
   11.2075  -18.1652   22.8113 O   0  0  0  0  0  0  0  0  0  0  0  0
    9.8235  -15.4780   30.8591 O   0  0  0  0  0  0  0  0  0  0  0  0
   10.3196  -15.4375   29.5581 C   0  0  0  0  0  0  0  0  0  0  0  0
   11.1047  -16.4291   29.0292 C   0  0  0  0  0  0  0  0  0  0  0  0
   11.5743  -16.3478   27.7353 C   0  0  0  0  0  0  0  0  0  0  0  0
   11.2849  -15.2785   26.9114 C   0  0  0  0  0  0  0  0  0  0  0  0
   11.7757  -15.1580   25.5269 C   0  0  0  0  0  0  0  0  0  0  0  0
   11.1240  -16.1194   24.5609 C   0  0  2  0  0  0  0  0  0  0  0  0
   11.6647  -15.9518   23.2146 N   0  0  0  0  0  0  0  0  0  0  0  0
    9.6560  -15.9638   24.4692 C   0  0  0  0  0  0  0  0  0  0  0  0
    9.2003  -14.8691   24.0517 O   0  0  0  0  0  0  0  0  0  0  0  0
   10.4820  -14.2901   27.4890 C   0  0  0  0  0  0  0  0  0  0  0  0
   10.0106  -14.3624   28.7739 C   0  0  0  0  0  0  0  0  0  0  0  0
    7.0415  -18.9270   24.0428 O   0  0  0  0  0  0  0  0  0  0  0  0
    6.6053  -17.6096   23.8866 C   0  0  0  0  0  0  0  0  0  0  0  0
    7.3608  -16.7218   24.8539 C   0  0  2  0  0  0  0  0  0  0  0  0
    8.7683  -16.9986   24.8333 N   0  0  0  0  0  0  0  0  0  0  0  0
    6.8388  -17.0030   26.2110 C   0  0  0  0  0  0  0  0  0  0  0  0
    5.4839  -16.8150   26.4903 O   0  0  0  0  0  0  0  0  0  0  0  0
    7.6007  -17.4086   27.1134 O   0  0  0  0  0  0  0  0  0  0  0  0
  2  1  1  0
  2  3  2  0
  4  5  1  0
  4  2  1  0
  5  6  1  0
  6  8  1  0
  6  7  1  1
  8  9  2  0
 10 11  1  0
 11 21  2  0
 11 12  1  0
 12 13  2  0
 13 14  1  0
 14 15  1  0
 16 15  1  1
 17 16  1  0
 17  8  1  0
 18 16  1  0
 19 18  2  0
 20 14  2  0
 21 20  1  0
 23 22  1  0
 24 23  1  6
 24 25  1  0
 25 18  1  0
 26 27  1  0
 26 24  1  0
 28 26  2  0
M  END
$$$$
