QYS.pdb
     RDKit          3D

 28 28  0  0  1  0  0  0  0  0999 V2000
   10.0455  -14.8336   15.7416 N   0  0  0  0  0  0  0  0  0  0  0  0
    8.6123  -14.6047   15.7228 C   0  0  0  0  0  0  0  0  0  0  0  0
    8.0638  -14.7283   14.6150 O   0  0  0  0  0  0  0  0  0  0  0  0
    7.9166  -14.2509   16.9608 C   0  0  0  0  0  0  0  0  0  0  0  0
    8.7683  -14.3166   18.1644 C   0  0  0  0  0  0  0  0  0  0  0  0
    8.6677  -15.5117   19.0342 C   0  0  2  0  0  0  0  0  0  0  0  0
    7.5701  -16.3838   18.8585 N   0  0  0  0  0  0  0  0  0  0  0  0
    8.7926  -15.0159   20.4568 C   0  0  0  0  0  0  0  0  0  0  0  0
    9.8440  -14.4219   20.8257 O   0  0  0  0  0  0  0  0  0  0  0  0
    7.5047  -12.1713   28.6627 O   0  0  0  0  0  0  0  0  0  0  0  0
    7.3071  -12.6682   27.3764 C   0  0  0  0  0  0  0  0  0  0  0  0
    6.6863  -13.8649   27.1276 C   0  0  0  0  0  0  0  0  0  0  0  0
    6.5119  -14.3187   25.8373 C   0  0  0  0  0  0  0  0  0  0  0  0
    6.9464  -13.6040   24.7389 C   0  0  0  0  0  0  0  0  0  0  0  0
    6.7815  -14.0633   23.3482 C   0  0  0  0  0  0  0  0  0  0  0  0
    8.0100  -14.7292   22.7741 C   0  0  2  0  0  0  0  0  0  0  0  0
    7.7625  -15.1930   21.4116 N   0  0  0  0  0  0  0  0  0  0  0  0
    8.4748  -15.8935   23.5589 C   0  0  0  0  0  0  0  0  0  0  0  0
    7.7884  -16.9460   23.5221 O   0  0  0  0  0  0  0  0  0  0  0  0
    7.5737  -12.3902   25.0364 C   0  0  0  0  0  0  0  0  0  0  0  0
    7.7514  -11.9312   26.3155 C   0  0  0  0  0  0  0  0  0  0  0  0
   11.5862  -17.4233   23.1400 O   0  0  0  0  0  0  0  0  0  0  0  0
   11.5209  -17.4062   24.5349 C   0  0  0  0  0  0  0  0  0  0  0  0
   10.1081  -17.0613   24.9586 C   0  0  2  0  0  0  0  0  0  0  0  0
    9.6520  -15.8519   24.3360 N   0  0  0  0  0  0  0  0  0  0  0  0
   10.1226  -16.8665   26.4266 C   0  0  0  0  0  0  0  0  0  0  0  0
    9.7521  -15.6353   26.9708 O   0  0  0  0  0  0  0  0  0  0  0  0
   10.4642  -17.7957   27.1875 O   0  0  0  0  0  0  0  0  0  0  0  0
  2  1  1  0
  2  3  2  0
  4  5  1  0
  4  2  1  0
  5  6  1  0
  6  8  1  0
  6  7  1  1
  8  9  2  0
 10 11  1  0
 11 21  2  0
 11 12  1  0
 12 13  2  0
 13 14  1  0
 14 15  1  0
 16 15  1  1
 17 16  1  0
 17  8  1  0
 18 16  1  0
 19 18  2  0
 20 14  2  0
 21 20  1  0
 23 22  1  0
 24 23  1  6
 24 25  1  0
 25 18  1  0
 26 27  1  0
 26 24  1  0
 28 26  2  0
M  END
$$$$
