QYS.pdb
     RDKit          3D

 28 28  0  0  1  0  0  0  0  0999 V2000
    7.2571  -13.9861   14.6240 N   0  0  0  0  0  0  0  0  0  0  0  0
    8.3592  -14.8943   14.3650 C   0  0  0  0  0  0  0  0  0  0  0  0
    8.9417  -14.7352   13.2792 O   0  0  0  0  0  0  0  0  0  0  0  0
    8.7105  -15.9121   15.3561 C   0  0  0  0  0  0  0  0  0  0  0  0
    7.8506  -15.8997   16.5557 C   0  0  0  0  0  0  0  0  0  0  0  0
    8.1963  -16.8011   17.6795 C   0  0  2  0  0  0  0  0  0  0  0  0
    7.3458  -16.8308   18.8071 N   0  0  0  0  0  0  0  0  0  0  0  0
    9.6318  -16.4978   18.0436 C   0  0  0  0  0  0  0  0  0  0  0  0
   10.5668  -16.8765   17.2840 O   0  0  0  0  0  0  0  0  0  0  0  0
   17.5106  -13.6756   19.9284 O   0  0  0  0  0  0  0  0  0  0  0  0
   16.1268  -13.8215   19.8636 C   0  0  0  0  0  0  0  0  0  0  0  0
   15.3419  -13.9815   20.9762 C   0  0  0  0  0  0  0  0  0  0  0  0
   13.9748  -14.1225   20.8654 C   0  0  0  0  0  0  0  0  0  0  0  0
   13.3284  -14.1108   19.6455 C   0  0  0  0  0  0  0  0  0  0  0  0
   11.8708  -14.2651   19.4921 C   0  0  0  0  0  0  0  0  0  0  0  0
   11.3964  -15.6977   19.5637 C   0  0  2  0  0  0  0  0  0  0  0  0
    9.9798  -15.7951   19.2223 N   0  0  0  0  0  0  0  0  0  0  0  0
   11.5725  -16.3146   20.8963 C   0  0  0  0  0  0  0  0  0  0  0  0
   10.8405  -15.9145   21.8368 O   0  0  0  0  0  0  0  0  0  0  0  0
   14.1649  -13.9453   18.5372 C   0  0  0  0  0  0  0  0  0  0  0  0
   15.5244  -13.8044   18.6377 C   0  0  0  0  0  0  0  0  0  0  0  0
   12.4019  -19.9512   21.5451 O   0  0  0  0  0  0  0  0  0  0  0  0
   12.1249  -19.1749   22.6725 C   0  0  0  0  0  0  0  0  0  0  0  0
   12.7146  -17.7934   22.4773 C   0  0  2  0  0  0  0  0  0  0  0  0
   12.5276  -17.3260   21.1339 N   0  0  0  0  0  0  0  0  0  0  0  0
   14.1667  -17.8905   22.7511 C   0  0  0  0  0  0  0  0  0  0  0  0
   14.6138  -18.3366   23.9963 O   0  0  0  0  0  0  0  0  0  0  0  0
   15.0007  -17.5764   21.8764 O   0  0  0  0  0  0  0  0  0  0  0  0
  2  1  1  0
  2  3  2  0
  4  5  1  0
  4  2  1  0
  5  6  1  0
  6  8  1  0
  6  7  1  1
  8  9  2  0
 10 11  1  0
 11 21  2  0
 11 12  1  0
 12 13  2  0
 13 14  1  0
 14 15  1  0
 16 15  1  1
 17 16  1  0
 17  8  1  0
 18 16  1  0
 19 18  2  0
 20 14  2  0
 21 20  1  0
 23 22  1  0
 24 23  1  6
 24 25  1  0
 25 18  1  0
 26 27  1  0
 26 24  1  0
 28 26  2  0
M  END
$$$$
