QYS.pdb
     RDKit          3D

 28 28  0  0  1  0  0  0  0  0999 V2000
    9.9652  -16.2470   17.2653 N   0  0  0  0  0  0  0  0  0  0  0  0
    8.5853  -16.3690   17.6989 C   0  0  0  0  0  0  0  0  0  0  0  0
    7.9381  -17.2914   17.1757 O   0  0  0  0  0  0  0  0  0  0  0  0
    8.0492  -15.4335   18.6883 C   0  0  0  0  0  0  0  0  0  0  0  0
    8.8009  -15.4112   19.9583 C   0  0  0  0  0  0  0  0  0  0  0  0
    8.2500  -16.1540   21.1159 C   0  0  2  0  0  0  0  0  0  0  0  0
    6.9369  -15.8580   21.5448 N   0  0  0  0  0  0  0  0  0  0  0  0
    9.2660  -16.0257   22.2278 C   0  0  0  0  0  0  0  0  0  0  0  0
   10.4986  -16.1105   21.9665 O   0  0  0  0  0  0  0  0  0  0  0  0
    4.9692  -12.0085   26.2907 O   0  0  0  0  0  0  0  0  0  0  0  0
    6.1815  -12.6434   26.0306 C   0  0  0  0  0  0  0  0  0  0  0  0
    6.2631  -13.9260   25.5533 C   0  0  0  0  0  0  0  0  0  0  0  0
    7.4854  -14.5157   25.3097 C   0  0  0  0  0  0  0  0  0  0  0  0
    8.6789  -13.8576   25.5298 C   0  0  0  0  0  0  0  0  0  0  0  0
   10.0013  -14.4610   25.2860 C   0  0  0  0  0  0  0  0  0  0  0  0
    9.9438  -15.7977   24.5844 C   0  0  2  0  0  0  0  0  0  0  0  0
    8.8882  -15.8114   23.5752 N   0  0  0  0  0  0  0  0  0  0  0  0
    9.6973  -16.9358   25.4962 C   0  0  0  0  0  0  0  0  0  0  0  0
    8.5388  -17.4221   25.5383 O   0  0  0  0  0  0  0  0  0  0  0  0
    8.5512  -12.5528   26.0162 C   0  0  0  0  0  0  0  0  0  0  0  0
    7.3408  -11.9585   26.2610 C   0  0  0  0  0  0  0  0  0  0  0  0
   11.6027  -19.8534   25.0655 O   0  0  0  0  0  0  0  0  0  0  0  0
   10.4222  -19.8505   25.8117 C   0  0  0  0  0  0  0  0  0  0  0  0
   10.5165  -18.7808   26.8801 C   0  0  2  0  0  0  0  0  0  0  0  0
   10.7154  -17.4806   26.3074 N   0  0  0  0  0  0  0  0  0  0  0  0
   11.6816  -19.1102   27.7329 C   0  0  0  0  0  0  0  0  0  0  0  0
   11.6667  -20.2632   28.5199 O   0  0  0  0  0  0  0  0  0  0  0  0
   12.6830  -18.3644   27.7562 O   0  0  0  0  0  0  0  0  0  0  0  0
  2  1  1  0
  2  3  2  0
  4  5  1  0
  4  2  1  0
  5  6  1  0
  6  8  1  0
  6  7  1  1
  8  9  2  0
 10 11  1  0
 11 21  2  0
 11 12  1  0
 12 13  2  0
 13 14  1  0
 14 15  1  0
 16 15  1  1
 17 16  1  0
 17  8  1  0
 18 16  1  0
 19 18  2  0
 20 14  2  0
 21 20  1  0
 23 22  1  0
 24 23  1  6
 24 25  1  0
 25 18  1  0
 26 27  1  0
 26 24  1  0
 28 26  2  0
M  END
$$$$
