QYS.pdb
     RDKit          3D

 28 28  0  0  1  0  0  0  0  0999 V2000
    6.7542  -14.9128   19.4901 N   0  0  0  0  0  0  0  0  0  0  0  0
    7.6979  -13.9154   19.0196 C   0  0  0  0  0  0  0  0  0  0  0  0
    7.6302  -13.6414   17.8097 O   0  0  0  0  0  0  0  0  0  0  0  0
    8.6445  -13.3111   19.9578 C   0  0  0  0  0  0  0  0  0  0  0  0
    8.5160  -13.8102   21.3409 C   0  0  0  0  0  0  0  0  0  0  0  0
    8.9484  -15.1970   21.6323 C   0  0  2  0  0  0  0  0  0  0  0  0
    8.1521  -16.2651   21.1624 N   0  0  0  0  0  0  0  0  0  0  0  0
    9.1884  -15.2647   23.1233 C   0  0  0  0  0  0  0  0  0  0  0  0
   10.0337  -14.4952   23.6599 O   0  0  0  0  0  0  0  0  0  0  0  0
    6.5275  -10.2783   26.4929 O   0  0  0  0  0  0  0  0  0  0  0  0
    6.8395  -11.6353   26.4531 C   0  0  0  0  0  0  0  0  0  0  0  0
    7.9751  -12.1552   27.0184 C   0  0  0  0  0  0  0  0  0  0  0  0
    8.2444  -13.5060   26.9552 C   0  0  0  0  0  0  0  0  0  0  0  0
    7.3980  -14.3983   26.3280 C   0  0  0  0  0  0  0  0  0  0  0  0
    7.6593  -15.8460   26.2372 C   0  0  0  0  0  0  0  0  0  0  0  0
    8.8490  -16.2000   25.3760 C   0  0  2  0  0  0  0  0  0  0  0  0
    8.4939  -16.1715   23.9597 N   0  0  0  0  0  0  0  0  0  0  0  0
    9.4116  -17.5374   25.6629 C   0  0  0  0  0  0  0  0  0  0  0  0
    8.6698  -18.5398   25.5036 O   0  0  0  0  0  0  0  0  0  0  0  0
    6.2522  -13.8275   25.7652 C   0  0  0  0  0  0  0  0  0  0  0  0
    5.9763  -12.4863   25.8232 C   0  0  0  0  0  0  0  0  0  0  0  0
   13.3898  -18.1742   26.6495 O   0  0  0  0  0  0  0  0  0  0  0  0
   12.6615  -19.2149   26.0690 C   0  0  0  0  0  0  0  0  0  0  0  0
   11.1953  -19.0393   26.4066 C   0  0  2  0  0  0  0  0  0  0  0  0
   10.7405  -17.7128   26.1042 N   0  0  0  0  0  0  0  0  0  0  0  0
   11.0460  -19.2753   27.8610 C   0  0  0  0  0  0  0  0  0  0  0  0
   11.4798  -20.4783   28.4210 O   0  0  0  0  0  0  0  0  0  0  0  0
   10.5336  -18.4058   28.5964 O   0  0  0  0  0  0  0  0  0  0  0  0
  2  1  1  0
  2  3  2  0
  4  5  1  0
  4  2  1  0
  5  6  1  0
  6  8  1  0
  6  7  1  1
  8  9  2  0
 10 11  1  0
 11 21  2  0
 11 12  1  0
 12 13  2  0
 13 14  1  0
 14 15  1  0
 16 15  1  1
 17 16  1  0
 17  8  1  0
 18 16  1  0
 19 18  2  0
 20 14  2  0
 21 20  1  0
 23 22  1  0
 24 23  1  1
 24 25  1  0
 25 18  1  0
 26 27  1  0
 26 24  1  0
 28 26  2  0
M  END
$$$$
