QYS.pdb
     RDKit          3D

 28 28  0  0  1  0  0  0  0  0999 V2000
    6.2587  -18.1449   18.4954 N   0  0  0  0  0  0  0  0  0  0  0  0
    7.2133  -17.0574   18.6087 C   0  0  0  0  0  0  0  0  0  0  0  0
    7.7110  -16.6668   17.5395 O   0  0  0  0  0  0  0  0  0  0  0  0
    7.5293  -16.5023   19.9253 C   0  0  0  0  0  0  0  0  0  0  0  0
    6.6947  -15.3446   20.3016 C   0  0  0  0  0  0  0  0  0  0  0  0
    7.3701  -14.0729   20.6503 C   0  0  2  0  0  0  0  0  0  0  0  0
    8.1167  -13.4092   19.6512 N   0  0  0  0  0  0  0  0  0  0  0  0
    8.1830  -14.3486   21.8946 C   0  0  0  0  0  0  0  0  0  0  0  0
    9.4161  -14.6027   21.7969 O   0  0  0  0  0  0  0  0  0  0  0  0
   10.9909  -15.0221   30.2586 O   0  0  0  0  0  0  0  0  0  0  0  0
   10.2021  -14.8442   29.1243 C   0  0  0  0  0  0  0  0  0  0  0  0
    9.4642  -15.8548   28.5644 C   0  0  0  0  0  0  0  0  0  0  0  0
    8.6967  -15.6338   27.4404 C   0  0  0  0  0  0  0  0  0  0  0  0
    8.6293  -14.4003   26.8241 C   0  0  0  0  0  0  0  0  0  0  0  0
    7.8244  -14.1324   25.6188 C   0  0  0  0  0  0  0  0  0  0  0  0
    8.5007  -14.5359   24.3295 C   0  0  2  0  0  0  0  0  0  0  0  0
    7.6105  -14.3349   23.1893 N   0  0  0  0  0  0  0  0  0  0  0  0
    8.9362  -15.9491   24.3055 C   0  0  0  0  0  0  0  0  0  0  0  0
    8.0837  -16.8279   24.0201 O   0  0  0  0  0  0  0  0  0  0  0  0
    9.3961  -13.3980   27.4265 C   0  0  0  0  0  0  0  0  0  0  0  0
   10.1616  -13.6083   28.5436 C   0  0  0  0  0  0  0  0  0  0  0  0
   11.9610  -17.4954   22.5797 O   0  0  0  0  0  0  0  0  0  0  0  0
   10.8429  -18.1605   23.0876 C   0  0  0  0  0  0  0  0  0  0  0  0
   10.6136  -17.7187   24.5182 C   0  0  2  0  0  0  0  0  0  0  0  0
   10.2650  -16.3290   24.5907 N   0  0  0  0  0  0  0  0  0  0  0  0
   11.8807  -17.9321   25.2546 C   0  0  0  0  0  0  0  0  0  0  0  0
   12.4471  -19.2068   25.3141 O   0  0  0  0  0  0  0  0  0  0  0  0
   12.4516  -16.9798   25.8261 O   0  0  0  0  0  0  0  0  0  0  0  0
  2  1  1  0
  2  3  2  0
  4  5  1  0
  4  2  1  0
  5  6  1  0
  6  8  1  0
  6  7  1  6
  8  9  2  0
 10 11  1  0
 11 21  2  0
 11 12  1  0
 12 13  2  0
 13 14  1  0
 14 15  1  0
 16 15  1  1
 17 16  1  0
 17  8  1  0
 18 16  1  0
 19 18  2  0
 20 14  2  0
 21 20  1  0
 23 22  1  0
 24 23  1  6
 24 25  1  0
 25 18  1  0
 26 27  1  0
 26 24  1  0
 28 26  2  0
M  END
$$$$
