QYS.pdb
     RDKit          3D

 28 28  0  0  1  0  0  0  0  0999 V2000
    6.3204  -19.7145   20.2709 N   0  0  0  0  0  0  0  0  0  0  0  0
    7.6062  -19.1760   19.8664 C   0  0  0  0  0  0  0  0  0  0  0  0
    8.5848  -19.9138   20.0701 O   0  0  0  0  0  0  0  0  0  0  0  0
    7.6796  -17.8433   19.2665 C   0  0  0  0  0  0  0  0  0  0  0  0
    7.8169  -16.7518   20.2505 C   0  0  0  0  0  0  0  0  0  0  0  0
    9.1101  -16.0334   20.3297 C   0  0  2  0  0  0  0  0  0  0  0  0
   10.1382  -16.3931   19.4299 N   0  0  0  0  0  0  0  0  0  0  0  0
    9.5513  -16.1067   21.7737 C   0  0  0  0  0  0  0  0  0  0  0  0
   10.6167  -16.7136   22.0758 O   0  0  0  0  0  0  0  0  0  0  0  0
   10.4360  -14.4089   30.4361 O   0  0  0  0  0  0  0  0  0  0  0  0
   10.0564  -14.3881   29.0960 C   0  0  0  0  0  0  0  0  0  0  0  0
   10.7858  -13.7519   28.1251 C   0  0  0  0  0  0  0  0  0  0  0  0
   10.3723  -13.7568   26.8097 C   0  0  0  0  0  0  0  0  0  0  0  0
    9.2171  -14.3932   26.4020 C   0  0  0  0  0  0  0  0  0  0  0  0
    8.7440  -14.4120   25.0063 C   0  0  0  0  0  0  0  0  0  0  0  0
    9.4257  -15.4478   24.1432 C   0  0  2  0  0  0  0  0  0  0  0  0
    8.8071  -15.5138   22.8219 N   0  0  0  0  0  0  0  0  0  0  0  0
    9.3916  -16.8115   24.7149 C   0  0  0  0  0  0  0  0  0  0  0  0
    8.2808  -17.3952   24.7912 O   0  0  0  0  0  0  0  0  0  0  0  0
    8.5033  -15.0294   27.4225 C   0  0  0  0  0  0  0  0  0  0  0  0
    8.9066  -15.0299   28.7323 C   0  0  0  0  0  0  0  0  0  0  0  0
   12.2262  -19.4182   24.2679 O   0  0  0  0  0  0  0  0  0  0  0  0
   10.9710  -19.8251   24.7253 C   0  0  0  0  0  0  0  0  0  0  0  0
   10.4415  -18.7918   25.6981 C   0  0  2  0  0  0  0  0  0  0  0  0
   10.5578  -17.4630   25.1698 N   0  0  0  0  0  0  0  0  0  0  0  0
   11.2560  -18.8882   26.9312 C   0  0  0  0  0  0  0  0  0  0  0  0
   11.9700  -17.7775   27.3845 O   0  0  0  0  0  0  0  0  0  0  0  0
   11.3118  -19.9575   27.5738 O   0  0  0  0  0  0  0  0  0  0  0  0
  2  1  1  0
  2  3  2  0
  4  5  1  0
  4  2  1  0
  5  6  1  0
  6  8  1  0
  6  7  1  6
  8  9  2  0
 10 11  1  0
 11 21  2  0
 11 12  1  0
 12 13  2  0
 13 14  1  0
 14 15  1  0
 16 15  1  1
 17 16  1  0
 17  8  1  0
 18 16  1  0
 19 18  2  0
 20 14  2  0
 21 20  1  0
 23 22  1  0
 24 23  1  6
 24 25  1  0
 25 18  1  0
 26 27  1  0
 26 24  1  0
 28 26  2  0
M  END
$$$$
