QYS.pdb
     RDKit          3D

 28 28  0  0  1  0  0  0  0  0999 V2000
   13.2623  -15.8347   17.8017 N   0  0  0  0  0  0  0  0  0  0  0  0
   12.4574  -16.9037   17.2395 C   0  0  0  0  0  0  0  0  0  0  0  0
   12.6883  -17.1809   16.0507 O   0  0  0  0  0  0  0  0  0  0  0  0
   11.4531  -17.5703   18.0693 C   0  0  0  0  0  0  0  0  0  0  0  0
   11.4074  -17.0809   19.4610 C   0  0  0  0  0  0  0  0  0  0  0  0
   10.3785  -17.6376   20.3701 C   0  0  2  0  0  0  0  0  0  0  0  0
    9.1651  -18.0999   19.8134 N   0  0  0  0  0  0  0  0  0  0  0  0
   10.1635  -16.6062   21.4540 C   0  0  0  0  0  0  0  0  0  0  0  0
   11.1558  -16.0199   21.9701 O   0  0  0  0  0  0  0  0  0  0  0  0
    6.6405  -11.3176   27.6037 O   0  0  0  0  0  0  0  0  0  0  0  0
    6.8188  -12.1460   26.4981 C   0  0  0  0  0  0  0  0  0  0  0  0
    6.2475  -13.3882   26.3984 C   0  0  0  0  0  0  0  0  0  0  0  0
    6.4510  -14.1753   25.2847 C   0  0  0  0  0  0  0  0  0  0  0  0
    7.2305  -13.7630   24.2225 C   0  0  0  0  0  0  0  0  0  0  0  0
    7.4732  -14.5817   23.0213 C   0  0  0  0  0  0  0  0  0  0  0  0
    8.7835  -15.3333   23.0477 C   0  0  2  0  0  0  0  0  0  0  0  0
    8.8734  -16.2631   21.9251 N   0  0  0  0  0  0  0  0  0  0  0  0
    8.9939  -16.1146   24.2857 C   0  0  0  0  0  0  0  0  0  0  0  0
    8.4877  -17.2632   24.3557 O   0  0  0  0  0  0  0  0  0  0  0  0
    7.7941  -12.4910   24.3641 C   0  0  0  0  0  0  0  0  0  0  0  0
    7.5973  -11.7018   25.4672 C   0  0  0  0  0  0  0  0  0  0  0  0
    8.7981  -17.9907   27.9670 O   0  0  0  0  0  0  0  0  0  0  0  0
    8.6074  -17.2119   26.8236 C   0  0  0  0  0  0  0  0  0  0  0  0
    9.8684  -16.4179   26.5515 C   0  0  2  0  0  0  0  0  0  0  0  0
    9.7379  -15.6097   25.3734 N   0  0  0  0  0  0  0  0  0  0  0  0
   10.9661  -17.3902   26.3442 C   0  0  0  0  0  0  0  0  0  0  0  0
   11.4245  -18.1635   27.4124 O   0  0  0  0  0  0  0  0  0  0  0  0
   11.4894  -17.5272   25.2187 O   0  0  0  0  0  0  0  0  0  0  0  0
  2  1  1  0
  2  3  2  0
  4  5  1  0
  4  2  1  0
  5  6  1  0
  6  8  1  0
  6  7  1  6
  8  9  2  0
 10 11  1  0
 11 21  2  0
 11 12  1  0
 12 13  2  0
 13 14  1  0
 14 15  1  0
 16 15  1  1
 17 16  1  0
 17  8  1  0
 18 16  1  0
 19 18  2  0
 20 14  2  0
 21 20  1  0
 23 22  1  0
 24 23  1  6
 24 25  1  0
 25 18  1  0
 26 27  1  0
 26 24  1  0
 28 26  2  0
M  END
$$$$
