LCA.pdb
     RDKit          3D

 20 19  0  0  1  0  0  0  0  0999 V2000
   11.4729  -11.3332  -11.8701 C   0  0  0  0  0  0  0  0  0  0  0  0
   12.3016  -11.7131  -10.6952 C   0  0  1  0  0  0  0  0  0  0  0  0
   11.4056  -12.0126   -9.5088 C   0  0  0  0  0  0  0  0  0  0  0  0
   13.2341  -12.8487  -11.0005 C   0  0  0  0  0  0  0  0  0  0  0  0
   14.1841  -12.4519  -12.0733 C   0  0  2  0  0  0  0  0  0  0  0  0
   14.8524  -13.5664  -12.7005 N   0  0  0  0  0  0  0  0  0  0  0  0
   15.1818  -11.4448  -11.5746 C   0  0  0  0  0  0  0  0  0  0  0  0
   16.0421  -11.7649  -10.7056 O   0  0  0  0  0  0  0  0  0  0  0  0
   15.2005  -10.1301  -12.0433 N   0  0  0  0  0  0  0  0  0  0  0  0
   16.1587   -9.1488  -11.5745 C   0  0  1  0  0  0  0  0  0  0  0  0
   17.1239   -8.7125  -12.6270 C   0  0  0  0  0  0  0  0  0  0  0  0
   18.2745   -7.5275  -11.8703 S   0  0  0  0  0  0  0  0  0  0  0  0
   15.4553   -7.9659  -10.9675 C   0  0  0  0  0  0  0  0  0  0  0  0
   14.5827   -7.3950  -11.6487 O   0  0  0  0  0  0  0  0  0  0  0  0
   15.5271   -6.5215   -7.5084 C   0  0  0  0  0  0  0  0  0  0  0  0
   15.1022   -6.4559   -8.9448 C   0  0  2  0  0  0  0  0  0  0  0  0
   15.7600   -7.5075   -9.6773 N   0  0  0  0  0  0  0  0  0  0  0  0
   15.2254   -5.1078   -9.5491 C   0  0  0  0  0  0  0  0  0  0  0  0
   14.3653   -4.0805   -9.1734 O   0  0  0  0  0  0  0  0  0  0  0  0
   16.0888   -4.8436  -10.4031 O   0  0  0  0  0  0  0  0  0  0  0  0
  2  4  1  0
  2  1  1  6
  3  2  1  0
  4  5  1  0
  5  7  1  0
  5  6  1  1
  7  8  2  0
  9 10  1  0
  9  7  1  0
 10 13  1  0
 11 12  1  0
 10 11  1  6
 13 14  2  0
 16 15  1  1
 16 18  1  0
 17 13  1  0
 17 16  1  0
 18 20  2  0
 18 19  1  0
M  END
$$$$
