LCA.pdb
     RDKit          3D

 20 19  0  0  1  0  0  0  0  0999 V2000
   27.1785  -30.0823  -20.2929 C   0  0  0  0  0  0  0  0  0  0  0  0
   28.2261  -29.5545  -19.3788 C   0  0  1  0  0  0  0  0  0  0  0  0
   29.3772  -28.9884  -20.1879 C   0  0  0  0  0  0  0  0  0  0  0  0
   27.6774  -28.5567  -18.4013 C   0  0  0  0  0  0  0  0  0  0  0  0
   28.7515  -28.1080  -17.4761 C   0  0  2  0  0  0  0  0  0  0  0  0
   29.1731  -29.1209  -16.5388 N   0  0  0  0  0  0  0  0  0  0  0  0
   28.3623  -26.8466  -16.7579 C   0  0  0  0  0  0  0  0  0  0  0  0
   28.1568  -26.8518  -15.5107 O   0  0  0  0  0  0  0  0  0  0  0  0
   28.2127  -25.6316  -17.4286 N   0  0  0  0  0  0  0  0  0  0  0  0
   27.9694  -24.3827  -16.7345 C   0  0  1  0  0  0  0  0  0  0  0  0
   29.0676  -24.0012  -15.7975 C   0  0  0  0  0  0  0  0  0  0  0  0
   30.6108  -23.9190  -16.7527 S   0  0  0  0  0  0  0  0  0  0  0  0
   27.6902  -23.2754  -17.7136 C   0  0  0  0  0  0  0  0  0  0  0  0
   28.4283  -23.1818  -18.7124 O   0  0  0  0  0  0  0  0  0  0  0  0
   24.8799  -20.8117  -17.9907 C   0  0  0  0  0  0  0  0  0  0  0  0
   26.2424  -21.2909  -18.3932 C   0  0  2  0  0  0  0  0  0  0  0  0
   26.6367  -22.3692  -17.5230 N   0  0  0  0  0  0  0  0  0  0  0  0
   27.2453  -20.2083  -18.5335 C   0  0  0  0  0  0  0  0  0  0  0  0
   27.2180  -19.3535  -19.6312 O   0  0  0  0  0  0  0  0  0  0  0  0
   28.1383  -20.0222  -17.6893 O   0  0  0  0  0  0  0  0  0  0  0  0
  2  4  1  0
  2  1  1  6
  3  2  1  0
  4  5  1  0
  5  7  1  0
  5  6  1  1
  7  8  2  0
  9 10  1  0
  9  7  1  0
 10 13  1  0
 11 12  1  0
 10 11  1  6
 13 14  2  0
 16 15  1  1
 16 18  1  0
 17 13  1  0
 17 16  1  0
 18 20  2  0
 18 19  1  0
M  END
$$$$
