LCA.pdb
     RDKit          3D

 20 19  0  0  1  0  0  0  0  0999 V2000
   17.0832  -11.5856  -20.4198 C   0  0  0  0  0  0  0  0  0  0  0  0
   18.4148  -11.9884  -19.8943 C   0  0  1  0  0  0  0  0  0  0  0  0
   19.5076  -11.4651  -20.8065 C   0  0  0  0  0  0  0  0  0  0  0  0
   18.6159  -11.5631  -18.4692 C   0  0  0  0  0  0  0  0  0  0  0  0
   19.9674  -11.9715  -18.0028 C   0  0  2  0  0  0  0  0  0  0  0  0
   20.0817  -13.3802  -17.7118 N   0  0  0  0  0  0  0  0  0  0  0  0
   20.4121  -11.1471  -16.8277 C   0  0  0  0  0  0  0  0  0  0  0  0
   19.8922  -11.3156  -15.6879 O   0  0  0  0  0  0  0  0  0  0  0  0
   21.4048  -10.1727  -16.9432 N   0  0  0  0  0  0  0  0  0  0  0  0
   21.9016   -9.4268  -15.8041 C   0  0  1  0  0  0  0  0  0  0  0  0
   23.3766   -9.5535  -15.6098 C   0  0  0  0  0  0  0  0  0  0  0  0
   23.6929  -11.1282  -14.7606 S   0  0  0  0  0  0  0  0  0  0  0  0
   21.4942   -7.9817  -15.8955 C   0  0  0  0  0  0  0  0  0  0  0  0
   21.9095   -7.3202  -16.8657 O   0  0  0  0  0  0  0  0  0  0  0  0
   19.2738   -5.8439  -13.7441 C   0  0  0  0  0  0  0  0  0  0  0  0
   20.2449   -6.0087  -14.8744 C   0  0  2  0  0  0  0  0  0  0  0  0
   20.6738   -7.3829  -14.9281 N   0  0  0  0  0  0  0  0  0  0  0  0
   21.3450   -5.0149  -14.8739 C   0  0  0  0  0  0  0  0  0  0  0  0
   21.2475   -3.8482  -15.6259 O   0  0  0  0  0  0  0  0  0  0  0  0
   22.3838   -5.1803  -14.2119 O   0  0  0  0  0  0  0  0  0  0  0  0
  2  4  1  0
  2  1  1  6
  3  2  1  0
  4  5  1  0
  5  7  1  0
  5  6  1  1
  7  8  2  0
  9 10  1  0
  9  7  1  0
 10 13  1  0
 11 12  1  0
 10 11  1  6
 13 14  2  0
 16 15  1  1
 16 18  1  0
 17 13  1  0
 17 16  1  0
 18 20  2  0
 18 19  1  0
M  END
$$$$
