LCA.pdb
     RDKit          3D

 20 19  0  0  1  0  0  0  0  0999 V2000
   17.8571  -15.7753  -16.2182 C   0  0  0  0  0  0  0  0  0  0  0  0
   18.3033  -14.4842  -16.8060 C   0  0  1  0  0  0  0  0  0  0  0  0
   17.3941  -14.1020  -17.9582 C   0  0  0  0  0  0  0  0  0  0  0  0
   18.4015  -13.3953  -15.7779 C   0  0  0  0  0  0  0  0  0  0  0  0
   18.8100  -12.1206  -16.4251 C   0  0  2  0  0  0  0  0  0  0  0  0
   20.1748  -12.1170  -16.8939 N   0  0  0  0  0  0  0  0  0  0  0  0
   18.5527  -10.9442  -15.5260 C   0  0  0  0  0  0  0  0  0  0  0  0
   17.4944  -10.8777  -14.8380 O   0  0  0  0  0  0  0  0  0  0  0  0
   19.4591   -9.8886  -15.4142 N   0  0  0  0  0  0  0  0  0  0  0  0
   19.2625   -8.7862  -14.4939 C   0  0  1  0  0  0  0  0  0  0  0  0
   20.4691   -8.4793  -13.6698 C   0  0  0  0  0  0  0  0  0  0  0  0
   21.8539   -8.1695  -14.8043 S   0  0  0  0  0  0  0  0  0  0  0  0
   18.7858   -7.5612  -15.2250 C   0  0  0  0  0  0  0  0  0  0  0  0
   19.2588   -7.3369  -16.3552 O   0  0  0  0  0  0  0  0  0  0  0  0
   16.0810   -5.0704  -14.5343 C   0  0  0  0  0  0  0  0  0  0  0  0
   17.3592   -5.4491  -15.2203 C   0  0  2  0  0  0  0  0  0  0  0  0
   17.8396   -6.6892  -14.6666 N   0  0  0  0  0  0  0  0  0  0  0  0
   18.3639   -4.3600  -15.2674 C   0  0  0  0  0  0  0  0  0  0  0  0
   18.1888   -3.2690  -16.1132 O   0  0  0  0  0  0  0  0  0  0  0  0
   19.3884   -4.3761  -14.5639 O   0  0  0  0  0  0  0  0  0  0  0  0
  2  4  1  0
  2  1  1  1
  3  2  1  0
  4  5  1  0
  5  7  1  0
  5  6  1  1
  7  8  2  0
  9 10  1  0
  9  7  1  0
 10 13  1  0
 11 12  1  0
 10 11  1  6
 13 14  2  0
 16 15  1  1
 16 18  1  0
 17 13  1  0
 17 16  1  0
 18 20  2  0
 18 19  1  0
M  END
$$$$
