LCA.pdb
     RDKit          3D

 20 19  0  0  1  0  0  0  0  0999 V2000
   15.6264   -9.7040  -18.6071 C   0  0  0  0  0  0  0  0  0  0  0  0
   16.9537  -10.2137  -18.1713 C   0  0  1  0  0  0  0  0  0  0  0  0
   17.9349  -10.1466  -19.3258 C   0  0  0  0  0  0  0  0  0  0  0  0
   17.4643   -9.5012  -16.9531 C   0  0  0  0  0  0  0  0  0  0  0  0
   18.8082  -10.0208  -16.5863 C   0  0  2  0  0  0  0  0  0  0  0  0
   18.8019  -11.3974  -16.1536 N   0  0  0  0  0  0  0  0  0  0  0  0
   19.4725   -9.1438  -15.5625 C   0  0  0  0  0  0  0  0  0  0  0  0
   18.9655   -8.9951  -14.4142 O   0  0  0  0  0  0  0  0  0  0  0  0
   20.6616   -8.4646  -15.8326 N   0  0  0  0  0  0  0  0  0  0  0  0
   21.3839   -7.7234  -14.8179 C   0  0  1  0  0  0  0  0  0  0  0  0
   22.8022   -8.1626  -14.6595 C   0  0  0  0  0  0  0  0  0  0  0  0
   22.8094   -9.6607  -13.6317 S   0  0  0  0  0  0  0  0  0  0  0  0
   21.3061   -6.2447  -15.0826 C   0  0  0  0  0  0  0  0  0  0  0  0
   21.6849   -5.8317  -16.1949 O   0  0  0  0  0  0  0  0  0  0  0  0
   19.6815   -3.4404  -13.2294 C   0  0  0  0  0  0  0  0  0  0  0  0
   20.6638   -3.9212  -14.2551 C   0  0  2  0  0  0  0  0  0  0  0  0
   20.8251   -5.3462  -14.1189 N   0  0  0  0  0  0  0  0  0  0  0  0
   21.9314   -3.1530  -14.2826 C   0  0  0  0  0  0  0  0  0  0  0  0
   23.0970   -3.6876  -13.7425 O   0  0  0  0  0  0  0  0  0  0  0  0
   22.0042   -2.0170  -14.7817 O   0  0  0  0  0  0  0  0  0  0  0  0
  2  4  1  0
  2  1  1  6
  3  2  1  0
  4  5  1  0
  5  7  1  0
  5  6  1  1
  7  8  2  0
  9 10  1  0
  9  7  1  0
 10 13  1  0
 11 12  1  0
 10 11  1  6
 13 14  2  0
 16 15  1  1
 16 18  1  0
 17 13  1  0
 17 16  1  0
 18 20  2  0
 18 19  1  0
M  END
$$$$
