LCA.pdb
     RDKit          3D

 20 19  0  0  1  0  0  0  0  0999 V2000
   14.8275  -15.1956  -15.8807 C   0  0  0  0  0  0  0  0  0  0  0  0
   15.1265  -13.8416  -16.4180 C   0  0  1  0  0  0  0  0  0  0  0  0
   14.0428  -13.4243  -17.3935 C   0  0  0  0  0  0  0  0  0  0  0  0
   15.3271  -12.8292  -15.3285 C   0  0  0  0  0  0  0  0  0  0  0  0
   15.6506  -11.5038  -15.9196 C   0  0  2  0  0  0  0  0  0  0  0  0
   16.8321  -11.5086  -16.7481 N   0  0  0  0  0  0  0  0  0  0  0  0
   15.7472  -10.4420  -14.8605 C   0  0  0  0  0  0  0  0  0  0  0  0
   14.8545  -10.3341  -13.9721 O   0  0  0  0  0  0  0  0  0  0  0  0
   16.8124   -9.5412  -14.8136 N   0  0  0  0  0  0  0  0  0  0  0  0
   16.9056   -8.4951  -13.8146 C   0  0  1  0  0  0  0  0  0  0  0  0
   18.2879   -8.3037  -13.2835 C   0  0  0  0  0  0  0  0  0  0  0  0
   18.4977   -9.4174  -11.8635 S   0  0  0  0  0  0  0  0  0  0  0  0
   16.3503   -7.2018  -14.3450 C   0  0  0  0  0  0  0  0  0  0  0  0
   16.7526   -6.8076  -15.4559 O   0  0  0  0  0  0  0  0  0  0  0  0
   13.6038   -4.9595  -13.1291 C   0  0  0  0  0  0  0  0  0  0  0  0
   14.7701   -5.2265  -14.0326 C   0  0  2  0  0  0  0  0  0  0  0  0
   15.4091   -6.4514  -13.6247 N   0  0  0  0  0  0  0  0  0  0  0  0
   15.6861   -4.0718  -14.1919 C   0  0  0  0  0  0  0  0  0  0  0  0
   15.4354   -3.0940  -15.1496 O   0  0  0  0  0  0  0  0  0  0  0  0
   16.7003   -3.9317  -13.4873 O   0  0  0  0  0  0  0  0  0  0  0  0
  2  4  1  0
  2  1  1  1
  3  2  1  0
  4  5  1  0
  5  7  1  0
  5  6  1  1
  7  8  2  0
  9 10  1  0
  9  7  1  0
 10 13  1  0
 11 12  1  0
 10 11  1  6
 13 14  2  0
 16 15  1  1
 16 18  1  0
 17 13  1  0
 17 16  1  0
 18 20  2  0
 18 19  1  0
M  END
$$$$
