LCA.pdb
     RDKit          3D

 20 19  0  0  1  0  0  0  0  0999 V2000
   27.2295  -15.4599  -16.6628 C   0  0  0  0  0  0  0  0  0  0  0  0
   26.9618  -16.9144  -16.5068 C   0  0  1  0  0  0  0  0  0  0  0  0
   28.2674  -17.6850  -16.5465 C   0  0  0  0  0  0  0  0  0  0  0  0
   26.1642  -17.2163  -15.2720 C   0  0  0  0  0  0  0  0  0  0  0  0
   26.0157  -18.6869  -15.1098 C   0  0  2  0  0  0  0  0  0  0  0  0
   25.3064  -19.3234  -16.1933 N   0  0  0  0  0  0  0  0  0  0  0  0
   25.3883  -19.0303  -13.7881 C   0  0  0  0  0  0  0  0  0  0  0  0
   24.3307  -18.4527  -13.4067 O   0  0  0  0  0  0  0  0  0  0  0  0
   25.9398  -19.9887  -12.9362 N   0  0  0  0  0  0  0  0  0  0  0  0
   25.3076  -20.3831  -11.6930 C   0  0  1  0  0  0  0  0  0  0  0  0
   24.6317  -21.7124  -11.7671 C   0  0  0  0  0  0  0  0  0  0  0  0
   25.8834  -22.9489  -12.2199 S   0  0  0  0  0  0  0  0  0  0  0  0
   26.2946  -20.3451  -10.5586 C   0  0  0  0  0  0  0  0  0  0  0  0
   27.3363  -21.0185  -10.6705 O   0  0  0  0  0  0  0  0  0  0  0  0
   26.7043  -18.3098   -7.4799 C   0  0  0  0  0  0  0  0  0  0  0  0
   26.7803  -19.6457   -8.1563 C   0  0  2  0  0  0  0  0  0  0  0  0
   26.0648  -19.5811   -9.4049 N   0  0  0  0  0  0  0  0  0  0  0  0
   26.4058  -20.7850   -7.2847 C   0  0  0  0  0  0  0  0  0  0  0  0
   27.1994  -21.1374   -6.1974 O   0  0  0  0  0  0  0  0  0  0  0  0
   25.3831  -21.4620   -7.4862 O   0  0  0  0  0  0  0  0  0  0  0  0
  2  4  1  0
  2  1  1  1
  3  2  1  0
  4  5  1  0
  5  7  1  0
  5  6  1  6
  7  8  2  0
  9 10  1  0
  9  7  1  0
 10 13  1  0
 11 12  1  0
 10 11  1  6
 13 14  2  0
 16 15  1  1
 16 18  1  0
 17 13  1  0
 17 16  1  0
 18 20  2  0
 18 19  1  0
M  END
$$$$
