LCA.pdb
     RDKit          3D

 20 19  0  0  1  0  0  0  0  0999 V2000
   25.4049  -12.5127  -17.0323 C   0  0  0  0  0  0  0  0  0  0  0  0
   24.1099  -12.5078  -16.3012 C   0  0  1  0  0  0  0  0  0  0  0  0
   24.3531  -12.7397  -14.8223 C   0  0  0  0  0  0  0  0  0  0  0  0
   23.3184  -11.2583  -16.5551 C   0  0  0  0  0  0  0  0  0  0  0  0
   21.9798  -11.3661  -15.9169 C   0  0  2  0  0  0  0  0  0  0  0  0
   21.1592  -12.4215  -16.4601 N   0  0  0  0  0  0  0  0  0  0  0  0
   21.2503  -10.0527  -15.9520 C   0  0  0  0  0  0  0  0  0  0  0  0
   20.6687   -9.6659  -17.0054 O   0  0  0  0  0  0  0  0  0  0  0  0
   21.1853   -9.2147  -14.8375 N   0  0  0  0  0  0  0  0  0  0  0  0
   20.4531   -7.9638  -14.8443 C   0  0  1  0  0  0  0  0  0  0  0  0
   19.1133   -8.0574  -14.1921 C   0  0  0  0  0  0  0  0  0  0  0  0
   19.3316   -8.8807  -12.5873 S   0  0  0  0  0  0  0  0  0  0  0  0
   21.2740   -6.8635  -14.2295 C   0  0  0  0  0  0  0  0  0  0  0  0
   21.9248   -7.1280  -13.2010 O   0  0  0  0  0  0  0  0  0  0  0  0
   22.8841   -3.9020  -15.4703 C   0  0  0  0  0  0  0  0  0  0  0  0
   22.0892   -4.4505  -14.3235 C   0  0  2  0  0  0  0  0  0  0  0  0
   21.3162   -5.5756  -14.7837 N   0  0  0  0  0  0  0  0  0  0  0  0
   21.3142   -3.4266  -13.5827 C   0  0  0  0  0  0  0  0  0  0  0  0
   21.9148   -2.6682  -12.5824 O   0  0  0  0  0  0  0  0  0  0  0  0
   20.1144   -3.2065  -13.8209 O   0  0  0  0  0  0  0  0  0  0  0  0
  2  4  1  0
  2  1  1  6
  3  2  1  0
  4  5  1  0
  5  7  1  0
  5  6  1  6
  7  8  2  0
  9 10  1  0
  9  7  1  0
 10 13  1  0
 11 12  1  0
 10 11  1  1
 13 14  2  0
 16 15  1  6
 16 18  1  0
 17 13  1  0
 17 16  1  0
 18 20  2  0
 18 19  1  0
M  END
$$$$
