LCA.pdb
     RDKit          3D

 20 19  0  0  1  0  0  0  0  0999 V2000
   18.8890  -12.1571  -19.3191 C   0  0  0  0  0  0  0  0  0  0  0  0
   17.8687  -11.6597  -18.3583 C   0  0  1  0  0  0  0  0  0  0  0  0
   16.7495  -12.6745  -18.2252 C   0  0  0  0  0  0  0  0  0  0  0  0
   18.4668  -11.2997  -17.0298 C   0  0  0  0  0  0  0  0  0  0  0  0
   19.1251   -9.9691  -17.1125 C   0  0  2  0  0  0  0  0  0  0  0  0
   20.2744   -9.9416  -17.9847 N   0  0  0  0  0  0  0  0  0  0  0  0
   19.4797   -9.4491  -15.7479 C   0  0  0  0  0  0  0  0  0  0  0  0
   18.6110   -9.3990  -14.8310 O   0  0  0  0  0  0  0  0  0  0  0  0
   20.7663   -9.0046  -15.4389 N   0  0  0  0  0  0  0  0  0  0  0  0
   21.1461   -8.5828  -14.1052 C   0  0  1  0  0  0  0  0  0  0  0  0
   22.0559   -9.5451  -13.4155 C   0  0  0  0  0  0  0  0  0  0  0  0
   23.4913   -9.8244  -14.4937 S   0  0  0  0  0  0  0  0  0  0  0  0
   21.7454   -7.2035  -14.1338 C   0  0  0  0  0  0  0  0  0  0  0  0
   22.1747   -6.7330  -13.0634 O   0  0  0  0  0  0  0  0  0  0  0  0
   22.4478   -4.7887  -16.9187 C   0  0  0  0  0  0  0  0  0  0  0  0
   22.2476   -5.0876  -15.4632 C   0  0  2  0  0  0  0  0  0  0  0  0
   21.8261   -6.4576  -15.3190 N   0  0  0  0  0  0  0  0  0  0  0  0
   21.3986   -4.0994  -14.7559 C   0  0  0  0  0  0  0  0  0  0  0  0
   21.9721   -3.0336  -14.0692 O   0  0  0  0  0  0  0  0  0  0  0  0
   20.1584   -4.1808  -14.7472 O   0  0  0  0  0  0  0  0  0  0  0  0
  2  4  1  0
  2  1  1  6
  3  2  1  0
  4  5  1  0
  5  7  1  0
  5  6  1  6
  7  8  2  0
  9 10  1  0
  9  7  1  0
 10 13  1  0
 11 12  1  0
 10 11  1  6
 13 14  2  0
 16 15  1  6
 16 18  1  0
 17 13  1  0
 17 16  1  0
 18 20  2  0
 18 19  1  0
M  END
$$$$
