YGE.pdb
     RDKit          3D

 26 26  0  0  1  0  0  0  0  0999 V2000
    5.3590  -10.5151   26.8080 O   0  0  0  0  0  0  0  0  0  0  0  0
    6.2046  -11.5837   26.5045 C   0  0  0  0  0  0  0  0  0  0  0  0
    6.1280  -12.7627   27.2143 C   0  0  0  0  0  0  0  0  0  0  0  0
    6.9717  -13.7943   26.8930 C   0  0  0  0  0  0  0  0  0  0  0  0
    7.9220  -13.7226   25.8711 C   0  0  0  0  0  0  0  0  0  0  0  0
    8.8086  -14.8741   25.5705 C   0  0  0  0  0  0  0  0  0  0  0  0
    8.2118  -15.7551   24.4836 C   0  0  2  0  0  0  0  0  0  0  0  0
    7.0670  -16.4120   25.0503 N   0  0  0  0  0  0  0  0  0  0  0  0
    9.2373  -16.7308   23.9996 C   0  0  0  0  0  0  0  0  0  0  0  0
    9.5895  -17.7339   24.6594 O   0  0  0  0  0  0  0  0  0  0  0  0
    7.9779  -12.5327   25.1771 C   0  0  0  0  0  0  0  0  0  0  0  0
    7.1379  -11.4881   25.4876 C   0  0  0  0  0  0  0  0  0  0  0  0
    9.8450  -16.5266   22.7442 N   0  0  0  0  0  0  0  0  0  0  0  0
   11.1066  -15.8547   22.5553 C   0  0  0  0  0  0  0  0  0  0  0  0
   12.2563  -16.7196   22.9727 C   0  0  0  0  0  0  0  0  0  0  0  0
   11.9994  -17.8246   23.5185 O   0  0  0  0  0  0  0  0  0  0  0  0
   13.5971  -16.3532   22.7830 N   0  0  0  0  0  0  0  0  0  0  0  0
   14.7260  -17.1725   23.2336 C   0  0  1  0  0  0  0  0  0  0  0  0
   15.9387  -16.9331   22.4270 C   0  0  0  0  0  0  0  0  0  0  0  0
   15.6619  -16.5995   21.0103 C   0  0  0  0  0  0  0  0  0  0  0  0
   16.7396  -16.2560   20.1150 C   0  0  0  0  0  0  0  0  0  0  0  0
   17.3454  -15.1969   20.0715 O   0  0  0  0  0  0  0  0  0  0  0  0
   14.8486  -17.1697   24.6836 C   0  0  0  0  0  0  0  0  0  0  0  0
   15.5810  -18.1498   25.3682 O   0  0  0  0  0  0  0  0  0  0  0  0
   17.1632  -17.2309   19.1733 O   0  0  0  0  0  0  0  0  0  0  0  0
   14.3004  -16.2782   25.4236 O   0  0  0  0  0  0  0  0  0  0  0  0
  1  2  1  0
  2  3  2  0
  3  4  1  0
  5  4  2  0
  5  6  1  0
  6  7  1  0
  7  9  1  0
  7  8  1  1
  9 13  1  0
 10  9  2  0
 11  5  1  0
 12  2  1  0
 12 11  2  0
 13 14  1  0
 15 17  1  0
 15 14  1  0
 16 15  2  0
 18 17  1  0
 18 23  1  0
 18 19  1  6
 20 19  1  0
 21 20  1  0
 22 21  2  0
 23 24  1  0
 25 21  1  0
 26 23  2  0
M  END
$$$$
