YGE.pdb
     RDKit          3D

 26 26  0  0  1  0  0  0  0  0999 V2000
    6.2074  -11.4481   27.9576 O   0  0  0  0  0  0  0  0  0  0  0  0
    6.4530  -12.1355   26.7676 C   0  0  0  0  0  0  0  0  0  0  0  0
    6.6144  -11.4510   25.5822 C   0  0  0  0  0  0  0  0  0  0  0  0
    6.8544  -12.1538   24.4300 C   0  0  0  0  0  0  0  0  0  0  0  0
    6.9475  -13.5472   24.3827 C   0  0  0  0  0  0  0  0  0  0  0  0
    7.2088  -14.2522   23.1032 C   0  0  0  0  0  0  0  0  0  0  0  0
    8.3196  -15.2793   23.2613 C   0  0  2  0  0  0  0  0  0  0  0  0
    9.5093  -14.5645   23.6315 N   0  0  0  0  0  0  0  0  0  0  0  0
    8.4949  -16.0394   21.9847 C   0  0  0  0  0  0  0  0  0  0  0  0
    7.6880  -16.9122   21.5940 O   0  0  0  0  0  0  0  0  0  0  0  0
    6.7822  -14.2073   25.5817 C   0  0  0  0  0  0  0  0  0  0  0  0
    6.5407  -13.5162   26.7466 C   0  0  0  0  0  0  0  0  0  0  0  0
    9.6150  -15.7725   21.1717 N   0  0  0  0  0  0  0  0  0  0  0  0
   10.4848  -16.7884   20.6330 C   0  0  0  0  0  0  0  0  0  0  0  0
   11.7121  -16.9618   21.4742 C   0  0  0  0  0  0  0  0  0  0  0  0
   12.0864  -15.9916   22.1839 O   0  0  0  0  0  0  0  0  0  0  0  0
   12.4568  -18.1503   21.5044 N   0  0  0  0  0  0  0  0  0  0  0  0
   13.4206  -18.4685   22.5619 C   0  0  1  0  0  0  0  0  0  0  0  0
   12.8133  -19.2763   23.6377 C   0  0  0  0  0  0  0  0  0  0  0  0
   12.0716  -18.4788   24.6422 C   0  0  0  0  0  0  0  0  0  0  0  0
   11.8723  -18.9862   25.9777 C   0  0  0  0  0  0  0  0  0  0  0  0
   12.0352  -18.3779   27.0237 O   0  0  0  0  0  0  0  0  0  0  0  0
   14.6993  -18.8960   22.0145 C   0  0  0  0  0  0  0  0  0  0  0  0
   15.9152  -18.3650   22.4676 O   0  0  0  0  0  0  0  0  0  0  0  0
   11.4417  -20.3315   26.1246 O   0  0  0  0  0  0  0  0  0  0  0  0
   14.7971  -19.7791   21.0907 O   0  0  0  0  0  0  0  0  0  0  0  0
  1  2  1  0
  2  3  2  0
  3  4  1  0
  5  4  2  0
  5  6  1  0
  6  7  1  0
  7  9  1  0
  7  8  1  6
  9 13  1  0
 10  9  2  0
 11  5  1  0
 12  2  1  0
 12 11  2  0
 13 14  1  0
 15 17  1  0
 15 14  1  0
 16 15  2  0
 18 17  1  0
 18 23  1  0
 18 19  1  1
 20 19  1  0
 21 20  1  0
 22 21  2  0
 23 24  1  0
 25 21  1  0
 26 23  2  0
M  END
$$$$
