YGE.pdb
     RDKit          3D

 26 26  0  0  1  0  0  0  0  0999 V2000
    6.5267  -11.0879   27.2716 O   0  0  0  0  0  0  0  0  0  0  0  0
    6.6806  -12.0219   26.2455 C   0  0  0  0  0  0  0  0  0  0  0  0
    7.1763  -13.2804   26.5106 C   0  0  0  0  0  0  0  0  0  0  0  0
    7.3161  -14.1758   25.4821 C   0  0  0  0  0  0  0  0  0  0  0  0
    6.9806  -13.8857   24.1571 C   0  0  0  0  0  0  0  0  0  0  0  0
    7.1553  -14.8978   23.0858 C   0  0  0  0  0  0  0  0  0  0  0  0
    8.5422  -14.8068   22.4679 C   0  0  2  0  0  0  0  0  0  0  0  0
    8.4652  -13.8616   21.3890 N   0  0  0  0  0  0  0  0  0  0  0  0
    8.9804  -16.1587   22.0005 C   0  0  0  0  0  0  0  0  0  0  0  0
    8.4890  -16.7271   21.0001 O   0  0  0  0  0  0  0  0  0  0  0  0
    6.4874  -12.6205   23.9192 C   0  0  0  0  0  0  0  0  0  0  0  0
    6.3412  -11.7105   24.9409 C   0  0  0  0  0  0  0  0  0  0  0  0
    9.9932  -16.8378   22.7077 N   0  0  0  0  0  0  0  0  0  0  0  0
   10.3777  -18.2048   22.4579 C   0  0  0  0  0  0  0  0  0  0  0  0
   11.4549  -18.6519   23.3979 C   0  0  0  0  0  0  0  0  0  0  0  0
   11.8404  -19.8486   23.3318 O   0  0  0  0  0  0  0  0  0  0  0  0
   12.0480  -17.8002   24.3418 N   0  0  0  0  0  0  0  0  0  0  0  0
   13.0030  -18.2621   25.3533 C   0  0  1  0  0  0  0  0  0  0  0  0
   14.1915  -17.3901   25.4295 C   0  0  0  0  0  0  0  0  0  0  0  0
   14.7936  -17.0786   24.1122 C   0  0  0  0  0  0  0  0  0  0  0  0
   15.9719  -16.2511   24.0230 C   0  0  0  0  0  0  0  0  0  0  0  0
   17.0640  -16.4768   24.5200 O   0  0  0  0  0  0  0  0  0  0  0  0
   12.3374  -18.6331   26.5930 C   0  0  0  0  0  0  0  0  0  0  0  0
   10.9605  -18.4467   26.7805 O   0  0  0  0  0  0  0  0  0  0  0  0
   15.8843  -15.0399   23.2868 O   0  0  0  0  0  0  0  0  0  0  0  0
   12.9608  -19.1509   27.5861 O   0  0  0  0  0  0  0  0  0  0  0  0
  1  2  1  0
  2  3  2  0
  3  4  1  0
  5  4  2  0
  5  6  1  0
  6  7  1  0
  7  9  1  0
  7  8  1  6
  9 13  1  0
 10  9  2  0
 11  5  1  0
 12  2  1  0
 12 11  2  0
 13 14  1  0
 15 17  1  0
 15 14  1  0
 16 15  2  0
 18 17  1  0
 18 23  1  0
 18 19  1  1
 20 19  1  0
 21 20  1  0
 22 21  2  0
 23 24  1  0
 25 21  1  0
 26 23  2  0
M  END
$$$$
