YGE.pdb
     RDKit          3D

 26 26  0  0  1  0  0  0  0  0999 V2000
    5.2590  -10.4392   26.9231 O   0  0  0  0  0  0  0  0  0  0  0  0
    6.0114  -11.5299   26.4834 C   0  0  0  0  0  0  0  0  0  0  0  0
    5.9638  -12.7321   27.1558 C   0  0  0  0  0  0  0  0  0  0  0  0
    6.7139  -13.7850   26.6999 C   0  0  0  0  0  0  0  0  0  0  0  0
    7.5390  -13.7130   25.5745 C   0  0  0  0  0  0  0  0  0  0  0  0
    8.3286  -14.8882   25.1298 C   0  0  0  0  0  0  0  0  0  0  0  0
    7.5516  -15.7191   24.1201 C   0  0  2  0  0  0  0  0  0  0  0  0
    6.5359  -16.4293   24.8463 N   0  0  0  0  0  0  0  0  0  0  0  0
    8.4807  -16.6458   23.4016 C   0  0  0  0  0  0  0  0  0  0  0  0
    8.7593  -17.7918   23.8194 O   0  0  0  0  0  0  0  0  0  0  0  0
    7.5685  -12.4997   24.9206 C   0  0  0  0  0  0  0  0  0  0  0  0
    6.8213  -11.4335   25.3658 C   0  0  0  0  0  0  0  0  0  0  0  0
    9.0784  -16.2251   22.1963 N   0  0  0  0  0  0  0  0  0  0  0  0
   10.0566  -16.9930   21.4668 C   0  0  0  0  0  0  0  0  0  0  0  0
   11.2187  -17.3669   22.3350 C   0  0  0  0  0  0  0  0  0  0  0  0
   11.8712  -16.4404   22.8836 O   0  0  0  0  0  0  0  0  0  0  0  0
   11.6082  -18.6955   22.5608 N   0  0  0  0  0  0  0  0  0  0  0  0
   12.7878  -19.0647   23.3487 C   0  0  1  0  0  0  0  0  0  0  0  0
   14.0405  -18.6128   22.7123 C   0  0  0  0  0  0  0  0  0  0  0  0
   14.0246  -18.6898   21.2328 C   0  0  0  0  0  0  0  0  0  0  0  0
   15.2021  -18.3552   20.4696 C   0  0  0  0  0  0  0  0  0  0  0  0
   15.6396  -17.2364   20.2517 O   0  0  0  0  0  0  0  0  0  0  0  0
   12.5955  -18.7939   24.7655 C   0  0  0  0  0  0  0  0  0  0  0  0
   11.4283  -18.1900   25.2538 O   0  0  0  0  0  0  0  0  0  0  0  0
   15.9527  -19.4168   19.8983 O   0  0  0  0  0  0  0  0  0  0  0  0
   13.4729  -19.0879   25.6524 O   0  0  0  0  0  0  0  0  0  0  0  0
  1  2  1  0
  2  3  2  0
  3  4  1  0
  5  4  2  0
  5  6  1  0
  6  7  1  0
  7  9  1  0
  7  8  1  1
  9 13  1  0
 10  9  2  0
 11  5  1  0
 12  2  1  0
 12 11  2  0
 13 14  1  0
 15 17  1  0
 15 14  1  0
 16 15  2  0
 18 17  1  0
 18 23  1  0
 18 19  1  6
 20 19  1  0
 21 20  1  0
 22 21  2  0
 23 24  1  0
 25 21  1  0
 26 23  2  0
M  END
$$$$
