YGE.pdb
     RDKit          3D

 26 26  0  0  1  0  0  0  0  0999 V2000
   10.5178  -14.7428   30.8910 O   0  0  0  0  0  0  0  0  0  0  0  0
   10.4773  -14.7634   29.4956 C   0  0  0  0  0  0  0  0  0  0  0  0
   10.0065  -13.6763   28.7911 C   0  0  0  0  0  0  0  0  0  0  0  0
    9.9791  -13.7264   27.4214 C   0  0  0  0  0  0  0  0  0  0  0  0
   10.4071  -14.8322   26.6822 C   0  0  0  0  0  0  0  0  0  0  0  0
   10.3524  -14.8270   25.1991 C   0  0  0  0  0  0  0  0  0  0  0  0
    9.1285  -15.5758   24.6941 C   0  0  2  0  0  0  0  0  0  0  0  0
    8.9660  -16.7346   25.5273 N   0  0  0  0  0  0  0  0  0  0  0  0
    9.3131  -15.9399   23.2549 C   0  0  0  0  0  0  0  0  0  0  0  0
    9.5645  -15.0973   22.3648 O   0  0  0  0  0  0  0  0  0  0  0  0
   10.8731  -15.9056   27.4110 C   0  0  0  0  0  0  0  0  0  0  0  0
   10.9070  -15.8708   28.7860 C   0  0  0  0  0  0  0  0  0  0  0  0
    9.2027  -17.2902   22.8657 N   0  0  0  0  0  0  0  0  0  0  0  0
    9.9123  -17.8728   21.7539 C   0  0  0  0  0  0  0  0  0  0  0  0
   11.2755  -18.3432   22.1594 C   0  0  0  0  0  0  0  0  0  0  0  0
   11.7936  -17.8407   23.1909 O   0  0  0  0  0  0  0  0  0  0  0  0
   11.9942  -19.3124   21.4438 N   0  0  0  0  0  0  0  0  0  0  0  0
   13.3525  -19.0952   20.9376 C   0  0  1  0  0  0  0  0  0  0  0  0
   13.3507  -18.4408   19.6146 C   0  0  0  0  0  0  0  0  0  0  0  0
   14.6578  -18.4891   18.9186 C   0  0  0  0  0  0  0  0  0  0  0  0
   14.9153  -17.6356   17.7845 C   0  0  0  0  0  0  0  0  0  0  0  0
   15.9675  -17.5258   17.1751 O   0  0  0  0  0  0  0  0  0  0  0  0
   14.2336  -18.5675   21.9685 C   0  0  0  0  0  0  0  0  0  0  0  0
   14.0663  -17.2811   22.5003 O   0  0  0  0  0  0  0  0  0  0  0  0
   13.8533  -16.8252   17.3027 O   0  0  0  0  0  0  0  0  0  0  0  0
   15.2115  -19.2387   22.4543 O   0  0  0  0  0  0  0  0  0  0  0  0
  1  2  1  0
  2  3  2  0
  3  4  1  0
  5  4  2  0
  5  6  1  0
  6  7  1  0
  7  9  1  0
  7  8  1  1
  9 13  1  0
 10  9  2  0
 11  5  1  0
 12  2  1  0
 12 11  2  0
 13 14  1  0
 15 17  1  0
 15 14  1  0
 16 15  2  0
 18 17  1  0
 18 23  1  0
 18 19  1  6
 20 19  1  0
 21 20  1  0
 22 21  2  0
 23 24  1  0
 25 21  1  0
 26 23  2  0
M  END
$$$$
