YGE.pdb
     RDKit          3D

 26 26  0  0  1  0  0  0  0  0999 V2000
    5.1973  -10.8567   26.8713 O   0  0  0  0  0  0  0  0  0  0  0  0
    5.9322  -11.8898   26.2868 C   0  0  0  0  0  0  0  0  0  0  0  0
    6.8510  -11.6231   25.2945 C   0  0  0  0  0  0  0  0  0  0  0  0
    7.5575  -12.6586   24.7398 C   0  0  0  0  0  0  0  0  0  0  0  0
    7.4007  -13.9924   25.1258 C   0  0  0  0  0  0  0  0  0  0  0  0
    8.1950  -15.0709   24.4868 C   0  0  0  0  0  0  0  0  0  0  0  0
    7.4440  -15.6820   23.3136 C   0  0  2  0  0  0  0  0  0  0  0  0
    6.2851  -16.3411   23.8483 N   0  0  0  0  0  0  0  0  0  0  0  0
    8.3374  -16.6274   22.5747 C   0  0  0  0  0  0  0  0  0  0  0  0
    7.9330  -17.7040   22.0820 O   0  0  0  0  0  0  0  0  0  0  0  0
    6.4757  -14.2315   26.1197 C   0  0  0  0  0  0  0  0  0  0  0  0
    5.7587  -13.2030   26.6864 C   0  0  0  0  0  0  0  0  0  0  0  0
    9.7008  -16.3062   22.4163 N   0  0  0  0  0  0  0  0  0  0  0  0
   10.5835  -16.9608   21.4830 C   0  0  0  0  0  0  0  0  0  0  0  0
   11.9400  -16.3253   21.4732 C   0  0  0  0  0  0  0  0  0  0  0  0
   12.6705  -16.5025   20.4632 O   0  0  0  0  0  0  0  0  0  0  0  0
   12.4275  -15.5472   22.5338 N   0  0  0  0  0  0  0  0  0  0  0  0
   13.2313  -16.0955   23.6300 C   0  0  1  0  0  0  0  0  0  0  0  0
   12.3936  -16.7400   24.6603 C   0  0  0  0  0  0  0  0  0  0  0  0
   13.1676  -17.4285   25.7196 C   0  0  0  0  0  0  0  0  0  0  0  0
   12.4905  -18.1518   26.7681 C   0  0  0  0  0  0  0  0  0  0  0  0
   12.4626  -17.8654   27.9546 O   0  0  0  0  0  0  0  0  0  0  0  0
   14.3958  -16.8152   23.1364 C   0  0  0  0  0  0  0  0  0  0  0  0
   15.6966  -16.3148   23.2882 O   0  0  0  0  0  0  0  0  0  0  0  0
   11.7723  -19.3249   26.4150 O   0  0  0  0  0  0  0  0  0  0  0  0
   14.3093  -17.9444   22.5362 O   0  0  0  0  0  0  0  0  0  0  0  0
  1  2  1  0
  2  3  2  0
  3  4  1  0
  5  4  2  0
  5  6  1  0
  6  7  1  0
  7  9  1  0
  7  8  1  1
  9 13  1  0
 10  9  2  0
 11  5  1  0
 12  2  1  0
 12 11  2  0
 13 14  1  0
 15 17  1  0
 15 14  1  0
 16 15  2  0
 18 17  1  0
 18 23  1  0
 18 19  1  6
 20 19  1  0
 21 20  1  0
 22 21  2  0
 23 24  1  0
 25 21  1  0
 26 23  2  0
M  END
$$$$
