YGE.pdb
     RDKit          3D

 26 26  0  0  1  0  0  0  0  0999 V2000
    5.2273  -10.8094   28.5073 O   0  0  0  0  0  0  0  0  0  0  0  0
    5.8495  -11.3807   27.3957 C   0  0  0  0  0  0  0  0  0  0  0  0
    7.2216  -11.5008   27.3442 C   0  0  0  0  0  0  0  0  0  0  0  0
    7.8036  -12.0661   26.2392 C   0  0  0  0  0  0  0  0  0  0  0  0
    7.0778  -12.5368   25.1419 C   0  0  0  0  0  0  0  0  0  0  0  0
    7.7655  -13.1392   23.9729 C   0  0  0  0  0  0  0  0  0  0  0  0
    7.4157  -14.6127   23.8317 C   0  0  2  0  0  0  0  0  0  0  0  0
    7.7939  -15.2584   25.0579 N   0  0  0  0  0  0  0  0  0  0  0  0
    8.1250  -15.1928   22.6491 C   0  0  0  0  0  0  0  0  0  0  0  0
    7.9116  -14.8185   21.4745 O   0  0  0  0  0  0  0  0  0  0  0  0
    5.7077  -12.4046   25.2189 C   0  0  0  0  0  0  0  0  0  0  0  0
    5.1086  -11.8394   26.3211 C   0  0  0  0  0  0  0  0  0  0  0  0
    9.0815  -16.2087   22.8490 N   0  0  0  0  0  0  0  0  0  0  0  0
    9.7871  -16.8771   21.7840 C   0  0  0  0  0  0  0  0  0  0  0  0
   10.7501  -17.8931   22.3173 C   0  0  0  0  0  0  0  0  0  0  0  0
   10.3053  -19.0326   22.6150 O   0  0  0  0  0  0  0  0  0  0  0  0
   12.1163  -17.6307   22.4981 N   0  0  0  0  0  0  0  0  0  0  0  0
   13.0044  -18.4954   23.2803 C   0  0  1  0  0  0  0  0  0  0  0  0
   14.4275  -18.1783   23.0500 C   0  0  0  0  0  0  0  0  0  0  0  0
   14.8062  -16.7995   23.4378 C   0  0  0  0  0  0  0  0  0  0  0  0
   16.1585  -16.3325   23.2537 C   0  0  0  0  0  0  0  0  0  0  0  0
   16.5908  -15.2208   23.5139 O   0  0  0  0  0  0  0  0  0  0  0  0
   12.5423  -18.6419   24.6524 C   0  0  0  0  0  0  0  0  0  0  0  0
   12.9862  -19.6850   25.4774 O   0  0  0  0  0  0  0  0  0  0  0  0
   17.1109  -17.2376   22.7146 O   0  0  0  0  0  0  0  0  0  0  0  0
   11.7069  -17.8335   25.1922 O   0  0  0  0  0  0  0  0  0  0  0  0
  1  2  1  0
  2  3  2  0
  3  4  1  0
  5  4  2  0
  5  6  1  0
  6  7  1  0
  7  9  1  0
  7  8  1  1
  9 13  1  0
 10  9  2  0
 11  5  1  0
 12  2  1  0
 12 11  2  0
 13 14  1  0
 15 17  1  0
 15 14  1  0
 16 15  2  0
 18 17  1  0
 18 23  1  0
 18 19  1  1
 20 19  1  0
 21 20  1  0
 22 21  2  0
 23 24  1  0
 25 21  1  0
 26 23  2  0
M  END
$$$$
