YGE.pdb
     RDKit          3D

 26 26  0  0  1  0  0  0  0  0999 V2000
    5.2283  -10.5794   27.1816 O   0  0  0  0  0  0  0  0  0  0  0  0
    5.9284  -11.6832   26.6913 C   0  0  0  0  0  0  0  0  0  0  0  0
    7.0669  -11.5121   25.9334 C   0  0  0  0  0  0  0  0  0  0  0  0
    7.7328  -12.6154   25.4660 C   0  0  0  0  0  0  0  0  0  0  0  0
    7.3206  -13.9270   25.7153 C   0  0  0  0  0  0  0  0  0  0  0  0
    8.0839  -15.0821   25.1809 C   0  0  0  0  0  0  0  0  0  0  0  0
    7.2366  -15.8995   24.2177 C   0  0  2  0  0  0  0  0  0  0  0  0
    6.3095  -16.6603   25.0083 N   0  0  0  0  0  0  0  0  0  0  0  0
    8.1168  -16.7766   23.3846 C   0  0  0  0  0  0  0  0  0  0  0  0
    8.6725  -17.8054   23.8298 O   0  0  0  0  0  0  0  0  0  0  0  0
    6.1794  -14.0702   26.4755 C   0  0  0  0  0  0  0  0  0  0  0  0
    5.4999  -12.9727   26.9519 C   0  0  0  0  0  0  0  0  0  0  0  0
    8.3409  -16.4440   22.0333 N   0  0  0  0  0  0  0  0  0  0  0  0
    9.3067  -15.4701   21.5889 C   0  0  0  0  0  0  0  0  0  0  0  0
   10.7011  -15.8710   21.9617 C   0  0  0  0  0  0  0  0  0  0  0  0
   11.6553  -15.1789   21.5196 O   0  0  0  0  0  0  0  0  0  0  0  0
   10.9868  -16.9767   22.7764 N   0  0  0  0  0  0  0  0  0  0  0  0
   12.3497  -17.3834   23.1309 C   0  0  1  0  0  0  0  0  0  0  0  0
   12.3725  -18.2663   24.3136 C   0  0  0  0  0  0  0  0  0  0  0  0
   11.5952  -17.7496   25.4642 C   0  0  0  0  0  0  0  0  0  0  0  0
   11.7148  -18.3643   26.7637 C   0  0  0  0  0  0  0  0  0  0  0  0
   12.3711  -19.3539   27.0476 O   0  0  0  0  0  0  0  0  0  0  0  0
   13.1161  -17.7783   21.9587 C   0  0  0  0  0  0  0  0  0  0  0  0
   12.4960  -18.1507   20.7577 O   0  0  0  0  0  0  0  0  0  0  0  0
   11.0064  -17.7806   27.8473 O   0  0  0  0  0  0  0  0  0  0  0  0
   14.3974  -17.8107   21.9472 O   0  0  0  0  0  0  0  0  0  0  0  0
  1  2  1  0
  2  3  2  0
  3  4  1  0
  5  4  2  0
  5  6  1  0
  6  7  1  0
  7  9  1  0
  7  8  1  1
  9 13  1  0
 10  9  2  0
 11  5  1  0
 12  2  1  0
 12 11  2  0
 13 14  1  0
 15 17  1  0
 15 14  1  0
 16 15  2  0
 18 17  1  0
 18 23  1  0
 18 19  1  1
 20 19  1  0
 21 20  1  0
 22 21  2  0
 23 24  1  0
 25 21  1  0
 26 23  2  0
M  END
$$$$
