YGE.pdb
     RDKit          3D

 26 26  0  0  1  0  0  0  0  0999 V2000
   10.2651  -14.8320   31.2979 O   0  0  0  0  0  0  0  0  0  0  0  0
   10.2406  -14.7598   29.9039 C   0  0  0  0  0  0  0  0  0  0  0  0
   10.6936  -15.8128   29.1386 C   0  0  0  0  0  0  0  0  0  0  0  0
   10.6570  -15.7123   27.7720 C   0  0  0  0  0  0  0  0  0  0  0  0
   10.1796  -14.5872   27.0947 C   0  0  0  0  0  0  0  0  0  0  0  0
   10.1658  -14.5373   25.6116 C   0  0  0  0  0  0  0  0  0  0  0  0
    8.9235  -15.2142   25.0528 C   0  0  2  0  0  0  0  0  0  0  0  0
    8.8003  -16.4853   25.7106 N   0  0  0  0  0  0  0  0  0  0  0  0
    9.0470  -15.3590   23.5690 C   0  0  0  0  0  0  0  0  0  0  0  0
    9.1278  -14.3813   22.7925 O   0  0  0  0  0  0  0  0  0  0  0  0
    9.7327  -13.5486   27.8835 C   0  0  0  0  0  0  0  0  0  0  0  0
    9.7630  -13.6342   29.2564 C   0  0  0  0  0  0  0  0  0  0  0  0
    9.0759  -16.6493   23.0022 N   0  0  0  0  0  0  0  0  0  0  0  0
    9.3510  -16.9169   21.6124 C   0  0  0  0  0  0  0  0  0  0  0  0
   10.8000  -17.2245   21.3896 C   0  0  0  0  0  0  0  0  0  0  0  0
   11.1754  -17.4961   20.2190 O   0  0  0  0  0  0  0  0  0  0  0  0
   11.7495  -17.2231   22.4223 N   0  0  0  0  0  0  0  0  0  0  0  0
   12.9334  -18.0873   22.4271 C   0  0  1  0  0  0  0  0  0  0  0  0
   14.1788  -17.3168   22.6114 C   0  0  0  0  0  0  0  0  0  0  0  0
   14.6037  -16.5648   21.4076 C   0  0  0  0  0  0  0  0  0  0  0  0
   15.8183  -15.7867   21.4214 C   0  0  0  0  0  0  0  0  0  0  0  0
   16.5674  -15.6160   22.3702 O   0  0  0  0  0  0  0  0  0  0  0  0
   12.7293  -19.2761   23.2413 C   0  0  0  0  0  0  0  0  0  0  0  0
   11.7425  -19.3340   24.2355 O   0  0  0  0  0  0  0  0  0  0  0  0
   16.2109  -15.1385   20.2203 O   0  0  0  0  0  0  0  0  0  0  0  0
   13.4319  -20.3392   23.1035 O   0  0  0  0  0  0  0  0  0  0  0  0
  1  2  1  0
  2  3  2  0
  3  4  1  0
  5  4  2  0
  5  6  1  0
  6  7  1  0
  7  9  1  0
  7  8  1  1
  9 13  1  0
 10  9  2  0
 11  5  1  0
 12  2  1  0
 12 11  2  0
 13 14  1  0
 15 17  1  0
 15 14  1  0
 16 15  2  0
 18 17  1  0
 18 23  1  0
 18 19  1  1
 20 19  1  0
 21 20  1  0
 22 21  2  0
 23 24  1  0
 25 21  1  0
 26 23  2  0
M  END
$$$$
