YGE.pdb
     RDKit          3D

 26 26  0  0  1  0  0  0  0  0999 V2000
    5.9488  -11.3430   28.7406 O   0  0  0  0  0  0  0  0  0  0  0  0
    6.2911  -11.8965   27.5055 C   0  0  0  0  0  0  0  0  0  0  0  0
    7.4151  -12.6837   27.3766 C   0  0  0  0  0  0  0  0  0  0  0  0
    7.7252  -13.2132   26.1507 C   0  0  0  0  0  0  0  0  0  0  0  0
    6.9575  -13.0000   25.0029 C   0  0  0  0  0  0  0  0  0  0  0  0
    7.3453  -13.6005   23.7023 C   0  0  0  0  0  0  0  0  0  0  0  0
    6.8828  -15.0464   23.6075 C   0  0  2  0  0  0  0  0  0  0  0  0
    7.4339  -15.7434   24.7363 N   0  0  0  0  0  0  0  0  0  0  0  0
    7.3292  -15.6391   22.3084 C   0  0  0  0  0  0  0  0  0  0  0  0
    7.0409  -15.1421   21.1970 O   0  0  0  0  0  0  0  0  0  0  0  0
    5.8391  -12.2093   25.1592 C   0  0  0  0  0  0  0  0  0  0  0  0
    5.5144  -11.6705   26.3830 C   0  0  0  0  0  0  0  0  0  0  0  0
    8.1120  -16.8113   22.3182 N   0  0  0  0  0  0  0  0  0  0  0  0
    9.1792  -17.0797   21.3867 C   0  0  0  0  0  0  0  0  0  0  0  0
   10.4589  -17.4000   22.0965 C   0  0  0  0  0  0  0  0  0  0  0  0
   10.5061  -17.2241   23.3422 O   0  0  0  0  0  0  0  0  0  0  0  0
   11.5987  -17.8839   21.4370 N   0  0  0  0  0  0  0  0  0  0  0  0
   12.8791  -18.1175   22.1111 C   0  0  1  0  0  0  0  0  0  0  0  0
   13.9516  -18.4594   21.1563 C   0  0  0  0  0  0  0  0  0  0  0  0
   13.4910  -19.2570   19.9958 C   0  0  0  0  0  0  0  0  0  0  0  0
   14.4377  -19.7560   19.0285 C   0  0  0  0  0  0  0  0  0  0  0  0
   14.6835  -19.2793   17.9316 O   0  0  0  0  0  0  0  0  0  0  0  0
   13.1493  -17.1046   23.1203 C   0  0  0  0  0  0  0  0  0  0  0  0
   13.3546  -17.4354   24.4672 O   0  0  0  0  0  0  0  0  0  0  0  0
   15.1771  -20.9231   19.3569 O   0  0  0  0  0  0  0  0  0  0  0  0
   13.2173  -15.8543   22.8463 O   0  0  0  0  0  0  0  0  0  0  0  0
  1  2  1  0
  2  3  2  0
  3  4  1  0
  5  4  2  0
  5  6  1  0
  6  7  1  0
  7  9  1  0
  7  8  1  1
  9 13  1  0
 10  9  2  0
 11  5  1  0
 12  2  1  0
 12 11  2  0
 13 14  1  0
 15 17  1  0
 15 14  1  0
 16 15  2  0
 18 17  1  0
 18 23  1  0
 18 19  1  6
 20 19  1  0
 21 20  1  0
 22 21  2  0
 23 24  1  0
 25 21  1  0
 26 23  2  0
M  END
$$$$
