WTA.pdb
     RDKit          3D

 27 28  0  0  1  0  0  0  0  0999 V2000
   26.6988  -22.6272  -12.4503 N   0  0  0  0  0  0  0  0  0  0  0  0
   25.8211  -21.5640  -12.0693 C   0  0  1  0  0  0  0  0  0  0  0  0
   26.6154  -20.3001  -11.8554 C   0  0  0  0  0  0  0  0  0  0  0  0
   27.5593  -20.4623  -10.7248 C   0  0  0  0  0  0  0  0  0  0  0  0
   28.8485  -20.9395  -10.8817 C   0  0  0  0  0  0  0  0  0  0  0  0
   29.4839  -20.9508   -9.7186 N   0  0  0  0  0  0  0  0  0  0  0  0
   28.6245  -20.4839   -8.7850 C   0  0  0  0  0  0  0  0  0  0  0  0
   28.7487  -20.2870   -7.4221 C   0  0  0  0  0  0  0  0  0  0  0  0
   27.7051  -19.7988   -6.6898 C   0  0  0  0  0  0  0  0  0  0  0  0
   26.5119  -19.4941   -7.2926 C   0  0  0  0  0  0  0  0  0  0  0  0
   26.3551  -19.6821   -8.6693 C   0  0  0  0  0  0  0  0  0  0  0  0
   27.4203  -20.1745   -9.3910 C   0  0  0  0  0  0  0  0  0  0  0  0
   24.7079  -21.3691  -13.0285 C   0  0  0  0  0  0  0  0  0  0  0  0
   25.0096  -21.4691  -14.2679 O   0  0  0  0  0  0  0  0  0  0  0  0
   21.8134  -23.4206  -13.4195 C   0  0  0  0  0  0  0  0  0  0  0  0
   21.2439  -22.0351  -13.3043 C   0  0  1  0  0  0  0  0  0  0  0  0
   20.9370  -21.8716  -11.9297 O   0  0  0  0  0  0  0  0  0  0  0  0
   22.3054  -21.0006  -13.6946 C   0  0  2  0  0  0  0  0  0  0  0  0
   23.3817  -21.0904  -12.6707 N   0  0  0  0  0  0  0  0  0  0  0  0
   21.7808  -19.6262  -13.7198 C   0  0  0  0  0  0  0  0  0  0  0  0
   21.7060  -18.9747  -12.6228 O   0  0  0  0  0  0  0  0  0  0  0  0
   20.7411  -16.8949  -16.1093 C   0  0  0  0  0  0  0  0  0  0  0  0
   20.8877  -17.5376  -14.7730 C   0  0  2  0  0  0  0  0  0  0  0  0
   21.3354  -18.9165  -14.8583 N   0  0  0  0  0  0  0  0  0  0  0  0
   19.5832  -17.4498  -14.0471 C   0  0  0  0  0  0  0  0  0  0  0  0
   18.8607  -18.4741  -14.0530 O   0  0  0  0  0  0  0  0  0  0  0  0
   19.1315  -16.3370  -13.3838 O   0  0  0  0  0  0  0  0  0  0  0  0
  2  3  1  0
  2  1  1  6
  2 13  1  0
  4  3  1  0
  4  5  2  0
  6  5  1  0
  7  6  1  0
  8  7  2  0
  9  8  1  0
 10  9  2  0
 10 11  1  0
 11 12  2  0
 12  7  1  0
 12  4  1  0
 13 19  1  0
 14 13  2  0
 16 17  1  0
 16 15  1  1
 18 16  1  0
 18 19  1  1
 20 21  2  0
 20 18  1  0
 23 24  1  0
 23 22  1  6
 24 20  1  0
 25 23  1  0
 26 25  2  0
 27 25  1  0
M  END
$$$$
