WTA.pdb
     RDKit          3D

 27 28  0  0  1  0  0  0  0  0999 V2000
   20.5107  -24.8061  -15.0333 N   0  0  0  0  0  0  0  0  0  0  0  0
   20.6129  -25.4692  -13.7701 C   0  0  1  0  0  0  0  0  0  0  0  0
   22.0427  -25.8819  -13.5260 C   0  0  0  0  0  0  0  0  0  0  0  0
   22.4317  -26.9811  -14.4401 C   0  0  0  0  0  0  0  0  0  0  0  0
   22.9437  -26.7625  -15.7068 C   0  0  0  0  0  0  0  0  0  0  0  0
   23.2380  -27.9141  -16.2935 N   0  0  0  0  0  0  0  0  0  0  0  0
   22.9241  -28.9012  -15.4243 C   0  0  0  0  0  0  0  0  0  0  0  0
   23.0157  -30.2783  -15.5084 C   0  0  0  0  0  0  0  0  0  0  0  0
   22.6163  -31.0686  -14.4694 C   0  0  0  0  0  0  0  0  0  0  0  0
   22.1156  -30.5113  -13.3211 C   0  0  0  0  0  0  0  0  0  0  0  0
   22.0105  -29.1218  -13.2055 C   0  0  0  0  0  0  0  0  0  0  0  0
   22.4200  -28.3413  -14.2644 C   0  0  0  0  0  0  0  0  0  0  0  0
   20.0656  -24.6619  -12.6538 C   0  0  0  0  0  0  0  0  0  0  0  0
   19.9973  -23.3999  -12.8534 O   0  0  0  0  0  0  0  0  0  0  0  0
   18.0798  -23.0243  -12.3274 C   0  0  0  0  0  0  0  0  0  0  0  0
   17.7178  -23.7424  -11.0585 C   0  0  1  0  0  0  0  0  0  0  0  0
   16.8883  -24.8188  -11.4634 O   0  0  0  0  0  0  0  0  0  0  0  0
   18.9800  -24.3168  -10.4057 C   0  0  2  0  0  0  0  0  0  0  0  0
   19.6298  -25.1820  -11.4275 N   0  0  0  0  0  0  0  0  0  0  0  0
   18.6879  -25.1230   -9.2101 C   0  0  0  0  0  0  0  0  0  0  0  0
   18.6181  -26.3939   -9.3256 O   0  0  0  0  0  0  0  0  0  0  0  0
   18.3165  -24.8509   -5.4643 C   0  0  0  0  0  0  0  0  0  0  0  0
   18.2160  -25.5324   -6.7855 C   0  0  2  0  0  0  0  0  0  0  0  0
   18.4693  -24.6373   -7.9007 N   0  0  0  0  0  0  0  0  0  0  0  0
   16.8629  -26.1576   -6.9068 C   0  0  0  0  0  0  0  0  0  0  0  0
   16.0353  -25.5790   -7.6494 O   0  0  0  0  0  0  0  0  0  0  0  0
   16.4733  -27.3073   -6.2675 O   0  0  0  0  0  0  0  0  0  0  0  0
  2  3  1  0
  2  1  1  6
  2 13  1  0
  4  3  1  0
  4  5  2  0
  6  5  1  0
  7  6  1  0
  8  7  2  0
  9  8  1  0
 10  9  2  0
 10 11  1  0
 11 12  2  0
 12  7  1  0
 12  4  1  0
 13 19  1  0
 14 13  2  0
 16 17  1  0
 16 15  1  6
 18 16  1  0
 18 19  1  6
 20 21  2  0
 20 18  1  0
 23 24  1  0
 23 22  1  1
 24 20  1  0
 25 23  1  0
 26 25  2  0
 27 25  1  0
M  END
$$$$
