WTA.pdb
     RDKit          3D

 27 28  0  0  1  0  0  0  0  0999 V2000
   27.3742  -22.2284  -10.2352 N   0  0  0  0  0  0  0  0  0  0  0  0
   26.6846  -21.0920   -9.7071 C   0  0  1  0  0  0  0  0  0  0  0  0
   27.6726  -20.1486   -9.0683 C   0  0  0  0  0  0  0  0  0  0  0  0
   27.9056  -20.5175   -7.6524 C   0  0  0  0  0  0  0  0  0  0  0  0
   27.9396  -21.8282   -7.2106 C   0  0  0  0  0  0  0  0  0  0  0  0
   28.1984  -21.8736   -5.9115 N   0  0  0  0  0  0  0  0  0  0  0  0
   28.3368  -20.5986   -5.4831 C   0  0  0  0  0  0  0  0  0  0  0  0
   28.6035  -20.0594   -4.2381 C   0  0  0  0  0  0  0  0  0  0  0  0
   28.6874  -18.7077   -4.0668 C   0  0  0  0  0  0  0  0  0  0  0  0
   28.5081  -17.8574   -5.1273 C   0  0  0  0  0  0  0  0  0  0  0  0
   28.2371  -18.3719   -6.3989 C   0  0  0  0  0  0  0  0  0  0  0  0
   28.1577  -19.7389   -6.5517 C   0  0  0  0  0  0  0  0  0  0  0  0
   25.8385  -20.4149  -10.7185 C   0  0  0  0  0  0  0  0  0  0  0  0
   26.4612  -19.7795  -11.6380 O   0  0  0  0  0  0  0  0  0  0  0  0
   25.6590  -20.6286  -13.2398 C   0  0  0  0  0  0  0  0  0  0  0  0
   24.1694  -20.7755  -13.1107 C   0  0  1  0  0  0  0  0  0  0  0  0
   23.9525  -22.1513  -12.8450 O   0  0  0  0  0  0  0  0  0  0  0  0
   23.6666  -19.9612  -11.9136 C   0  0  2  0  0  0  0  0  0  0  0  0
   24.4371  -20.4283  -10.7291 N   0  0  0  0  0  0  0  0  0  0  0  0
   22.2304  -20.1510  -11.6570 C   0  0  0  0  0  0  0  0  0  0  0  0
   21.8704  -20.9617  -10.7368 O   0  0  0  0  0  0  0  0  0  0  0  0
   18.8264  -18.9018  -12.7390 C   0  0  0  0  0  0  0  0  0  0  0  0
   19.7789  -19.7391  -11.9568 C   0  0  2  0  0  0  0  0  0  0  0  0
   21.1637  -19.5163  -12.3335 N   0  0  0  0  0  0  0  0  0  0  0  0
   19.4106  -21.1787  -12.1260 C   0  0  0  0  0  0  0  0  0  0  0  0
   20.0277  -21.8223  -13.0070 O   0  0  0  0  0  0  0  0  0  0  0  0
   18.4549  -21.8323  -11.3900 O   0  0  0  0  0  0  0  0  0  0  0  0
  2  3  1  0
  2  1  1  6
  2 13  1  0
  4  3  1  0
  4  5  2  0
  6  5  1  0
  7  6  1  0
  8  7  2  0
  9  8  1  0
 10  9  2  0
 10 11  1  0
 11 12  2  0
 12  7  1  0
 12  4  1  0
 13 19  1  0
 14 13  2  0
 16 17  1  0
 16 15  1  1
 18 16  1  0
 18 19  1  1
 20 21  2  0
 20 18  1  0
 23 24  1  0
 23 22  1  6
 24 20  1  0
 25 23  1  0
 26 25  2  0
 27 25  1  0
M  END
$$$$
