WTA.pdb
     RDKit          3D

 27 28  0  0  1  0  0  0  0  0999 V2000
   27.9136  -22.1263  -10.4776 N   0  0  0  0  0  0  0  0  0  0  0  0
   26.9310  -21.1152  -10.2362 C   0  0  1  0  0  0  0  0  0  0  0  0
   27.5710  -19.9386   -9.5432 C   0  0  0  0  0  0  0  0  0  0  0  0
   28.3259  -20.3842   -8.3487 C   0  0  0  0  0  0  0  0  0  0  0  0
   29.4704  -21.1580   -8.4256 C   0  0  0  0  0  0  0  0  0  0  0  0
   29.9608  -21.3826   -7.2149 N   0  0  0  0  0  0  0  0  0  0  0  0
   29.1485  -20.7628   -6.3293 C   0  0  0  0  0  0  0  0  0  0  0  0
   29.1756  -20.6690   -4.9501 C   0  0  0  0  0  0  0  0  0  0  0  0
   28.2115  -19.9732   -4.2792 C   0  0  0  0  0  0  0  0  0  0  0  0
   27.1962  -19.3535   -4.9610 C   0  0  0  0  0  0  0  0  0  0  0  0
   27.1412  -19.4300   -6.3562 C   0  0  0  0  0  0  0  0  0  0  0  0
   28.1241  -20.1357   -7.0150 C   0  0  0  0  0  0  0  0  0  0  0  0
   26.2081  -20.7140  -11.4665 C   0  0  0  0  0  0  0  0  0  0  0  0
   26.9308  -20.5135  -12.5031 O   0  0  0  0  0  0  0  0  0  0  0  0
   25.9066  -21.5692  -14.0114 C   0  0  0  0  0  0  0  0  0  0  0  0
   24.4292  -21.4125  -13.7886 C   0  0  1  0  0  0  0  0  0  0  0  0
   24.0237  -22.6009  -13.1301 O   0  0  0  0  0  0  0  0  0  0  0  0
   24.1650  -20.2236  -12.8581 C   0  0  2  0  0  0  0  0  0  0  0  0
   24.8199  -20.5462  -11.5612 N   0  0  0  0  0  0  0  0  0  0  0  0
   22.7313  -19.9880  -12.6260 C   0  0  0  0  0  0  0  0  0  0  0  0
   22.2226  -20.3367  -11.5066 O   0  0  0  0  0  0  0  0  0  0  0  0
   19.7351  -18.2850  -14.1825 C   0  0  0  0  0  0  0  0  0  0  0  0
   20.4672  -19.0457  -13.1310 C   0  0  2  0  0  0  0  0  0  0  0  0
   21.8186  -19.3976  -13.5297 N   0  0  0  0  0  0  0  0  0  0  0  0
   19.6829  -20.2710  -12.7844 C   0  0  0  0  0  0  0  0  0  0  0  0
   20.0251  -21.3401  -13.3422 O   0  0  0  0  0  0  0  0  0  0  0  0
   18.6280  -20.3013  -11.9078 O   0  0  0  0  0  0  0  0  0  0  0  0
  2  3  1  0
  2  1  1  6
  2 13  1  0
  4  3  1  0
  4  5  2  0
  6  5  1  0
  7  6  1  0
  8  7  2  0
  9  8  1  0
 10  9  2  0
 10 11  1  0
 11 12  2  0
 12  7  1  0
 12  4  1  0
 13 19  1  0
 14 13  2  0
 16 17  1  0
 16 15  1  1
 18 16  1  0
 18 19  1  1
 20 21  2  0
 20 18  1  0
 23 24  1  0
 23 22  1  6
 24 20  1  0
 25 23  1  0
 26 25  2  0
 27 25  1  0
M  END
$$$$
