WTA.pdb
     RDKit          3D

 27 28  0  0  1  0  0  0  0  0999 V2000
   27.9516  -21.1198   -9.4090 N   0  0  0  0  0  0  0  0  0  0  0  0
   26.5286  -21.2551   -9.4615 C   0  0  1  0  0  0  0  0  0  0  0  0
   25.9110  -20.6131   -8.2447 C   0  0  0  0  0  0  0  0  0  0  0  0
   26.9529  -19.9770   -7.4050 C   0  0  0  0  0  0  0  0  0  0  0  0
   27.6382  -18.8378   -7.7883 C   0  0  0  0  0  0  0  0  0  0  0  0
   28.4849  -18.4643   -6.8394 N   0  0  0  0  0  0  0  0  0  0  0  0
   28.3688  -19.3496   -5.8240 C   0  0  0  0  0  0  0  0  0  0  0  0
   29.0048  -19.4502   -4.6004 C   0  0  0  0  0  0  0  0  0  0  0  0
   28.7040  -20.4659   -3.7393 C   0  0  0  0  0  0  0  0  0  0  0  0
   27.7644  -21.4073   -4.0718 C   0  0  0  0  0  0  0  0  0  0  0  0
   27.1037  -21.3329   -5.3020 C   0  0  0  0  0  0  0  0  0  0  0  0
   27.4203  -20.2998   -6.1566 C   0  0  0  0  0  0  0  0  0  0  0  0
   25.9502  -20.7340  -10.7230 C   0  0  0  0  0  0  0  0  0  0  0  0
   26.4391  -19.6326  -11.1529 O   0  0  0  0  0  0  0  0  0  0  0  0
   26.1132  -22.2854  -13.9084 C   0  0  0  0  0  0  0  0  0  0  0  0
   24.6565  -21.9376  -13.7887 C   0  0  1  0  0  0  0  0  0  0  0  0
   24.0329  -23.1110  -13.2941 O   0  0  0  0  0  0  0  0  0  0  0  0
   24.4707  -20.8152  -12.7616 C   0  0  2  0  0  0  0  0  0  0  0  0
   24.9293  -21.3571  -11.4536 N   0  0  0  0  0  0  0  0  0  0  0  0
   23.0703  -20.3818  -12.6369 C   0  0  0  0  0  0  0  0  0  0  0  0
   22.3369  -20.9174  -11.7376 O   0  0  0  0  0  0  0  0  0  0  0  0
   20.5361  -18.0153  -14.1519 C   0  0  0  0  0  0  0  0  0  0  0  0
   20.9943  -19.1495  -13.3011 C   0  0  2  0  0  0  0  0  0  0  0  0
   22.4187  -19.4048  -13.4238 N   0  0  0  0  0  0  0  0  0  0  0  0
   20.2066  -20.3703  -13.6554 C   0  0  0  0  0  0  0  0  0  0  0  0
   19.0563  -20.4648  -13.1663 O   0  0  0  0  0  0  0  0  0  0  0  0
   20.6540  -21.3798  -14.4696 O   0  0  0  0  0  0  0  0  0  0  0  0
  2  3  1  0
  2  1  1  6
  2 13  1  0
  4  3  1  0
  4  5  2  0
  6  5  1  0
  7  6  1  0
  8  7  2  0
  9  8  1  0
 10  9  2  0
 10 11  1  0
 11 12  2  0
 12  7  1  0
 12  4  1  0
 13 19  1  0
 14 13  2  0
 16 17  1  0
 16 15  1  1
 18 16  1  0
 18 19  1  1
 20 21  2  0
 20 18  1  0
 23 24  1  0
 23 22  1  6
 24 20  1  0
 25 23  1  0
 26 25  2  0
 27 25  1  0
M  END
$$$$
