GYH.pdb
     RDKit          3D

 27 28  0  0  1  0  0  0  0  0999 V2000
    8.5200  -16.6460   17.9667 N   0  0  0  0  0  0  0  0  0  0  0  0
    7.7384  -17.0929   19.0826 C   0  0  0  0  0  0  0  0  0  0  0  0
    8.0689  -16.3124   20.3138 C   0  0  0  0  0  0  0  0  0  0  0  0
    9.1219  -15.6487   20.3253 O   0  0  0  0  0  0  0  0  0  0  0  0
    7.6617  -12.1017   28.0505 O   0  0  0  0  0  0  0  0  0  0  0  0
    7.3576  -12.9177   26.9566 C   0  0  0  0  0  0  0  0  0  0  0  0
    7.4307  -14.2966   27.0249 C   0  0  0  0  0  0  0  0  0  0  0  0
    7.1219  -15.0582   25.9222 C   0  0  0  0  0  0  0  0  0  0  0  0
    6.7320  -14.5084   24.7164 C   0  0  0  0  0  0  0  0  0  0  0  0
    6.4026  -15.3245   23.5392 C   0  0  0  0  0  0  0  0  0  0  0  0
    7.6024  -15.5507   22.6394 C   0  0  2  0  0  0  0  0  0  0  0  0
    7.2432  -16.2973   21.4539 N   0  0  0  0  0  0  0  0  0  0  0  0
    8.6214  -16.3454   23.3837 C   0  0  0  0  0  0  0  0  0  0  0  0
    8.4956  -17.5932   23.5570 O   0  0  0  0  0  0  0  0  0  0  0  0
    6.6575  -13.1269   24.6433 C   0  0  0  0  0  0  0  0  0  0  0  0
    6.9672  -12.3678   25.7490 C   0  0  0  0  0  0  0  0  0  0  0  0
    9.7506  -15.6997   23.9076 N   0  0  0  0  0  0  0  0  0  0  0  0
   10.8739  -16.5501   24.4064 C   0  0  1  0  0  0  0  0  0  0  0  0
   12.0972  -15.7622   24.0588 C   0  0  0  0  0  0  0  0  0  0  0  0
   12.5704  -15.8297   22.6910 C   0  0  0  0  0  0  0  0  0  0  0  0
   12.1394  -16.5470   21.6285 C   0  0  0  0  0  0  0  0  0  0  0  0
   12.9096  -16.1977   20.5753 N   0  0  0  0  0  0  0  0  0  0  0  0
   13.7958  -15.2890   20.9640 C   0  0  0  0  0  0  0  0  0  0  0  0
   13.6069  -15.0488   22.2529 N   0  0  0  0  0  0  0  0  0  0  0  0
   10.6224  -16.6139   25.8822 C   0  0  0  0  0  0  0  0  0  0  0  0
    9.6934  -15.8996   26.4031 O   0  0  0  0  0  0  0  0  0  0  0  0
   11.3242  -17.3989   26.7650 O   0  0  0  0  0  0  0  0  0  0  0  0
  2  1  1  0
  3  4  2  0
  3  2  1  0
  6  5  1  0
  6  7  2  0
  8  7  1  0
  9  8  2  0
 10  9  1  0
 11 12  1  0
 11 10  1  1
 12  3  1  0
 13 11  1  0
 14 13  2  0
 15 16  2  0
 15  9  1  0
 16  6  1  0
 17 13  1  0
 18 19  1  1
 18 17  1  0
 19 20  1  0
 20 21  2  0
 21 22  1  0
 23 22  1  0
 24 20  1  0
 24 23  2  0
 25 27  1  0
 25 18  1  0
 26 25  2  0
M  END
$$$$
