GYH.pdb
     RDKit          3D

 27 28  0  0  1  0  0  0  0  0999 V2000
    5.1727  -20.1820   20.6548 N   0  0  0  0  0  0  0  0  0  0  0  0
    4.8358  -19.1505   21.5919 C   0  0  0  0  0  0  0  0  0  0  0  0
    6.0577  -18.4155   22.0405 C   0  0  0  0  0  0  0  0  0  0  0  0
    7.1649  -18.9618   21.8816 O   0  0  0  0  0  0  0  0  0  0  0  0
    8.3219  -12.3192   18.2458 O   0  0  0  0  0  0  0  0  0  0  0  0
    7.9780  -12.9831   19.4273 C   0  0  0  0  0  0  0  0  0  0  0  0
    7.0834  -14.0370   19.4450 C   0  0  0  0  0  0  0  0  0  0  0  0
    6.7759  -14.6597   20.6321 C   0  0  0  0  0  0  0  0  0  0  0  0
    7.3254  -14.2813   21.8417 C   0  0  0  0  0  0  0  0  0  0  0  0
    6.9951  -14.9482   23.1092 C   0  0  0  0  0  0  0  0  0  0  0  0
    7.2096  -16.4483   23.0452 C   0  0  2  0  0  0  0  0  0  0  0  0
    6.0079  -17.1389   22.6317 N   0  0  0  0  0  0  0  0  0  0  0  0
    7.5711  -16.9431   24.4048 C   0  0  0  0  0  0  0  0  0  0  0  0
    6.7481  -16.9087   25.3661 O   0  0  0  0  0  0  0  0  0  0  0  0
    8.2224  -13.2255   21.8287 C   0  0  0  0  0  0  0  0  0  0  0  0
    8.5279  -12.6048   20.6388 C   0  0  0  0  0  0  0  0  0  0  0  0
    8.8546  -17.4609   24.6307 N   0  0  0  0  0  0  0  0  0  0  0  0
    9.1532  -18.0249   25.9822 C   0  0  1  0  0  0  0  0  0  0  0  0
    9.4701  -19.4606   25.7059 C   0  0  0  0  0  0  0  0  0  0  0  0
    8.3567  -20.3782   25.5729 C   0  0  0  0  0  0  0  0  0  0  0  0
    7.0215  -20.1871   25.6745 C   0  0  0  0  0  0  0  0  0  0  0  0
    6.4302  -21.3733   25.4144 N   0  0  0  0  0  0  0  0  0  0  0  0
    7.3644  -22.2804   25.1567 C   0  0  0  0  0  0  0  0  0  0  0  0
    8.5490  -21.6946   25.2476 N   0  0  0  0  0  0  0  0  0  0  0  0
   10.3506  -17.2386   26.4215 C   0  0  0  0  0  0  0  0  0  0  0  0
   10.9443  -16.4620   25.5913 O   0  0  0  0  0  0  0  0  0  0  0  0
   10.8937  -17.2744   27.6833 O   0  0  0  0  0  0  0  0  0  0  0  0
  2  1  1  0
  3  4  2  0
  3  2  1  0
  6  5  1  0
  6  7  2  0
  8  7  1  0
  9  8  2  0
 10  9  1  0
 11 12  1  0
 11 10  1  1
 12  3  1  0
 13 11  1  0
 14 13  2  0
 15 16  2  0
 15  9  1  0
 16  6  1  0
 17 13  1  0
 18 19  1  6
 18 17  1  0
 19 20  1  0
 20 21  2  0
 21 22  1  0
 23 22  1  0
 24 20  1  0
 24 23  2  0
 25 27  1  0
 25 18  1  0
 26 25  2  0
M  END
$$$$
