GYH.pdb
     RDKit          3D

 27 28  0  0  1  0  0  0  0  0999 V2000
   10.6944  -16.9977   18.9066 N   0  0  0  0  0  0  0  0  0  0  0  0
    9.4145  -16.9815   19.5525 C   0  0  0  0  0  0  0  0  0  0  0  0
    9.4507  -16.1444   20.7903 C   0  0  0  0  0  0  0  0  0  0  0  0
   10.5593  -15.8850   21.2935 O   0  0  0  0  0  0  0  0  0  0  0  0
    7.1386  -11.9142   28.1943 O   0  0  0  0  0  0  0  0  0  0  0  0
    7.0935  -12.5365   26.9430 C   0  0  0  0  0  0  0  0  0  0  0  0
    6.4322  -13.7335   26.7404 C   0  0  0  0  0  0  0  0  0  0  0  0
    6.4150  -14.3081   25.4910 C   0  0  0  0  0  0  0  0  0  0  0  0
    7.0384  -13.7413   24.3963 C   0  0  0  0  0  0  0  0  0  0  0  0
    7.0187  -14.3574   23.0619 C   0  0  0  0  0  0  0  0  0  0  0  0
    8.3301  -15.0390   22.7213 C   0  0  2  0  0  0  0  0  0  0  0  0
    8.2896  -15.6405   21.4067 N   0  0  0  0  0  0  0  0  0  0  0  0
    8.5798  -16.1274   23.7099 C   0  0  0  0  0  0  0  0  0  0  0  0
    7.8756  -17.1791   23.7338 O   0  0  0  0  0  0  0  0  0  0  0  0
    7.7024  -12.5417   24.5947 C   0  0  0  0  0  0  0  0  0  0  0  0
    7.7175  -11.9695   25.8465 C   0  0  0  0  0  0  0  0  0  0  0  0
    9.6203  -15.9881   24.6397 N   0  0  0  0  0  0  0  0  0  0  0  0
    9.8455  -17.1030   25.6092 C   0  0  1  0  0  0  0  0  0  0  0  0
   11.2616  -17.5134   25.3560 C   0  0  0  0  0  0  0  0  0  0  0  0
   11.5045  -18.4484   24.2761 C   0  0  0  0  0  0  0  0  0  0  0  0
   10.6655  -19.0284   23.3878 C   0  0  0  0  0  0  0  0  0  0  0  0
   11.4220  -19.7846   22.5631 N   0  0  0  0  0  0  0  0  0  0  0  0
   12.6960  -19.6821   22.9215 C   0  0  0  0  0  0  0  0  0  0  0  0
   12.7700  -18.8705   23.9659 N   0  0  0  0  0  0  0  0  0  0  0  0
    9.6610  -16.4387   26.9396 C   0  0  0  0  0  0  0  0  0  0  0  0
    9.6133  -15.1592   27.0134 O   0  0  0  0  0  0  0  0  0  0  0  0
    9.5334  -17.1009   28.1369 O   0  0  0  0  0  0  0  0  0  0  0  0
  2  1  1  0
  3  4  2  0
  3  2  1  0
  6  5  1  0
  6  7  2  0
  8  7  1  0
  9  8  2  0
 10  9  1  0
 11 12  1  0
 11 10  1  1
 12  3  1  0
 13 11  1  0
 14 13  2  0
 15 16  2  0
 15  9  1  0
 16  6  1  0
 17 13  1  0
 18 19  1  1
 18 17  1  0
 19 20  1  0
 20 21  2  0
 21 22  1  0
 23 22  1  0
 24 20  1  0
 24 23  2  0
 25 27  1  0
 25 18  1  0
 26 25  2  0
M  END
$$$$
