GYH.pdb
     RDKit          3D

 27 28  0  0  1  0  0  0  0  0999 V2000
    9.3232  -19.0220   17.8326 N   0  0  0  0  0  0  0  0  0  0  0  0
    8.6954  -18.7057   19.0821 C   0  0  0  0  0  0  0  0  0  0  0  0
    9.5198  -17.7346   19.8642 C   0  0  0  0  0  0  0  0  0  0  0  0
   10.6370  -17.4164   19.4169 O   0  0  0  0  0  0  0  0  0  0  0  0
    6.0788  -11.7735   19.1829 O   0  0  0  0  0  0  0  0  0  0  0  0
    6.7843  -12.6409   20.0224 C   0  0  0  0  0  0  0  0  0  0  0  0
    6.1915  -13.7472   20.6022 C   0  0  0  0  0  0  0  0  0  0  0  0
    6.9260  -14.5722   21.4216 C   0  0  0  0  0  0  0  0  0  0  0  0
    8.2597  -14.3521   21.7062 C   0  0  0  0  0  0  0  0  0  0  0  0
    9.0427  -15.2352   22.5823 C   0  0  0  0  0  0  0  0  0  0  0  0
    9.8985  -16.2132   21.8002 C   0  0  2  0  0  0  0  0  0  0  0  0
    9.0872  -17.1686   21.0785 N   0  0  0  0  0  0  0  0  0  0  0  0
   10.7551  -16.9754   22.7538 C   0  0  0  0  0  0  0  0  0  0  0  0
   10.2813  -17.8912   23.4882 O   0  0  0  0  0  0  0  0  0  0  0  0
    8.8579  -13.2446   21.1274 C   0  0  0  0  0  0  0  0  0  0  0  0
    8.1197  -12.4212   20.3078 C   0  0  0  0  0  0  0  0  0  0  0  0
   12.1218  -16.6744   22.8440 N   0  0  0  0  0  0  0  0  0  0  0  0
   13.0270  -17.7050   23.4375 C   0  0  1  0  0  0  0  0  0  0  0  0
   13.9100  -18.1015   22.2968 C   0  0  0  0  0  0  0  0  0  0  0  0
   14.9696  -19.0513   22.5695 C   0  0  0  0  0  0  0  0  0  0  0  0
   15.3303  -19.6888   23.7066 C   0  0  0  0  0  0  0  0  0  0  0  0
   16.3622  -20.5026   23.3948 N   0  0  0  0  0  0  0  0  0  0  0  0
   16.6402  -20.3809   22.1025 C   0  0  0  0  0  0  0  0  0  0  0  0
   15.8016  -19.4996   21.5782 N   0  0  0  0  0  0  0  0  0  0  0  0
   13.7574  -16.9436   24.5015 C   0  0  0  0  0  0  0  0  0  0  0  0
   14.1815  -17.5541   25.5465 O   0  0  0  0  0  0  0  0  0  0  0  0
   14.0252  -15.5965   24.4594 O   0  0  0  0  0  0  0  0  0  0  0  0
  2  1  1  0
  3  4  2  0
  3  2  1  0
  6  5  1  0
  6  7  2  0
  8  7  1  0
  9  8  2  0
 10  9  1  0
 11 12  1  0
 11 10  1  1
 12  3  1  0
 13 11  1  0
 14 13  2  0
 15 16  2  0
 15  9  1  0
 16  6  1  0
 17 13  1  0
 18 19  1  6
 18 17  1  0
 19 20  1  0
 20 21  2  0
 21 22  1  0
 23 22  1  0
 24 20  1  0
 24 23  2  0
 25 27  1  0
 25 18  1  0
 26 25  2  0
M  END
$$$$
