GYH.pdb
     RDKit          3D

 27 28  0  0  1  0  0  0  0  0999 V2000
    4.6549  -19.5383   24.5629 N   0  0  0  0  0  0  0  0  0  0  0  0
    5.4701  -18.6908   25.3832 C   0  0  0  0  0  0  0  0  0  0  0  0
    6.1262  -17.6256   24.5652 C   0  0  0  0  0  0  0  0  0  0  0  0
    5.8337  -17.5462   23.3579 O   0  0  0  0  0  0  0  0  0  0  0  0
   10.1250  -14.6441   30.1225 O   0  0  0  0  0  0  0  0  0  0  0  0
    9.5726  -14.5769   28.8398 C   0  0  0  0  0  0  0  0  0  0  0  0
   10.3573  -14.4893   27.7049 C   0  0  0  0  0  0  0  0  0  0  0  0
    9.7685  -14.4255   26.4637 C   0  0  0  0  0  0  0  0  0  0  0  0
    8.3994  -14.4444   26.2813 C   0  0  0  0  0  0  0  0  0  0  0  0
    7.7724  -14.3761   24.9536 C   0  0  0  0  0  0  0  0  0  0  0  0
    7.7154  -15.7296   24.2717 C   0  0  2  0  0  0  0  0  0  0  0  0
    7.0558  -16.7140   25.1009 N   0  0  0  0  0  0  0  0  0  0  0  0
    9.1071  -16.2050   24.0245 C   0  0  0  0  0  0  0  0  0  0  0  0
    9.6752  -17.0314   24.7972 O   0  0  0  0  0  0  0  0  0  0  0  0
    7.6091  -14.5321   27.4158 C   0  0  0  0  0  0  0  0  0  0  0  0
    8.2018  -14.5958   28.6565 C   0  0  0  0  0  0  0  0  0  0  0  0
    9.8102  -15.7280   22.9089 N   0  0  0  0  0  0  0  0  0  0  0  0
   10.9684  -16.5334   22.4154 C   0  0  1  0  0  0  0  0  0  0  0  0
   11.1622  -16.0540   21.0116 C   0  0  0  0  0  0  0  0  0  0  0  0
   12.2481  -16.6364   20.2495 C   0  0  0  0  0  0  0  0  0  0  0  0
   13.5813  -16.4095   20.2730 C   0  0  0  0  0  0  0  0  0  0  0  0
   14.1440  -17.2598   19.3871 N   0  0  0  0  0  0  0  0  0  0  0  0
   13.1943  -17.9980   18.8256 C   0  0  0  0  0  0  0  0  0  0  0  0
   12.0279  -17.6344   19.3377 N   0  0  0  0  0  0  0  0  0  0  0  0
   12.0822  -16.1224   23.3298 C   0  0  0  0  0  0  0  0  0  0  0  0
   12.0378  -14.9840   23.9186 O   0  0  0  0  0  0  0  0  0  0  0  0
   13.1922  -16.8836   23.6066 O   0  0  0  0  0  0  0  0  0  0  0  0
  2  1  1  0
  3  4  2  0
  3  2  1  0
  6  5  1  0
  6  7  2  0
  8  7  1  0
  9  8  2  0
 10  9  1  0
 11 12  1  0
 11 10  1  1
 12  3  1  0
 13 11  1  0
 14 13  2  0
 15 16  2  0
 15  9  1  0
 16  6  1  0
 17 13  1  0
 18 19  1  6
 18 17  1  0
 19 20  1  0
 20 21  2  0
 21 22  1  0
 23 22  1  0
 24 20  1  0
 24 23  2  0
 25 27  1  0
 25 18  1  0
 26 25  2  0
M  END
$$$$
