GYH.pdb
     RDKit          3D

 27 28  0  0  1  0  0  0  0  0999 V2000
    9.3664  -16.5281   18.1897 N   0  0  0  0  0  0  0  0  0  0  0  0
    8.1474  -16.2995   18.9092 C   0  0  0  0  0  0  0  0  0  0  0  0
    8.4243  -15.7277   20.2622 C   0  0  0  0  0  0  0  0  0  0  0  0
    9.5817  -15.8134   20.7121 O   0  0  0  0  0  0  0  0  0  0  0  0
    7.4581  -12.0625   28.2617 O   0  0  0  0  0  0  0  0  0  0  0  0
    7.2528  -12.4665   26.9390 C   0  0  0  0  0  0  0  0  0  0  0  0
    7.7979  -11.7826   25.8682 C   0  0  0  0  0  0  0  0  0  0  0  0
    7.5683  -12.2179   24.5840 C   0  0  0  0  0  0  0  0  0  0  0  0
    6.8026  -13.3307   24.2950 C   0  0  0  0  0  0  0  0  0  0  0  0
    6.5586  -13.7940   22.9216 C   0  0  0  0  0  0  0  0  0  0  0  0
    7.7294  -14.5779   22.3602 C   0  0  2  0  0  0  0  0  0  0  0  0
    7.4357  -15.1001   21.0438 N   0  0  0  0  0  0  0  0  0  0  0  0
    8.0081  -15.7375   23.2556 C   0  0  0  0  0  0  0  0  0  0  0  0
    7.3098  -16.7927   23.2149 O   0  0  0  0  0  0  0  0  0  0  0  0
    6.2544  -14.0192   25.3650 C   0  0  0  0  0  0  0  0  0  0  0  0
    6.4863  -13.5806   26.6490 C   0  0  0  0  0  0  0  0  0  0  0  0
    9.0700  -15.6633   24.1686 N   0  0  0  0  0  0  0  0  0  0  0  0
    9.4486  -16.9084   24.9034 C   0  0  1  0  0  0  0  0  0  0  0  0
   10.5733  -17.4710   24.0932 C   0  0  0  0  0  0  0  0  0  0  0  0
   11.2524  -18.6408   24.6125 C   0  0  0  0  0  0  0  0  0  0  0  0
   11.0575  -19.3630   25.7394 C   0  0  0  0  0  0  0  0  0  0  0  0
   11.9414  -20.3840   25.7140 N   0  0  0  0  0  0  0  0  0  0  0  0
   12.6678  -20.3060   24.6056 C   0  0  0  0  0  0  0  0  0  0  0  0
   12.2640  -19.2487   23.9174 N   0  0  0  0  0  0  0  0  0  0  0  0
    9.8937  -16.3932   26.2382 C   0  0  0  0  0  0  0  0  0  0  0  0
   10.3724  -15.2075   26.3377 O   0  0  0  0  0  0  0  0  0  0  0  0
    9.8344  -17.1028   27.4134 O   0  0  0  0  0  0  0  0  0  0  0  0
  2  1  1  0
  3  4  2  0
  3  2  1  0
  6  5  1  0
  6  7  2  0
  8  7  1  0
  9  8  2  0
 10  9  1  0
 11 12  1  0
 11 10  1  1
 12  3  1  0
 13 11  1  0
 14 13  2  0
 15 16  2  0
 15  9  1  0
 16  6  1  0
 17 13  1  0
 18 19  1  6
 18 17  1  0
 19 20  1  0
 20 21  2  0
 21 22  1  0
 23 22  1  0
 24 20  1  0
 24 23  2  0
 25 27  1  0
 25 18  1  0
 26 25  2  0
M  END
$$$$
