NRP.pdb
     RDKit          3D

 27 27  0  0  1  0  0  0  0  0999 V2000
   11.5598  -14.5967   17.5556 N   0  0  0  0  0  0  0  0  0  0  0  0
   11.8611  -13.7561   18.6676 C   0  0  0  0  0  0  0  0  0  0  0  0
   13.0447  -13.4802   18.9282 O   0  0  0  0  0  0  0  0  0  0  0  0
   10.7578  -13.2358   19.4799 C   0  0  0  0  0  0  0  0  0  0  0  0
    9.4022  -13.8077   19.0592 C   0  0  2  0  0  0  0  0  0  0  0  0
    8.7391  -12.7982   18.2787 N   0  0  0  0  0  0  0  0  0  0  0  0
    8.6873  -14.1338   20.3202 C   0  0  0  0  0  0  0  0  0  0  0  0
    8.2892  -13.1870   21.0207 O   0  0  0  0  0  0  0  0  0  0  0  0
    6.8491  -21.8567   23.7243 N   0  0  0  0  0  0  0  0  0  0  0  0
    6.0386  -21.0129   24.5262 C   0  0  0  0  0  0  0  0  0  0  0  0
    5.3413  -21.4582   25.4980 N   0  0  0  0  0  0  0  0  0  0  0  0
    6.0038  -19.6092   24.2310 N   0  0  0  0  0  0  0  0  0  0  0  0
    6.5615  -19.0857   23.0032 C   0  0  0  0  0  0  0  0  0  0  0  0
    6.4650  -17.5599   23.0860 C   0  0  0  0  0  0  0  0  0  0  0  0
    7.0613  -17.0206   21.8397 C   0  0  0  0  0  0  0  0  0  0  0  0
    7.7079  -15.6824   21.9687 C   0  0  2  0  0  0  0  0  0  0  0  0
    8.4524  -15.4773   20.7364 N   0  0  0  0  0  0  0  0  0  0  0  0
    8.4839  -15.5129   23.1945 C   0  0  0  0  0  0  0  0  0  0  0  0
    9.6511  -16.0790   23.1660 O   0  0  0  0  0  0  0  0  0  0  0  0
    4.7360  -20.8385   26.0544 N   0  0  0  0  0  0  0  0  0  0  0  0
    8.0888  -14.8146   24.3622 C   0  0  0  0  0  0  0  0  0  0  0  0
    6.8809  -14.0896   24.5791 C   0  0  0  0  0  0  0  0  0  0  0  0
    6.9312  -13.6426   26.0602 C   0  0  0  0  0  0  0  0  0  0  0  0
    8.4402  -13.4986   26.2341 C   0  0  2  0  0  0  0  0  0  0  0  0
    8.8943  -14.7584   25.5508 C   0  0  0  0  0  0  0  0  0  0  0  0
    8.7514  -15.9539   26.4094 O   0  0  0  0  0  0  0  0  0  0  0  0
    9.4790  -16.0439   27.4304 O   0  0  0  0  0  0  0  0  0  0  0  0
  2  1  1  0
  2  3  2  0
  4  5  1  0
  4  2  1  0
  5  6  1  1
  7  8  2  0
  7  5  1  0
  9 10  1  0
 10 11  2  0
 12 13  1  0
 12 10  1  0
 13 14  1  0
 14 15  1  0
 16 15  1  6
 16 17  1  0
 17  7  1  0
 18 16  1  0
 19 18  2  0
 20 18  1  0
 21 20  1  0
 22 21  1  0
 23 24  1  0
 23 22  1  0
 24 20  1  0
 25 27  1  0
 24 25  1  1
 26 25  2  0
M  END
$$$$
