NRP.pdb
     RDKit          3D

 27 27  0  0  1  0  0  0  0  0999 V2000
    9.8596  -14.1478   18.4606 N   0  0  0  0  0  0  0  0  0  0  0  0
    8.6860  -13.3626   18.6606 C   0  0  0  0  0  0  0  0  0  0  0  0
    8.5231  -12.3202   18.0034 O   0  0  0  0  0  0  0  0  0  0  0  0
    7.6954  -13.8095   19.6438 C   0  0  0  0  0  0  0  0  0  0  0  0
    8.1011  -15.1160   20.3296 C   0  0  2  0  0  0  0  0  0  0  0  0
    7.6214  -16.1939   19.5074 N   0  0  0  0  0  0  0  0  0  0  0  0
    7.4719  -15.0836   21.6752 C   0  0  0  0  0  0  0  0  0  0  0  0
    6.3567  -14.5439   21.7792 O   0  0  0  0  0  0  0  0  0  0  0  0
    9.4044  -20.2118   23.0030 N   0  0  0  0  0  0  0  0  0  0  0  0
    8.1126  -20.5448   22.5210 C   0  0  0  0  0  0  0  0  0  0  0  0
    7.9267  -21.0711   21.3732 N   0  0  0  0  0  0  0  0  0  0  0  0
    6.9768  -20.2787   23.3563 N   0  0  0  0  0  0  0  0  0  0  0  0
    7.0076  -19.2330   24.3554 C   0  0  0  0  0  0  0  0  0  0  0  0
    7.2150  -17.9118   23.6100 C   0  0  0  0  0  0  0  0  0  0  0  0
    7.1587  -16.8301   24.6232 C   0  0  0  0  0  0  0  0  0  0  0  0
    7.4508  -15.4599   24.1109 C   0  0  2  0  0  0  0  0  0  0  0  0
    8.1030  -15.6445   22.8242 N   0  0  0  0  0  0  0  0  0  0  0  0
    8.1763  -14.6143   25.0553 C   0  0  0  0  0  0  0  0  0  0  0  0
    9.4621  -14.7882   25.0436 O   0  0  0  0  0  0  0  0  0  0  0  0
    6.9806  -21.2096   20.9916 N   0  0  0  0  0  0  0  0  0  0  0  0
    7.6211  -13.6622   25.9457 C   0  0  0  0  0  0  0  0  0  0  0  0
    6.2697  -13.2145   26.0131 C   0  0  0  0  0  0  0  0  0  0  0  0
    6.2102  -12.2737   27.2409 C   0  0  0  0  0  0  0  0  0  0  0  0
    7.6339  -11.7256   27.2141 C   0  0  1  0  0  0  0  0  0  0  0  0
    8.3903  -13.0005   26.9631 C   0  0  0  0  0  0  0  0  0  0  0  0
    8.5584  -13.8121   28.1878 O   0  0  0  0  0  0  0  0  0  0  0  0
    7.8954  -14.8746   28.2934 O   0  0  0  0  0  0  0  0  0  0  0  0
  2  1  1  0
  2  3  2  0
  4  5  1  0
  4  2  1  0
  5  6  1  6
  7  8  2  0
  7  5  1  0
  9 10  1  0
 10 11  2  0
 12 13  1  0
 12 10  1  0
 13 14  1  0
 14 15  1  0
 16 15  1  1
 16 17  1  0
 17  7  1  0
 18 16  1  0
 19 18  2  0
 20 18  1  0
 21 20  1  0
 22 21  1  0
 23 24  1  0
 23 22  1  0
 24 20  1  0
 25 27  1  0
 24 25  1  1
 26 25  2  0
M  END
$$$$
