NRP.pdb
     RDKit          3D

 27 27  0  0  1  0  0  0  0  0999 V2000
   10.7806  -14.3919   17.9004 N   0  0  0  0  0  0  0  0  0  0  0  0
   11.2195  -13.7008   19.0682 C   0  0  0  0  0  0  0  0  0  0  0  0
   12.4106  -13.3607   19.1713 O   0  0  0  0  0  0  0  0  0  0  0  0
   10.2464  -13.4078   20.1240 C   0  0  0  0  0  0  0  0  0  0  0  0
    8.9051  -14.1074   19.8929 C   0  0  2  0  0  0  0  0  0  0  0  0
    8.1538  -13.2930   18.9762 N   0  0  0  0  0  0  0  0  0  0  0  0
    8.2677  -14.2206   21.2303 C   0  0  0  0  0  0  0  0  0  0  0  0
    7.5500  -13.2794   21.6104 O   0  0  0  0  0  0  0  0  0  0  0  0
    6.0091  -21.3242   26.1163 N   0  0  0  0  0  0  0  0  0  0  0  0
    6.5595  -20.3059   26.9361 C   0  0  0  0  0  0  0  0  0  0  0  0
    7.0305  -20.5447   28.0981 N   0  0  0  0  0  0  0  0  0  0  0  0
    6.5857  -18.9606   26.4380 N   0  0  0  0  0  0  0  0  0  0  0  0
    7.0569  -18.6628   25.1031 C   0  0  0  0  0  0  0  0  0  0  0  0
    6.8080  -17.1707   24.8662 C   0  0  0  0  0  0  0  0  0  0  0  0
    7.3683  -16.8453   23.5321 C   0  0  0  0  0  0  0  0  0  0  0  0
    7.7088  -15.4091   23.3159 C   0  0  2  0  0  0  0  0  0  0  0  0
    8.4557  -15.3583   22.0691 N   0  0  0  0  0  0  0  0  0  0  0  0
    8.3666  -14.7761   24.4560 C   0  0  0  0  0  0  0  0  0  0  0  0
    9.6358  -15.0311   24.5449 O   0  0  0  0  0  0  0  0  0  0  0  0
    7.5174  -19.8181   28.6411 N   0  0  0  0  0  0  0  0  0  0  0  0
    7.7643  -13.9442   25.4321 C   0  0  0  0  0  0  0  0  0  0  0  0
    6.3829  -13.6228   25.5726 C   0  0  0  0  0  0  0  0  0  0  0  0
    6.2871  -12.7835   26.8697 C   0  0  0  0  0  0  0  0  0  0  0  0
    7.6571  -12.1123   26.8434 C   0  0  2  0  0  0  0  0  0  0  0  0
    8.5100  -13.2941   26.4742 C   0  0  0  0  0  0  0  0  0  0  0  0
    8.7899  -14.1756   27.6281 O   0  0  0  0  0  0  0  0  0  0  0  0
    8.2124  -15.2908   27.6792 O   0  0  0  0  0  0  0  0  0  0  0  0
  2  1  1  0
  2  3  2  0
  4  5  1  0
  4  2  1  0
  5  6  1  6
  7  8  2  0
  7  5  1  0
  9 10  1  0
 10 11  2  0
 12 13  1  0
 12 10  1  0
 13 14  1  0
 14 15  1  0
 16 15  1  1
 16 17  1  0
 17  7  1  0
 18 16  1  0
 19 18  2  0
 20 18  1  0
 21 20  1  0
 22 21  1  0
 23 24  1  0
 23 22  1  0
 24 20  1  0
 25 27  1  0
 24 25  1  1
 26 25  2  0
M  END
$$$$
