NRP.pdb
     RDKit          3D

 27 27  0  0  1  0  0  0  0  0999 V2000
    8.8985  -14.8147   17.7640 N   0  0  0  0  0  0  0  0  0  0  0  0
    8.1432  -13.7060   18.2479 C   0  0  0  0  0  0  0  0  0  0  0  0
    7.9483  -12.7246   17.5103 O   0  0  0  0  0  0  0  0  0  0  0  0
    7.6127  -13.7539   19.6132 C   0  0  0  0  0  0  0  0  0  0  0  0
    7.9519  -15.0647   20.3262 C   0  0  2  0  0  0  0  0  0  0  0  0
    7.3538  -16.1288   19.5659 N   0  0  0  0  0  0  0  0  0  0  0  0
    7.3924  -14.9408   21.6970 C   0  0  0  0  0  0  0  0  0  0  0  0
    6.3022  -14.3573   21.8260 O   0  0  0  0  0  0  0  0  0  0  0  0
    8.0779  -21.3772   24.2323 N   0  0  0  0  0  0  0  0  0  0  0  0
    7.1660  -20.8154   25.1623 C   0  0  0  0  0  0  0  0  0  0  0  0
    6.7847  -21.4406   26.2076 N   0  0  0  0  0  0  0  0  0  0  0  0
    6.6561  -19.4972   24.9154 N   0  0  0  0  0  0  0  0  0  0  0  0
    6.7817  -18.8743   23.6159 C   0  0  0  0  0  0  0  0  0  0  0  0
    6.1897  -17.4676   23.7379 C   0  0  0  0  0  0  0  0  0  0  0  0
    7.1033  -16.6878   24.6079 C   0  0  0  0  0  0  0  0  0  0  0  0
    7.4123  -15.3074   24.1342 C   0  0  2  0  0  0  0  0  0  0  0  0
    8.0617  -15.4637   22.8424 N   0  0  0  0  0  0  0  0  0  0  0  0
    8.1486  -14.4978   25.1016 C   0  0  0  0  0  0  0  0  0  0  0  0
    9.4374  -14.6327   25.0345 O   0  0  0  0  0  0  0  0  0  0  0  0
    6.1191  -21.0218   26.8722 N   0  0  0  0  0  0  0  0  0  0  0  0
    7.6006  -13.6166   26.0663 C   0  0  0  0  0  0  0  0  0  0  0  0
    6.2260  -13.3150   26.2919 C   0  0  0  0  0  0  0  0  0  0  0  0
    6.2070  -12.3951   27.5367 C   0  0  0  0  0  0  0  0  0  0  0  0
    7.5538  -11.6993   27.3628 C   0  0  2  0  0  0  0  0  0  0  0  0
    8.4060  -12.8850   27.0048 C   0  0  0  0  0  0  0  0  0  0  0  0
    8.7942  -13.6835   28.1874 O   0  0  0  0  0  0  0  0  0  0  0  0
    8.2677  -14.8144   28.3409 O   0  0  0  0  0  0  0  0  0  0  0  0
  2  1  1  0
  2  3  2  0
  4  5  1  0
  4  2  1  0
  5  6  1  6
  7  8  2  0
  7  5  1  0
  9 10  1  0
 10 11  2  0
 12 13  1  0
 12 10  1  0
 13 14  1  0
 14 15  1  0
 16 15  1  1
 16 17  1  0
 17  7  1  0
 18 16  1  0
 19 18  2  0
 20 18  1  0
 21 20  1  0
 22 21  1  0
 23 24  1  0
 23 22  1  0
 24 20  1  0
 25 27  1  0
 24 25  1  1
 26 25  2  0
M  END
$$$$
