NRP.pdb
     RDKit          3D

 27 27  0  0  1  0  0  0  0  0999 V2000
   10.6259  -14.3269   17.9176 N   0  0  0  0  0  0  0  0  0  0  0  0
   11.0212  -13.6441   19.1055 C   0  0  0  0  0  0  0  0  0  0  0  0
   12.1715  -13.1817   19.1962 O   0  0  0  0  0  0  0  0  0  0  0  0
   10.0528  -13.5048   20.1966 C   0  0  0  0  0  0  0  0  0  0  0  0
    8.7611  -14.2823   19.9341 C   0  0  2  0  0  0  0  0  0  0  0  0
    8.0158  -13.5471   18.9482 N   0  0  0  0  0  0  0  0  0  0  0  0
    8.0655  -14.3729   21.2439 C   0  0  0  0  0  0  0  0  0  0  0  0
    7.3900  -13.3950   21.6087 O   0  0  0  0  0  0  0  0  0  0  0  0
    7.9670  -20.3187   28.3816 N   0  0  0  0  0  0  0  0  0  0  0  0
    7.5005  -20.1970   27.0476 C   0  0  0  0  0  0  0  0  0  0  0  0
    7.1682  -21.2096   26.3453 N   0  0  0  0  0  0  0  0  0  0  0  0
    7.4002  -18.8872   26.4706 N   0  0  0  0  0  0  0  0  0  0  0  0
    6.5837  -18.6417   25.3019 C   0  0  0  0  0  0  0  0  0  0  0  0
    6.6014  -17.1305   25.0565 C   0  0  0  0  0  0  0  0  0  0  0  0
    7.1966  -16.9171   23.7149 C   0  0  0  0  0  0  0  0  0  0  0  0
    7.4656  -15.4947   23.3549 C   0  0  2  0  0  0  0  0  0  0  0  0
    8.1526  -15.5293   22.0736 N   0  0  0  0  0  0  0  0  0  0  0  0
    8.1468  -14.7355   24.4005 C   0  0  0  0  0  0  0  0  0  0  0  0
    9.4342  -14.8966   24.4198 O   0  0  0  0  0  0  0  0  0  0  0  0
    6.8857  -21.1118   25.3601 N   0  0  0  0  0  0  0  0  0  0  0  0
    7.5488  -13.8763   25.3551 C   0  0  0  0  0  0  0  0  0  0  0  0
    6.1715  -13.5297   25.4759 C   0  0  0  0  0  0  0  0  0  0  0  0
    6.0770  -12.6654   26.7566 C   0  0  0  0  0  0  0  0  0  0  0  0
    7.4581  -12.0175   26.7321 C   0  0  2  0  0  0  0  0  0  0  0  0
    8.2948  -13.2196   26.3929 C   0  0  0  0  0  0  0  0  0  0  0  0
    8.5487  -14.0844   27.5653 O   0  0  0  0  0  0  0  0  0  0  0  0
    9.2034  -13.6072   28.5263 O   0  0  0  0  0  0  0  0  0  0  0  0
  2  1  1  0
  2  3  2  0
  4  5  1  0
  4  2  1  0
  5  6  1  6
  7  8  2  0
  7  5  1  0
  9 10  1  0
 10 11  2  0
 12 13  1  0
 12 10  1  0
 13 14  1  0
 14 15  1  0
 16 15  1  1
 16 17  1  0
 17  7  1  0
 18 16  1  0
 19 18  2  0
 20 18  1  0
 21 20  1  0
 22 21  1  0
 23 24  1  0
 23 22  1  0
 24 20  1  0
 25 27  1  0
 24 25  1  1
 26 25  2  0
M  END
$$$$
