NRP.pdb
     RDKit          3D

 27 27  0  0  1  0  0  0  0  0999 V2000
    9.5322  -13.8465   17.4826 N   0  0  0  0  0  0  0  0  0  0  0  0
    8.1711  -13.5002   17.7307 C   0  0  0  0  0  0  0  0  0  0  0  0
    7.4396  -13.1614   16.7846 O   0  0  0  0  0  0  0  0  0  0  0  0
    7.6674  -13.5535   19.1059 C   0  0  0  0  0  0  0  0  0  0  0  0
    8.7253  -14.0438   20.0970 C   0  0  2  0  0  0  0  0  0  0  0  0
    9.2140  -15.3045   19.6074 N   0  0  0  0  0  0  0  0  0  0  0  0
    8.0361  -14.1545   21.4086 C   0  0  0  0  0  0  0  0  0  0  0  0
    7.5539  -13.1183   21.8978 O   0  0  0  0  0  0  0  0  0  0  0  0
    7.0544  -21.4167   25.0285 N   0  0  0  0  0  0  0  0  0  0  0  0
    7.3934  -20.5019   26.0582 C   0  0  0  0  0  0  0  0  0  0  0  0
    7.7876  -20.8855   27.2099 N   0  0  0  0  0  0  0  0  0  0  0  0
    7.2879  -19.0960   25.7917 N   0  0  0  0  0  0  0  0  0  0  0  0
    6.1008  -18.5332   25.1863 C   0  0  0  0  0  0  0  0  0  0  0  0
    6.3390  -17.0262   25.0576 C   0  0  0  0  0  0  0  0  0  0  0  0
    6.9623  -16.7986   23.7312 C   0  0  0  0  0  0  0  0  0  0  0  0
    7.2808  -15.3768   23.4112 C   0  0  2  0  0  0  0  0  0  0  0  0
    7.9174  -15.3939   22.1038 N   0  0  0  0  0  0  0  0  0  0  0  0
    8.0334  -14.6867   24.4555 C   0  0  0  0  0  0  0  0  0  0  0  0
    9.3099  -14.9182   24.4305 O   0  0  0  0  0  0  0  0  0  0  0  0
    8.0691  -20.2105   27.9346 N   0  0  0  0  0  0  0  0  0  0  0  0
    7.5123  -13.8242   25.4515 C   0  0  0  0  0  0  0  0  0  0  0  0
    6.1457  -13.5082   25.7045 C   0  0  0  0  0  0  0  0  0  0  0  0
    6.1578  -12.6228   26.9741 C   0  0  0  0  0  0  0  0  0  0  0  0
    7.5126  -11.9428   26.8005 C   0  0  2  0  0  0  0  0  0  0  0  0
    8.3415  -13.1309   26.3984 C   0  0  0  0  0  0  0  0  0  0  0  0
    8.7334  -13.9674   27.5531 O   0  0  0  0  0  0  0  0  0  0  0  0
    8.1647  -15.0781   27.7037 O   0  0  0  0  0  0  0  0  0  0  0  0
  2  1  1  0
  2  3  2  0
  4  5  1  0
  4  2  1  0
  5  6  1  6
  7  8  2  0
  7  5  1  0
  9 10  1  0
 10 11  2  0
 12 13  1  0
 12 10  1  0
 13 14  1  0
 14 15  1  0
 16 15  1  1
 16 17  1  0
 17  7  1  0
 18 16  1  0
 19 18  2  0
 20 18  1  0
 21 20  1  0
 22 21  1  0
 23 24  1  0
 23 22  1  0
 24 20  1  0
 25 27  1  0
 24 25  1  1
 26 25  2  0
M  END
$$$$
