LTD.pdb
     RDKit          3D

 24 23  0  0  1  0  0  0  0  0999 V2000
   16.7650  -12.9410  -18.5598 C   0  0  0  0  0  0  0  0  0  0  0  0
   16.1896  -12.8896  -17.1642 C   0  0  2  0  0  0  0  0  0  0  0  0
   14.7105  -12.6018  -17.3118 C   0  0  0  0  0  0  0  0  0  0  0  0
   16.7956  -11.7973  -16.3295 C   0  0  0  0  0  0  0  0  0  0  0  0
   18.2787  -11.9409  -16.1482 C   0  0  2  0  0  0  0  0  0  0  0  0
   18.6272  -13.0720  -15.3152 N   0  0  0  0  0  0  0  0  0  0  0  0
   18.7672  -10.7124  -15.4655 C   0  0  0  0  0  0  0  0  0  0  0  0
   18.4429  -10.5400  -14.2372 O   0  0  0  0  0  0  0  0  0  0  0  0
   22.1002   -9.5290  -14.6013 C   0  0  0  0  0  0  0  0  0  0  0  0
   21.4809   -8.3990  -15.3770 C   0  0  1  0  0  0  0  0  0  0  0  0
   21.9125   -8.3966  -16.6982 O   0  0  0  0  0  0  0  0  0  0  0  0
   19.9696   -8.5746  -15.3222 C   0  0  2  0  0  0  0  0  0  0  0  0
   19.5693   -9.7210  -16.0916 N   0  0  0  0  0  0  0  0  0  0  0  0
   19.2818   -7.3355  -15.7827 C   0  0  0  0  0  0  0  0  0  0  0  0
   18.6609   -7.2672  -16.8716 O   0  0  0  0  0  0  0  0  0  0  0  0
   19.2944   -6.1404  -14.9944 N   0  0  0  0  0  0  0  0  0  0  0  0
   18.7215   -4.8838  -15.4362 C   0  0  1  0  0  0  0  0  0  0  0  0
   17.4852   -4.6715  -14.5740 C   0  0  0  0  0  0  0  0  0  0  0  0
   16.8152   -3.3828  -14.8278 C   0  0  0  0  0  0  0  0  0  0  0  0
   17.1610   -2.6276  -15.7613 O   0  0  0  0  0  0  0  0  0  0  0  0
   19.6751   -3.7711  -15.3357 C   0  0  0  0  0  0  0  0  0  0  0  0
   20.6822   -3.7984  -14.5883 O   0  0  0  0  0  0  0  0  0  0  0  0
   15.7718   -2.9952  -14.0096 O   0  0  0  0  0  0  0  0  0  0  0  0
   19.5121   -2.5901  -16.0843 O   0  0  0  0  0  0  0  0  0  0  0  0
  2  1  1  6
  2  3  1  0
  4  5  1  0
  4  2  1  0
  5  6  1  1
  5  7  1  0
  7  8  2  0
 10 12  1  0
 10  9  1  1
 11 10  1  0
 12 14  1  0
 13  7  1  0
 12 13  1  6
 14 15  2  0
 16 17  1  0
 16 14  1  0
 17 21  1  0
 17 18  1  1
 19 20  2  0
 19 18  1  0
 21 22  2  0
 21 24  1  0
 23 19  1  0
M  END
$$$$
