LTD.pdb
     RDKit          3D

 24 23  0  0  1  0  0  0  0  0999 V2000
   25.8272  -14.6460  -15.4417 C   0  0  0  0  0  0  0  0  0  0  0  0
   24.7374  -14.7722  -16.4799 C   0  0  2  0  0  0  0  0  0  0  0  0
   25.4001  -15.2565  -17.7522 C   0  0  0  0  0  0  0  0  0  0  0  0
   24.0658  -13.4611  -16.7745 C   0  0  0  0  0  0  0  0  0  0  0  0
   23.4948  -12.7982  -15.5547 C   0  0  2  0  0  0  0  0  0  0  0  0
   22.5947  -13.6649  -14.8245 N   0  0  0  0  0  0  0  0  0  0  0  0
   22.7113  -11.6187  -16.0116 C   0  0  0  0  0  0  0  0  0  0  0  0
   23.3193  -10.7263  -16.7025 O   0  0  0  0  0  0  0  0  0  0  0  0
   18.6665   -9.3199  -17.2624 C   0  0  0  0  0  0  0  0  0  0  0  0
   19.2773  -10.5823  -16.7188 C   0  0  1  0  0  0  0  0  0  0  0  0
   19.3229  -11.5790  -17.6865 O   0  0  0  0  0  0  0  0  0  0  0  0
   20.6858  -10.2483  -16.2473 C   0  0  2  0  0  0  0  0  0  0  0  0
   21.3331  -11.4223  -15.7286 N   0  0  0  0  0  0  0  0  0  0  0  0
   20.6542   -9.1481  -15.2428 C   0  0  0  0  0  0  0  0  0  0  0  0
   20.3528   -9.3355  -14.0386 O   0  0  0  0  0  0  0  0  0  0  0  0
   20.9707   -7.7997  -15.6053 N   0  0  0  0  0  0  0  0  0  0  0  0
   20.8268   -6.6734  -14.7035 C   0  0  1  0  0  0  0  0  0  0  0  0
   22.1922   -6.0020  -14.6654 C   0  0  0  0  0  0  0  0  0  0  0  0
   22.2082   -4.7647  -13.8635 C   0  0  0  0  0  0  0  0  0  0  0  0
   22.1868   -4.7832  -12.6143 O   0  0  0  0  0  0  0  0  0  0  0  0
   19.7602   -5.7554  -15.1248 C   0  0  0  0  0  0  0  0  0  0  0  0
   19.4927   -5.5237  -16.3282 O   0  0  0  0  0  0  0  0  0  0  0  0
   22.2481   -3.5449  -14.5106 O   0  0  0  0  0  0  0  0  0  0  0  0
   18.9630   -5.0713  -14.1876 O   0  0  0  0  0  0  0  0  0  0  0  0
  2  1  1  1
  2  3  1  0
  4  5  1  0
  4  2  1  0
  5  6  1  6
  5  7  1  0
  7  8  2  0
 10 12  1  0
 10  9  1  6
 11 10  1  0
 12 14  1  0
 13  7  1  0
 12 13  1  1
 14 15  2  0
 16 17  1  0
 16 14  1  0
 17 21  1  0
 17 18  1  6
 19 20  2  0
 19 18  1  0
 21 22  2  0
 21 24  1  0
 23 19  1  0
M  END
$$$$
