LTD.pdb
     RDKit          3D

 24 23  0  0  1  0  0  0  0  0999 V2000
   26.3920  -15.0755  -15.2273 C   0  0  0  0  0  0  0  0  0  0  0  0
   26.9123  -14.1677  -16.3166 C   0  0  2  0  0  0  0  0  0  0  0  0
   28.3073  -13.7466  -15.9051 C   0  0  0  0  0  0  0  0  0  0  0  0
   26.0808  -12.9275  -16.4811 C   0  0  0  0  0  0  0  0  0  0  0  0
   24.6389  -13.2142  -16.7843 C   0  0  2  0  0  0  0  0  0  0  0  0
   24.4732  -14.0109  -17.9813 N   0  0  0  0  0  0  0  0  0  0  0  0
   23.9621  -11.9095  -17.0155 C   0  0  0  0  0  0  0  0  0  0  0  0
   24.5301  -11.0704  -17.8009 O   0  0  0  0  0  0  0  0  0  0  0  0
   21.0700  -11.2066  -18.8201 C   0  0  0  0  0  0  0  0  0  0  0  0
   20.7861  -10.5477  -17.4982 C   0  0  1  0  0  0  0  0  0  0  0  0
   19.9823  -11.3494  -16.6961 O   0  0  0  0  0  0  0  0  0  0  0  0
   22.1212  -10.2951  -16.8115 C   0  0  2  0  0  0  0  0  0  0  0  0
   22.7272  -11.5383  -16.4194 N   0  0  0  0  0  0  0  0  0  0  0  0
   21.9471   -9.3775  -15.6505 C   0  0  0  0  0  0  0  0  0  0  0  0
   21.8936   -9.7846  -14.4642 O   0  0  0  0  0  0  0  0  0  0  0  0
   21.8300   -7.9621  -15.8314 N   0  0  0  0  0  0  0  0  0  0  0  0
   21.6254   -7.0297  -14.7399 C   0  0  1  0  0  0  0  0  0  0  0  0
   22.4580   -5.8037  -15.0868 C   0  0  0  0  0  0  0  0  0  0  0  0
   22.3084   -4.7063  -14.1134 C   0  0  0  0  0  0  0  0  0  0  0  0
   21.3830   -3.8704  -14.1928 O   0  0  0  0  0  0  0  0  0  0  0  0
   20.2060   -6.7078  -14.5411 C   0  0  0  0  0  0  0  0  0  0  0  0
   19.3775   -6.6580  -15.4816 O   0  0  0  0  0  0  0  0  0  0  0  0
   23.2183   -4.5960  -13.0798 O   0  0  0  0  0  0  0  0  0  0  0  0
   19.6843   -6.4320  -13.2630 O   0  0  0  0  0  0  0  0  0  0  0  0
  2  1  1  1
  2  3  1  0
  4  5  1  0
  4  2  1  0
  5  6  1  6
  5  7  1  0
  7  8  2  0
 10 12  1  0
 10  9  1  6
 11 10  1  0
 12 14  1  0
 13  7  1  0
 12 13  1  1
 14 15  2  0
 16 17  1  0
 16 14  1  0
 17 21  1  0
 17 18  1  6
 19 20  2  0
 19 18  1  0
 21 22  2  0
 21 24  1  0
 23 19  1  0
M  END
$$$$
