LTD.pdb
     RDKit          3D

 24 23  0  0  1  0  0  0  0  0999 V2000
   17.8228  -18.7563  -13.4423 C   0  0  0  0  0  0  0  0  0  0  0  0
   19.2687  -18.3194  -13.4419 C   0  0  2  0  0  0  0  0  0  0  0  0
   19.6587  -18.1006  -11.9954 C   0  0  0  0  0  0  0  0  0  0  0  0
   19.4825  -17.0298  -14.1822 C   0  0  0  0  0  0  0  0  0  0  0  0
   19.0775  -17.0988  -15.6260 C   0  0  2  0  0  0  0  0  0  0  0  0
   19.9652  -17.9304  -16.4102 N   0  0  0  0  0  0  0  0  0  0  0  0
   19.1501  -15.7188  -16.1776 C   0  0  0  0  0  0  0  0  0  0  0  0
   20.2706  -15.3239  -16.6592 O   0  0  0  0  0  0  0  0  0  0  0  0
   16.9104  -14.3353  -18.8327 C   0  0  0  0  0  0  0  0  0  0  0  0
   16.9744  -13.2873  -17.7558 C   0  0  1  0  0  0  0  0  0  0  0  0
   15.8340  -13.3087  -16.9614 O   0  0  0  0  0  0  0  0  0  0  0  0
   18.2064  -13.5710  -16.9075 C   0  0  2  0  0  0  0  0  0  0  0  0
   18.0548  -14.8144  -16.2023 N   0  0  0  0  0  0  0  0  0  0  0  0
   18.4722  -12.4389  -15.9759 C   0  0  0  0  0  0  0  0  0  0  0  0
   18.1493  -12.4662  -14.7631 O   0  0  0  0  0  0  0  0  0  0  0  0
   19.1196  -11.2428  -16.4234 N   0  0  0  0  0  0  0  0  0  0  0  0
   19.3794  -10.1038  -15.5646 C   0  0  1  0  0  0  0  0  0  0  0  0
   20.3864   -9.2451  -16.3164 C   0  0  0  0  0  0  0  0  0  0  0  0
   20.7679   -8.0232  -15.5846 C   0  0  0  0  0  0  0  0  0  0  0  0
   20.3784   -7.7993  -14.4185 O   0  0  0  0  0  0  0  0  0  0  0  0
   18.1530   -9.3683  -15.2288 C   0  0  0  0  0  0  0  0  0  0  0  0
   17.8989   -8.9533  -14.0727 O   0  0  0  0  0  0  0  0  0  0  0  0
   21.5813   -7.0946  -16.2046 O   0  0  0  0  0  0  0  0  0  0  0  0
   17.1755   -9.0814  -16.2005 O   0  0  0  0  0  0  0  0  0  0  0  0
  2  1  1  1
  2  3  1  0
  4  5  1  0
  4  2  1  0
  5  6  1  6
  5  7  1  0
  7  8  2  0
 10 12  1  0
 10  9  1  6
 11 10  1  0
 12 14  1  0
 13  7  1  0
 12 13  1  1
 14 15  2  0
 16 17  1  0
 16 14  1  0
 17 21  1  0
 17 18  1  6
 19 20  2  0
 19 18  1  0
 21 22  2  0
 21 24  1  0
 23 19  1  0
M  END
$$$$
