LTD.pdb
     RDKit          3D

 24 23  0  0  1  0  0  0  0  0999 V2000
   27.2999  -21.1859   -5.9720 C   0  0  0  0  0  0  0  0  0  0  0  0
   28.0039  -20.1548   -6.8221 C   0  0  2  0  0  0  0  0  0  0  0  0
   28.1174  -18.9000   -5.9825 C   0  0  0  0  0  0  0  0  0  0  0  0
   27.2379  -19.8135   -8.0686 C   0  0  0  0  0  0  0  0  0  0  0  0
   27.0845  -20.9737   -9.0086 C   0  0  2  0  0  0  0  0  0  0  0  0
   28.3576  -21.4790   -9.4759 N   0  0  0  0  0  0  0  0  0  0  0  0
   26.3294  -20.4907  -10.1962 C   0  0  0  0  0  0  0  0  0  0  0  0
   26.7798  -19.4626  -10.8155 O   0  0  0  0  0  0  0  0  0  0  0  0
   26.4802  -21.6264  -13.1966 C   0  0  0  0  0  0  0  0  0  0  0  0
   24.9837  -21.6475  -13.0475 C   0  0  1  0  0  0  0  0  0  0  0  0
   24.5263  -22.9186  -12.7202 O   0  0  0  0  0  0  0  0  0  0  0  0
   24.6149  -20.6613  -11.9478 C   0  0  2  0  0  0  0  0  0  0  0  0
   25.1417  -21.0988  -10.6838 N   0  0  0  0  0  0  0  0  0  0  0  0
   23.1384  -20.4685  -11.8915 C   0  0  0  0  0  0  0  0  0  0  0  0
   22.4419  -20.8338  -10.9131 O   0  0  0  0  0  0  0  0  0  0  0  0
   22.4273  -19.8469  -12.9676 N   0  0  0  0  0  0  0  0  0  0  0  0
   20.9951  -19.6208  -12.9557 C   0  0  1  0  0  0  0  0  0  0  0  0
   20.7362  -18.5769  -14.0327 C   0  0  0  0  0  0  0  0  0  0  0  0
   19.3189  -18.1817  -14.1289 C   0  0  0  0  0  0  0  0  0  0  0  0
   18.5581  -18.1933  -13.1377 O   0  0  0  0  0  0  0  0  0  0  0  0
   20.2343  -20.8577  -13.1769 C   0  0  0  0  0  0  0  0  0  0  0  0
   19.0966  -21.0578  -12.6880 O   0  0  0  0  0  0  0  0  0  0  0  0
   18.8131  -17.7855  -15.3518 O   0  0  0  0  0  0  0  0  0  0  0  0
   20.7455  -21.9076  -13.9633 O   0  0  0  0  0  0  0  0  0  0  0  0
  2  1  1  1
  2  3  1  0
  4  5  1  0
  4  2  1  0
  5  6  1  6
  5  7  1  0
  7  8  2  0
 10 12  1  0
 10  9  1  1
 11 10  1  0
 12 14  1  0
 13  7  1  0
 12 13  1  1
 14 15  2  0
 16 17  1  0
 16 14  1  0
 17 21  1  0
 17 18  1  6
 19 20  2  0
 19 18  1  0
 21 22  2  0
 21 24  1  0
 23 19  1  0
M  END
$$$$
