LTD.pdb
     RDKit          3D

 24 23  0  0  1  0  0  0  0  0999 V2000
   23.7884  -13.8057  -17.6039 C   0  0  0  0  0  0  0  0  0  0  0  0
   23.5742  -14.6990  -18.8029 C   0  0  2  0  0  0  0  0  0  0  0  0
   22.6856  -13.9364  -19.7627 C   0  0  0  0  0  0  0  0  0  0  0  0
   22.8823  -15.9846  -18.4489 C   0  0  0  0  0  0  0  0  0  0  0  0
   23.5981  -16.7735  -17.3914 C   0  0  2  0  0  0  0  0  0  0  0  0
   24.9304  -17.1645  -17.7999 N   0  0  0  0  0  0  0  0  0  0  0  0
   22.8170  -18.0178  -17.1556 C   0  0  0  0  0  0  0  0  0  0  0  0
   22.1397  -18.4949  -18.1339 O   0  0  0  0  0  0  0  0  0  0  0  0
   24.3268  -21.0704  -16.0007 C   0  0  0  0  0  0  0  0  0  0  0  0
   23.0527  -21.0161  -15.2032 C   0  0  1  0  0  0  0  0  0  0  0  0
   23.2973  -20.6542  -13.8837 O   0  0  0  0  0  0  0  0  0  0  0  0
   22.1376  -19.9939  -15.8633 C   0  0  2  0  0  0  0  0  0  0  0  0
   22.7765  -18.7072  -15.9141 N   0  0  0  0  0  0  0  0  0  0  0  0
   20.8277  -19.9304  -15.1559 C   0  0  0  0  0  0  0  0  0  0  0  0
   20.6119  -19.1541  -14.1933 O   0  0  0  0  0  0  0  0  0  0  0  0
   19.7309  -20.7649  -15.5439 N   0  0  0  0  0  0  0  0  0  0  0  0
   18.4557  -20.7831  -14.8540 C   0  0  1  0  0  0  0  0  0  0  0  0
   18.7579  -21.2792  -13.4472 C   0  0  0  0  0  0  0  0  0  0  0  0
   17.5580  -21.3759  -12.5958 C   0  0  0  0  0  0  0  0  0  0  0  0
   16.4232  -21.0562  -13.0096 O   0  0  0  0  0  0  0  0  0  0  0  0
   17.8015  -19.4679  -14.8582 C   0  0  0  0  0  0  0  0  0  0  0  0
   18.3709  -18.4193  -14.4714 O   0  0  0  0  0  0  0  0  0  0  0  0
   17.6891  -21.8341  -11.2991 O   0  0  0  0  0  0  0  0  0  0  0  0
   16.4761  -19.3048  -15.3038 O   0  0  0  0  0  0  0  0  0  0  0  0
  2  1  1  1
  2  3  1  0
  4  5  1  0
  4  2  1  0
  5  6  1  6
  5  7  1  0
  7  8  2  0
 10 12  1  0
 10  9  1  6
 11 10  1  0
 12 14  1  0
 13  7  1  0
 12 13  1  1
 14 15  2  0
 16 17  1  0
 16 14  1  0
 17 21  1  0
 17 18  1  1
 19 20  2  0
 19 18  1  0
 21 22  2  0
 21 24  1  0
 23 19  1  0
M  END
$$$$
