LTD.pdb
     RDKit          3D

 24 23  0  0  1  0  0  0  0  0999 V2000
   18.0808  -15.9358  -14.9568 C   0  0  0  0  0  0  0  0  0  0  0  0
   18.4598  -15.6744  -16.3954 C   0  0  2  0  0  0  0  0  0  0  0  0
   19.2915  -16.8553  -16.8495 C   0  0  0  0  0  0  0  0  0  0  0  0
   19.2879  -14.4316  -16.5577 C   0  0  0  0  0  0  0  0  0  0  0  0
   18.5808  -13.1839  -16.1144 C   0  0  2  0  0  0  0  0  0  0  0  0
   17.3484  -12.9594  -16.8391 N   0  0  0  0  0  0  0  0  0  0  0  0
   19.4831  -12.0344  -16.3949 C   0  0  0  0  0  0  0  0  0  0  0  0
   20.6965  -12.1118  -15.9888 O   0  0  0  0  0  0  0  0  0  0  0  0
   20.2659  -10.3031  -19.6730 C   0  0  0  0  0  0  0  0  0  0  0  0
   19.9106   -9.2267  -18.6844 C   0  0  1  0  0  0  0  0  0  0  0  0
   18.6128   -8.7692  -18.8799 O   0  0  0  0  0  0  0  0  0  0  0  0
   20.0507   -9.8171  -17.2881 C   0  0  2  0  0  0  0  0  0  0  0  0
   19.0814  -10.8589  -17.0841 N   0  0  0  0  0  0  0  0  0  0  0  0
   19.9370   -8.7496  -16.2548 C   0  0  0  0  0  0  0  0  0  0  0  0
   18.9100   -8.5918  -15.5504 O   0  0  0  0  0  0  0  0  0  0  0  0
   21.0103   -7.8345  -16.0086 N   0  0  0  0  0  0  0  0  0  0  0  0
   20.9577   -6.7906  -15.0037 C   0  0  1  0  0  0  0  0  0  0  0  0
   22.3950   -6.5915  -14.5441 C   0  0  0  0  0  0  0  0  0  0  0  0
   22.5372   -5.5361  -13.5243 C   0  0  0  0  0  0  0  0  0  0  0  0
   22.9851   -4.4027  -13.8002 O   0  0  0  0  0  0  0  0  0  0  0  0
   20.3549   -5.5533  -15.5170 C   0  0  0  0  0  0  0  0  0  0  0  0
   20.4611   -5.1847  -16.7113 O   0  0  0  0  0  0  0  0  0  0  0  0
   22.1642   -5.8056  -12.2217 O   0  0  0  0  0  0  0  0  0  0  0  0
   19.6107   -4.6952  -14.6853 O   0  0  0  0  0  0  0  0  0  0  0  0
  2  1  1  1
  2  3  1  0
  4  5  1  0
  4  2  1  0
  5  6  1  6
  5  7  1  0
  7  8  2  0
 10 12  1  0
 10  9  1  6
 11 10  1  0
 12 14  1  0
 13  7  1  0
 12 13  1  1
 14 15  2  0
 16 17  1  0
 16 14  1  0
 17 21  1  0
 17 18  1  6
 19 20  2  0
 19 18  1  0
 21 22  2  0
 21 24  1  0
 23 19  1  0
M  END
$$$$
