CYM.pdb
     RDKit          3D

 27 27  0  0  1  0  0  0  0  0999 V2000
   25.8524  -18.7510  -18.2818 N   0  0  0  0  0  0  0  0  0  0  0  0
   26.4824  -19.3122  -17.1178 C   0  0  1  0  0  0  0  0  0  0  0  0
   27.8075  -18.6171  -16.8976 C   0  0  0  0  0  0  0  0  0  0  0  0
   28.6103  -19.1765  -15.3721 S   0  0  0  0  0  0  0  0  0  0  0  0
   25.6394  -19.1138  -15.9076 C   0  0  0  0  0  0  0  0  0  0  0  0
   25.3492  -17.9698  -15.4800 O   0  0  0  0  0  0  0  0  0  0  0  0
   19.4624  -16.9705  -16.9369 O   0  0  0  0  0  0  0  0  0  0  0  0
   20.3168  -17.8728  -16.3194 C   0  0  0  0  0  0  0  0  0  0  0  0
   20.3126  -18.0685  -14.9612 C   0  0  0  0  0  0  0  0  0  0  0  0
   21.1718  -18.9707  -14.3743 C   0  0  0  0  0  0  0  0  0  0  0  0
   22.0850  -19.7289  -15.1160 C   0  0  0  0  0  0  0  0  0  0  0  0
   22.9731  -20.6282  -14.3970 C   0  0  0  0  0  0  0  0  0  0  0  0
   24.2943  -20.0464  -13.9875 C   0  0  2  0  0  0  0  0  0  0  0  0
   25.1399  -20.2260  -15.2031 N   0  0  0  0  0  0  0  0  0  0  0  0
   24.9115  -20.8620  -12.9283 C   0  0  0  0  0  0  0  0  0  0  0  0
   25.6311  -21.8567  -13.3169 O   0  0  0  0  0  0  0  0  0  0  0  0
   22.0629  -19.5093  -16.4688 C   0  0  0  0  0  0  0  0  0  0  0  0
   21.2108  -18.6132  -17.0595 C   0  0  0  0  0  0  0  0  0  0  0  0
   29.7660  -19.7037  -11.7132 C   0  0  0  0  0  0  0  0  0  0  0  0
   29.8754  -21.2010  -10.6932 S   0  0  0  0  0  0  0  0  0  0  0  0
   28.1687  -21.6573  -10.2341 C   0  0  0  0  0  0  0  0  0  0  0  0
   27.1642  -20.9496  -11.0728 C   0  0  0  0  0  0  0  0  0  0  0  0
   25.7534  -21.3314  -10.6551 C   0  0  2  0  0  0  0  0  0  0  0  0
   24.7979  -20.6569  -11.5347 N   0  0  0  0  0  0  0  0  0  0  0  0
   25.5186  -21.0118   -9.2355 C   0  0  0  0  0  0  0  0  0  0  0  0
   24.5719  -20.0661   -8.8146 O   0  0  0  0  0  0  0  0  0  0  0  0
   26.1471  -21.5578   -8.2783 O   0  0  0  0  0  0  0  0  0  0  0  0
  2  1  1  6
  2  3  1  0
  4  3  1  0
  5  2  1  0
  6  5  2  0
  8  7  1  0
  8  9  2  0
 10  9  1  0
 11 10  2  0
 13 12  1  6
 12 11  1  0
 13 14  1  0
 14  5  1  0
 15 24  1  0
 15 13  1  0
 16 15  2  0
 17 18  2  0
 17 11  1  0
 18  8  1  0
 20 19  1  0
 21 20  1  0
 22 21  1  0
 23 22  1  6
 23 24  1  0
 25 23  1  0
 25 26  1  0
 27 25  2  0
M  END
$$$$
