CYM.pdb
     RDKit          3D

 27 27  0  0  1  0  0  0  0  0999 V2000
   23.6112  -11.3309  -21.0012 N   0  0  0  0  0  0  0  0  0  0  0  0
   23.8628   -9.9991  -20.5222 C   0  0  1  0  0  0  0  0  0  0  0  0
   24.0341   -9.0780  -21.7095 C   0  0  0  0  0  0  0  0  0  0  0  0
   25.5657   -9.4294  -22.6126 S   0  0  0  0  0  0  0  0  0  0  0  0
   22.7242   -9.5036  -19.7019 C   0  0  0  0  0  0  0  0  0  0  0  0
   21.5439   -9.5120  -20.1294 O   0  0  0  0  0  0  0  0  0  0  0  0
   18.2921   -8.3722  -12.1335 O   0  0  0  0  0  0  0  0  0  0  0  0
   19.1883   -8.6282  -13.1615 C   0  0  0  0  0  0  0  0  0  0  0  0
   18.7743   -9.0341  -14.4054 C   0  0  0  0  0  0  0  0  0  0  0  0
   19.6857   -9.2815  -15.4078 C   0  0  0  0  0  0  0  0  0  0  0  0
   21.0651   -9.1360  -15.2205 C   0  0  0  0  0  0  0  0  0  0  0  0
   21.9455   -9.4563  -16.3325 C   0  0  0  0  0  0  0  0  0  0  0  0
   21.8142   -8.5747  -17.5398 C   0  0  2  0  0  0  0  0  0  0  0  0
   22.9507   -9.0055  -18.4045 N   0  0  0  0  0  0  0  0  0  0  0  0
   22.0730   -7.1696  -17.1836 C   0  0  0  0  0  0  0  0  0  0  0  0
   23.2861   -6.8718  -16.8708 O   0  0  0  0  0  0  0  0  0  0  0  0
   21.4441   -8.7293  -13.9676 C   0  0  0  0  0  0  0  0  0  0  0  0
   20.5429   -8.4815  -12.9655 C   0  0  0  0  0  0  0  0  0  0  0  0
   18.9917   -0.5290  -16.9933 C   0  0  0  0  0  0  0  0  0  0  0  0
   20.3301   -1.0913  -18.0825 S   0  0  0  0  0  0  0  0  0  0  0  0
   21.2552   -2.3731  -17.1699 C   0  0  0  0  0  0  0  0  0  0  0  0
   20.8357   -3.7440  -17.5673 C   0  0  0  0  0  0  0  0  0  0  0  0
   21.5793   -4.7892  -16.7519 C   0  0  2  0  0  0  0  0  0  0  0  0
   21.1269   -6.1202  -17.1586 N   0  0  0  0  0  0  0  0  0  0  0  0
   21.3955   -4.5605  -15.3074 C   0  0  0  0  0  0  0  0  0  0  0  0
   20.2024   -4.8629  -14.6345 O   0  0  0  0  0  0  0  0  0  0  0  0
   22.2914   -4.0732  -14.5528 O   0  0  0  0  0  0  0  0  0  0  0  0
  2  1  1  6
  2  3  1  0
  4  3  1  0
  5  2  1  0
  6  5  2  0
  8  7  1  0
  8  9  2  0
 10  9  1  0
 11 10  2  0
 13 12  1  1
 12 11  1  0
 13 14  1  0
 14  5  1  0
 15 24  1  0
 15 13  1  0
 16 15  2  0
 17 18  2  0
 17 11  1  0
 18  8  1  0
 20 19  1  0
 21 20  1  0
 22 21  1  0
 23 22  1  6
 23 24  1  0
 25 23  1  0
 25 26  1  0
 27 25  2  0
M  END
$$$$
