CYM.pdb
     RDKit          3D

 27 27  0  0  1  0  0  0  0  0999 V2000
   28.4825  -22.9151  -17.5898 N   0  0  0  0  0  0  0  0  0  0  0  0
   27.9091  -21.7340  -17.0041 C   0  0  1  0  0  0  0  0  0  0  0  0
   27.0217  -21.0631  -18.0287 C   0  0  0  0  0  0  0  0  0  0  0  0
   27.9901  -20.3296  -19.3737 S   0  0  0  0  0  0  0  0  0  0  0  0
   27.0811  -22.0766  -15.8158 C   0  0  0  0  0  0  0  0  0  0  0  0
   26.5167  -23.1916  -15.6981 O   0  0  0  0  0  0  0  0  0  0  0  0
   23.5909  -20.5005   -7.7373 O   0  0  0  0  0  0  0  0  0  0  0  0
   24.3340  -20.4943   -8.9092 C   0  0  0  0  0  0  0  0  0  0  0  0
   23.8510  -19.9565  -10.0757 C   0  0  0  0  0  0  0  0  0  0  0  0
   24.6101  -19.9637  -11.2248 C   0  0  0  0  0  0  0  0  0  0  0  0
   25.8976  -20.5108  -11.2703 C   0  0  0  0  0  0  0  0  0  0  0  0
   26.6025  -20.5003  -12.5420 C   0  0  0  0  0  0  0  0  0  0  0  0
   26.1039  -21.4741  -13.5690 C   0  0  2  0  0  0  0  0  0  0  0  0
   26.9099  -21.1396  -14.7789 N   0  0  0  0  0  0  0  0  0  0  0  0
   24.7010  -21.1886  -13.9130 C   0  0  0  0  0  0  0  0  0  0  0  0
   24.4929  -20.1687  -14.6712 O   0  0  0  0  0  0  0  0  0  0  0  0
   26.3492  -21.0389  -10.0887 C   0  0  0  0  0  0  0  0  0  0  0  0
   25.5994  -21.0352   -8.9417 C   0  0  0  0  0  0  0  0  0  0  0  0
   21.1748  -22.3854  -18.3559 C   0  0  0  0  0  0  0  0  0  0  0  0
   19.8960  -22.5946  -17.0852 S   0  0  0  0  0  0  0  0  0  0  0  0
   20.4698  -21.7001  -15.6012 C   0  0  0  0  0  0  0  0  0  0  0  0
   21.8207  -22.1525  -15.1726 C   0  0  0  0  0  0  0  0  0  0  0  0
   22.2448  -21.4404  -13.8985 C   0  0  2  0  0  0  0  0  0  0  0  0
   23.5673  -21.9245  -13.5006 N   0  0  0  0  0  0  0  0  0  0  0  0
   21.2444  -21.6262  -12.8321 C   0  0  0  0  0  0  0  0  0  0  0  0
   21.3408  -22.6385  -11.8658 O   0  0  0  0  0  0  0  0  0  0  0  0
   20.2169  -20.8946  -12.6964 O   0  0  0  0  0  0  0  0  0  0  0  0
  2  1  1  6
  2  3  1  0
  4  3  1  0
  5  2  1  0
  6  5  2  0
  8  7  1  0
  8  9  2  0
 10  9  1  0
 11 10  2  0
 13 12  1  1
 12 11  1  0
 13 14  1  0
 14  5  1  0
 15 24  1  0
 15 13  1  0
 16 15  2  0
 17 18  2  0
 17 11  1  0
 18  8  1  0
 20 19  1  0
 21 20  1  0
 22 21  1  0
 23 22  1  6
 23 24  1  0
 25 23  1  0
 25 26  1  0
 27 25  2  0
M  END
$$$$
