CYM.pdb
     RDKit          3D

 27 27  0  0  1  0  0  0  0  0999 V2000
   29.1655  -29.5192  -19.1153 N   0  0  0  0  0  0  0  0  0  0  0  0
   27.8661  -29.4830  -18.5013 C   0  0  1  0  0  0  0  0  0  0  0  0
   28.0135  -29.7971  -17.0292 C   0  0  0  0  0  0  0  0  0  0  0  0
   28.6672  -31.4666  -16.7641 S   0  0  0  0  0  0  0  0  0  0  0  0
   27.2504  -28.1348  -18.6360 C   0  0  0  0  0  0  0  0  0  0  0  0
   27.8742  -27.1660  -19.1340 O   0  0  0  0  0  0  0  0  0  0  0  0
   22.9220  -21.4570  -21.5157 O   0  0  0  0  0  0  0  0  0  0  0  0
   23.4918  -22.6471  -21.0864 C   0  0  0  0  0  0  0  0  0  0  0  0
   24.8123  -22.7337  -20.7231 C   0  0  0  0  0  0  0  0  0  0  0  0
   25.3523  -23.9281  -20.3007 C   0  0  0  0  0  0  0  0  0  0  0  0
   24.5989  -25.1048  -20.2181 C   0  0  0  0  0  0  0  0  0  0  0  0
   25.2722  -26.3217  -19.7937 C   0  0  0  0  0  0  0  0  0  0  0  0
   25.3016  -26.5651  -18.3132 C   0  0  2  0  0  0  0  0  0  0  0  0
   25.9302  -27.9132  -18.1996 N   0  0  0  0  0  0  0  0  0  0  0  0
   23.9338  -26.6990  -17.7847 C   0  0  0  0  0  0  0  0  0  0  0  0
   23.2615  -27.7210  -18.1869 O   0  0  0  0  0  0  0  0  0  0  0  0
   23.2846  -24.9832  -20.5878 C   0  0  0  0  0  0  0  0  0  0  0  0
   22.7407  -23.7981  -21.0092 C   0  0  0  0  0  0  0  0  0  0  0  0
   18.3297  -26.0222  -12.4617 C   0  0  0  0  0  0  0  0  0  0  0  0
   20.0746  -25.6850  -12.8300 S   0  0  0  0  0  0  0  0  0  0  0  0
   20.3268  -26.0608  -14.5983 C   0  0  0  0  0  0  0  0  0  0  0  0
   21.7399  -25.8466  -15.0115 C   0  0  0  0  0  0  0  0  0  0  0  0
   21.9094  -26.1129  -16.4983 C   0  0  2  0  0  0  0  0  0  0  0  0
   23.2928  -25.8242  -16.8786 N   0  0  0  0  0  0  0  0  0  0  0  0
   20.9438  -25.3280  -17.2885 C   0  0  0  0  0  0  0  0  0  0  0  0
   19.7062  -25.8403  -17.7051 O   0  0  0  0  0  0  0  0  0  0  0  0
   21.1458  -24.1317  -17.6590 O   0  0  0  0  0  0  0  0  0  0  0  0
  2  1  1  6
  2  3  1  0
  4  3  1  0
  5  2  1  0
  6  5  2  0
  8  7  1  0
  8  9  2  0
 10  9  1  0
 11 10  2  0
 13 12  1  6
 12 11  1  0
 13 14  1  0
 14  5  1  0
 15 24  1  0
 15 13  1  0
 16 15  2  0
 17 18  2  0
 17 11  1  0
 18  8  1  0
 20 19  1  0
 21 20  1  0
 22 21  1  0
 23 22  1  1
 23 24  1  0
 25 23  1  0
 25 26  1  0
 27 25  2  0
M  END
$$$$
