CYM.pdb
     RDKit          3D

 27 27  0  0  1  0  0  0  0  0999 V2000
   28.0376  -21.8307  -16.8546 N   0  0  0  0  0  0  0  0  0  0  0  0
   28.0305  -20.8004  -15.8520 C   0  0  1  0  0  0  0  0  0  0  0  0
   27.5239  -19.5182  -16.4741 C   0  0  0  0  0  0  0  0  0  0  0  0
   28.6963  -18.8548  -17.6865 S   0  0  0  0  0  0  0  0  0  0  0  0
   27.1325  -21.1627  -14.7219 C   0  0  0  0  0  0  0  0  0  0  0  0
   26.1470  -21.9251  -14.8741 O   0  0  0  0  0  0  0  0  0  0  0  0
   24.6837  -20.4088   -6.0721 O   0  0  0  0  0  0  0  0  0  0  0  0
   25.3333  -20.4599   -7.2972 C   0  0  0  0  0  0  0  0  0  0  0  0
   26.3380  -19.5851   -7.6267 C   0  0  0  0  0  0  0  0  0  0  0  0
   26.9659  -19.6582   -8.8502 C   0  0  0  0  0  0  0  0  0  0  0  0
   26.6224  -20.6131   -9.8141 C   0  0  0  0  0  0  0  0  0  0  0  0
   27.3220  -20.5836  -11.0884 C   0  0  0  0  0  0  0  0  0  0  0  0
   26.5363  -21.0665  -12.2721 C   0  0  2  0  0  0  0  0  0  0  0  0
   27.3738  -20.6482  -13.4336 N   0  0  0  0  0  0  0  0  0  0  0  0
   25.2684  -20.3266  -12.3868 C   0  0  0  0  0  0  0  0  0  0  0  0
   25.3257  -19.1775  -12.9651 O   0  0  0  0  0  0  0  0  0  0  0  0
   25.6160  -21.4708   -9.4529 C   0  0  0  0  0  0  0  0  0  0  0  0
   24.9867  -21.4038   -8.2374 C   0  0  0  0  0  0  0  0  0  0  0  0
   23.3687  -20.1249  -17.2445 C   0  0  0  0  0  0  0  0  0  0  0  0
   21.7734  -20.7069  -16.6040 S   0  0  0  0  0  0  0  0  0  0  0  0
   21.6992  -20.2252  -14.8450 C   0  0  0  0  0  0  0  0  0  0  0  0
   22.9141  -20.6576  -14.1031 C   0  0  0  0  0  0  0  0  0  0  0  0
   22.8127  -20.2698  -12.6369 C   0  0  2  0  0  0  0  0  0  0  0  0
   24.0005  -20.7552  -11.9332 N   0  0  0  0  0  0  0  0  0  0  0  0
   21.5675  -20.7851  -12.0397 C   0  0  0  0  0  0  0  0  0  0  0  0
   20.3844  -20.0339  -11.9791 O   0  0  0  0  0  0  0  0  0  0  0  0
   21.4576  -21.9423  -11.5314 O   0  0  0  0  0  0  0  0  0  0  0  0
  2  1  1  6
  2  3  1  0
  4  3  1  0
  5  2  1  0
  6  5  2  0
  8  7  1  0
  8  9  2  0
 10  9  1  0
 11 10  2  0
 13 12  1  1
 12 11  1  0
 13 14  1  0
 14  5  1  0
 15 24  1  0
 15 13  1  0
 16 15  2  0
 17 18  2  0
 17 11  1  0
 18  8  1  0
 20 19  1  0
 21 20  1  0
 22 21  1  0
 23 22  1  6
 23 24  1  0
 25 23  1  0
 25 26  1  0
 27 25  2  0
M  END
$$$$
