CYM.pdb
     RDKit          3D

 27 27  0  0  1  0  0  0  0  0999 V2000
   24.2400  -19.6899  -18.2830 N   0  0  0  0  0  0  0  0  0  0  0  0
   23.3521  -19.7219  -17.1528 C   0  0  1  0  0  0  0  0  0  0  0  0
   21.9947  -19.2132  -17.5844 C   0  0  0  0  0  0  0  0  0  0  0  0
   21.5018  -17.7440  -16.6445 S   0  0  0  0  0  0  0  0  0  0  0  0
   23.1935  -21.1096  -16.6388 C   0  0  0  0  0  0  0  0  0  0  0  0
   23.0145  -22.0864  -17.4067 O   0  0  0  0  0  0  0  0  0  0  0  0
   28.9720  -24.2369  -17.0716 O   0  0  0  0  0  0  0  0  0  0  0  0
   27.8696  -23.9051  -16.2970 C   0  0  0  0  0  0  0  0  0  0  0  0
   26.9161  -24.8297  -15.9520 C   0  0  0  0  0  0  0  0  0  0  0  0
   25.8315  -24.4730  -15.1819 C   0  0  0  0  0  0  0  0  0  0  0  0
   25.6405  -23.1680  -14.7133 C   0  0  0  0  0  0  0  0  0  0  0  0
   24.4438  -22.8865  -13.9370 C   0  0  0  0  0  0  0  0  0  0  0  0
   23.1740  -22.7543  -14.7257 C   0  0  2  0  0  0  0  0  0  0  0  0
   23.2418  -21.3611  -15.2543 N   0  0  0  0  0  0  0  0  0  0  0  0
   22.0042  -22.8030  -13.8327 C   0  0  0  0  0  0  0  0  0  0  0  0
   21.6897  -21.7040  -13.2398 O   0  0  0  0  0  0  0  0  0  0  0  0
   26.6108  -22.2702  -15.0757 C   0  0  0  0  0  0  0  0  0  0  0  0
   27.6926  -22.6181  -15.8417 C   0  0  0  0  0  0  0  0  0  0  0  0
   16.6771  -21.2339  -15.5030 C   0  0  0  0  0  0  0  0  0  0  0  0
   16.4162  -22.5597  -14.2914 S   0  0  0  0  0  0  0  0  0  0  0  0
   17.7812  -22.4528  -13.0842 C   0  0  0  0  0  0  0  0  0  0  0  0
   19.1018  -22.7041  -13.7215 C   0  0  0  0  0  0  0  0  0  0  0  0
   19.9010  -23.7160  -12.9166 C   0  0  2  0  0  0  0  0  0  0  0  0
   21.1930  -23.9298  -13.5698 N   0  0  0  0  0  0  0  0  0  0  0  0
   19.1491  -24.9734  -12.7541 C   0  0  0  0  0  0  0  0  0  0  0  0
   18.9489  -25.8818  -13.8040 O   0  0  0  0  0  0  0  0  0  0  0  0
   18.6206  -25.3405  -11.6608 O   0  0  0  0  0  0  0  0  0  0  0  0
  2  1  1  6
  2  3  1  0
  4  3  1  0
  5  2  1  0
  6  5  2  0
  8  7  1  0
  8  9  2  0
 10  9  1  0
 11 10  2  0
 13 12  1  1
 12 11  1  0
 13 14  1  0
 14  5  1  0
 15 24  1  0
 15 13  1  0
 16 15  2  0
 17 18  2  0
 17 11  1  0
 18  8  1  0
 20 19  1  0
 21 20  1  0
 22 21  1  0
 23 22  1  6
 23 24  1  0
 25 23  1  0
 25 26  1  0
 27 25  2  0
M  END
$$$$
