CYM.pdb
     RDKit          3D

 27 27  0  0  1  0  0  0  0  0999 V2000
   26.7299  -21.0949  -17.6206 N   0  0  0  0  0  0  0  0  0  0  0  0
   27.0347  -21.6245  -16.3193 C   0  0  1  0  0  0  0  0  0  0  0  0
   28.5152  -21.4571  -16.0592 C   0  0  0  0  0  0  0  0  0  0  0  0
   28.9904  -22.1297  -14.4448 S   0  0  0  0  0  0  0  0  0  0  0  0
   26.2849  -20.8975  -15.2590 C   0  0  0  0  0  0  0  0  0  0  0  0
   26.1902  -19.6458  -15.2513 O   0  0  0  0  0  0  0  0  0  0  0  0
   20.1696  -19.0120  -17.3088 O   0  0  0  0  0  0  0  0  0  0  0  0
   20.9821  -19.6066  -16.3539 C   0  0  0  0  0  0  0  0  0  0  0  0
   21.4864  -20.8730  -16.5123 C   0  0  0  0  0  0  0  0  0  0  0  0
   22.2905  -21.4393  -15.5483 C   0  0  0  0  0  0  0  0  0  0  0  0
   22.6353  -20.7681  -14.3695 C   0  0  0  0  0  0  0  0  0  0  0  0
   23.4614  -21.4676  -13.3986 C   0  0  0  0  0  0  0  0  0  0  0  0
   24.8376  -20.9062  -13.1923 C   0  0  2  0  0  0  0  0  0  0  0  0
   25.6539  -21.6117  -14.2225 N   0  0  0  0  0  0  0  0  0  0  0  0
   25.3730  -21.3192  -11.8843 C   0  0  0  0  0  0  0  0  0  0  0  0
   25.2017  -22.5532  -11.5587 O   0  0  0  0  0  0  0  0  0  0  0  0
   22.1153  -19.5061  -14.2433 C   0  0  0  0  0  0  0  0  0  0  0  0
   21.3145  -18.9364  -15.1983 C   0  0  0  0  0  0  0  0  0  0  0  0
   29.7629  -19.4536   -7.0989 C   0  0  0  0  0  0  0  0  0  0  0  0
   28.1109  -19.2347   -6.3796 S   0  0  0  0  0  0  0  0  0  0  0  0
   26.9723  -20.2993   -7.3294 C   0  0  0  0  0  0  0  0  0  0  0  0
   26.9725  -19.9539   -8.7764 C   0  0  0  0  0  0  0  0  0  0  0  0
   26.0917  -20.9160   -9.5568 C   0  0  2  0  0  0  0  0  0  0  0  0
   26.0588  -20.4999  -10.9594 N   0  0  0  0  0  0  0  0  0  0  0  0
   24.7413  -20.9891   -8.9703 C   0  0  0  0  0  0  0  0  0  0  0  0
   23.6605  -20.2353   -9.4513 O   0  0  0  0  0  0  0  0  0  0  0  0
   24.4408  -21.7324   -7.9871 O   0  0  0  0  0  0  0  0  0  0  0  0
  2  1  1  6
  2  3  1  0
  4  3  1  0
  5  2  1  0
  6  5  2  0
  8  7  1  0
  8  9  2  0
 10  9  1  0
 11 10  2  0
 13 12  1  1
 12 11  1  0
 13 14  1  0
 14  5  1  0
 15 24  1  0
 15 13  1  0
 16 15  2  0
 17 18  2  0
 17 11  1  0
 18  8  1  0
 20 19  1  0
 21 20  1  0
 22 21  1  0
 23 22  1  1
 23 24  1  0
 25 23  1  0
 25 26  1  0
 27 25  2  0
M  END
$$$$
