CYM.pdb
     RDKit          3D

 27 27  0  0  1  0  0  0  0  0999 V2000
   23.2872  -11.7285  -20.2398 N   0  0  0  0  0  0  0  0  0  0  0  0
   22.2663  -10.9673  -19.5726 C   0  0  1  0  0  0  0  0  0  0  0  0
   21.7995  -11.7375  -18.3575 C   0  0  0  0  0  0  0  0  0  0  0  0
   20.7621  -13.1500  -18.8193 S   0  0  0  0  0  0  0  0  0  0  0  0
   22.7924   -9.6501  -19.1221 C   0  0  0  0  0  0  0  0  0  0  0  0
   23.9987   -9.4854  -18.8166 O   0  0  0  0  0  0  0  0  0  0  0  0
   24.4887   -6.2674  -24.7300 O   0  0  0  0  0  0  0  0  0  0  0  0
   23.8607   -6.2771  -23.4927 C   0  0  0  0  0  0  0  0  0  0  0  0
   22.7388   -7.0292  -23.2504 C   0  0  0  0  0  0  0  0  0  0  0  0
   22.1354   -7.0201  -22.0124 C   0  0  0  0  0  0  0  0  0  0  0  0
   22.6226   -6.2559  -20.9458 C   0  0  0  0  0  0  0  0  0  0  0  0
   21.8921   -6.2885  -19.6890 C   0  0  0  0  0  0  0  0  0  0  0  0
   22.4528   -7.1978  -18.6352 C   0  0  2  0  0  0  0  0  0  0  0  0
   21.9319   -8.5396  -19.0272 N   0  0  0  0  0  0  0  0  0  0  0  0
   21.8627   -6.8912  -17.3214 C   0  0  0  0  0  0  0  0  0  0  0  0
   20.7093   -7.4086  -17.0764 O   0  0  0  0  0  0  0  0  0  0  0  0
   23.7438   -5.5171  -21.2216 C   0  0  0  0  0  0  0  0  0  0  0  0
   24.3493   -5.5213  -22.4509 C   0  0  0  0  0  0  0  0  0  0  0  0
   21.3259  -10.0226  -13.1187 C   0  0  0  0  0  0  0  0  0  0  0  0
   21.2968   -8.6362  -11.9478 S   0  0  0  0  0  0  0  0  0  0  0  0
   21.1486   -7.1088  -12.9362 C   0  0  0  0  0  0  0  0  0  0  0  0
   21.7939   -7.2498  -14.2692 C   0  0  0  0  0  0  0  0  0  0  0  0
   21.7097   -5.9458  -15.0456 C   0  0  2  0  0  0  0  0  0  0  0  0
   22.4385   -6.0947  -16.3060 N   0  0  0  0  0  0  0  0  0  0  0  0
   22.2191   -4.8197  -14.2425 C   0  0  0  0  0  0  0  0  0  0  0  0
   21.4866   -4.2371  -13.1976 O   0  0  0  0  0  0  0  0  0  0  0  0
   23.3538   -4.2823  -14.4248 O   0  0  0  0  0  0  0  0  0  0  0  0
  2  1  1  1
  2  3  1  0
  4  3  1  0
  5  2  1  0
  6  5  2  0
  8  7  1  0
  8  9  2  0
 10  9  1  0
 11 10  2  0
 13 12  1  6
 12 11  1  0
 13 14  1  0
 14  5  1  0
 15 24  1  0
 15 13  1  0
 16 15  2  0
 17 18  2  0
 17 11  1  0
 18  8  1  0
 20 19  1  0
 21 20  1  0
 22 21  1  0
 23 22  1  1
 23 24  1  0
 25 23  1  0
 25 26  1  0
 27 25  2  0
M  END
$$$$
