CYM.pdb
     RDKit          3D

 27 27  0  0  1  0  0  0  0  0999 V2000
   29.2260  -23.4746  -17.2707 N   0  0  0  0  0  0  0  0  0  0  0  0
   28.5767  -22.2463  -16.9012 C   0  0  1  0  0  0  0  0  0  0  0  0
   27.9173  -21.6553  -18.1273 C   0  0  0  0  0  0  0  0  0  0  0  0
   29.1354  -21.2178  -19.3960 S   0  0  0  0  0  0  0  0  0  0  0  0
   27.5287  -22.4862  -15.8720 C   0  0  0  0  0  0  0  0  0  0  0  0
   26.9252  -23.5831  -15.7810 O   0  0  0  0  0  0  0  0  0  0  0  0
   22.6736  -20.3131   -8.6895 O   0  0  0  0  0  0  0  0  0  0  0  0
   23.6101  -20.3880   -9.7106 C   0  0  0  0  0  0  0  0  0  0  0  0
   23.3321  -19.9679  -10.9871 C   0  0  0  0  0  0  0  0  0  0  0  0
   24.2806  -20.0538  -11.9819 C   0  0  0  0  0  0  0  0  0  0  0  0
   25.5630  -20.5662  -11.7538 C   0  0  0  0  0  0  0  0  0  0  0  0
   26.4795  -20.6468  -12.8798 C   0  0  0  0  0  0  0  0  0  0  0  0
   26.1664  -21.7039  -13.8977 C   0  0  2  0  0  0  0  0  0  0  0  0
   27.1854  -21.4686  -14.9614 N   0  0  0  0  0  0  0  0  0  0  0  0
   24.8544  -21.4519  -14.5169 C   0  0  0  0  0  0  0  0  0  0  0  0
   24.7943  -20.4766  -15.3555 O   0  0  0  0  0  0  0  0  0  0  0  0
   25.8074  -20.9763  -10.4689 C   0  0  0  0  0  0  0  0  0  0  0  0
   24.8684  -20.8939   -9.4742 C   0  0  0  0  0  0  0  0  0  0  0  0
   18.7211  -22.6565  -18.7080 C   0  0  0  0  0  0  0  0  0  0  0  0
   20.2527  -23.3307  -18.0054 S   0  0  0  0  0  0  0  0  0  0  0  0
   20.7496  -22.2171  -16.6472 C   0  0  0  0  0  0  0  0  0  0  0  0
   22.0152  -22.6623  -16.0043 C   0  0  0  0  0  0  0  0  0  0  0  0
   22.4285  -21.6938  -14.9081 C   0  0  2  0  0  0  0  0  0  0  0  0
   23.6629  -22.1764  -14.2875 N   0  0  0  0  0  0  0  0  0  0  0  0
   21.3463  -21.5192  -13.9226 C   0  0  0  0  0  0  0  0  0  0  0  0
   20.3177  -20.5786  -14.0803 O   0  0  0  0  0  0  0  0  0  0  0  0
   21.2516  -22.1970  -12.8545 O   0  0  0  0  0  0  0  0  0  0  0  0
  2  1  1  6
  2  3  1  0
  4  3  1  0
  5  2  1  0
  6  5  2  0
  8  7  1  0
  8  9  2  0
 10  9  1  0
 11 10  2  0
 13 12  1  1
 12 11  1  0
 13 14  1  0
 14  5  1  0
 15 24  1  0
 15 13  1  0
 16 15  2  0
 17 18  2  0
 17 11  1  0
 18  8  1  0
 20 19  1  0
 21 20  1  0
 22 21  1  0
 23 22  1  6
 23 24  1  0
 25 23  1  0
 25 26  1  0
 27 25  2  0
M  END
$$$$
