LDF.pdb
     RDKit          3D

 28 28  0  0  1  0  0  0  0  0999 V2000
   28.5288  -17.5363  -15.9854 C   0  0  0  0  0  0  0  0  0  0  0  0
   28.1594  -18.7538  -16.8188 C   0  0  2  0  0  0  0  0  0  0  0  0
   27.7418  -18.3386  -18.2127 C   0  0  0  0  0  0  0  0  0  0  0  0
   26.9615  -19.3903  -16.1553 C   0  0  0  0  0  0  0  0  0  0  0  0
   27.2581  -19.7619  -14.7112 C   0  0  2  0  0  0  0  0  0  0  0  0
   28.3963  -20.6646  -14.6137 N   0  0  0  0  0  0  0  0  0  0  0  0
   26.0715  -20.4541  -14.1849 C   0  0  0  0  0  0  0  0  0  0  0  0
   25.1770  -20.8023  -14.9889 O   0  0  0  0  0  0  0  0  0  0  0  0
   25.8832  -20.7529  -12.7935 N   0  0  0  0  0  0  0  0  0  0  0  0
   24.7154  -21.4417  -12.2890 C   0  0  1  0  0  0  0  0  0  0  0  0
   24.9062  -22.0367  -10.9228 C   0  0  0  0  0  0  0  0  0  0  0  0
   25.6673  -21.0790  -10.0913 C   0  0  0  0  0  0  0  0  0  0  0  0
   25.1871  -20.3668   -9.1779 O   0  0  0  0  0  0  0  0  0  0  0  0
   23.5486  -20.5714  -12.3964 C   0  0  0  0  0  0  0  0  0  0  0  0
   23.5531  -19.4436  -11.8739 O   0  0  0  0  0  0  0  0  0  0  0  0
   27.0416  -20.9373  -10.3242 O   0  0  0  0  0  0  0  0  0  0  0  0
   22.3885  -20.9979  -13.0994 N   0  0  0  0  0  0  0  0  0  0  0  0
   21.2002  -20.2052  -13.2142 C   0  0  1  0  0  0  0  0  0  0  0  0
   21.5559  -19.0099  -14.1088 C   0  0  0  0  0  0  0  0  0  0  0  0
   21.6897  -19.4404  -15.5231 C   0  0  0  0  0  0  0  0  0  0  0  0
   22.9090  -19.7211  -16.0967 C   0  0  0  0  0  0  0  0  0  0  0  0
   23.0087  -20.1216  -17.4206 C   0  0  0  0  0  0  0  0  0  0  0  0
   21.8783  -20.2465  -18.1915 C   0  0  0  0  0  0  0  0  0  0  0  0
   20.6487  -19.9713  -17.6398 C   0  0  0  0  0  0  0  0  0  0  0  0
   20.5658  -19.5705  -16.3095 C   0  0  0  0  0  0  0  0  0  0  0  0
   20.0790  -20.9614  -13.8071 C   0  0  0  0  0  0  0  0  0  0  0  0
   20.2681  -22.1114  -14.2447 O   0  0  0  0  0  0  0  0  0  0  0  0
   18.8162  -20.3975  -13.8792 O   0  0  0  0  0  0  0  0  0  0  0  0
  2  1  1  1
  3  2  1  0
  4  2  1  0
  5  4  1  0
  5  6  1  6
  7  8  2  0
  7  5  1  0
  9  7  1  0
 10  9  1  0
 10 11  1  1
 12 16  1  0
 12 11  1  0
 13 12  2  0
 14 15  2  0
 14 10  1  0
 17 14  1  0
 18 17  1  0
 18 19  1  6
 20 21  2  0
 20 19  1  0
 22 21  1  0
 23 22  2  0
 24 25  2  0
 24 23  1  0
 25 20  1  0
 26 18  1  0
 27 26  2  0
 28 26  1  0
M  END
$$$$
