LDF.pdb
     RDKit          3D

 28 28  0  0  1  0  0  0  0  0999 V2000
   22.7263  -15.6815  -18.3920 C   0  0  0  0  0  0  0  0  0  0  0  0
   22.4219  -14.9561  -19.6938 C   0  0  2  0  0  0  0  0  0  0  0  0
   23.4785  -15.2609  -20.7333 C   0  0  0  0  0  0  0  0  0  0  0  0
   22.4896  -13.4772  -19.3959 C   0  0  0  0  0  0  0  0  0  0  0  0
   21.4546  -13.0711  -18.3589 C   0  0  2  0  0  0  0  0  0  0  0  0
   20.1068  -13.4263  -18.7802 N   0  0  0  0  0  0  0  0  0  0  0  0
   21.5258  -11.6084  -18.2190 C   0  0  0  0  0  0  0  0  0  0  0  0
   22.6156  -11.0927  -17.8809 O   0  0  0  0  0  0  0  0  0  0  0  0
   20.4087  -10.7371  -18.4503 N   0  0  0  0  0  0  0  0  0  0  0  0
   20.5181   -9.2949  -18.4211 C   0  0  1  0  0  0  0  0  0  0  0  0
   19.5312   -8.5946  -19.3113 C   0  0  0  0  0  0  0  0  0  0  0  0
   19.8330   -7.1466  -19.3059 C   0  0  0  0  0  0  0  0  0  0  0  0
   20.7990   -6.6069  -18.7160 O   0  0  0  0  0  0  0  0  0  0  0  0
   20.4993   -8.8298  -17.0378 C   0  0  0  0  0  0  0  0  0  0  0  0
   19.4949   -9.0059  -16.3270 O   0  0  0  0  0  0  0  0  0  0  0  0
   18.9834   -6.2845  -20.0116 O   0  0  0  0  0  0  0  0  0  0  0  0
   21.6278   -8.1683  -16.4802 N   0  0  0  0  0  0  0  0  0  0  0  0
   21.6276   -7.5714  -15.1774 C   0  0  1  0  0  0  0  0  0  0  0  0
   22.4599   -8.4914  -14.2740 C   0  0  0  0  0  0  0  0  0  0  0  0
   23.6786   -8.9539  -14.9841 C   0  0  0  0  0  0  0  0  0  0  0  0
   24.1108  -10.2598  -14.9343 C   0  0  0  0  0  0  0  0  0  0  0  0
   25.2529  -10.6681  -15.6064 C   0  0  0  0  0  0  0  0  0  0  0  0
   25.9814   -9.7651  -16.3423 C   0  0  0  0  0  0  0  0  0  0  0  0
   25.5688   -8.4545  -16.4067 C   0  0  0  0  0  0  0  0  0  0  0  0
   24.4202   -8.0608  -15.7264 C   0  0  0  0  0  0  0  0  0  0  0  0
   22.2082   -6.2137  -15.1846 C   0  0  0  0  0  0  0  0  0  0  0  0
   22.2063   -5.5317  -14.1431 O   0  0  0  0  0  0  0  0  0  0  0  0
   22.7558   -5.6939  -16.3456 O   0  0  0  0  0  0  0  0  0  0  0  0
  2  1  1  1
  3  2  1  0
  4  2  1  0
  5  4  1  0
  5  6  1  6
  7  8  2  0
  7  5  1  0
  9  7  1  0
 10  9  1  0
 10 11  1  6
 12 16  1  0
 12 11  1  0
 13 12  2  0
 14 15  2  0
 14 10  1  0
 17 14  1  0
 18 17  1  0
 18 19  1  1
 20 21  2  0
 20 19  1  0
 22 21  1  0
 23 22  2  0
 24 25  2  0
 24 23  1  0
 25 20  1  0
 26 18  1  0
 27 26  2  0
 28 26  1  0
M  END
$$$$
