LDF.pdb
     RDKit          3D

 28 28  0  0  1  0  0  0  0  0999 V2000
   18.6209  -20.2885  -11.1343 C   0  0  0  0  0  0  0  0  0  0  0  0
   20.1185  -20.4215  -10.9045 C   0  0  2  0  0  0  0  0  0  0  0  0
   20.5323  -19.6858   -9.6485 C   0  0  0  0  0  0  0  0  0  0  0  0
   20.8010  -19.7491  -12.0717 C   0  0  0  0  0  0  0  0  0  0  0  0
   20.4300  -20.4110  -13.3892 C   0  0  2  0  0  0  0  0  0  0  0  0
   19.9050  -21.7537  -13.1845 N   0  0  0  0  0  0  0  0  0  0  0  0
   21.6598  -20.5115  -14.1901 C   0  0  0  0  0  0  0  0  0  0  0  0
   22.2938  -21.5912  -14.1789 O   0  0  0  0  0  0  0  0  0  0  0  0
   22.1742  -19.4340  -14.9869 N   0  0  0  0  0  0  0  0  0  0  0  0
   23.3555  -19.5616  -15.8122 C   0  0  1  0  0  0  0  0  0  0  0  0
   23.2799  -18.7933  -17.1009 C   0  0  0  0  0  0  0  0  0  0  0  0
   22.0897  -19.2462  -17.8532 C   0  0  0  0  0  0  0  0  0  0  0  0
   21.1861  -18.5019  -18.3023 O   0  0  0  0  0  0  0  0  0  0  0  0
   24.5432  -19.2659  -15.0170 C   0  0  0  0  0  0  0  0  0  0  0  0
   24.6654  -18.1656  -14.4517 O   0  0  0  0  0  0  0  0  0  0  0  0
   21.9359  -20.6172  -18.0976 O   0  0  0  0  0  0  0  0  0  0  0  0
   25.5791  -20.2295  -14.8755 N   0  0  0  0  0  0  0  0  0  0  0  0
   26.8003  -19.9765  -14.1696 C   0  0  1  0  0  0  0  0  0  0  0  0
   26.9767  -21.1295  -13.1723 C   0  0  0  0  0  0  0  0  0  0  0  0
   26.1258  -20.9162  -11.9748 C   0  0  0  0  0  0  0  0  0  0  0  0
   24.7552  -21.0385  -12.0121 C   0  0  0  0  0  0  0  0  0  0  0  0
   23.9813  -20.8341  -10.8798 C   0  0  0  0  0  0  0  0  0  0  0  0
   24.5766  -20.5020   -9.6869 C   0  0  0  0  0  0  0  0  0  0  0  0
   25.9448  -20.3741   -9.6254 C   0  0  0  0  0  0  0  0  0  0  0  0
   26.7073  -20.5826  -10.7709 C   0  0  0  0  0  0  0  0  0  0  0  0
   27.9655  -19.9109  -15.0743 C   0  0  0  0  0  0  0  0  0  0  0  0
   27.8983  -20.4137  -16.2111 O   0  0  0  0  0  0  0  0  0  0  0  0
   29.1346  -19.2920  -14.6644 O   0  0  0  0  0  0  0  0  0  0  0  0
  2  1  1  6
  3  2  1  0
  4  2  1  0
  5  4  1  0
  5  6  1  1
  7  8  2  0
  7  5  1  0
  9  7  1  0
 10  9  1  0
 10 11  1  6
 12 16  1  0
 12 11  1  0
 13 12  2  0
 14 15  2  0
 14 10  1  0
 17 14  1  0
 18 17  1  0
 18 19  1  1
 20 21  2  0
 20 19  1  0
 22 21  1  0
 23 22  2  0
 24 25  2  0
 24 23  1  0
 25 20  1  0
 26 18  1  0
 27 26  2  0
 28 26  1  0
M  END
$$$$
