LDF.pdb
     RDKit          3D

 28 28  0  0  1  0  0  0  0  0999 V2000
   15.9345  -14.8095  -15.8048 C   0  0  0  0  0  0  0  0  0  0  0  0
   17.3466  -14.8285  -16.3696 C   0  0  2  0  0  0  0  0  0  0  0  0
   18.3360  -15.2762  -15.3157 C   0  0  0  0  0  0  0  0  0  0  0  0
   17.6884  -13.4049  -16.7393 C   0  0  0  0  0  0  0  0  0  0  0  0
   16.9309  -12.9552  -17.9785 C   0  0  2  0  0  0  0  0  0  0  0  0
   17.3482  -13.6973  -19.1597 N   0  0  0  0  0  0  0  0  0  0  0  0
   17.2432  -11.5334  -18.1904 C   0  0  0  0  0  0  0  0  0  0  0  0
   18.2909  -11.2373  -18.8089 O   0  0  0  0  0  0  0  0  0  0  0  0
   16.4080  -10.4629  -17.7243 N   0  0  0  0  0  0  0  0  0  0  0  0
   16.7122   -9.0687  -17.9619 C   0  0  1  0  0  0  0  0  0  0  0  0
   15.5496   -8.2763  -18.4884 C   0  0  0  0  0  0  0  0  0  0  0  0
   16.0172   -6.9128  -18.8201 C   0  0  0  0  0  0  0  0  0  0  0  0
   17.0223   -6.6379  -19.5176 O   0  0  0  0  0  0  0  0  0  0  0  0
   17.3295   -8.4919  -16.7717 C   0  0  0  0  0  0  0  0  0  0  0  0
   16.8389   -8.6921  -15.6472 O   0  0  0  0  0  0  0  0  0  0  0  0
   15.2936   -5.8197  -18.3256 O   0  0  0  0  0  0  0  0  0  0  0  0
   18.5005   -7.6924  -16.8776 N   0  0  0  0  0  0  0  0  0  0  0  0
   19.1409   -7.0790  -15.7518 C   0  0  1  0  0  0  0  0  0  0  0  0
   20.6519   -7.2442  -15.9638 C   0  0  0  0  0  0  0  0  0  0  0  0
   21.4056   -6.6010  -14.8584 C   0  0  0  0  0  0  0  0  0  0  0  0
   21.8924   -5.3165  -14.9469 C   0  0  0  0  0  0  0  0  0  0  0  0
   22.5939   -4.7370  -13.9005 C   0  0  0  0  0  0  0  0  0  0  0  0
   22.8177   -5.4437  -12.7437 C   0  0  0  0  0  0  0  0  0  0  0  0
   22.3407   -6.7291  -12.6324 C   0  0  0  0  0  0  0  0  0  0  0  0
   21.6384   -7.2962  -13.6918 C   0  0  0  0  0  0  0  0  0  0  0  0
   18.8035   -5.6467  -15.6289 C   0  0  0  0  0  0  0  0  0  0  0  0
   18.4454   -5.0045  -16.6334 O   0  0  0  0  0  0  0  0  0  0  0  0
   18.8834   -5.0128  -14.4002 O   0  0  0  0  0  0  0  0  0  0  0  0
  2  1  1  1
  3  2  1  0
  4  2  1  0
  5  4  1  0
  5  6  1  6
  7  8  2  0
  7  5  1  0
  9  7  1  0
 10  9  1  0
 10 11  1  1
 12 16  1  0
 12 11  1  0
 13 12  2  0
 14 15  2  0
 14 10  1  0
 17 14  1  0
 18 17  1  0
 18 19  1  6
 20 21  2  0
 20 19  1  0
 22 21  1  0
 23 22  2  0
 24 25  2  0
 24 23  1  0
 25 20  1  0
 26 18  1  0
 27 26  2  0
 28 26  1  0
M  END
$$$$
