LDF.pdb
     RDKit          3D

 28 28  0  0  1  0  0  0  0  0999 V2000
   28.7313  -18.0576  -17.1872 C   0  0  0  0  0  0  0  0  0  0  0  0
   27.9380  -17.0892  -16.3233 C   0  0  2  0  0  0  0  0  0  0  0  0
   28.4295  -15.6720  -16.5225 C   0  0  0  0  0  0  0  0  0  0  0  0
   28.2057  -17.4662  -14.8858 C   0  0  0  0  0  0  0  0  0  0  0  0
   27.7613  -18.8902  -14.5925 C   0  0  2  0  0  0  0  0  0  0  0  0
   26.9532  -19.4326  -15.6756 N   0  0  0  0  0  0  0  0  0  0  0  0
   26.9366  -18.8493  -13.3749 C   0  0  0  0  0  0  0  0  0  0  0  0
   26.2824  -17.8100  -13.1308 O   0  0  0  0  0  0  0  0  0  0  0  0
   26.8413  -19.9412  -12.4480 N   0  0  0  0  0  0  0  0  0  0  0  0
   25.7674  -20.0641  -11.4866 C   0  0  1  0  0  0  0  0  0  0  0  0
   24.4572  -20.4810  -12.0920 C   0  0  0  0  0  0  0  0  0  0  0  0
   23.4186  -20.4524  -11.0393 C   0  0  0  0  0  0  0  0  0  0  0  0
   23.2096  -19.5016  -10.2491 O   0  0  0  0  0  0  0  0  0  0  0  0
   26.1986  -20.9058  -10.3749 C   0  0  0  0  0  0  0  0  0  0  0  0
   26.5005  -22.0964  -10.5658 O   0  0  0  0  0  0  0  0  0  0  0  0
   22.5856  -21.5693  -10.8923 O   0  0  0  0  0  0  0  0  0  0  0  0
   26.2808  -20.3794   -9.0566 N   0  0  0  0  0  0  0  0  0  0  0  0
   26.7261  -21.1433   -7.9289 C   0  0  1  0  0  0  0  0  0  0  0  0
   28.1654  -20.6971   -7.6383 C   0  0  0  0  0  0  0  0  0  0  0  0
   28.2973  -20.2516   -6.2284 C   0  0  0  0  0  0  0  0  0  0  0  0
   28.0372  -18.9581   -5.8359 C   0  0  0  0  0  0  0  0  0  0  0  0
   28.1676  -18.5655   -4.5124 C   0  0  0  0  0  0  0  0  0  0  0  0
   28.5634  -19.4720   -3.5588 C   0  0  0  0  0  0  0  0  0  0  0  0
   28.8288  -20.7703   -3.9275 C   0  0  0  0  0  0  0  0  0  0  0  0
   28.6932  -21.1483   -5.2601 C   0  0  0  0  0  0  0  0  0  0  0  0
   25.8813  -20.9253   -6.7375 C   0  0  0  0  0  0  0  0  0  0  0  0
   25.9810  -21.6868   -5.7577 O   0  0  0  0  0  0  0  0  0  0  0  0
   24.9774  -19.8767   -6.7040 O   0  0  0  0  0  0  0  0  0  0  0  0
  2  1  1  6
  3  2  1  0
  4  2  1  0
  5  4  1  0
  5  6  1  6
  7  8  2  0
  7  5  1  0
  9  7  1  0
 10  9  1  0
 10 11  1  6
 12 16  1  0
 12 11  1  0
 13 12  2  0
 14 15  2  0
 14 10  1  0
 17 14  1  0
 18 17  1  0
 18 19  1  1
 20 21  2  0
 20 19  1  0
 22 21  1  0
 23 22  2  0
 24 25  2  0
 24 23  1  0
 25 20  1  0
 26 18  1  0
 27 26  2  0
 28 26  1  0
M  END
$$$$
