LDF.pdb
     RDKit          3D

 28 28  0  0  1  0  0  0  0  0999 V2000
   28.7142  -17.1687  -16.4561 C   0  0  0  0  0  0  0  0  0  0  0  0
   27.3714  -16.5886  -16.0393 C   0  0  2  0  0  0  0  0  0  0  0  0
   27.4463  -15.0797  -15.9536 C   0  0  0  0  0  0  0  0  0  0  0  0
   27.0823  -17.1096  -14.6517 C   0  0  0  0  0  0  0  0  0  0  0  0
   27.0711  -18.6296  -14.6197 C   0  0  2  0  0  0  0  0  0  0  0  0
   26.4614  -19.1858  -15.8193 N   0  0  0  0  0  0  0  0  0  0  0  0
   26.2648  -19.0370  -13.4587 C   0  0  0  0  0  0  0  0  0  0  0  0
   25.5931  -18.1649  -12.8619 O   0  0  0  0  0  0  0  0  0  0  0  0
   26.2065  -20.3859  -12.9713 N   0  0  0  0  0  0  0  0  0  0  0  0
   25.3730  -20.7834  -11.8577 C   0  0  1  0  0  0  0  0  0  0  0  0
   24.4819  -21.9555  -12.1562 C   0  0  0  0  0  0  0  0  0  0  0  0
   25.2199  -22.9040  -13.0184 C   0  0  0  0  0  0  0  0  0  0  0  0
   25.9447  -22.5895  -13.9921 O   0  0  0  0  0  0  0  0  0  0  0  0
   26.1974  -20.9569  -10.6658 C   0  0  0  0  0  0  0  0  0  0  0  0
   27.3863  -21.3055  -10.7669 O   0  0  0  0  0  0  0  0  0  0  0  0
   25.1169  -24.2742  -12.7451 O   0  0  0  0  0  0  0  0  0  0  0  0
   25.6560  -20.7304   -9.3707 N   0  0  0  0  0  0  0  0  0  0  0  0
   26.3866  -20.9598   -8.1594 C   0  0  1  0  0  0  0  0  0  0  0  0
   27.2601  -19.7184   -7.9330 C   0  0  0  0  0  0  0  0  0  0  0  0
   27.9562  -19.8038   -6.6247 C   0  0  0  0  0  0  0  0  0  0  0  0
   29.0105  -20.6611   -6.4044 C   0  0  0  0  0  0  0  0  0  0  0  0
   29.6450  -20.7230   -5.1730 C   0  0  0  0  0  0  0  0  0  0  0  0
   29.2271  -19.9201   -4.1393 C   0  0  0  0  0  0  0  0  0  0  0  0
   28.1755  -19.0555   -4.3361 C   0  0  0  0  0  0  0  0  0  0  0  0
   27.5494  -19.0054   -5.5780 C   0  0  0  0  0  0  0  0  0  0  0  0
   25.4958  -21.1667   -7.0000 C   0  0  0  0  0  0  0  0  0  0  0  0
   25.9517  -21.6415   -5.9434 O   0  0  0  0  0  0  0  0  0  0  0  0
   24.1538  -20.8348   -7.0817 O   0  0  0  0  0  0  0  0  0  0  0  0
  2  1  1  1
  3  2  1  0
  4  2  1  0
  5  4  1  0
  5  6  1  6
  7  8  2  0
  7  5  1  0
  9  7  1  0
 10  9  1  0
 10 11  1  6
 12 16  1  0
 12 11  1  0
 13 12  2  0
 14 15  2  0
 14 10  1  0
 17 14  1  0
 18 17  1  0
 18 19  1  1
 20 21  2  0
 20 19  1  0
 22 21  1  0
 23 22  2  0
 24 25  2  0
 24 23  1  0
 25 20  1  0
 26 18  1  0
 27 26  2  0
 28 26  1  0
M  END
$$$$
