FNH.pdb
     RDKit          3D

 30 31  0  0  1  0  0  0  0  0999 V2000
   23.1863  -10.5998  -14.7237 N   0  0  0  0  0  0  0  0  0  0  0  0
   22.6027   -9.7349  -15.7620 C   0  0  1  0  0  0  0  0  0  0  0  0
   21.4186  -10.5260  -16.2986 C   0  0  0  0  0  0  0  0  0  0  0  0
   21.8150  -11.7248  -17.0604 C   0  0  0  0  0  0  0  0  0  0  0  0
   22.4359  -11.6270  -18.2757 C   0  0  0  0  0  0  0  0  0  0  0  0
   22.8014  -12.7877  -18.9642 C   0  0  0  0  0  0  0  0  0  0  0  0
   22.5194  -14.0076  -18.3871 C   0  0  0  0  0  0  0  0  0  0  0  0
   21.8983  -14.1222  -17.1717 C   0  0  0  0  0  0  0  0  0  0  0  0
   21.5407  -12.9700  -16.4980 C   0  0  0  0  0  0  0  0  0  0  0  0
   22.1437   -8.4543  -15.1712 C   0  0  0  0  0  0  0  0  0  0  0  0
   21.6034   -8.4350  -14.0365 O   0  0  0  0  0  0  0  0  0  0  0  0
   21.0447   -3.4491  -14.4632 N   0  0  0  0  0  0  0  0  0  0  0  0
   22.3893   -3.5568  -14.9059 C   0  0  0  0  0  0  0  0  0  0  0  0
   23.1266   -2.5590  -14.7954 O   0  0  0  0  0  0  0  0  0  0  0  0
   22.8327   -4.8328  -15.4665 C   0  0  0  0  0  0  0  0  0  0  0  0
   21.8405   -5.9517  -15.3689 C   0  0  2  0  0  0  0  0  0  0  0  0
   22.3028   -7.2141  -15.8734 N   0  0  0  0  0  0  0  0  0  0  0  0
   20.4766   -5.5956  -15.8296 C   0  0  0  0  0  0  0  0  0  0  0  0
   20.1249   -5.6844  -17.0353 O   0  0  0  0  0  0  0  0  0  0  0  0
   19.4464   -5.1176  -14.9383 N   0  0  0  0  0  0  0  0  0  0  0  0
   18.0861   -4.9356  -15.3958 C   0  0  1  0  0  0  0  0  0  0  0  0
   17.3518   -6.2455  -15.3987 C   0  0  0  0  0  0  0  0  0  0  0  0
   15.9324   -6.1354  -15.8015 C   0  0  0  0  0  0  0  0  0  0  0  0
   15.2719   -4.9786  -16.1663 C   0  0  0  0  0  0  0  0  0  0  0  0
   14.0030   -5.2611  -16.4640 N   0  0  0  0  0  0  0  0  0  0  0  0
   13.8431   -6.5823  -16.2945 C   0  0  0  0  0  0  0  0  0  0  0  0
   15.0168   -7.1123  -15.8919 N   0  0  0  0  0  0  0  0  0  0  0  0
   17.3720   -3.9098  -14.5847 C   0  0  0  0  0  0  0  0  0  0  0  0
   16.3685   -3.0996  -15.0742 O   0  0  0  0  0  0  0  0  0  0  0  0
   17.7031   -3.7730  -13.3796 O   0  0  0  0  0  0  0  0  0  0  0  0
  2  1  1  1
  3  2  1  0
  3  4  1  0
  4  9  1  0
  4  5  2  0
  5  6  1  0
  6  7  2  0
  8  7  1  0
  9  8  2  0
 10  2  1  0
 11 10  2  0
 13 15  1  0
 13 12  1  0
 14 13  2  0
 16 15  1  6
 16 17  1  0
 17 10  1  0
 18 16  1  0
 19 18  2  0
 20 18  1  0
 21 28  1  0
 21 20  1  0
 21 22  1  1
 22 23  1  0
 23 27  1  0
 23 24  2  0
 24 25  1  0
 26 25  1  0
 27 26  2  0
 28 29  1  0
 30 28  2  0
M  END
$$$$
