FNH.pdb
     RDKit          3D

 30 31  0  0  1  0  0  0  0  0999 V2000
   28.4661  -21.0641   -9.2890 N   0  0  0  0  0  0  0  0  0  0  0  0
   26.9991  -20.9513   -9.3333 C   0  0  1  0  0  0  0  0  0  0  0  0
   26.6768  -19.7822   -8.4139 C   0  0  0  0  0  0  0  0  0  0  0  0
   27.1683  -19.9707   -7.0364 C   0  0  0  0  0  0  0  0  0  0  0  0
   26.5476  -20.8247   -6.1661 C   0  0  0  0  0  0  0  0  0  0  0  0
   27.0481  -20.9801   -4.8699 C   0  0  0  0  0  0  0  0  0  0  0  0
   28.1651  -20.2574   -4.5081 C   0  0  0  0  0  0  0  0  0  0  0  0
   28.7975  -19.3985   -5.3674 C   0  0  0  0  0  0  0  0  0  0  0  0
   28.2962  -19.2510   -6.6466 C   0  0  0  0  0  0  0  0  0  0  0  0
   26.5436  -20.6630  -10.7150 C   0  0  0  0  0  0  0  0  0  0  0  0
   26.7991  -19.5551  -11.2506 O   0  0  0  0  0  0  0  0  0  0  0  0
   27.7968  -20.5074  -13.8452 N   0  0  0  0  0  0  0  0  0  0  0  0
   27.3862  -21.7993  -14.2666 C   0  0  0  0  0  0  0  0  0  0  0  0
   28.1658  -22.4619  -14.9769 O   0  0  0  0  0  0  0  0  0  0  0  0
   26.0712  -22.2794  -13.8429 C   0  0  0  0  0  0  0  0  0  0  0  0
   25.3776  -21.4254  -12.8252 C   0  0  2  0  0  0  0  0  0  0  0  0
   25.8055  -21.6331  -11.4704 N   0  0  0  0  0  0  0  0  0  0  0  0
   23.9033  -21.3757  -12.9776 C   0  0  0  0  0  0  0  0  0  0  0  0
   23.1408  -22.2380  -12.4675 O   0  0  0  0  0  0  0  0  0  0  0  0
   23.2252  -20.3412  -13.7221 N   0  0  0  0  0  0  0  0  0  0  0  0
   21.8048  -20.4175  -13.9857 C   0  0  1  0  0  0  0  0  0  0  0  0
   21.0359  -19.6390  -12.9572 C   0  0  0  0  0  0  0  0  0  0  0  0
   20.5113  -20.4667  -11.8485 C   0  0  0  0  0  0  0  0  0  0  0  0
   20.6482  -21.8342  -11.7116 C   0  0  0  0  0  0  0  0  0  0  0  0
   20.0470  -22.2355  -10.5909 N   0  0  0  0  0  0  0  0  0  0  0  0
   19.5277  -21.1436  -10.0095 C   0  0  0  0  0  0  0  0  0  0  0  0
   19.8108  -20.0693  -10.7752 N   0  0  0  0  0  0  0  0  0  0  0  0
   21.4828  -19.9644  -15.3682 C   0  0  0  0  0  0  0  0  0  0  0  0
   21.8181  -18.7249  -15.8723 O   0  0  0  0  0  0  0  0  0  0  0  0
   20.8676  -20.7596  -16.1230 O   0  0  0  0  0  0  0  0  0  0  0  0
  2  1  1  6
  3  2  1  0
  3  4  1  0
  4  9  1  0
  4  5  2  0
  5  6  1  0
  6  7  2  0
  8  7  1  0
  9  8  2  0
 10  2  1  0
 11 10  2  0
 13 15  1  0
 13 12  1  0
 14 13  2  0
 16 15  1  6
 16 17  1  0
 17 10  1  0
 18 16  1  0
 19 18  2  0
 20 18  1  0
 21 28  1  0
 21 20  1  0
 21 22  1  1
 22 23  1  0
 23 27  1  0
 23 24  2  0
 24 25  1  0
 26 25  1  0
 27 26  2  0
 28 29  1  0
 30 28  2  0
M  END
$$$$
