FNH.pdb
     RDKit          3D

 30 31  0  0  1  0  0  0  0  0999 V2000
   18.5656  -11.5502  -17.8177 N   0  0  0  0  0  0  0  0  0  0  0  0
   19.4317  -10.5094  -18.3951 C   0  0  1  0  0  0  0  0  0  0  0  0
   18.8362  -10.2338  -19.7682 C   0  0  0  0  0  0  0  0  0  0  0  0
   18.9634  -11.3710  -20.6983 C   0  0  0  0  0  0  0  0  0  0  0  0
   17.8651  -11.9574  -21.2655 C   0  0  0  0  0  0  0  0  0  0  0  0
   18.0282  -13.0301  -22.1474 C   0  0  0  0  0  0  0  0  0  0  0  0
   19.3076  -13.4662  -22.4187 C   0  0  0  0  0  0  0  0  0  0  0  0
   20.4171  -12.8899  -21.8589 C   0  0  0  0  0  0  0  0  0  0  0  0
   20.2467  -11.8303  -20.9885 C   0  0  0  0  0  0  0  0  0  0  0  0
   19.3953   -9.2839  -17.5605 C   0  0  0  0  0  0  0  0  0  0  0  0
   18.3094   -8.6841  -17.3588 O   0  0  0  0  0  0  0  0  0  0  0  0
   19.8063   -9.1660  -14.0145 N   0  0  0  0  0  0  0  0  0  0  0  0
   21.0718   -8.5369  -13.8805 C   0  0  0  0  0  0  0  0  0  0  0  0
   21.7361   -8.7649  -12.8519 O   0  0  0  0  0  0  0  0  0  0  0  0
   21.5241   -7.6568  -14.9575 C   0  0  0  0  0  0  0  0  0  0  0  0
   20.6111   -7.5787  -16.1435 C   0  0  2  0  0  0  0  0  0  0  0  0
   20.5886   -8.7552  -16.9664 N   0  0  0  0  0  0  0  0  0  0  0  0
   20.7278   -6.3192  -16.9176 C   0  0  0  0  0  0  0  0  0  0  0  0
   21.6873   -6.0924  -17.7006 O   0  0  0  0  0  0  0  0  0  0  0  0
   19.7569   -5.2539  -16.8350 N   0  0  0  0  0  0  0  0  0  0  0  0
   19.9097   -4.0404  -17.6076 C   0  0  1  0  0  0  0  0  0  0  0  0
   19.1682   -4.1479  -18.9090 C   0  0  0  0  0  0  0  0  0  0  0  0
   19.2400   -2.9269  -19.7417 C   0  0  0  0  0  0  0  0  0  0  0  0
   20.3397   -2.1063  -19.8990 C   0  0  0  0  0  0  0  0  0  0  0  0
   20.0359   -1.1014  -20.7215 N   0  0  0  0  0  0  0  0  0  0  0  0
   18.7574   -1.2682  -21.0920 C   0  0  0  0  0  0  0  0  0  0  0  0
   18.2750   -2.3783  -20.4957 N   0  0  0  0  0  0  0  0  0  0  0  0
   19.4809   -2.8433  -16.8308 C   0  0  0  0  0  0  0  0  0  0  0  0
   18.3933   -2.8220  -15.9826 O   0  0  0  0  0  0  0  0  0  0  0  0
   20.1507   -1.7866  -16.9551 O   0  0  0  0  0  0  0  0  0  0  0  0
  2  1  1  1
  3  2  1  0
  3  4  1  0
  4  9  1  0
  4  5  2  0
  5  6  1  0
  6  7  2  0
  8  7  1  0
  9  8  2  0
 10  2  1  0
 11 10  2  0
 13 15  1  0
 13 12  1  0
 14 13  2  0
 16 15  1  1
 16 17  1  0
 17 10  1  0
 18 16  1  0
 19 18  2  0
 20 18  1  0
 21 28  1  0
 21 20  1  0
 21 22  1  6
 22 23  1  0
 23 27  1  0
 23 24  2  0
 24 25  1  0
 26 25  1  0
 27 26  2  0
 28 29  1  0
 30 28  2  0
M  END
$$$$
