FNH.pdb
     RDKit          3D

 30 31  0  0  1  0  0  0  0  0999 V2000
   22.7821  -10.2713  -16.7916 N   0  0  0  0  0  0  0  0  0  0  0  0
   22.5472   -9.5673  -15.5204 C   0  0  1  0  0  0  0  0  0  0  0  0
   23.6777   -8.5525  -15.4300 C   0  0  0  0  0  0  0  0  0  0  0  0
   25.0169   -9.1698  -15.4272 C   0  0  0  0  0  0  0  0  0  0  0  0
   25.3319  -10.1912  -14.5730 C   0  0  0  0  0  0  0  0  0  0  0  0
   26.6114  -10.7540  -14.6054 C   0  0  0  0  0  0  0  0  0  0  0  0
   27.5242  -10.2536  -15.5092 C   0  0  0  0  0  0  0  0  0  0  0  0
   27.2245   -9.2316  -16.3706 C   0  0  0  0  0  0  0  0  0  0  0  0
   25.9576   -8.6813  -16.3318 C   0  0  0  0  0  0  0  0  0  0  0  0
   21.2344   -8.8776  -15.5455 C   0  0  0  0  0  0  0  0  0  0  0  0
   20.5748   -8.8046  -16.6128 O   0  0  0  0  0  0  0  0  0  0  0  0
   18.4359  -10.2199  -13.8856 N   0  0  0  0  0  0  0  0  0  0  0  0
   18.1165   -9.2601  -12.8895 C   0  0  0  0  0  0  0  0  0  0  0  0
   17.4195   -9.6244  -11.9236 O   0  0  0  0  0  0  0  0  0  0  0  0
   18.6235   -7.8981  -13.0537 C   0  0  0  0  0  0  0  0  0  0  0  0
   19.3968   -7.6528  -14.3138 C   0  0  2  0  0  0  0  0  0  0  0  0
   20.6873   -8.2805  -14.3619 N   0  0  0  0  0  0  0  0  0  0  0  0
   19.4132   -6.2355  -14.7498 C   0  0  0  0  0  0  0  0  0  0  0  0
   20.1642   -5.3736  -14.2219 O   0  0  0  0  0  0  0  0  0  0  0  0
   18.5717   -5.7296  -15.8082 N   0  0  0  0  0  0  0  0  0  0  0  0
   18.7067   -4.3713  -16.2873 C   0  0  1  0  0  0  0  0  0  0  0  0
   18.8135   -4.3494  -17.7850 C   0  0  0  0  0  0  0  0  0  0  0  0
   20.0841   -4.9031  -18.3029 C   0  0  0  0  0  0  0  0  0  0  0  0
   21.3526   -4.6154  -17.8384 C   0  0  0  0  0  0  0  0  0  0  0  0
   22.2548   -5.2973  -18.5453 N   0  0  0  0  0  0  0  0  0  0  0  0
   21.5808   -6.0169  -19.4550 C   0  0  0  0  0  0  0  0  0  0  0  0
   20.2614   -5.7762  -19.3064 N   0  0  0  0  0  0  0  0  0  0  0  0
   17.5894   -3.5109  -15.8058 C   0  0  0  0  0  0  0  0  0  0  0  0
   17.6208   -2.1318  -15.8076 O   0  0  0  0  0  0  0  0  0  0  0  0
   16.5535   -4.0752  -15.3709 O   0  0  0  0  0  0  0  0  0  0  0  0
  2  1  1  6
  3  2  1  0
  3  4  1  0
  4  9  1  0
  4  5  2  0
  5  6  1  0
  6  7  2  0
  8  7  1  0
  9  8  2  0
 10  2  1  0
 11 10  2  0
 13 15  1  0
 13 12  1  0
 14 13  2  0
 16 15  1  1
 16 17  1  0
 17 10  1  0
 18 16  1  0
 19 18  2  0
 20 18  1  0
 21 28  1  0
 21 20  1  0
 21 22  1  6
 22 23  1  0
 23 27  1  0
 23 24  2  0
 24 25  1  0
 26 25  1  0
 27 26  2  0
 28 29  1  0
 30 28  2  0
M  END
$$$$
