FNH.pdb
     RDKit          3D

 30 31  0  0  1  0  0  0  0  0999 V2000
   25.5481  -19.3320   -7.5241 N   0  0  0  0  0  0  0  0  0  0  0  0
   26.4326  -19.9316   -8.5365 C   0  0  1  0  0  0  0  0  0  0  0  0
   27.2557  -20.9554   -7.7681 C   0  0  0  0  0  0  0  0  0  0  0  0
   27.9352  -20.3903   -6.5877 C   0  0  0  0  0  0  0  0  0  0  0  0
   27.3858  -20.4749   -5.3375 C   0  0  0  0  0  0  0  0  0  0  0  0
   28.0645  -19.9317   -4.2424 C   0  0  0  0  0  0  0  0  0  0  0  0
   29.2806  -19.3209   -4.4630 C   0  0  0  0  0  0  0  0  0  0  0  0
   29.8437  -19.2280   -5.7082 C   0  0  0  0  0  0  0  0  0  0  0  0
   29.1662  -19.7677   -6.7848 C   0  0  0  0  0  0  0  0  0  0  0  0
   25.6331  -20.5987   -9.5926 C   0  0  0  0  0  0  0  0  0  0  0  0
   26.1598  -21.4621  -10.3388 O   0  0  0  0  0  0  0  0  0  0  0  0
   22.6315  -21.9704   -8.5523 N   0  0  0  0  0  0  0  0  0  0  0  0
   21.6093  -21.4407   -9.3829 C   0  0  0  0  0  0  0  0  0  0  0  0
   20.4303  -21.5224   -8.9895 O   0  0  0  0  0  0  0  0  0  0  0  0
   21.9981  -20.8292  -10.6533 C   0  0  0  0  0  0  0  0  0  0  0  0
   23.4745  -20.7548  -10.9002 C   0  0  2  0  0  0  0  0  0  0  0  0
   24.2490  -20.2787   -9.7888 N   0  0  0  0  0  0  0  0  0  0  0  0
   23.8432  -20.1233  -12.1903 C   0  0  0  0  0  0  0  0  0  0  0  0
   23.9403  -18.8757  -12.3298 O   0  0  0  0  0  0  0  0  0  0  0  0
   24.1169  -20.8833  -13.3868 N   0  0  0  0  0  0  0  0  0  0  0  0
   24.4803  -20.2269  -14.6237 C   0  0  1  0  0  0  0  0  0  0  0  0
   25.5846  -20.9760  -15.3127 C   0  0  0  0  0  0  0  0  0  0  0  0
   26.8860  -20.9019  -14.6127 C   0  0  0  0  0  0  0  0  0  0  0  0
   27.1518  -20.2065  -13.4493 C   0  0  0  0  0  0  0  0  0  0  0  0
   28.4324  -20.3670  -13.1132 N   0  0  0  0  0  0  0  0  0  0  0  0
   28.9888  -21.1552  -14.0453 C   0  0  0  0  0  0  0  0  0  0  0  0
   28.0475  -21.4795  -14.9561 N   0  0  0  0  0  0  0  0  0  0  0  0
   23.2988  -20.0525  -15.5146 C   0  0  0  0  0  0  0  0  0  0  0  0
   23.2505  -19.1630  -16.5679 O   0  0  0  0  0  0  0  0  0  0  0  0
   22.2823  -20.7587  -15.2941 O   0  0  0  0  0  0  0  0  0  0  0  0
  2  1  1  1
  3  2  1  0
  3  4  1  0
  4  9  1  0
  4  5  2  0
  5  6  1  0
  6  7  2  0
  8  7  1  0
  9  8  2  0
 10  2  1  0
 11 10  2  0
 13 15  1  0
 13 12  1  0
 14 13  2  0
 16 15  1  1
 16 17  1  0
 17 10  1  0
 18 16  1  0
 19 18  2  0
 20 18  1  0
 21 28  1  0
 21 20  1  0
 21 22  1  6
 22 23  1  0
 23 27  1  0
 23 24  2  0
 24 25  1  0
 26 25  1  0
 27 26  2  0
 28 29  1  0
 30 28  2  0
M  END
$$$$
