FNH.pdb
     RDKit          3D

 30 31  0  0  1  0  0  0  0  0999 V2000
   28.4685  -21.6346  -10.0326 N   0  0  0  0  0  0  0  0  0  0  0  0
   27.0949  -21.1056  -10.0509 C   0  0  1  0  0  0  0  0  0  0  0  0
   27.1895  -19.7689   -9.3297 C   0  0  0  0  0  0  0  0  0  0  0  0
   27.5626  -19.8977   -7.9089 C   0  0  0  0  0  0  0  0  0  0  0  0
   26.6348  -20.2022   -6.9506 C   0  0  0  0  0  0  0  0  0  0  0  0
   27.0297  -20.3214   -5.6146 C   0  0  0  0  0  0  0  0  0  0  0  0
   28.3586  -20.1250   -5.3046 C   0  0  0  0  0  0  0  0  0  0  0  0
   29.2994  -19.8195   -6.2522 C   0  0  0  0  0  0  0  0  0  0  0  0
   28.9003  -19.7037   -7.5700 C   0  0  0  0  0  0  0  0  0  0  0  0
   26.6347  -20.9083  -11.4470 C   0  0  0  0  0  0  0  0  0  0  0  0
   27.4680  -20.7870  -12.3800 O   0  0  0  0  0  0  0  0  0  0  0  0
   25.3915  -23.6971  -15.4087 N   0  0  0  0  0  0  0  0  0  0  0  0
   24.5293  -23.5828  -14.2867 C   0  0  0  0  0  0  0  0  0  0  0  0
   23.3738  -24.0373  -14.3841 O   0  0  0  0  0  0  0  0  0  0  0  0
   25.0464  -22.9381  -13.0800 C   0  0  0  0  0  0  0  0  0  0  0  0
   24.6580  -21.5008  -12.9083 C   0  0  2  0  0  0  0  0  0  0  0  0
   25.2379  -20.8511  -11.7666 N   0  0  0  0  0  0  0  0  0  0  0  0
   23.2057  -21.2420  -13.0603 C   0  0  0  0  0  0  0  0  0  0  0  0
   22.3795  -21.4567  -12.1348 O   0  0  0  0  0  0  0  0  0  0  0  0
   22.6228  -20.7279  -14.2769 N   0  0  0  0  0  0  0  0  0  0  0  0
   21.2057  -20.4521  -14.3695 C   0  0  1  0  0  0  0  0  0  0  0  0
   20.9532  -19.2994  -15.2984 C   0  0  0  0  0  0  0  0  0  0  0  0
   21.3870  -17.9910  -14.7607 C   0  0  0  0  0  0  0  0  0  0  0  0
   20.7364  -17.2448  -13.7977 C   0  0  0  0  0  0  0  0  0  0  0  0
   21.4173  -16.1222  -13.5639 N   0  0  0  0  0  0  0  0  0  0  0  0
   22.4940  -16.1404  -14.3640 C   0  0  0  0  0  0  0  0  0  0  0  0
   22.4742  -17.2770  -15.0908 N   0  0  0  0  0  0  0  0  0  0  0  0
   20.4413  -21.6633  -14.7803 C   0  0  0  0  0  0  0  0  0  0  0  0
   19.1676  -21.9587  -14.3404 O   0  0  0  0  0  0  0  0  0  0  0  0
   20.9895  -22.4667  -15.5770 O   0  0  0  0  0  0  0  0  0  0  0  0
  2  1  1  6
  3  2  1  0
  3  4  1  0
  4  9  1  0
  4  5  2  0
  5  6  1  0
  6  7  2  0
  8  7  1  0
  9  8  2  0
 10  2  1  0
 11 10  2  0
 13 15  1  0
 13 12  1  0
 14 13  2  0
 16 15  1  1
 16 17  1  0
 17 10  1  0
 18 16  1  0
 19 18  2  0
 20 18  1  0
 21 28  1  0
 21 20  1  0
 21 22  1  6
 22 23  1  0
 23 27  1  0
 23 24  2  0
 24 25  1  0
 26 25  1  0
 27 26  2  0
 28 29  1  0
 30 28  2  0
M  END
$$$$
