FNH.pdb
     RDKit          3D

 30 31  0  0  1  0  0  0  0  0999 V2000
   18.6429  -23.2017  -13.8027 N   0  0  0  0  0  0  0  0  0  0  0  0
   19.2687  -23.2719  -12.4722 C   0  0  1  0  0  0  0  0  0  0  0  0
   19.3110  -21.8284  -11.9921 C   0  0  0  0  0  0  0  0  0  0  0  0
   20.1577  -20.9594  -12.8301 C   0  0  0  0  0  0  0  0  0  0  0  0
   21.5222  -20.9807  -12.7321 C   0  0  0  0  0  0  0  0  0  0  0  0
   22.2903  -20.1454  -13.5489 C   0  0  0  0  0  0  0  0  0  0  0  0
   21.6374  -19.3174  -14.4371 C   0  0  0  0  0  0  0  0  0  0  0  0
   20.2725  -19.2842  -14.5470 C   0  0  0  0  0  0  0  0  0  0  0  0
   19.5212  -20.1132  -13.7360 C   0  0  0  0  0  0  0  0  0  0  0  0
   18.4452  -24.0975  -11.5557 C   0  0  0  0  0  0  0  0  0  0  0  0
   17.3318  -24.5445  -11.9299 O   0  0  0  0  0  0  0  0  0  0  0  0
   20.4665  -28.8851   -9.5949 N   0  0  0  0  0  0  0  0  0  0  0  0
   19.2902  -28.1542   -9.9067 C   0  0  0  0  0  0  0  0  0  0  0  0
   18.1883  -28.6957   -9.6970 O   0  0  0  0  0  0  0  0  0  0  0  0
   19.4383  -26.8070  -10.4563 C   0  0  0  0  0  0  0  0  0  0  0  0
   18.8087  -25.7146   -9.6461 C   0  0  2  0  0  0  0  0  0  0  0  0
   18.8941  -24.4051  -10.2289 N   0  0  0  0  0  0  0  0  0  0  0  0
   19.1642  -25.7444   -8.2067 C   0  0  0  0  0  0  0  0  0  0  0  0
   20.1935  -25.1796   -7.7519 O   0  0  0  0  0  0  0  0  0  0  0  0
   18.3646  -26.4226   -7.2142 N   0  0  0  0  0  0  0  0  0  0  0  0
   17.3817  -25.7081   -6.4292 C   0  0  1  0  0  0  0  0  0  0  0  0
   16.9855  -24.4326   -7.1157 C   0  0  0  0  0  0  0  0  0  0  0  0
   15.9499  -23.6607   -6.3938 C   0  0  0  0  0  0  0  0  0  0  0  0
   15.3052  -24.0411   -5.2332 C   0  0  0  0  0  0  0  0  0  0  0  0
   14.4349  -23.0969   -4.8731 N   0  0  0  0  0  0  0  0  0  0  0  0
   14.5143  -22.1184   -5.7874 C   0  0  0  0  0  0  0  0  0  0  0  0
   15.4357  -22.4625   -6.7111 N   0  0  0  0  0  0  0  0  0  0  0  0
   16.1964  -26.5614   -6.1339 C   0  0  0  0  0  0  0  0  0  0  0  0
   15.7417  -27.5654   -6.9634 O   0  0  0  0  0  0  0  0  0  0  0  0
   15.5710  -26.3549   -5.0629 O   0  0  0  0  0  0  0  0  0  0  0  0
  2  1  1  6
  3  2  1  0
  3  4  1  0
  4  9  1  0
  4  5  2  0
  5  6  1  0
  6  7  2  0
  8  7  1  0
  9  8  2  0
 10  2  1  0
 11 10  2  0
 13 15  1  0
 13 12  1  0
 14 13  2  0
 16 15  1  6
 16 17  1  0
 17 10  1  0
 18 16  1  0
 19 18  2  0
 20 18  1  0
 21 28  1  0
 21 20  1  0
 21 22  1  6
 22 23  1  0
 23 27  1  0
 23 24  2  0
 24 25  1  0
 26 25  1  0
 27 26  2  0
 28 29  1  0
 30 28  2  0
M  END
$$$$
