FNH.pdb
     RDKit          3D

 30 31  0  0  1  0  0  0  0  0999 V2000
   17.8012  -11.0091  -15.5444 N   0  0  0  0  0  0  0  0  0  0  0  0
   18.0219   -9.8611  -16.4389 C   0  0  1  0  0  0  0  0  0  0  0  0
   16.6235   -9.4103  -16.8357 C   0  0  0  0  0  0  0  0  0  0  0  0
   15.9866  -10.2925  -17.8309 C   0  0  0  0  0  0  0  0  0  0  0  0
   16.2483  -10.1685  -19.1681 C   0  0  0  0  0  0  0  0  0  0  0  0
   15.6285  -11.0285  -20.0798 C   0  0  0  0  0  0  0  0  0  0  0  0
   14.7629  -11.9850  -19.5933 C   0  0  0  0  0  0  0  0  0  0  0  0
   14.4904  -12.1217  -18.2579 C   0  0  0  0  0  0  0  0  0  0  0  0
   15.1074  -11.2676  -17.3640 C   0  0  0  0  0  0  0  0  0  0  0  0
   18.7311   -8.7742  -15.7210 C   0  0  0  0  0  0  0  0  0  0  0  0
   18.5328   -8.5877  -14.4940 O   0  0  0  0  0  0  0  0  0  0  0  0
   21.7200   -4.6423  -14.7360 N   0  0  0  0  0  0  0  0  0  0  0  0
   22.4937   -5.7729  -15.1081 C   0  0  0  0  0  0  0  0  0  0  0  0
   23.7162   -5.7532  -14.8702 O   0  0  0  0  0  0  0  0  0  0  0  0
   21.8120   -6.8967  -15.7496 C   0  0  0  0  0  0  0  0  0  0  0  0
   20.3164   -6.8050  -15.7754 C   0  0  2  0  0  0  0  0  0  0  0  0
   19.6544   -7.9142  -16.4025 N   0  0  0  0  0  0  0  0  0  0  0  0
   19.7964   -5.4855  -16.2089 C   0  0  0  0  0  0  0  0  0  0  0  0
   19.4227   -5.2601  -17.3899 O   0  0  0  0  0  0  0  0  0  0  0  0
   19.6794   -4.3561  -15.3172 N   0  0  0  0  0  0  0  0  0  0  0  0
   18.9812   -3.1545  -15.7191 C   0  0  1  0  0  0  0  0  0  0  0  0
   17.5093   -3.2867  -15.4525 C   0  0  0  0  0  0  0  0  0  0  0  0
   16.7014   -3.5398  -16.6660 C   0  0  0  0  0  0  0  0  0  0  0  0
   17.1695   -3.5988  -17.9640 C   0  0  0  0  0  0  0  0  0  0  0  0
   16.1562   -3.8440  -18.7958 N   0  0  0  0  0  0  0  0  0  0  0  0
   15.0471   -3.9425  -18.0476 C   0  0  0  0  0  0  0  0  0  0  0  0
   15.3801   -3.7574  -16.7532 N   0  0  0  0  0  0  0  0  0  0  0  0
   19.5508   -1.9471  -15.0572 C   0  0  0  0  0  0  0  0  0  0  0  0
   20.5554   -1.9859  -14.1126 O   0  0  0  0  0  0  0  0  0  0  0  0
   19.0884   -0.8230  -15.3783 O   0  0  0  0  0  0  0  0  0  0  0  0
  2  1  1  1
  3  2  1  0
  3  4  1  0
  4  9  1  0
  4  5  2  0
  5  6  1  0
  6  7  2  0
  8  7  1  0
  9  8  2  0
 10  2  1  0
 11 10  2  0
 13 15  1  0
 13 12  1  0
 14 13  2  0
 16 15  1  6
 16 17  1  0
 17 10  1  0
 18 16  1  0
 19 18  2  0
 20 18  1  0
 21 28  1  0
 21 20  1  0
 21 22  1  1
 22 23  1  0
 23 27  1  0
 23 24  2  0
 24 25  1  0
 26 25  1  0
 27 26  2  0
 28 29  1  0
 30 28  2  0
M  END
$$$$
