WQL.pdb
     RDKit          3D

 32 33  0  0  1  0  0  0  0  0999 V2000
    9.9850  -15.2559   22.3115 N   0  0  0  0  0  0  0  0  0  0  0  0
    9.2976  -15.7484   23.5116 C   0  0  1  0  0  0  0  0  0  0  0  0
    7.8314  -15.6855   23.2202 C   0  0  0  0  0  0  0  0  0  0  0  0
    7.2787  -14.3554   23.0234 C   0  0  0  0  0  0  0  0  0  0  0  0
    7.0747  -13.7889   21.7648 C   0  0  0  0  0  0  0  0  0  0  0  0
    6.5894  -12.5471   21.8801 N   0  0  0  0  0  0  0  0  0  0  0  0
    6.4706  -12.2887   23.2017 C   0  0  0  0  0  0  0  0  0  0  0  0
    6.0223  -11.1947   23.8980 C   0  0  0  0  0  0  0  0  0  0  0  0
    5.9737  -11.1536   25.2606 C   0  0  0  0  0  0  0  0  0  0  0  0
    6.3968  -12.2673   25.9640 C   0  0  0  0  0  0  0  0  0  0  0  0
    6.8503  -13.3755   25.3233 C   0  0  0  0  0  0  0  0  0  0  0  0
    6.8897  -13.3900   23.9295 C   0  0  0  0  0  0  0  0  0  0  0  0
    9.8226  -17.0321   23.9466 C   0  0  0  0  0  0  0  0  0  0  0  0
    9.1205  -17.8832   24.5385 O   0  0  0  0  0  0  0  0  0  0  0  0
   10.7609  -20.3828   21.2730 N   0  0  0  0  0  0  0  0  0  0  0  0
   11.8461  -20.3404   22.1727 C   0  0  0  0  0  0  0  0  0  0  0  0
   12.0286  -21.3619   22.9046 O   0  0  0  0  0  0  0  0  0  0  0  0
   12.7420  -19.1613   22.2696 C   0  0  0  0  0  0  0  0  0  0  0  0
   13.0361  -18.9109   23.7193 C   0  0  0  0  0  0  0  0  0  0  0  0
   11.8153  -18.4002   24.4063 C   0  0  2  0  0  0  0  0  0  0  0  0
   11.1731  -17.3407   23.6991 N   0  0  0  0  0  0  0  0  0  0  0  0
   12.0495  -17.9642   25.8105 C   0  0  0  0  0  0  0  0  0  0  0  0
   13.2331  -17.8736   26.2075 O   0  0  0  0  0  0  0  0  0  0  0  0
   11.5702  -14.2493   27.7948 C   0  0  0  0  0  0  0  0  0  0  0  0
   10.2769  -15.0216   27.9506 C   0  0  2  0  0  0  0  0  0  0  0  0
    9.0977  -14.1943   28.2981 C   0  0  0  0  0  0  0  0  0  0  0  0
   10.3806  -16.3231   28.6138 C   0  0  0  0  0  0  0  0  0  0  0  0
   11.3361  -17.3188   28.0864 C   0  0  2  0  0  0  0  0  0  0  0  0
   11.0271  -17.6521   26.7062 N   0  0  0  0  0  0  0  0  0  0  0  0
   11.3135  -18.5857   28.8304 C   0  0  0  0  0  0  0  0  0  0  0  0
   10.7534  -19.7777   28.4096 O   0  0  0  0  0  0  0  0  0  0  0  0
   11.8487  -18.6450   29.9965 O   0  0  0  0  0  0  0  0  0  0  0  0
  2  1  1  6
  3  2  1  0
  4  3  1  0
  5  4  2  0
  6  7  1  0
  6  5  1  0
  7 12  2  0
  8  7  1  0
  8  9  2  0
  9 10  1  0
 10 11  2  0
 12  4  1  0
 12 11  1  0
 13  2  1  0
 14 13  2  0
 16 17  2  0
 16 15  1  0
 18 16  1  0
 19 18  1  0
 20 21  1  0
 20 19  1  6
 21 13  1  0
 22 20  1  0
 23 22  2  0
 25 24  1  1
 25 27  1  0
 26 25  1  0
 28 27  1  1
 28 30  1  0
 28 29  1  0
 29 22  1  0
 30 31  1  0
 32 30  2  0
M  END
$$$$
