WQL.pdb
     RDKit          3D

 32 33  0  0  1  0  0  0  0  0999 V2000
    6.5540  -18.8196   22.6356 N   0  0  0  0  0  0  0  0  0  0  0  0
    7.2581  -17.5360   22.7451 C   0  0  1  0  0  0  0  0  0  0  0  0
    6.3100  -16.5833   23.4024 C   0  0  0  0  0  0  0  0  0  0  0  0
    6.6832  -15.1791   23.3529 C   0  0  0  0  0  0  0  0  0  0  0  0
    7.4259  -14.6199   22.3125 C   0  0  0  0  0  0  0  0  0  0  0  0
    7.6534  -13.3211   22.5413 N   0  0  0  0  0  0  0  0  0  0  0  0
    7.0681  -13.0176   23.7214 C   0  0  0  0  0  0  0  0  0  0  0  0
    6.9695  -11.8510   24.4370 C   0  0  0  0  0  0  0  0  0  0  0  0
    6.3045  -11.7654   25.6249 C   0  0  0  0  0  0  0  0  0  0  0  0
    5.7062  -12.9089   26.1234 C   0  0  0  0  0  0  0  0  0  0  0  0
    5.7748  -14.0891   25.4552 C   0  0  0  0  0  0  0  0  0  0  0  0
    6.4615  -14.1483   24.2431 C   0  0  0  0  0  0  0  0  0  0  0  0
    8.5650  -17.6874   23.3629 C   0  0  0  0  0  0  0  0  0  0  0  0
    8.7476  -18.3667   24.3987 O   0  0  0  0  0  0  0  0  0  0  0  0
   11.6602  -20.3354   21.2828 N   0  0  0  0  0  0  0  0  0  0  0  0
   12.4531  -19.1732   21.3815 C   0  0  0  0  0  0  0  0  0  0  0  0
   13.6576  -19.3268   21.7529 O   0  0  0  0  0  0  0  0  0  0  0  0
   11.9161  -17.8257   21.0681 C   0  0  0  0  0  0  0  0  0  0  0  0
   12.0609  -16.9654   22.2887 C   0  0  0  0  0  0  0  0  0  0  0  0
   10.9925  -17.2956   23.2748 C   0  0  2  0  0  0  0  0  0  0  0  0
    9.6764  -17.0482   22.7828 N   0  0  0  0  0  0  0  0  0  0  0  0
   11.1485  -16.6104   24.5874 C   0  0  0  0  0  0  0  0  0  0  0  0
   11.5791  -15.4351   24.5886 O   0  0  0  0  0  0  0  0  0  0  0  0
    9.2042  -13.6791   28.8227 C   0  0  0  0  0  0  0  0  0  0  0  0
   10.3477  -14.6276   28.5292 C   0  0  2  0  0  0  0  0  0  0  0  0
   11.6875  -14.1212   28.9092 C   0  0  0  0  0  0  0  0  0  0  0  0
   10.2621  -15.3682   27.2688 C   0  0  0  0  0  0  0  0  0  0  0  0
   11.1598  -16.5222   27.0566 C   0  0  2  0  0  0  0  0  0  0  0  0
   10.8427  -17.2026   25.8125 N   0  0  0  0  0  0  0  0  0  0  0  0
   11.0540  -17.5338   28.1172 C   0  0  0  0  0  0  0  0  0  0  0  0
   10.0929  -18.5224   28.2189 O   0  0  0  0  0  0  0  0  0  0  0  0
   11.9118  -17.5413   29.0730 O   0  0  0  0  0  0  0  0  0  0  0  0
  2  1  1  1
  3  2  1  0
  4  3  1  0
  5  4  2  0
  6  7  1  0
  6  5  1  0
  7 12  2  0
  8  7  1  0
  8  9  2  0
  9 10  1  0
 10 11  2  0
 12  4  1  0
 12 11  1  0
 13  2  1  0
 14 13  2  0
 16 17  2  0
 16 15  1  0
 18 16  1  0
 19 18  1  0
 20 21  1  0
 20 19  1  6
 21 13  1  0
 22 20  1  0
 23 22  2  0
 25 24  1  6
 25 27  1  0
 26 25  1  0
 28 27  1  1
 28 30  1  0
 28 29  1  0
 29 22  1  0
 30 31  1  0
 32 30  2  0
M  END
$$$$
