WQL.pdb
     RDKit          3D

 32 33  0  0  1  0  0  0  0  0999 V2000
    6.4430  -17.6738   24.7392 N   0  0  0  0  0  0  0  0  0  0  0  0
    7.4659  -16.6595   24.4561 C   0  0  1  0  0  0  0  0  0  0  0  0
    7.6730  -15.8955   25.7258 C   0  0  0  0  0  0  0  0  0  0  0  0
    6.8281  -14.7268   25.9096 C   0  0  0  0  0  0  0  0  0  0  0  0
    5.5815  -14.7731   26.5344 C   0  0  0  0  0  0  0  0  0  0  0  0
    5.0095  -13.5632   26.5349 N   0  0  0  0  0  0  0  0  0  0  0  0
    5.8662  -12.7192   25.9175 C   0  0  0  0  0  0  0  0  0  0  0  0
    5.8124  -11.3754   25.6453 C   0  0  0  0  0  0  0  0  0  0  0  0
    6.8183  -10.7081   25.0102 C   0  0  0  0  0  0  0  0  0  0  0  0
    7.9382  -11.4243   24.6267 C   0  0  0  0  0  0  0  0  0  0  0  0
    8.0412  -12.7561   24.8713 C   0  0  0  0  0  0  0  0  0  0  0  0
    6.9976  -13.4133   25.5220 C   0  0  0  0  0  0  0  0  0  0  0  0
    8.6488  -17.2411   23.8435 C   0  0  0  0  0  0  0  0  0  0  0  0
    9.0730  -18.3806   24.1423 O   0  0  0  0  0  0  0  0  0  0  0  0
   12.9262  -14.7102   19.3771 N   0  0  0  0  0  0  0  0  0  0  0  0
   13.1477  -15.9470   20.0175 C   0  0  0  0  0  0  0  0  0  0  0  0
   13.6714  -16.8711   19.3216 O   0  0  0  0  0  0  0  0  0  0  0  0
   12.7895  -16.1714   21.4401 C   0  0  0  0  0  0  0  0  0  0  0  0
   11.3348  -15.8492   21.6160 C   0  0  0  0  0  0  0  0  0  0  0  0
   10.7644  -16.6594   22.7300 C   0  0  2  0  0  0  0  0  0  0  0  0
    9.3539  -16.5022   22.8755 N   0  0  0  0  0  0  0  0  0  0  0  0
   11.4108  -16.4141   24.0487 C   0  0  0  0  0  0  0  0  0  0  0  0
   12.1343  -15.3997   24.1682 O   0  0  0  0  0  0  0  0  0  0  0  0
   10.9273  -14.1487   27.1642 C   0  0  0  0  0  0  0  0  0  0  0  0
   10.1071  -15.3932   27.4318 C   0  0  2  0  0  0  0  0  0  0  0  0
    9.0419  -15.2280   28.4486 C   0  0  0  0  0  0  0  0  0  0  0  0
   10.8458  -16.6573   27.4585 C   0  0  0  0  0  0  0  0  0  0  0  0
   11.8726  -16.9059   26.4256 C   0  0  2  0  0  0  0  0  0  0  0  0
   11.2563  -17.2488   25.1552 N   0  0  0  0  0  0  0  0  0  0  0  0
   12.7674  -18.0215   26.7632 C   0  0  0  0  0  0  0  0  0  0  0  0
   13.8194  -17.9907   27.6597 O   0  0  0  0  0  0  0  0  0  0  0  0
   12.6030  -19.1602   26.1922 O   0  0  0  0  0  0  0  0  0  0  0  0
  2  1  1  1
  3  2  1  0
  4  3  1  0
  5  4  2  0
  6  7  1  0
  6  5  1  0
  7 12  2  0
  8  7  1  0
  8  9  2  0
  9 10  1  0
 10 11  2  0
 12  4  1  0
 12 11  1  0
 13  2  1  0
 14 13  2  0
 16 17  2  0
 16 15  1  0
 18 16  1  0
 19 18  1  0
 20 21  1  0
 20 19  1  6
 21 13  1  0
 22 20  1  0
 23 22  2  0
 25 24  1  1
 25 27  1  0
 26 25  1  0
 28 27  1  1
 28 30  1  0
 28 29  1  0
 29 22  1  0
 30 31  1  0
 32 30  2  0
M  END
$$$$
