WQL.pdb
     RDKit          3D

 32 33  0  0  1  0  0  0  0  0999 V2000
    6.2472  -17.2175   24.7203 N   0  0  0  0  0  0  0  0  0  0  0  0
    7.3570  -16.3018   24.4285 C   0  0  1  0  0  0  0  0  0  0  0  0
    7.5669  -15.4787   25.6601 C   0  0  0  0  0  0  0  0  0  0  0  0
    6.6590  -14.3574   25.8380 C   0  0  0  0  0  0  0  0  0  0  0  0
    5.4284  -14.4632   26.4871 C   0  0  0  0  0  0  0  0  0  0  0  0
    4.7872  -13.2887   26.4757 N   0  0  0  0  0  0  0  0  0  0  0  0
    5.5821  -12.4089   25.8264 C   0  0  0  0  0  0  0  0  0  0  0  0
    5.4455  -11.0761   25.5302 C   0  0  0  0  0  0  0  0  0  0  0  0
    6.3994  -10.3645   24.8638 C   0  0  0  0  0  0  0  0  0  0  0  0
    7.5520  -11.0222   24.4727 C   0  0  0  0  0  0  0  0  0  0  0  0
    7.7367  -12.3407   24.7402 C   0  0  0  0  0  0  0  0  0  0  0  0
    6.7448  -13.0442   25.4227 C   0  0  0  0  0  0  0  0  0  0  0  0
    8.5169  -17.0067   23.9084 C   0  0  0  0  0  0  0  0  0  0  0  0
    8.8399  -18.1529   24.2951 O   0  0  0  0  0  0  0  0  0  0  0  0
   12.4733  -15.3880   19.2202 N   0  0  0  0  0  0  0  0  0  0  0  0
   13.1528  -16.3641   19.9783 C   0  0  0  0  0  0  0  0  0  0  0  0
   14.2456  -16.8044   19.5046 O   0  0  0  0  0  0  0  0  0  0  0  0
   12.6252  -16.8625   21.2727 C   0  0  0  0  0  0  0  0  0  0  0  0
   11.2960  -16.2126   21.5212 C   0  0  0  0  0  0  0  0  0  0  0  0
   10.6795  -16.7700   22.7590 C   0  0  2  0  0  0  0  0  0  0  0  0
    9.3167  -16.3849   22.9317 N   0  0  0  0  0  0  0  0  0  0  0  0
   11.4283  -16.4483   24.0051 C   0  0  0  0  0  0  0  0  0  0  0  0
   11.8349  -15.2745   24.1592 O   0  0  0  0  0  0  0  0  0  0  0  0
   11.1292  -14.4617   27.2788 C   0  0  0  0  0  0  0  0  0  0  0  0
   10.5428  -15.8329   27.5417 C   0  0  2  0  0  0  0  0  0  0  0  0
    9.6116  -15.8997   28.6924 C   0  0  0  0  0  0  0  0  0  0  0  0
   11.4548  -16.9660   27.3723 C   0  0  0  0  0  0  0  0  0  0  0  0
   12.3837  -16.9690   26.2234 C   0  0  2  0  0  0  0  0  0  0  0  0
   11.7016  -17.3785   25.0075 N   0  0  0  0  0  0  0  0  0  0  0  0
   13.5081  -17.8989   26.3973 C   0  0  0  0  0  0  0  0  0  0  0  0
   13.7525  -19.0423   25.6595 O   0  0  0  0  0  0  0  0  0  0  0  0
   14.3771  -17.6769   27.3167 O   0  0  0  0  0  0  0  0  0  0  0  0
  2  1  1  1
  3  2  1  0
  4  3  1  0
  5  4  2  0
  6  7  1  0
  6  5  1  0
  7 12  2  0
  8  7  1  0
  8  9  2  0
  9 10  1  0
 10 11  2  0
 12  4  1  0
 12 11  1  0
 13  2  1  0
 14 13  2  0
 16 17  2  0
 16 15  1  0
 18 16  1  0
 19 18  1  0
 20 21  1  0
 20 19  1  6
 21 13  1  0
 22 20  1  0
 23 22  2  0
 25 24  1  1
 25 27  1  0
 26 25  1  0
 28 27  1  1
 28 30  1  0
 28 29  1  0
 29 22  1  0
 30 31  1  0
 32 30  2  0
M  END
$$$$
