WQL.pdb
     RDKit          3D

 32 33  0  0  1  0  0  0  0  0999 V2000
    6.3675  -17.7419   23.4643 N   0  0  0  0  0  0  0  0  0  0  0  0
    7.7686  -17.3345   23.6257 C   0  0  1  0  0  0  0  0  0  0  0  0
    7.8034  -16.3660   24.7657 C   0  0  0  0  0  0  0  0  0  0  0  0
    7.2027  -15.0662   24.5144 C   0  0  0  0  0  0  0  0  0  0  0  0
    6.2592  -14.4817   25.3599 C   0  0  0  0  0  0  0  0  0  0  0  0
    5.8518  -13.3052   24.8693 N   0  0  0  0  0  0  0  0  0  0  0  0
    6.5171  -13.1072   23.7093 C   0  0  0  0  0  0  0  0  0  0  0  0
    6.5091  -12.0826   22.7967 C   0  0  0  0  0  0  0  0  0  0  0  0
    7.2889  -12.0822   21.6775 C   0  0  0  0  0  0  0  0  0  0  0  0
    8.1213  -13.1656   21.4601 C   0  0  0  0  0  0  0  0  0  0  0  0
    8.1667  -14.2060   22.3317 C   0  0  0  0  0  0  0  0  0  0  0  0
    7.3584  -14.1806   23.4676 C   0  0  0  0  0  0  0  0  0  0  0  0
    8.6580  -18.4807   23.7151 C   0  0  0  0  0  0  0  0  0  0  0  0
    8.5313  -19.4920   22.9878 O   0  0  0  0  0  0  0  0  0  0  0  0
   12.5103  -18.7043   20.6571 N   0  0  0  0  0  0  0  0  0  0  0  0
   12.7365  -17.4034   21.1525 C   0  0  0  0  0  0  0  0  0  0  0  0
   13.1883  -16.5448   20.3333 O   0  0  0  0  0  0  0  0  0  0  0  0
   12.4630  -17.0412   22.5655 C   0  0  0  0  0  0  0  0  0  0  0  0
   11.0605  -17.4592   22.8958 C   0  0  0  0  0  0  0  0  0  0  0  0
   11.0039  -18.0031   24.2828 C   0  0  2  0  0  0  0  0  0  0  0  0
    9.7060  -18.4645   24.6540 N   0  0  0  0  0  0  0  0  0  0  0  0
   11.4901  -17.0562   25.3239 C   0  0  0  0  0  0  0  0  0  0  0  0
   12.6700  -16.6469   25.2402 O   0  0  0  0  0  0  0  0  0  0  0  0
   10.7394  -13.4022   26.8645 C   0  0  0  0  0  0  0  0  0  0  0  0
    9.8875  -14.3314   27.7035 C   0  0  2  0  0  0  0  0  0  0  0  0
    8.7553  -13.6765   28.3998 C   0  0  0  0  0  0  0  0  0  0  0  0
   10.6074  -15.3630   28.4533 C   0  0  0  0  0  0  0  0  0  0  0  0
   11.2835  -16.4454   27.7091 C   0  0  2  0  0  0  0  0  0  0  0  0
   10.7071  -16.6008   26.3843 N   0  0  0  0  0  0  0  0  0  0  0  0
   11.1640  -17.7544   28.3658 C   0  0  0  0  0  0  0  0  0  0  0  0
   11.9241  -18.2170   29.4241 O   0  0  0  0  0  0  0  0  0  0  0  0
   10.2849  -18.5936   27.9502 O   0  0  0  0  0  0  0  0  0  0  0  0
  2  1  1  1
  3  2  1  0
  4  3  1  0
  5  4  2  0
  6  7  1  0
  6  5  1  0
  7 12  2  0
  8  7  1  0
  8  9  2  0
  9 10  1  0
 10 11  2  0
 12  4  1  0
 12 11  1  0
 13  2  1  0
 14 13  2  0
 16 17  2  0
 16 15  1  0
 18 16  1  0
 19 18  1  0
 20 21  1  0
 20 19  1  6
 21 13  1  0
 22 20  1  0
 23 22  2  0
 25 24  1  1
 25 27  1  0
 26 25  1  0
 28 27  1  1
 28 30  1  0
 28 29  1  0
 29 22  1  0
 30 31  1  0
 32 30  2  0
M  END
$$$$
