WQL.pdb
     RDKit          3D

 32 33  0  0  1  0  0  0  0  0999 V2000
    6.7769  -18.3327   22.4803 N   0  0  0  0  0  0  0  0  0  0  0  0
    7.6435  -17.2291   22.0487 C   0  0  1  0  0  0  0  0  0  0  0  0
    6.8420  -15.9742   22.1948 C   0  0  0  0  0  0  0  0  0  0  0  0
    6.6340  -15.5074   23.5558 C   0  0  0  0  0  0  0  0  0  0  0  0
    6.1773  -16.3295   24.5865 C   0  0  0  0  0  0  0  0  0  0  0  0
    6.0444  -15.6326   25.7212 N   0  0  0  0  0  0  0  0  0  0  0  0
    6.4092  -14.3595   25.4500 C   0  0  0  0  0  0  0  0  0  0  0  0
    6.4827  -13.2289   26.2240 C   0  0  0  0  0  0  0  0  0  0  0  0
    6.9009  -12.0250   25.7378 C   0  0  0  0  0  0  0  0  0  0  0  0
    7.2651  -11.9487   24.4053 C   0  0  0  0  0  0  0  0  0  0  0  0
    7.2101  -13.0376   23.5958 C   0  0  0  0  0  0  0  0  0  0  0  0
    6.7782  -14.2559   24.1190 C   0  0  0  0  0  0  0  0  0  0  0  0
    8.9337  -17.2617   22.7174 C   0  0  0  0  0  0  0  0  0  0  0  0
    9.1743  -18.0204   23.6839 O   0  0  0  0  0  0  0  0  0  0  0  0
   15.8762  -15.1024   21.8219 N   0  0  0  0  0  0  0  0  0  0  0  0
   14.6477  -15.7569   21.5949 C   0  0  0  0  0  0  0  0  0  0  0  0
   14.4301  -16.1829   20.4187 O   0  0  0  0  0  0  0  0  0  0  0  0
   13.6461  -15.9457   22.6735 C   0  0  0  0  0  0  0  0  0  0  0  0
   12.2829  -15.6933   22.0998 C   0  0  0  0  0  0  0  0  0  0  0  0
   11.2600  -16.4722   22.8546 C   0  0  2  0  0  0  0  0  0  0  0  0
    9.9603  -16.4098   22.2696 N   0  0  0  0  0  0  0  0  0  0  0  0
   11.1552  -16.0987   24.2922 C   0  0  0  0  0  0  0  0  0  0  0  0
   10.5262  -15.0566   24.5836 O   0  0  0  0  0  0  0  0  0  0  0  0
    8.8202  -14.6600   28.5414 C   0  0  0  0  0  0  0  0  0  0  0  0
   10.2832  -14.8595   28.2048 C   0  0  2  0  0  0  0  0  0  0  0  0
   11.1872  -13.8015   28.7139 C   0  0  0  0  0  0  0  0  0  0  0  0
   10.5706  -15.3759   26.8650 C   0  0  0  0  0  0  0  0  0  0  0  0
   11.6673  -16.3513   26.6961 C   0  0  2  0  0  0  0  0  0  0  0  0
   11.7170  -16.8426   25.3295 N   0  0  0  0  0  0  0  0  0  0  0  0
   11.5190  -17.5352   27.5536 C   0  0  0  0  0  0  0  0  0  0  0  0
   10.8875  -18.7192   27.2204 O   0  0  0  0  0  0  0  0  0  0  0  0
   12.0011  -17.5194   28.7440 O   0  0  0  0  0  0  0  0  0  0  0  0
  2  1  1  1
  3  2  1  0
  4  3  1  0
  5  4  2  0
  6  7  1  0
  6  5  1  0
  7 12  2  0
  8  7  1  0
  8  9  2  0
  9 10  1  0
 10 11  2  0
 12  4  1  0
 12 11  1  0
 13  2  1  0
 14 13  2  0
 16 17  2  0
 16 15  1  0
 18 16  1  0
 19 18  1  0
 20 21  1  0
 20 19  1  6
 21 13  1  0
 22 20  1  0
 23 22  2  0
 25 24  1  6
 25 27  1  0
 26 25  1  0
 28 27  1  6
 28 30  1  0
 28 29  1  0
 29 22  1  0
 30 31  1  0
 32 30  2  0
M  END
$$$$
