WQL.pdb
     RDKit          3D

 32 33  0  0  1  0  0  0  0  0999 V2000
    9.8761  -15.6580   22.4117 N   0  0  0  0  0  0  0  0  0  0  0  0
    9.0089  -16.2452   23.4405 C   0  0  1  0  0  0  0  0  0  0  0  0
    7.6023  -15.9112   23.0551 C   0  0  0  0  0  0  0  0  0  0  0  0
    7.2886  -14.4950   22.9584 C   0  0  0  0  0  0  0  0  0  0  0  0
    7.4204  -13.7597   21.7800 C   0  0  0  0  0  0  0  0  0  0  0  0
    7.0975  -12.4774   21.9862 N   0  0  0  0  0  0  0  0  0  0  0  0
    6.7535  -12.3594   23.2882 C   0  0  0  0  0  0  0  0  0  0  0  0
    6.3299  -11.2958   24.0446 C   0  0  0  0  0  0  0  0  0  0  0  0
    6.0159  -11.4069   25.3674 C   0  0  0  0  0  0  0  0  0  0  0  0
    6.1323  -12.6492   25.9652 C   0  0  0  0  0  0  0  0  0  0  0  0
    6.5478  -13.7339   25.2618 C   0  0  0  0  0  0  0  0  0  0  0  0
    6.8628  -13.5917   23.9108 C   0  0  0  0  0  0  0  0  0  0  0  0
    9.3092  -17.6498   23.6632 C   0  0  0  0  0  0  0  0  0  0  0  0
    8.5247  -18.4216   24.2604 O   0  0  0  0  0  0  0  0  0  0  0  0
   13.9448  -20.0039   21.0936 N   0  0  0  0  0  0  0  0  0  0  0  0
   14.1318  -18.7305   21.6702 C   0  0  0  0  0  0  0  0  0  0  0  0
   14.9015  -17.9275   21.0576 O   0  0  0  0  0  0  0  0  0  0  0  0
   13.4648  -18.3342   22.9353 C   0  0  0  0  0  0  0  0  0  0  0  0
   12.5854  -19.4660   23.3787 C   0  0  0  0  0  0  0  0  0  0  0  0
   11.3715  -18.9317   24.0598 C   0  0  2  0  0  0  0  0  0  0  0  0
   10.5282  -18.1736   23.1942 N   0  0  0  0  0  0  0  0  0  0  0  0
   11.6667  -18.1186   25.2717 C   0  0  0  0  0  0  0  0  0  0  0  0
   12.8308  -17.6820   25.4164 O   0  0  0  0  0  0  0  0  0  0  0  0
    9.2091  -14.5250   29.4816 C   0  0  0  0  0  0  0  0  0  0  0  0
   10.4582  -15.0346   28.7936 C   0  0  2  0  0  0  0  0  0  0  0  0
   11.5613  -14.0496   28.7004 C   0  0  0  0  0  0  0  0  0  0  0  0
   10.2452  -15.8900   27.6243 C   0  0  0  0  0  0  0  0  0  0  0  0
   11.1078  -17.0754   27.4406 C   0  0  2  0  0  0  0  0  0  0  0  0
   10.7219  -17.8170   26.2521 N   0  0  0  0  0  0  0  0  0  0  0  0
   11.0269  -18.0228   28.5609 C   0  0  0  0  0  0  0  0  0  0  0  0
   11.8787  -18.0867   29.6480 O   0  0  0  0  0  0  0  0  0  0  0  0
   10.0934  -18.9048   28.5783 O   0  0  0  0  0  0  0  0  0  0  0  0
  2  1  1  6
  3  2  1  0
  4  3  1  0
  5  4  2  0
  6  7  1  0
  6  5  1  0
  7 12  2  0
  8  7  1  0
  8  9  2  0
  9 10  1  0
 10 11  2  0
 12  4  1  0
 12 11  1  0
 13  2  1  0
 14 13  2  0
 16 17  2  0
 16 15  1  0
 18 16  1  0
 19 18  1  0
 20 21  1  0
 20 19  1  6
 21 13  1  0
 22 20  1  0
 23 22  2  0
 25 24  1  6
 25 27  1  0
 26 25  1  0
 28 27  1  1
 28 30  1  0
 28 29  1  0
 29 22  1  0
 30 31  1  0
 32 30  2  0
M  END
$$$$
