WQL.pdb
     RDKit          3D

 32 33  0  0  1  0  0  0  0  0999 V2000
    9.3378  -15.9096   23.6520 N   0  0  0  0  0  0  0  0  0  0  0  0
    8.3522  -16.7062   24.3931 C   0  0  1  0  0  0  0  0  0  0  0  0
    7.0176  -16.0801   24.1377 C   0  0  0  0  0  0  0  0  0  0  0  0
    7.0258  -14.6502   23.8753 C   0  0  0  0  0  0  0  0  0  0  0  0
    7.4350  -14.0962   22.6619 C   0  0  0  0  0  0  0  0  0  0  0  0
    7.3738  -12.7602   22.7095 N   0  0  0  0  0  0  0  0  0  0  0  0
    6.9279  -12.4271   23.9415 C   0  0  0  0  0  0  0  0  0  0  0  0
    6.6641  -11.2207   24.5396 C   0  0  0  0  0  0  0  0  0  0  0  0
    6.1962  -11.1142   25.8164 C   0  0  0  0  0  0  0  0  0  0  0  0
    5.9808  -12.2778   26.5331 C   0  0  0  0  0  0  0  0  0  0  0  0
    6.2265  -13.4972   25.9884 C   0  0  0  0  0  0  0  0  0  0  0  0
    6.7050  -13.5768   24.6810 C   0  0  0  0  0  0  0  0  0  0  0  0
    8.4746  -18.1250   24.1015 C   0  0  0  0  0  0  0  0  0  0  0  0
    7.5810  -18.7722   23.5098 O   0  0  0  0  0  0  0  0  0  0  0  0
   12.1971  -18.0933   21.1597 N   0  0  0  0  0  0  0  0  0  0  0  0
   12.9342  -17.2295   21.9961 C   0  0  0  0  0  0  0  0  0  0  0  0
   14.1539  -17.0401   21.6980 O   0  0  0  0  0  0  0  0  0  0  0  0
   12.3237  -16.5654   23.1745 C   0  0  0  0  0  0  0  0  0  0  0  0
   10.9295  -17.0936   23.3431 C   0  0  0  0  0  0  0  0  0  0  0  0
   10.9226  -18.2065   24.3351 C   0  0  2  0  0  0  0  0  0  0  0  0
    9.6394  -18.8087   24.4966 N   0  0  0  0  0  0  0  0  0  0  0  0
   11.4429  -17.8239   25.6767 C   0  0  0  0  0  0  0  0  0  0  0  0
   12.6547  -17.5256   25.7732 O   0  0  0  0  0  0  0  0  0  0  0  0
   11.2480  -14.3851   27.4402 C   0  0  0  0  0  0  0  0  0  0  0  0
   10.0912  -15.1607   28.0349 C   0  0  2  0  0  0  0  0  0  0  0  0
    9.0120  -14.3232   28.6089 C   0  0  0  0  0  0  0  0  0  0  0  0
   10.4433  -16.3726   28.7776 C   0  0  0  0  0  0  0  0  0  0  0  0
   11.2482  -17.4133   28.1053 C   0  0  2  0  0  0  0  0  0  0  0  0
   10.6584  -17.7794   26.8289 N   0  0  0  0  0  0  0  0  0  0  0  0
   11.3461  -18.6552   28.8845 C   0  0  0  0  0  0  0  0  0  0  0  0
   10.8912  -19.9041   28.5037 O   0  0  0  0  0  0  0  0  0  0  0  0
   11.8954  -18.6329   30.0453 O   0  0  0  0  0  0  0  0  0  0  0  0
  2  1  1  6
  3  2  1  0
  4  3  1  0
  5  4  2  0
  6  7  1  0
  6  5  1  0
  7 12  2  0
  8  7  1  0
  8  9  2  0
  9 10  1  0
 10 11  2  0
 12  4  1  0
 12 11  1  0
 13  2  1  0
 14 13  2  0
 16 17  2  0
 16 15  1  0
 18 16  1  0
 19 18  1  0
 20 21  1  0
 20 19  1  6
 21 13  1  0
 22 20  1  0
 23 22  2  0
 25 24  1  1
 25 27  1  0
 26 25  1  0
 28 27  1  1
 28 30  1  0
 28 29  1  0
 29 22  1  0
 30 31  1  0
 32 30  2  0
M  END
$$$$
