WQL.pdb
     RDKit          3D

 32 33  0  0  1  0  0  0  0  0999 V2000
    6.4325  -18.0541   24.2275 N   0  0  0  0  0  0  0  0  0  0  0  0
    7.5454  -17.1089   24.0747 C   0  0  1  0  0  0  0  0  0  0  0  0
    7.7564  -16.4770   25.4144 C   0  0  0  0  0  0  0  0  0  0  0  0
    6.9048  -15.3397   25.7222 C   0  0  0  0  0  0  0  0  0  0  0  0
    5.7221  -15.4441   26.4550 C   0  0  0  0  0  0  0  0  0  0  0  0
    5.1244  -14.2511   26.5574 N   0  0  0  0  0  0  0  0  0  0  0  0
    5.9008  -13.3607   25.9003 C   0  0  0  0  0  0  0  0  0  0  0  0
    5.7909  -12.0092   25.6899 C   0  0  0  0  0  0  0  0  0  0  0  0
    6.7185  -11.2906   24.9943 C   0  0  0  0  0  0  0  0  0  0  0  0
    7.8149  -11.9608   24.4816 C   0  0  0  0  0  0  0  0  0  0  0  0
    7.9711  -13.2978   24.6607 C   0  0  0  0  0  0  0  0  0  0  0  0
    7.0072  -14.0079   25.3755 C   0  0  0  0  0  0  0  0  0  0  0  0
    8.7038  -17.7331   23.4572 C   0  0  0  0  0  0  0  0  0  0  0  0
    8.9789  -18.9451   23.6091 O   0  0  0  0  0  0  0  0  0  0  0  0
   12.8701  -17.2258   19.1449 N   0  0  0  0  0  0  0  0  0  0  0  0
   13.6777  -17.2304   20.3011 C   0  0  0  0  0  0  0  0  0  0  0  0
   14.8851  -17.5973   20.1596 O   0  0  0  0  0  0  0  0  0  0  0  0
   13.1524  -16.8269   21.6291 C   0  0  0  0  0  0  0  0  0  0  0  0
   11.6747  -16.6002   21.5020 C   0  0  0  0  0  0  0  0  0  0  0  0
   10.9698  -17.1535   22.6936 C   0  0  2  0  0  0  0  0  0  0  0  0
    9.5578  -16.9532   22.6556 N   0  0  0  0  0  0  0  0  0  0  0  0
   11.4895  -16.6460   23.9933 C   0  0  0  0  0  0  0  0  0  0  0  0
   12.2853  -15.6801   23.9704 O   0  0  0  0  0  0  0  0  0  0  0  0
   11.2977  -15.2778   29.1868 C   0  0  0  0  0  0  0  0  0  0  0  0
   11.3023  -14.5020   27.8863 C   0  0  2  0  0  0  0  0  0  0  0  0
   10.7461  -13.1316   27.9788 C   0  0  0  0  0  0  0  0  0  0  0  0
   10.9667  -15.2637   26.6814 C   0  0  0  0  0  0  0  0  0  0  0  0
   11.6170  -16.5716   26.4597 C   0  0  2  0  0  0  0  0  0  0  0  0
   11.1407  -17.1847   25.2314 N   0  0  0  0  0  0  0  0  0  0  0  0
   11.3450  -17.5369   27.5336 C   0  0  0  0  0  0  0  0  0  0  0  0
   10.3117  -18.4547   27.5733 O   0  0  0  0  0  0  0  0  0  0  0  0
   12.1100  -17.5693   28.5648 O   0  0  0  0  0  0  0  0  0  0  0  0
  2  1  1  1
  3  2  1  0
  4  3  1  0
  5  4  2  0
  6  7  1  0
  6  5  1  0
  7 12  2  0
  8  7  1  0
  8  9  2  0
  9 10  1  0
 10 11  2  0
 12  4  1  0
 12 11  1  0
 13  2  1  0
 14 13  2  0
 16 17  2  0
 16 15  1  0
 18 16  1  0
 19 18  1  0
 20 21  1  0
 20 19  1  6
 21 13  1  0
 22 20  1  0
 23 22  2  0
 25 24  1  1
 25 27  1  0
 26 25  1  0
 28 27  1  1
 28 30  1  0
 28 29  1  0
 29 22  1  0
 30 31  1  0
 32 30  2  0
M  END
$$$$
