WQL.pdb
     RDKit          3D

 32 33  0  0  1  0  0  0  0  0999 V2000
    6.6290  -19.4211   23.5740 N   0  0  0  0  0  0  0  0  0  0  0  0
    6.9990  -18.0025   23.6521 C   0  0  1  0  0  0  0  0  0  0  0  0
    7.1618  -17.6828   25.1046 C   0  0  0  0  0  0  0  0  0  0  0  0
    6.3450  -16.5920   25.6110 C   0  0  0  0  0  0  0  0  0  0  0  0
    5.1726  -16.7879   26.3418 C   0  0  0  0  0  0  0  0  0  0  0  0
    4.6075  -15.6144   26.6493 N   0  0  0  0  0  0  0  0  0  0  0  0
    5.3951  -14.6465   26.1295 C   0  0  0  0  0  0  0  0  0  0  0  0
    5.3162  -13.2767   26.1440 C   0  0  0  0  0  0  0  0  0  0  0  0
    6.2499  -12.4753   25.5551 C   0  0  0  0  0  0  0  0  0  0  0  0
    7.3199  -13.0773   24.9174 C   0  0  0  0  0  0  0  0  0  0  0  0
    7.4449  -14.4288   24.8734 C   0  0  0  0  0  0  0  0  0  0  0  0
    6.4754  -15.2242   25.4833 C   0  0  0  0  0  0  0  0  0  0  0  0
    8.1218  -17.6882   22.7842 C   0  0  0  0  0  0  0  0  0  0  0  0
    9.0737  -18.4799   22.5981 O   0  0  0  0  0  0  0  0  0  0  0  0
    9.7898  -11.8597   19.7519 N   0  0  0  0  0  0  0  0  0  0  0  0
   10.3199  -13.1058   19.3580 C   0  0  0  0  0  0  0  0  0  0  0  0
   10.5976  -13.2513   18.1275 O   0  0  0  0  0  0  0  0  0  0  0  0
   10.5477  -14.2057   20.3279 C   0  0  0  0  0  0  0  0  0  0  0  0
    9.2137  -14.6788   20.8254 C   0  0  0  0  0  0  0  0  0  0  0  0
    9.3863  -15.8984   21.6655 C   0  0  2  0  0  0  0  0  0  0  0  0
    8.1511  -16.4465   22.1227 N   0  0  0  0  0  0  0  0  0  0  0  0
   10.2850  -15.7036   22.8366 C   0  0  0  0  0  0  0  0  0  0  0  0
   11.4553  -15.3158   22.6205 O   0  0  0  0  0  0  0  0  0  0  0  0
    9.9990  -14.7532   28.9432 C   0  0  0  0  0  0  0  0  0  0  0  0
   10.8244  -14.9764   27.6933 C   0  0  2  0  0  0  0  0  0  0  0  0
   12.0047  -14.0902   27.5622 C   0  0  0  0  0  0  0  0  0  0  0  0
   10.0731  -15.2502   26.4665 C   0  0  0  0  0  0  0  0  0  0  0  0
   10.8125  -15.6447   25.2497 C   0  0  2  0  0  0  0  0  0  0  0  0
    9.8974  -15.9284   24.1573 N   0  0  0  0  0  0  0  0  0  0  0  0
   11.6188  -16.8588   25.4368 C   0  0  0  0  0  0  0  0  0  0  0  0
   11.3621  -18.1079   24.9027 O   0  0  0  0  0  0  0  0  0  0  0  0
   12.6754  -16.8113   26.1655 O   0  0  0  0  0  0  0  0  0  0  0  0
  2  1  1  1
  3  2  1  0
  4  3  1  0
  5  4  2  0
  6  7  1  0
  6  5  1  0
  7 12  2  0
  8  7  1  0
  8  9  2  0
  9 10  1  0
 10 11  2  0
 12  4  1  0
 12 11  1  0
 13  2  1  0
 14 13  2  0
 16 17  2  0
 16 15  1  0
 18 16  1  0
 19 18  1  0
 20 21  1  0
 20 19  1  1
 21 13  1  0
 22 20  1  0
 23 22  2  0
 25 24  1  1
 25 27  1  0
 26 25  1  0
 28 27  1  1
 28 30  1  0
 28 29  1  0
 29 22  1  0
 30 31  1  0
 32 30  2  0
M  END
$$$$
