NSM.pdb
     RDKit          3D

 23 22  0  0  1  0  0  0  0  0999 V2000
   15.6192  -13.9866  -15.6829 N   0  0  0  0  0  0  0  0  0  0  0  0
   16.7181  -13.7681  -14.8257 C   0  0  0  0  0  0  0  0  0  0  0  0
   16.9248  -14.5841  -13.9000 O   0  0  0  0  0  0  0  0  0  0  0  0
   17.5755  -12.6019  -15.0452 C   0  0  0  0  0  0  0  0  0  0  0  0
   17.1057  -11.7521  -16.2196 C   0  0  2  0  0  0  0  0  0  0  0  0
   17.2413  -12.5329  -17.4328 N   0  0  0  0  0  0  0  0  0  0  0  0
   18.0037  -10.5605  -16.3746 C   0  0  0  0  0  0  0  0  0  0  0  0
   19.1234  -10.6706  -16.9002 O   0  0  0  0  0  0  0  0  0  0  0  0
   17.1300   -6.9307  -14.3198 O   0  0  0  0  0  0  0  0  0  0  0  0
   17.6188   -6.8156  -15.6304 C   0  0  0  0  0  0  0  0  0  0  0  0
   18.3639   -8.0723  -16.0147 C   0  0  2  0  0  0  0  0  0  0  0  0
   17.5868   -9.2659  -15.9181 N   0  0  0  0  0  0  0  0  0  0  0  0
   19.6338   -8.0982  -15.2413 C   0  0  0  0  0  0  0  0  0  0  0  0
   19.7171   -8.7639  -14.1834 O   0  0  0  0  0  0  0  0  0  0  0  0
   26.7825  -10.0325  -14.4107 C   0  0  0  0  0  0  0  0  0  0  0  0
   25.3349   -9.6977  -15.4578 S   0  0  0  0  0  0  0  0  0  0  0  0
   24.2293   -8.4981  -14.6134 C   0  0  0  0  0  0  0  0  0  0  0  0
   22.9824   -8.2816  -15.4074 C   0  0  0  0  0  0  0  0  0  0  0  0
   21.9953   -7.3309  -14.7890 C   0  0  2  0  0  0  0  0  0  0  0  0
   20.7929   -7.3911  -15.6434 N   0  0  0  0  0  0  0  0  0  0  0  0
   22.5589   -5.9567  -14.8145 C   0  0  0  0  0  0  0  0  0  0  0  0
   22.3494   -5.2322  -15.8252 O   0  0  0  0  0  0  0  0  0  0  0  0
   23.3087   -5.3969  -13.7987 O   0  0  0  0  0  0  0  0  0  0  0  0
  2  1  1  0
  3  2  2  0
  4  2  1  0
  4  5  1  0
  5  6  1  6
  7  5  1  0
  7 12  1  0
  8  7  2  0
 11 10  1  1
 10  9  1  0
 11 12  1  0
 11 13  1  0
 13 20  1  0
 14 13  2  0
 15 16  1  0
 17 16  1  0
 18 17  1  0
 19 18  1  6
 20 19  1  0
 21 19  1  0
 21 23  1  0
 22 21  2  0
M  END
$$$$
