NSM.pdb
     RDKit          3D

 23 22  0  0  1  0  0  0  0  0999 V2000
   13.4464   -9.6359  -15.4498 N   0  0  0  0  0  0  0  0  0  0  0  0
   14.3960  -10.1704  -14.5538 C   0  0  0  0  0  0  0  0  0  0  0  0
   14.0119  -11.0047  -13.7042 O   0  0  0  0  0  0  0  0  0  0  0  0
   15.7907   -9.7348  -14.6463 C   0  0  0  0  0  0  0  0  0  0  0  0
   16.6771  -10.4103  -13.6071 C   0  0  2  0  0  0  0  0  0  0  0  0
   16.0115  -11.6136  -13.1501 N   0  0  0  0  0  0  0  0  0  0  0  0
   16.8226   -9.5198  -12.4086 C   0  0  0  0  0  0  0  0  0  0  0  0
   16.3403   -9.8446  -11.3113 O   0  0  0  0  0  0  0  0  0  0  0  0
   17.8344   -5.4635  -12.9294 O   0  0  0  0  0  0  0  0  0  0  0  0
   18.4363   -6.0833  -11.8232 C   0  0  0  0  0  0  0  0  0  0  0  0
   17.6643   -7.3256  -11.4455 C   0  0  2  0  0  0  0  0  0  0  0  0
   17.5236   -8.2718  -12.5052 N   0  0  0  0  0  0  0  0  0  0  0  0
   16.3813   -6.8905  -10.8322 C   0  0  0  0  0  0  0  0  0  0  0  0
   15.3582   -6.7455  -11.5404 O   0  0  0  0  0  0  0  0  0  0  0  0
   12.0710   -7.0951   -4.2675 C   0  0  0  0  0  0  0  0  0  0  0  0
   13.6344   -7.4136   -5.1382 S   0  0  0  0  0  0  0  0  0  0  0  0
   13.6374   -6.5204   -6.7434 C   0  0  0  0  0  0  0  0  0  0  0  0
   14.8761   -6.8331   -7.5180 C   0  0  0  0  0  0  0  0  0  0  0  0
   14.9563   -6.1848   -8.8722 C   0  0  2  0  0  0  0  0  0  0  0  0
   16.2434   -6.6212   -9.4488 N   0  0  0  0  0  0  0  0  0  0  0  0
   14.9566   -4.7084   -8.7077 C   0  0  0  0  0  0  0  0  0  0  0  0
   13.8743   -4.1285   -8.4201 O   0  0  0  0  0  0  0  0  0  0  0  0
   16.0701   -3.9034   -8.8464 O   0  0  0  0  0  0  0  0  0  0  0  0
  2  1  1  0
  3  2  2  0
  4  2  1  0
  4  5  1  0
  5  6  1  1
  7  5  1  0
  7 12  1  0
  8  7  2  0
 11 10  1  6
 10  9  1  0
 11 12  1  0
 11 13  1  0
 13 20  1  0
 14 13  2  0
 15 16  1  0
 17 16  1  0
 18 17  1  0
 19 18  1  1
 20 19  1  0
 21 19  1  0
 21 23  1  0
 22 21  2  0
M  END
$$$$
