NSM.pdb
     RDKit          3D

 23 22  0  0  1  0  0  0  0  0999 V2000
   28.5803  -22.1921  -17.7794 N   0  0  0  0  0  0  0  0  0  0  0  0
   28.6868  -20.8144  -17.4949 C   0  0  0  0  0  0  0  0  0  0  0  0
   29.2789  -20.0791  -18.3161 O   0  0  0  0  0  0  0  0  0  0  0  0
   28.1053  -20.2928  -16.2568 C   0  0  0  0  0  0  0  0  0  0  0  0
   27.5604  -21.4002  -15.3629 C   0  0  2  0  0  0  0  0  0  0  0  0
   26.3386  -21.9067  -15.9548 N   0  0  0  0  0  0  0  0  0  0  0  0
   27.1856  -20.8340  -14.0253 C   0  0  0  0  0  0  0  0  0  0  0  0
   28.0399  -20.3054  -13.2952 O   0  0  0  0  0  0  0  0  0  0  0  0
   23.1905  -21.2723  -12.5465 O   0  0  0  0  0  0  0  0  0  0  0  0
   23.8333  -20.0344  -12.3907 C   0  0  0  0  0  0  0  0  0  0  0  0
   25.3316  -20.2272  -12.3990 C   0  0  2  0  0  0  0  0  0  0  0  0
   25.8296  -20.8913  -13.5604 N   0  0  0  0  0  0  0  0  0  0  0  0
   25.7113  -20.8673  -11.1114 C   0  0  0  0  0  0  0  0  0  0  0  0
   26.0000  -22.0856  -11.0712 O   0  0  0  0  0  0  0  0  0  0  0  0
   28.3589  -19.6630   -3.7622 C   0  0  0  0  0  0  0  0  0  0  0  0
   27.8619  -19.0051   -5.3821 S   0  0  0  0  0  0  0  0  0  0  0  0
   27.0269  -20.3234   -6.3514 C   0  0  0  0  0  0  0  0  0  0  0  0
   26.7167  -19.8456   -7.7326 C   0  0  0  0  0  0  0  0  0  0  0  0
   26.0134  -20.8472   -8.6058 C   0  0  2  0  0  0  0  0  0  0  0  0
   25.7674  -20.1573   -9.8875 N   0  0  0  0  0  0  0  0  0  0  0  0
   24.7178  -21.2165   -7.9796 C   0  0  0  0  0  0  0  0  0  0  0  0
   23.6551  -20.7211   -8.4438 O   0  0  0  0  0  0  0  0  0  0  0  0
   24.5809  -22.0774   -6.9085 O   0  0  0  0  0  0  0  0  0  0  0  0
  2  1  1  0
  3  2  2  0
  4  2  1  0
  4  5  1  0
  5  6  1  6
  7  5  1  0
  7 12  1  0
  8  7  2  0
 11 10  1  6
 10  9  1  0
 11 12  1  0
 11 13  1  0
 13 20  1  0
 14 13  2  0
 15 16  1  0
 17 16  1  0
 18 17  1  0
 19 18  1  1
 20 19  1  0
 21 19  1  0
 21 23  1  0
 22 21  2  0
M  END
$$$$
