NSM.pdb
     RDKit          3D

 23 22  0  0  1  0  0  0  0  0999 V2000
   15.0575  -15.1660  -15.2231 N   0  0  0  0  0  0  0  0  0  0  0  0
   15.8267  -14.4753  -14.2633 C   0  0  0  0  0  0  0  0  0  0  0  0
   15.5722  -14.6560  -13.0516 O   0  0  0  0  0  0  0  0  0  0  0  0
   16.8907  -13.5755  -14.7124 C   0  0  0  0  0  0  0  0  0  0  0  0
   16.8862  -13.3846  -16.2242 C   0  0  2  0  0  0  0  0  0  0  0  0
   17.3198  -14.6210  -16.8431 N   0  0  0  0  0  0  0  0  0  0  0  0
   17.8916  -12.3388  -16.6063 C   0  0  0  0  0  0  0  0  0  0  0  0
   19.0438  -12.6560  -16.9441 O   0  0  0  0  0  0  0  0  0  0  0  0
   17.0523   -8.2725  -15.7481 O   0  0  0  0  0  0  0  0  0  0  0  0
   17.7865   -8.5145  -16.9196 C   0  0  0  0  0  0  0  0  0  0  0  0
   18.4457   -9.8716  -16.8434 C   0  0  2  0  0  0  0  0  0  0  0  0
   17.5423  -10.9474  -16.5897 N   0  0  0  0  0  0  0  0  0  0  0  0
   19.5734   -9.7720  -15.8791 C   0  0  0  0  0  0  0  0  0  0  0  0
   19.4101  -10.0923  -14.6791 O   0  0  0  0  0  0  0  0  0  0  0  0
   27.2577  -10.7958  -15.1031 C   0  0  0  0  0  0  0  0  0  0  0  0
   25.8199  -10.5244  -16.1815 S   0  0  0  0  0  0  0  0  0  0  0  0
   24.4347   -9.8282  -15.1962 C   0  0  0  0  0  0  0  0  0  0  0  0
   23.1718   -9.8212  -15.9943 C   0  0  0  0  0  0  0  0  0  0  0  0
   21.9719   -9.2693  -15.2757 C   0  0  2  0  0  0  0  0  0  0  0  0
   20.8637   -9.3213  -16.2495 N   0  0  0  0  0  0  0  0  0  0  0  0
   22.2372   -7.8583  -14.8944 C   0  0  0  0  0  0  0  0  0  0  0  0
   21.9530   -6.9432  -15.7143 O   0  0  0  0  0  0  0  0  0  0  0  0
   22.7804   -7.4598  -13.6889 O   0  0  0  0  0  0  0  0  0  0  0  0
  2  1  1  0
  3  2  2  0
  4  2  1  0
  4  5  1  0
  5  6  1  6
  7  5  1  0
  7 12  1  0
  8  7  2  0
 11 10  1  1
 10  9  1  0
 11 12  1  0
 11 13  1  0
 13 20  1  0
 14 13  2  0
 15 16  1  0
 17 16  1  0
 18 17  1  0
 19 18  1  6
 20 19  1  0
 21 19  1  0
 21 23  1  0
 22 21  2  0
M  END
$$$$
