NSM.pdb
     RDKit          3D

 23 22  0  0  1  0  0  0  0  0999 V2000
   17.7031  -11.2220  -20.6562 N   0  0  0  0  0  0  0  0  0  0  0  0
   18.3822  -11.8146  -19.5708 C   0  0  0  0  0  0  0  0  0  0  0  0
   18.6509  -13.0352  -19.6293 O   0  0  0  0  0  0  0  0  0  0  0  0
   18.7482  -10.9883  -18.4191 C   0  0  0  0  0  0  0  0  0  0  0  0
   19.2273  -11.8232  -17.2378 C   0  0  2  0  0  0  0  0  0  0  0  0
   18.0669  -12.3618  -16.5573 N   0  0  0  0  0  0  0  0  0  0  0  0
   19.9341  -10.9441  -16.2489 C   0  0  0  0  0  0  0  0  0  0  0  0
   19.3012  -10.1416  -15.5434 O   0  0  0  0  0  0  0  0  0  0  0  0
   24.1295   -9.9220  -13.9498 O   0  0  0  0  0  0  0  0  0  0  0  0
   23.5112  -10.7179  -14.9266 C   0  0  0  0  0  0  0  0  0  0  0  0
   22.1327  -10.1808  -15.2320 C   0  0  2  0  0  0  0  0  0  0  0  0
   21.3591  -11.0122  -16.0969 N   0  0  0  0  0  0  0  0  0  0  0  0
   22.2887   -8.7782  -15.7010 C   0  0  0  0  0  0  0  0  0  0  0  0
   22.3990   -8.5282  -16.9236 O   0  0  0  0  0  0  0  0  0  0  0  0
   19.3174   -2.6582  -18.0280 C   0  0  0  0  0  0  0  0  0  0  0  0
   19.3739   -4.3044  -17.2595 S   0  0  0  0  0  0  0  0  0  0  0  0
   21.0304   -4.5789  -16.5145 C   0  0  0  0  0  0  0  0  0  0  0  0
   21.1551   -5.9791  -16.0084 C   0  0  0  0  0  0  0  0  0  0  0  0
   22.4541   -6.2891  -15.3177 C   0  0  2  0  0  0  0  0  0  0  0  0
   22.3211   -7.6718  -14.8179 N   0  0  0  0  0  0  0  0  0  0  0  0
   22.6331   -5.3585  -14.1737 C   0  0  0  0  0  0  0  0  0  0  0  0
   22.2969   -5.7413  -13.0201 O   0  0  0  0  0  0  0  0  0  0  0  0
   23.1498   -4.0817  -14.2739 O   0  0  0  0  0  0  0  0  0  0  0  0
  2  1  1  0
  3  2  2  0
  4  2  1  0
  4  5  1  0
  5  6  1  1
  7  5  1  0
  7 12  1  0
  8  7  2  0
 11 10  1  6
 10  9  1  0
 11 12  1  0
 11 13  1  0
 13 20  1  0
 14 13  2  0
 15 16  1  0
 17 16  1  0
 18 17  1  0
 19 18  1  1
 20 19  1  0
 21 19  1  0
 21 23  1  0
 22 21  2  0
M  END
$$$$
