NSM.pdb
     RDKit          3D

 23 22  0  0  1  0  0  0  0  0999 V2000
   26.7097  -32.5112   -9.4467 N   0  0  0  0  0  0  0  0  0  0  0  0
   25.9190  -33.5346   -8.8829 C   0  0  0  0  0  0  0  0  0  0  0  0
   26.2037  -34.7238   -9.1480 O   0  0  0  0  0  0  0  0  0  0  0  0
   24.7988  -33.1749   -8.0117 C   0  0  0  0  0  0  0  0  0  0  0  0
   23.4518  -33.3377   -8.7054 C   0  0  2  0  0  0  0  0  0  0  0  0
   23.3208  -32.2937   -9.7017 N   0  0  0  0  0  0  0  0  0  0  0  0
   22.3434  -33.1277   -7.7167 C   0  0  0  0  0  0  0  0  0  0  0  0
   21.9546  -31.9839   -7.4288 O   0  0  0  0  0  0  0  0  0  0  0  0
   20.7738  -36.3370   -5.2346 O   0  0  0  0  0  0  0  0  0  0  0  0
   19.9072  -35.4840   -5.9356 C   0  0  0  0  0  0  0  0  0  0  0  0
   20.5882  -34.1617   -6.1999 C   0  0  2  0  0  0  0  0  0  0  0  0
   21.7077  -34.2461   -7.0816 N   0  0  0  0  0  0  0  0  0  0  0  0
   20.8848  -33.5359   -4.8839 C   0  0  0  0  0  0  0  0  0  0  0  0
   21.9869  -32.9750   -4.6837 O   0  0  0  0  0  0  0  0  0  0  0  0
   20.6577  -27.5340   -0.9905 C   0  0  0  0  0  0  0  0  0  0  0  0
   20.3911  -28.6605   -2.3918 S   0  0  0  0  0  0  0  0  0  0  0  0
   20.4117  -30.3983   -1.7966 C   0  0  0  0  0  0  0  0  0  0  0  0
   20.2955  -31.3493   -2.9429 C   0  0  0  0  0  0  0  0  0  0  0  0
   20.2384  -32.8014   -2.5573 C   0  0  2  0  0  0  0  0  0  0  0  0
   19.9643  -33.5367   -3.8078 N   0  0  0  0  0  0  0  0  0  0  0  0
   19.1218  -33.0090   -1.5998 C   0  0  0  0  0  0  0  0  0  0  0  0
   17.9967  -33.3640   -2.0454 O   0  0  0  0  0  0  0  0  0  0  0  0
   19.2191  -32.8419   -0.2324 O   0  0  0  0  0  0  0  0  0  0  0  0
  2  1  1  0
  3  2  2  0
  4  2  1  0
  4  5  1  0
  5  6  1  6
  7  5  1  0
  7 12  1  0
  8  7  2  0
 11 10  1  1
 10  9  1  0
 11 12  1  0
 11 13  1  0
 13 20  1  0
 14 13  2  0
 15 16  1  0
 17 16  1  0
 18 17  1  0
 19 18  1  6
 20 19  1  0
 21 19  1  0
 21 23  1  0
 22 21  2  0
M  END
$$$$
