NSM.pdb
     RDKit          3D

 23 22  0  0  1  0  0  0  0  0999 V2000
   25.0339  -20.6392   -9.5000 N   0  0  0  0  0  0  0  0  0  0  0  0
   26.3408  -20.8741   -9.9766 C   0  0  0  0  0  0  0  0  0  0  0  0
   27.1674  -21.4171   -9.2101 O   0  0  0  0  0  0  0  0  0  0  0  0
   26.6856  -20.4780  -11.3432 C   0  0  0  0  0  0  0  0  0  0  0  0
   25.5819  -19.6611  -12.0039 C   0  0  2  0  0  0  0  0  0  0  0  0
   24.3621  -20.4431  -11.9889 N   0  0  0  0  0  0  0  0  0  0  0  0
   25.9207  -19.4236  -13.4459 C   0  0  0  0  0  0  0  0  0  0  0  0
   27.0541  -19.0408  -13.7794 O   0  0  0  0  0  0  0  0  0  0  0  0
   22.8449  -19.1166  -16.3816 O   0  0  0  0  0  0  0  0  0  0  0  0
   23.9945  -19.8367  -16.7418 C   0  0  0  0  0  0  0  0  0  0  0  0
   25.1556  -19.4246  -15.8677 C   0  0  2  0  0  0  0  0  0  0  0  0
   24.9406  -19.6343  -14.4721 N   0  0  0  0  0  0  0  0  0  0  0  0
   25.5230  -18.0306  -16.2330 C   0  0  0  0  0  0  0  0  0  0  0  0
   24.8780  -17.0632  -15.7668 O   0  0  0  0  0  0  0  0  0  0  0  0
   31.5928  -16.5334  -17.3336 C   0  0  0  0  0  0  0  0  0  0  0  0
   30.8717  -15.2833  -18.4385 S   0  0  0  0  0  0  0  0  0  0  0  0
   29.0883  -15.0748  -18.0504 C   0  0  0  0  0  0  0  0  0  0  0  0
   28.4628  -16.3915  -17.7231 C   0  0  0  0  0  0  0  0  0  0  0  0
   27.0052  -16.3271  -17.3604 C   0  0  2  0  0  0  0  0  0  0  0  0
   26.5944  -17.7221  -17.1059 N   0  0  0  0  0  0  0  0  0  0  0  0
   26.2393  -15.7819  -18.5107 C   0  0  0  0  0  0  0  0  0  0  0  0
   26.2533  -14.5376  -18.7155 O   0  0  0  0  0  0  0  0  0  0  0  0
   25.4987  -16.5441  -19.3926 O   0  0  0  0  0  0  0  0  0  0  0  0
  2  1  1  0
  3  2  2  0
  4  2  1  0
  4  5  1  0
  5  6  1  6
  7  5  1  0
  7 12  1  0
  8  7  2  0
 11 10  1  6
 10  9  1  0
 11 12  1  0
 11 13  1  0
 13 20  1  0
 14 13  2  0
 15 16  1  0
 17 16  1  0
 18 17  1  0
 19 18  1  6
 20 19  1  0
 21 19  1  0
 21 23  1  0
 22 21  2  0
M  END
$$$$
