RWF.pdb
     RDKit          3D

 37 39  0  0  1  0  0  0  0  0999 V2000
    7.6851  -14.3791   15.4517 N   0  0  0  0  0  0  0  0  0  0  0  0
    8.7333  -13.9064   16.2850 C   0  0  0  0  0  0  0  0  0  0  0  0
    8.8384  -12.6304   16.4791 N   0  0  0  0  0  0  0  0  0  0  0  0
    9.6674  -14.7820   16.9100 N   0  0  0  0  0  0  0  0  0  0  0  0
    9.3417  -16.1953   17.1018 C   0  0  0  0  0  0  0  0  0  0  0  0
    8.6838  -16.4325   18.4289 C   0  0  0  0  0  0  0  0  0  0  0  0
    9.4043  -15.7542   19.5780 C   0  0  0  0  0  0  0  0  0  0  0  0
    9.7052  -16.8242   20.5961 C   0  0  2  0  0  0  0  0  0  0  0  0
    8.6149  -17.7560   20.6227 N   0  0  0  0  0  0  0  0  0  0  0  0
    9.9534  -16.3077   21.9481 C   0  0  0  0  0  0  0  0  0  0  0  0
   10.8359  -15.4152   22.1487 O   0  0  0  0  0  0  0  0  0  0  0  0
    9.6259  -12.2248   17.0235 N   0  0  0  0  0  0  0  0  0  0  0  0
    9.2504  -16.7497   23.1023 C   0  0  1  0  0  0  0  0  0  0  0  0
    9.5269  -16.2545   24.4379 C   0  0  0  0  0  0  0  0  0  0  0  0
    8.2712  -16.4691   25.2582 C   0  0  0  0  0  0  0  0  0  0  0  0
    7.1920  -15.5221   24.8686 C   0  0  0  0  0  0  0  0  0  0  0  0
    6.1125  -15.7771   24.0372 N   0  0  0  0  0  0  0  0  0  0  0  0
    5.3674  -14.6402   23.9450 C   0  0  0  0  0  0  0  0  0  0  0  0
    5.9112  -13.6700   24.6727 C   0  0  0  0  0  0  0  0  0  0  0  0
    5.5332  -12.3630   24.8941 C   0  0  0  0  0  0  0  0  0  0  0  0
    6.2844  -11.5486   25.7068 C   0  0  0  0  0  0  0  0  0  0  0  0
    7.4162  -12.0671   26.2903 C   0  0  0  0  0  0  0  0  0  0  0  0
    7.7900  -13.3691   26.0678 C   0  0  0  0  0  0  0  0  0  0  0  0
    7.0556  -14.2074   25.2576 C   0  0  0  0  0  0  0  0  0  0  0  0
   10.7158  -16.9166   25.0322 O   0  0  0  0  0  0  0  0  0  0  0  0
   11.8577  -16.7021   24.5491 N   0  0  0  0  0  0  0  0  0  0  0  0
   10.6466  -17.8030   26.1431 C   0  0  1  0  0  0  0  0  0  0  0  0
   11.8353  -18.3493   26.7951 C   0  0  0  0  0  0  0  0  0  0  0  0
   12.7229  -17.2362   27.2836 C   0  0  0  0  0  0  0  0  0  0  0  0
   12.0628  -16.3283   28.2477 C   0  0  0  0  0  0  0  0  0  0  0  0
   11.7547  -15.0128   27.8784 C   0  0  0  0  0  0  0  0  0  0  0  0
   11.1351  -14.1739   28.7812 C   0  0  0  0  0  0  0  0  0  0  0  0
   10.7978  -14.5915   30.0689 C   0  0  0  0  0  0  0  0  0  0  0  0
   11.1100  -15.8844   30.4058 C   0  0  0  0  0  0  0  0  0  0  0  0
   11.7268  -16.7229   29.5100 C   0  0  0  0  0  0  0  0  0  0  0  0
   11.4463  -19.3199   27.8130 O   0  0  0  0  0  0  0  0  0  0  0  0
   10.2218  -19.5918   28.0525 O   0  0  0  0  0  0  0  0  0  0  0  0
  2  1  1  0
  3  2  2  0
  4  2  1  0
  5  4  1  0
  6  7  1  0
  6  5  1  0
  8 10  1  0
  8  7  1  0
  8  9  1  1
 10 12  1  0
 11 10  2  0
 12 13  1  0
 13 24  1  0
 13 14  1  1
 14 15  1  0
 15 23  1  0
 15 16  2  0
 16 17  1  0
 18 17  1  0
 18 19  2  0
 20 19  1  0
 21 20  2  0
 22 23  2  0
 22 21  1  0
 23 18  1  0
 24 25  2  0
 26 27  1  0
 26 24  1  0
 27 35  1  0
 27 28  1  1
 29 28  1  0
 30 29  2  0
 31 30  1  0
 32 31  2  0
 32 33  1  0
 33 34  2  0
 34 29  1  0
 35 36  2  0
 35 37  1  0
M  END
$$$$
