RWF.pdb
     RDKit          3D

 37 39  0  0  1  0  0  0  0  0999 V2000
   11.2679  -15.5131   13.4346 N   0  0  0  0  0  0  0  0  0  0  0  0
   12.3132  -16.2167   14.0895 C   0  0  0  0  0  0  0  0  0  0  0  0
   13.4931  -16.2038   13.5563 N   0  0  0  0  0  0  0  0  0  0  0  0
   12.1094  -16.9321   15.3047 N   0  0  0  0  0  0  0  0  0  0  0  0
   10.7812  -16.9881   15.9155 C   0  0  0  0  0  0  0  0  0  0  0  0
   10.7970  -17.7720   17.1945 C   0  0  0  0  0  0  0  0  0  0  0  0
   10.6388  -16.9013   18.4260 C   0  0  0  0  0  0  0  0  0  0  0  0
   10.8201  -17.8006   19.6219 C   0  0  2  0  0  0  0  0  0  0  0  0
    9.8597  -18.8638   19.5500 N   0  0  0  0  0  0  0  0  0  0  0  0
   10.7029  -17.1085   20.9116 C   0  0  0  0  0  0  0  0  0  0  0  0
   11.5188  -16.1869   21.2287 O   0  0  0  0  0  0  0  0  0  0  0  0
   14.2645  -16.7955   13.9249 N   0  0  0  0  0  0  0  0  0  0  0  0
    9.7011  -17.4037   21.8766 C   0  0  1  0  0  0  0  0  0  0  0  0
    9.5197  -16.6337   23.0930 C   0  0  0  0  0  0  0  0  0  0  0  0
    8.0286  -16.5591   23.3512 C   0  0  0  0  0  0  0  0  0  0  0  0
    7.3100  -15.8915   22.2326 C   0  0  0  0  0  0  0  0  0  0  0  0
    6.3003  -16.4255   21.4473 N   0  0  0  0  0  0  0  0  0  0  0  0
    5.9212  -15.4820   20.5404 C   0  0  0  0  0  0  0  0  0  0  0  0
    6.6337  -14.3718   20.7022 C   0  0  0  0  0  0  0  0  0  0  0  0
    6.6182  -13.1632   20.0394 C   0  0  0  0  0  0  0  0  0  0  0  0
    7.4750  -12.1548   20.4092 C   0  0  0  0  0  0  0  0  0  0  0  0
    8.3434  -12.3801   21.4511 C   0  0  0  0  0  0  0  0  0  0  0  0
    8.3565  -13.5848   22.1091 C   0  0  0  0  0  0  0  0  0  0  0  0
    7.5086  -14.6130   21.7590 C   0  0  0  0  0  0  0  0  0  0  0  0
   10.2664  -17.2253   24.2322 O   0  0  0  0  0  0  0  0  0  0  0  0
   10.6835  -18.4101   24.1584 N   0  0  0  0  0  0  0  0  0  0  0  0
   10.5487  -16.5205   25.4356 C   0  0  1  0  0  0  0  0  0  0  0  0
   11.2721  -17.1223   26.5541 C   0  0  0  0  0  0  0  0  0  0  0  0
   12.0039  -16.0638   27.3346 C   0  0  0  0  0  0  0  0  0  0  0  0
   11.1548  -14.9152   27.7206 C   0  0  0  0  0  0  0  0  0  0  0  0
   10.8470  -14.6887   29.0681 C   0  0  0  0  0  0  0  0  0  0  0  0
   10.0587  -13.6130   29.4206 C   0  0  0  0  0  0  0  0  0  0  0  0
    9.5476  -12.7273   28.4716 C   0  0  0  0  0  0  0  0  0  0  0  0
    9.8638  -12.9710   27.1588 C   0  0  0  0  0  0  0  0  0  0  0  0
   10.6483  -14.0407   26.8036 C   0  0  0  0  0  0  0  0  0  0  0  0
   10.3709  -17.9571   27.3417 O   0  0  0  0  0  0  0  0  0  0  0  0
   10.7905  -18.6736   28.3119 O   0  0  0  0  0  0  0  0  0  0  0  0
  2  1  1  0
  3  2  2  0
  4  2  1  0
  5  4  1  0
  6  7  1  0
  6  5  1  0
  8 10  1  0
  8  7  1  0
  8  9  1  1
 10 12  1  0
 11 10  2  0
 12 13  1  0
 13 24  1  0
 13 14  1  1
 14 15  1  0
 15 23  1  0
 15 16  2  0
 16 17  1  0
 18 17  1  0
 18 19  2  0
 20 19  1  0
 21 20  2  0
 22 23  2  0
 22 21  1  0
 23 18  1  0
 24 25  2  0
 26 27  1  0
 26 24  1  0
 27 35  1  0
 27 28  1  1
 29 28  1  0
 30 29  2  0
 31 30  1  0
 32 31  2  0
 32 33  1  0
 33 34  2  0
 34 29  1  0
 35 36  2  0
 35 37  1  0
M  END
$$$$
