RWF.pdb
     RDKit          3D

 37 39  0  0  1  0  0  0  0  0999 V2000
    8.1922  -17.1536   14.7644 N   0  0  0  0  0  0  0  0  0  0  0  0
    8.0321  -18.2829   15.6103 C   0  0  0  0  0  0  0  0  0  0  0  0
    7.1514  -19.1753   15.2866 N   0  0  0  0  0  0  0  0  0  0  0  0
    8.8015  -18.4661   16.7953 N   0  0  0  0  0  0  0  0  0  0  0  0
    9.7221  -17.4229   17.2475 C   0  0  0  0  0  0  0  0  0  0  0  0
   10.4674  -17.8437   18.4795 C   0  0  0  0  0  0  0  0  0  0  0  0
    9.5846  -17.9183   19.7104 C   0  0  0  0  0  0  0  0  0  0  0  0
   10.4633  -18.3651   20.8506 C   0  0  2  0  0  0  0  0  0  0  0  0
    9.9825  -19.6259   21.3375 N   0  0  0  0  0  0  0  0  0  0  0  0
   10.5428  -17.4010   21.9553 C   0  0  0  0  0  0  0  0  0  0  0  0
   11.4818  -16.5456   22.0021 O   0  0  0  0  0  0  0  0  0  0  0  0
    7.0032  -20.0288   15.8617 N   0  0  0  0  0  0  0  0  0  0  0  0
    9.6075  -17.3486   23.0249 C   0  0  1  0  0  0  0  0  0  0  0  0
    9.6090  -16.3019   24.0298 C   0  0  0  0  0  0  0  0  0  0  0  0
    8.1956  -16.2015   24.5662 C   0  0  0  0  0  0  0  0  0  0  0  0
    7.5146  -14.9664   24.0930 C   0  0  0  0  0  0  0  0  0  0  0  0
    7.0701  -14.6935   22.8087 N   0  0  0  0  0  0  0  0  0  0  0  0
    6.5053  -13.4536   22.8073 C   0  0  0  0  0  0  0  0  0  0  0  0
    6.5639  -12.9169   24.0218 C   0  0  0  0  0  0  0  0  0  0  0  0
    6.1338  -11.7031   24.5136 C   0  0  0  0  0  0  0  0  0  0  0  0
    6.3177  -11.3829   25.8371 C   0  0  0  0  0  0  0  0  0  0  0  0
    6.9380  -12.2985   26.6540 C   0  0  0  0  0  0  0  0  0  0  0  0
    7.3654  -13.5064   26.1611 C   0  0  0  0  0  0  0  0  0  0  0  0
    7.1939  -13.8531   24.8387 C   0  0  0  0  0  0  0  0  0  0  0  0
   10.6060  -16.5689   25.0973 O   0  0  0  0  0  0  0  0  0  0  0  0
   11.0828  -15.6121   25.7609 N   0  0  0  0  0  0  0  0  0  0  0  0
   11.0709  -17.8724   25.4282 C   0  0  1  0  0  0  0  0  0  0  0  0
   11.7996  -18.1634   26.6614 C   0  0  0  0  0  0  0  0  0  0  0  0
   10.9467  -17.8476   27.8606 C   0  0  0  0  0  0  0  0  0  0  0  0
   10.8033  -16.3987   28.1239 C   0  0  0  0  0  0  0  0  0  0  0  0
   11.9024  -15.6513   28.5658 C   0  0  0  0  0  0  0  0  0  0  0  0
   11.7621  -14.3000   28.8046 C   0  0  0  0  0  0  0  0  0  0  0  0
   10.5480  -13.6378   28.6203 C   0  0  0  0  0  0  0  0  0  0  0  0
    9.4870  -14.3922   28.1868 C   0  0  0  0  0  0  0  0  0  0  0  0
    9.6225  -15.7378   27.9478 C   0  0  0  0  0  0  0  0  0  0  0  0
   12.3283  -19.5230   26.6212 O   0  0  0  0  0  0  0  0  0  0  0  0
   12.1625  -20.2814   25.6073 O   0  0  0  0  0  0  0  0  0  0  0  0
  2  1  1  0
  3  2  2  0
  4  2  1  0
  5  4  1  0
  6  7  1  0
  6  5  1  0
  8 10  1  0
  8  7  1  0
  8  9  1  1
 10 12  1  0
 11 10  2  0
 12 13  1  0
 13 24  1  0
 13 14  1  6
 14 15  1  0
 15 23  1  0
 15 16  2  0
 16 17  1  0
 18 17  1  0
 18 19  2  0
 20 19  1  0
 21 20  2  0
 22 23  2  0
 22 21  1  0
 23 18  1  0
 24 25  2  0
 26 27  1  0
 26 24  1  0
 27 35  1  0
 27 28  1  1
 29 28  1  0
 30 29  2  0
 31 30  1  0
 32 31  2  0
 32 33  1  0
 33 34  2  0
 34 29  1  0
 35 36  2  0
 35 37  1  0
M  END
$$$$
