RWF.pdb
     RDKit          3D

 37 39  0  0  1  0  0  0  0  0999 V2000
   10.9173  -15.3997   13.3782 N   0  0  0  0  0  0  0  0  0  0  0  0
   11.6926  -16.5852   13.4791 C   0  0  0  0  0  0  0  0  0  0  0  0
   12.8428  -16.6216   12.8855 N   0  0  0  0  0  0  0  0  0  0  0  0
   11.2509  -17.7284   14.2056 N   0  0  0  0  0  0  0  0  0  0  0  0
   10.3097  -17.5803   15.3158 C   0  0  0  0  0  0  0  0  0  0  0  0
   10.9746  -16.9927   16.5254 C   0  0  0  0  0  0  0  0  0  0  0  0
   10.0088  -16.7308   17.6649 C   0  0  0  0  0  0  0  0  0  0  0  0
   10.3919  -17.6646   18.7843 C   0  0  2  0  0  0  0  0  0  0  0  0
    9.3726  -18.6647   18.9205 N   0  0  0  0  0  0  0  0  0  0  0  0
   10.6084  -16.9939   20.0725 C   0  0  0  0  0  0  0  0  0  0  0  0
   11.5532  -16.1558   20.2157 O   0  0  0  0  0  0  0  0  0  0  0  0
   13.4524  -17.4627   12.9290 N   0  0  0  0  0  0  0  0  0  0  0  0
    9.8057  -17.2206   21.2240 C   0  0  1  0  0  0  0  0  0  0  0  0
   10.0266  -16.5473   22.4903 C   0  0  0  0  0  0  0  0  0  0  0  0
    8.6748  -16.4119   23.1611 C   0  0  0  0  0  0  0  0  0  0  0  0
    7.7409  -15.5827   22.3529 C   0  0  0  0  0  0  0  0  0  0  0  0
    6.3583  -15.5451   22.4456 N   0  0  0  0  0  0  0  0  0  0  0  0
    5.8932  -14.6548   21.5251 C   0  0  0  0  0  0  0  0  0  0  0  0
    6.9034  -14.1197   20.8471 C   0  0  0  0  0  0  0  0  0  0  0  0
    6.9397  -13.1871   19.8326 C   0  0  0  0  0  0  0  0  0  0  0  0
    8.1394  -12.7937   19.2905 C   0  0  0  0  0  0  0  0  0  0  0  0
    9.2962  -13.3503   19.7827 C   0  0  0  0  0  0  0  0  0  0  0  0
    9.2567  -14.2789   20.7930 C   0  0  0  0  0  0  0  0  0  0  0  0
    8.0680  -14.6913   21.3545 C   0  0  0  0  0  0  0  0  0  0  0  0
   11.0106  -17.2736   23.3325 O   0  0  0  0  0  0  0  0  0  0  0  0
   12.1624  -17.5104   22.8848 N   0  0  0  0  0  0  0  0  0  0  0  0
   10.7284  -17.7325   24.6494 C   0  0  1  0  0  0  0  0  0  0  0  0
   10.7285  -16.8477   25.8129 C   0  0  0  0  0  0  0  0  0  0  0  0
    9.8296  -15.6649   25.5714 C   0  0  0  0  0  0  0  0  0  0  0  0
    9.8586  -14.6633   26.6600 C   0  0  0  0  0  0  0  0  0  0  0  0
    9.0399  -13.5287   26.5948 C   0  0  0  0  0  0  0  0  0  0  0  0
    9.0691  -12.6017   27.6159 C   0  0  0  0  0  0  0  0  0  0  0  0
    9.8960  -12.7527   28.7294 C   0  0  0  0  0  0  0  0  0  0  0  0
   10.6880  -13.8725   28.7694 C   0  0  0  0  0  0  0  0  0  0  0  0
   10.6618  -14.7979   27.7550 C   0  0  0  0  0  0  0  0  0  0  0  0
   10.4331  -17.6103   27.0215 O   0  0  0  0  0  0  0  0  0  0  0  0
    9.3356  -18.2469   27.1659 O   0  0  0  0  0  0  0  0  0  0  0  0
  2  1  1  0
  3  2  2  0
  4  2  1  0
  5  4  1  0
  6  7  1  0
  6  5  1  0
  8 10  1  0
  8  7  1  0
  8  9  1  1
 10 12  1  0
 11 10  2  0
 12 13  1  0
 13 24  1  0
 13 14  1  1
 14 15  1  0
 15 23  1  0
 15 16  2  0
 16 17  1  0
 18 17  1  0
 18 19  2  0
 20 19  1  0
 21 20  2  0
 22 23  2  0
 22 21  1  0
 23 18  1  0
 24 25  2  0
 26 27  1  0
 26 24  1  0
 27 35  1  0
 27 28  1  1
 29 28  1  0
 30 29  2  0
 31 30  1  0
 32 31  2  0
 32 33  1  0
 33 34  2  0
 34 29  1  0
 35 36  2  0
 35 37  1  0
M  END
$$$$
