RWF.pdb
     RDKit          3D

 37 39  0  0  1  0  0  0  0  0999 V2000
    5.9515  -18.4345   16.3140 N   0  0  0  0  0  0  0  0  0  0  0  0
    6.6999  -19.5933   15.9769 C   0  0  0  0  0  0  0  0  0  0  0  0
    7.0771  -19.7472   14.7477 N   0  0  0  0  0  0  0  0  0  0  0  0
    7.0471  -20.5859   16.9381 N   0  0  0  0  0  0  0  0  0  0  0  0
    6.6039  -20.4575   18.3264 C   0  0  0  0  0  0  0  0  0  0  0  0
    7.7066  -19.9559   19.2112 C   0  0  0  0  0  0  0  0  0  0  0  0
    7.3146  -19.9020   20.6752 C   0  0  0  0  0  0  0  0  0  0  0  0
    8.4479  -19.2279   21.4053 C   0  0  2  0  0  0  0  0  0  0  0  0
    9.4744  -20.1970   21.6599 N   0  0  0  0  0  0  0  0  0  0  0  0
    8.0474  -18.5831   22.6624 C   0  0  0  0  0  0  0  0  0  0  0  0
    7.1769  -17.6569   22.6666 O   0  0  0  0  0  0  0  0  0  0  0  0
    7.6269  -20.5764   14.4459 N   0  0  0  0  0  0  0  0  0  0  0  0
    8.5831  -18.9313   23.9326 C   0  0  2  0  0  0  0  0  0  0  0  0
    8.1867  -18.2792   25.1667 C   0  0  0  0  0  0  0  0  0  0  0  0
    8.9015  -18.9950   26.2947 C   0  0  0  0  0  0  0  0  0  0  0  0
    8.6184  -18.3646   27.6122 C   0  0  0  0  0  0  0  0  0  0  0  0
    7.3942  -18.2838   28.2575 N   0  0  0  0  0  0  0  0  0  0  0  0
    7.5765  -17.6270   29.4372 C   0  0  0  0  0  0  0  0  0  0  0  0
    8.8518  -17.2825   29.5829 C   0  0  0  0  0  0  0  0  0  0  0  0
    9.5159  -16.6152   30.5900 C   0  0  0  0  0  0  0  0  0  0  0  0
   10.8665  -16.3802   30.4973 C   0  0  0  0  0  0  0  0  0  0  0  0
   11.5353  -16.8247   29.3813 C   0  0  0  0  0  0  0  0  0  0  0  0
   10.8711  -17.4888   28.3801 C   0  0  0  0  0  0  0  0  0  0  0  0
    9.5176  -17.7378   28.4471 C   0  0  0  0  0  0  0  0  0  0  0  0
    8.4825  -16.8243   25.1371 O   0  0  0  0  0  0  0  0  0  0  0  0
    7.5371  -15.9946   25.1078 N   0  0  0  0  0  0  0  0  0  0  0  0
    9.8021  -16.2920   25.1392 C   0  0  1  0  0  0  0  0  0  0  0  0
   10.1778  -15.1048   24.3738 C   0  0  0  0  0  0  0  0  0  0  0  0
   10.1234  -13.8800   25.2468 C   0  0  0  0  0  0  0  0  0  0  0  0
    8.7605  -13.5416   25.7130 C   0  0  0  0  0  0  0  0  0  0  0  0
    8.4645  -13.5413   27.0820 C   0  0  0  0  0  0  0  0  0  0  0  0
    7.1928  -13.2200   27.5092 C   0  0  0  0  0  0  0  0  0  0  0  0
    6.1731  -12.8901   26.6160 C   0  0  0  0  0  0  0  0  0  0  0  0
    6.4887  -12.8975   25.2806 C   0  0  0  0  0  0  0  0  0  0  0  0
    7.7535  -13.2166   24.8512 C   0  0  0  0  0  0  0  0  0  0  0  0
   11.4536  -15.3264   23.7008 O   0  0  0  0  0  0  0  0  0  0  0  0
   12.0725  -16.4407   23.7786 O   0  0  0  0  0  0  0  0  0  0  0  0
  2  1  1  0
  3  2  2  0
  4  2  1  0
  5  4  1  0
  6  7  1  0
  6  5  1  0
  8 10  1  0
  8  7  1  0
  8  9  1  1
 10 12  1  0
 11 10  2  0
 12 13  1  0
 13 24  1  0
 13 14  1  1
 14 15  1  0
 15 23  1  0
 15 16  2  0
 16 17  1  0
 18 17  1  0
 18 19  2  0
 20 19  1  0
 21 20  2  0
 22 23  2  0
 22 21  1  0
 23 18  1  0
 24 25  2  0
 26 27  1  0
 26 24  1  0
 27 35  1  0
 27 28  1  6
 29 28  1  0
 30 29  2  0
 31 30  1  0
 32 31  2  0
 32 33  1  0
 33 34  2  0
 34 29  1  0
 35 36  2  0
 35 37  1  0
M  END
$$$$
