RWF.pdb
     RDKit          3D

 37 39  0  0  1  0  0  0  0  0999 V2000
   11.5525  -16.6850   14.8834 N   0  0  0  0  0  0  0  0  0  0  0  0
   11.1394  -18.0264   14.6674 C   0  0  0  0  0  0  0  0  0  0  0  0
   10.6168  -18.3335   13.5231 N   0  0  0  0  0  0  0  0  0  0  0  0
   11.2786  -19.0388   15.6600 N   0  0  0  0  0  0  0  0  0  0  0  0
   11.8947  -18.7292   16.9504 C   0  0  0  0  0  0  0  0  0  0  0  0
   10.8614  -18.4133   17.9911 C   0  0  0  0  0  0  0  0  0  0  0  0
   11.3605  -17.4477   19.0487 C   0  0  0  0  0  0  0  0  0  0  0  0
   11.0135  -18.0491   20.3865 C   0  0  2  0  0  0  0  0  0  0  0  0
    9.9201  -18.9614   20.2130 N   0  0  0  0  0  0  0  0  0  0  0  0
   10.6779  -17.0580   21.4167 C   0  0  0  0  0  0  0  0  0  0  0  0
   11.4820  -16.1133   21.6930 O   0  0  0  0  0  0  0  0  0  0  0  0
   10.3540  -19.3117   13.2887 N   0  0  0  0  0  0  0  0  0  0  0  0
    9.4674  -17.0751   22.1625 C   0  0  1  0  0  0  0  0  0  0  0  0
    9.1000  -16.0329   23.1028 C   0  0  0  0  0  0  0  0  0  0  0  0
    7.5862  -15.9993   23.1569 C   0  0  0  0  0  0  0  0  0  0  0  0
    7.0953  -15.2292   24.3312 C   0  0  0  0  0  0  0  0  0  0  0  0
    6.5208  -15.7366   25.4862 N   0  0  0  0  0  0  0  0  0  0  0  0
    6.2147  -14.6915   26.3049 C   0  0  0  0  0  0  0  0  0  0  0  0
    6.5621  -13.5413   25.7369 C   0  0  0  0  0  0  0  0  0  0  0  0
    6.4574  -12.2349   26.1643 C   0  0  0  0  0  0  0  0  0  0  0  0
    6.9015  -11.2046   25.3710 C   0  0  0  0  0  0  0  0  0  0  0  0
    7.4499  -11.5077   24.1472 C   0  0  0  0  0  0  0  0  0  0  0  0
    7.5527  -12.8097   23.7244 C   0  0  0  0  0  0  0  0  0  0  0  0
    7.1154  -13.8618   24.4993 C   0  0  0  0  0  0  0  0  0  0  0  0
    9.7130  -16.2575   24.4366 O   0  0  0  0  0  0  0  0  0  0  0  0
    9.6374  -15.3628   25.3181 N   0  0  0  0  0  0  0  0  0  0  0  0
   10.3998  -17.4515   24.7931 C   0  0  1  0  0  0  0  0  0  0  0  0
   11.1220  -17.6025   26.0549 C   0  0  0  0  0  0  0  0  0  0  0  0
   10.1909  -17.3957   27.2192 C   0  0  0  0  0  0  0  0  0  0  0  0
   10.1287  -15.9943   27.6898 C   0  0  0  0  0  0  0  0  0  0  0  0
    8.9715  -15.2328   27.4828 C   0  0  0  0  0  0  0  0  0  0  0  0
    8.9194  -13.9285   27.9287 C   0  0  0  0  0  0  0  0  0  0  0  0
    9.9921  -13.3283   28.5887 C   0  0  0  0  0  0  0  0  0  0  0  0
   11.1137  -14.0955   28.7792 C   0  0  0  0  0  0  0  0  0  0  0  0
   11.1697  -15.3944   28.3369 C   0  0  0  0  0  0  0  0  0  0  0  0
   11.8519  -18.8661   26.0656 O   0  0  0  0  0  0  0  0  0  0  0  0
   11.7816  -19.6938   25.0957 O   0  0  0  0  0  0  0  0  0  0  0  0
  2  1  1  0
  3  2  2  0
  4  2  1  0
  5  4  1  0
  6  7  1  0
  6  5  1  0
  8 10  1  0
  8  7  1  0
  8  9  1  6
 10 12  1  0
 11 10  2  0
 12 13  1  0
 13 24  1  0
 13 14  1  6
 14 15  1  0
 15 23  1  0
 15 16  2  0
 16 17  1  0
 18 17  1  0
 18 19  2  0
 20 19  1  0
 21 20  2  0
 22 23  2  0
 22 21  1  0
 23 18  1  0
 24 25  2  0
 26 27  1  0
 26 24  1  0
 27 35  1  0
 27 28  1  6
 29 28  1  0
 30 29  2  0
 31 30  1  0
 32 31  2  0
 32 33  1  0
 33 34  2  0
 34 29  1  0
 35 36  2  0
 35 37  1  0
M  END
$$$$
