RWF.pdb
     RDKit          3D

 37 39  0  0  1  0  0  0  0  0999 V2000
    8.7238  -14.0501   15.3518 N   0  0  0  0  0  0  0  0  0  0  0  0
    9.0192  -15.0183   14.3559 C   0  0  0  0  0  0  0  0  0  0  0  0
    9.4073  -14.6058   13.1914 N   0  0  0  0  0  0  0  0  0  0  0  0
    8.9035  -16.4185   14.5923 N   0  0  0  0  0  0  0  0  0  0  0  0
    8.5464  -16.9168   15.9206 C   0  0  0  0  0  0  0  0  0  0  0  0
    9.7558  -17.3821   16.6765 C   0  0  0  0  0  0  0  0  0  0  0  0
   10.0194  -16.5718   17.9310 C   0  0  0  0  0  0  0  0  0  0  0  0
   10.4577  -17.5454   18.9948 C   0  0  2  0  0  0  0  0  0  0  0  0
    9.6261  -18.7122   18.9237 N   0  0  0  0  0  0  0  0  0  0  0  0
   10.4293  -16.9944   20.3556 C   0  0  0  0  0  0  0  0  0  0  0  0
   11.1548  -15.9981   20.6662 O   0  0  0  0  0  0  0  0  0  0  0  0
    9.6011  -15.2693   12.4147 N   0  0  0  0  0  0  0  0  0  0  0  0
    9.6155  -17.5137   21.3995 C   0  0  1  0  0  0  0  0  0  0  0  0
    9.6275  -16.9869   22.7515 C   0  0  0  0  0  0  0  0  0  0  0  0
    8.1839  -16.7554   23.1490 C   0  0  0  0  0  0  0  0  0  0  0  0
    7.4729  -15.8986   22.1623 C   0  0  0  0  0  0  0  0  0  0  0  0
    6.5870  -16.3103   21.1788 N   0  0  0  0  0  0  0  0  0  0  0  0
    6.1666  -15.2091   20.4955 C   0  0  0  0  0  0  0  0  0  0  0  0
    6.7354  -14.1136   20.9881 C   0  0  0  0  0  0  0  0  0  0  0  0
    6.6283  -12.7843   20.6392 C   0  0  0  0  0  0  0  0  0  0  0  0
    7.3373  -11.8255   21.3218 C   0  0  0  0  0  0  0  0  0  0  0  0
    8.1517  -12.2230   22.3557 C   0  0  0  0  0  0  0  0  0  0  0  0
    8.2564  -13.5476   22.7007 C   0  0  0  0  0  0  0  0  0  0  0  0
    7.5570  -14.5295   22.0334 C   0  0  0  0  0  0  0  0  0  0  0  0
   10.3374  -17.8957   23.6871 O   0  0  0  0  0  0  0  0  0  0  0  0
    9.9651  -19.0923   23.7996 N   0  0  0  0  0  0  0  0  0  0  0  0
   11.4419  -17.4906   24.4875 C   0  0  2  0  0  0  0  0  0  0  0  0
   11.2841  -16.7454   25.7350 C   0  0  0  0  0  0  0  0  0  0  0  0
   10.2598  -15.6555   25.5680 C   0  0  0  0  0  0  0  0  0  0  0  0
   10.0071  -14.8818   26.8037 C   0  0  0  0  0  0  0  0  0  0  0  0
    9.8021  -13.4978   26.7383 C   0  0  0  0  0  0  0  0  0  0  0  0
    9.5623  -12.7841   27.8941 C   0  0  0  0  0  0  0  0  0  0  0  0
    9.5154  -13.3973   29.1465 C   0  0  0  0  0  0  0  0  0  0  0  0
    9.7192  -14.7537   29.1835 C   0  0  0  0  0  0  0  0  0  0  0  0
    9.9580  -15.4679   28.0351 C   0  0  0  0  0  0  0  0  0  0  0  0
   11.0313  -17.6657   26.8390 O   0  0  0  0  0  0  0  0  0  0  0  0
    9.9383  -18.3190   26.9355 O   0  0  0  0  0  0  0  0  0  0  0  0
  2  1  1  0
  3  2  2  0
  4  2  1  0
  5  4  1  0
  6  7  1  0
  6  5  1  0
  8 10  1  0
  8  7  1  0
  8  9  1  1
 10 12  1  0
 11 10  2  0
 12 13  1  0
 13 24  1  0
 13 14  1  1
 14 15  1  0
 15 23  1  0
 15 16  2  0
 16 17  1  0
 18 17  1  0
 18 19  2  0
 20 19  1  0
 21 20  2  0
 22 23  2  0
 22 21  1  0
 23 18  1  0
 24 25  2  0
 26 27  1  0
 26 24  1  0
 27 35  1  0
 27 28  1  6
 29 28  1  0
 30 29  2  0
 31 30  1  0
 32 31  2  0
 32 33  1  0
 33 34  2  0
 34 29  1  0
 35 36  2  0
 35 37  1  0
M  END
$$$$
