NIE.pdb
     RDKit          3D

 26 25  0  0  1  0  0  0  0  0999 V2000
   16.2016  -15.1094  -12.0876 N   0  0  0  0  0  0  0  0  0  0  0  0
   16.9289  -14.1539  -12.8372 C   0  0  0  0  0  0  0  0  0  0  0  0
   17.9551  -14.5023  -13.4643 O   0  0  0  0  0  0  0  0  0  0  0  0
   16.4803  -12.7641  -12.8773 C   0  0  0  0  0  0  0  0  0  0  0  0
   15.2641  -12.6042  -11.9939 C   0  0  2  0  0  0  0  0  0  0  0  0
   14.1288  -13.1627  -12.6608 N   0  0  0  0  0  0  0  0  0  0  0  0
   15.0986  -11.1300  -11.7552 C   0  0  0  0  0  0  0  0  0  0  0  0
   14.6425  -10.3842  -12.6587 O   0  0  0  0  0  0  0  0  0  0  0  0
   11.7923   -9.6930   -8.4679 C   0  0  0  0  0  0  0  0  0  0  0  0
   12.7803   -9.6390   -9.6164 C   0  0  0  0  0  0  0  0  0  0  0  0
   14.0986   -9.0843   -9.2176 C   0  0  2  0  0  0  0  0  0  0  0  0
   13.9714   -7.7402   -8.5020 C   0  0  0  0  0  0  0  0  0  0  0  0
   15.1652   -9.0992  -10.2635 C   0  0  2  0  0  0  0  0  0  0  0  0
   15.4489  -10.5311  -10.5104 N   0  0  0  0  0  0  0  0  0  0  0  0
   16.4093   -8.3915   -9.9098 C   0  0  0  0  0  0  0  0  0  0  0  0
   17.0344   -8.7833   -8.8709 O   0  0  0  0  0  0  0  0  0  0  0  0
   16.9922   -7.3185  -10.6022 N   0  0  0  0  0  0  0  0  0  0  0  0
   18.0689   -6.4902  -10.0631 C   0  0  1  0  0  0  0  0  0  0  0  0
   19.3427   -6.7137  -10.8296 C   0  0  0  0  0  0  0  0  0  0  0  0
   19.4069   -6.0567  -12.1733 C   0  0  0  0  0  0  0  0  0  0  0  0
   20.5924   -6.4395  -12.9580 C   0  0  0  0  0  0  0  0  0  0  0  0
   20.6087   -6.4752  -14.1973 O   0  0  0  0  0  0  0  0  0  0  0  0
   17.6758   -5.0722  -10.0133 C   0  0  0  0  0  0  0  0  0  0  0  0
   16.7360   -4.5833  -10.6765 O   0  0  0  0  0  0  0  0  0  0  0  0
   21.8024   -6.7948  -12.3262 O   0  0  0  0  0  0  0  0  0  0  0  0
   18.3862   -4.2180   -9.1819 O   0  0  0  0  0  0  0  0  0  0  0  0
  2  1  1  0
  3  2  2  0
  4  2  1  0
  5  6  1  6
  5  4  1  0
  7  5  1  0
  8  7  2  0
  9 10  1  0
 11 12  1  6
 11 10  1  0
 11 13  1  0
 13 14  1  1
 14  7  1  0
 15 13  1  0
 15 16  2  0
 17 15  1  0
 18 17  1  0
 18 19  1  6
 19 20  1  0
 20 21  1  0
 21 25  1  0
 21 22  2  0
 23 18  1  0
 24 23  2  0
 26 23  1  0
M  END
$$$$
