NIE.pdb
     RDKit          3D

 26 25  0  0  1  0  0  0  0  0999 V2000
   19.9402  -12.5375  -20.3905 N   0  0  0  0  0  0  0  0  0  0  0  0
   19.2755  -11.4441  -19.7850 C   0  0  0  0  0  0  0  0  0  0  0  0
   18.3915  -10.8230  -20.4179 O   0  0  0  0  0  0  0  0  0  0  0  0
   19.6225  -11.0433  -18.4237 C   0  0  0  0  0  0  0  0  0  0  0  0
   20.7414  -11.9219  -17.9122 C   0  0  2  0  0  0  0  0  0  0  0  0
   20.1862  -13.1511  -17.4363 N   0  0  0  0  0  0  0  0  0  0  0  0
   21.4193  -11.1556  -16.8119 C   0  0  0  0  0  0  0  0  0  0  0  0
   20.8493  -10.9914  -15.7034 O   0  0  0  0  0  0  0  0  0  0  0  0
   26.4947  -11.8804  -15.5540 C   0  0  0  0  0  0  0  0  0  0  0  0
   25.0218  -11.5299  -15.4778 C   0  0  0  0  0  0  0  0  0  0  0  0
   24.7432  -10.1224  -15.8597 C   0  0  2  0  0  0  0  0  0  0  0  0
   25.6024   -9.1276  -15.0806 C   0  0  0  0  0  0  0  0  0  0  0  0
   23.3035   -9.7304  -15.9330 C   0  0  2  0  0  0  0  0  0  0  0  0
   22.7176  -10.5936  -16.9834 N   0  0  0  0  0  0  0  0  0  0  0  0
   23.0481   -8.3122  -16.2443 C   0  0  0  0  0  0  0  0  0  0  0  0
   23.4486   -7.8757  -17.3724 O   0  0  0  0  0  0  0  0  0  0  0  0
   22.4007   -7.3747  -15.4241 N   0  0  0  0  0  0  0  0  0  0  0  0
   22.1556   -5.9866  -15.8103 C   0  0  1  0  0  0  0  0  0  0  0  0
   20.7324   -5.8059  -16.2594 C   0  0  0  0  0  0  0  0  0  0  0  0
   20.3535   -4.4099  -16.6454 C   0  0  0  0  0  0  0  0  0  0  0  0
   18.9356   -4.2672  -17.0151 C   0  0  0  0  0  0  0  0  0  0  0  0
   18.1301   -5.2099  -17.0094 O   0  0  0  0  0  0  0  0  0  0  0  0
   22.5343   -5.0590  -14.7315 C   0  0  0  0  0  0  0  0  0  0  0  0
   22.6919   -5.3998  -13.5394 O   0  0  0  0  0  0  0  0  0  0  0  0
   18.4048   -3.0199  -17.4051 O   0  0  0  0  0  0  0  0  0  0  0  0
   22.7305   -3.7222  -15.0475 O   0  0  0  0  0  0  0  0  0  0  0  0
  2  1  1  0
  3  2  2  0
  4  2  1  0
  5  6  1  1
  5  4  1  0
  7  5  1  0
  8  7  2  0
  9 10  1  0
 11 12  1  1
 11 10  1  0
 11 13  1  0
 13 14  1  6
 14  7  1  0
 15 13  1  0
 15 16  2  0
 17 15  1  0
 18 17  1  0
 18 19  1  1
 19 20  1  0
 20 21  1  0
 21 25  1  0
 21 22  2  0
 23 18  1  0
 24 23  2  0
 26 23  1  0
M  END
$$$$
