NIE.pdb
     RDKit          3D

 26 25  0  0  1  0  0  0  0  0999 V2000
   25.1314  -13.4628  -16.1725 N   0  0  0  0  0  0  0  0  0  0  0  0
   25.2083  -12.0515  -16.2515 C   0  0  0  0  0  0  0  0  0  0  0  0
   26.1233  -11.4418  -15.6524 O   0  0  0  0  0  0  0  0  0  0  0  0
   24.2202  -11.3102  -17.0315 C   0  0  0  0  0  0  0  0  0  0  0  0
   23.1706  -12.2667  -17.5498 C   0  0  2  0  0  0  0  0  0  0  0  0
   23.7617  -13.1132  -18.5396 N   0  0  0  0  0  0  0  0  0  0  0  0
   22.0692  -11.4229  -18.1264 C   0  0  0  0  0  0  0  0  0  0  0  0
   22.1642  -10.9574  -19.2904 O   0  0  0  0  0  0  0  0  0  0  0  0
   17.6179  -13.2656  -19.1822 C   0  0  0  0  0  0  0  0  0  0  0  0
   18.7926  -12.3075  -19.1627 C   0  0  0  0  0  0  0  0  0  0  0  0
   18.6532  -11.2446  -18.1354 C   0  0  2  0  0  0  0  0  0  0  0  0
   17.3058  -10.5287  -18.2184 C   0  0  0  0  0  0  0  0  0  0  0  0
   19.8108  -10.3117  -17.9887 C   0  0  2  0  0  0  0  0  0  0  0  0
   20.8908  -11.1232  -17.3830 N   0  0  0  0  0  0  0  0  0  0  0  0
   19.5586   -9.1133  -17.1679 C   0  0  0  0  0  0  0  0  0  0  0  0
   19.4219   -9.2781  -15.9118 O   0  0  0  0  0  0  0  0  0  0  0  0
   19.4527   -7.7896  -17.6230 N   0  0  0  0  0  0  0  0  0  0  0  0
   19.4202   -6.6251  -16.7404 C   0  0  1  0  0  0  0  0  0  0  0  0
   20.6562   -6.5740  -15.8863 C   0  0  0  0  0  0  0  0  0  0  0  0
   20.7952   -5.3533  -15.0308 C   0  0  0  0  0  0  0  0  0  0  0  0
   22.0058   -5.3582  -14.1929 C   0  0  0  0  0  0  0  0  0  0  0  0
   22.8313   -6.2834  -14.1908 O   0  0  0  0  0  0  0  0  0  0  0  0
   19.2037   -5.3847  -17.5033 C   0  0  0  0  0  0  0  0  0  0  0  0
   19.3340   -5.2943  -18.7431 O   0  0  0  0  0  0  0  0  0  0  0  0
   22.2982   -4.2842  -13.3265 O   0  0  0  0  0  0  0  0  0  0  0  0
   18.8319   -4.2400  -16.8127 O   0  0  0  0  0  0  0  0  0  0  0  0
  2  1  1  0
  3  2  2  0
  4  2  1  0
  5  6  1  6
  5  4  1  0
  7  5  1  0
  8  7  2  0
  9 10  1  0
 11 12  1  6
 11 10  1  0
 11 13  1  0
 13 14  1  1
 14  7  1  0
 15 13  1  0
 15 16  2  0
 17 15  1  0
 18 17  1  0
 18 19  1  6
 19 20  1  0
 20 21  1  0
 21 25  1  0
 21 22  2  0
 23 18  1  0
 24 23  2  0
 26 23  1  0
M  END
$$$$
