NIE.pdb
     RDKit          3D

 26 25  0  0  1  0  0  0  0  0999 V2000
   18.0520  -14.7331  -16.7308 N   0  0  0  0  0  0  0  0  0  0  0  0
   18.6155  -13.8102  -15.8172 C   0  0  0  0  0  0  0  0  0  0  0  0
   18.9176  -14.1823  -14.6605 O   0  0  0  0  0  0  0  0  0  0  0  0
   18.8430  -12.4262  -16.2262 C   0  0  0  0  0  0  0  0  0  0  0  0
   18.3817  -12.2432  -17.6542 C   0  0  2  0  0  0  0  0  0  0  0  0
   19.3357  -12.8480  -18.5316 N   0  0  0  0  0  0  0  0  0  0  0  0
   18.2763  -10.7622  -17.8840 C   0  0  0  0  0  0  0  0  0  0  0  0
   19.1461  -10.1577  -18.5613 O   0  0  0  0  0  0  0  0  0  0  0  0
   15.4998   -6.9472  -20.1387 C   0  0  0  0  0  0  0  0  0  0  0  0
   15.1299   -7.1701  -18.6856 C   0  0  0  0  0  0  0  0  0  0  0  0
   15.5758   -8.4903  -18.1728 C   0  0  2  0  0  0  0  0  0  0  0  0
   14.6057   -9.0732  -17.1461 C   0  0  0  0  0  0  0  0  0  0  0  0
   17.0072   -8.5880  -17.7564 C   0  0  2  0  0  0  0  0  0  0  0  0
   17.1990   -9.9982  -17.3486 N   0  0  0  0  0  0  0  0  0  0  0  0
   17.4118   -7.6863  -16.6624 C   0  0  0  0  0  0  0  0  0  0  0  0
   17.3218   -8.1289  -15.4710 O   0  0  0  0  0  0  0  0  0  0  0  0
   17.8946   -6.3743  -16.7893 N   0  0  0  0  0  0  0  0  0  0  0  0
   18.4618   -5.6048  -15.6837 C   0  0  1  0  0  0  0  0  0  0  0  0
   19.8872   -6.0111  -15.4329 C   0  0  0  0  0  0  0  0  0  0  0  0
   20.5964   -5.2384  -14.3646 C   0  0  0  0  0  0  0  0  0  0  0  0
   21.9877   -5.6708  -14.1525 C   0  0  0  0  0  0  0  0  0  0  0  0
   22.5131   -6.6086  -14.7703 O   0  0  0  0  0  0  0  0  0  0  0  0
   18.3139   -4.1577  -15.9112 C   0  0  0  0  0  0  0  0  0  0  0  0
   18.0969   -3.6442  -17.0298 O   0  0  0  0  0  0  0  0  0  0  0  0
   22.8174   -5.0251  -13.2121 O   0  0  0  0  0  0  0  0  0  0  0  0
   18.4203   -3.3031  -14.8232 O   0  0  0  0  0  0  0  0  0  0  0  0
  2  1  1  0
  3  2  2  0
  4  2  1  0
  5  6  1  6
  5  4  1  0
  7  5  1  0
  8  7  2  0
  9 10  1  0
 11 12  1  1
 11 10  1  0
 11 13  1  0
 13 14  1  1
 14  7  1  0
 15 13  1  0
 15 16  2  0
 17 15  1  0
 18 17  1  0
 18 19  1  6
 19 20  1  0
 20 21  1  0
 21 25  1  0
 21 22  2  0
 23 18  1  0
 24 23  2  0
 26 23  1  0
M  END
$$$$
