NIE.pdb
     RDKit          3D

 26 25  0  0  1  0  0  0  0  0999 V2000
   23.9618  -22.6683  -19.4898 N   0  0  0  0  0  0  0  0  0  0  0  0
   24.3187  -21.8971  -18.3576 C   0  0  0  0  0  0  0  0  0  0  0  0
   24.9926  -20.8517  -18.5019 O   0  0  0  0  0  0  0  0  0  0  0  0
   23.9000  -22.3227  -17.0243 C   0  0  0  0  0  0  0  0  0  0  0  0
   25.1169  -22.4670  -16.1390 C   0  0  2  0  0  0  0  0  0  0  0  0
   25.8136  -23.6633  -16.4984 N   0  0  0  0  0  0  0  0  0  0  0  0
   24.6137  -22.5208  -14.7243 C   0  0  0  0  0  0  0  0  0  0  0  0
   23.9446  -23.5062  -14.3217 O   0  0  0  0  0  0  0  0  0  0  0  0
   27.8135  -20.6526  -10.9382 C   0  0  0  0  0  0  0  0  0  0  0  0
   26.7683  -21.4892  -11.6494 C   0  0  0  0  0  0  0  0  0  0  0  0
   25.4063  -20.9038  -11.5661 C   0  0  2  0  0  0  0  0  0  0  0  0
   24.9604  -20.6718  -10.1231 C   0  0  0  0  0  0  0  0  0  0  0  0
   24.3577  -21.5475  -12.4133 C   0  0  2  0  0  0  0  0  0  0  0  0
   24.8736  -21.4688  -13.7987 N   0  0  0  0  0  0  0  0  0  0  0  0
   23.0184  -20.9357  -12.3375 C   0  0  0  0  0  0  0  0  0  0  0  0
   22.3978  -21.0130  -11.2274 O   0  0  0  0  0  0  0  0  0  0  0  0
   22.3409  -20.2651  -13.3680 N   0  0  0  0  0  0  0  0  0  0  0  0
   21.0151  -19.6687  -13.2176 C   0  0  1  0  0  0  0  0  0  0  0  0
   20.7138  -18.7513  -14.3697 C   0  0  0  0  0  0  0  0  0  0  0  0
   19.3464  -18.1420  -14.3644 C   0  0  0  0  0  0  0  0  0  0  0  0
   19.0552  -17.3425  -15.5660 C   0  0  0  0  0  0  0  0  0  0  0  0
   19.8621  -17.1857  -16.4942 O   0  0  0  0  0  0  0  0  0  0  0  0
   19.9844  -20.7030  -13.0288 C   0  0  0  0  0  0  0  0  0  0  0  0
   20.0229  -21.8338  -13.5596 O   0  0  0  0  0  0  0  0  0  0  0  0
   17.8119  -16.6963  -15.7291 O   0  0  0  0  0  0  0  0  0  0  0  0
   18.8995  -20.4141  -12.2132 O   0  0  0  0  0  0  0  0  0  0  0  0
  2  1  1  0
  3  2  2  0
  4  2  1  0
  5  6  1  6
  5  4  1  0
  7  5  1  0
  8  7  2  0
  9 10  1  0
 11 12  1  1
 11 10  1  0
 11 13  1  0
 13 14  1  6
 14  7  1  0
 15 13  1  0
 15 16  2  0
 17 15  1  0
 18 17  1  0
 18 19  1  6
 19 20  1  0
 20 21  1  0
 21 25  1  0
 21 22  2  0
 23 18  1  0
 24 23  2  0
 26 23  1  0
M  END
$$$$
