NIE.pdb
     RDKit          3D

 26 25  0  0  1  0  0  0  0  0999 V2000
   22.6050  -12.4542  -21.9906 N   0  0  0  0  0  0  0  0  0  0  0  0
   21.7272  -11.4396  -21.5389 C   0  0  0  0  0  0  0  0  0  0  0  0
   21.0510  -10.7859  -22.3655 O   0  0  0  0  0  0  0  0  0  0  0  0
   21.6126  -11.1580  -20.1100 C   0  0  0  0  0  0  0  0  0  0  0  0
   22.5882  -12.0257  -19.3482 C   0  0  2  0  0  0  0  0  0  0  0  0
   22.0153  -13.3242  -19.1716 N   0  0  0  0  0  0  0  0  0  0  0  0
   22.8325  -11.3426  -18.0324 C   0  0  0  0  0  0  0  0  0  0  0  0
   22.0095  -11.4607  -17.0893 O   0  0  0  0  0  0  0  0  0  0  0  0
   27.5494  -11.8871  -16.0266 C   0  0  0  0  0  0  0  0  0  0  0  0
   26.0576  -11.6776  -16.1963 C   0  0  0  0  0  0  0  0  0  0  0  0
   25.6697  -10.2446  -16.1707 C   0  0  2  0  0  0  0  0  0  0  0  0
   26.1853   -9.5247  -14.9254 C   0  0  0  0  0  0  0  0  0  0  0  0
   24.2399   -9.9416  -16.4800 C   0  0  2  0  0  0  0  0  0  0  0  0
   23.9923  -10.5452  -17.8089 N   0  0  0  0  0  0  0  0  0  0  0  0
   23.8858   -8.5106  -16.5013 C   0  0  0  0  0  0  0  0  0  0  0  0
   24.4653   -7.7736  -17.3642 O   0  0  0  0  0  0  0  0  0  0  0  0
   22.9652   -7.8597  -15.6650 N   0  0  0  0  0  0  0  0  0  0  0  0
   22.6616   -6.4322  -15.7434 C   0  0  1  0  0  0  0  0  0  0  0  0
   21.3631   -6.2064  -16.4663 C   0  0  0  0  0  0  0  0  0  0  0  0
   20.9256   -4.7784  -16.5694 C   0  0  0  0  0  0  0  0  0  0  0  0
   19.5878   -4.6154  -17.1621 C   0  0  0  0  0  0  0  0  0  0  0  0
   18.9142   -3.5801  -17.0534 O   0  0  0  0  0  0  0  0  0  0  0  0
   22.6867   -5.8086  -14.4099 C   0  0  0  0  0  0  0  0  0  0  0  0
   22.5077   -6.4331  -13.3423 O   0  0  0  0  0  0  0  0  0  0  0  0
   18.9863   -5.6539  -17.9032 O   0  0  0  0  0  0  0  0  0  0  0  0
   22.9230   -4.4440  -14.3226 O   0  0  0  0  0  0  0  0  0  0  0  0
  2  1  1  0
  3  2  2  0
  4  2  1  0
  5  6  1  1
  5  4  1  0
  7  5  1  0
  8  7  2  0
  9 10  1  0
 11 12  1  1
 11 10  1  0
 11 13  1  0
 13 14  1  6
 14  7  1  0
 15 13  1  0
 15 16  2  0
 17 15  1  0
 18 17  1  0
 18 19  1  1
 19 20  1  0
 20 21  1  0
 21 25  1  0
 21 22  2  0
 23 18  1  0
 24 23  2  0
 26 23  1  0
M  END
$$$$
