NIE.pdb
     RDKit          3D

 26 25  0  0  1  0  0  0  0  0999 V2000
   26.0427  -24.0275  -12.0636 N   0  0  0  0  0  0  0  0  0  0  0  0
   25.6933  -23.8329  -13.4216 C   0  0  0  0  0  0  0  0  0  0  0  0
   25.8708  -24.7549  -14.2500 O   0  0  0  0  0  0  0  0  0  0  0  0
   25.1267  -22.5573  -13.8528 C   0  0  0  0  0  0  0  0  0  0  0  0
   25.9415  -22.0099  -15.0025 C   0  0  2  0  0  0  0  0  0  0  0  0
   27.2903  -21.8190  -14.5666 N   0  0  0  0  0  0  0  0  0  0  0  0
   25.2985  -20.7127  -15.4041 C   0  0  0  0  0  0  0  0  0  0  0  0
   25.4049  -19.6945  -14.6742 O   0  0  0  0  0  0  0  0  0  0  0  0
   25.3415  -17.1660  -19.9609 C   0  0  0  0  0  0  0  0  0  0  0  0
   24.4422  -17.5471  -18.8015 C   0  0  0  0  0  0  0  0  0  0  0  0
   24.8154  -18.8449  -18.1843 C   0  0  2  0  0  0  0  0  0  0  0  0
   25.0233  -19.9450  -19.2243 C   0  0  0  0  0  0  0  0  0  0  0  0
   23.9922  -19.2823  -17.0169 C   0  0  2  0  0  0  0  0  0  0  0  0
   24.5534  -20.5913  -16.6129 N   0  0  0  0  0  0  0  0  0  0  0  0
   22.5462  -19.4104  -17.2739 C   0  0  0  0  0  0  0  0  0  0  0  0
   22.1599  -20.3924  -17.9881 O   0  0  0  0  0  0  0  0  0  0  0  0
   21.5311  -18.5586  -16.8104 N   0  0  0  0  0  0  0  0  0  0  0  0
   20.1096  -18.7628  -17.0819 C   0  0  1  0  0  0  0  0  0  0  0  0
   19.3822  -19.1550  -15.8261 C   0  0  0  0  0  0  0  0  0  0  0  0
   17.9127  -19.3939  -15.9835 C   0  0  0  0  0  0  0  0  0  0  0  0
   17.1208  -18.9717  -14.8163 C   0  0  0  0  0  0  0  0  0  0  0  0
   17.6232  -18.6633  -13.7255 O   0  0  0  0  0  0  0  0  0  0  0  0
   19.5183  -17.5849  -17.7380 C   0  0  0  0  0  0  0  0  0  0  0  0
   20.0408  -16.4495  -17.7400 O   0  0  0  0  0  0  0  0  0  0  0  0
   15.7138  -18.8936  -14.8784 O   0  0  0  0  0  0  0  0  0  0  0  0
   18.3065  -17.7341  -18.3974 O   0  0  0  0  0  0  0  0  0  0  0  0
  2  1  1  0
  3  2  2  0
  4  2  1  0
  5  6  1  1
  5  4  1  0
  7  5  1  0
  8  7  2  0
  9 10  1  0
 11 12  1  6
 11 10  1  0
 11 13  1  0
 13 14  1  6
 14  7  1  0
 15 13  1  0
 15 16  2  0
 17 15  1  0
 18 17  1  0
 18 19  1  1
 19 20  1  0
 20 21  1  0
 21 25  1  0
 21 22  2  0
 23 18  1  0
 24 23  2  0
 26 23  1  0
M  END
$$$$
