NIE.pdb
     RDKit          3D

 26 25  0  0  1  0  0  0  0  0999 V2000
   28.8351  -17.7422  -16.0554 N   0  0  0  0  0  0  0  0  0  0  0  0
   28.0734  -18.7142  -16.7475 C   0  0  0  0  0  0  0  0  0  0  0  0
   28.2845  -18.9225  -17.9640 O   0  0  0  0  0  0  0  0  0  0  0  0
   27.0432  -19.4717  -16.0408 C   0  0  0  0  0  0  0  0  0  0  0  0
   27.6872  -20.2965  -14.9498 C   0  0  2  0  0  0  0  0  0  0  0  0
   28.5072  -21.3026  -15.5507 N   0  0  0  0  0  0  0  0  0  0  0  0
   26.5669  -20.8978  -14.1493 C   0  0  0  0  0  0  0  0  0  0  0  0
   26.0110  -21.9603  -14.5271 O   0  0  0  0  0  0  0  0  0  0  0  0
   26.8426  -20.5814   -8.8052 C   0  0  0  0  0  0  0  0  0  0  0  0
   26.5513  -21.0981  -10.2003 C   0  0  0  0  0  0  0  0  0  0  0  0
   25.2728  -20.5820  -10.7514 C   0  0  2  0  0  0  0  0  0  0  0  0
   24.0886  -20.8531   -9.8245 C   0  0  0  0  0  0  0  0  0  0  0  0
   24.9910  -20.9072  -12.1820 C   0  0  2  0  0  0  0  0  0  0  0  0
   26.0993  -20.2922  -12.9470 N   0  0  0  0  0  0  0  0  0  0  0  0
   23.6952  -20.4285  -12.6971 C   0  0  0  0  0  0  0  0  0  0  0  0
   23.5357  -19.1694  -12.8107 O   0  0  0  0  0  0  0  0  0  0  0  0
   22.6009  -21.2179  -13.0845 N   0  0  0  0  0  0  0  0  0  0  0  0
   21.3461  -20.6737  -13.5998 C   0  0  1  0  0  0  0  0  0  0  0  0
   21.1395  -21.0847  -15.0310 C   0  0  0  0  0  0  0  0  0  0  0  0
   19.8922  -20.5639  -15.6746 C   0  0  0  0  0  0  0  0  0  0  0  0
   19.6873  -21.0606  -17.0454 C   0  0  0  0  0  0  0  0  0  0  0  0
   19.7205  -22.2625  -17.3484 O   0  0  0  0  0  0  0  0  0  0  0  0
   20.2125  -21.0376  -12.7336 C   0  0  0  0  0  0  0  0  0  0  0  0
   20.1595  -22.0856  -12.0546 O   0  0  0  0  0  0  0  0  0  0  0  0
   19.4363  -20.1738  -18.1132 O   0  0  0  0  0  0  0  0  0  0  0  0
   19.1318  -20.1704  -12.6599 O   0  0  0  0  0  0  0  0  0  0  0  0
  2  1  1  0
  3  2  2  0
  4  2  1  0
  5  6  1  6
  5  4  1  0
  7  5  1  0
  8  7  2  0
  9 10  1  0
 11 12  1  1
 11 10  1  0
 11 13  1  0
 13 14  1  6
 14  7  1  0
 15 13  1  0
 15 16  2  0
 17 15  1  0
 18 17  1  0
 18 19  1  6
 19 20  1  0
 20 21  1  0
 21 25  1  0
 21 22  2  0
 23 18  1  0
 24 23  2  0
 26 23  1  0
M  END
$$$$
