NIE.pdb
     RDKit          3D

 26 25  0  0  1  0  0  0  0  0999 V2000
   15.0012   -8.8733  -18.0565 N   0  0  0  0  0  0  0  0  0  0  0  0
   16.2434   -8.7804  -17.3841 C   0  0  0  0  0  0  0  0  0  0  0  0
   17.2588   -8.3845  -18.0006 O   0  0  0  0  0  0  0  0  0  0  0  0
   16.3376   -9.1467  -15.9730 C   0  0  0  0  0  0  0  0  0  0  0  0
   17.7435   -9.6113  -15.6685 C   0  0  2  0  0  0  0  0  0  0  0  0
   17.8541  -11.0002  -15.9917 N   0  0  0  0  0  0  0  0  0  0  0  0
   17.9696   -9.3619  -14.2042 C   0  0  0  0  0  0  0  0  0  0  0  0
   17.4985  -10.1471  -13.3426 O   0  0  0  0  0  0  0  0  0  0  0  0
   22.7288   -9.0938  -12.5290 C   0  0  0  0  0  0  0  0  0  0  0  0
   21.2296   -9.1975  -12.7289 C   0  0  0  0  0  0  0  0  0  0  0  0
   20.4945   -8.0203  -12.2013 C   0  0  2  0  0  0  0  0  0  0  0  0
   20.9934   -7.5937  -10.8214 C   0  0  0  0  0  0  0  0  0  0  0  0
   19.0048   -8.0723  -12.3019 C   0  0  2  0  0  0  0  0  0  0  0  0
   18.7173   -8.2392  -13.7445 N   0  0  0  0  0  0  0  0  0  0  0  0
   18.2930   -6.8922  -11.7782 C   0  0  0  0  0  0  0  0  0  0  0  0
   18.4950   -5.7767  -12.3600 O   0  0  0  0  0  0  0  0  0  0  0  0
   17.4017   -6.8605  -10.6941 N   0  0  0  0  0  0  0  0  0  0  0  0
   16.6282   -5.6813  -10.3100 C   0  0  1  0  0  0  0  0  0  0  0  0
   15.1607   -6.0036  -10.2626 C   0  0  0  0  0  0  0  0  0  0  0  0
   14.5721   -6.1153   -8.8906 C   0  0  0  0  0  0  0  0  0  0  0  0
   13.5284   -7.1481   -8.7817 C   0  0  0  0  0  0  0  0  0  0  0  0
   13.1574   -7.8476   -9.7360 O   0  0  0  0  0  0  0  0  0  0  0  0
   17.1257   -5.1058   -9.0495 C   0  0  0  0  0  0  0  0  0  0  0  0
   17.9554   -5.6684   -8.3032 O   0  0  0  0  0  0  0  0  0  0  0  0
   12.8788   -7.4030   -7.5558 O   0  0  0  0  0  0  0  0  0  0  0  0
   16.6502   -3.8626   -8.6573 O   0  0  0  0  0  0  0  0  0  0  0  0
  2  1  1  0
  3  2  2  0
  4  2  1  0
  5  6  1  1
  5  4  1  0
  7  5  1  0
  8  7  2  0
  9 10  1  0
 11 12  1  1
 11 10  1  0
 11 13  1  0
 13 14  1  6
 14  7  1  0
 15 13  1  0
 15 16  2  0
 17 15  1  0
 18 17  1  0
 18 19  1  1
 19 20  1  0
 20 21  1  0
 21 25  1  0
 21 22  2  0
 23 18  1  0
 24 23  2  0
 26 23  1  0
M  END
$$$$
