NIE.pdb
     RDKit          3D

 26 25  0  0  1  0  0  0  0  0999 V2000
   20.1008  -13.2357  -19.7408 N   0  0  0  0  0  0  0  0  0  0  0  0
   19.3874  -12.0975  -19.2942 C   0  0  0  0  0  0  0  0  0  0  0  0
   18.4928  -11.5994  -20.0148 O   0  0  0  0  0  0  0  0  0  0  0  0
   19.6967  -11.5071  -17.9942 C   0  0  0  0  0  0  0  0  0  0  0  0
   20.8407  -12.2643  -17.3592 C   0  0  2  0  0  0  0  0  0  0  0  0
   20.3235  -13.4299  -16.7113 N   0  0  0  0  0  0  0  0  0  0  0  0
   21.4856  -11.3246  -16.3802 C   0  0  0  0  0  0  0  0  0  0  0  0
   20.9389  -11.0803  -15.2747 O   0  0  0  0  0  0  0  0  0  0  0  0
   26.7335  -11.6500  -15.7724 C   0  0  0  0  0  0  0  0  0  0  0  0
   25.2512  -11.4443  -15.5305 C   0  0  0  0  0  0  0  0  0  0  0  0
   24.8167  -10.0444  -15.7679 C   0  0  2  0  0  0  0  0  0  0  0  0
   25.6643   -9.0338  -14.9964 C   0  0  0  0  0  0  0  0  0  0  0  0
   23.3491   -9.7827  -15.6705 C   0  0  2  0  0  0  0  0  0  0  0  0
   22.7258  -10.6835  -16.6664 N   0  0  0  0  0  0  0  0  0  0  0  0
   22.9361   -8.3898  -15.9211 C   0  0  0  0  0  0  0  0  0  0  0  0
   23.1594   -7.9089  -17.0797 O   0  0  0  0  0  0  0  0  0  0  0  0
   22.3124   -7.5213  -15.0116 N   0  0  0  0  0  0  0  0  0  0  0  0
   21.9184   -6.1511  -15.3333 C   0  0  1  0  0  0  0  0  0  0  0  0
   20.4241   -6.0460  -15.4590 C   0  0  0  0  0  0  0  0  0  0  0  0
   19.8938   -4.6628  -15.6756 C   0  0  0  0  0  0  0  0  0  0  0  0
   18.4275   -4.6081  -15.7955 C   0  0  0  0  0  0  0  0  0  0  0  0
   17.7717   -3.5615  -15.6857 O   0  0  0  0  0  0  0  0  0  0  0  0
   22.4768   -5.1948  -14.3631 C   0  0  0  0  0  0  0  0  0  0  0  0
   22.7696   -5.4859  -13.1834 O   0  0  0  0  0  0  0  0  0  0  0  0
   17.6718   -5.7722  -16.0480 O   0  0  0  0  0  0  0  0  0  0  0  0
   22.6950   -3.8875  -14.7739 O   0  0  0  0  0  0  0  0  0  0  0  0
  2  1  1  0
  3  2  2  0
  4  2  1  0
  5  6  1  1
  5  4  1  0
  7  5  1  0
  8  7  2  0
  9 10  1  0
 11 12  1  1
 11 10  1  0
 11 13  1  0
 13 14  1  6
 14  7  1  0
 15 13  1  0
 15 16  2  0
 17 15  1  0
 18 17  1  0
 18 19  1  1
 19 20  1  0
 20 21  1  0
 21 25  1  0
 21 22  2  0
 23 18  1  0
 24 23  2  0
 26 23  1  0
M  END
$$$$
