KKC.pdb
     RDKit          3D

 25 24  0  0  1  0  0  0  0  0999 V2000
    6.3734  -16.1598   20.0888 N   0  0  0  0  0  0  0  0  0  0  0  0
    7.2902  -15.3301   20.7908 C   0  0  1  0  0  0  0  0  0  0  0  0
    7.1642  -13.8672   20.6177 C   0  0  0  0  0  0  0  0  0  0  0  0
    8.1488  -13.2576   19.6890 C   0  0  0  0  0  0  0  0  0  0  0  0
    8.1042  -13.8908   18.3295 C   0  0  0  0  0  0  0  0  0  0  0  0
    9.1646  -13.2468   17.4106 C   0  0  0  0  0  0  0  0  0  0  0  0
    9.0541  -13.8207   16.0873 N   0  0  0  0  0  0  0  0  0  0  0  0
    7.2201  -15.7101   22.2425 C   0  0  0  0  0  0  0  0  0  0  0  0
    6.1128  -15.7240   22.8661 O   0  0  0  0  0  0  0  0  0  0  0  0
    8.3805  -16.0674   22.9736 N   0  0  0  0  0  0  0  0  0  0  0  0
    8.2886  -16.4235   24.4173 C   0  0  1  0  0  0  0  0  0  0  0  0
    9.2772  -17.5382   24.6714 C   0  0  0  0  0  0  0  0  0  0  0  0
    8.6668  -18.8739   24.5129 C   0  0  0  0  0  0  0  0  0  0  0  0
    9.6388  -19.9961   24.8863 C   0  0  0  0  0  0  0  0  0  0  0  0
    8.9137  -21.3271   24.8144 C   0  0  0  0  0  0  0  0  0  0  0  0
    9.8836  -22.3620   25.0070 N   0  0  0  0  0  0  0  0  0  0  0  0
    8.6673  -15.2214   25.1749 C   0  0  0  0  0  0  0  0  0  0  0  0
    9.8046  -14.6861   24.9239 O   0  0  0  0  0  0  0  0  0  0  0  0
    7.9023  -14.5771   26.1613 N   0  0  0  0  0  0  0  0  0  0  0  0
    8.4324  -13.5213   27.0180 C   0  0  1  0  0  0  0  0  0  0  0  0
    7.2148  -12.6902   27.4373 C   0  0  0  0  0  0  0  0  0  0  0  0
    6.1295  -12.3479   26.0449 S   0  0  0  0  0  0  0  0  0  0  0  0
    9.0871  -14.0751   28.2214 C   0  0  0  0  0  0  0  0  0  0  0  0
    9.6332  -13.3139   29.0426 O   0  0  0  0  0  0  0  0  0  0  0  0
    9.0753  -15.4462   28.4063 O   0  0  0  0  0  0  0  0  0  0  0  0
  2  1  1  6
  3  2  1  0
  4  3  1  0
  5  4  1  0
  6  5  1  0
  7  6  1  0
  8  9  2  0
  8  2  1  0
 10  8  1  0
 11 12  1  6
 11 10  1  0
 13 12  1  0
 14 13  1  0
 15 16  1  0
 15 14  1  0
 17 11  1  0
 18 17  2  0
 19 17  1  0
 20 19  1  0
 20 21  1  1
 21 22  1  0
 23 25  1  0
 23 20  1  0
 24 23  2  0
M  END
$$$$
