KKC.pdb
     RDKit          3D

 25 24  0  0  1  0  0  0  0  0999 V2000
   11.2477  -20.3453   28.0879 N   0  0  0  0  0  0  0  0  0  0  0  0
   12.6567  -20.1552   28.1014 C   0  0  1  0  0  0  0  0  0  0  0  0
   13.4673  -21.0831   28.9186 C   0  0  0  0  0  0  0  0  0  0  0  0
   13.3862  -20.8637   30.3845 C   0  0  0  0  0  0  0  0  0  0  0  0
   14.1806  -21.8816   31.1488 C   0  0  0  0  0  0  0  0  0  0  0  0
   14.0394  -21.6327   32.6659 C   0  0  0  0  0  0  0  0  0  0  0  0
   14.8691  -22.5791   33.3790 N   0  0  0  0  0  0  0  0  0  0  0  0
   13.1230  -20.1451   26.6734 C   0  0  0  0  0  0  0  0  0  0  0  0
   14.1749  -20.7647   26.3206 O   0  0  0  0  0  0  0  0  0  0  0  0
   12.4122  -19.4476   25.6650 N   0  0  0  0  0  0  0  0  0  0  0  0
   12.9382  -19.3820   24.2727 C   0  0  1  0  0  0  0  0  0  0  0  0
   11.8108  -18.9053   23.3859 C   0  0  0  0  0  0  0  0  0  0  0  0
   12.1789  -18.9227   21.9555 C   0  0  0  0  0  0  0  0  0  0  0  0
   11.0332  -18.4384   21.0631 C   0  0  0  0  0  0  0  0  0  0  0  0
   11.4798  -18.4795   19.6135 C   0  0  0  0  0  0  0  0  0  0  0  0
   10.3773  -18.0534   18.8061 N   0  0  0  0  0  0  0  0  0  0  0  0
   14.0334  -18.4007   24.2794 C   0  0  0  0  0  0  0  0  0  0  0  0
   13.8125  -17.2569   24.8141 O   0  0  0  0  0  0  0  0  0  0  0  0
   15.3251  -18.5832   23.7582 N   0  0  0  0  0  0  0  0  0  0  0  0
   16.3458  -17.5404   23.7744 C   0  0  1  0  0  0  0  0  0  0  0  0
   17.5124  -18.1278   24.5764 C   0  0  0  0  0  0  0  0  0  0  0  0
   17.0876  -18.3443   26.3104 S   0  0  0  0  0  0  0  0  0  0  0  0
   16.8057  -17.2085   22.4099 C   0  0  0  0  0  0  0  0  0  0  0  0
   16.4065  -17.8749   21.4360 O   0  0  0  0  0  0  0  0  0  0  0  0
   17.6812  -16.1494   22.2488 O   0  0  0  0  0  0  0  0  0  0  0  0
  2  1  1  6
  3  2  1  0
  4  3  1  0
  5  4  1  0
  6  5  1  0
  7  6  1  0
  8  9  2  0
  8  2  1  0
 10  8  1  0
 11 12  1  6
 11 10  1  0
 13 12  1  0
 14 13  1  0
 15 16  1  0
 15 14  1  0
 17 11  1  0
 18 17  2  0
 19 17  1  0
 20 19  1  0
 20 21  1  1
 21 22  1  0
 23 25  1  0
 23 20  1  0
 24 23  2  0
M  END
$$$$
