KKC.pdb
     RDKit          3D

 25 24  0  0  1  0  0  0  0  0999 V2000
    7.0913  -20.6167   18.3852 N   0  0  0  0  0  0  0  0  0  0  0  0
    6.7766  -20.0867   19.6665 C   0  0  1  0  0  0  0  0  0  0  0  0
    6.9463  -20.9735   20.8373 C   0  0  0  0  0  0  0  0  0  0  0  0
    8.3292  -21.4665   21.0566 C   0  0  0  0  0  0  0  0  0  0  0  0
    8.4132  -22.3980   22.2299 C   0  0  0  0  0  0  0  0  0  0  0  0
    9.8671  -22.8818   22.4186 C   0  0  0  0  0  0  0  0  0  0  0  0
    9.9381  -23.7152   23.5988 N   0  0  0  0  0  0  0  0  0  0  0  0
    7.5612  -18.8165   19.8330 C   0  0  0  0  0  0  0  0  0  0  0  0
    8.7836  -18.7489   19.4921 O   0  0  0  0  0  0  0  0  0  0  0  0
    6.9734  -17.6461   20.3745 N   0  0  0  0  0  0  0  0  0  0  0  0
    7.7838  -16.4120   20.5741 C   0  0  1  0  0  0  0  0  0  0  0  0
    6.8223  -15.2814   20.8597 C   0  0  0  0  0  0  0  0  0  0  0  0
    7.5111  -13.9813   20.9912 C   0  0  0  0  0  0  0  0  0  0  0  0
    8.0139  -13.4603   19.6423 C   0  0  0  0  0  0  0  0  0  0  0  0
    8.6455  -12.0948   19.8402 C   0  0  0  0  0  0  0  0  0  0  0  0
    9.0309  -11.6028   18.5526 N   0  0  0  0  0  0  0  0  0  0  0  0
    8.6470  -16.6561   21.7393 C   0  0  0  0  0  0  0  0  0  0  0  0
    8.1427  -17.2755   22.7418 O   0  0  0  0  0  0  0  0  0  0  0  0
    9.9941  -16.2822   21.8772 N   0  0  0  0  0  0  0  0  0  0  0  0
   10.8081  -16.6462   23.0323 C   0  0  1  0  0  0  0  0  0  0  0  0
   10.9093  -18.1750   22.9912 C   0  0  0  0  0  0  0  0  0  0  0  0
   11.7433  -18.8276   24.4447 S   0  0  0  0  0  0  0  0  0  0  0  0
   12.1628  -16.0620   22.9486 C   0  0  0  0  0  0  0  0  0  0  0  0
   12.5404  -15.5061   21.8996 O   0  0  0  0  0  0  0  0  0  0  0  0
   12.9881  -16.1497   24.0556 O   0  0  0  0  0  0  0  0  0  0  0  0
  2  1  1  6
  3  2  1  0
  4  3  1  0
  5  4  1  0
  6  5  1  0
  7  6  1  0
  8  9  2  0
  8  2  1  0
 10  8  1  0
 11 12  1  1
 11 10  1  0
 13 12  1  0
 14 13  1  0
 15 16  1  0
 15 14  1  0
 17 11  1  0
 18 17  2  0
 19 17  1  0
 20 19  1  0
 20 21  1  6
 21 22  1  0
 23 25  1  0
 23 20  1  0
 24 23  2  0
M  END
$$$$
