KKC.pdb
     RDKit          3D

 25 24  0  0  1  0  0  0  0  0999 V2000
    9.4284  -21.7150   18.6855 N   0  0  0  0  0  0  0  0  0  0  0  0
    9.9311  -22.8024   19.4513 C   0  0  1  0  0  0  0  0  0  0  0  0
    9.6744  -24.1705   18.9527 C   0  0  0  0  0  0  0  0  0  0  0  0
    8.2521  -24.5938   18.9839 C   0  0  0  0  0  0  0  0  0  0  0  0
    8.0580  -25.9532   18.3791 C   0  0  0  0  0  0  0  0  0  0  0  0
    6.5545  -26.3004   18.3291 C   0  0  0  0  0  0  0  0  0  0  0  0
    5.9303  -25.5445   17.2653 N   0  0  0  0  0  0  0  0  0  0  0  0
   11.4011  -22.5684   19.6539 C   0  0  0  0  0  0  0  0  0  0  0  0
   12.0994  -23.3526   20.3698 O   0  0  0  0  0  0  0  0  0  0  0  0
   12.0672  -21.4687   19.0577 N   0  0  0  0  0  0  0  0  0  0  0  0
   13.5449  -21.3210   19.1762 C   0  0  1  0  0  0  0  0  0  0  0  0
   14.0246  -20.5803   17.9491 C   0  0  0  0  0  0  0  0  0  0  0  0
   15.4924  -20.4147   17.9342 C   0  0  0  0  0  0  0  0  0  0  0  0
   15.9685  -19.6343   16.7062 C   0  0  0  0  0  0  0  0  0  0  0  0
   17.4765  -19.4781   16.7696 C   0  0  0  0  0  0  0  0  0  0  0  0
   17.8857  -18.7335   15.6177 N   0  0  0  0  0  0  0  0  0  0  0  0
   13.7952  -20.5231   20.3857 C   0  0  0  0  0  0  0  0  0  0  0  0
   12.9606  -19.5948   20.6770 O   0  0  0  0  0  0  0  0  0  0  0  0
   14.8682  -20.6714   21.2802 N   0  0  0  0  0  0  0  0  0  0  0  0
   14.9631  -19.9401   22.5395 C   0  0  1  0  0  0  0  0  0  0  0  0
   13.7216  -20.3489   23.3400 C   0  0  0  0  0  0  0  0  0  0  0  0
   13.7122  -19.6099   24.9795 S   0  0  0  0  0  0  0  0  0  0  0  0
   16.1782  -20.3118   23.2938 C   0  0  0  0  0  0  0  0  0  0  0  0
   16.6600  -21.4550   23.1795 O   0  0  0  0  0  0  0  0  0  0  0  0
   16.7569  -19.3646   24.1196 O   0  0  0  0  0  0  0  0  0  0  0  0
  2  1  1  6
  3  2  1  0
  4  3  1  0
  5  4  1  0
  6  5  1  0
  7  6  1  0
  8  9  2  0
  8  2  1  0
 10  8  1  0
 11 12  1  6
 11 10  1  0
 13 12  1  0
 14 13  1  0
 15 16  1  0
 15 14  1  0
 17 11  1  0
 18 17  2  0
 19 17  1  0
 20 19  1  0
 20 21  1  1
 21 22  1  0
 23 25  1  0
 23 20  1  0
 24 23  2  0
M  END
$$$$
