KKC.pdb
     RDKit          3D

 25 24  0  0  1  0  0  0  0  0999 V2000
    8.0753  -19.7609   21.7134 N   0  0  0  0  0  0  0  0  0  0  0  0
    9.1574  -19.9104   20.8033 C   0  0  1  0  0  0  0  0  0  0  0  0
    8.8414  -20.3434   19.4254 C   0  0  0  0  0  0  0  0  0  0  0  0
    7.6254  -21.1846   19.2948 C   0  0  0  0  0  0  0  0  0  0  0  0
    7.4249  -21.6661   17.8878 C   0  0  0  0  0  0  0  0  0  0  0  0
    6.1400  -22.5172   17.7978 C   0  0  0  0  0  0  0  0  0  0  0  0
    6.0392  -23.0812   16.4695 N   0  0  0  0  0  0  0  0  0  0  0  0
    9.9249  -18.6190   20.8009 C   0  0  0  0  0  0  0  0  0  0  0  0
   11.0039  -18.4963   20.1408 O   0  0  0  0  0  0  0  0  0  0  0  0
    9.4794  -17.4890   21.5310 N   0  0  0  0  0  0  0  0  0  0  0  0
   10.2140  -16.1953   21.4509 C   0  0  1  0  0  0  0  0  0  0  0  0
    9.1826  -15.0966   21.3348 C   0  0  0  0  0  0  0  0  0  0  0  0
    8.8775  -14.7624   19.9287 C   0  0  0  0  0  0  0  0  0  0  0  0
    7.7519  -13.7309   19.8161 C   0  0  0  0  0  0  0  0  0  0  0  0
    7.4519  -13.4794   18.3501 C   0  0  0  0  0  0  0  0  0  0  0  0
    6.3709  -12.5438   18.2813 N   0  0  0  0  0  0  0  0  0  0  0  0
   10.9683  -16.0582   22.7057 C   0  0  0  0  0  0  0  0  0  0  0  0
   10.3505  -15.6012   23.7317 O   0  0  0  0  0  0  0  0  0  0  0  0
   12.3191  -16.3844   22.9113 N   0  0  0  0  0  0  0  0  0  0  0  0
   13.0125  -16.1505   24.1739 C   0  0  1  0  0  0  0  0  0  0  0  0
   12.9722  -17.4926   24.9129 C   0  0  0  0  0  0  0  0  0  0  0  0
   11.5165  -17.6343   25.9593 S   0  0  0  0  0  0  0  0  0  0  0  0
   14.4185  -15.7516   23.9562 C   0  0  0  0  0  0  0  0  0  0  0  0
   15.1353  -15.4334   24.9242 O   0  0  0  0  0  0  0  0  0  0  0  0
   14.9084  -15.7424   22.6623 O   0  0  0  0  0  0  0  0  0  0  0  0
  2  1  1  1
  3  2  1  0
  4  3  1  0
  5  4  1  0
  6  5  1  0
  7  6  1  0
  8  9  2  0
  8  2  1  0
 10  8  1  0
 11 12  1  1
 11 10  1  0
 13 12  1  0
 14 13  1  0
 15 16  1  0
 15 14  1  0
 17 11  1  0
 18 17  2  0
 19 17  1  0
 20 19  1  0
 20 21  1  1
 21 22  1  0
 23 25  1  0
 23 20  1  0
 24 23  2  0
M  END
$$$$
