AFD.pdb
     RDKit          3D

 25 25  0  0  1  0  0  0  0  0999 V2000
    7.1939  -15.5578   19.7493 C   0  0  0  0  0  0  0  0  0  0  0  0
    7.2060  -14.2507   20.5098 C   0  0  2  0  0  0  0  0  0  0  0  0
    7.7507  -13.2276   19.6368 N   0  0  0  0  0  0  0  0  0  0  0  0
    8.0153  -14.3399   21.7568 C   0  0  0  0  0  0  0  0  0  0  0  0
    9.2349  -14.0430   21.7919 O   0  0  0  0  0  0  0  0  0  0  0  0
    7.4075  -14.7713   22.9508 N   0  0  0  0  0  0  0  0  0  0  0  0
    8.1215  -14.9351   24.2068 C   0  0  1  0  0  0  0  0  0  0  0  0
    7.1023  -14.8697   25.3389 C   0  0  0  0  0  0  0  0  0  0  0  0
    6.8967  -13.4739   25.8072 C   0  0  0  0  0  0  0  0  0  0  0  0
    7.8308  -12.4812   25.5571 C   0  0  0  0  0  0  0  0  0  0  0  0
    7.6713  -11.1776   25.9770 C   0  0  0  0  0  0  0  0  0  0  0  0
    6.5284  -10.8394   26.6808 C   0  0  0  0  0  0  0  0  0  0  0  0
    5.5783  -11.7941   26.9492 C   0  0  0  0  0  0  0  0  0  0  0  0
    5.7651  -13.0956   26.5151 C   0  0  0  0  0  0  0  0  0  0  0  0
    8.8390  -16.2112   24.2843 C   0  0  0  0  0  0  0  0  0  0  0  0
    8.2556  -17.2668   23.9575 O   0  0  0  0  0  0  0  0  0  0  0  0
   10.1831  -16.2445   24.7267 N   0  0  0  0  0  0  0  0  0  0  0  0
   10.9356  -17.4681   24.8844 C   0  0  1  0  0  0  0  0  0  0  0  0
   12.4379  -17.1721   24.7646 C   0  0  0  0  0  0  0  0  0  0  0  0
   12.7676  -16.8135   23.3691 C   0  0  0  0  0  0  0  0  0  0  0  0
   12.0737  -17.2655   22.4287 O   0  0  0  0  0  0  0  0  0  0  0  0
   10.6424  -18.0419   26.2217 C   0  0  0  0  0  0  0  0  0  0  0  0
   11.0839  -19.2741   26.6405 O   0  0  0  0  0  0  0  0  0  0  0  0
   13.8280  -15.9831   23.0114 O   0  0  0  0  0  0  0  0  0  0  0  0
    9.9424  -17.3388   27.0088 O   0  0  0  0  0  0  0  0  0  0  0  0
  2  4  1  0
  2  1  1  6
  3  2  1  0
  4  5  2  0
  6  7  1  0
  6  4  1  0
  7  8  1  1
  8  9  1  0
  9 10  2  0
 10 11  1  0
 12 11  2  0
 13 12  1  0
 14 13  2  0
 14  9  1  0
 15 17  1  0
 15  7  1  0
 16 15  2  0
 18 17  1  0
 18 19  1  1
 19 20  1  0
 20 21  2  0
 20 24  1  0
 22 18  1  0
 22 23  1  0
 25 22  2  0
M  END
$$$$
