AFD.pdb
     RDKit          3D

 25 25  0  0  1  0  0  0  0  0999 V2000
    8.7714  -19.7039   21.6622 C   0  0  0  0  0  0  0  0  0  0  0  0
    8.1648  -18.3665   21.3011 C   0  0  2  0  0  0  0  0  0  0  0  0
    8.5682  -18.0411   19.9457 N   0  0  0  0  0  0  0  0  0  0  0  0
    8.5975  -17.2891   22.2338 C   0  0  0  0  0  0  0  0  0  0  0  0
    9.6568  -16.6362   22.0650 O   0  0  0  0  0  0  0  0  0  0  0  0
    7.8021  -16.9769   23.3523 N   0  0  0  0  0  0  0  0  0  0  0  0
    8.1704  -15.9902   24.3547 C   0  0  1  0  0  0  0  0  0  0  0  0
    6.8943  -15.5243   25.0468 C   0  0  0  0  0  0  0  0  0  0  0  0
    7.1309  -14.3042   25.8625 C   0  0  0  0  0  0  0  0  0  0  0  0
    6.9550  -13.0350   25.3347 C   0  0  0  0  0  0  0  0  0  0  0  0
    7.1657  -11.8835   26.0632 C   0  0  0  0  0  0  0  0  0  0  0  0
    7.5715  -11.9941   27.3819 C   0  0  0  0  0  0  0  0  0  0  0  0
    7.7571  -13.2340   27.9426 C   0  0  0  0  0  0  0  0  0  0  0  0
    7.5380  -14.3735   27.1870 C   0  0  0  0  0  0  0  0  0  0  0  0
    9.0902  -16.5272   25.3621 C   0  0  0  0  0  0  0  0  0  0  0  0
    8.8123  -17.5991   25.9411 O   0  0  0  0  0  0  0  0  0  0  0  0
   10.2842  -15.8343   25.6748 N   0  0  0  0  0  0  0  0  0  0  0  0
   11.3158  -16.3778   26.5285 C   0  0  1  0  0  0  0  0  0  0  0  0
   12.6558  -15.6919   26.2239 C   0  0  0  0  0  0  0  0  0  0  0  0
   13.1636  -16.1461   24.9123 C   0  0  0  0  0  0  0  0  0  0  0  0
   12.8256  -17.2676   24.4672 O   0  0  0  0  0  0  0  0  0  0  0  0
   10.9404  -16.1390   27.9448 C   0  0  0  0  0  0  0  0  0  0  0  0
   11.5793  -16.7181   29.0150 O   0  0  0  0  0  0  0  0  0  0  0  0
   14.0185  -15.3940   24.1087 O   0  0  0  0  0  0  0  0  0  0  0  0
    9.9715  -15.3521   28.1587 O   0  0  0  0  0  0  0  0  0  0  0  0
  2  4  1  0
  2  1  1  1
  3  2  1  0
  4  5  2  0
  6  7  1  0
  6  4  1  0
  7  8  1  1
  8  9  1  0
  9 10  2  0
 10 11  1  0
 12 11  2  0
 13 12  1  0
 14 13  2  0
 14  9  1  0
 15 17  1  0
 15  7  1  0
 16 15  2  0
 18 17  1  0
 18 19  1  6
 19 20  1  0
 20 21  2  0
 20 24  1  0
 22 18  1  0
 22 23  1  0
 25 22  2  0
M  END
$$$$
