AFD.pdb
     RDKit          3D

 25 25  0  0  1  0  0  0  0  0999 V2000
    9.5455  -18.4812   20.4350 C   0  0  0  0  0  0  0  0  0  0  0  0
    9.1791  -17.0347   20.1892 C   0  0  2  0  0  0  0  0  0  0  0  0
   10.0042  -16.5404   19.1027 N   0  0  0  0  0  0  0  0  0  0  0  0
    9.3796  -16.1959   21.4033 C   0  0  0  0  0  0  0  0  0  0  0  0
   10.4991  -15.7225   21.7186 O   0  0  0  0  0  0  0  0  0  0  0  0
    8.2846  -15.9125   22.2411 N   0  0  0  0  0  0  0  0  0  0  0  0
    8.3858  -15.1384   23.4678 C   0  0  1  0  0  0  0  0  0  0  0  0
    6.9904  -14.6376   23.8240 C   0  0  0  0  0  0  0  0  0  0  0  0
    7.0133  -13.7761   25.0352 C   0  0  0  0  0  0  0  0  0  0  0  0
    7.6659  -12.5536   25.0421 C   0  0  0  0  0  0  0  0  0  0  0  0
    7.7065  -11.7306   26.1476 C   0  0  0  0  0  0  0  0  0  0  0  0
    7.0683  -12.1389   27.3060 C   0  0  0  0  0  0  0  0  0  0  0  0
    6.4100  -13.3439   27.3403 C   0  0  0  0  0  0  0  0  0  0  0  0
    6.3858  -14.1500   26.2147 C   0  0  0  0  0  0  0  0  0  0  0  0
    8.9105  -15.9248   24.5882 C   0  0  0  0  0  0  0  0  0  0  0  0
    8.2991  -16.9484   24.9622 O   0  0  0  0  0  0  0  0  0  0  0  0
   10.1016  -15.5251   25.2401 N   0  0  0  0  0  0  0  0  0  0  0  0
   10.7764  -16.3377   26.2265 C   0  0  1  0  0  0  0  0  0  0  0  0
   12.2800  -16.0248   26.2154 C   0  0  0  0  0  0  0  0  0  0  0  0
   12.8661  -16.4310   24.9208 C   0  0  0  0  0  0  0  0  0  0  0  0
   12.4641  -17.4737   24.3541 O   0  0  0  0  0  0  0  0  0  0  0  0
   10.2107  -16.0345   27.5650 C   0  0  0  0  0  0  0  0  0  0  0  0
    9.4426  -14.9284   27.8398 O   0  0  0  0  0  0  0  0  0  0  0  0
   13.8656  -15.7161   24.2634 O   0  0  0  0  0  0  0  0  0  0  0  0
   10.4620  -16.8558   28.4957 O   0  0  0  0  0  0  0  0  0  0  0  0
  2  4  1  0
  2  1  1  1
  3  2  1  0
  4  5  2  0
  6  7  1  0
  6  4  1  0
  7  8  1  1
  8  9  1  0
  9 10  2  0
 10 11  1  0
 12 11  2  0
 13 12  1  0
 14 13  2  0
 14  9  1  0
 15 17  1  0
 15  7  1  0
 16 15  2  0
 18 17  1  0
 18 19  1  1
 19 20  1  0
 20 21  2  0
 20 24  1  0
 22 18  1  0
 22 23  1  0
 25 22  2  0
M  END
$$$$
