AFD.pdb
     RDKit          3D

 25 25  0  0  1  0  0  0  0  0999 V2000
    7.6898  -13.1757   19.8924 C   0  0  0  0  0  0  0  0  0  0  0  0
    7.8142  -14.5885   20.4173 C   0  0  2  0  0  0  0  0  0  0  0  0
    6.4782  -15.1405   20.5434 N   0  0  0  0  0  0  0  0  0  0  0  0
    8.5104  -14.6340   21.7330 C   0  0  0  0  0  0  0  0  0  0  0  0
    9.6930  -14.2399   21.8842 O   0  0  0  0  0  0  0  0  0  0  0  0
    7.8333  -15.1347   22.8609 N   0  0  0  0  0  0  0  0  0  0  0  0
    8.4152  -15.1922   24.1922 C   0  0  1  0  0  0  0  0  0  0  0  0
    7.2746  -15.1984   25.2039 C   0  0  0  0  0  0  0  0  0  0  0  0
    6.9162  -13.8200   25.6296 C   0  0  0  0  0  0  0  0  0  0  0  0
    5.6163  -13.3486   25.5376 C   0  0  0  0  0  0  0  0  0  0  0  0
    5.2502  -12.0765   25.9233 C   0  0  0  0  0  0  0  0  0  0  0  0
    6.2208  -11.2273   26.4259 C   0  0  0  0  0  0  0  0  0  0  0  0
    7.5211  -11.6563   26.5334 C   0  0  0  0  0  0  0  0  0  0  0  0
    7.8600  -12.9394   26.1382 C   0  0  0  0  0  0  0  0  0  0  0  0
    9.2392  -16.3876   24.3953 C   0  0  0  0  0  0  0  0  0  0  0  0
    8.7302  -17.5192   24.2474 O   0  0  0  0  0  0  0  0  0  0  0  0
   10.6016  -16.2581   24.7565 N   0  0  0  0  0  0  0  0  0  0  0  0
   11.4507  -17.3861   25.0648 C   0  0  1  0  0  0  0  0  0  0  0  0
   12.9192  -17.0143   24.8119 C   0  0  0  0  0  0  0  0  0  0  0  0
   13.1220  -16.7238   23.3770 C   0  0  0  0  0  0  0  0  0  0  0  0
   12.5505  -17.4272   22.5117 O   0  0  0  0  0  0  0  0  0  0  0  0
   11.2639  -17.7505   26.4917 C   0  0  0  0  0  0  0  0  0  0  0  0
   10.5297  -17.0053   27.3831 O   0  0  0  0  0  0  0  0  0  0  0  0
   13.9284  -15.6918   22.9008 O   0  0  0  0  0  0  0  0  0  0  0  0
   11.8220  -18.8144   26.8919 O   0  0  0  0  0  0  0  0  0  0  0  0
  2  4  1  0
  2  1  1  1
  3  2  1  0
  4  5  2  0
  6  7  1  0
  6  4  1  0
  7  8  1  1
  8  9  1  0
  9 10  2  0
 10 11  1  0
 12 11  2  0
 13 12  1  0
 14 13  2  0
 14  9  1  0
 15 17  1  0
 15  7  1  0
 16 15  2  0
 18 17  1  0
 18 19  1  1
 19 20  1  0
 20 21  2  0
 20 24  1  0
 22 18  1  0
 22 23  1  0
 25 22  2  0
M  END
$$$$
