AFD.pdb
     RDKit          3D

 25 25  0  0  1  0  0  0  0  0999 V2000
    9.4209  -18.4708   20.2580 C   0  0  0  0  0  0  0  0  0  0  0  0
    9.1792  -16.9913   20.0587 C   0  0  2  0  0  0  0  0  0  0  0  0
   10.0822  -16.5236   19.0237 N   0  0  0  0  0  0  0  0  0  0  0  0
    9.3975  -16.2179   21.3126 C   0  0  0  0  0  0  0  0  0  0  0  0
   10.5418  -15.8881   21.7109 O   0  0  0  0  0  0  0  0  0  0  0  0
    8.2916  -15.8335   22.0938 N   0  0  0  0  0  0  0  0  0  0  0  0
    8.4013  -15.0820   23.3338 C   0  0  1  0  0  0  0  0  0  0  0  0
    7.0689  -14.3825   23.5789 C   0  0  0  0  0  0  0  0  0  0  0  0
    7.1179  -13.5268   24.7935 C   0  0  0  0  0  0  0  0  0  0  0  0
    6.3802  -13.8337   25.9257 C   0  0  0  0  0  0  0  0  0  0  0  0
    6.4027  -13.0619   27.0681 C   0  0  0  0  0  0  0  0  0  0  0  0
    7.1963  -11.9281   27.0908 C   0  0  0  0  0  0  0  0  0  0  0  0
    7.9429  -11.5891   25.9890 C   0  0  0  0  0  0  0  0  0  0  0  0
    7.9007  -12.3829   24.8552 C   0  0  0  0  0  0  0  0  0  0  0  0
    8.7099  -15.9363   24.4845 C   0  0  0  0  0  0  0  0  0  0  0  0
    7.9222  -16.8537   24.7996 O   0  0  0  0  0  0  0  0  0  0  0  0
    9.8927  -15.7212   25.2317 N   0  0  0  0  0  0  0  0  0  0  0  0
   10.3601  -16.6287   26.2546 C   0  0  1  0  0  0  0  0  0  0  0  0
   11.8916  -16.5604   26.3479 C   0  0  0  0  0  0  0  0  0  0  0  0
   12.4855  -16.8033   25.0164 C   0  0  0  0  0  0  0  0  0  0  0  0
   13.2364  -15.9420   24.5021 O   0  0  0  0  0  0  0  0  0  0  0  0
    9.7602  -16.2356   27.5542 C   0  0  0  0  0  0  0  0  0  0  0  0
    9.7726  -17.0302   28.6756 O   0  0  0  0  0  0  0  0  0  0  0  0
   12.2640  -17.9572   24.2670 O   0  0  0  0  0  0  0  0  0  0  0  0
    9.2090  -15.0970   27.6129 O   0  0  0  0  0  0  0  0  0  0  0  0
  2  4  1  0
  2  1  1  1
  3  2  1  0
  4  5  2  0
  6  7  1  0
  6  4  1  0
  7  8  1  1
  8  9  1  0
  9 10  2  0
 10 11  1  0
 12 11  2  0
 13 12  1  0
 14 13  2  0
 14  9  1  0
 15 17  1  0
 15  7  1  0
 16 15  2  0
 18 17  1  0
 18 19  1  1
 19 20  1  0
 20 21  2  0
 20 24  1  0
 22 18  1  0
 22 23  1  0
 25 22  2  0
M  END
$$$$
