AFD.pdb
     RDKit          3D

 25 25  0  0  1  0  0  0  0  0999 V2000
    7.6020  -17.8639   19.4885 C   0  0  0  0  0  0  0  0  0  0  0  0
    7.8144  -16.3719   19.3627 C   0  0  2  0  0  0  0  0  0  0  0  0
    8.7642  -16.1419   18.2901 N   0  0  0  0  0  0  0  0  0  0  0  0
    8.3210  -15.7733   20.6287 C   0  0  0  0  0  0  0  0  0  0  0  0
    9.5453  -15.7027   20.8987 O   0  0  0  0  0  0  0  0  0  0  0  0
    7.4080  -15.2622   21.5703 N   0  0  0  0  0  0  0  0  0  0  0  0
    7.8000  -14.7060   22.8553 C   0  0  1  0  0  0  0  0  0  0  0  0
    6.5761  -14.0368   23.4709 C   0  0  0  0  0  0  0  0  0  0  0  0
    6.8733  -13.4954   24.8230 C   0  0  0  0  0  0  0  0  0  0  0  0
    7.5834  -12.3173   24.9913 C   0  0  0  0  0  0  0  0  0  0  0  0
    7.8759  -11.7878   26.2303 C   0  0  0  0  0  0  0  0  0  0  0  0
    7.4434  -12.4591   27.3609 C   0  0  0  0  0  0  0  0  0  0  0  0
    6.7365  -13.6301   27.2371 C   0  0  0  0  0  0  0  0  0  0  0  0
    6.4571  -14.1385   25.9798 C   0  0  0  0  0  0  0  0  0  0  0  0
    8.3016  -15.7262   23.7810 C   0  0  0  0  0  0  0  0  0  0  0  0
    7.6768  -16.8004   23.9116 O   0  0  0  0  0  0  0  0  0  0  0  0
    9.4858  -15.4933   24.5206 N   0  0  0  0  0  0  0  0  0  0  0  0
   10.2749  -16.5522   25.1075 C   0  0  1  0  0  0  0  0  0  0  0  0
   11.7527  -16.3663   24.7330 C   0  0  0  0  0  0  0  0  0  0  0  0
   12.5619  -17.4452   25.3379 C   0  0  0  0  0  0  0  0  0  0  0  0
   13.2423  -17.2136   26.3643 O   0  0  0  0  0  0  0  0  0  0  0  0
   10.1212  -16.5026   26.5832 C   0  0  0  0  0  0  0  0  0  0  0  0
   10.3061  -17.5848   27.4098 O   0  0  0  0  0  0  0  0  0  0  0  0
   12.6254  -18.7429   24.8338 O   0  0  0  0  0  0  0  0  0  0  0  0
    9.8003  -15.3878   27.0913 O   0  0  0  0  0  0  0  0  0  0  0  0
  2  4  1  0
  2  1  1  1
  3  2  1  0
  4  5  2  0
  6  7  1  0
  6  4  1  0
  7  8  1  1
  8  9  1  0
  9 10  2  0
 10 11  1  0
 12 11  2  0
 13 12  1  0
 14 13  2  0
 14  9  1  0
 15 17  1  0
 15  7  1  0
 16 15  2  0
 18 17  1  0
 18 19  1  1
 19 20  1  0
 20 21  2  0
 20 24  1  0
 22 18  1  0
 22 23  1  0
 25 22  2  0
M  END
$$$$
