AFD.pdb
     RDKit          3D

 25 25  0  0  1  0  0  0  0  0999 V2000
    7.5140  -13.1189   20.1482 C   0  0  0  0  0  0  0  0  0  0  0  0
    7.9703  -14.4997   20.5630 C   0  0  2  0  0  0  0  0  0  0  0  0
    6.8044  -15.3621   20.6135 N   0  0  0  0  0  0  0  0  0  0  0  0
    8.6516  -14.4862   21.8872 C   0  0  0  0  0  0  0  0  0  0  0  0
    9.7527  -13.9121   22.0733 O   0  0  0  0  0  0  0  0  0  0  0  0
    8.0538  -15.1363   22.9833 N   0  0  0  0  0  0  0  0  0  0  0  0
    8.6634  -15.2238   24.3005 C   0  0  1  0  0  0  0  0  0  0  0  0
    7.5437  -15.2670   25.3346 C   0  0  0  0  0  0  0  0  0  0  0  0
    7.2598  -13.9165   25.8872 C   0  0  0  0  0  0  0  0  0  0  0  0
    5.9856  -13.3728   25.8516 C   0  0  0  0  0  0  0  0  0  0  0  0
    5.6882  -12.1239   26.3547 C   0  0  0  0  0  0  0  0  0  0  0  0
    6.7044  -11.3748   26.9222 C   0  0  0  0  0  0  0  0  0  0  0  0
    7.9813  -11.8779   26.9770 C   0  0  0  0  0  0  0  0  0  0  0  0
    8.2509  -13.1353   26.4637 C   0  0  0  0  0  0  0  0  0  0  0  0
    9.5013  -16.4168   24.4551 C   0  0  0  0  0  0  0  0  0  0  0  0
    9.0479  -17.5347   24.1294 O   0  0  0  0  0  0  0  0  0  0  0  0
   10.8146  -16.3003   24.9700 N   0  0  0  0  0  0  0  0  0  0  0  0
   11.6752  -17.4359   25.2111 C   0  0  1  0  0  0  0  0  0  0  0  0
   13.1449  -17.0103   25.0783 C   0  0  0  0  0  0  0  0  0  0  0  0
   13.4074  -16.5401   23.7018 C   0  0  0  0  0  0  0  0  0  0  0  0
   13.1250  -17.2754   22.7273 O   0  0  0  0  0  0  0  0  0  0  0  0
   11.4224  -17.9460   26.5820 C   0  0  0  0  0  0  0  0  0  0  0  0
   11.9938  -19.0869   27.0926 O   0  0  0  0  0  0  0  0  0  0  0  0
   13.9640  -15.2989   23.3990 O   0  0  0  0  0  0  0  0  0  0  0  0
   10.6304  -17.2762   27.3085 O   0  0  0  0  0  0  0  0  0  0  0  0
  2  4  1  0
  2  1  1  1
  3  2  1  0
  4  5  2  0
  6  7  1  0
  6  4  1  0
  7  8  1  1
  8  9  1  0
  9 10  2  0
 10 11  1  0
 12 11  2  0
 13 12  1  0
 14 13  2  0
 14  9  1  0
 15 17  1  0
 15  7  1  0
 16 15  2  0
 18 17  1  0
 18 19  1  1
 19 20  1  0
 20 21  2  0
 20 24  1  0
 22 18  1  0
 22 23  1  0
 25 22  2  0
M  END
$$$$
