AFD.pdb
     RDKit          3D

 25 25  0  0  1  0  0  0  0  0999 V2000
    8.1088  -18.1227   19.6278 C   0  0  0  0  0  0  0  0  0  0  0  0
    8.4633  -16.6532   19.5841 C   0  0  2  0  0  0  0  0  0  0  0  0
    9.5843  -16.4881   18.6777 N   0  0  0  0  0  0  0  0  0  0  0  0
    8.8157  -16.1255   20.9314 C   0  0  0  0  0  0  0  0  0  0  0  0
    9.9428  -16.3087   21.4539 O   0  0  0  0  0  0  0  0  0  0  0  0
    7.8623  -15.3915   21.6618 N   0  0  0  0  0  0  0  0  0  0  0  0
    8.1135  -14.8267   22.9779 C   0  0  1  0  0  0  0  0  0  0  0  0
    6.9583  -13.8908   23.3160 C   0  0  0  0  0  0  0  0  0  0  0  0
    7.1211  -13.2897   24.6659 C   0  0  0  0  0  0  0  0  0  0  0  0
    6.3404  -13.6935   25.7373 C   0  0  0  0  0  0  0  0  0  0  0  0
    6.4655  -13.1570   27.0013 C   0  0  0  0  0  0  0  0  0  0  0  0
    7.4119  -12.1700   27.2156 C   0  0  0  0  0  0  0  0  0  0  0  0
    8.2057  -11.7419   26.1798 C   0  0  0  0  0  0  0  0  0  0  0  0
    8.0580  -12.2987   24.9207 C   0  0  0  0  0  0  0  0  0  0  0  0
    8.2170  -15.8522   24.0204 C   0  0  0  0  0  0  0  0  0  0  0  0
    7.3760  -16.7755   24.0621 O   0  0  0  0  0  0  0  0  0  0  0  0
    9.2633  -15.7946   24.9719 N   0  0  0  0  0  0  0  0  0  0  0  0
    9.7298  -16.9475   25.7079 C   0  0  1  0  0  0  0  0  0  0  0  0
   10.9986  -17.5061   25.0469 C   0  0  0  0  0  0  0  0  0  0  0  0
   11.4822  -18.6797   25.8041 C   0  0  0  0  0  0  0  0  0  0  0  0
   10.7262  -19.6636   25.9789 O   0  0  0  0  0  0  0  0  0  0  0  0
   10.0299  -16.5364   27.1023 C   0  0  0  0  0  0  0  0  0  0  0  0
   10.4727  -15.2836   27.4534 O   0  0  0  0  0  0  0  0  0  0  0  0
   12.7584  -18.7749   26.3557 O   0  0  0  0  0  0  0  0  0  0  0  0
    9.8618  -17.4058   28.0077 O   0  0  0  0  0  0  0  0  0  0  0  0
  2  4  1  0
  2  1  1  1
  3  2  1  0
  4  5  2  0
  6  7  1  0
  6  4  1  0
  7  8  1  1
  8  9  1  0
  9 10  2  0
 10 11  1  0
 12 11  2  0
 13 12  1  0
 14 13  2  0
 14  9  1  0
 15 17  1  0
 15  7  1  0
 16 15  2  0
 18 17  1  0
 18 19  1  6
 19 20  1  0
 20 21  2  0
 20 24  1  0
 22 18  1  0
 22 23  1  0
 25 22  2  0
M  END
$$$$
