AFD.pdb
     RDKit          3D

 25 25  0  0  1  0  0  0  0  0999 V2000
    9.2889  -18.5377   20.4065 C   0  0  0  0  0  0  0  0  0  0  0  0
    8.9428  -17.0915   20.1315 C   0  0  2  0  0  0  0  0  0  0  0  0
    9.7487  -16.6415   19.0118 N   0  0  0  0  0  0  0  0  0  0  0  0
    9.1896  -16.2251   21.3173 C   0  0  0  0  0  0  0  0  0  0  0  0
   10.3260  -15.7680   21.5939 O   0  0  0  0  0  0  0  0  0  0  0  0
    8.1209  -15.8955   22.1720 N   0  0  0  0  0  0  0  0  0  0  0  0
    8.2738  -15.1250   23.3956 C   0  0  1  0  0  0  0  0  0  0  0  0
    6.9036  -14.5789   23.7815 C   0  0  0  0  0  0  0  0  0  0  0  0
    6.9715  -13.7647   25.0235 C   0  0  0  0  0  0  0  0  0  0  0  0
    7.7011  -12.5879   25.0789 C   0  0  0  0  0  0  0  0  0  0  0  0
    7.7850  -11.8096   26.2140 C   0  0  0  0  0  0  0  0  0  0  0  0
    7.1121  -12.2173   27.3528 C   0  0  0  0  0  0  0  0  0  0  0  0
    6.3776  -13.3778   27.3391 C   0  0  0  0  0  0  0  0  0  0  0  0
    6.3113  -14.1397   26.1847 C   0  0  0  0  0  0  0  0  0  0  0  0
    8.7966  -15.9282   24.5051 C   0  0  0  0  0  0  0  0  0  0  0  0
    8.1677  -16.9394   24.8836 O   0  0  0  0  0  0  0  0  0  0  0  0
   10.0057  -15.5584   25.1414 N   0  0  0  0  0  0  0  0  0  0  0  0
   10.6643  -16.3804   26.1309 C   0  0  1  0  0  0  0  0  0  0  0  0
   12.1728  -16.0923   26.1236 C   0  0  0  0  0  0  0  0  0  0  0  0
   12.7709  -16.5881   24.8662 C   0  0  0  0  0  0  0  0  0  0  0  0
   12.2665  -17.5757   24.2828 O   0  0  0  0  0  0  0  0  0  0  0  0
   10.0998  -16.0657   27.4674 C   0  0  0  0  0  0  0  0  0  0  0  0
    9.6191  -14.8287   27.8244 O   0  0  0  0  0  0  0  0  0  0  0  0
   13.8908  -16.0191   24.2627 O   0  0  0  0  0  0  0  0  0  0  0  0
   10.0683  -17.0063   28.3149 O   0  0  0  0  0  0  0  0  0  0  0  0
  2  4  1  0
  2  1  1  1
  3  2  1  0
  4  5  2  0
  6  7  1  0
  6  4  1  0
  7  8  1  1
  8  9  1  0
  9 10  2  0
 10 11  1  0
 12 11  2  0
 13 12  1  0
 14 13  2  0
 14  9  1  0
 15 17  1  0
 15  7  1  0
 16 15  2  0
 18 17  1  0
 18 19  1  1
 19 20  1  0
 20 21  2  0
 20 24  1  0
 22 18  1  0
 22 23  1  0
 25 22  2  0
M  END
$$$$
