AFD.pdb
     RDKit          3D

 25 25  0  0  1  0  0  0  0  0999 V2000
    8.8763  -18.3163   20.0751 C   0  0  0  0  0  0  0  0  0  0  0  0
    8.7353  -16.8285   19.8430 C   0  0  2  0  0  0  0  0  0  0  0  0
    9.6367  -16.4537   18.7694 N   0  0  0  0  0  0  0  0  0  0  0  0
    9.0479  -16.0421   21.0684 C   0  0  0  0  0  0  0  0  0  0  0  0
   10.2188  -15.7078   21.3748 O   0  0  0  0  0  0  0  0  0  0  0  0
    8.0044  -15.6498   21.9278 N   0  0  0  0  0  0  0  0  0  0  0  0
    8.2138  -14.9485   23.1842 C   0  0  1  0  0  0  0  0  0  0  0  0
    6.8943  -14.2978   23.5848 C   0  0  0  0  0  0  0  0  0  0  0  0
    7.0220  -13.5485   24.8623 C   0  0  0  0  0  0  0  0  0  0  0  0
    6.3048  -13.9133   25.9906 C   0  0  0  0  0  0  0  0  0  0  0  0
    6.3997  -13.2404   27.1903 C   0  0  0  0  0  0  0  0  0  0  0  0
    7.2480  -12.1502   27.2775 C   0  0  0  0  0  0  0  0  0  0  0  0
    7.9766  -11.7563   26.1819 C   0  0  0  0  0  0  0  0  0  0  0  0
    7.8612  -12.4511   24.9897 C   0  0  0  0  0  0  0  0  0  0  0  0
    8.6513  -15.8415   24.2614 C   0  0  0  0  0  0  0  0  0  0  0  0
    7.9648  -16.8460   24.5460 O   0  0  0  0  0  0  0  0  0  0  0  0
    9.8437  -15.5654   24.9724 N   0  0  0  0  0  0  0  0  0  0  0  0
   10.4332  -16.4848   25.9188 C   0  0  1  0  0  0  0  0  0  0  0  0
   11.9596  -16.3150   25.9247 C   0  0  0  0  0  0  0  0  0  0  0  0
   12.5168  -16.7519   24.6272 C   0  0  0  0  0  0  0  0  0  0  0  0
   12.1544  -17.8429   24.1287 O   0  0  0  0  0  0  0  0  0  0  0  0
    9.8909  -16.1947   27.2698 C   0  0  0  0  0  0  0  0  0  0  0  0
   10.0739  -17.0108   28.3604 O   0  0  0  0  0  0  0  0  0  0  0  0
   13.4456  -16.0154   23.8944 O   0  0  0  0  0  0  0  0  0  0  0  0
    9.2228  -15.1274   27.4050 O   0  0  0  0  0  0  0  0  0  0  0  0
  2  4  1  0
  2  1  1  1
  3  2  1  0
  4  5  2  0
  6  7  1  0
  6  4  1  0
  7  8  1  1
  8  9  1  0
  9 10  2  0
 10 11  1  0
 12 11  2  0
 13 12  1  0
 14 13  2  0
 14  9  1  0
 15 17  1  0
 15  7  1  0
 16 15  2  0
 18 17  1  0
 18 19  1  1
 19 20  1  0
 20 21  2  0
 20 24  1  0
 22 18  1  0
 22 23  1  0
 25 22  2  0
M  END
$$$$
