AFD.pdb
     RDKit          3D

 25 25  0  0  1  0  0  0  0  0999 V2000
    8.2794  -17.9635   19.6856 C   0  0  0  0  0  0  0  0  0  0  0  0
    8.7948  -16.5470   19.5630 C   0  0  2  0  0  0  0  0  0  0  0  0
    9.9967  -16.5748   18.7504 N   0  0  0  0  0  0  0  0  0  0  0  0
    9.0927  -15.9463   20.8927 C   0  0  0  0  0  0  0  0  0  0  0  0
   10.2320  -16.0019   21.4179 O   0  0  0  0  0  0  0  0  0  0  0  0
    8.0714  -15.2873   21.6024 N   0  0  0  0  0  0  0  0  0  0  0  0
    8.2490  -14.7141   22.9269 C   0  0  1  0  0  0  0  0  0  0  0  0
    7.0426  -13.8298   23.2220 C   0  0  0  0  0  0  0  0  0  0  0  0
    7.1314  -13.2204   24.5750 C   0  0  0  0  0  0  0  0  0  0  0  0
    6.3164  -13.6415   25.6138 C   0  0  0  0  0  0  0  0  0  0  0  0
    6.3729  -13.0980   26.8797 C   0  0  0  0  0  0  0  0  0  0  0  0
    7.2830  -12.0856   27.1302 C   0  0  0  0  0  0  0  0  0  0  0  0
    8.1090  -11.6398   26.1276 C   0  0  0  0  0  0  0  0  0  0  0  0
    8.0301  -12.2042   24.8656 C   0  0  0  0  0  0  0  0  0  0  0  0
    8.3583  -15.7358   23.9726 C   0  0  0  0  0  0  0  0  0  0  0  0
    7.5082  -16.6496   24.0324 O   0  0  0  0  0  0  0  0  0  0  0  0
    9.4206  -15.6850   24.9067 N   0  0  0  0  0  0  0  0  0  0  0  0
    9.9006  -16.8435   25.6250 C   0  0  1  0  0  0  0  0  0  0  0  0
   11.3532  -17.1380   25.2226 C   0  0  0  0  0  0  0  0  0  0  0  0
   11.8502  -18.3141   25.9672 C   0  0  0  0  0  0  0  0  0  0  0  0
   11.1632  -19.3612   26.0094 O   0  0  0  0  0  0  0  0  0  0  0  0
    9.8296  -16.5673   27.0818 C   0  0  0  0  0  0  0  0  0  0  0  0
    9.5756  -15.3263   27.6150 O   0  0  0  0  0  0  0  0  0  0  0  0
   13.0659  -18.3444   26.6478 O   0  0  0  0  0  0  0  0  0  0  0  0
   10.0172  -17.5461   27.8631 O   0  0  0  0  0  0  0  0  0  0  0  0
  2  4  1  0
  2  1  1  1
  3  2  1  0
  4  5  2  0
  6  7  1  0
  6  4  1  0
  7  8  1  1
  8  9  1  0
  9 10  2  0
 10 11  1  0
 12 11  2  0
 13 12  1  0
 14 13  2  0
 14  9  1  0
 15 17  1  0
 15  7  1  0
 16 15  2  0
 18 17  1  0
 18 19  1  6
 19 20  1  0
 20 21  2  0
 20 24  1  0
 22 18  1  0
 22 23  1  0
 25 22  2  0
M  END
$$$$
