PQY.pdb
     RDKit          3D

 29 30  0  0  1  0  0  0  0  0999 V2000
   22.7216  -12.7224  -18.2408 N   0  0  0  0  0  0  0  0  0  0  0  0
   23.3833  -13.6585  -19.1573 C   0  0  0  0  0  0  0  0  0  0  0  0
   23.6837  -12.7632  -20.3630 C   0  0  0  0  0  0  0  0  0  0  0  0
   23.7087  -11.3728  -19.8160 C   0  0  0  0  0  0  0  0  0  0  0  0
   23.4938  -11.4966  -18.3004 C   0  0  1  0  0  0  0  0  0  0  0  0
   22.6148  -10.3572  -17.8464 C   0  0  0  0  0  0  0  0  0  0  0  0
   23.1136   -9.1778  -17.8206 O   0  0  0  0  0  0  0  0  0  0  0  0
   16.3067  -10.6165  -16.8837 N   0  0  0  0  0  0  0  0  0  0  0  0
   16.5974   -9.2320  -16.6604 C   0  0  0  0  0  0  0  0  0  0  0  0
   15.6920   -8.4166  -16.3991 O   0  0  0  0  0  0  0  0  0  0  0  0
   18.0024   -8.7626  -16.7409 C   0  0  0  0  0  0  0  0  0  0  0  0
   18.9851   -9.8095  -17.0986 C   0  0  0  0  0  0  0  0  0  0  0  0
   20.4393   -9.4046  -17.0827 C   0  0  2  0  0  0  0  0  0  0  0  0
   21.2791  -10.5321  -17.4532 N   0  0  0  0  0  0  0  0  0  0  0  0
   20.7753   -8.9217  -15.7203 C   0  0  0  0  0  0  0  0  0  0  0  0
   20.9615   -9.7538  -14.8194 O   0  0  0  0  0  0  0  0  0  0  0  0
   23.6180   -2.0554  -17.0828 O   0  0  0  0  0  0  0  0  0  0  0  0
   23.3668   -3.1765  -16.3124 C   0  0  0  0  0  0  0  0  0  0  0  0
   22.8101   -3.0534  -15.0606 C   0  0  0  0  0  0  0  0  0  0  0  0
   22.5594   -4.1693  -14.2906 C   0  0  0  0  0  0  0  0  0  0  0  0
   22.8555   -5.4512  -14.7428 C   0  0  0  0  0  0  0  0  0  0  0  0
   22.6273   -6.6559  -13.9255 C   0  0  0  0  0  0  0  0  0  0  0  0
   21.2209   -7.1138  -14.0444 C   0  0  2  0  0  0  0  0  0  0  0  0
   20.8935   -7.5473  -15.4033 N   0  0  0  0  0  0  0  0  0  0  0  0
   20.2756   -6.0717  -13.6024 C   0  0  0  0  0  0  0  0  0  0  0  0
   19.3497   -5.4433  -14.4164 O   0  0  0  0  0  0  0  0  0  0  0  0
   23.4119   -5.5737  -15.9944 C   0  0  0  0  0  0  0  0  0  0  0  0
   23.6673   -4.4649  -16.7728 C   0  0  0  0  0  0  0  0  0  0  0  0
   20.3030   -5.7113  -12.3877 O   0  0  0  0  0  0  0  0  0  0  0  0
  1  5  1  0
  2  1  1  0
  2  3  1  0
  3  4  1  0
  4  5  1  0
  5  6  1  6
  6  7  2  0
  8  9  1  0
  9 11  1  0
 10  9  2  0
 11 12  1  0
 13 12  1  1
 13 15  1  0
 13 14  1  0
 14  6  1  0
 15 24  1  0
 16 15  2  0
 18 17  1  0
 18 19  2  0
 20 19  1  0
 21 20  2  0
 22 21  1  0
 23 22  1  6
 23 25  1  0
 24 23  1  0
 25 29  2  0
 25 26  1  0
 27 28  2  0
 27 21  1  0
 28 18  1  0
M  END
$$$$
