PQY.pdb
     RDKit          3D

 29 30  0  0  1  0  0  0  0  0999 V2000
   18.0448  -25.7342  -11.7668 N   0  0  0  0  0  0  0  0  0  0  0  0
   18.0686  -24.7140  -12.8217 C   0  0  0  0  0  0  0  0  0  0  0  0
   17.0146  -23.7199  -12.3255 C   0  0  0  0  0  0  0  0  0  0  0  0
   16.9357  -23.9435  -10.8501 C   0  0  0  0  0  0  0  0  0  0  0  0
   17.9908  -25.0074  -10.5134 C   0  0  1  0  0  0  0  0  0  0  0  0
   17.4269  -25.9234   -9.4552 C   0  0  0  0  0  0  0  0  0  0  0  0
   16.1544  -25.9930   -9.3268 O   0  0  0  0  0  0  0  0  0  0  0  0
   16.8434  -30.9701   -7.1450 N   0  0  0  0  0  0  0  0  0  0  0  0
   17.6859  -30.9381   -8.3029 C   0  0  0  0  0  0  0  0  0  0  0  0
   17.6348  -31.8384   -9.1630 O   0  0  0  0  0  0  0  0  0  0  0  0
   18.6346  -29.8115   -8.4799 C   0  0  0  0  0  0  0  0  0  0  0  0
   18.5855  -28.7875   -7.4128 C   0  0  0  0  0  0  0  0  0  0  0  0
   17.6569  -27.6192   -7.6400 C   0  0  2  0  0  0  0  0  0  0  0  0
   18.2325  -26.7006   -8.6088 N   0  0  0  0  0  0  0  0  0  0  0  0
   17.4315  -26.9414   -6.3393 C   0  0  0  0  0  0  0  0  0  0  0  0
   18.2916  -26.1528   -5.9184 O   0  0  0  0  0  0  0  0  0  0  0  0
   13.6181  -22.9871   -9.1891 O   0  0  0  0  0  0  0  0  0  0  0  0
   13.8578  -23.6663   -8.0082 C   0  0  0  0  0  0  0  0  0  0  0  0
   14.6612  -23.1161   -7.0367 C   0  0  0  0  0  0  0  0  0  0  0  0
   14.9022  -23.7914   -5.8590 C   0  0  0  0  0  0  0  0  0  0  0  0
   14.3490  -25.0428   -5.6075 C   0  0  0  0  0  0  0  0  0  0  0  0
   14.6182  -25.7981   -4.3712 C   0  0  0  0  0  0  0  0  0  0  0  0
   16.0009  -26.3364   -4.3738 C   0  0  2  0  0  0  0  0  0  0  0  0
   16.2728  -27.1562   -5.5553 N   0  0  0  0  0  0  0  0  0  0  0  0
   16.2824  -27.1050   -3.1471 C   0  0  0  0  0  0  0  0  0  0  0  0
   16.6425  -28.4405   -3.1124 O   0  0  0  0  0  0  0  0  0  0  0  0
   13.5457  -25.5923   -6.5790 C   0  0  0  0  0  0  0  0  0  0  0  0
   13.2983  -24.9263   -7.7604 C   0  0  0  0  0  0  0  0  0  0  0  0
   16.1888  -26.5115   -2.0312 O   0  0  0  0  0  0  0  0  0  0  0  0
  1  5  1  0
  2  1  1  0
  2  3  1  0
  3  4  1  0
  4  5  1  0
  5  6  1  1
  6  7  2  0
  8  9  1  0
  9 11  1  0
 10  9  2  0
 11 12  1  0
 13 12  1  1
 13 15  1  0
 13 14  1  0
 14  6  1  0
 15 24  1  0
 16 15  2  0
 18 17  1  0
 18 19  2  0
 20 19  1  0
 21 20  2  0
 22 21  1  0
 23 22  1  1
 23 25  1  0
 24 23  1  0
 25 29  2  0
 25 26  1  0
 27 28  2  0
 27 21  1  0
 28 18  1  0
M  END
$$$$
