PQY.pdb
     RDKit          3D

 29 30  0  0  1  0  0  0  0  0999 V2000
   27.4305  -21.5127  -17.7996 N   0  0  0  0  0  0  0  0  0  0  0  0
   28.6756  -22.1695  -18.2151 C   0  0  0  0  0  0  0  0  0  0  0  0
   29.4879  -22.1599  -16.9169 C   0  0  0  0  0  0  0  0  0  0  0  0
   28.4724  -22.0555  -15.8256 C   0  0  0  0  0  0  0  0  0  0  0  0
   27.0963  -22.0780  -16.5070 C   0  0  1  0  0  0  0  0  0  0  0  0
   26.1883  -21.1129  -15.7852 C   0  0  0  0  0  0  0  0  0  0  0  0
   25.8970  -21.3521  -14.5611 O   0  0  0  0  0  0  0  0  0  0  0  0
   22.3266  -16.5097  -17.0946 N   0  0  0  0  0  0  0  0  0  0  0  0
   23.2158  -16.9619  -18.1223 C   0  0  0  0  0  0  0  0  0  0  0  0
   22.9325  -16.8227  -19.3278 O   0  0  0  0  0  0  0  0  0  0  0  0
   24.4970  -17.6062  -17.7426 C   0  0  0  0  0  0  0  0  0  0  0  0
   24.7223  -17.7241  -16.2849 C   0  0  0  0  0  0  0  0  0  0  0  0
   24.6917  -19.1185  -15.7073 C   0  0  2  0  0  0  0  0  0  0  0  0
   25.6512  -19.9681  -16.3937 N   0  0  0  0  0  0  0  0  0  0  0  0
   23.3152  -19.6539  -15.8511 C   0  0  0  0  0  0  0  0  0  0  0  0
   22.9570  -20.0958  -16.9534 O   0  0  0  0  0  0  0  0  0  0  0  0
   15.5367  -23.2903  -15.3502 O   0  0  0  0  0  0  0  0  0  0  0  0
   16.8022  -22.8221  -15.0457 C   0  0  0  0  0  0  0  0  0  0  0  0
   17.0051  -22.0232  -13.9445 C   0  0  0  0  0  0  0  0  0  0  0  0
   18.2655  -21.5547  -13.6392 C   0  0  0  0  0  0  0  0  0  0  0  0
   19.3714  -21.8673  -14.4233 C   0  0  0  0  0  0  0  0  0  0  0  0
   20.7217  -21.3522  -14.1362 C   0  0  0  0  0  0  0  0  0  0  0  0
   21.0239  -20.1690  -14.9791 C   0  0  2  0  0  0  0  0  0  0  0  0
   22.3899  -19.6828  -14.7804 N   0  0  0  0  0  0  0  0  0  0  0  0
   20.0581  -19.0794  -14.7447 C   0  0  0  0  0  0  0  0  0  0  0  0
   18.8335  -18.9547  -15.3767 O   0  0  0  0  0  0  0  0  0  0  0  0
   19.1679  -22.6663  -15.5239 C   0  0  0  0  0  0  0  0  0  0  0  0
   17.9122  -23.1399  -15.8389 C   0  0  0  0  0  0  0  0  0  0  0  0
   20.3597  -18.1792  -13.9051 O   0  0  0  0  0  0  0  0  0  0  0  0
  1  5  1  0
  2  1  1  0
  2  3  1  0
  3  4  1  0
  4  5  1  0
  5  6  1  1
  6  7  2  0
  8  9  1  0
  9 11  1  0
 10  9  2  0
 11 12  1  0
 13 12  1  6
 13 15  1  0
 13 14  1  0
 14  6  1  0
 15 24  1  0
 16 15  2  0
 18 17  1  0
 18 19  2  0
 20 19  1  0
 21 20  2  0
 22 21  1  0
 23 22  1  1
 23 25  1  0
 24 23  1  0
 25 29  2  0
 25 26  1  0
 27 28  2  0
 27 21  1  0
 28 18  1  0
M  END
$$$$
