PQY.pdb
     RDKit          3D

 29 30  0  0  1  0  0  0  0  0999 V2000
   25.2900  -16.5907  -17.5714 N   0  0  0  0  0  0  0  0  0  0  0  0
   26.0068  -17.6736  -18.2552 C   0  0  0  0  0  0  0  0  0  0  0  0
   25.0677  -17.9876  -19.4235 C   0  0  0  0  0  0  0  0  0  0  0  0
   24.2684  -16.7409  -19.6234 C   0  0  0  0  0  0  0  0  0  0  0  0
   24.8069  -15.7119  -18.6186 C   0  0  1  0  0  0  0  0  0  0  0  0
   23.6441  -14.9181  -18.0758 C   0  0  0  0  0  0  0  0  0  0  0  0
   23.0745  -14.0693  -18.8476 O   0  0  0  0  0  0  0  0  0  0  0  0
   19.0567  -17.0576  -14.6863 N   0  0  0  0  0  0  0  0  0  0  0  0
   18.8219  -15.6555  -14.5125 C   0  0  0  0  0  0  0  0  0  0  0  0
   17.7933  -15.2390  -13.9456 O   0  0  0  0  0  0  0  0  0  0  0  0
   19.8230  -14.6834  -15.0161 C   0  0  0  0  0  0  0  0  0  0  0  0
   20.9995  -15.2921  -15.6756 C   0  0  0  0  0  0  0  0  0  0  0  0
   21.9931  -14.3406  -16.2970 C   0  0  2  0  0  0  0  0  0  0  0  0
   23.1602  -15.0689  -16.7672 N   0  0  0  0  0  0  0  0  0  0  0  0
   22.3756  -13.3325  -15.2774 C   0  0  0  0  0  0  0  0  0  0  0  0
   23.2318  -13.6321  -14.4313 O   0  0  0  0  0  0  0  0  0  0  0  0
   23.2186   -7.3850  -19.3624 O   0  0  0  0  0  0  0  0  0  0  0  0
   23.2940   -8.1330  -18.2014 C   0  0  0  0  0  0  0  0  0  0  0  0
   23.0793   -7.5452  -16.9765 C   0  0  0  0  0  0  0  0  0  0  0  0
   23.1545   -8.2886  -15.8177 C   0  0  0  0  0  0  0  0  0  0  0  0
   23.4472   -9.6485  -15.8392 C   0  0  0  0  0  0  0  0  0  0  0  0
   23.5653  -10.4566  -14.6128 C   0  0  0  0  0  0  0  0  0  0  0  0
   22.2565  -11.0523  -14.2469 C   0  0  2  0  0  0  0  0  0  0  0  0
   21.8040  -12.0386  -15.2288 N   0  0  0  0  0  0  0  0  0  0  0  0
   21.2259  -10.0144  -14.0579 C   0  0  0  0  0  0  0  0  0  0  0  0
   21.2344   -9.0610  -13.0552 O   0  0  0  0  0  0  0  0  0  0  0  0
   23.6615  -10.2358  -17.0641 C   0  0  0  0  0  0  0  0  0  0  0  0
   23.5894   -9.5021  -18.2290 C   0  0  0  0  0  0  0  0  0  0  0  0
   20.2502   -9.9821  -14.8660 O   0  0  0  0  0  0  0  0  0  0  0  0
  1  5  1  0
  2  1  1  0
  2  3  1  0
  3  4  1  0
  4  5  1  0
  5  6  1  1
  6  7  2  0
  8  9  1  0
  9 11  1  0
 10  9  2  0
 11 12  1  0
 13 12  1  1
 13 15  1  0
 13 14  1  0
 14  6  1  0
 15 24  1  0
 16 15  2  0
 18 17  1  0
 18 19  2  0
 20 19  1  0
 21 20  2  0
 22 21  1  0
 23 22  1  6
 23 25  1  0
 24 23  1  0
 25 29  2  0
 25 26  1  0
 27 28  2  0
 27 21  1  0
 28 18  1  0
M  END
$$$$
