PQY.pdb
     RDKit          3D

 29 30  0  0  1  0  0  0  0  0999 V2000
   24.9071  -15.7916  -18.1984 N   0  0  0  0  0  0  0  0  0  0  0  0
   25.4410  -14.8316  -19.1718 C   0  0  0  0  0  0  0  0  0  0  0  0
   24.8835  -15.3741  -20.4910 C   0  0  0  0  0  0  0  0  0  0  0  0
   23.6822  -16.1742  -20.1037 C   0  0  0  0  0  0  0  0  0  0  0  0
   23.5282  -16.0214  -18.5834 C   0  0  1  0  0  0  0  0  0  0  0  0
   23.0880  -17.3462  -18.0108 C   0  0  0  0  0  0  0  0  0  0  0  0
   21.8710  -17.7075  -18.1806 O   0  0  0  0  0  0  0  0  0  0  0  0
   26.8275  -22.2551  -16.7161 N   0  0  0  0  0  0  0  0  0  0  0  0
   25.5231  -22.7789  -16.4414 C   0  0  0  0  0  0  0  0  0  0  0  0
   25.3470  -23.9945  -16.2317 O   0  0  0  0  0  0  0  0  0  0  0  0
   24.3624  -21.8556  -16.4053 C   0  0  0  0  0  0  0  0  0  0  0  0
   24.6754  -20.4538  -16.7608 C   0  0  0  0  0  0  0  0  0  0  0  0
   23.5110  -19.4947  -16.8154 C   0  0  2  0  0  0  0  0  0  0  0  0
   23.9506  -18.1975  -17.3033 N   0  0  0  0  0  0  0  0  0  0  0  0
   22.9366  -19.3786  -15.4519 C   0  0  0  0  0  0  0  0  0  0  0  0
   23.6474  -18.9307  -14.5393 O   0  0  0  0  0  0  0  0  0  0  0  0
   16.6491  -16.8211  -17.5513 O   0  0  0  0  0  0  0  0  0  0  0  0
   17.5997  -17.1512  -16.6022 C   0  0  0  0  0  0  0  0  0  0  0  0
   17.2645  -17.9308  -15.5197 C   0  0  0  0  0  0  0  0  0  0  0  0
   18.2101  -18.2607  -14.5720 C   0  0  0  0  0  0  0  0  0  0  0  0
   19.5272  -17.8238  -14.6704 C   0  0  0  0  0  0  0  0  0  0  0  0
   20.5473  -18.1357  -13.6538 C   0  0  0  0  0  0  0  0  0  0  0  0
   21.0449  -19.5242  -13.8163 C   0  0  2  0  0  0  0  0  0  0  0  0
   21.6076  -19.7578  -15.1469 N   0  0  0  0  0  0  0  0  0  0  0  0
   19.9878  -20.5123  -13.5315 C   0  0  0  0  0  0  0  0  0  0  0  0
   19.5050  -21.4410  -14.4365 O   0  0  0  0  0  0  0  0  0  0  0  0
   19.8618  -17.0445  -15.7530 C   0  0  0  0  0  0  0  0  0  0  0  0
   18.9245  -16.7081  -16.7063 C   0  0  0  0  0  0  0  0  0  0  0  0
   19.4702  -20.5223  -12.3748 O   0  0  0  0  0  0  0  0  0  0  0  0
  1  5  1  0
  2  1  1  0
  2  3  1  0
  3  4  1  0
  4  5  1  0
  5  6  1  1
  6  7  2  0
  8  9  1  0
  9 11  1  0
 10  9  2  0
 11 12  1  0
 13 12  1  1
 13 15  1  0
 13 14  1  0
 14  6  1  0
 15 24  1  0
 16 15  2  0
 18 17  1  0
 18 19  2  0
 20 19  1  0
 21 20  2  0
 22 21  1  0
 23 22  1  6
 23 25  1  0
 24 23  1  0
 25 29  2  0
 25 26  1  0
 27 28  2  0
 27 21  1  0
 28 18  1  0
M  END
$$$$
