PQY.pdb
     RDKit          3D

 29 30  0  0  1  0  0  0  0  0999 V2000
   29.1843  -23.4770  -17.6583 N   0  0  0  0  0  0  0  0  0  0  0  0
   30.0147  -23.7870  -18.8281 C   0  0  0  0  0  0  0  0  0  0  0  0
   29.5910  -22.6961  -19.8160 C   0  0  0  0  0  0  0  0  0  0  0  0
   29.0494  -21.5931  -18.9658 C   0  0  0  0  0  0  0  0  0  0  0  0
   29.2347  -22.0358  -17.5070 C   0  0  1  0  0  0  0  0  0  0  0  0
   28.0269  -21.5972  -16.7160 C   0  0  0  0  0  0  0  0  0  0  0  0
   27.8955  -20.3517  -16.4476 O   0  0  0  0  0  0  0  0  0  0  0  0
   23.6221  -24.9844  -14.2685 N   0  0  0  0  0  0  0  0  0  0  0  0
   22.9174  -23.7378  -14.2939 C   0  0  0  0  0  0  0  0  0  0  0  0
   21.8875  -23.5649  -13.6139 O   0  0  0  0  0  0  0  0  0  0  0  0
   23.4250  -22.6336  -15.1446 C   0  0  0  0  0  0  0  0  0  0  0  0
   24.6880  -22.9309  -15.8561 C   0  0  0  0  0  0  0  0  0  0  0  0
   25.8606  -22.0286  -15.5564 C   0  0  2  0  0  0  0  0  0  0  0  0
   27.0440  -22.4907  -16.2634 N   0  0  0  0  0  0  0  0  0  0  0  0
   26.0882  -22.0293  -14.0899 C   0  0  0  0  0  0  0  0  0  0  0  0
   26.6032  -23.0281  -13.5647 O   0  0  0  0  0  0  0  0  0  0  0  0
   27.8998  -20.0759   -5.8099 O   0  0  0  0  0  0  0  0  0  0  0  0
   27.6810  -20.0604   -7.1756 C   0  0  0  0  0  0  0  0  0  0  0  0
   28.3776  -20.9090   -8.0043 C   0  0  0  0  0  0  0  0  0  0  0  0
   28.1617  -20.8951   -9.3660 C   0  0  0  0  0  0  0  0  0  0  0  0
   27.2408  -20.0322   -9.9514 C   0  0  0  0  0  0  0  0  0  0  0  0
   27.0164  -19.9759  -11.4067 C   0  0  0  0  0  0  0  0  0  0  0  0
   25.9971  -20.9716  -11.8209 C   0  0  2  0  0  0  0  0  0  0  0  0
   25.7421  -20.9351  -13.2616 N   0  0  0  0  0  0  0  0  0  0  0  0
   24.7361  -20.7932  -11.0775 C   0  0  0  0  0  0  0  0  0  0  0  0
   24.4608  -21.3434   -9.8381 O   0  0  0  0  0  0  0  0  0  0  0  0
   26.5444  -19.1842   -9.1225 C   0  0  0  0  0  0  0  0  0  0  0  0
   26.7525  -19.1892   -7.7597 C   0  0  0  0  0  0  0  0  0  0  0  0
   23.8239  -20.0869  -11.6020 O   0  0  0  0  0  0  0  0  0  0  0  0
  1  5  1  0
  2  1  1  0
  2  3  1  0
  3  4  1  0
  4  5  1  0
  5  6  1  1
  6  7  2  0
  8  9  1  0
  9 11  1  0
 10  9  2  0
 11 12  1  0
 13 12  1  1
 13 15  1  0
 13 14  1  0
 14  6  1  0
 15 24  1  0
 16 15  2  0
 18 17  1  0
 18 19  2  0
 20 19  1  0
 21 20  2  0
 22 21  1  0
 23 22  1  1
 23 25  1  0
 24 23  1  0
 25 29  2  0
 25 26  1  0
 27 28  2  0
 27 21  1  0
 28 18  1  0
M  END
$$$$
