PQY.pdb
     RDKit          3D

 29 30  0  0  1  0  0  0  0  0999 V2000
   28.6405  -31.2547  -22.1465 N   0  0  0  0  0  0  0  0  0  0  0  0
   29.6590  -30.7384  -23.0686 C   0  0  0  0  0  0  0  0  0  0  0  0
   30.6955  -30.1567  -22.1029 C   0  0  0  0  0  0  0  0  0  0  0  0
   30.4752  -30.8824  -20.8153 C   0  0  0  0  0  0  0  0  0  0  0  0
   29.3688  -31.9140  -21.0801 C   0  0  1  0  0  0  0  0  0  0  0  0
   28.4765  -31.9824  -19.8651 C   0  0  0  0  0  0  0  0  0  0  0  0
   27.9194  -33.1004  -19.5823 O   0  0  0  0  0  0  0  0  0  0  0  0
   27.2757  -32.6426  -15.2414 N   0  0  0  0  0  0  0  0  0  0  0  0
   28.6693  -32.3120  -15.2449 C   0  0  0  0  0  0  0  0  0  0  0  0
   29.4950  -32.9905  -14.6041 O   0  0  0  0  0  0  0  0  0  0  0  0
   29.1360  -31.1410  -16.0270 C   0  0  0  0  0  0  0  0  0  0  0  0
   28.0581  -30.3542  -16.6662 C   0  0  0  0  0  0  0  0  0  0  0  0
   27.3801  -30.9823  -17.8598 C   0  0  2  0  0  0  0  0  0  0  0  0
   28.2316  -30.8787  -19.0337 N   0  0  0  0  0  0  0  0  0  0  0  0
   26.0877  -30.2878  -18.0825 C   0  0  0  0  0  0  0  0  0  0  0  0
   26.0538  -29.3210  -18.8590 O   0  0  0  0  0  0  0  0  0  0  0  0
   18.5357  -27.2415  -20.3918 O   0  0  0  0  0  0  0  0  0  0  0  0
   19.6684  -27.9703  -20.0771 C   0  0  0  0  0  0  0  0  0  0  0  0
   20.9171  -27.4051  -20.1922 C   0  0  0  0  0  0  0  0  0  0  0  0
   22.0477  -28.1299  -19.8797 C   0  0  0  0  0  0  0  0  0  0  0  0
   21.9730  -29.4476  -19.4399 C   0  0  0  0  0  0  0  0  0  0  0  0
   23.1681  -30.2526  -19.1315 C   0  0  0  0  0  0  0  0  0  0  0  0
   23.6218  -30.0092  -17.7399 C   0  0  2  0  0  0  0  0  0  0  0  0
   24.8873  -30.6827  -17.4451 N   0  0  0  0  0  0  0  0  0  0  0  0
   22.5942  -30.4083  -16.7603 C   0  0  0  0  0  0  0  0  0  0  0  0
   21.6287  -29.5673  -16.2358 O   0  0  0  0  0  0  0  0  0  0  0  0
   20.7243  -30.0122  -19.3249 C   0  0  0  0  0  0  0  0  0  0  0  0
   19.5872  -29.2971  -19.6351 C   0  0  0  0  0  0  0  0  0  0  0  0
   22.5833  -31.6094  -16.3562 O   0  0  0  0  0  0  0  0  0  0  0  0
  1  5  1  0
  2  1  1  0
  2  3  1  0
  3  4  1  0
  4  5  1  0
  5  6  1  1
  6  7  2  0
  8  9  1  0
  9 11  1  0
 10  9  2  0
 11 12  1  0
 13 12  1  1
 13 15  1  0
 13 14  1  0
 14  6  1  0
 15 24  1  0
 16 15  2  0
 18 17  1  0
 18 19  2  0
 20 19  1  0
 21 20  2  0
 22 21  1  0
 23 22  1  6
 23 25  1  0
 24 23  1  0
 25 29  2  0
 25 26  1  0
 27 28  2  0
 27 21  1  0
 28 18  1  0
M  END
$$$$
