PQY.pdb
     RDKit          3D

 29 30  0  0  1  0  0  0  0  0999 V2000
   25.3540  -14.4013  -15.4294 N   0  0  0  0  0  0  0  0  0  0  0  0
   26.2420  -15.5696  -15.4514 C   0  0  0  0  0  0  0  0  0  0  0  0
   26.0241  -16.1072  -16.8688 C   0  0  0  0  0  0  0  0  0  0  0  0
   25.5351  -14.9351  -17.6563 C   0  0  0  0  0  0  0  0  0  0  0  0
   25.5471  -13.7325  -16.7013 C   0  0  1  0  0  0  0  0  0  0  0  0
   24.3312  -12.8845  -16.9833 C   0  0  0  0  0  0  0  0  0  0  0  0
   24.2918  -12.2242  -18.0801 O   0  0  0  0  0  0  0  0  0  0  0  0
   19.0409  -15.2969  -14.8624 N   0  0  0  0  0  0  0  0  0  0  0  0
   19.0024  -14.3679  -15.9517 C   0  0  0  0  0  0  0  0  0  0  0  0
   17.9194  -13.9814  -16.4320 O   0  0  0  0  0  0  0  0  0  0  0  0
   20.2757  -13.8571  -16.5161 C   0  0  0  0  0  0  0  0  0  0  0  0
   20.8329  -12.6773  -15.8180 C   0  0  0  0  0  0  0  0  0  0  0  0
   22.0488  -12.0356  -16.4414 C   0  0  2  0  0  0  0  0  0  0  0  0
   23.2451  -12.7882  -16.1000 N   0  0  0  0  0  0  0  0  0  0  0  0
   22.1452  -10.6393  -15.9481 C   0  0  0  0  0  0  0  0  0  0  0  0
   22.6163  -10.4346  -14.8190 O   0  0  0  0  0  0  0  0  0  0  0  0
   21.9436   -1.9242  -15.1739 O   0  0  0  0  0  0  0  0  0  0  0  0
   21.9784   -3.2031  -15.6996 C   0  0  0  0  0  0  0  0  0  0  0  0
   20.8836   -3.7199  -16.3528 C   0  0  0  0  0  0  0  0  0  0  0  0
   20.9157   -4.9947  -16.8771 C   0  0  0  0  0  0  0  0  0  0  0  0
   22.0436   -5.8017  -16.7687 C   0  0  0  0  0  0  0  0  0  0  0  0
   22.0905   -7.1784  -17.2918 C   0  0  0  0  0  0  0  0  0  0  0  0
   21.8685   -8.1627  -16.2038 C   0  0  2  0  0  0  0  0  0  0  0  0
   21.7217   -9.5267  -16.7136 N   0  0  0  0  0  0  0  0  0  0  0  0
   20.7006   -7.8005  -15.3794 C   0  0  0  0  0  0  0  0  0  0  0  0
   20.7486   -7.0329  -14.2291 O   0  0  0  0  0  0  0  0  0  0  0  0
   23.1379   -5.2845  -16.1159 C   0  0  0  0  0  0  0  0  0  0  0  0
   23.1169   -4.0114  -15.5873 C   0  0  0  0  0  0  0  0  0  0  0  0
   19.5592   -8.2191  -15.7372 O   0  0  0  0  0  0  0  0  0  0  0  0
  1  5  1  0
  2  1  1  0
  2  3  1  0
  3  4  1  0
  4  5  1  0
  5  6  1  6
  6  7  2  0
  8  9  1  0
  9 11  1  0
 10  9  2  0
 11 12  1  0
 13 12  1  1
 13 15  1  0
 13 14  1  0
 14  6  1  0
 15 24  1  0
 16 15  2  0
 18 17  1  0
 18 19  2  0
 20 19  1  0
 21 20  2  0
 22 21  1  0
 23 22  1  6
 23 25  1  0
 24 23  1  0
 25 29  2  0
 25 26  1  0
 27 28  2  0
 27 21  1  0
 28 18  1  0
M  END
$$$$
