DEM.pdb
     RDKit          3D

 26 25  0  0  1  0  0  0  0  0999 V2000
   17.3985  -13.3906  -17.8259 N   0  0  0  0  0  0  0  0  0  0  0  0
   17.3067  -12.2857  -16.8814 C   0  0  1  0  0  0  0  0  0  0  0  0
   17.7165  -12.8561  -15.5271 C   0  0  0  0  0  0  0  0  0  0  0  0
   16.6591  -13.8134  -15.1142 C   0  0  0  0  0  0  0  0  0  0  0  0
   16.9024  -15.0235  -14.8840 O   0  0  0  0  0  0  0  0  0  0  0  0
   18.2088  -11.1732  -17.2927 C   0  0  0  0  0  0  0  0  0  0  0  0
   19.1182  -11.4143  -18.1243 O   0  0  0  0  0  0  0  0  0  0  0  0
   15.3706  -13.3492  -14.9815 O   0  0  0  0  0  0  0  0  0  0  0  0
   18.0396   -9.8718  -16.7533 N   0  0  0  0  0  0  0  0  0  0  0  0
   18.9185   -8.7417  -17.1684 C   0  0  1  0  0  0  0  0  0  0  0  0
   18.1274   -7.4805  -17.0740 C   0  0  0  0  0  0  0  0  0  0  0  0
   17.1580   -7.2008  -18.1650 C   0  0  0  0  0  0  0  0  0  0  0  0
   16.3554   -5.9753  -18.0030 C   0  0  0  0  0  0  0  0  0  0  0  0
   15.5562   -5.8942  -17.0496 O   0  0  0  0  0  0  0  0  0  0  0  0
   20.0911   -8.7918  -16.2586 C   0  0  0  0  0  0  0  0  0  0  0  0
   19.9253   -8.8830  -14.9852 O   0  0  0  0  0  0  0  0  0  0  0  0
   16.4904   -4.9417  -18.8935 O   0  0  0  0  0  0  0  0  0  0  0  0
   27.4435  -10.9976  -15.0231 C   0  0  0  0  0  0  0  0  0  0  0  0
   26.2307  -10.4582  -16.2594 S   0  0  0  0  0  0  0  0  0  0  0  0
   24.8376   -9.7011  -15.3405 C   0  0  0  0  0  0  0  0  0  0  0  0
   23.7686   -9.4070  -16.3499 C   0  0  0  0  0  0  0  0  0  0  0  0
   22.5341   -8.9129  -15.6828 C   0  0  2  0  0  0  0  0  0  0  0  0
   21.4458   -8.7517  -16.6602 N   0  0  0  0  0  0  0  0  0  0  0  0
   22.7718   -7.5898  -15.0722 C   0  0  0  0  0  0  0  0  0  0  0  0
   22.4070   -6.4172  -15.7416 O   0  0  0  0  0  0  0  0  0  0  0  0
   23.3020   -7.4216  -13.9441 O   0  0  0  0  0  0  0  0  0  0  0  0
  2  6  1  0
  2  3  1  0
  2  1  1  6
  3  4  1  0
  4  8  1  0
  4  5  2  0
  6  7  2  0
  9 10  1  0
  9  6  1  0
 10 11  1  1
 12 11  1  0
 12 13  1  0
 13 14  2  0
 15 16  2  0
 15 10  1  0
 17 13  1  0
 18 19  1  0
 20 21  1  0
 20 19  1  0
 22 21  1  6
 22 23  1  0
 22 24  1  0
 23 15  1  0
 24 25  1  0
 26 24  2  0
M  END
$$$$
