DEM.pdb
     RDKit          3D

 26 25  0  0  1  0  0  0  0  0999 V2000
   17.3010  -12.2599  -17.6428 N   0  0  0  0  0  0  0  0  0  0  0  0
   17.6956  -11.7916  -16.3214 C   0  0  1  0  0  0  0  0  0  0  0  0
   18.7732  -12.7574  -15.8383 C   0  0  0  0  0  0  0  0  0  0  0  0
   18.0967  -14.0313  -15.4853 C   0  0  0  0  0  0  0  0  0  0  0  0
   16.8539  -14.1088  -15.3242 O   0  0  0  0  0  0  0  0  0  0  0  0
   18.2165  -10.3975  -16.3975 C   0  0  0  0  0  0  0  0  0  0  0  0
   19.1387  -10.1450  -17.2114 O   0  0  0  0  0  0  0  0  0  0  0  0
   18.8668  -15.1612  -15.3313 O   0  0  0  0  0  0  0  0  0  0  0  0
   17.6786   -9.3813  -15.5661 N   0  0  0  0  0  0  0  0  0  0  0  0
   18.1673   -7.9754  -15.6475 C   0  0  1  0  0  0  0  0  0  0  0  0
   17.1115   -7.0844  -15.0847 C   0  0  0  0  0  0  0  0  0  0  0  0
   15.8749   -6.9011  -15.8881 C   0  0  0  0  0  0  0  0  0  0  0  0
   14.6530   -6.6115  -15.1164 C   0  0  0  0  0  0  0  0  0  0  0  0
   14.7384   -6.4436  -13.8841 O   0  0  0  0  0  0  0  0  0  0  0  0
   19.4462   -7.9521  -14.8932 C   0  0  0  0  0  0  0  0  0  0  0  0
   19.7751   -8.9400  -14.1361 O   0  0  0  0  0  0  0  0  0  0  0  0
   13.4411   -6.5297  -15.7521 O   0  0  0  0  0  0  0  0  0  0  0  0
   26.3758   -9.7590  -14.9377 C   0  0  0  0  0  0  0  0  0  0  0  0
   24.7059   -9.5380  -15.6109 S   0  0  0  0  0  0  0  0  0  0  0  0
   23.9042   -8.2222  -14.6189 C   0  0  0  0  0  0  0  0  0  0  0  0
   22.4673   -8.1800  -15.0454 C   0  0  0  0  0  0  0  0  0  0  0  0
   21.7409   -7.0862  -14.3462 C   0  0  2  0  0  0  0  0  0  0  0  0
   20.3975   -6.9069  -14.9196 N   0  0  0  0  0  0  0  0  0  0  0  0
   22.4583   -5.8057  -14.5064 C   0  0  0  0  0  0  0  0  0  0  0  0
   23.4301   -5.4098  -13.5818 O   0  0  0  0  0  0  0  0  0  0  0  0
   22.2574   -5.0013  -15.4522 O   0  0  0  0  0  0  0  0  0  0  0  0
  2  6  1  0
  2  3  1  0
  2  1  1  6
  3  4  1  0
  4  8  1  0
  4  5  2  0
  6  7  2  0
  9 10  1  0
  9  6  1  0
 10 11  1  1
 12 11  1  0
 12 13  1  0
 13 14  2  0
 15 16  2  0
 15 10  1  0
 17 13  1  0
 18 19  1  0
 20 21  1  0
 20 19  1  0
 22 21  1  6
 22 23  1  0
 22 24  1  0
 23 15  1  0
 24 25  1  0
 26 24  2  0
M  END
$$$$
