DEM.pdb
     RDKit          3D

 26 25  0  0  1  0  0  0  0  0999 V2000
   16.2142  -11.0110  -12.8341 N   0  0  0  0  0  0  0  0  0  0  0  0
   16.2274  -10.2326  -14.0651 C   0  0  1  0  0  0  0  0  0  0  0  0
   14.8054  -10.2915  -14.6142 C   0  0  0  0  0  0  0  0  0  0  0  0
   14.4987  -11.7179  -14.8907 C   0  0  0  0  0  0  0  0  0  0  0  0
   15.2483  -12.4417  -15.5913 O   0  0  0  0  0  0  0  0  0  0  0  0
   16.6402   -8.8278  -13.7879 C   0  0  0  0  0  0  0  0  0  0  0  0
   16.7109   -8.0225  -14.7487 O   0  0  0  0  0  0  0  0  0  0  0  0
   13.3508  -12.2567  -14.3565 O   0  0  0  0  0  0  0  0  0  0  0  0
   16.9457   -8.4146  -12.4654 N   0  0  0  0  0  0  0  0  0  0  0  0
   17.3212   -7.0041  -12.1626 C   0  0  1  0  0  0  0  0  0  0  0  0
   16.8593   -6.6882  -10.7798 C   0  0  0  0  0  0  0  0  0  0  0  0
   17.2416   -5.3664  -10.2189 C   0  0  0  0  0  0  0  0  0  0  0  0
   16.7369   -5.0812   -8.8638 C   0  0  0  0  0  0  0  0  0  0  0  0
   16.4878   -6.0312   -8.0959 O   0  0  0  0  0  0  0  0  0  0  0  0
   18.7939   -6.9352  -12.3409 C   0  0  0  0  0  0  0  0  0  0  0  0
   19.5743   -7.6420  -11.6002 O   0  0  0  0  0  0  0  0  0  0  0  0
   16.5453   -3.7852   -8.4595 O   0  0  0  0  0  0  0  0  0  0  0  0
   22.9259  -10.0618  -14.9703 C   0  0  0  0  0  0  0  0  0  0  0  0
   23.1830   -8.5078  -15.8702 S   0  0  0  0  0  0  0  0  0  0  0  0
   22.8085   -7.1488  -14.6993 C   0  0  0  0  0  0  0  0  0  0  0  0
   21.3269   -7.1776  -14.4700 C   0  0  0  0  0  0  0  0  0  0  0  0
   20.9350   -6.1925  -13.4265 C   0  0  2  0  0  0  0  0  0  0  0  0
   19.4707   -6.1363  -13.2905 N   0  0  0  0  0  0  0  0  0  0  0  0
   21.3910   -4.8382  -13.7982 C   0  0  0  0  0  0  0  0  0  0  0  0
   20.4706   -3.8432  -14.1428 O   0  0  0  0  0  0  0  0  0  0  0  0
   22.5986   -4.4882  -13.8327 O   0  0  0  0  0  0  0  0  0  0  0  0
  2  6  1  0
  2  3  1  0
  2  1  1  1
  3  4  1  0
  4  8  1  0
  4  5  2  0
  6  7  2  0
  9 10  1  0
  9  6  1  0
 10 11  1  1
 12 11  1  0
 12 13  1  0
 13 14  2  0
 15 16  2  0
 15 10  1  0
 17 13  1  0
 18 19  1  0
 20 21  1  0
 20 19  1  0
 22 21  1  6
 22 23  1  0
 22 24  1  0
 23 15  1  0
 24 25  1  0
 26 24  2  0
M  END
$$$$
