DEM.pdb
     RDKit          3D

 26 25  0  0  1  0  0  0  0  0999 V2000
   16.1545   -7.4850   -9.5934 N   0  0  0  0  0  0  0  0  0  0  0  0
   16.9670   -6.8703  -10.6342 C   0  0  1  0  0  0  0  0  0  0  0  0
   17.9024   -5.9007   -9.9185 C   0  0  0  0  0  0  0  0  0  0  0  0
   17.2206   -4.5822   -9.8749 C   0  0  0  0  0  0  0  0  0  0  0  0
   16.0997   -4.3886  -10.4066 O   0  0  0  0  0  0  0  0  0  0  0  0
   17.7341   -7.9096  -11.3772 C   0  0  0  0  0  0  0  0  0  0  0  0
   18.1889   -8.8907  -10.7391 O   0  0  0  0  0  0  0  0  0  0  0  0
   17.8465   -3.5421   -9.2270 O   0  0  0  0  0  0  0  0  0  0  0  0
   17.9433   -7.7882  -12.7753 N   0  0  0  0  0  0  0  0  0  0  0  0
   18.5291   -8.9050  -13.5700 C   0  0  1  0  0  0  0  0  0  0  0  0
   17.6196   -9.1827  -14.7194 C   0  0  0  0  0  0  0  0  0  0  0  0
   18.0589  -10.2046  -15.7047 C   0  0  0  0  0  0  0  0  0  0  0  0
   17.1473  -10.4239  -16.8419 C   0  0  0  0  0  0  0  0  0  0  0  0
   16.0582  -10.9978  -16.6454 O   0  0  0  0  0  0  0  0  0  0  0  0
   19.8847   -8.4460  -13.9663 C   0  0  0  0  0  0  0  0  0  0  0  0
   20.1045   -7.2030  -14.2188 O   0  0  0  0  0  0  0  0  0  0  0  0
   17.4992  -10.0002  -18.0974 O   0  0  0  0  0  0  0  0  0  0  0  0
   27.3393  -10.0158  -15.9847 C   0  0  0  0  0  0  0  0  0  0  0  0
   25.7395  -10.6834  -15.4501 S   0  0  0  0  0  0  0  0  0  0  0  0
   24.6353   -9.2491  -15.1644 C   0  0  0  0  0  0  0  0  0  0  0  0
   23.3187   -9.8061  -14.7117 C   0  0  0  0  0  0  0  0  0  0  0  0
   22.3058   -8.7247  -14.5784 C   0  0  2  0  0  0  0  0  0  0  0  0
   21.0252   -9.2701  -14.1006 N   0  0  0  0  0  0  0  0  0  0  0  0
   22.0497   -8.0933  -15.8882 C   0  0  0  0  0  0  0  0  0  0  0  0
   21.1539   -8.6674  -16.7960 O   0  0  0  0  0  0  0  0  0  0  0  0
   22.5980   -7.0293  -16.2746 O   0  0  0  0  0  0  0  0  0  0  0  0
  2  6  1  0
  2  3  1  0
  2  1  1  1
  3  4  1  0
  4  8  1  0
  4  5  2  0
  6  7  2  0
  9 10  1  0
  9  6  1  0
 10 11  1  6
 12 11  1  0
 12 13  1  0
 13 14  2  0
 15 16  2  0
 15 10  1  0
 17 13  1  0
 18 19  1  0
 20 21  1  0
 20 19  1  0
 22 21  1  6
 22 23  1  0
 22 24  1  0
 23 15  1  0
 24 25  1  0
 26 24  2  0
M  END
$$$$
