DEM.pdb
     RDKit          3D

 26 25  0  0  1  0  0  0  0  0999 V2000
   18.4758  -11.9831  -15.8820 N   0  0  0  0  0  0  0  0  0  0  0  0
   18.4228  -10.6369  -16.4357 C   0  0  1  0  0  0  0  0  0  0  0  0
   17.1241  -10.0228  -15.9223 C   0  0  0  0  0  0  0  0  0  0  0  0
   16.0053  -10.7498  -16.5739 C   0  0  0  0  0  0  0  0  0  0  0  0
   15.9989  -11.0092  -17.8024 O   0  0  0  0  0  0  0  0  0  0  0  0
   19.6051   -9.8453  -15.9929 C   0  0  0  0  0  0  0  0  0  0  0  0
   19.8838   -9.8165  -14.7689 O   0  0  0  0  0  0  0  0  0  0  0  0
   14.9426  -11.1494  -15.7964 O   0  0  0  0  0  0  0  0  0  0  0  0
   20.3953   -9.1412  -16.9379 N   0  0  0  0  0  0  0  0  0  0  0  0
   21.6463   -8.4400  -16.5313 C   0  0  1  0  0  0  0  0  0  0  0  0
   22.7447   -8.8910  -17.4345 C   0  0  0  0  0  0  0  0  0  0  0  0
   24.0749   -8.2516  -17.2617 C   0  0  0  0  0  0  0  0  0  0  0  0
   25.1240   -8.7064  -18.1917 C   0  0  0  0  0  0  0  0  0  0  0  0
   24.9045   -9.6952  -18.9185 O   0  0  0  0  0  0  0  0  0  0  0  0
   21.3408   -6.9898  -16.6251 C   0  0  0  0  0  0  0  0  0  0  0  0
   20.9755   -6.4713  -17.7453 O   0  0  0  0  0  0  0  0  0  0  0  0
   26.3240   -8.0460  -18.2513 O   0  0  0  0  0  0  0  0  0  0  0  0
   17.6881   -0.5846  -15.5618 C   0  0  0  0  0  0  0  0  0  0  0  0
   17.9620   -2.3234  -15.1235 S   0  0  0  0  0  0  0  0  0  0  0  0
   19.7003   -2.7114  -15.5546 C   0  0  0  0  0  0  0  0  0  0  0  0
   19.8597   -4.1940  -15.3968 C   0  0  0  0  0  0  0  0  0  0  0  0
   21.2290   -4.6225  -15.7898 C   0  0  2  0  0  0  0  0  0  0  0  0
   21.4072   -6.0649  -15.5583 N   0  0  0  0  0  0  0  0  0  0  0  0
   22.2423   -3.9216  -14.9763 C   0  0  0  0  0  0  0  0  0  0  0  0
   22.7430   -2.6776  -15.3737 O   0  0  0  0  0  0  0  0  0  0  0  0
   22.7165   -4.3732  -13.9024 O   0  0  0  0  0  0  0  0  0  0  0  0
  2  6  1  0
  2  3  1  0
  2  1  1  1
  3  4  1  0
  4  8  1  0
  4  5  2  0
  6  7  2  0
  9 10  1  0
  9  6  1  0
 10 11  1  6
 12 11  1  0
 12 13  1  0
 13 14  2  0
 15 16  2  0
 15 10  1  0
 17 13  1  0
 18 19  1  0
 20 21  1  0
 20 19  1  0
 22 21  1  1
 22 23  1  0
 22 24  1  0
 23 15  1  0
 24 25  1  0
 26 24  2  0
M  END
$$$$
