DEM.pdb
     RDKit          3D

 26 25  0  0  1  0  0  0  0  0999 V2000
   19.1710  -14.3943  -18.3769 N   0  0  0  0  0  0  0  0  0  0  0  0
   18.8575  -13.5743  -17.2147 C   0  0  1  0  0  0  0  0  0  0  0  0
   19.5714  -14.2275  -16.0354 C   0  0  0  0  0  0  0  0  0  0  0  0
   18.8919  -15.5210  -15.7706 C   0  0  0  0  0  0  0  0  0  0  0  0
   19.4946  -16.5077  -15.2811 O   0  0  0  0  0  0  0  0  0  0  0  0
   19.3284  -12.1759  -17.4222 C   0  0  0  0  0  0  0  0  0  0  0  0
   20.3697  -11.9874  -18.0981 O   0  0  0  0  0  0  0  0  0  0  0  0
   17.5547  -15.6330  -16.0752 O   0  0  0  0  0  0  0  0  0  0  0  0
   18.6122  -11.0847  -16.8659 N   0  0  0  0  0  0  0  0  0  0  0  0
   19.0559   -9.6779  -17.0801 C   0  0  1  0  0  0  0  0  0  0  0  0
   17.9479   -8.7730  -16.6571 C   0  0  0  0  0  0  0  0  0  0  0  0
   18.2195   -7.3121  -16.6677 C   0  0  0  0  0  0  0  0  0  0  0  0
   17.0728   -6.4502  -16.3292 C   0  0  0  0  0  0  0  0  0  0  0  0
   16.2139   -6.2119  -17.2008 O   0  0  0  0  0  0  0  0  0  0  0  0
   20.3007   -9.5255  -16.2848 C   0  0  0  0  0  0  0  0  0  0  0  0
   20.6009  -10.3827  -15.3725 O   0  0  0  0  0  0  0  0  0  0  0  0
   16.9586   -5.9201  -15.0700 O   0  0  0  0  0  0  0  0  0  0  0  0
   26.9355  -11.2416  -14.4325 C   0  0  0  0  0  0  0  0  0  0  0  0
   25.4890  -11.1777  -15.5252 S   0  0  0  0  0  0  0  0  0  0  0  0
   24.5692   -9.6512  -15.0985 C   0  0  0  0  0  0  0  0  0  0  0  0
   23.3047   -9.6741  -15.9040 C   0  0  0  0  0  0  0  0  0  0  0  0
   22.4828   -8.4646  -15.6309 C   0  0  2  0  0  0  0  0  0  0  0  0
   21.2475   -8.4860  -16.4304 N   0  0  0  0  0  0  0  0  0  0  0  0
   23.2229   -7.2428  -16.0040 C   0  0  0  0  0  0  0  0  0  0  0  0
   24.1293   -6.6561  -15.1150 O   0  0  0  0  0  0  0  0  0  0  0  0
   23.0993   -6.6564  -17.1098 O   0  0  0  0  0  0  0  0  0  0  0  0
  2  6  1  0
  2  3  1  0
  2  1  1  6
  3  4  1  0
  4  8  1  0
  4  5  2  0
  6  7  2  0
  9 10  1  0
  9  6  1  0
 10 11  1  1
 12 11  1  0
 12 13  1  0
 13 14  2  0
 15 16  2  0
 15 10  1  0
 17 13  1  0
 18 19  1  0
 20 21  1  0
 20 19  1  0
 22 21  1  6
 22 23  1  0
 22 24  1  0
 23 15  1  0
 24 25  1  0
 26 24  2  0
M  END
$$$$
