DEM.pdb
     RDKit          3D

 26 25  0  0  1  0  0  0  0  0999 V2000
   15.6287  -13.3040  -13.0787 N   0  0  0  0  0  0  0  0  0  0  0  0
   15.5121  -11.9177  -13.5100 C   0  0  1  0  0  0  0  0  0  0  0  0
   14.0190  -11.6048  -13.5179 C   0  0  0  0  0  0  0  0  0  0  0  0
   13.4061  -12.4098  -14.6047 C   0  0  0  0  0  0  0  0  0  0  0  0
   12.7335  -13.4450  -14.3753 O   0  0  0  0  0  0  0  0  0  0  0  0
   16.2461  -11.0186  -12.5753 C   0  0  0  0  0  0  0  0  0  0  0  0
   16.3351  -11.3517  -11.3680 O   0  0  0  0  0  0  0  0  0  0  0  0
   13.5866  -11.9995  -15.9057 O   0  0  0  0  0  0  0  0  0  0  0  0
   16.8296   -9.8134  -13.0447 N   0  0  0  0  0  0  0  0  0  0  0  0
   17.6701   -8.9627  -12.1549 C   0  0  1  0  0  0  0  0  0  0  0  0
   18.7701   -8.3785  -12.9760 C   0  0  0  0  0  0  0  0  0  0  0  0
   19.6812   -7.4139  -12.3072 C   0  0  0  0  0  0  0  0  0  0  0  0
   20.7040   -6.8007  -13.1734 C   0  0  0  0  0  0  0  0  0  0  0  0
   21.4601   -5.9307  -12.6984 O   0  0  0  0  0  0  0  0  0  0  0  0
   16.7458   -7.9556  -11.5745 C   0  0  0  0  0  0  0  0  0  0  0  0
   15.8300   -7.4159  -12.3006 O   0  0  0  0  0  0  0  0  0  0  0  0
   20.8166   -7.1864  -14.4842 O   0  0  0  0  0  0  0  0  0  0  0  0
   12.6713   -5.2300   -5.5359 C   0  0  0  0  0  0  0  0  0  0  0  0
   13.7824   -6.4934   -6.2140 S   0  0  0  0  0  0  0  0  0  0  0  0
   14.3289   -5.8924   -7.8567 C   0  0  0  0  0  0  0  0  0  0  0  0
   15.2879   -6.9147   -8.3892 C   0  0  0  0  0  0  0  0  0  0  0  0
   15.7597   -6.5382   -9.7489 C   0  0  2  0  0  0  0  0  0  0  0  0
   16.7596   -7.5019  -10.2358 N   0  0  0  0  0  0  0  0  0  0  0  0
   16.4089   -5.2124   -9.7209 C   0  0  0  0  0  0  0  0  0  0  0  0
   15.6443   -4.0413   -9.7341 O   0  0  0  0  0  0  0  0  0  0  0  0
   17.6543   -5.0404   -9.6850 O   0  0  0  0  0  0  0  0  0  0  0  0
  2  6  1  0
  2  3  1  0
  2  1  1  1
  3  4  1  0
  4  8  1  0
  4  5  2  0
  6  7  2  0
  9 10  1  0
  9  6  1  0
 10 11  1  6
 12 11  1  0
 12 13  1  0
 13 14  2  0
 15 16  2  0
 15 10  1  0
 17 13  1  0
 18 19  1  0
 20 21  1  0
 20 19  1  0
 22 21  1  1
 22 23  1  0
 22 24  1  0
 23 15  1  0
 24 25  1  0
 26 24  2  0
M  END
$$$$
