QLV.pdb
     RDKit          3D

 25 24  0  0  1  0  0  0  0  0999 V2000
    6.0273  -18.2731   17.7726 N   0  0  0  0  0  0  0  0  0  0  0  0
    7.0006  -17.5044   18.4864 C   0  0  0  0  0  0  0  0  0  0  0  0
    7.9886  -17.0927   17.8413 O   0  0  0  0  0  0  0  0  0  0  0  0
    6.8137  -17.2268   19.9320 C   0  0  0  0  0  0  0  0  0  0  0  0
    7.9786  -16.4994   20.5525 C   0  0  0  0  0  0  0  0  0  0  0  0
    7.6525  -15.1216   21.0270 C   0  0  2  0  0  0  0  0  0  0  0  0
    8.2081  -14.1972   20.0335 N   0  0  0  0  0  0  0  0  0  0  0  0
    8.3040  -14.8351   22.3609 C   0  0  0  0  0  0  0  0  0  0  0  0
    9.5609  -14.8033   22.3823 O   0  0  0  0  0  0  0  0  0  0  0  0
    5.8106  -11.8033   26.2982 C   0  0  0  0  0  0  0  0  0  0  0  0
    6.9054  -12.5049   25.5022 C   0  0  1  0  0  0  0  0  0  0  0  0
    8.2136  -11.8570   25.9918 C   0  0  0  0  0  0  0  0  0  0  0  0
    7.0044  -13.9542   25.8495 C   0  0  0  0  0  0  0  0  0  0  0  0
    7.9716  -14.6302   24.8854 C   0  0  2  0  0  0  0  0  0  0  0  0
    7.5324  -14.6163   23.5153 N   0  0  0  0  0  0  0  0  0  0  0  0
    8.4661  -15.9315   25.3607 C   0  0  0  0  0  0  0  0  0  0  0  0
    7.6624  -16.9014   25.3600 O   0  0  0  0  0  0  0  0  0  0  0  0
   12.2310  -19.0107   26.1537 C   0  0  0  0  0  0  0  0  0  0  0  0
   11.6800  -17.6733   25.7058 C   0  0  1  0  0  0  0  0  0  0  0  0
   11.6951  -17.6625   24.1989 C   0  0  0  0  0  0  0  0  0  0  0  0
   10.3055  -17.4191   26.2352 C   0  0  2  0  0  0  0  0  0  0  0  0
    9.7719  -16.1389   25.8078 N   0  0  0  0  0  0  0  0  0  0  0  0
   10.3366  -17.5126   27.7187 C   0  0  0  0  0  0  0  0  0  0  0  0
   10.2813  -16.4459   28.3741 O   0  0  0  0  0  0  0  0  0  0  0  0
   10.4237  -18.7323   28.3810 O   0  0  0  0  0  0  0  0  0  0  0  0
  2  1  1  0
  3  2  2  0
  4  2  1  0
  5  4  1  0
  6  5  1  0
  6  7  1  6
  8  6  1  0
  9  8  2  0
 11 10  1  1
 11 13  1  0
 11 12  1  0
 14 13  1  1
 14 15  1  0
 15  8  1  0
 16 17  2  0
 16 14  1  0
 19 21  1  0
 19 18  1  6
 20 19  1  0
 21 22  1  1
 22 16  1  0
 23 21  1  0
 24 23  2  0
 25 23  1  0
M  END
$$$$
