QLV.pdb
     RDKit          3D

 25 24  0  0  1  0  0  0  0  0999 V2000
    8.5976  -20.8232   22.6475 N   0  0  0  0  0  0  0  0  0  0  0  0
    8.2767  -20.4579   21.3016 C   0  0  0  0  0  0  0  0  0  0  0  0
    7.9203  -21.3745   20.5304 O   0  0  0  0  0  0  0  0  0  0  0  0
    8.3745  -19.0408   20.8727 C   0  0  0  0  0  0  0  0  0  0  0  0
    8.7543  -18.1064   21.9924 C   0  0  0  0  0  0  0  0  0  0  0  0
    8.6327  -16.6592   21.6445 C   0  0  2  0  0  0  0  0  0  0  0  0
    9.6608  -16.3863   20.6352 N   0  0  0  0  0  0  0  0  0  0  0  0
    8.9021  -15.7841   22.8476 C   0  0  0  0  0  0  0  0  0  0  0  0
   10.1076  -15.5597   23.1264 O   0  0  0  0  0  0  0  0  0  0  0  0
    7.9706  -11.7714   26.2814 C   0  0  0  0  0  0  0  0  0  0  0  0
    6.9518  -12.8987   26.4069 C   0  0  1  0  0  0  0  0  0  0  0  0
    5.6242  -12.1853   26.7217 C   0  0  0  0  0  0  0  0  0  0  0  0
    6.7443  -13.6085   25.1092 C   0  0  0  0  0  0  0  0  0  0  0  0
    7.9363  -14.5207   24.8468 C   0  0  2  0  0  0  0  0  0  0  0  0
    7.8484  -15.2521   23.6109 N   0  0  0  0  0  0  0  0  0  0  0  0
    8.3316  -15.3261   26.0125 C   0  0  0  0  0  0  0  0  0  0  0  0
    8.5312  -14.7251   27.1014 O   0  0  0  0  0  0  0  0  0  0  0  0
    6.8907  -19.0764   26.4444 C   0  0  0  0  0  0  0  0  0  0  0  0
    8.3280  -18.9685   26.9085 C   0  0  1  0  0  0  0  0  0  0  0  0
    9.1877  -19.6425   25.8705 C   0  0  0  0  0  0  0  0  0  0  0  0
    8.7504  -17.5511   27.1239 C   0  0  2  0  0  0  0  0  0  0  0  0
    8.4939  -16.7116   25.9681 N   0  0  0  0  0  0  0  0  0  0  0  0
   10.1921  -17.5287   27.4866 C   0  0  0  0  0  0  0  0  0  0  0  0
   10.9923  -17.0077   26.6749 O   0  0  0  0  0  0  0  0  0  0  0  0
   10.6623  -18.0620   28.6817 O   0  0  0  0  0  0  0  0  0  0  0  0
  2  1  1  0
  3  2  2  0
  4  2  1  0
  5  4  1  0
  6  5  1  0
  6  7  1  6
  8  6  1  0
  9  8  2  0
 11 10  1  6
 11 13  1  0
 11 12  1  0
 14 13  1  1
 14 15  1  0
 15  8  1  0
 16 17  2  0
 16 14  1  0
 19 21  1  0
 19 18  1  6
 20 19  1  0
 21 22  1  6
 22 16  1  0
 23 21  1  0
 24 23  2  0
 25 23  1  0
M  END
$$$$
