QLV.pdb
     RDKit          3D

 25 24  0  0  1  0  0  0  0  0999 V2000
   10.3891  -19.3681   19.9559 N   0  0  0  0  0  0  0  0  0  0  0  0
    9.1010  -19.2087   19.3533 C   0  0  0  0  0  0  0  0  0  0  0  0
    8.8243  -19.9559   18.3905 O   0  0  0  0  0  0  0  0  0  0  0  0
    8.1578  -18.1886   19.8744 C   0  0  0  0  0  0  0  0  0  0  0  0
    8.6868  -17.4500   21.0768 C   0  0  0  0  0  0  0  0  0  0  0  0
    8.5139  -15.9684   21.0051 C   0  0  2  0  0  0  0  0  0  0  0  0
    9.4084  -15.4962   19.9435 N   0  0  0  0  0  0  0  0  0  0  0  0
    8.9232  -15.3077   22.3019 C   0  0  0  0  0  0  0  0  0  0  0  0
   10.1425  -15.3611   22.6047 O   0  0  0  0  0  0  0  0  0  0  0  0
    8.3343  -12.1101   26.6381 C   0  0  0  0  0  0  0  0  0  0  0  0
    7.2263  -13.1454   26.4802 C   0  0  1  0  0  0  0  0  0  0  0  0
    5.9606  -12.4376   26.9976 C   0  0  0  0  0  0  0  0  0  0  0  0
    6.9652  -13.4669   25.0452 C   0  0  0  0  0  0  0  0  0  0  0  0
    8.1046  -14.3284   24.5147 C   0  0  2  0  0  0  0  0  0  0  0  0
    7.9783  -14.6672   23.1221 N   0  0  0  0  0  0  0  0  0  0  0  0
    8.4516  -15.4554   25.3940 C   0  0  0  0  0  0  0  0  0  0  0  0
    7.5488  -16.2924   25.6605 O   0  0  0  0  0  0  0  0  0  0  0  0
   11.9346  -18.5455   26.9720 C   0  0  0  0  0  0  0  0  0  0  0  0
   11.4555  -17.3564   26.1662 C   0  0  1  0  0  0  0  0  0  0  0  0
   11.3552  -17.7979   24.7289 C   0  0  0  0  0  0  0  0  0  0  0  0
   10.1495  -16.8239   26.6612 C   0  0  2  0  0  0  0  0  0  0  0  0
    9.7225  -15.6383   25.9412 N   0  0  0  0  0  0  0  0  0  0  0  0
   10.2636  -16.5479   28.1177 C   0  0  0  0  0  0  0  0  0  0  0  0
   10.3460  -15.3519   28.4826 O   0  0  0  0  0  0  0  0  0  0  0  0
   10.2805  -17.5667   29.0641 O   0  0  0  0  0  0  0  0  0  0  0  0
  2  1  1  0
  3  2  2  0
  4  2  1  0
  5  4  1  0
  6  5  1  0
  6  7  1  6
  8  6  1  0
  9  8  2  0
 11 10  1  6
 11 13  1  0
 11 12  1  0
 14 13  1  1
 14 15  1  0
 15  8  1  0
 16 17  2  0
 16 14  1  0
 19 21  1  0
 19 18  1  1
 20 19  1  0
 21 22  1  6
 22 16  1  0
 23 21  1  0
 24 23  2  0
 25 23  1  0
M  END
$$$$
