QLV.pdb
     RDKit          3D

 25 24  0  0  1  0  0  0  0  0999 V2000
   12.3249  -17.9884   19.1356 N   0  0  0  0  0  0  0  0  0  0  0  0
   11.0769  -18.3182   18.5178 C   0  0  0  0  0  0  0  0  0  0  0  0
   11.1120  -19.0901   17.5355 O   0  0  0  0  0  0  0  0  0  0  0  0
    9.8126  -17.7494   19.0466 C   0  0  0  0  0  0  0  0  0  0  0  0
   10.0250  -16.7918   20.1907 C   0  0  0  0  0  0  0  0  0  0  0  0
    9.4950  -17.2798   21.4987 C   0  0  2  0  0  0  0  0  0  0  0  0
    8.0762  -17.5825   21.2857 N   0  0  0  0  0  0  0  0  0  0  0  0
    9.5995  -16.2110   22.5630 C   0  0  0  0  0  0  0  0  0  0  0  0
   10.7204  -15.6586   22.7031 O   0  0  0  0  0  0  0  0  0  0  0  0
    7.8075  -11.8465   25.1895 C   0  0  0  0  0  0  0  0  0  0  0  0
    7.2076  -13.1703   25.6501 C   0  0  1  0  0  0  0  0  0  0  0  0
    5.7563  -12.8244   26.0304 C   0  0  0  0  0  0  0  0  0  0  0  0
    7.1201  -14.1597   24.5346 C   0  0  0  0  0  0  0  0  0  0  0  0
    8.4425  -14.9099   24.4322 C   0  0  2  0  0  0  0  0  0  0  0  0
    8.4908  -15.8593   23.3522 N   0  0  0  0  0  0  0  0  0  0  0  0
    8.9344  -15.4183   25.7219 C   0  0  0  0  0  0  0  0  0  0  0  0
    8.1482  -16.1144   26.4176 O   0  0  0  0  0  0  0  0  0  0  0  0
   10.4317  -14.9105   29.9865 C   0  0  0  0  0  0  0  0  0  0  0  0
    9.9128  -14.6678   28.5849 C   0  0  1  0  0  0  0  0  0  0  0  0
   10.0089  -13.1875   28.3197 C   0  0  0  0  0  0  0  0  0  0  0  0
   10.6638  -15.4516   27.5575 C   0  0  2  0  0  0  0  0  0  0  0  0
   10.2195  -15.1674   26.2054 N   0  0  0  0  0  0  0  0  0  0  0  0
   10.5317  -16.9000   27.8661 C   0  0  0  0  0  0  0  0  0  0  0  0
   11.5525  -17.5102   28.2612 O   0  0  0  0  0  0  0  0  0  0  0  0
    9.3255  -17.5782   27.7289 O   0  0  0  0  0  0  0  0  0  0  0  0
  2  1  1  0
  3  2  2  0
  4  2  1  0
  5  4  1  0
  6  5  1  0
  6  7  1  6
  8  6  1  0
  9  8  2  0
 11 10  1  6
 11 13  1  0
 11 12  1  0
 14 13  1  1
 14 15  1  0
 15  8  1  0
 16 17  2  0
 16 14  1  0
 19 21  1  0
 19 18  1  1
 20 19  1  0
 21 22  1  6
 22 16  1  0
 23 21  1  0
 24 23  2  0
 25 23  1  0
M  END
$$$$
