QLV.pdb
     RDKit          3D

 25 24  0  0  1  0  0  0  0  0999 V2000
    5.3698  -18.4008   21.4003 N   0  0  0  0  0  0  0  0  0  0  0  0
    6.7055  -18.6977   20.9814 C   0  0  0  0  0  0  0  0  0  0  0  0
    6.8401  -19.4233   19.9728 O   0  0  0  0  0  0  0  0  0  0  0  0
    7.8599  -18.1508   21.7364 C   0  0  0  0  0  0  0  0  0  0  0  0
    8.8555  -17.4335   20.8615 C   0  0  0  0  0  0  0  0  0  0  0  0
    8.7843  -15.9447   20.9535 C   0  0  2  0  0  0  0  0  0  0  0  0
    9.8158  -15.4226   20.0514 N   0  0  0  0  0  0  0  0  0  0  0  0
    9.0922  -15.4690   22.3552 C   0  0  0  0  0  0  0  0  0  0  0  0
   10.2512  -15.6939   22.7880 O   0  0  0  0  0  0  0  0  0  0  0  0
    8.3595  -12.0766   26.6397 C   0  0  0  0  0  0  0  0  0  0  0  0
    7.2922  -13.1379   26.3964 C   0  0  1  0  0  0  0  0  0  0  0  0
    5.9788  -12.4751   26.8509 C   0  0  0  0  0  0  0  0  0  0  0  0
    7.1253  -13.4365   24.9425 C   0  0  0  0  0  0  0  0  0  0  0  0
    8.2169  -14.4063   24.5070 C   0  0  2  0  0  0  0  0  0  0  0  0
    8.1222  -14.8081   23.1286 N   0  0  0  0  0  0  0  0  0  0  0  0
    8.4413  -15.5077   25.4558 C   0  0  0  0  0  0  0  0  0  0  0  0
    7.4665  -16.2585   25.7258 O   0  0  0  0  0  0  0  0  0  0  0  0
   12.4591  -16.7509   26.1766 C   0  0  0  0  0  0  0  0  0  0  0  0
   11.2368  -17.6425   26.1134 C   0  0  1  0  0  0  0  0  0  0  0  0
   11.5822  -18.9298   26.8164 C   0  0  0  0  0  0  0  0  0  0  0  0
   10.0326  -16.9995   26.7221 C   0  0  2  0  0  0  0  0  0  0  0  0
    9.6723  -15.7569   26.0645 N   0  0  0  0  0  0  0  0  0  0  0  0
   10.2853  -16.7796   28.1706 C   0  0  0  0  0  0  0  0  0  0  0  0
   10.4342  -15.6000   28.5668 O   0  0  0  0  0  0  0  0  0  0  0  0
   10.3585  -17.8321   29.0766 O   0  0  0  0  0  0  0  0  0  0  0  0
  2  1  1  0
  3  2  2  0
  4  2  1  0
  5  4  1  0
  6  5  1  0
  6  7  1  6
  8  6  1  0
  9  8  2  0
 11 10  1  6
 11 13  1  0
 11 12  1  0
 14 13  1  1
 14 15  1  0
 15  8  1  0
 16 17  2  0
 16 14  1  0
 19 21  1  0
 19 18  1  1
 20 19  1  0
 21 22  1  6
 22 16  1  0
 23 21  1  0
 24 23  2  0
 25 23  1  0
M  END
$$$$
