QLV.pdb
     RDKit          3D

 25 24  0  0  1  0  0  0  0  0999 V2000
    6.0191  -19.0894   23.3744 N   0  0  0  0  0  0  0  0  0  0  0  0
    7.1593  -19.4577   22.5921 C   0  0  0  0  0  0  0  0  0  0  0  0
    7.7759  -20.4903   22.9317 O   0  0  0  0  0  0  0  0  0  0  0  0
    7.5654  -18.6253   21.4328 C   0  0  0  0  0  0  0  0  0  0  0  0
    6.6661  -17.4366   21.2112 C   0  0  0  0  0  0  0  0  0  0  0  0
    7.3973  -16.1533   20.9909 C   0  0  2  0  0  0  0  0  0  0  0  0
    8.4626  -16.4421   20.0255 N   0  0  0  0  0  0  0  0  0  0  0  0
    8.0346  -15.6615   22.2706 C   0  0  0  0  0  0  0  0  0  0  0  0
    9.2597  -15.9013   22.4220 O   0  0  0  0  0  0  0  0  0  0  0  0
    8.5372  -11.9763   26.2541 C   0  0  0  0  0  0  0  0  0  0  0  0
    7.3966  -12.9734   26.4254 C   0  0  1  0  0  0  0  0  0  0  0  0
    6.2848  -12.1709   27.1260 C   0  0  0  0  0  0  0  0  0  0  0  0
    6.8324  -13.4049   25.1115 C   0  0  0  0  0  0  0  0  0  0  0  0
    7.7299  -14.4831   24.5165 C   0  0  2  0  0  0  0  0  0  0  0  0
    7.2847  -14.9704   23.2380 N   0  0  0  0  0  0  0  0  0  0  0  0
    8.1108  -15.5304   25.4765 C   0  0  0  0  0  0  0  0  0  0  0  0
    7.1968  -16.2616   25.9419 O   0  0  0  0  0  0  0  0  0  0  0  0
   11.7204  -18.7001   26.5448 C   0  0  0  0  0  0  0  0  0  0  0  0
   11.1605  -17.4792   25.8458 C   0  0  1  0  0  0  0  0  0  0  0  0
   10.9194  -17.8558   24.4067 C   0  0  0  0  0  0  0  0  0  0  0  0
    9.9087  -16.9791   26.4915 C   0  0  2  0  0  0  0  0  0  0  0  0
    9.4254  -15.7492   25.8913 N   0  0  0  0  0  0  0  0  0  0  0  0
   10.1571  -16.7980   27.9461 C   0  0  0  0  0  0  0  0  0  0  0  0
   10.2686  -15.6276   28.3800 O   0  0  0  0  0  0  0  0  0  0  0  0
   10.2661  -17.8762   28.8175 O   0  0  0  0  0  0  0  0  0  0  0  0
  2  1  1  0
  3  2  2  0
  4  2  1  0
  5  4  1  0
  6  5  1  0
  6  7  1  6
  8  6  1  0
  9  8  2  0
 11 10  1  6
 11 13  1  0
 11 12  1  0
 14 13  1  1
 14 15  1  0
 15  8  1  0
 16 17  2  0
 16 14  1  0
 19 21  1  0
 19 18  1  1
 20 19  1  0
 21 22  1  6
 22 16  1  0
 23 21  1  0
 24 23  2  0
 25 23  1  0
M  END
$$$$
