QLV.pdb
     RDKit          3D

 25 24  0  0  1  0  0  0  0  0999 V2000
    6.4531  -20.0727   24.2004 N   0  0  0  0  0  0  0  0  0  0  0  0
    5.8452  -20.0390   22.9054 C   0  0  0  0  0  0  0  0  0  0  0  0
    4.8411  -20.7613   22.7267 O   0  0  0  0  0  0  0  0  0  0  0  0
    6.4095  -19.1719   21.8418 C   0  0  0  0  0  0  0  0  0  0  0  0
    7.6285  -18.4049   22.2855 C   0  0  0  0  0  0  0  0  0  0  0  0
    7.6385  -16.9756   21.8530 C   0  0  2  0  0  0  0  0  0  0  0  0
    8.4704  -16.9118   20.6472 N   0  0  0  0  0  0  0  0  0  0  0  0
    8.2612  -16.0902   22.9086 C   0  0  0  0  0  0  0  0  0  0  0  0
    9.5172  -16.0765   22.9676 O   0  0  0  0  0  0  0  0  0  0  0  0
    8.3801  -11.7177   26.1597 C   0  0  0  0  0  0  0  0  0  0  0  0
    7.4346  -12.8314   26.5958 C   0  0  1  0  0  0  0  0  0  0  0  0
    6.2530  -12.0976   27.2561 C   0  0  0  0  0  0  0  0  0  0  0  0
    6.8657  -13.5679   25.4276 C   0  0  0  0  0  0  0  0  0  0  0  0
    7.8842  -14.5927   24.9435 C   0  0  2  0  0  0  0  0  0  0  0  0
    7.4652  -15.3234   23.7771 N   0  0  0  0  0  0  0  0  0  0  0  0
    8.4459  -15.4216   26.0211 C   0  0  0  0  0  0  0  0  0  0  0  0
    7.6683  -16.2088   26.6229 O   0  0  0  0  0  0  0  0  0  0  0  0
   12.5278  -17.6590   27.7041 C   0  0  0  0  0  0  0  0  0  0  0  0
   11.8317  -16.6709   26.7919 C   0  0  1  0  0  0  0  0  0  0  0  0
   11.8370  -17.2589   25.4043 C   0  0  0  0  0  0  0  0  0  0  0  0
   10.4408  -16.3629   27.2440 C   0  0  2  0  0  0  0  0  0  0  0  0
    9.7874  -15.3765   26.4035 N   0  0  0  0  0  0  0  0  0  0  0  0
   10.4844  -15.9092   28.6591 C   0  0  0  0  0  0  0  0  0  0  0  0
   10.5215  -14.6758   28.8779 O   0  0  0  0  0  0  0  0  0  0  0  0
   10.4849  -16.8046   29.7231 O   0  0  0  0  0  0  0  0  0  0  0  0
  2  1  1  0
  3  2  2  0
  4  2  1  0
  5  4  1  0
  6  5  1  0
  6  7  1  6
  8  6  1  0
  9  8  2  0
 11 10  1  6
 11 13  1  0
 11 12  1  0
 14 13  1  1
 14 15  1  0
 15  8  1  0
 16 17  2  0
 16 14  1  0
 19 21  1  0
 19 18  1  1
 20 19  1  0
 21 22  1  6
 22 16  1  0
 23 21  1  0
 24 23  2  0
 25 23  1  0
M  END
$$$$
