DDS.pdb
     RDKit          3D

 23 22  0  0  1  0  0  0  0  0999 V2000
   16.1619  -10.6827  -15.1805 N   0  0  0  0  0  0  0  0  0  0  0  0
   16.5085   -9.3483  -15.6278 C   0  0  1  0  0  0  0  0  0  0  0  0
   15.6222   -8.3113  -15.0073 C   0  0  0  0  0  0  0  0  0  0  0  0
   14.2439   -8.4517  -15.4791 C   0  0  0  0  0  0  0  0  0  0  0  0
   13.3120   -8.5499  -14.6447 O   0  0  0  0  0  0  0  0  0  0  0  0
   17.9448   -9.1175  -15.3439 C   0  0  0  0  0  0  0  0  0  0  0  0
   18.3994   -9.2557  -14.1683 O   0  0  0  0  0  0  0  0  0  0  0  0
   14.0072   -8.4722  -16.8610 O   0  0  0  0  0  0  0  0  0  0  0  0
   18.8832   -8.7373  -16.3381 N   0  0  0  0  0  0  0  0  0  0  0  0
   20.2917   -8.5192  -16.1119 C   0  0  1  0  0  0  0  0  0  0  0  0
   21.1630   -9.0789  -17.1861 C   0  0  0  0  0  0  0  0  0  0  0  0
   21.1042  -10.5582  -17.2125 C   0  0  0  0  0  0  0  0  0  0  0  0
   21.2280  -11.2262  -16.1613 O   0  0  0  0  0  0  0  0  0  0  0  0
   20.5862   -7.0910  -15.8222 C   0  0  0  0  0  0  0  0  0  0  0  0
   20.7493   -6.2993  -16.7808 O   0  0  0  0  0  0  0  0  0  0  0  0
   20.9115  -11.2796  -18.3857 O   0  0  0  0  0  0  0  0  0  0  0  0
   18.8016   -4.4924  -14.4042 O   0  0  0  0  0  0  0  0  0  0  0  0
   19.9116   -4.4374  -13.5745 C   0  0  0  0  0  0  0  0  0  0  0  0
   21.0410   -5.1929  -14.2460 C   0  0  2  0  0  0  0  0  0  0  0  0
   20.6927   -6.5750  -14.5078 N   0  0  0  0  0  0  0  0  0  0  0  0
   22.3048   -5.0849  -13.4965 C   0  0  0  0  0  0  0  0  0  0  0  0
   22.8876   -3.8571  -13.3005 O   0  0  0  0  0  0  0  0  0  0  0  0
   22.8488   -6.1072  -13.0381 O   0  0  0  0  0  0  0  0  0  0  0  0
  2  1  1  1
  3  2  1  0
  4  8  1  0
  4  3  1  0
  5  4  2  0
  6  2  1  0
  7  6  2  0
  9  6  1  0
 10 14  1  0
 10  9  1  0
 10 11  1  6
 12 13  2  0
 12 11  1  0
 14 20  1  0
 15 14  2  0
 16 12  1  0
 18 17  1  0
 19 18  1  1
 19 21  1  0
 20 19  1  0
 21 23  2  0
 21 22  1  0
M  END
$$$$
