DDS.pdb
     RDKit          3D

 23 22  0  0  1  0  0  0  0  0999 V2000
   16.9031  -11.3438  -17.4553 N   0  0  0  0  0  0  0  0  0  0  0  0
   17.7419  -10.9002  -16.3596 C   0  0  1  0  0  0  0  0  0  0  0  0
   18.9923  -11.7197  -16.2559 C   0  0  0  0  0  0  0  0  0  0  0  0
   18.6805  -13.1077  -15.9121 C   0  0  0  0  0  0  0  0  0  0  0  0
   18.9672  -14.0240  -16.7199 O   0  0  0  0  0  0  0  0  0  0  0  0
   18.0181   -9.4549  -16.5368 C   0  0  0  0  0  0  0  0  0  0  0  0
   18.1933   -8.9697  -17.6951 O   0  0  0  0  0  0  0  0  0  0  0  0
   18.0656  -13.3712  -14.6798 O   0  0  0  0  0  0  0  0  0  0  0  0
   18.1033   -8.5405  -15.4549 N   0  0  0  0  0  0  0  0  0  0  0  0
   18.3676   -7.1274  -15.5796 C   0  0  1  0  0  0  0  0  0  0  0  0
   17.2819   -6.2655  -15.0274 C   0  0  0  0  0  0  0  0  0  0  0  0
   17.5681   -4.8296  -15.2481 C   0  0  0  0  0  0  0  0  0  0  0  0
   18.0086   -4.1113  -14.3227 O   0  0  0  0  0  0  0  0  0  0  0  0
   19.7087   -6.7709  -15.0456 C   0  0  0  0  0  0  0  0  0  0  0  0
   20.0337   -7.1758  -13.9042 O   0  0  0  0  0  0  0  0  0  0  0  0
   17.3678   -4.2056  -16.4747 O   0  0  0  0  0  0  0  0  0  0  0  0
   24.1644   -5.0521  -15.8418 O   0  0  0  0  0  0  0  0  0  0  0  0
   22.8675   -5.1001  -16.3311 C   0  0  0  0  0  0  0  0  0  0  0  0
   21.9916   -5.7583  -15.2837 C   0  0  2  0  0  0  0  0  0  0  0  0
   20.6452   -5.9909  -15.7665 N   0  0  0  0  0  0  0  0  0  0  0  0
   21.9906   -5.0137  -14.0124 C   0  0  0  0  0  0  0  0  0  0  0  0
   22.7753   -5.4336  -12.9666 O   0  0  0  0  0  0  0  0  0  0  0  0
   21.2778   -4.0008  -13.8821 O   0  0  0  0  0  0  0  0  0  0  0  0
  2  1  1  6
  3  2  1  0
  4  8  1  0
  4  3  1  0
  5  4  2  0
  6  2  1  0
  7  6  2  0
  9  6  1  0
 10 14  1  0
 10  9  1  0
 10 11  1  1
 12 13  2  0
 12 11  1  0
 14 20  1  0
 15 14  2  0
 16 12  1  0
 18 17  1  0
 19 18  1  6
 19 21  1  0
 20 19  1  0
 21 23  2  0
 21 22  1  0
M  END
$$$$
