DDS.pdb
     RDKit          3D

 23 22  0  0  1  0  0  0  0  0999 V2000
   20.9027   -8.9558  -17.1941 N   0  0  0  0  0  0  0  0  0  0  0  0
   21.2662   -8.2467  -15.9834 C   0  0  1  0  0  0  0  0  0  0  0  0
   22.7424   -8.3054  -15.7322 C   0  0  0  0  0  0  0  0  0  0  0  0
   23.1904   -9.6893  -15.5709 C   0  0  0  0  0  0  0  0  0  0  0  0
   22.7785  -10.3627  -14.5955 O   0  0  0  0  0  0  0  0  0  0  0  0
   20.7576   -6.8581  -16.0834 C   0  0  0  0  0  0  0  0  0  0  0  0
   20.8036   -6.2331  -17.1857 O   0  0  0  0  0  0  0  0  0  0  0  0
   24.0736  -10.2230  -16.5202 O   0  0  0  0  0  0  0  0  0  0  0  0
   20.2004   -6.1525  -14.9856 N   0  0  0  0  0  0  0  0  0  0  0  0
   19.5933   -4.8454  -15.0593 C   0  0  1  0  0  0  0  0  0  0  0  0
   18.3085   -4.7402  -14.3078 C   0  0  0  0  0  0  0  0  0  0  0  0
   17.2676   -5.6153  -14.8936 C   0  0  0  0  0  0  0  0  0  0  0  0
   16.9121   -5.4832  -16.0863 O   0  0  0  0  0  0  0  0  0  0  0  0
   20.5567   -3.7718  -14.6988 C   0  0  0  0  0  0  0  0  0  0  0  0
   21.1614   -3.8433  -13.6026 O   0  0  0  0  0  0  0  0  0  0  0  0
   16.6351   -6.6176  -14.1662 O   0  0  0  0  0  0  0  0  0  0  0  0
   22.9955    0.2469  -15.8927 O   0  0  0  0  0  0  0  0  0  0  0  0
   22.0639   -0.6866  -16.3219 C   0  0  0  0  0  0  0  0  0  0  0  0
   21.7806   -1.6339  -15.1731 C   0  0  2  0  0  0  0  0  0  0  0  0
   20.8283   -2.6636  -15.5374 N   0  0  0  0  0  0  0  0  0  0  0  0
   21.3665   -0.9195  -13.9529 C   0  0  0  0  0  0  0  0  0  0  0  0
   22.2978   -0.5812  -13.0022 O   0  0  0  0  0  0  0  0  0  0  0  0
   20.1700   -0.6202  -13.7798 O   0  0  0  0  0  0  0  0  0  0  0  0
  2  1  1  6
  3  2  1  0
  4  8  1  0
  4  3  1  0
  5  4  2  0
  6  2  1  0
  7  6  2  0
  9  6  1  0
 10 14  1  0
 10  9  1  0
 10 11  1  1
 12 13  2  0
 12 11  1  0
 14 20  1  0
 15 14  2  0
 16 12  1  0
 18 17  1  0
 19 18  1  6
 19 21  1  0
 20 19  1  0
 21 23  2  0
 21 22  1  0
M  END
$$$$
