DDS.pdb
     RDKit          3D

 23 22  0  0  1  0  0  0  0  0999 V2000
   15.3314  -12.9275  -15.2968 N   0  0  0  0  0  0  0  0  0  0  0  0
   15.3051  -11.5354  -15.6993 C   0  0  1  0  0  0  0  0  0  0  0  0
   14.5493  -10.6919  -14.7179 C   0  0  0  0  0  0  0  0  0  0  0  0
   13.1329  -11.0596  -14.6947 C   0  0  0  0  0  0  0  0  0  0  0  0
   12.5018  -11.1569  -15.7749 O   0  0  0  0  0  0  0  0  0  0  0  0
   16.7014  -11.0771  -15.8916 C   0  0  0  0  0  0  0  0  0  0  0  0
   17.6213  -11.4695  -15.1120 O   0  0  0  0  0  0  0  0  0  0  0  0
   12.5211  -11.2934  -13.4549 O   0  0  0  0  0  0  0  0  0  0  0  0
   17.0945  -10.1938  -16.9303 N   0  0  0  0  0  0  0  0  0  0  0  0
   18.4473   -9.7615  -17.1864 C   0  0  1  0  0  0  0  0  0  0  0  0
   18.7048   -9.4200  -18.6160 C   0  0  0  0  0  0  0  0  0  0  0  0
   20.1360   -9.1211  -18.8500 C   0  0  0  0  0  0  0  0  0  0  0  0
   20.4901   -8.0456  -19.3832 O   0  0  0  0  0  0  0  0  0  0  0  0
   18.8630   -8.6791  -16.2557 C   0  0  0  0  0  0  0  0  0  0  0  0
   18.0806   -7.7205  -16.0531 O   0  0  0  0  0  0  0  0  0  0  0  0
   21.1527  -10.0018  -18.4974 O   0  0  0  0  0  0  0  0  0  0  0  0
   22.0655   -6.8316  -13.1250 O   0  0  0  0  0  0  0  0  0  0  0  0
   21.8231   -7.8689  -14.0132 C   0  0  0  0  0  0  0  0  0  0  0  0
   20.5352   -7.5660  -14.7529 C   0  0  2  0  0  0  0  0  0  0  0  0
   20.1079   -8.6759  -15.5808 N   0  0  0  0  0  0  0  0  0  0  0  0
   20.6191   -6.3142  -15.5253 C   0  0  0  0  0  0  0  0  0  0  0  0
   21.3114   -6.2804  -16.7107 O   0  0  0  0  0  0  0  0  0  0  0  0
   20.0622   -5.2824  -15.1053 O   0  0  0  0  0  0  0  0  0  0  0  0
  2  1  1  1
  3  2  1  0
  4  8  1  0
  4  3  1  0
  5  4  2  0
  6  2  1  0
  7  6  2  0
  9  6  1  0
 10 14  1  0
 10  9  1  0
 10 11  1  6
 12 13  2  0
 12 11  1  0
 14 20  1  0
 15 14  2  0
 16 12  1  0
 18 17  1  0
 19 18  1  6
 19 21  1  0
 20 19  1  0
 21 23  2  0
 21 22  1  0
M  END
$$$$
