DDS.pdb
     RDKit          3D

 23 22  0  0  1  0  0  0  0  0999 V2000
   20.4843   -9.6441  -16.4376 N   0  0  0  0  0  0  0  0  0  0  0  0
   19.1984   -9.4031  -15.8137 C   0  0  1  0  0  0  0  0  0  0  0  0
   18.9009  -10.4195  -14.7534 C   0  0  0  0  0  0  0  0  0  0  0  0
   18.8027  -11.7616  -15.3290 C   0  0  0  0  0  0  0  0  0  0  0  0
   19.6760  -12.6186  -15.0513 O   0  0  0  0  0  0  0  0  0  0  0  0
   19.1823   -8.0144  -15.2958 C   0  0  0  0  0  0  0  0  0  0  0  0
   18.2573   -7.6271  -14.5196 O   0  0  0  0  0  0  0  0  0  0  0  0
   17.7259  -12.0489  -16.1799 O   0  0  0  0  0  0  0  0  0  0  0  0
   20.1710   -7.0505  -15.6224 N   0  0  0  0  0  0  0  0  0  0  0  0
   20.2503   -5.7203  -15.0686 C   0  0  1  0  0  0  0  0  0  0  0  0
   21.6484   -5.2416  -14.8618 C   0  0  0  0  0  0  0  0  0  0  0  0
   22.2439   -5.8273  -13.6391 C   0  0  0  0  0  0  0  0  0  0  0  0
   22.9469   -6.8612  -13.6972 O   0  0  0  0  0  0  0  0  0  0  0  0
   19.4230   -4.7548  -15.8393 C   0  0  0  0  0  0  0  0  0  0  0  0
   19.5322   -4.7249  -17.0881 O   0  0  0  0  0  0  0  0  0  0  0  0
   22.0606   -5.2731  -12.3770 O   0  0  0  0  0  0  0  0  0  0  0  0
   15.7070   -1.6972  -16.0998 O   0  0  0  0  0  0  0  0  0  0  0  0
   16.4196   -2.5654  -15.2862 C   0  0  0  0  0  0  0  0  0  0  0  0
   17.7051   -2.9336  -15.9999 C   0  0  2  0  0  0  0  0  0  0  0  0
   18.5105   -3.8599  -15.2296 N   0  0  0  0  0  0  0  0  0  0  0  0
   18.4788   -1.7453  -16.3998 C   0  0  0  0  0  0  0  0  0  0  0  0
   19.2726   -1.0990  -15.4845 O   0  0  0  0  0  0  0  0  0  0  0  0
   18.4153   -1.3230  -17.5698 O   0  0  0  0  0  0  0  0  0  0  0  0
  2  1  1  1
  3  2  1  0
  4  8  1  0
  4  3  1  0
  5  4  2  0
  6  2  1  0
  7  6  2  0
  9  6  1  0
 10 14  1  0
 10  9  1  0
 10 11  1  6
 12 13  2  0
 12 11  1  0
 14 20  1  0
 15 14  2  0
 16 12  1  0
 18 17  1  0
 19 18  1  1
 19 21  1  0
 20 19  1  0
 21 23  2  0
 21 22  1  0
M  END
$$$$
