DDS.pdb
     RDKit          3D

 23 22  0  0  1  0  0  0  0  0999 V2000
   15.2714  -13.0443  -12.1858 N   0  0  0  0  0  0  0  0  0  0  0  0
   14.5198  -11.8063  -12.2440 C   0  0  1  0  0  0  0  0  0  0  0  0
   13.2453  -11.8978  -11.4609 C   0  0  0  0  0  0  0  0  0  0  0  0
   12.3978  -12.9787  -11.9664 C   0  0  0  0  0  0  0  0  0  0  0  0
   12.4014  -13.2450  -13.1926 O   0  0  0  0  0  0  0  0  0  0  0  0
   15.3968  -10.7040  -11.7828 C   0  0  0  0  0  0  0  0  0  0  0  0
   16.1391  -10.8539  -10.7658 O   0  0  0  0  0  0  0  0  0  0  0  0
   11.6019  -13.6882  -11.0558 O   0  0  0  0  0  0  0  0  0  0  0  0
   15.4648   -9.4419  -12.4279 N   0  0  0  0  0  0  0  0  0  0  0  0
   16.3463   -8.3628  -12.0524 C   0  0  1  0  0  0  0  0  0  0  0  0
   17.0503   -7.7364  -13.2093 C   0  0  0  0  0  0  0  0  0  0  0  0
   17.9550   -6.6509  -12.7669 C   0  0  0  0  0  0  0  0  0  0  0  0
   17.7381   -5.4610  -13.0885 O   0  0  0  0  0  0  0  0  0  0  0  0
   15.6563   -7.3643  -11.1936 C   0  0  0  0  0  0  0  0  0  0  0  0
   14.5967   -6.8375  -11.6084 O   0  0  0  0  0  0  0  0  0  0  0  0
   19.0788   -6.8854  -11.9820 O   0  0  0  0  0  0  0  0  0  0  0  0
   15.0194   -5.2805   -6.8952 O   0  0  0  0  0  0  0  0  0  0  0  0
   15.8233   -6.1407   -7.6282 C   0  0  0  0  0  0  0  0  0  0  0  0
   15.4395   -6.0160   -9.0891 C   0  0  2  0  0  0  0  0  0  0  0  0
   16.1389   -6.9749   -9.9206 N   0  0  0  0  0  0  0  0  0  0  0  0
   15.6041   -4.6408   -9.5916 C   0  0  0  0  0  0  0  0  0  0  0  0
   14.6122   -3.7116   -9.3956 O   0  0  0  0  0  0  0  0  0  0  0  0
   16.6437   -4.3167  -10.1959 O   0  0  0  0  0  0  0  0  0  0  0  0
  2  1  1  1
  3  2  1  0
  4  8  1  0
  4  3  1  0
  5  4  2  0
  6  2  1  0
  7  6  2  0
  9  6  1  0
 10 14  1  0
 10  9  1  0
 10 11  1  6
 12 13  2  0
 12 11  1  0
 14 20  1  0
 15 14  2  0
 16 12  1  0
 18 17  1  0
 19 18  1  1
 19 21  1  0
 20 19  1  0
 21 23  2  0
 21 22  1  0
M  END
$$$$
