DDS.pdb
     RDKit          3D

 23 22  0  0  1  0  0  0  0  0999 V2000
   18.4813  -10.7806  -15.3274 N   0  0  0  0  0  0  0  0  0  0  0  0
   18.2513   -9.5351  -16.0320 C   0  0  1  0  0  0  0  0  0  0  0  0
   16.8042   -9.3566  -16.3780 C   0  0  0  0  0  0  0  0  0  0  0  0
   16.3980  -10.2942  -17.4259 C   0  0  0  0  0  0  0  0  0  0  0  0
   15.1775  -10.4988  -17.6330 O   0  0  0  0  0  0  0  0  0  0  0  0
   18.7833   -8.4250  -15.2064 C   0  0  0  0  0  0  0  0  0  0  0  0
   18.3040   -8.1906  -14.0561 O   0  0  0  0  0  0  0  0  0  0  0  0
   17.3950  -10.9394  -18.1714 O   0  0  0  0  0  0  0  0  0  0  0  0
   19.8346   -7.5726  -15.6330 N   0  0  0  0  0  0  0  0  0  0  0  0
   20.3121   -6.4170  -14.9125 C   0  0  1  0  0  0  0  0  0  0  0  0
   21.7938   -6.2495  -14.9667 C   0  0  0  0  0  0  0  0  0  0  0  0
   22.2393   -5.1126  -14.1291 C   0  0  0  0  0  0  0  0  0  0  0  0
   21.8010   -4.9588  -12.9669 O   0  0  0  0  0  0  0  0  0  0  0  0
   19.5819   -5.1837  -15.3077 C   0  0  0  0  0  0  0  0  0  0  0  0
   19.4966   -4.8936  -16.5246 O   0  0  0  0  0  0  0  0  0  0  0  0
   23.1544   -4.1659  -14.5763 O   0  0  0  0  0  0  0  0  0  0  0  0
   16.1112   -2.0821  -14.7303 O   0  0  0  0  0  0  0  0  0  0  0  0
   16.7777   -3.2075  -14.2692 C   0  0  0  0  0  0  0  0  0  0  0  0
   18.2034   -3.1548  -14.7809 C   0  0  2  0  0  0  0  0  0  0  0  0
   18.9728   -4.3127  -14.3719 N   0  0  0  0  0  0  0  0  0  0  0  0
   18.8793   -1.8979  -14.4149 C   0  0  0  0  0  0  0  0  0  0  0  0
   19.8288   -1.8890  -13.4229 O   0  0  0  0  0  0  0  0  0  0  0  0
   18.5915   -0.8391  -15.0041 O   0  0  0  0  0  0  0  0  0  0  0  0
  2  1  1  1
  3  2  1  0
  4  8  1  0
  4  3  1  0
  5  4  2  0
  6  2  1  0
  7  6  2  0
  9  6  1  0
 10 14  1  0
 10  9  1  0
 10 11  1  6
 12 13  2  0
 12 11  1  0
 14 20  1  0
 15 14  2  0
 16 12  1  0
 18 17  1  0
 19 18  1  1
 19 21  1  0
 20 19  1  0
 21 23  2  0
 21 22  1  0
M  END
$$$$
