DDS.pdb
     RDKit          3D

 23 22  0  0  1  0  0  0  0  0999 V2000
   15.1908   -7.3897   -8.1023 N   0  0  0  0  0  0  0  0  0  0  0  0
   15.3010   -8.2117   -9.2910 C   0  0  1  0  0  0  0  0  0  0  0  0
   13.9681   -8.4175   -9.9444 C   0  0  0  0  0  0  0  0  0  0  0  0
   13.1265   -9.3091   -9.1452 C   0  0  0  0  0  0  0  0  0  0  0  0
   13.5598  -10.4407   -8.8193 O   0  0  0  0  0  0  0  0  0  0  0  0
   16.2937   -7.5904  -10.1995 C   0  0  0  0  0  0  0  0  0  0  0  0
   16.2891   -6.3382  -10.3993 O   0  0  0  0  0  0  0  0  0  0  0  0
   11.8514   -8.8659   -8.7660 O   0  0  0  0  0  0  0  0  0  0  0  0
   17.2887   -8.3313  -10.8885 N   0  0  0  0  0  0  0  0  0  0  0  0
   18.2657   -7.7720  -11.7914 C   0  0  1  0  0  0  0  0  0  0  0  0
   19.4402   -8.6617  -12.0266 C   0  0  0  0  0  0  0  0  0  0  0  0
   20.4688   -7.9901  -12.8532 C   0  0  0  0  0  0  0  0  0  0  0  0
   20.4839   -6.7447  -12.9757 O   0  0  0  0  0  0  0  0  0  0  0  0
   17.6394   -7.3045  -13.0563 C   0  0  0  0  0  0  0  0  0  0  0  0
   16.9953   -8.1245  -13.7528 O   0  0  0  0  0  0  0  0  0  0  0  0
   21.4611   -8.6910  -13.5300 O   0  0  0  0  0  0  0  0  0  0  0  0
   15.4254   -4.1686  -15.6909 O   0  0  0  0  0  0  0  0  0  0  0  0
   15.9958   -4.5159  -14.4753 C   0  0  0  0  0  0  0  0  0  0  0  0
   17.0934   -5.5270  -14.7404 C   0  0  2  0  0  0  0  0  0  0  0  0
   17.7342   -5.9693  -13.5182 N   0  0  0  0  0  0  0  0  0  0  0  0
   18.0769   -5.0354  -15.7211 C   0  0  0  0  0  0  0  0  0  0  0  0
   17.9168   -5.3124  -17.0565 O   0  0  0  0  0  0  0  0  0  0  0  0
   19.0569   -4.3670  -15.3419 O   0  0  0  0  0  0  0  0  0  0  0  0
  2  1  1  1
  3  2  1  0
  4  8  1  0
  4  3  1  0
  5  4  2  0
  6  2  1  0
  7  6  2  0
  9  6  1  0
 10 14  1  0
 10  9  1  0
 10 11  1  6
 12 13  2  0
 12 11  1  0
 14 20  1  0
 15 14  2  0
 16 12  1  0
 18 17  1  0
 19 18  1  1
 19 21  1  0
 20 19  1  0
 21 23  2  0
 21 22  1  0
M  END
$$$$
