DDS.pdb
     RDKit          3D

 23 22  0  0  1  0  0  0  0  0999 V2000
   17.3645  -11.6198  -17.3572 N   0  0  0  0  0  0  0  0  0  0  0  0
   18.0118  -11.1274  -16.1574 C   0  0  1  0  0  0  0  0  0  0  0  0
   19.0655  -12.0754  -15.6709 C   0  0  0  0  0  0  0  0  0  0  0  0
   18.4642  -13.3095  -15.1634 C   0  0  0  0  0  0  0  0  0  0  0  0
   17.4558  -13.2452  -14.4194 O   0  0  0  0  0  0  0  0  0  0  0  0
   18.5451   -9.7728  -16.4354 C   0  0  0  0  0  0  0  0  0  0  0  0
   19.3766   -9.5881  -17.3748 O   0  0  0  0  0  0  0  0  0  0  0  0
   19.0396  -14.5350  -15.5282 O   0  0  0  0  0  0  0  0  0  0  0  0
   18.1736   -8.6226  -15.6921 N   0  0  0  0  0  0  0  0  0  0  0  0
   18.6159   -7.2766  -15.9667 C   0  0  1  0  0  0  0  0  0  0  0  0
   17.5636   -6.2437  -15.7384 C   0  0  0  0  0  0  0  0  0  0  0  0
   16.3943   -6.4606  -16.6206 C   0  0  0  0  0  0  0  0  0  0  0  0
   16.4867   -6.3126  -17.8599 O   0  0  0  0  0  0  0  0  0  0  0  0
   19.8878   -6.9629  -15.2636 C   0  0  0  0  0  0  0  0  0  0  0  0
   20.0069   -7.2798  -14.0562 O   0  0  0  0  0  0  0  0  0  0  0  0
   15.1470   -6.8349  -16.1328 O   0  0  0  0  0  0  0  0  0  0  0  0
   24.4759   -5.4041  -15.4073 O   0  0  0  0  0  0  0  0  0  0  0  0
   23.3121   -5.5755  -16.1420 C   0  0  0  0  0  0  0  0  0  0  0  0
   22.2250   -6.0532  -15.1999 C   0  0  2  0  0  0  0  0  0  0  0  0
   20.9806   -6.3191  -15.8933 N   0  0  0  0  0  0  0  0  0  0  0  0
   22.0281   -5.1331  -14.0662 C   0  0  0  0  0  0  0  0  0  0  0  0
   22.6605   -5.3674  -12.8701 O   0  0  0  0  0  0  0  0  0  0  0  0
   21.2872   -4.1396  -14.1892 O   0  0  0  0  0  0  0  0  0  0  0  0
  2  1  1  6
  3  2  1  0
  4  8  1  0
  4  3  1  0
  5  4  2  0
  6  2  1  0
  7  6  2  0
  9  6  1  0
 10 14  1  0
 10  9  1  0
 10 11  1  1
 12 13  2  0
 12 11  1  0
 14 20  1  0
 15 14  2  0
 16 12  1  0
 18 17  1  0
 19 18  1  6
 19 21  1  0
 20 19  1  0
 21 23  2  0
 21 22  1  0
M  END
$$$$
