VCS.pdb
     RDKit          3D

 20 19  0  0  1  0  0  0  0  0999 V2000
   20.7246  -13.3387  -18.9740 C   0  0  0  0  0  0  0  0  0  0  0  0
   20.1265  -11.9896  -18.6605 C   0  0  1  0  0  0  0  0  0  0  0  0
   19.0607  -11.6305  -19.6405 C   0  0  0  0  0  0  0  0  0  0  0  0
   19.6767  -11.9081  -17.2210 C   0  0  2  0  0  0  0  0  0  0  0  0
   18.6728  -12.9310  -17.0262 N   0  0  0  0  0  0  0  0  0  0  0  0
   19.1481  -10.5883  -16.8554 C   0  0  0  0  0  0  0  0  0  0  0  0
   17.9646  -10.2327  -17.0913 O   0  0  0  0  0  0  0  0  0  0  0  0
   19.9852   -9.6532  -16.2073 N   0  0  0  0  0  0  0  0  0  0  0  0
   19.5562   -8.3178  -15.8479 C   0  0  1  0  0  0  0  0  0  0  0  0
   18.4684   -8.3422  -14.7881 C   0  0  0  0  0  0  0  0  0  0  0  0
   18.9103   -9.3634  -13.3839 S   0  0  0  0  0  0  0  0  0  0  0  0
   20.7215   -7.5688  -15.3256 C   0  0  0  0  0  0  0  0  0  0  0  0
   21.6371   -8.1833  -14.7338 O   0  0  0  0  0  0  0  0  0  0  0  0
   20.7904   -3.5701  -15.6983 O   0  0  0  0  0  0  0  0  0  0  0  0
   22.0698   -4.1288  -15.7664 C   0  0  0  0  0  0  0  0  0  0  0  0
   22.0085   -5.4253  -14.9698 C   0  0  2  0  0  0  0  0  0  0  0  0
   20.8628   -6.1634  -15.4606 N   0  0  0  0  0  0  0  0  0  0  0  0
   21.8293   -5.1624  -13.5265 C   0  0  0  0  0  0  0  0  0  0  0  0
   22.8465   -4.6264  -12.7854 O   0  0  0  0  0  0  0  0  0  0  0  0
   20.7388   -5.4316  -12.9748 O   0  0  0  0  0  0  0  0  0  0  0  0
  2  1  1  6
  3  2  1  0
  4  6  1  0
  4  2  1  0
  4  5  1  6
  6  7  2  0
  8  9  1  0
  8  6  1  0
  9 12  1  0
 10 11  1  0
  9 10  1  1
 12 13  2  0
 12 17  1  0
 14 15  1  0
 16 15  1  6
 16 18  1  0
 17 16  1  0
 18 20  2  0
 18 19  1  0
M  END
$$$$
