VCS.pdb
     RDKit          3D

 20 19  0  0  1  0  0  0  0  0999 V2000
   17.5011  -10.1924  -18.5605 C   0  0  0  0  0  0  0  0  0  0  0  0
   17.7152  -11.5187  -17.8740 C   0  0  1  0  0  0  0  0  0  0  0  0
   17.6091  -12.6502  -18.8403 C   0  0  0  0  0  0  0  0  0  0  0  0
   18.9968  -11.5242  -17.0748 C   0  0  2  0  0  0  0  0  0  0  0  0
   19.0908  -12.8117  -16.4227 N   0  0  0  0  0  0  0  0  0  0  0  0
   19.0666  -10.4388  -16.0889 C   0  0  0  0  0  0  0  0  0  0  0  0
   18.3291  -10.3864  -15.0711 O   0  0  0  0  0  0  0  0  0  0  0  0
   19.9964   -9.3902  -16.2659 N   0  0  0  0  0  0  0  0  0  0  0  0
   20.1218   -8.2761  -15.3495 C   0  0  1  0  0  0  0  0  0  0  0  0
   21.5166   -8.1914  -14.7541 C   0  0  0  0  0  0  0  0  0  0  0  0
   21.6410   -9.0544  -13.1889 S   0  0  0  0  0  0  0  0  0  0  0  0
   19.8338   -7.0228  -16.0830 C   0  0  0  0  0  0  0  0  0  0  0  0
   20.3989   -6.8028  -17.1776 O   0  0  0  0  0  0  0  0  0  0  0  0
   17.1133   -4.4584  -14.5807 O   0  0  0  0  0  0  0  0  0  0  0  0
   17.1530   -4.4925  -15.9775 C   0  0  0  0  0  0  0  0  0  0  0  0
   18.5868   -4.8432  -16.3519 C   0  0  2  0  0  0  0  0  0  0  0  0
   18.9339   -6.0351  -15.6053 N   0  0  0  0  0  0  0  0  0  0  0  0
   19.5200   -3.7573  -15.9855 C   0  0  0  0  0  0  0  0  0  0  0  0
   19.4793   -2.5555  -16.6377 O   0  0  0  0  0  0  0  0  0  0  0  0
   20.3557   -3.9357  -15.0712 O   0  0  0  0  0  0  0  0  0  0  0  0
  2  1  1  6
  3  2  1  0
  4  6  1  0
  4  2  1  0
  4  5  1  1
  6  7  2  0
  8  9  1  0
  8  6  1  0
  9 12  1  0
 10 11  1  0
  9 10  1  6
 12 13  2  0
 12 17  1  0
 14 15  1  0
 16 15  1  1
 16 18  1  0
 17 16  1  0
 18 20  2  0
 18 19  1  0
M  END
$$$$
