VCS.pdb
     RDKit          3D

 20 19  0  0  1  0  0  0  0  0999 V2000
   19.0054  -14.1574  -17.2875 C   0  0  0  0  0  0  0  0  0  0  0  0
   18.8962  -12.6892  -17.6167 C   0  0  1  0  0  0  0  0  0  0  0  0
   17.4702  -12.2634  -17.7191 C   0  0  0  0  0  0  0  0  0  0  0  0
   19.7111  -11.8491  -16.6619 C   0  0  2  0  0  0  0  0  0  0  0  0
   19.2523  -12.1522  -15.3242 N   0  0  0  0  0  0  0  0  0  0  0  0
   19.6099  -10.4093  -16.9296 C   0  0  0  0  0  0  0  0  0  0  0  0
   20.0281   -9.8764  -17.9897 O   0  0  0  0  0  0  0  0  0  0  0  0
   19.0196   -9.5579  -15.9694 N   0  0  0  0  0  0  0  0  0  0  0  0
   18.8259   -8.1382  -16.1782 C   0  0  1  0  0  0  0  0  0  0  0  0
   17.3673   -7.7414  -16.0303 C   0  0  0  0  0  0  0  0  0  0  0  0
   16.6052   -8.4791  -14.5863 S   0  0  0  0  0  0  0  0  0  0  0  0
   19.6308   -7.3971  -15.1808 C   0  0  0  0  0  0  0  0  0  0  0  0
   19.8491   -7.9077  -14.0594 O   0  0  0  0  0  0  0  0  0  0  0  0
   23.2679   -4.9432  -14.0229 O   0  0  0  0  0  0  0  0  0  0  0  0
   22.4642   -5.6270  -14.9395 C   0  0  0  0  0  0  0  0  0  0  0  0
   21.0266   -5.4106  -14.4859 C   0  0  2  0  0  0  0  0  0  0  0  0
   20.1808   -6.1129  -15.4292 N   0  0  0  0  0  0  0  0  0  0  0  0
   20.6694   -3.9764  -14.4945 C   0  0  0  0  0  0  0  0  0  0  0  0
   20.8601   -3.2054  -13.3808 O   0  0  0  0  0  0  0  0  0  0  0  0
   20.1882   -3.4602  -15.5280 O   0  0  0  0  0  0  0  0  0  0  0  0
  2  1  1  1
  3  2  1  0
  4  6  1  0
  4  2  1  0
  4  5  1  1
  6  7  2  0
  8  9  1  0
  8  6  1  0
  9 12  1  0
 10 11  1  0
  9 10  1  1
 12 13  2  0
 12 17  1  0
 14 15  1  0
 16 15  1  6
 16 18  1  0
 17 16  1  0
 18 20  2  0
 18 19  1  0
M  END
$$$$
