VCS.pdb
     RDKit          3D

 20 19  0  0  1  0  0  0  0  0999 V2000
   16.6660  -10.8511  -17.9192 C   0  0  0  0  0  0  0  0  0  0  0  0
   17.9529  -11.6204  -17.7512 C   0  0  1  0  0  0  0  0  0  0  0  0
   18.0442  -12.7406  -18.7321 C   0  0  0  0  0  0  0  0  0  0  0  0
   19.1506  -10.7004  -17.7708 C   0  0  2  0  0  0  0  0  0  0  0  0
   20.3325  -11.5333  -17.7362 N   0  0  0  0  0  0  0  0  0  0  0  0
   19.1604   -9.7422  -16.6588 C   0  0  0  0  0  0  0  0  0  0  0  0
   18.2173   -8.9403  -16.4345 O   0  0  0  0  0  0  0  0  0  0  0  0
   20.2679   -9.6960  -15.7833 N   0  0  0  0  0  0  0  0  0  0  0  0
   20.3610   -8.7782  -14.6672 C   0  0  1  0  0  0  0  0  0  0  0  0
   21.2160   -9.3415  -13.5453 C   0  0  0  0  0  0  0  0  0  0  0  0
   22.8520   -9.8087  -14.1063 S   0  0  0  0  0  0  0  0  0  0  0  0
   20.9624   -7.5117  -15.1424 C   0  0  0  0  0  0  0  0  0  0  0  0
   21.7179   -7.5216  -16.1400 O   0  0  0  0  0  0  0  0  0  0  0  0
   20.7924   -2.8074  -15.4943 O   0  0  0  0  0  0  0  0  0  0  0  0
   20.2006   -3.9972  -15.0610 C   0  0  0  0  0  0  0  0  0  0  0  0
   21.3257   -5.0189  -14.9640 C   0  0  2  0  0  0  0  0  0  0  0  0
   20.7260   -6.2597  -14.5178 N   0  0  0  0  0  0  0  0  0  0  0  0
   22.3503   -4.6002  -13.9846 C   0  0  0  0  0  0  0  0  0  0  0  0
   23.4039   -3.8182  -14.3713 O   0  0  0  0  0  0  0  0  0  0  0  0
   22.2558   -4.9626  -12.7905 O   0  0  0  0  0  0  0  0  0  0  0  0
  2  1  1  6
  3  2  1  0
  4  6  1  0
  4  2  1  0
  4  5  1  1
  6  7  2  0
  8  9  1  0
  8  6  1  0
  9 12  1  0
 10 11  1  0
  9 10  1  1
 12 13  2  0
 12 17  1  0
 14 15  1  0
 16 15  1  1
 16 18  1  0
 17 16  1  0
 18 20  2  0
 18 19  1  0
M  END
$$$$
