VCS.pdb
     RDKit          3D

 20 19  0  0  1  0  0  0  0  0999 V2000
   17.2841  -11.5437  -16.7192 C   0  0  0  0  0  0  0  0  0  0  0  0
   18.5411  -12.2280  -17.1967 C   0  0  1  0  0  0  0  0  0  0  0  0
   18.2398  -13.2293  -18.2606 C   0  0  0  0  0  0  0  0  0  0  0  0
   19.5977  -11.2241  -17.5929 C   0  0  2  0  0  0  0  0  0  0  0  0
   20.6829  -11.9608  -18.2024 N   0  0  0  0  0  0  0  0  0  0  0  0
   20.0859  -10.4241  -16.4631 C   0  0  0  0  0  0  0  0  0  0  0  0
   19.3220   -9.8028  -15.6801 O   0  0  0  0  0  0  0  0  0  0  0  0
   21.4741  -10.3293  -16.2196 N   0  0  0  0  0  0  0  0  0  0  0  0
   22.0398   -9.5527  -15.1363 C   0  0  1  0  0  0  0  0  0  0  0  0
   23.5098   -9.8708  -14.9237 C   0  0  0  0  0  0  0  0  0  0  0  0
   23.7590  -11.5077  -14.2393 S   0  0  0  0  0  0  0  0  0  0  0  0
   21.8994   -8.1147  -15.4588 C   0  0  0  0  0  0  0  0  0  0  0  0
   22.0383   -7.7294  -16.6413 O   0  0  0  0  0  0  0  0  0  0  0  0
   19.3368   -5.7855  -15.8184 O   0  0  0  0  0  0  0  0  0  0  0  0
   19.9540   -5.4153  -14.6202 C   0  0  0  0  0  0  0  0  0  0  0  0
   21.4353   -5.7229  -14.7944 C   0  0  2  0  0  0  0  0  0  0  0  0
   21.6100   -7.1266  -14.4824 N   0  0  0  0  0  0  0  0  0  0  0  0
   22.2643   -4.9183  -13.8726 C   0  0  0  0  0  0  0  0  0  0  0  0
   22.5579   -3.6136  -14.1600 O   0  0  0  0  0  0  0  0  0  0  0  0
   22.7028   -5.4323  -12.8192 O   0  0  0  0  0  0  0  0  0  0  0  0
  2  1  1  6
  3  2  1  0
  4  6  1  0
  4  2  1  0
  4  5  1  1
  6  7  2  0
  8  9  1  0
  8  6  1  0
  9 12  1  0
 10 11  1  0
  9 10  1  6
 12 13  2  0
 12 17  1  0
 14 15  1  0
 16 15  1  1
 16 18  1  0
 17 16  1  0
 18 20  2  0
 18 19  1  0
M  END
$$$$
