VCS.pdb
     RDKit          3D

 20 19  0  0  1  0  0  0  0  0999 V2000
   19.5822  -13.4283  -18.7638 C   0  0  0  0  0  0  0  0  0  0  0  0
   20.6309  -12.6834  -17.9755 C   0  0  1  0  0  0  0  0  0  0  0  0
   22.0006  -12.9733  -18.4902 C   0  0  0  0  0  0  0  0  0  0  0  0
   20.3146  -11.2086  -17.8953 C   0  0  2  0  0  0  0  0  0  0  0  0
   20.2396  -10.7111  -19.2513 N   0  0  0  0  0  0  0  0  0  0  0  0
   21.3018  -10.4482  -17.1192 C   0  0  0  0  0  0  0  0  0  0  0  0
   21.4598  -10.5921  -15.8795 O   0  0  0  0  0  0  0  0  0  0  0  0
   22.1268   -9.5035  -17.7690 N   0  0  0  0  0  0  0  0  0  0  0  0
   23.0902   -8.6772  -17.0720 C   0  0  1  0  0  0  0  0  0  0  0  0
   24.3396   -8.4457  -17.9042 C   0  0  0  0  0  0  0  0  0  0  0  0
   25.5344   -7.4092  -17.0628 S   0  0  0  0  0  0  0  0  0  0  0  0
   22.4641   -7.3705  -16.7685 C   0  0  0  0  0  0  0  0  0  0  0  0
   21.7678   -6.8012  -17.6385 O   0  0  0  0  0  0  0  0  0  0  0  0
   20.8924   -6.3592  -13.4295 O   0  0  0  0  0  0  0  0  0  0  0  0
   21.8201   -5.3562  -13.7244 C   0  0  0  0  0  0  0  0  0  0  0  0
   22.0405   -5.4130  -15.2302 C   0  0  2  0  0  0  0  0  0  0  0  0
   22.6117   -6.7122  -15.5201 N   0  0  0  0  0  0  0  0  0  0  0  0
   22.9807   -4.3636  -15.6766 C   0  0  0  0  0  0  0  0  0  0  0  0
   22.5743   -3.0611  -15.7743 O   0  0  0  0  0  0  0  0  0  0  0  0
   24.1595   -4.6662  -15.9684 O   0  0  0  0  0  0  0  0  0  0  0  0
  2  1  1  6
  3  2  1  0
  4  6  1  0
  4  2  1  0
  4  5  1  6
  6  7  2  0
  8  9  1  0
  8  6  1  0
  9 12  1  0
 10 11  1  0
  9 10  1  6
 12 13  2  0
 12 17  1  0
 14 15  1  0
 16 15  1  1
 16 18  1  0
 17 16  1  0
 18 20  2  0
 18 19  1  0
M  END
$$$$
