VCS.pdb
     RDKit          3D

 20 19  0  0  1  0  0  0  0  0999 V2000
   13.2804  -11.9421  -12.1736 C   0  0  0  0  0  0  0  0  0  0  0  0
   13.9529  -10.9009  -11.3135 C   0  0  1  0  0  0  0  0  0  0  0  0
   13.3843  -10.8905   -9.9344 C   0  0  0  0  0  0  0  0  0  0  0  0
   15.4559  -11.0469  -11.3468 C   0  0  2  0  0  0  0  0  0  0  0  0
   15.7751  -12.3352  -10.7722 N   0  0  0  0  0  0  0  0  0  0  0  0
   16.1558   -9.9735  -10.6307 C   0  0  0  0  0  0  0  0  0  0  0  0
   16.6040  -10.1052   -9.4626 O   0  0  0  0  0  0  0  0  0  0  0  0
   16.3496   -8.7229  -11.2583 N   0  0  0  0  0  0  0  0  0  0  0  0
   17.0554   -7.6223  -10.6362 C   0  0  1  0  0  0  0  0  0  0  0  0
   18.1119   -7.0383  -11.5581 C   0  0  0  0  0  0  0  0  0  0  0  0
   19.7057   -7.8305  -11.3534 S   0  0  0  0  0  0  0  0  0  0  0  0
   16.0781   -6.5649  -10.2920 C   0  0  0  0  0  0  0  0  0  0  0  0
   15.2043   -6.2353  -11.1249 O   0  0  0  0  0  0  0  0  0  0  0  0
   14.2916   -3.6768   -6.8536 O   0  0  0  0  0  0  0  0  0  0  0  0
   15.2546   -4.6322   -7.1906 C   0  0  0  0  0  0  0  0  0  0  0  0
   15.1011   -4.8791   -8.6854 C   0  0  2  0  0  0  0  0  0  0  0  0
   16.0755   -5.8891   -9.0443 N   0  0  0  0  0  0  0  0  0  0  0  0
   15.3706   -3.6523   -9.4643 C   0  0  0  0  0  0  0  0  0  0  0  0
   14.3501   -2.8096   -9.8101 O   0  0  0  0  0  0  0  0  0  0  0  0
   16.5414   -3.3794   -9.8118 O   0  0  0  0  0  0  0  0  0  0  0  0
  2  1  1  6
  3  2  1  0
  4  6  1  0
  4  2  1  0
  4  5  1  1
  6  7  2  0
  8  9  1  0
  8  6  1  0
  9 12  1  0
 10 11  1  0
  9 10  1  6
 12 13  2  0
 12 17  1  0
 14 15  1  0
 16 15  1  1
 16 18  1  0
 17 16  1  0
 18 20  2  0
 18 19  1  0
M  END
$$$$
