VCS.pdb
     RDKit          3D

 20 19  0  0  1  0  0  0  0  0999 V2000
   20.8983   -9.7593  -20.1261 C   0  0  0  0  0  0  0  0  0  0  0  0
   20.6074   -8.7488  -19.0442 C   0  0  1  0  0  0  0  0  0  0  0  0
   19.2285   -8.1956  -19.1788 C   0  0  0  0  0  0  0  0  0  0  0  0
   20.9027   -9.3098  -17.6734 C   0  0  2  0  0  0  0  0  0  0  0  0
   20.0481  -10.4617  -17.4875 N   0  0  0  0  0  0  0  0  0  0  0  0
   20.6989   -8.3351  -16.5948 C   0  0  0  0  0  0  0  0  0  0  0  0
   19.6506   -8.2871  -15.9011 O   0  0  0  0  0  0  0  0  0  0  0  0
   21.7107   -7.3945  -16.3000 N   0  0  0  0  0  0  0  0  0  0  0  0
   21.5396   -6.3144  -15.3510 C   0  0  1  0  0  0  0  0  0  0  0  0
   22.5731   -6.3727  -14.2395 C   0  0  0  0  0  0  0  0  0  0  0  0
   22.5572   -4.9006  -13.2185 S   0  0  0  0  0  0  0  0  0  0  0  0
   21.6746   -5.0261  -16.0678 C   0  0  0  0  0  0  0  0  0  0  0  0
   22.7039   -4.7985  -16.7422 O   0  0  0  0  0  0  0  0  0  0  0  0
   18.7665   -3.1042  -17.7806 O   0  0  0  0  0  0  0  0  0  0  0  0
   19.4040   -2.2049  -16.9212 C   0  0  0  0  0  0  0  0  0  0  0  0
   20.8142   -2.7422  -16.7165 C   0  0  2  0  0  0  0  0  0  0  0  0
   20.6821   -4.0127  -16.0332 N   0  0  0  0  0  0  0  0  0  0  0  0
   21.6225   -1.8287  -15.8820 C   0  0  0  0  0  0  0  0  0  0  0  0
   22.0229   -0.6141  -16.3672 O   0  0  0  0  0  0  0  0  0  0  0  0
   21.9449   -2.1666  -14.7209 O   0  0  0  0  0  0  0  0  0  0  0  0
  2  1  1  6
  3  2  1  0
  4  6  1  0
  4  2  1  0
  4  5  1  1
  6  7  2  0
  8  9  1  0
  8  6  1  0
  9 12  1  0
 10 11  1  0
  9 10  1  1
 12 13  2  0
 12 17  1  0
 14 15  1  0
 16 15  1  1
 16 18  1  0
 17 16  1  0
 18 20  2  0
 18 19  1  0
M  END
$$$$
