VCS.pdb
     RDKit          3D

 20 19  0  0  1  0  0  0  0  0999 V2000
   19.5086   -9.2298  -19.0115 C   0  0  0  0  0  0  0  0  0  0  0  0
   19.3707  -10.7233  -18.8480 C   0  0  1  0  0  0  0  0  0  0  0  0
   19.1927  -11.3968  -20.1671 C   0  0  0  0  0  0  0  0  0  0  0  0
   20.5020  -11.2936  -18.0256 C   0  0  2  0  0  0  0  0  0  0  0  0
   20.2394  -12.7056  -17.8550 N   0  0  0  0  0  0  0  0  0  0  0  0
   20.6571  -10.6352  -16.7228 C   0  0  0  0  0  0  0  0  0  0  0  0
   19.8322  -10.7693  -15.7825 O   0  0  0  0  0  0  0  0  0  0  0  0
   21.7760   -9.8062  -16.4855 N   0  0  0  0  0  0  0  0  0  0  0  0
   22.0473   -9.1844  -15.2063 C   0  0  1  0  0  0  0  0  0  0  0  0
   23.4469   -9.5045  -14.7105 C   0  0  0  0  0  0  0  0  0  0  0  0
   23.6217  -11.2216  -14.2302 S   0  0  0  0  0  0  0  0  0  0  0  0
   21.9114   -7.7175  -15.3527 C   0  0  0  0  0  0  0  0  0  0  0  0
   22.4316   -7.1430  -16.3352 O   0  0  0  0  0  0  0  0  0  0  0  0
   19.5425   -3.7489  -14.0957 O   0  0  0  0  0  0  0  0  0  0  0  0
   19.6562   -5.1405  -14.0313 C   0  0  0  0  0  0  0  0  0  0  0  0
   21.0363   -5.4784  -14.5792 C   0  0  2  0  0  0  0  0  0  0  0  0
   21.2097   -6.9079  -14.4222 N   0  0  0  0  0  0  0  0  0  0  0  0
   22.0998   -4.7793  -13.8277 C   0  0  0  0  0  0  0  0  0  0  0  0
   22.5901   -3.5808  -14.2682 O   0  0  0  0  0  0  0  0  0  0  0  0
   22.5577   -5.2859  -12.7789 O   0  0  0  0  0  0  0  0  0  0  0  0
  2  1  1  6
  3  2  1  0
  4  6  1  0
  4  2  1  0
  4  5  1  1
  6  7  2  0
  8  9  1  0
  8  6  1  0
  9 12  1  0
 10 11  1  0
  9 10  1  6
 12 13  2  0
 12 17  1  0
 14 15  1  0
 16 15  1  1
 16 18  1  0
 17 16  1  0
 18 20  2  0
 18 19  1  0
M  END
$$$$
