FMW.pdb
     RDKit          3D

 34 36  0  0  1  0  0  0  0  0999 V2000
   28.5378  -21.0013  -15.3629 N   0  0  0  0  0  0  0  0  0  0  0  0
   27.5233  -20.3477  -14.5733 C   0  0  1  0  0  0  0  0  0  0  0  0
   26.6321  -19.6318  -15.5859 C   0  0  0  0  0  0  0  0  0  0  0  0
   27.4161  -18.4747  -16.0923 C   0  0  0  0  0  0  0  0  0  0  0  0
   28.0077  -18.5119  -17.3593 C   0  0  0  0  0  0  0  0  0  0  0  0
   28.7395  -17.4475  -17.8629 C   0  0  0  0  0  0  0  0  0  0  0  0
   28.9006  -16.3072  -17.1049 C   0  0  0  0  0  0  0  0  0  0  0  0
   28.3226  -16.2445  -15.8430 C   0  0  0  0  0  0  0  0  0  0  0  0
   27.6017  -17.3169  -15.3698 C   0  0  0  0  0  0  0  0  0  0  0  0
   26.7341  -21.2760  -13.7382 C   0  0  0  0  0  0  0  0  0  0  0  0
   26.4806  -22.4064  -14.1454 O   0  0  0  0  0  0  0  0  0  0  0  0
   26.9944  -19.0141   -7.0459 C   0  0  0  0  0  0  0  0  0  0  0  0
   26.6668  -20.6054   -7.8368 S   0  0  0  0  0  0  0  0  0  0  0  0
   26.0999  -20.3834   -9.5555 C   0  0  0  0  0  0  0  0  0  0  0  0
   25.8242  -21.7212  -10.2108 C   0  0  0  0  0  0  0  0  0  0  0  0
   25.3730  -21.5681  -11.6401 C   0  0  2  0  0  0  0  0  0  0  0  0
   26.2818  -20.8711  -12.4825 N   0  0  0  0  0  0  0  0  0  0  0  0
   24.0662  -20.8818  -11.5953 C   0  0  0  0  0  0  0  0  0  0  0  0
   24.0415  -19.6657  -11.2595 O   0  0  0  0  0  0  0  0  0  0  0  0
   22.8481  -21.5446  -11.9071 N   0  0  0  0  0  0  0  0  0  0  0  0
   21.5914  -20.7788  -11.9388 C   0  0  1  0  0  0  0  0  0  0  0  0
   21.7234  -19.6311  -12.8618 C   0  0  0  0  0  0  0  0  0  0  0  0
   21.9518  -20.0577  -14.2463 C   0  0  0  0  0  0  0  0  0  0  0  0
   21.6315  -21.2365  -14.8460 C   0  0  0  0  0  0  0  0  0  0  0  0
   22.0804  -21.2139  -16.1292 N   0  0  0  0  0  0  0  0  0  0  0  0
   22.6840  -20.0335  -16.3652 C   0  0  0  0  0  0  0  0  0  0  0  0
   23.2910  -19.5028  -17.5085 C   0  0  0  0  0  0  0  0  0  0  0  0
   23.8251  -18.2458  -17.5141 C   0  0  0  0  0  0  0  0  0  0  0  0
   23.7471  -17.5042  -16.3280 C   0  0  0  0  0  0  0  0  0  0  0  0
   23.1538  -18.0297  -15.2058 C   0  0  0  0  0  0  0  0  0  0  0  0
   22.6169  -19.2990  -15.2134 C   0  0  0  0  0  0  0  0  0  0  0  0
   20.5270  -21.7460  -12.1638 C   0  0  0  0  0  0  0  0  0  0  0  0
   19.3278  -21.4218  -12.0640 O   0  0  0  0  0  0  0  0  0  0  0  0
   20.7656  -23.0946  -12.5045 O   0  0  0  0  0  0  0  0  0  0  0  0
  2  1  1  6
  3  2  1  0
  4  3  1  0
  4  5  2  0
  6  5  1  0
  7  6  2  0
  8  9  2  0
  8  7  1  0
  9  4  1  0
 10 11  2  0
 10  2  1  0
 13 12  1  0
 14 13  1  0
 15 14  1  0
 16 15  1  1
 16 17  1  0
 17 10  1  0
 18 16  1  0
 19 18  2  0
 20 18  1  0
 21 20  1  0
 22 23  1  0
 21 22  1  6
 23 31  1  0
 24 23  2  0
 24 25  1  0
 25 26  1  0
 26 27  1  0
 27 28  2  0
 29 28  1  0
 30 29  2  0
 31 26  2  0
 31 30  1  0
 32 34  1  0
 32 21  1  0
 33 32  2  0
M  END
$$$$
