FMW.pdb
     RDKit          3D

 34 36  0  0  1  0  0  0  0  0999 V2000
   27.3173  -21.7538  -14.8729 N   0  0  0  0  0  0  0  0  0  0  0  0
   27.1537  -20.7653  -13.8357 C   0  0  1  0  0  0  0  0  0  0  0  0
   26.3216  -19.6548  -14.4735 C   0  0  0  0  0  0  0  0  0  0  0  0
   27.1792  -19.0325  -15.5162 C   0  0  0  0  0  0  0  0  0  0  0  0
   28.2284  -18.1778  -15.1620 C   0  0  0  0  0  0  0  0  0  0  0  0
   29.0498  -17.5867  -16.1096 C   0  0  0  0  0  0  0  0  0  0  0  0
   28.8412  -17.8373  -17.4492 C   0  0  0  0  0  0  0  0  0  0  0  0
   27.8060  -18.6831  -17.8277 C   0  0  0  0  0  0  0  0  0  0  0  0
   27.0070  -19.2553  -16.8645 C   0  0  0  0  0  0  0  0  0  0  0  0
   26.4960  -21.2864  -12.6201 C   0  0  0  0  0  0  0  0  0  0  0  0
   25.7078  -22.2246  -12.7006 O   0  0  0  0  0  0  0  0  0  0  0  0
   27.1689  -18.5405   -6.0020 C   0  0  0  0  0  0  0  0  0  0  0  0
   27.1070  -20.3376   -6.1813 S   0  0  0  0  0  0  0  0  0  0  0  0
   26.1303  -20.8213   -7.6430 C   0  0  0  0  0  0  0  0  0  0  0  0
   26.9267  -20.6200   -8.9160 C   0  0  0  0  0  0  0  0  0  0  0  0
   26.1474  -21.0253  -10.1401 C   0  0  2  0  0  0  0  0  0  0  0  0
   26.7754  -20.7172  -11.3778 N   0  0  0  0  0  0  0  0  0  0  0  0
   24.8326  -20.3606  -10.0382 C   0  0  0  0  0  0  0  0  0  0  0  0
   24.8068  -19.1093   -9.8776 O   0  0  0  0  0  0  0  0  0  0  0  0
   23.6091  -21.0808  -10.1062 N   0  0  0  0  0  0  0  0  0  0  0  0
   22.5703  -20.6605  -11.0607 C   0  0  1  0  0  0  0  0  0  0  0  0
   23.1454  -20.5582  -12.4191 C   0  0  0  0  0  0  0  0  0  0  0  0
   22.1603  -20.0993  -13.4040 C   0  0  0  0  0  0  0  0  0  0  0  0
   21.6402  -18.8547  -13.5831 C   0  0  0  0  0  0  0  0  0  0  0  0
   20.7187  -18.9021  -14.5817 N   0  0  0  0  0  0  0  0  0  0  0  0
   20.6402  -20.1620  -15.0508 C   0  0  0  0  0  0  0  0  0  0  0  0
   19.8736  -20.7370  -16.0701 C   0  0  0  0  0  0  0  0  0  0  0  0
   19.9862  -22.0607  -16.3868 C   0  0  0  0  0  0  0  0  0  0  0  0
   20.8977  -22.8274  -15.6489 C   0  0  0  0  0  0  0  0  0  0  0  0
   21.6461  -22.2607  -14.6459 C   0  0  0  0  0  0  0  0  0  0  0  0
   21.5246  -20.9230  -14.3370 C   0  0  0  0  0  0  0  0  0  0  0  0
   21.4314  -21.5401  -10.8413 C   0  0  0  0  0  0  0  0  0  0  0  0
   21.5847  -22.7021  -10.4174 O   0  0  0  0  0  0  0  0  0  0  0  0
   20.0963  -21.1537  -11.0860 O   0  0  0  0  0  0  0  0  0  0  0  0
  2  1  1  6
  3  2  1  0
  4  3  1  0
  4  5  2  0
  6  5  1  0
  7  6  2  0
  8  9  2  0
  8  7  1  0
  9  4  1  0
 10 11  2  0
 10  2  1  0
 13 12  1  0
 14 13  1  0
 15 14  1  0
 16 15  1  1
 16 17  1  0
 17 10  1  0
 18 16  1  0
 19 18  2  0
 20 18  1  0
 21 20  1  0
 22 23  1  0
 21 22  1  6
 23 31  1  0
 24 23  2  0
 24 25  1  0
 25 26  1  0
 26 27  1  0
 27 28  2  0
 29 28  1  0
 30 29  2  0
 31 26  2  0
 31 30  1  0
 32 34  1  0
 32 21  1  0
 33 32  2  0
M  END
$$$$
