FMW.pdb
     RDKit          3D

 34 36  0  0  1  0  0  0  0  0999 V2000
   28.4789  -21.6346  -16.2765 N   0  0  0  0  0  0  0  0  0  0  0  0
   27.9422  -20.6511  -15.3685 C   0  0  1  0  0  0  0  0  0  0  0  0
   27.3287  -19.5770  -16.2641 C   0  0  0  0  0  0  0  0  0  0  0  0
   28.4653  -18.8335  -16.8684 C   0  0  0  0  0  0  0  0  0  0  0  0
   29.2042  -17.9186  -16.1110 C   0  0  0  0  0  0  0  0  0  0  0  0
   30.2732  -17.2142  -16.6430 C   0  0  0  0  0  0  0  0  0  0  0  0
   30.6343  -17.4079  -17.9594 C   0  0  0  0  0  0  0  0  0  0  0  0
   29.9169  -18.3115  -18.7334 C   0  0  0  0  0  0  0  0  0  0  0  0
   28.8605  -18.9963  -18.1778 C   0  0  0  0  0  0  0  0  0  0  0  0
   26.9376  -21.1957  -14.4325 C   0  0  0  0  0  0  0  0  0  0  0  0
   26.1770  -22.0882  -14.7967 O   0  0  0  0  0  0  0  0  0  0  0  0
   27.2360  -20.8766   -7.7020 C   0  0  0  0  0  0  0  0  0  0  0  0
   25.5336  -20.4094   -8.0883 S   0  0  0  0  0  0  0  0  0  0  0  0
   25.0815  -20.9071   -9.7831 C   0  0  0  0  0  0  0  0  0  0  0  0
   26.1711  -20.5301  -10.7659 C   0  0  0  0  0  0  0  0  0  0  0  0
   25.8716  -21.0226  -12.1580 C   0  0  2  0  0  0  0  0  0  0  0  0
   26.8568  -20.7007  -13.1310 N   0  0  0  0  0  0  0  0  0  0  0  0
   24.5603  -20.4541  -12.5299 C   0  0  0  0  0  0  0  0  0  0  0  0
   24.4704  -19.2037  -12.6729 O   0  0  0  0  0  0  0  0  0  0  0  0
   23.4074  -21.2632  -12.7212 N   0  0  0  0  0  0  0  0  0  0  0  0
   22.1988  -20.6757  -13.3218 C   0  0  1  0  0  0  0  0  0  0  0  0
   22.3063  -20.6984  -14.7964 C   0  0  0  0  0  0  0  0  0  0  0  0
   21.1041  -20.1674  -15.4473 C   0  0  0  0  0  0  0  0  0  0  0  0
   20.5106  -18.9524  -15.2955 C   0  0  0  0  0  0  0  0  0  0  0  0
   19.3859  -18.9134  -16.0586 N   0  0  0  0  0  0  0  0  0  0  0  0
   19.2484  -20.0879  -16.7029 C   0  0  0  0  0  0  0  0  0  0  0  0
   18.2894  -20.5539  -17.6086 C   0  0  0  0  0  0  0  0  0  0  0  0
   18.3752  -21.8006  -18.1596 C   0  0  0  0  0  0  0  0  0  0  0  0
   19.4604  -22.6020  -17.7813 C   0  0  0  0  0  0  0  0  0  0  0  0
   20.3984  -22.1430  -16.8886 C   0  0  0  0  0  0  0  0  0  0  0  0
   20.3015  -20.8820  -16.3408 C   0  0  0  0  0  0  0  0  0  0  0  0
   21.0648  -21.3317  -12.6872 C   0  0  0  0  0  0  0  0  0  0  0  0
   19.9748  -20.7441  -12.5455 O   0  0  0  0  0  0  0  0  0  0  0  0
   21.1111  -22.6535  -12.1949 O   0  0  0  0  0  0  0  0  0  0  0  0
  2  1  1  6
  3  2  1  0
  4  3  1  0
  4  5  2  0
  6  5  1  0
  7  6  2  0
  8  9  2  0
  8  7  1  0
  9  4  1  0
 10 11  2  0
 10  2  1  0
 13 12  1  0
 14 13  1  0
 15 14  1  0
 16 15  1  1
 16 17  1  0
 17 10  1  0
 18 16  1  0
 19 18  2  0
 20 18  1  0
 21 20  1  0
 22 23  1  0
 21 22  1  6
 23 31  1  0
 24 23  2  0
 24 25  1  0
 25 26  1  0
 26 27  1  0
 27 28  2  0
 29 28  1  0
 30 29  2  0
 31 26  2  0
 31 30  1  0
 32 34  1  0
 32 21  1  0
 33 32  2  0
M  END
$$$$
