FMW.pdb
     RDKit          3D

 34 36  0  0  1  0  0  0  0  0999 V2000
   28.7730  -20.8488  -13.5276 N   0  0  0  0  0  0  0  0  0  0  0  0
   27.8529  -20.0382  -12.7686 C   0  0  1  0  0  0  0  0  0  0  0  0
   26.8693  -19.4851  -13.7976 C   0  0  0  0  0  0  0  0  0  0  0  0
   27.5949  -18.4251  -14.5458 C   0  0  0  0  0  0  0  0  0  0  0  0
   27.6970  -17.1288  -14.0302 C   0  0  0  0  0  0  0  0  0  0  0  0
   28.3718  -16.1199  -14.7001 C   0  0  0  0  0  0  0  0  0  0  0  0
   28.9676  -16.3836  -15.9152 C   0  0  0  0  0  0  0  0  0  0  0  0
   28.8813  -17.6633  -16.4491 C   0  0  0  0  0  0  0  0  0  0  0  0
   28.2048  -18.6444  -15.7612 C   0  0  0  0  0  0  0  0  0  0  0  0
   27.1444  -20.7830  -11.7078 C   0  0  0  0  0  0  0  0  0  0  0  0
   26.6472  -21.8789  -11.9520 O   0  0  0  0  0  0  0  0  0  0  0  0
   28.6253  -21.0798   -4.9544 C   0  0  0  0  0  0  0  0  0  0  0  0
   27.0898  -20.7622   -5.8525 S   0  0  0  0  0  0  0  0  0  0  0  0
   27.4199  -19.9895   -7.4708 C   0  0  0  0  0  0  0  0  0  0  0  0
   26.1266  -19.6922   -8.2016 C   0  0  0  0  0  0  0  0  0  0  0  0
   26.0077  -20.4775   -9.4819 C   0  0  2  0  0  0  0  0  0  0  0  0
   27.0458  -20.2445  -10.4249 N   0  0  0  0  0  0  0  0  0  0  0  0
   24.6898  -20.1420  -10.0577 C   0  0  0  0  0  0  0  0  0  0  0  0
   24.5721  -19.0543  -10.6863 O   0  0  0  0  0  0  0  0  0  0  0  0
   23.5604  -20.9939   -9.9194 N   0  0  0  0  0  0  0  0  0  0  0  0
   22.3699  -20.7638  -10.7539 C   0  0  1  0  0  0  0  0  0  0  0  0
   22.6334  -21.2041  -12.1407 C   0  0  0  0  0  0  0  0  0  0  0  0
   21.4487  -21.0780  -12.9960 C   0  0  0  0  0  0  0  0  0  0  0  0
   20.5096  -20.0937  -13.0231 C   0  0  0  0  0  0  0  0  0  0  0  0
   19.5597  -20.4165  -13.9409 N   0  0  0  0  0  0  0  0  0  0  0  0
   19.8766  -21.5961  -14.5081 C   0  0  0  0  0  0  0  0  0  0  0  0
   19.2534  -22.3548  -15.5047 C   0  0  0  0  0  0  0  0  0  0  0  0
   19.7869  -23.5334  -15.9422 C   0  0  0  0  0  0  0  0  0  0  0  0
   20.9839  -23.9603  -15.3524 C   0  0  0  0  0  0  0  0  0  0  0  0
   21.5914  -23.2151  -14.3711 C   0  0  0  0  0  0  0  0  0  0  0  0
   21.0437  -22.0263  -13.9394 C   0  0  0  0  0  0  0  0  0  0  0  0
   21.2452  -21.3412  -10.0323 C   0  0  0  0  0  0  0  0  0  0  0  0
   21.4014  -22.3028   -9.2550 O   0  0  0  0  0  0  0  0  0  0  0  0
   19.9216  -20.8673  -10.1544 O   0  0  0  0  0  0  0  0  0  0  0  0
  2  1  1  6
  3  2  1  0
  4  3  1  0
  4  5  2  0
  6  5  1  0
  7  6  2  0
  8  9  2  0
  8  7  1  0
  9  4  1  0
 10 11  2  0
 10  2  1  0
 13 12  1  0
 14 13  1  0
 15 14  1  0
 16 15  1  1
 16 17  1  0
 17 10  1  0
 18 16  1  0
 19 18  2  0
 20 18  1  0
 21 20  1  0
 22 23  1  0
 21 22  1  6
 23 31  1  0
 24 23  2  0
 24 25  1  0
 25 26  1  0
 26 27  1  0
 27 28  2  0
 29 28  1  0
 30 29  2  0
 31 26  2  0
 31 30  1  0
 32 34  1  0
 32 21  1  0
 33 32  2  0
M  END
$$$$
