FMW.pdb
     RDKit          3D

 34 36  0  0  1  0  0  0  0  0999 V2000
   22.3109  -21.2240  -14.9768 N   0  0  0  0  0  0  0  0  0  0  0  0
   23.0884  -20.5285  -13.9810 C   0  0  1  0  0  0  0  0  0  0  0  0
   22.2490  -20.5916  -12.7068 C   0  0  0  0  0  0  0  0  0  0  0  0
   21.0996  -19.6720  -12.9142 C   0  0  0  0  0  0  0  0  0  0  0  0
   19.7880  -20.1069  -12.6966 C   0  0  0  0  0  0  0  0  0  0  0  0
   18.6953  -19.2725  -12.8751 C   0  0  0  0  0  0  0  0  0  0  0  0
   18.8876  -17.9688  -13.2803 C   0  0  0  0  0  0  0  0  0  0  0  0
   20.1806  -17.5117  -13.5029 C   0  0  0  0  0  0  0  0  0  0  0  0
   21.2457  -18.3630  -13.3174 C   0  0  0  0  0  0  0  0  0  0  0  0
   24.4271  -21.1129  -13.7612 C   0  0  0  0  0  0  0  0  0  0  0  0
   24.5980  -22.3229  -13.8814 O   0  0  0  0  0  0  0  0  0  0  0  0
   29.3833  -17.3380  -14.8436 C   0  0  0  0  0  0  0  0  0  0  0  0
   28.8798  -18.6482  -15.9818 S   0  0  0  0  0  0  0  0  0  0  0  0
   27.6258  -19.7338  -15.2245 C   0  0  0  0  0  0  0  0  0  0  0  0
   27.9245  -19.9630  -13.7571 C   0  0  0  0  0  0  0  0  0  0  0  0
   26.8115  -20.7042  -13.0629 C   0  0  2  0  0  0  0  0  0  0  0  0
   25.5005  -20.2888  -13.4234 N   0  0  0  0  0  0  0  0  0  0  0  0
   27.0363  -20.5348  -11.6132 C   0  0  0  0  0  0  0  0  0  0  0  0
   27.5384  -19.4497  -11.2095 O   0  0  0  0  0  0  0  0  0  0  0  0
   26.7158  -21.5489  -10.6703 N   0  0  0  0  0  0  0  0  0  0  0  0
   26.8355  -21.2669   -9.2306 C   0  0  1  0  0  0  0  0  0  0  0  0
   27.9721  -20.3525   -8.9886 C   0  0  0  0  0  0  0  0  0  0  0  0
   27.9216  -19.7480   -7.6534 C   0  0  0  0  0  0  0  0  0  0  0  0
   27.2737  -18.6240   -7.2431 C   0  0  0  0  0  0  0  0  0  0  0  0
   27.5490  -18.4120   -5.9286 N   0  0  0  0  0  0  0  0  0  0  0  0
   28.3648  -19.3874   -5.4854 C   0  0  0  0  0  0  0  0  0  0  0  0
   28.9238  -19.6434   -4.2287 C   0  0  0  0  0  0  0  0  0  0  0  0
   29.7187  -20.7323   -4.0102 C   0  0  0  0  0  0  0  0  0  0  0  0
   29.9592  -21.5861   -5.0947 C   0  0  0  0  0  0  0  0  0  0  0  0
   29.4120  -21.3298   -6.3285 C   0  0  0  0  0  0  0  0  0  0  0  0
   28.6099  -20.2283   -6.5359 C   0  0  0  0  0  0  0  0  0  0  0  0
   25.5082  -20.8776   -8.7770 C   0  0  0  0  0  0  0  0  0  0  0  0
   25.2986  -20.5591   -7.5904 O   0  0  0  0  0  0  0  0  0  0  0  0
   24.3823  -20.8316   -9.6265 O   0  0  0  0  0  0  0  0  0  0  0  0
  2  1  1  6
  3  2  1  0
  4  3  1  0
  4  5  2  0
  6  5  1  0
  7  6  2  0
  8  9  2  0
  8  7  1  0
  9  4  1  0
 10 11  2  0
 10  2  1  0
 13 12  1  0
 14 13  1  0
 15 14  1  0
 16 15  1  6
 16 17  1  0
 17 10  1  0
 18 16  1  0
 19 18  2  0
 20 18  1  0
 21 20  1  0
 22 23  1  0
 21 22  1  6
 23 31  1  0
 24 23  2  0
 24 25  1  0
 25 26  1  0
 26 27  1  0
 27 28  2  0
 29 28  1  0
 30 29  2  0
 31 26  2  0
 31 30  1  0
 32 34  1  0
 32 21  1  0
 33 32  2  0
M  END
$$$$
