FMW.pdb
     RDKit          3D

 34 36  0  0  1  0  0  0  0  0999 V2000
   27.8351  -22.9049  -17.8734 N   0  0  0  0  0  0  0  0  0  0  0  0
   26.9624  -23.0052  -16.7296 C   0  0  1  0  0  0  0  0  0  0  0  0
   26.7481  -24.5033  -16.5241 C   0  0  0  0  0  0  0  0  0  0  0  0
   25.8256  -24.9480  -17.6016 C   0  0  0  0  0  0  0  0  0  0  0  0
   24.4904  -24.5309  -17.6166 C   0  0  0  0  0  0  0  0  0  0  0  0
   23.6067  -24.9228  -18.6103 C   0  0  0  0  0  0  0  0  0  0  0  0
   24.0392  -25.7504  -19.6246 C   0  0  0  0  0  0  0  0  0  0  0  0
   25.3609  -26.1786  -19.6333 C   0  0  0  0  0  0  0  0  0  0  0  0
   26.2150  -25.7731  -18.6335 C   0  0  0  0  0  0  0  0  0  0  0  0
   27.5107  -22.3778  -15.5100 C   0  0  0  0  0  0  0  0  0  0  0  0
   28.7183  -22.4117  -15.2899 O   0  0  0  0  0  0  0  0  0  0  0  0
   28.6902  -16.5877  -16.3789 C   0  0  0  0  0  0  0  0  0  0  0  0
   27.6919  -17.1718  -14.9904 S   0  0  0  0  0  0  0  0  0  0  0  0
   27.8346  -18.9784  -14.7894 C   0  0  0  0  0  0  0  0  0  0  0  0
   26.9326  -19.4713  -13.6765 C   0  0  0  0  0  0  0  0  0  0  0  0
   27.0372  -20.9617  -13.4826 C   0  0  2  0  0  0  0  0  0  0  0  0
   26.6572  -21.7396  -14.6102 N   0  0  0  0  0  0  0  0  0  0  0  0
   26.2006  -21.2911  -12.3110 C   0  0  0  0  0  0  0  0  0  0  0  0
   24.9553  -21.1056  -12.3954 O   0  0  0  0  0  0  0  0  0  0  0  0
   26.7505  -21.7968  -11.1019 N   0  0  0  0  0  0  0  0  0  0  0  0
   26.3205  -21.2282   -9.8141 C   0  0  1  0  0  0  0  0  0  0  0  0
   27.4989  -20.7756   -9.0440 C   0  0  0  0  0  0  0  0  0  0  0  0
   27.1216  -20.1423   -7.7761 C   0  0  0  0  0  0  0  0  0  0  0  0
   25.9406  -19.5671   -7.4211 C   0  0  0  0  0  0  0  0  0  0  0  0
   26.0579  -19.0599   -6.1650 N   0  0  0  0  0  0  0  0  0  0  0  0
   27.2997  -19.3036   -5.7045 C   0  0  0  0  0  0  0  0  0  0  0  0
   27.9217  -19.0126   -4.4856 C   0  0  0  0  0  0  0  0  0  0  0  0
   29.2102  -19.3893   -4.2347 C   0  0  0  0  0  0  0  0  0  0  0  0
   29.8922  -20.0772   -5.2470 C   0  0  0  0  0  0  0  0  0  0  0  0
   29.2800  -20.3579   -6.4444 C   0  0  0  0  0  0  0  0  0  0  0  0
   27.9783  -19.9739   -6.6848 C   0  0  0  0  0  0  0  0  0  0  0  0
   25.2673  -20.2708  -10.1194 C   0  0  0  0  0  0  0  0  0  0  0  0
   24.0667  -20.5508   -9.9362 O   0  0  0  0  0  0  0  0  0  0  0  0
   25.5188  -18.9812  -10.6345 O   0  0  0  0  0  0  0  0  0  0  0  0
  2  1  1  6
  3  2  1  0
  4  3  1  0
  4  5  2  0
  6  5  1  0
  7  6  2  0
  8  9  2  0
  8  7  1  0
  9  4  1  0
 10 11  2  0
 10  2  1  0
 13 12  1  0
 14 13  1  0
 15 14  1  0
 16 15  1  6
 16 17  1  0
 17 10  1  0
 18 16  1  0
 19 18  2  0
 20 18  1  0
 21 20  1  0
 22 23  1  0
 21 22  1  6
 23 31  1  0
 24 23  2  0
 24 25  1  0
 25 26  1  0
 26 27  1  0
 27 28  2  0
 29 28  1  0
 30 29  2  0
 31 26  2  0
 31 30  1  0
 32 34  1  0
 32 21  1  0
 33 32  2  0
M  END
$$$$
