QED.pdb
     RDKit          3D

 27 26  0  0  1  0  0  0  0  0999 V2000
    9.7489  -18.1932   17.6114 N   0  0  0  0  0  0  0  0  0  0  0  0
    9.2115  -19.5151   17.7302 C   0  0  0  0  0  0  0  0  0  0  0  0
    8.0430  -19.6043   18.1581 O   0  0  0  0  0  0  0  0  0  0  0  0
   10.0120  -20.6791   17.3678 C   0  0  0  0  0  0  0  0  0  0  0  0
   10.3739  -21.5408   18.5364 C   0  0  0  0  0  0  0  0  0  0  0  0
   11.5034  -21.0129   19.3465 C   0  0  2  0  0  0  0  0  0  0  0  0
   12.8189  -21.3414   18.8897 N   0  0  0  0  0  0  0  0  0  0  0  0
   11.3209  -21.4032   20.7934 C   0  0  0  0  0  0  0  0  0  0  0  0
   10.2981  -20.9992   21.4290 O   0  0  0  0  0  0  0  0  0  0  0  0
   12.2155  -22.2022   21.5187 N   0  0  0  0  0  0  0  0  0  0  0  0
   11.9639  -22.5633   22.9151 C   0  0  1  0  0  0  0  0  0  0  0  0
   12.5894  -23.8503   23.2791 C   0  0  0  0  0  0  0  0  0  0  0  0
   12.2184  -24.2717   24.6700 C   0  0  0  0  0  0  0  0  0  0  0  0
   12.8878  -25.5792   25.0252 C   0  0  0  0  0  0  0  0  0  0  0  0
   12.3759  -26.6206   24.5748 O   0  0  0  0  0  0  0  0  0  0  0  0
   12.3600  -21.4635   23.8072 C   0  0  0  0  0  0  0  0  0  0  0  0
   13.4835  -20.9256   23.8380 O   0  0  0  0  0  0  0  0  0  0  0  0
   14.0153  -25.6564   25.8096 O   0  0  0  0  0  0  0  0  0  0  0  0
   11.4047  -20.9250   24.7455 N   0  0  0  0  0  0  0  0  0  0  0  0
   11.7592  -19.8224   25.6528 C   0  0  1  0  0  0  0  0  0  0  0  0
   10.7641  -18.7447   25.3950 C   0  0  0  0  0  0  0  0  0  0  0  0
   10.9634  -17.9350   24.1978 C   0  0  0  0  0  0  0  0  0  0  0  0
   12.0468  -18.1520   23.5494 O   0  0  0  0  0  0  0  0  0  0  0  0
   11.7732  -20.3234   27.0529 C   0  0  0  0  0  0  0  0  0  0  0  0
   12.2073  -19.5131   28.0793 O   0  0  0  0  0  0  0  0  0  0  0  0
   10.1436  -16.9723   23.6783 O   0  0  0  0  0  0  0  0  0  0  0  0
   11.4004  -21.4847   27.3739 O   0  0  0  0  0  0  0  0  0  0  0  0
  2  4  1  0
  2  1  1  0
  3  2  2  0
  5  6  1  0
  5  4  1  0
  6  7  1  6
  6  8  1  0
  8  9  2  0
 10  8  1  0
 10 11  1  0
 11 16  1  0
 11 12  1  1
 13 12  1  0
 13 14  1  0
 14 15  2  0
 16 17  2  0
 18 14  1  0
 19 20  1  0
 19 16  1  0
 20 24  1  0
 20 21  1  1
 22 21  1  0
 23 22  2  0
 24 27  2  0
 24 25  1  0
 26 22  1  0
M  END
$$$$
