QED.pdb
     RDKit          3D

 27 26  0  0  1  0  0  0  0  0999 V2000
    6.2751  -12.2404   18.5804 N   0  0  0  0  0  0  0  0  0  0  0  0
    7.1727  -12.9573   17.7257 C   0  0  0  0  0  0  0  0  0  0  0  0
    6.7495  -13.2404   16.5866 O   0  0  0  0  0  0  0  0  0  0  0  0
    8.5044  -13.3292   18.1896 C   0  0  0  0  0  0  0  0  0  0  0  0
    8.7718  -12.9382   19.6091 C   0  0  0  0  0  0  0  0  0  0  0  0
   10.0800  -13.4165   20.1288 C   0  0  2  0  0  0  0  0  0  0  0  0
   11.2213  -13.1614   19.3044 N   0  0  0  0  0  0  0  0  0  0  0  0
    9.9853  -14.8813   20.4817 C   0  0  0  0  0  0  0  0  0  0  0  0
    9.0249  -15.2928   21.2041 O   0  0  0  0  0  0  0  0  0  0  0  0
   10.8987  -15.8590   20.0638 N   0  0  0  0  0  0  0  0  0  0  0  0
   10.7756  -17.2554   20.4861 C   0  0  1  0  0  0  0  0  0  0  0  0
   10.5068  -18.1595   19.3501 C   0  0  0  0  0  0  0  0  0  0  0  0
    9.3153  -17.7115   18.5567 C   0  0  0  0  0  0  0  0  0  0  0  0
    9.1127  -18.6031   17.3534 C   0  0  0  0  0  0  0  0  0  0  0  0
    8.2994  -19.5383   17.4694 O   0  0  0  0  0  0  0  0  0  0  0  0
   11.9525  -17.6582   21.2703 C   0  0  0  0  0  0  0  0  0  0  0  0
   13.0080  -18.1268   20.8024 O   0  0  0  0  0  0  0  0  0  0  0  0
    9.7793  -18.4213   16.1639 O   0  0  0  0  0  0  0  0  0  0  0  0
   11.9356  -17.5201   22.7069 N   0  0  0  0  0  0  0  0  0  0  0  0
   13.1815  -17.4887   23.4887 C   0  0  1  0  0  0  0  0  0  0  0  0
   13.9699  -16.3431   22.9558 C   0  0  0  0  0  0  0  0  0  0  0  0
   15.4139  -16.3835   23.1608 C   0  0  0  0  0  0  0  0  0  0  0  0
   15.8556  -17.3790   23.8355 O   0  0  0  0  0  0  0  0  0  0  0  0
   12.8514  -17.3872   24.9352 C   0  0  0  0  0  0  0  0  0  0  0  0
   11.6755  -16.7959   25.3425 O   0  0  0  0  0  0  0  0  0  0  0  0
   16.3577  -15.4949   22.7270 O   0  0  0  0  0  0  0  0  0  0  0  0
   13.6059  -17.8228   25.8472 O   0  0  0  0  0  0  0  0  0  0  0  0
  2  4  1  0
  2  1  1  0
  3  2  2  0
  5  6  1  0
  5  4  1  0
  6  7  1  6
  6  8  1  0
  8  9  2  0
 10  8  1  0
 10 11  1  0
 11 16  1  0
 11 12  1  6
 13 12  1  0
 13 14  1  0
 14 15  2  0
 16 17  2  0
 18 14  1  0
 19 20  1  0
 19 16  1  0
 20 24  1  0
 20 21  1  6
 22 21  1  0
 23 22  2  0
 24 27  2  0
 24 25  1  0
 26 22  1  0
M  END
$$$$
