QED.pdb
     RDKit          3D

 27 26  0  0  1  0  0  0  0  0999 V2000
    8.4073  -12.0957   17.7386 N   0  0  0  0  0  0  0  0  0  0  0  0
    7.6125  -12.5415   18.8431 C   0  0  0  0  0  0  0  0  0  0  0  0
    7.3781  -11.7010   19.7349 O   0  0  0  0  0  0  0  0  0  0  0  0
    7.1201  -13.9130   18.8998 C   0  0  0  0  0  0  0  0  0  0  0  0
    8.2024  -14.9400   18.7850 C   0  0  0  0  0  0  0  0  0  0  0  0
    8.7520  -15.3839   20.0932 C   0  0  2  0  0  0  0  0  0  0  0  0
    8.9883  -14.3583   21.0624 N   0  0  0  0  0  0  0  0  0  0  0  0
    9.9937  -16.2134   19.8710 C   0  0  0  0  0  0  0  0  0  0  0  0
    9.9132  -17.3051   19.2266 O   0  0  0  0  0  0  0  0  0  0  0  0
   11.2719  -15.8677   20.3309 N   0  0  0  0  0  0  0  0  0  0  0  0
   12.4333  -16.7254   20.0882 C   0  0  1  0  0  0  0  0  0  0  0  0
   13.4050  -16.1006   19.1687 C   0  0  0  0  0  0  0  0  0  0  0  0
   13.6886  -14.6773   19.5475 C   0  0  0  0  0  0  0  0  0  0  0  0
   14.7553  -14.0916   18.6512 C   0  0  0  0  0  0  0  0  0  0  0  0
   15.9324  -14.4312   18.8716 O   0  0  0  0  0  0  0  0  0  0  0  0
   13.0384  -17.1398   21.3627 C   0  0  0  0  0  0  0  0  0  0  0  0
   14.1819  -17.6152   21.5002 O   0  0  0  0  0  0  0  0  0  0  0  0
   14.4772  -13.2178   17.6257 O   0  0  0  0  0  0  0  0  0  0  0  0
   12.2868  -17.0059   22.5876 N   0  0  0  0  0  0  0  0  0  0  0  0
   12.9088  -17.2471   23.8989 C   0  0  1  0  0  0  0  0  0  0  0  0
   14.0358  -16.2789   24.0013 C   0  0  0  0  0  0  0  0  0  0  0  0
   15.3776  -16.8385   24.1236 C   0  0  0  0  0  0  0  0  0  0  0  0
   15.4537  -18.1173   24.1127 O   0  0  0  0  0  0  0  0  0  0  0  0
   11.8802  -17.1072   24.9638 C   0  0  0  0  0  0  0  0  0  0  0  0
   10.8020  -16.2679   24.7862 O   0  0  0  0  0  0  0  0  0  0  0  0
   16.5658  -16.1744   24.2500 O   0  0  0  0  0  0  0  0  0  0  0  0
   11.9327  -17.7293   26.0597 O   0  0  0  0  0  0  0  0  0  0  0  0
  2  4  1  0
  2  1  1  0
  3  2  2  0
  5  6  1  0
  5  4  1  0
  6  7  1  1
  6  8  1  0
  8  9  2  0
 10  8  1  0
 10 11  1  0
 11 16  1  0
 11 12  1  6
 13 12  1  0
 13 14  1  0
 14 15  2  0
 16 17  2  0
 18 14  1  0
 19 20  1  0
 19 16  1  0
 20 24  1  0
 20 21  1  1
 22 21  1  0
 23 22  2  0
 24 27  2  0
 24 25  1  0
 26 22  1  0
M  END
$$$$
