QED.pdb
     RDKit          3D

 27 26  0  0  1  0  0  0  0  0999 V2000
    7.4248  -12.2849   19.3842 N   0  0  0  0  0  0  0  0  0  0  0  0
    7.4529  -13.0971   18.2053 C   0  0  0  0  0  0  0  0  0  0  0  0
    6.3484  -13.3846   17.7013 O   0  0  0  0  0  0  0  0  0  0  0  0
    8.7201  -13.5549   17.6472 C   0  0  0  0  0  0  0  0  0  0  0  0
    9.9165  -13.0405   18.3844 C   0  0  0  0  0  0  0  0  0  0  0  0
   10.9752  -14.0618   18.6005 C   0  0  2  0  0  0  0  0  0  0  0  0
   11.0693  -15.0954   17.6157 N   0  0  0  0  0  0  0  0  0  0  0  0
   10.8461  -14.6464   19.9864 C   0  0  0  0  0  0  0  0  0  0  0  0
   10.8159  -13.8737   20.9941 O   0  0  0  0  0  0  0  0  0  0  0  0
   10.7526  -16.0172   20.2639 N   0  0  0  0  0  0  0  0  0  0  0  0
   10.6815  -16.5195   21.6373 C   0  0  1  0  0  0  0  0  0  0  0  0
    9.5587  -17.4589   21.8296 C   0  0  0  0  0  0  0  0  0  0  0  0
    9.4730  -18.4547   20.7113 C   0  0  0  0  0  0  0  0  0  0  0  0
    8.3734  -19.4572   20.9758 C   0  0  0  0  0  0  0  0  0  0  0  0
    8.4999  -20.5867   20.4683 O   0  0  0  0  0  0  0  0  0  0  0  0
   11.9763  -17.0869   22.0420 C   0  0  0  0  0  0  0  0  0  0  0  0
   12.5500  -18.0461   21.4911 O   0  0  0  0  0  0  0  0  0  0  0  0
    7.2653  -19.1716   21.7392 O   0  0  0  0  0  0  0  0  0  0  0  0
   12.6841  -16.5224   23.1660 N   0  0  0  0  0  0  0  0  0  0  0  0
   13.9474  -17.1033   23.6467 C   0  0  1  0  0  0  0  0  0  0  0  0
   14.9498  -16.0032   23.5935 C   0  0  0  0  0  0  0  0  0  0  0  0
   15.4307  -15.6118   22.2728 C   0  0  0  0  0  0  0  0  0  0  0  0
   15.7902  -14.3885   22.1481 O   0  0  0  0  0  0  0  0  0  0  0  0
   13.7391  -17.6795   25.0018 C   0  0  0  0  0  0  0  0  0  0  0  0
   14.7171  -18.4521   25.5891 O   0  0  0  0  0  0  0  0  0  0  0  0
   15.5463  -16.3818   21.1492 O   0  0  0  0  0  0  0  0  0  0  0  0
   12.6864  -17.5009   25.6730 O   0  0  0  0  0  0  0  0  0  0  0  0
  2  4  1  0
  2  1  1  0
  3  2  2  0
  5  6  1  0
  5  4  1  0
  6  7  1  6
  6  8  1  0
  8  9  2  0
 10  8  1  0
 10 11  1  0
 11 16  1  0
 11 12  1  6
 13 12  1  0
 13 14  1  0
 14 15  2  0
 16 17  2  0
 18 14  1  0
 19 20  1  0
 19 16  1  0
 20 24  1  0
 20 21  1  1
 22 21  1  0
 23 22  2  0
 24 27  2  0
 24 25  1  0
 26 22  1  0
M  END
$$$$
