QED.pdb
     RDKit          3D

 27 26  0  0  1  0  0  0  0  0999 V2000
    6.2472  -12.4967   18.4138 N   0  0  0  0  0  0  0  0  0  0  0  0
    6.9843  -13.3469   17.5283 C   0  0  0  0  0  0  0  0  0  0  0  0
    6.3162  -14.0112   16.7104 O   0  0  0  0  0  0  0  0  0  0  0  0
    8.4390  -13.4173   17.6036 C   0  0  0  0  0  0  0  0  0  0  0  0
    8.9516  -13.6972   18.9813 C   0  0  0  0  0  0  0  0  0  0  0  0
   10.1119  -14.6262   19.0146 C   0  0  2  0  0  0  0  0  0  0  0  0
    9.8211  -16.0114   18.8051 N   0  0  0  0  0  0  0  0  0  0  0  0
   10.8913  -14.4252   20.2918 C   0  0  0  0  0  0  0  0  0  0  0  0
   11.3727  -13.2808   20.5607 O   0  0  0  0  0  0  0  0  0  0  0  0
   11.1358  -15.4292   21.2387 N   0  0  0  0  0  0  0  0  0  0  0  0
   11.9862  -15.1926   22.4068 C   0  0  1  0  0  0  0  0  0  0  0  0
   11.2840  -15.4769   23.6741 C   0  0  0  0  0  0  0  0  0  0  0  0
   10.7551  -16.8799   23.7107 C   0  0  0  0  0  0  0  0  0  0  0  0
   10.6599  -17.3748   25.1355 C   0  0  0  0  0  0  0  0  0  0  0  0
   11.7287  -17.5504   25.7489 O   0  0  0  0  0  0  0  0  0  0  0  0
   13.2510  -15.9313   22.2767 C   0  0  0  0  0  0  0  0  0  0  0  0
   13.3577  -17.1656   22.1432 O   0  0  0  0  0  0  0  0  0  0  0  0
    9.4626  -17.6313   25.7624 O   0  0  0  0  0  0  0  0  0  0  0  0
   14.5032  -15.2141   22.2997 N   0  0  0  0  0  0  0  0  0  0  0  0
   15.7904  -15.9145   22.1682 C   0  0  1  0  0  0  0  0  0  0  0  0
   16.6950  -14.9757   21.4483 C   0  0  0  0  0  0  0  0  0  0  0  0
   16.3209  -14.6132   20.0855 C   0  0  0  0  0  0  0  0  0  0  0  0
   16.7755  -13.4938   19.6594 O   0  0  0  0  0  0  0  0  0  0  0  0
   16.2705  -16.3176   23.5167 C   0  0  0  0  0  0  0  0  0  0  0  0
   17.3611  -17.1492   23.6490 O   0  0  0  0  0  0  0  0  0  0  0  0
   15.5459  -15.3134   19.2035 O   0  0  0  0  0  0  0  0  0  0  0  0
   15.7241  -15.9341   24.5867 O   0  0  0  0  0  0  0  0  0  0  0  0
  2  4  1  0
  2  1  1  0
  3  2  2  0
  5  6  1  0
  5  4  1  0
  6  7  1  1
  6  8  1  0
  8  9  2  0
 10  8  1  0
 10 11  1  0
 11 16  1  0
 11 12  1  1
 13 12  1  0
 13 14  1  0
 14 15  2  0
 16 17  2  0
 18 14  1  0
 19 20  1  0
 19 16  1  0
 20 24  1  0
 20 21  1  1
 22 21  1  0
 23 22  2  0
 24 27  2  0
 24 25  1  0
 26 22  1  0
M  END
$$$$
