QED.pdb
     RDKit          3D

 27 26  0  0  1  0  0  0  0  0999 V2000
   19.2217  -15.5629   18.2822 N   0  0  0  0  0  0  0  0  0  0  0  0
   18.6304  -14.3055   17.9368 C   0  0  0  0  0  0  0  0  0  0  0  0
   19.0083  -13.3139   18.5930 O   0  0  0  0  0  0  0  0  0  0  0  0
   17.6368  -14.2178   16.8728 C   0  0  0  0  0  0  0  0  0  0  0  0
   16.3086  -14.7957   17.2486 C   0  0  0  0  0  0  0  0  0  0  0  0
   15.2328  -13.7812   17.4028 C   0  0  2  0  0  0  0  0  0  0  0  0
   15.6556  -12.4171   17.4902 N   0  0  0  0  0  0  0  0  0  0  0  0
   14.3477  -14.1480   18.5696 C   0  0  0  0  0  0  0  0  0  0  0  0
   14.6570  -13.7606   19.7391 O   0  0  0  0  0  0  0  0  0  0  0  0
   13.1725  -14.9050   18.4670 N   0  0  0  0  0  0  0  0  0  0  0  0
   12.3705  -15.2415   19.6448 C   0  0  1  0  0  0  0  0  0  0  0  0
   10.9809  -15.5933   19.2908 C   0  0  0  0  0  0  0  0  0  0  0  0
   10.5932  -15.0366   17.9531 C   0  0  0  0  0  0  0  0  0  0  0  0
    9.2266  -15.5369   17.5454 C   0  0  0  0  0  0  0  0  0  0  0  0
    8.6417  -16.3003   18.3357 O   0  0  0  0  0  0  0  0  0  0  0  0
   13.0390  -16.2838   20.4379 C   0  0  0  0  0  0  0  0  0  0  0  0
   13.7726  -17.1816   19.9815 O   0  0  0  0  0  0  0  0  0  0  0  0
    8.6217  -15.1865   16.3607 O   0  0  0  0  0  0  0  0  0  0  0  0
   12.8635  -16.3148   21.8702 N   0  0  0  0  0  0  0  0  0  0  0  0
   13.9134  -16.8347   22.7601 C   0  0  1  0  0  0  0  0  0  0  0  0
   15.1523  -16.0846   22.4127 C   0  0  0  0  0  0  0  0  0  0  0  0
   16.3586  -16.4197   23.1618 C   0  0  0  0  0  0  0  0  0  0  0  0
   16.6085  -15.6821   24.1791 O   0  0  0  0  0  0  0  0  0  0  0  0
   13.4790  -16.6818   24.1742 C   0  0  0  0  0  0  0  0  0  0  0  0
   12.4752  -15.7975   24.5038 O   0  0  0  0  0  0  0  0  0  0  0  0
   17.2588  -17.4191   22.9179 O   0  0  0  0  0  0  0  0  0  0  0  0
   13.9888  -17.3326   25.1267 O   0  0  0  0  0  0  0  0  0  0  0  0
  2  4  1  0
  2  1  1  0
  3  2  2  0
  5  6  1  0
  5  4  1  0
  6  7  1  1
  6  8  1  0
  8  9  2  0
 10  8  1  0
 10 11  1  0
 11 16  1  0
 11 12  1  6
 13 12  1  0
 13 14  1  0
 14 15  2  0
 16 17  2  0
 18 14  1  0
 19 20  1  0
 19 16  1  0
 20 24  1  0
 20 21  1  1
 22 21  1  0
 23 22  2  0
 24 27  2  0
 24 25  1  0
 26 22  1  0
M  END
$$$$
