QED.pdb
     RDKit          3D

 27 26  0  0  1  0  0  0  0  0999 V2000
    7.5564  -12.2929   17.5091 N   0  0  0  0  0  0  0  0  0  0  0  0
    7.3953  -13.3945   16.6088 C   0  0  0  0  0  0  0  0  0  0  0  0
    6.8103  -13.1534   15.5335 O   0  0  0  0  0  0  0  0  0  0  0  0
    7.8942  -14.7197   16.9578 C   0  0  0  0  0  0  0  0  0  0  0  0
    8.4376  -14.8045   18.3495 C   0  0  0  0  0  0  0  0  0  0  0  0
    9.0939  -16.1017   18.6613 C   0  0  2  0  0  0  0  0  0  0  0  0
    8.4345  -17.2772   18.1813 N   0  0  0  0  0  0  0  0  0  0  0  0
    9.3571  -16.1978   20.1448 C   0  0  0  0  0  0  0  0  0  0  0  0
   10.0174  -15.2818   20.7265 O   0  0  0  0  0  0  0  0  0  0  0  0
    8.9178  -17.2483   20.9623 N   0  0  0  0  0  0  0  0  0  0  0  0
    9.2795  -17.3216   22.3791 C   0  0  1  0  0  0  0  0  0  0  0  0
    8.3847  -18.2189   23.1369 C   0  0  0  0  0  0  0  0  0  0  0  0
    8.5670  -19.6518   22.7331 C   0  0  0  0  0  0  0  0  0  0  0  0
    7.6731  -20.5528   23.5535 C   0  0  0  0  0  0  0  0  0  0  0  0
    8.0423  -20.8172   24.7125 O   0  0  0  0  0  0  0  0  0  0  0  0
   10.6996  -17.6734   22.5270 C   0  0  0  0  0  0  0  0  0  0  0  0
   11.2973  -18.5564   21.8823 O   0  0  0  0  0  0  0  0  0  0  0  0
    6.4948  -21.0778   23.0756 O   0  0  0  0  0  0  0  0  0  0  0  0
   11.5148  -16.9670   23.4858 N   0  0  0  0  0  0  0  0  0  0  0  0
   12.9324  -17.3068   23.6848 C   0  0  1  0  0  0  0  0  0  0  0  0
   13.7093  -16.1793   23.0992 C   0  0  0  0  0  0  0  0  0  0  0  0
   15.1573  -16.3430   23.0266 C   0  0  0  0  0  0  0  0  0  0  0  0
   15.5725  -17.5058   22.6848 O   0  0  0  0  0  0  0  0  0  0  0  0
   13.1834  -17.5394   25.1321 C   0  0  0  0  0  0  0  0  0  0  0  0
   12.2198  -17.2275   26.0661 O   0  0  0  0  0  0  0  0  0  0  0  0
   16.1298  -15.4157   23.2777 O   0  0  0  0  0  0  0  0  0  0  0  0
   14.2610  -18.0209   25.5767 O   0  0  0  0  0  0  0  0  0  0  0  0
  2  4  1  0
  2  1  1  0
  3  2  2  0
  5  6  1  0
  5  4  1  0
  6  7  1  1
  6  8  1  0
  8  9  2  0
 10  8  1  0
 10 11  1  0
 11 16  1  0
 11 12  1  1
 13 12  1  0
 13 14  1  0
 14 15  2  0
 16 17  2  0
 18 14  1  0
 19 20  1  0
 19 16  1  0
 20 24  1  0
 20 21  1  1
 22 21  1  0
 23 22  2  0
 24 27  2  0
 24 25  1  0
 26 22  1  0
M  END
$$$$
