QED.pdb
     RDKit          3D

 27 26  0  0  1  0  0  0  0  0999 V2000
    9.1129  -12.7885   20.4859 N   0  0  0  0  0  0  0  0  0  0  0  0
    7.8670  -12.7121   19.7843 C   0  0  0  0  0  0  0  0  0  0  0  0
    7.5346  -11.5862   19.3617 O   0  0  0  0  0  0  0  0  0  0  0  0
    7.0469  -13.9026   19.5924 C   0  0  0  0  0  0  0  0  0  0  0  0
    7.6650  -15.1478   20.1463 C   0  0  0  0  0  0  0  0  0  0  0  0
    8.5713  -15.8441   19.1954 C   0  0  2  0  0  0  0  0  0  0  0  0
    7.9595  -16.3975   18.0264 N   0  0  0  0  0  0  0  0  0  0  0  0
    9.3771  -16.8889   19.9292 C   0  0  0  0  0  0  0  0  0  0  0  0
    8.9833  -17.3042   21.0632 O   0  0  0  0  0  0  0  0  0  0  0  0
   10.5632  -17.4594   19.4472 N   0  0  0  0  0  0  0  0  0  0  0  0
   11.2435  -18.5386   20.1656 C   0  0  1  0  0  0  0  0  0  0  0  0
   12.1315  -19.3219   19.2836 C   0  0  0  0  0  0  0  0  0  0  0  0
   12.7713  -20.4638   20.0161 C   0  0  0  0  0  0  0  0  0  0  0  0
   13.7001  -21.2280   19.1011 C   0  0  0  0  0  0  0  0  0  0  0  0
   14.9025  -20.9064   19.1141 O   0  0  0  0  0  0  0  0  0  0  0  0
   11.9373  -18.0076   21.3485 C   0  0  0  0  0  0  0  0  0  0  0  0
   12.6945  -17.0181   21.3598 O   0  0  0  0  0  0  0  0  0  0  0  0
   13.2732  -22.2417   18.2749 O   0  0  0  0  0  0  0  0  0  0  0  0
   11.7607  -18.6499   22.6288 N   0  0  0  0  0  0  0  0  0  0  0  0
   12.4068  -18.1286   23.8435 C   0  0  1  0  0  0  0  0  0  0  0  0
   11.9146  -18.9766   24.9645 C   0  0  0  0  0  0  0  0  0  0  0  0
   11.6856  -18.3124   26.2432 C   0  0  0  0  0  0  0  0  0  0  0  0
   12.1048  -17.1049   26.3296 O   0  0  0  0  0  0  0  0  0  0  0  0
   13.8826  -18.1470   23.6616 C   0  0  0  0  0  0  0  0  0  0  0  0
   14.6451  -17.0620   24.0356 O   0  0  0  0  0  0  0  0  0  0  0  0
   11.0822  -18.8126   27.3632 O   0  0  0  0  0  0  0  0  0  0  0  0
   14.5048  -19.1270   23.1686 O   0  0  0  0  0  0  0  0  0  0  0  0
  2  4  1  0
  2  1  1  0
  3  2  2  0
  5  6  1  0
  5  4  1  0
  6  7  1  6
  6  8  1  0
  8  9  2  0
 10  8  1  0
 10 11  1  0
 11 16  1  0
 11 12  1  6
 13 12  1  0
 13 14  1  0
 14 15  2  0
 16 17  2  0
 18 14  1  0
 19 20  1  0
 19 16  1  0
 20 24  1  0
 20 21  1  1
 22 21  1  0
 23 22  2  0
 24 27  2  0
 24 25  1  0
 26 22  1  0
M  END
$$$$
