WYH.pdb
     RDKit          3D

 37 40  0  0  1  0  0  0  0  0999 V2000
    6.4528  -16.9450   25.7165 N   0  0  0  0  0  0  0  0  0  0  0  0
    7.3565  -16.2440   24.8498 C   0  0  1  0  0  0  0  0  0  0  0  0
    8.5442  -15.6749   25.5504 C   0  0  0  0  0  0  0  0  0  0  0  0
    8.1475  -14.7727   26.6386 C   0  0  0  0  0  0  0  0  0  0  0  0
    8.1300  -15.1046   27.9722 C   0  0  0  0  0  0  0  0  0  0  0  0
    7.7400  -14.0356   28.6793 N   0  0  0  0  0  0  0  0  0  0  0  0
    7.5053  -13.0193   27.8218 C   0  0  0  0  0  0  0  0  0  0  0  0
    7.0849  -11.7270   28.0344 C   0  0  0  0  0  0  0  0  0  0  0  0
    6.9025  -10.8509   26.9898 C   0  0  0  0  0  0  0  0  0  0  0  0
    7.1491  -11.2901   25.7170 C   0  0  0  0  0  0  0  0  0  0  0  0
    7.5707  -12.5775   25.4747 C   0  0  0  0  0  0  0  0  0  0  0  0
    7.7559  -13.4634   26.5313 C   0  0  0  0  0  0  0  0  0  0  0  0
    7.7369  -17.0995   23.6913 C   0  0  0  0  0  0  0  0  0  0  0  0
    7.0404  -18.1068   23.3875 O   0  0  0  0  0  0  0  0  0  0  0  0
    7.2316  -12.5958   16.5508 O   0  0  0  0  0  0  0  0  0  0  0  0
    7.5354  -13.1224   17.8182 C   0  0  0  0  0  0  0  0  0  0  0  0
    6.7159  -14.0973   18.3473 C   0  0  0  0  0  0  0  0  0  0  0  0
    7.0096  -14.6226   19.5985 C   0  0  0  0  0  0  0  0  0  0  0  0
    8.1017  -14.1889   20.3194 C   0  0  0  0  0  0  0  0  0  0  0  0
    8.3459  -14.7821   21.6436 C   0  0  0  0  0  0  0  0  0  0  0  0
    8.7497  -16.2466   21.5721 C   0  0  2  0  0  0  0  0  0  0  0  0
    8.8839  -16.7953   22.9145 N   0  0  0  0  0  0  0  0  0  0  0  0
    9.9761  -16.4681   20.7790 C   0  0  0  0  0  0  0  0  0  0  0  0
   10.1383  -15.8983   19.6872 O   0  0  0  0  0  0  0  0  0  0  0  0
    8.9254  -13.2156   19.7993 C   0  0  0  0  0  0  0  0  0  0  0  0
    8.6177  -12.6973   18.5407 C   0  0  0  0  0  0  0  0  0  0  0  0
   10.9974  -17.3450   21.2602 N   0  0  0  0  0  0  0  0  0  0  0  0
   12.2405  -16.8198   21.8370 C   0  0  1  0  0  0  0  0  0  0  0  0
   12.2732  -15.3145   21.7089 C   0  0  0  0  0  0  0  0  0  0  0  0
   12.8941  -14.9463   20.4168 C   0  0  0  0  0  0  0  0  0  0  0  0
   13.0974  -15.8364   19.3576 C   0  0  0  0  0  0  0  0  0  0  0  0
   13.6748  -15.1722   18.3528 N   0  0  0  0  0  0  0  0  0  0  0  0
   13.8520  -13.8909   18.7205 C   0  0  0  0  0  0  0  0  0  0  0  0
   13.3721  -13.7797   19.9716 N   0  0  0  0  0  0  0  0  0  0  0  0
   12.3873  -17.2921   23.2294 C   0  0  0  0  0  0  0  0  0  0  0  0
   12.5065  -16.4479   24.1804 O   0  0  0  0  0  0  0  0  0  0  0  0
   12.4076  -18.6179   23.6116 O   0  0  0  0  0  0  0  0  0  0  0  0
  2  1  1  1
  3  4  1  0
  3  2  1  0
  4  5  2  0
  6  5  1  0
  7  6  1  0
  8  7  2  0
  9  8  1  0
 10 11  1  0
 10  9  2  0
 11 12  2  0
 12  4  1  0
 12  7  1  0
 13  2  1  0
 13 14  2  0
 15 16  1  0
 16 17  2  0
 17 18  1  0
 19 20  1  0
 19 18  2  0
 21 20  1  1
 21 23  1  0
 21 22  1  0
 22 13  1  0
 23 27  1  0
 24 23  2  0
 25 19  1  0
 26 25  2  0
 26 16  1  0
 27 28  1  0
 28 35  1  0
 28 29  1  1
 30 34  1  0
 30 29  1  0
 31 30  2  0
 32 31  1  0
 32 33  1  0
 33 34  2  0
 35 36  2  0
 35 37  1  0
M  END
$$$$
