WYH.pdb
     RDKit          3D

 37 40  0  0  1  0  0  0  0  0999 V2000
    6.5936  -18.1687   26.0898 N   0  0  0  0  0  0  0  0  0  0  0  0
    7.2127  -16.9184   25.7541 C   0  0  1  0  0  0  0  0  0  0  0  0
    8.4853  -16.6596   26.4881 C   0  0  0  0  0  0  0  0  0  0  0  0
    8.4204  -15.4102   27.2564 C   0  0  0  0  0  0  0  0  0  0  0  0
    8.9650  -15.2217   28.5041 C   0  0  0  0  0  0  0  0  0  0  0  0
    8.7362  -13.9593   28.8903 N   0  0  0  0  0  0  0  0  0  0  0  0
    8.0519  -13.3310   27.9105 C   0  0  0  0  0  0  0  0  0  0  0  0
    7.5737  -12.0449   27.8144 C   0  0  0  0  0  0  0  0  0  0  0  0
    6.8839  -11.6170   26.7039 C   0  0  0  0  0  0  0  0  0  0  0  0
    6.6772  -12.5027   25.6808 C   0  0  0  0  0  0  0  0  0  0  0  0
    7.1443  -13.7953   25.7497 C   0  0  0  0  0  0  0  0  0  0  0  0
    7.8426  -14.2278   26.8726 C   0  0  0  0  0  0  0  0  0  0  0  0
    7.3734  -16.7958   24.2785 C   0  0  0  0  0  0  0  0  0  0  0  0
    7.3978  -17.8274   23.5525 O   0  0  0  0  0  0  0  0  0  0  0  0
    8.2088  -13.5819   16.1450 O   0  0  0  0  0  0  0  0  0  0  0  0
    8.0262  -13.6800   17.5353 C   0  0  0  0  0  0  0  0  0  0  0  0
    7.1249  -14.6023   18.0244 C   0  0  0  0  0  0  0  0  0  0  0  0
    6.9392  -14.7054   19.3965 C   0  0  0  0  0  0  0  0  0  0  0  0
    7.6368  -13.9053   20.2761 C   0  0  0  0  0  0  0  0  0  0  0  0
    7.3812  -14.0615   21.7167 C   0  0  0  0  0  0  0  0  0  0  0  0
    7.8518  -15.4015   22.2607 C   0  0  2  0  0  0  0  0  0  0  0  0
    7.5008  -15.5214   23.6691 N   0  0  0  0  0  0  0  0  0  0  0  0
    9.2947  -15.6352   22.0476 C   0  0  0  0  0  0  0  0  0  0  0  0
   10.1363  -15.1758   22.8373 O   0  0  0  0  0  0  0  0  0  0  0  0
    8.5385  -12.9813   19.7969 C   0  0  0  0  0  0  0  0  0  0  0  0
    8.7146  -12.8894   18.4157 C   0  0  0  0  0  0  0  0  0  0  0  0
    9.7435  -16.3971   20.9243 N   0  0  0  0  0  0  0  0  0  0  0  0
   11.1703  -16.6642   20.7082 C   0  0  1  0  0  0  0  0  0  0  0  0
   11.4054  -18.1526   20.5958 C   0  0  0  0  0  0  0  0  0  0  0  0
   11.3847  -18.7551   21.9476 C   0  0  0  0  0  0  0  0  0  0  0  0
   12.0256  -18.2091   23.0641 C   0  0  0  0  0  0  0  0  0  0  0  0
   11.7993  -19.0056   24.1122 N   0  0  0  0  0  0  0  0  0  0  0  0
   11.0390  -20.0421   23.7175 C   0  0  0  0  0  0  0  0  0  0  0  0
   10.8019  -19.8679   22.4056 N   0  0  0  0  0  0  0  0  0  0  0  0
   11.6515  -15.9053   19.5350 C   0  0  0  0  0  0  0  0  0  0  0  0
   12.8858  -15.9483   19.2097 O   0  0  0  0  0  0  0  0  0  0  0  0
   10.8549  -15.1219   18.7251 O   0  0  0  0  0  0  0  0  0  0  0  0
  2  1  1  6
  3  4  1  0
  3  2  1  0
  4  5  2  0
  6  5  1  0
  7  6  1  0
  8  7  2  0
  9  8  1  0
 10 11  1  0
 10  9  2  0
 11 12  2  0
 12  4  1  0
 12  7  1  0
 13  2  1  0
 13 14  2  0
 15 16  1  0
 16 17  2  0
 17 18  1  0
 19 20  1  0
 19 18  2  0
 21 20  1  1
 21 23  1  0
 21 22  1  0
 22 13  1  0
 23 27  1  0
 24 23  2  0
 25 19  1  0
 26 25  2  0
 26 16  1  0
 27 28  1  0
 28 35  1  0
 28 29  1  6
 30 34  1  0
 30 29  1  0
 31 30  2  0
 32 31  1  0
 32 33  1  0
 33 34  2  0
 35 36  2  0
 35 37  1  0
M  END
$$$$
