WYH.pdb
     RDKit          3D

 37 40  0  0  1  0  0  0  0  0999 V2000
    6.5709  -17.6911   23.5100 N   0  0  0  0  0  0  0  0  0  0  0  0
    7.4299  -16.5444   23.5910 C   0  0  1  0  0  0  0  0  0  0  0  0
    7.9095  -16.2468   24.9718 C   0  0  0  0  0  0  0  0  0  0  0  0
    7.0871  -15.2167   25.6183 C   0  0  0  0  0  0  0  0  0  0  0  0
    5.7992  -15.3989   26.0625 C   0  0  0  0  0  0  0  0  0  0  0  0
    5.3675  -14.2588   26.6182 N   0  0  0  0  0  0  0  0  0  0  0  0
    6.3575  -13.3440   26.5387 C   0  0  0  0  0  0  0  0  0  0  0  0
    6.4214  -12.0332   26.9508 C   0  0  0  0  0  0  0  0  0  0  0  0
    7.5517  -11.2741   26.7556 C   0  0  0  0  0  0  0  0  0  0  0  0
    8.6279  -11.8505   26.1363 C   0  0  0  0  0  0  0  0  0  0  0  0
    8.5921  -13.1596   25.7137 C   0  0  0  0  0  0  0  0  0  0  0  0
    7.4492  -13.9276   25.9118 C   0  0  0  0  0  0  0  0  0  0  0  0
    8.5484  -16.6607   22.6143 C   0  0  0  0  0  0  0  0  0  0  0  0
    8.8182  -17.7736   22.0845 O   0  0  0  0  0  0  0  0  0  0  0  0
    5.8038  -13.5893   17.1274 O   0  0  0  0  0  0  0  0  0  0  0  0
    6.9221  -13.7339   17.9665 C   0  0  0  0  0  0  0  0  0  0  0  0
    7.8613  -14.6972   17.6630 C   0  0  0  0  0  0  0  0  0  0  0  0
    8.9689  -14.8460   18.4869 C   0  0  0  0  0  0  0  0  0  0  0  0
    9.1464  -14.0513   19.5994 C   0  0  0  0  0  0  0  0  0  0  0  0
   10.3382  -14.2722   20.4335 C   0  0  0  0  0  0  0  0  0  0  0  0
   10.2989  -15.5933   21.1860 C   0  0  2  0  0  0  0  0  0  0  0  0
    9.3242  -15.5257   22.2661 N   0  0  0  0  0  0  0  0  0  0  0  0
   11.6244  -16.0104   21.6873 C   0  0  0  0  0  0  0  0  0  0  0  0
   12.6080  -16.0463   20.9295 O   0  0  0  0  0  0  0  0  0  0  0  0
    8.2136  -13.0872   19.9105 C   0  0  0  0  0  0  0  0  0  0  0  0
    7.1060  -12.9492   19.0731 C   0  0  0  0  0  0  0  0  0  0  0  0
   11.7933  -16.3796   23.0580 N   0  0  0  0  0  0  0  0  0  0  0  0
   13.0902  -16.8412   23.5666 C   0  0  1  0  0  0  0  0  0  0  0  0
   14.1692  -15.8462   23.2073 C   0  0  0  0  0  0  0  0  0  0  0  0
   14.4502  -15.9312   21.7565 C   0  0  0  0  0  0  0  0  0  0  0  0
   14.2882  -14.8715   20.8586 C   0  0  0  0  0  0  0  0  0  0  0  0
   14.6330  -15.2946   19.6396 N   0  0  0  0  0  0  0  0  0  0  0  0
   15.0106  -16.5832   19.7146 C   0  0  0  0  0  0  0  0  0  0  0  0
   14.8913  -16.9446   21.0041 N   0  0  0  0  0  0  0  0  0  0  0  0
   12.9961  -17.1042   25.0177 C   0  0  0  0  0  0  0  0  0  0  0  0
   14.0458  -17.4020   25.6815 O   0  0  0  0  0  0  0  0  0  0  0  0
   11.8284  -17.0548   25.7513 O   0  0  0  0  0  0  0  0  0  0  0  0
  2  1  1  1
  3  4  1  0
  3  2  1  0
  4  5  2  0
  6  5  1  0
  7  6  1  0
  8  7  2  0
  9  8  1  0
 10 11  1  0
 10  9  2  0
 11 12  2  0
 12  4  1  0
 12  7  1  0
 13  2  1  0
 13 14  2  0
 15 16  1  0
 16 17  2  0
 17 18  1  0
 19 20  1  0
 19 18  2  0
 21 20  1  1
 21 23  1  0
 21 22  1  0
 22 13  1  0
 23 27  1  0
 24 23  2  0
 25 19  1  0
 26 25  2  0
 26 16  1  0
 27 28  1  0
 28 35  1  0
 28 29  1  1
 30 34  1  0
 30 29  1  0
 31 30  2  0
 32 31  1  0
 32 33  1  0
 33 34  2  0
 35 36  2  0
 35 37  1  0
M  END
$$$$
