WYH.pdb
     RDKit          3D

 37 40  0  0  1  0  0  0  0  0999 V2000
    6.1630  -17.8613   25.2625 N   0  0  0  0  0  0  0  0  0  0  0  0
    6.8546  -16.6337   24.9902 C   0  0  1  0  0  0  0  0  0  0  0  0
    8.0044  -16.3741   25.9043 C   0  0  0  0  0  0  0  0  0  0  0  0
    7.6205  -15.4995   27.0193 C   0  0  0  0  0  0  0  0  0  0  0  0
    7.1173  -15.9307   28.2235 C   0  0  0  0  0  0  0  0  0  0  0  0
    6.9015  -14.8665   29.0084 N   0  0  0  0  0  0  0  0  0  0  0  0
    7.2576  -13.7557   28.3284 C   0  0  0  0  0  0  0  0  0  0  0  0
    7.2267  -12.4255   28.6772 C   0  0  0  0  0  0  0  0  0  0  0  0
    7.6391  -11.4453   27.8047 C   0  0  0  0  0  0  0  0  0  0  0  0
    8.0872  -11.8183   26.5662 C   0  0  0  0  0  0  0  0  0  0  0  0
    8.1291  -13.1415   26.1903 C   0  0  0  0  0  0  0  0  0  0  0  0
    7.7128  -14.1329   27.0731 C   0  0  0  0  0  0  0  0  0  0  0  0
    7.2434  -16.5618   23.5542 C   0  0  0  0  0  0  0  0  0  0  0  0
    7.5058  -17.6156   22.9118 O   0  0  0  0  0  0  0  0  0  0  0  0
    9.4926  -13.2511   15.6737 O   0  0  0  0  0  0  0  0  0  0  0  0
    9.0139  -13.3969   16.9872 C   0  0  0  0  0  0  0  0  0  0  0  0
    9.8532  -13.0931   18.0386 C   0  0  0  0  0  0  0  0  0  0  0  0
    9.3875  -13.2343   19.3390 C   0  0  0  0  0  0  0  0  0  0  0  0
    8.1059  -13.6714   19.5977 C   0  0  0  0  0  0  0  0  0  0  0  0
    7.6835  -13.8082   21.0005 C   0  0  0  0  0  0  0  0  0  0  0  0
    7.8570  -15.2206   21.5371 C   0  0  2  0  0  0  0  0  0  0  0  0
    7.3241  -15.3115   22.8895 N   0  0  0  0  0  0  0  0  0  0  0  0
    9.2564  -15.6903   21.4812 C   0  0  0  0  0  0  0  0  0  0  0  0
   10.0363  -15.4773   22.4242 O   0  0  0  0  0  0  0  0  0  0  0  0
    7.2609  -13.9775   18.5542 C   0  0  0  0  0  0  0  0  0  0  0  0
    7.7429  -13.8304   17.2529 C   0  0  0  0  0  0  0  0  0  0  0  0
    9.7334  -16.3999   20.3355 N   0  0  0  0  0  0  0  0  0  0  0  0
   11.0984  -16.9371   20.2882 C   0  0  1  0  0  0  0  0  0  0  0  0
   11.0806  -18.3431   19.7348 C   0  0  0  0  0  0  0  0  0  0  0  0
   12.4715  -18.8129   19.5466 C   0  0  0  0  0  0  0  0  0  0  0  0
   13.5812  -17.9688   19.4388 C   0  0  0  0  0  0  0  0  0  0  0  0
   14.6718  -18.7233   19.2800 N   0  0  0  0  0  0  0  0  0  0  0  0
   14.3111  -20.0188   19.2812 C   0  0  0  0  0  0  0  0  0  0  0  0
   12.9767  -20.0466   19.4438 N   0  0  0  0  0  0  0  0  0  0  0  0
   11.9733  -16.0200   19.5286 C   0  0  0  0  0  0  0  0  0  0  0  0
   11.4824  -15.2917   18.6013 O   0  0  0  0  0  0  0  0  0  0  0  0
   13.3291  -15.8725   19.7393 O   0  0  0  0  0  0  0  0  0  0  0  0
  2  1  1  1
  3  4  1  0
  3  2  1  0
  4  5  2  0
  6  5  1  0
  7  6  1  0
  8  7  2  0
  9  8  1  0
 10 11  1  0
 10  9  2  0
 11 12  2  0
 12  4  1  0
 12  7  1  0
 13  2  1  0
 13 14  2  0
 15 16  1  0
 16 17  2  0
 17 18  1  0
 19 20  1  0
 19 18  2  0
 21 20  1  1
 21 23  1  0
 21 22  1  0
 22 13  1  0
 23 27  1  0
 24 23  2  0
 25 19  1  0
 26 25  2  0
 26 16  1  0
 27 28  1  0
 28 35  1  0
 28 29  1  6
 30 34  1  0
 30 29  1  0
 31 30  2  0
 32 31  1  0
 32 33  1  0
 33 34  2  0
 35 36  2  0
 35 37  1  0
M  END
$$$$
