WYH.pdb
     RDKit          3D

 37 40  0  0  1  0  0  0  0  0999 V2000
    7.0305  -18.5022   26.2881 N   0  0  0  0  0  0  0  0  0  0  0  0
    7.8178  -17.3774   25.8706 C   0  0  1  0  0  0  0  0  0  0  0  0
    9.2541  -17.4680   26.2628 C   0  0  0  0  0  0  0  0  0  0  0  0
    9.5475  -16.6318   27.4334 C   0  0  0  0  0  0  0  0  0  0  0  0
   10.0228  -17.0967   28.6363 C   0  0  0  0  0  0  0  0  0  0  0  0
   10.1968  -16.0575   29.4639 N   0  0  0  0  0  0  0  0  0  0  0  0
    9.8404  -14.9295   28.8129 C   0  0  0  0  0  0  0  0  0  0  0  0
    9.8262  -13.6134   29.2124 C   0  0  0  0  0  0  0  0  0  0  0  0
    9.4085  -12.6116   28.3675 C   0  0  0  0  0  0  0  0  0  0  0  0
    9.0011  -12.9483   27.1048 C   0  0  0  0  0  0  0  0  0  0  0  0
    9.0048  -14.2566   26.6781 C   0  0  0  0  0  0  0  0  0  0  0  0
    9.4281  -15.2698   27.5325 C   0  0  0  0  0  0  0  0  0  0  0  0
    7.6421  -17.1304   24.4123 C   0  0  0  0  0  0  0  0  0  0  0  0
    7.0235  -17.9641   23.6951 O   0  0  0  0  0  0  0  0  0  0  0  0
    7.1231  -12.5446   16.8552 O   0  0  0  0  0  0  0  0  0  0  0  0
    7.1939  -12.9762   18.1911 C   0  0  0  0  0  0  0  0  0  0  0  0
    8.1101  -12.3829   19.0341 C   0  0  0  0  0  0  0  0  0  0  0  0
    8.1859  -12.8036   20.3551 C   0  0  0  0  0  0  0  0  0  0  0  0
    7.3650  -13.8004   20.8379 C   0  0  0  0  0  0  0  0  0  0  0  0
    7.5080  -14.2033   22.2458 C   0  0  0  0  0  0  0  0  0  0  0  0
    7.9063  -15.6622   22.4076 C   0  0  2  0  0  0  0  0  0  0  0  0
    8.1656  -15.9580   23.8099 N   0  0  0  0  0  0  0  0  0  0  0  0
    9.0542  -16.0435   21.5597 C   0  0  0  0  0  0  0  0  0  0  0  0
    8.9573  -16.0430   20.3213 O   0  0  0  0  0  0  0  0  0  0  0  0
    6.4474  -14.3988   20.0034 C   0  0  0  0  0  0  0  0  0  0  0  0
    6.3827  -13.9653   18.6786 C   0  0  0  0  0  0  0  0  0  0  0  0
   10.2977  -16.4197   22.1562 N   0  0  0  0  0  0  0  0  0  0  0  0
   11.5470  -16.3991   21.3865 C   0  0  1  0  0  0  0  0  0  0  0  0
   11.6575  -15.1034   20.6168 C   0  0  0  0  0  0  0  0  0  0  0  0
   12.8675  -15.1414   19.7651 C   0  0  0  0  0  0  0  0  0  0  0  0
   13.3439  -16.2885   19.1228 C   0  0  0  0  0  0  0  0  0  0  0  0
   14.4460  -15.9640   18.4416 N   0  0  0  0  0  0  0  0  0  0  0  0
   14.6996  -14.6552   18.6181 C   0  0  0  0  0  0  0  0  0  0  0  0
   13.7316  -14.1807   19.4216 N   0  0  0  0  0  0  0  0  0  0  0  0
   12.6944  -16.6464   22.2842 C   0  0  0  0  0  0  0  0  0  0  0  0
   13.8792  -16.6875   21.8089 O   0  0  0  0  0  0  0  0  0  0  0  0
   12.5981  -16.8449   23.6464 O   0  0  0  0  0  0  0  0  0  0  0  0
  2  1  1  6
  3  4  1  0
  3  2  1  0
  4  5  2  0
  6  5  1  0
  7  6  1  0
  8  7  2  0
  9  8  1  0
 10 11  1  0
 10  9  2  0
 11 12  2  0
 12  4  1  0
 12  7  1  0
 13  2  1  0
 13 14  2  0
 15 16  1  0
 16 17  2  0
 17 18  1  0
 19 20  1  0
 19 18  2  0
 21 20  1  1
 21 23  1  0
 21 22  1  0
 22 13  1  0
 23 27  1  0
 24 23  2  0
 25 19  1  0
 26 25  2  0
 26 16  1  0
 27 28  1  0
 28 35  1  0
 28 29  1  1
 30 34  1  0
 30 29  1  0
 31 30  2  0
 32 31  1  0
 32 33  1  0
 33 34  2  0
 35 36  2  0
 35 37  1  0
M  END
$$$$
