WYH.pdb
     RDKit          3D

 37 40  0  0  1  0  0  0  0  0999 V2000
    6.7345  -18.5875   26.3624 N   0  0  0  0  0  0  0  0  0  0  0  0
    7.3017  -17.3045   26.0598 C   0  0  1  0  0  0  0  0  0  0  0  0
    8.5511  -17.0038   26.8172 C   0  0  0  0  0  0  0  0  0  0  0  0
    8.4592  -15.7188   27.5214 C   0  0  0  0  0  0  0  0  0  0  0  0
    8.9309  -15.4784   28.7898 C   0  0  0  0  0  0  0  0  0  0  0  0
    8.6983  -14.1965   29.1024 N   0  0  0  0  0  0  0  0  0  0  0  0
    8.0834  -13.6068   28.0549 C   0  0  0  0  0  0  0  0  0  0  0  0
    7.6313  -12.3209   27.8705 C   0  0  0  0  0  0  0  0  0  0  0  0
    7.0158  -11.9375   26.7016 C   0  0  0  0  0  0  0  0  0  0  0  0
    6.8574  -12.8679   25.7101 C   0  0  0  0  0  0  0  0  0  0  0  0
    7.3000  -14.1614   25.8670 C   0  0  0  0  0  0  0  0  0  0  0  0
    7.9233  -14.5489   27.0489 C   0  0  0  0  0  0  0  0  0  0  0  0
    7.4772  -17.1456   24.5893 C   0  0  0  0  0  0  0  0  0  0  0  0
    7.8573  -18.1205   23.8842 O   0  0  0  0  0  0  0  0  0  0  0  0
    9.2154  -12.7737   17.0800 O   0  0  0  0  0  0  0  0  0  0  0  0
    8.6828  -13.1769   18.3167 C   0  0  0  0  0  0  0  0  0  0  0  0
    9.0466  -12.4872   19.4543 C   0  0  0  0  0  0  0  0  0  0  0  0
    8.5245  -12.8793   20.6796 C   0  0  0  0  0  0  0  0  0  0  0  0
    7.6520  -13.9420   20.7797 C   0  0  0  0  0  0  0  0  0  0  0  0
    7.1468  -14.3088   22.1121 C   0  0  0  0  0  0  0  0  0  0  0  0
    7.7043  -15.6317   22.6143 C   0  0  2  0  0  0  0  0  0  0  0  0
    7.2202  -15.9001   23.9614 N   0  0  0  0  0  0  0  0  0  0  0  0
    9.1789  -15.6956   22.5536 C   0  0  0  0  0  0  0  0  0  0  0  0
    9.8748  -14.7857   23.0340 O   0  0  0  0  0  0  0  0  0  0  0  0
    7.2834  -14.6368   19.6493 C   0  0  0  0  0  0  0  0  0  0  0  0
    7.8160  -14.2310   18.4250 C   0  0  0  0  0  0  0  0  0  0  0  0
    9.8274  -16.8112   21.9384 N   0  0  0  0  0  0  0  0  0  0  0  0
   11.0366  -16.6341   21.1257 C   0  0  1  0  0  0  0  0  0  0  0  0
   11.0508  -15.2516   20.5162 C   0  0  0  0  0  0  0  0  0  0  0  0
   12.2400  -15.1121   19.6461 C   0  0  0  0  0  0  0  0  0  0  0  0
   13.1414  -16.1452   19.3712 C   0  0  0  0  0  0  0  0  0  0  0  0
   14.0874  -15.6739   18.5545 N   0  0  0  0  0  0  0  0  0  0  0  0
   13.8330  -14.3799   18.2915 C   0  0  0  0  0  0  0  0  0  0  0  0
   12.7116  -14.0641   18.9627 N   0  0  0  0  0  0  0  0  0  0  0  0
   12.2355  -16.9281   21.9382 C   0  0  0  0  0  0  0  0  0  0  0  0
   12.8001  -18.0704   21.8522 O   0  0  0  0  0  0  0  0  0  0  0  0
   12.8252  -16.0432   22.8177 O   0  0  0  0  0  0  0  0  0  0  0  0
  2  1  1  6
  3  4  1  0
  3  2  1  0
  4  5  2  0
  6  5  1  0
  7  6  1  0
  8  7  2  0
  9  8  1  0
 10 11  1  0
 10  9  2  0
 11 12  2  0
 12  4  1  0
 12  7  1  0
 13  2  1  0
 13 14  2  0
 15 16  1  0
 16 17  2  0
 17 18  1  0
 19 20  1  0
 19 18  2  0
 21 20  1  1
 21 23  1  0
 21 22  1  0
 22 13  1  0
 23 27  1  0
 24 23  2  0
 25 19  1  0
 26 25  2  0
 26 16  1  0
 27 28  1  0
 28 35  1  0
 28 29  1  1
 30 34  1  0
 30 29  1  0
 31 30  2  0
 32 31  1  0
 32 33  1  0
 33 34  2  0
 35 36  2  0
 35 37  1  0
M  END
$$$$
