VEP.pdb
     RDKit          3D

 24 24  0  0  1  0  0  0  0  0999 V2000
   12.5792   -8.9719  -12.9113 C   0  0  0  0  0  0  0  0  0  0  0  0
   14.0582   -8.8321  -12.8041 C   0  0  2  0  0  0  0  0  0  0  0  0
   14.5115   -7.4689  -13.2540 C   0  0  0  0  0  0  0  0  0  0  0  0
   14.8305   -9.9410  -13.4718 C   0  0  2  0  0  0  0  0  0  0  0  0
   14.5083  -11.1689  -12.7341 N   0  0  0  0  0  0  0  0  0  0  0  0
   16.2766   -9.7191  -13.4997 C   0  0  0  0  0  0  0  0  0  0  0  0
   16.9592   -9.9614  -12.4786 O   0  0  0  0  0  0  0  0  0  0  0  0
   16.9386   -9.2346  -14.6539 N   0  0  0  0  0  0  0  0  0  0  0  0
   18.4115   -9.1013  -14.6860 C   0  0  1  0  0  0  0  0  0  0  0  0
   18.8314   -9.6554  -16.0343 C   0  0  0  0  0  0  0  0  0  0  0  0
   20.3180   -9.5776  -16.1485 C   0  0  0  0  0  0  0  0  0  0  0  0
   20.7810  -10.0417  -17.5102 C   0  0  0  0  0  0  0  0  0  0  0  0
   19.9412  -10.1390  -18.4377 O   0  0  0  0  0  0  0  0  0  0  0  0
   18.7968   -7.6779  -14.5709 C   0  0  0  0  0  0  0  0  0  0  0  0
   17.9931   -6.8732  -15.1954 O   0  0  0  0  0  0  0  0  0  0  0  0
   22.0916  -10.3637  -17.7770 O   0  0  0  0  0  0  0  0  0  0  0  0
   19.9013   -7.1616  -13.8743 N   0  0  0  0  0  0  0  0  0  0  0  0
   20.8900   -8.0397  -13.2244 C   0  0  0  0  0  0  0  0  0  0  0  0
   22.0840   -7.1285  -12.9877 C   0  0  0  0  0  0  0  0  0  0  0  0
   21.4146   -5.8059  -12.6319 C   0  0  0  0  0  0  0  0  0  0  0  0
   20.2774   -5.7919  -13.6637 C   0  0  1  0  0  0  0  0  0  0  0  0
   20.7953   -5.1656  -14.9143 C   0  0  0  0  0  0  0  0  0  0  0  0
   21.1026   -5.9519  -15.9939 O   0  0  0  0  0  0  0  0  0  0  0  0
   20.9377   -3.9356  -14.9501 O   0  0  0  0  0  0  0  0  0  0  0  0
  2  1  1  6
  2  3  1  0
  4  2  1  0
  4  6  1  0
  4  5  1  1
  6  7  2  0
  8  6  1  0
  8  9  1  0
  9 10  1  6
 10 11  1  0
 12 16  1  0
 12 11  1  0
 13 12  2  0
 14  9  1  0
 14 15  2  0
 17 21  1  0
 17 14  1  0
 18 17  1  0
 19 20  1  0
 19 18  1  0
 20 21  1  0
 21 22  1  6
 22 24  2  0
 22 23  1  0
M  END
$$$$
