VEP.pdb
     RDKit          3D

 24 24  0  0  1  0  0  0  0  0999 V2000
   23.3342  -31.7261    5.2385 C   0  0  0  0  0  0  0  0  0  0  0  0
   23.8376  -31.8781    3.8449 C   0  0  2  0  0  0  0  0  0  0  0  0
   23.5777  -33.2645    3.3190 C   0  0  0  0  0  0  0  0  0  0  0  0
   25.2727  -31.4558    3.6602 C   0  0  2  0  0  0  0  0  0  0  0  0
   25.3261  -30.0255    3.9876 N   0  0  0  0  0  0  0  0  0  0  0  0
   25.7901  -31.6973    2.3129 C   0  0  0  0  0  0  0  0  0  0  0  0
   25.3651  -31.0121    1.3553 O   0  0  0  0  0  0  0  0  0  0  0  0
   26.7655  -32.6899    2.0513 N   0  0  0  0  0  0  0  0  0  0  0  0
   27.2615  -32.9250    0.6775 C   0  0  1  0  0  0  0  0  0  0  0  0
   28.4581  -33.8434    0.8388 C   0  0  0  0  0  0  0  0  0  0  0  0
   28.9915  -34.1861   -0.5129 C   0  0  0  0  0  0  0  0  0  0  0  0
   30.2103  -35.0732   -0.4045 C   0  0  0  0  0  0  0  0  0  0  0  0
   30.9522  -34.9673    0.6021 O   0  0  0  0  0  0  0  0  0  0  0  0
   26.2149  -33.5801   -0.1367 C   0  0  0  0  0  0  0  0  0  0  0  0
   25.6067  -34.5445    0.4827 O   0  0  0  0  0  0  0  0  0  0  0  0
   30.5421  -35.9970   -1.3684 O   0  0  0  0  0  0  0  0  0  0  0  0
   25.8489  -33.2538   -1.4526 N   0  0  0  0  0  0  0  0  0  0  0  0
   26.5342  -32.1911   -2.2090 C   0  0  0  0  0  0  0  0  0  0  0  0
   26.1423  -32.4634   -3.6527 C   0  0  0  0  0  0  0  0  0  0  0  0
   24.6979  -32.9300   -3.5121 C   0  0  0  0  0  0  0  0  0  0  0  0
   24.8237  -33.8316   -2.2755 C   0  0  1  0  0  0  0  0  0  0  0  0
   25.1957  -35.2003   -2.7368 C   0  0  0  0  0  0  0  0  0  0  0  0
   24.2425  -36.0165   -3.2878 O   0  0  0  0  0  0  0  0  0  0  0  0
   26.3702  -35.5731   -2.6104 O   0  0  0  0  0  0  0  0  0  0  0  0
  2  1  1  1
  2  3  1  0
  4  2  1  0
  4  6  1  0
  4  5  1  6
  6  7  2  0
  8  6  1  0
  8  9  1  0
  9 10  1  1
 10 11  1  0
 12 16  1  0
 12 11  1  0
 13 12  2  0
 14  9  1  0
 14 15  2  0
 17 21  1  0
 17 14  1  0
 18 17  1  0
 19 20  1  0
 19 18  1  0
 20 21  1  0
 21 22  1  6
 22 24  2  0
 22 23  1  0
M  END
$$$$
