VEP.pdb
     RDKit          3D

 24 24  0  0  1  0  0  0  0  0999 V2000
   17.4399  -10.6574  -18.0193 C   0  0  0  0  0  0  0  0  0  0  0  0
   18.8447  -11.0507  -17.7180 C   0  0  2  0  0  0  0  0  0  0  0  0
   19.1522  -12.4255  -18.2484 C   0  0  0  0  0  0  0  0  0  0  0  0
   19.2284  -10.8977  -16.2684 C   0  0  2  0  0  0  0  0  0  0  0  0
   18.4062  -11.8579  -15.5215 N   0  0  0  0  0  0  0  0  0  0  0  0
   19.0414   -9.5428  -15.7483 C   0  0  0  0  0  0  0  0  0  0  0  0
   17.9379   -9.2165  -15.2553 O   0  0  0  0  0  0  0  0  0  0  0  0
   20.0762   -8.5769  -15.7835 N   0  0  0  0  0  0  0  0  0  0  0  0
   19.8490   -7.2008  -15.2902 C   0  0  1  0  0  0  0  0  0  0  0  0
   21.1190   -6.8298  -14.5482 C   0  0  0  0  0  0  0  0  0  0  0  0
   20.9333   -5.4942  -13.9073 C   0  0  0  0  0  0  0  0  0  0  0  0
   22.1593   -5.0980  -13.1175 C   0  0  0  0  0  0  0  0  0  0  0  0
   22.8490   -4.1263  -13.5114 O   0  0  0  0  0  0  0  0  0  0  0  0
   19.6294   -6.2817  -16.4280 C   0  0  0  0  0  0  0  0  0  0  0  0
   20.5414   -6.3700  -17.3468 O   0  0  0  0  0  0  0  0  0  0  0  0
   22.5531   -5.7616  -11.9786 O   0  0  0  0  0  0  0  0  0  0  0  0
   18.5680   -5.3752  -16.5814 N   0  0  0  0  0  0  0  0  0  0  0  0
   17.4846   -5.2719  -15.5881 C   0  0  0  0  0  0  0  0  0  0  0  0
   16.8294   -3.9366  -15.9037 C   0  0  0  0  0  0  0  0  0  0  0  0
   16.9082   -3.8906  -17.4254 C   0  0  0  0  0  0  0  0  0  0  0  0
   18.3281   -4.4347  -17.6396 C   0  0  1  0  0  0  0  0  0  0  0  0
   19.2776   -3.2860  -17.5798 C   0  0  0  0  0  0  0  0  0  0  0  0
   19.3232   -2.3848  -18.6113 O   0  0  0  0  0  0  0  0  0  0  0  0
   20.0117   -3.1707  -16.5887 O   0  0  0  0  0  0  0  0  0  0  0  0
  2  1  1  1
  2  3  1  0
  4  2  1  0
  4  6  1  0
  4  5  1  1
  6  7  2  0
  8  6  1  0
  8  9  1  0
  9 10  1  6
 10 11  1  0
 12 16  1  0
 12 11  1  0
 13 12  2  0
 14  9  1  0
 14 15  2  0
 17 21  1  0
 17 14  1  0
 18 17  1  0
 19 20  1  0
 19 18  1  0
 20 21  1  0
 21 22  1  1
 22 24  2  0
 22 23  1  0
M  END
$$$$
