VEP.pdb
     RDKit          3D

 24 24  0  0  1  0  0  0  0  0999 V2000
   18.9768  -12.9292  -17.7449 C   0  0  0  0  0  0  0  0  0  0  0  0
   18.5053  -13.1311  -16.3464 C   0  0  2  0  0  0  0  0  0  0  0  0
   17.3732  -14.1215  -16.2898 C   0  0  0  0  0  0  0  0  0  0  0  0
   18.1841  -11.8526  -15.6154 C   0  0  2  0  0  0  0  0  0  0  0  0
   16.9083  -11.3750  -16.1629 N   0  0  0  0  0  0  0  0  0  0  0  0
   19.2180  -10.8248  -15.7421 C   0  0  0  0  0  0  0  0  0  0  0  0
   20.3605  -11.0362  -15.2760 O   0  0  0  0  0  0  0  0  0  0  0  0
   18.9689   -9.5856  -16.3804 N   0  0  0  0  0  0  0  0  0  0  0  0
   20.0122   -8.5386  -16.4416 C   0  0  1  0  0  0  0  0  0  0  0  0
   19.9878   -8.0364  -17.8728 C   0  0  0  0  0  0  0  0  0  0  0  0
   20.8318   -8.9342  -18.7158 C   0  0  0  0  0  0  0  0  0  0  0  0
   20.8898   -8.4394  -20.1427 C   0  0  0  0  0  0  0  0  0  0  0  0
   21.5130   -9.1161  -20.9964 O   0  0  0  0  0  0  0  0  0  0  0  0
   19.6880   -7.4411  -15.5045 C   0  0  0  0  0  0  0  0  0  0  0  0
   18.4159   -7.2058  -15.4050 O   0  0  0  0  0  0  0  0  0  0  0  0
   20.2846   -7.2720  -20.5470 O   0  0  0  0  0  0  0  0  0  0  0  0
   20.6004   -6.6806  -14.7554 N   0  0  0  0  0  0  0  0  0  0  0  0
   22.0528   -6.9182  -14.8264 C   0  0  0  0  0  0  0  0  0  0  0  0
   22.6563   -5.6533  -14.2368 C   0  0  0  0  0  0  0  0  0  0  0  0
   21.6701   -5.3135  -13.1251 C   0  0  0  0  0  0  0  0  0  0  0  0
   20.3435   -5.6025  -13.8424 C   0  0  1  0  0  0  0  0  0  0  0  0
   19.9255   -4.3631  -14.5591 C   0  0  0  0  0  0  0  0  0  0  0  0
   19.3413   -3.3372  -13.8630 O   0  0  0  0  0  0  0  0  0  0  0  0
   20.1176   -4.2875  -15.7805 O   0  0  0  0  0  0  0  0  0  0  0  0
  2  1  1  6
  2  3  1  0
  4  2  1  0
  4  6  1  0
  4  5  1  6
  6  7  2  0
  8  6  1  0
  8  9  1  0
  9 10  1  6
 10 11  1  0
 12 16  1  0
 12 11  1  0
 13 12  2  0
 14  9  1  0
 14 15  2  0
 17 21  1  0
 17 14  1  0
 18 17  1  0
 19 20  1  0
 19 18  1  0
 20 21  1  0
 21 22  1  6
 22 24  2  0
 22 23  1  0
M  END
$$$$
