VEP.pdb
     RDKit          3D

 24 24  0  0  1  0  0  0  0  0999 V2000
   14.1333   -8.6838   -8.0191 C   0  0  0  0  0  0  0  0  0  0  0  0
   13.9808   -7.2911   -8.5248 C   0  0  2  0  0  0  0  0  0  0  0  0
   13.1286   -7.2510   -9.7650 C   0  0  0  0  0  0  0  0  0  0  0  0
   15.2844   -6.5554   -8.7023 C   0  0  2  0  0  0  0  0  0  0  0  0
   14.9342   -5.1507   -8.9467 N   0  0  0  0  0  0  0  0  0  0  0  0
   16.1136   -7.0780   -9.7890 C   0  0  0  0  0  0  0  0  0  0  0  0
   16.7058   -8.1714   -9.6440 O   0  0  0  0  0  0  0  0  0  0  0  0
   16.2714   -6.3827  -11.0124 N   0  0  0  0  0  0  0  0  0  0  0  0
   17.1174   -6.9311  -12.0949 C   0  0  1  0  0  0  0  0  0  0  0  0
   16.3055   -6.7512  -13.3636 C   0  0  0  0  0  0  0  0  0  0  0  0
   17.1145   -7.2209  -14.5273 C   0  0  0  0  0  0  0  0  0  0  0  0
   16.3635   -7.0219  -15.8237 C   0  0  0  0  0  0  0  0  0  0  0  0
   16.0482   -8.0278  -16.5046 O   0  0  0  0  0  0  0  0  0  0  0  0
   18.3856   -6.1751  -12.1829 C   0  0  0  0  0  0  0  0  0  0  0  0
   18.2274   -4.8898  -12.1021 O   0  0  0  0  0  0  0  0  0  0  0  0
   16.0093   -5.7775  -16.2910 O   0  0  0  0  0  0  0  0  0  0  0  0
   19.6739   -6.7127  -12.3354 N   0  0  0  0  0  0  0  0  0  0  0  0
   19.8938   -8.1525  -12.5581 C   0  0  0  0  0  0  0  0  0  0  0  0
   21.3183   -8.2245  -13.0847 C   0  0  0  0  0  0  0  0  0  0  0  0
   22.0164   -7.1373  -12.2755 C   0  0  0  0  0  0  0  0  0  0  0  0
   20.9425   -6.0403  -12.3129 C   0  0  1  0  0  0  0  0  0  0  0  0
   21.1551   -5.2265  -13.5446 C   0  0  0  0  0  0  0  0  0  0  0  0
   20.3792   -5.4503  -14.6519 O   0  0  0  0  0  0  0  0  0  0  0  0
   22.0376   -4.3572  -13.5395 O   0  0  0  0  0  0  0  0  0  0  0  0
  2  1  1  6
  2  3  1  0
  4  2  1  0
  4  6  1  0
  4  5  1  6
  6  7  2  0
  8  6  1  0
  8  9  1  0
  9 10  1  6
 10 11  1  0
 12 16  1  0
 12 11  1  0
 13 12  2  0
 14  9  1  0
 14 15  2  0
 17 21  1  0
 17 14  1  0
 18 17  1  0
 19 20  1  0
 19 18  1  0
 20 21  1  0
 21 22  1  6
 22 24  2  0
 22 23  1  0
M  END
$$$$
