VEP.pdb
     RDKit          3D

 24 24  0  0  1  0  0  0  0  0999 V2000
   11.1162  -20.9723    0.9995 C   0  0  0  0  0  0  0  0  0  0  0  0
   10.3636  -20.0008    1.8412 C   0  0  2  0  0  0  0  0  0  0  0  0
    8.9007  -19.9901    1.4865 C   0  0  0  0  0  0  0  0  0  0  0  0
   10.9576  -18.6156    1.8613 C   0  0  2  0  0  0  0  0  0  0  0  0
   10.7102  -18.0424    0.5324 N   0  0  0  0  0  0  0  0  0  0  0  0
   12.3862  -18.5907    2.1771 C   0  0  0  0  0  0  0  0  0  0  0  0
   13.2255  -18.6436    1.2498 O   0  0  0  0  0  0  0  0  0  0  0  0
   12.8580  -18.5080    3.5097 N   0  0  0  0  0  0  0  0  0  0  0  0
   14.3074  -18.4586    3.8013 C   0  0  1  0  0  0  0  0  0  0  0  0
   14.4162  -17.8048    5.1658 C   0  0  0  0  0  0  0  0  0  0  0  0
   14.8240  -16.3795    4.9892 C   0  0  0  0  0  0  0  0  0  0  0  0
   14.9411  -15.6809    6.3242 C   0  0  0  0  0  0  0  0  0  0  0  0
   15.7302  -16.1412    7.1846 O   0  0  0  0  0  0  0  0  0  0  0  0
   14.8662  -19.8275    3.8395 C   0  0  0  0  0  0  0  0  0  0  0  0
   14.0577  -20.7012    4.3557 O   0  0  0  0  0  0  0  0  0  0  0  0
   14.2147  -14.5553    6.6374 O   0  0  0  0  0  0  0  0  0  0  0  0
   16.1316  -20.2301    3.3828 N   0  0  0  0  0  0  0  0  0  0  0  0
   17.0628  -19.2857    2.7409 C   0  0  0  0  0  0  0  0  0  0  0  0
   18.4045  -19.9978    2.8073 C   0  0  0  0  0  0  0  0  0  0  0  0
   18.0095  -21.4518    2.5753 C   0  0  0  0  0  0  0  0  0  0  0  0
   16.7415  -21.5289    3.4380 C   0  0  1  0  0  0  0  0  0  0  0  0
   17.1485  -21.8864    4.8276 C   0  0  0  0  0  0  0  0  0  0  0  0
   17.4278  -23.1908    5.1420 O   0  0  0  0  0  0  0  0  0  0  0  0
   17.2260  -20.9870    5.6759 O   0  0  0  0  0  0  0  0  0  0  0  0
  2  1  1  6
  2  3  1  0
  4  2  1  0
  4  6  1  0
  4  5  1  6
  6  7  2  0
  8  6  1  0
  8  9  1  0
  9 10  1  1
 10 11  1  0
 12 16  1  0
 12 11  1  0
 13 12  2  0
 14  9  1  0
 14 15  2  0
 17 21  1  0
 17 14  1  0
 18 17  1  0
 19 20  1  0
 19 18  1  0
 20 21  1  0
 21 22  1  1
 22 24  2  0
 22 23  1  0
M  END
$$$$
