VEP.pdb
     RDKit          3D

 24 24  0  0  1  0  0  0  0  0999 V2000
   16.2226  -12.6872  -14.4676 C   0  0  0  0  0  0  0  0  0  0  0  0
   15.8826  -12.8401  -15.9097 C   0  0  2  0  0  0  0  0  0  0  0  0
   14.7008  -13.7533  -16.0979 C   0  0  0  0  0  0  0  0  0  0  0  0
   17.0509  -13.2298  -16.7787 C   0  0  2  0  0  0  0  0  0  0  0  0
   17.4298  -14.5892  -16.3735 N   0  0  0  0  0  0  0  0  0  0  0  0
   18.1935  -12.3217  -16.6732 C   0  0  0  0  0  0  0  0  0  0  0  0
   19.0938  -12.5552  -15.8352 O   0  0  0  0  0  0  0  0  0  0  0  0
   18.3181  -11.1751  -17.4949 N   0  0  0  0  0  0  0  0  0  0  0  0
   19.4838  -10.2729  -17.3695 C   0  0  1  0  0  0  0  0  0  0  0  0
   19.6230   -9.6123  -18.7279 C   0  0  0  0  0  0  0  0  0  0  0  0
   20.3262  -10.5498  -19.6529 C   0  0  0  0  0  0  0  0  0  0  0  0
   21.8223  -10.4929  -19.4463 C   0  0  0  0  0  0  0  0  0  0  0  0
   22.5024  -11.5304  -19.6354 O   0  0  0  0  0  0  0  0  0  0  0  0
   19.2309   -9.2563  -16.3253 C   0  0  0  0  0  0  0  0  0  0  0  0
   17.9964   -8.8599  -16.2785 O   0  0  0  0  0  0  0  0  0  0  0  0
   22.4732   -9.3450  -19.0574 O   0  0  0  0  0  0  0  0  0  0  0  0
   20.1715   -8.7211  -15.4304 N   0  0  0  0  0  0  0  0  0  0  0  0
   21.5968   -9.0899  -15.4885 C   0  0  0  0  0  0  0  0  0  0  0  0
   22.2859   -8.0026  -14.6792 C   0  0  0  0  0  0  0  0  0  0  0  0
   21.2807   -7.7463  -13.5621 C   0  0  0  0  0  0  0  0  0  0  0  0
   19.9710   -7.7818  -14.3629 C   0  0  1  0  0  0  0  0  0  0  0  0
   19.7085   -6.4082  -14.8815 C   0  0  0  0  0  0  0  0  0  0  0  0
   19.1976   -5.4500  -14.0454 O   0  0  0  0  0  0  0  0  0  0  0  0
   19.9606   -6.1613  -16.0689 O   0  0  0  0  0  0  0  0  0  0  0  0
  2  1  1  1
  2  3  1  0
  4  2  1  0
  4  6  1  0
  4  5  1  1
  6  7  2  0
  8  6  1  0
  8  9  1  0
  9 10  1  6
 10 11  1  0
 12 16  1  0
 12 11  1  0
 13 12  2  0
 14  9  1  0
 14 15  2  0
 17 21  1  0
 17 14  1  0
 18 17  1  0
 19 20  1  0
 19 18  1  0
 20 21  1  0
 21 22  1  6
 22 24  2  0
 22 23  1  0
M  END
$$$$
