SCP.pdb
     RDKit          3D

 20 20  0  0  1  0  0  0  0  0999 V2000
   26.0718  -12.3219  -16.0368 O   0  0  0  0  0  0  0  0  0  0  0  0
   25.3578  -11.1916  -16.4101 C   0  0  0  0  0  0  0  0  0  0  0  0
   23.9147  -11.6045  -16.6257 C   0  0  2  0  0  0  0  0  0  0  0  0
   23.8230  -12.4961  -17.7864 N   0  0  0  0  0  0  0  0  0  0  0  0
   23.0836  -10.3932  -16.8728 C   0  0  0  0  0  0  0  0  0  0  0  0
   22.9887   -9.9454  -18.0530 O   0  0  0  0  0  0  0  0  0  0  0  0
   22.3749   -9.6876  -15.8708 N   0  0  0  0  0  0  0  0  0  0  0  0
   21.5344   -8.5413  -16.1523 C   0  0  1  0  0  0  0  0  0  0  0  0
   20.1295   -8.9374  -15.7540 C   0  0  0  0  0  0  0  0  0  0  0  0
   20.1712   -9.6042  -14.0861 S   0  0  0  0  0  0  0  0  0  0  0  0
   22.0402   -7.3646  -15.4395 C   0  0  0  0  0  0  0  0  0  0  0  0
   22.8137   -7.5111  -14.4421 O   0  0  0  0  0  0  0  0  0  0  0  0
   21.7150   -6.0364  -15.7986 N   0  0  0  0  0  0  0  0  0  0  0  0
   20.7488   -5.5897  -16.8124 C   0  0  0  0  0  0  0  0  0  0  0  0
   21.2378   -4.2658  -17.3100 C   0  0  0  0  0  0  0  0  0  0  0  0
   22.5220   -4.0329  -16.5438 C   0  0  0  0  0  0  0  0  0  0  0  0
   22.2468   -4.7962  -15.2649 C   0  0  1  0  0  0  0  0  0  0  0  0
   21.2280   -4.0707  -14.4585 C   0  0  0  0  0  0  0  0  0  0  0  0
   21.5224   -3.0478  -13.5853 O   0  0  0  0  0  0  0  0  0  0  0  0
   20.0298   -4.4135  -14.5836 O   0  0  0  0  0  0  0  0  0  0  0  0
  1  2  1  0
  2  3  1  0
  3  4  1  6
  5  3  1  0
  6  5  2  0
  7  5  1  0
  8 11  1  0
  8  7  1  0
  9 10  1  0
  8  9  1  1
 11 12  2  0
 13 11  1  0
 13 14  1  0
 15 14  1  0
 16 17  1  0
 16 15  1  0
 17 18  1  1
 17 13  1  0
 18 19  1  0
 20 18  2  0
M  END
$$$$
