SCP.pdb
     RDKit          3D

 20 20  0  0  1  0  0  0  0  0999 V2000
   21.0975  -21.0794  -15.4201 O   0  0  0  0  0  0  0  0  0  0  0  0
   21.2499  -22.0700  -14.4598 C   0  0  0  0  0  0  0  0  0  0  0  0
   21.3464  -21.3931  -13.1062 C   0  0  2  0  0  0  0  0  0  0  0  0
   20.2496  -20.4316  -12.9543 N   0  0  0  0  0  0  0  0  0  0  0  0
   22.6461  -20.6726  -13.0031 C   0  0  0  0  0  0  0  0  0  0  0  0
   22.6797  -19.4311  -13.2481 O   0  0  0  0  0  0  0  0  0  0  0  0
   23.8740  -21.2789  -12.6441 N   0  0  0  0  0  0  0  0  0  0  0  0
   25.1578  -20.6274  -12.8085 C   0  0  1  0  0  0  0  0  0  0  0  0
   26.1833  -21.5466  -12.1818 C   0  0  0  0  0  0  0  0  0  0  0  0
   27.8245  -20.9552  -12.6117 S   0  0  0  0  0  0  0  0  0  0  0  0
   25.4003  -20.3534  -14.2278 C   0  0  0  0  0  0  0  0  0  0  0  0
   24.8379  -21.0665  -15.1166 O   0  0  0  0  0  0  0  0  0  0  0  0
   26.2440  -19.3166  -14.6885 N   0  0  0  0  0  0  0  0  0  0  0  0
   27.1922  -18.5131  -13.9037 C   0  0  0  0  0  0  0  0  0  0  0  0
   27.2961  -17.1881  -14.5914 C   0  0  0  0  0  0  0  0  0  0  0  0
   26.3425  -17.3016  -15.7610 C   0  0  0  0  0  0  0  0  0  0  0  0
   26.3836  -18.7909  -16.0337 C   0  0  1  0  0  0  0  0  0  0  0  0
   27.6996  -19.1550  -16.6255 C   0  0  0  0  0  0  0  0  0  0  0  0
   28.6029  -20.0065  -16.0299 O   0  0  0  0  0  0  0  0  0  0  0  0
   28.0019  -18.6550  -17.7334 O   0  0  0  0  0  0  0  0  0  0  0  0
  1  2  1  0
  2  3  1  0
  3  4  1  6
  5  3  1  0
  6  5  2  0
  7  5  1  0
  8 11  1  0
  8  7  1  0
  9 10  1  0
  8  9  1  6
 11 12  2  0
 13 11  1  0
 13 14  1  0
 15 14  1  0
 16 17  1  0
 16 15  1  0
 17 18  1  1
 17 13  1  0
 18 19  1  0
 20 18  2  0
M  END
$$$$
