SCP.pdb
     RDKit          3D

 20 20  0  0  1  0  0  0  0  0999 V2000
   18.7019  -10.7510  -17.5563 O   0  0  0  0  0  0  0  0  0  0  0  0
   18.6859   -9.4963  -16.9628 C   0  0  0  0  0  0  0  0  0  0  0  0
   19.2014   -9.6473  -15.5446 C   0  0  2  0  0  0  0  0  0  0  0  0
   18.2536  -10.4404  -14.7552 N   0  0  0  0  0  0  0  0  0  0  0  0
   19.3483   -8.3011  -14.9241 C   0  0  0  0  0  0  0  0  0  0  0  0
   18.3065   -7.6444  -14.6309 O   0  0  0  0  0  0  0  0  0  0  0  0
   20.5877   -7.6840  -14.6286 N   0  0  0  0  0  0  0  0  0  0  0  0
   20.6975   -6.3427  -14.0916 C   0  0  1  0  0  0  0  0  0  0  0  0
   21.8427   -6.3740  -13.1032 C   0  0  0  0  0  0  0  0  0  0  0  0
   22.2489   -4.6860  -12.6404 S   0  0  0  0  0  0  0  0  0  0  0  0
   20.8859   -5.3823  -15.1827 C   0  0  0  0  0  0  0  0  0  0  0  0
   21.6191   -5.6854  -16.1752 O   0  0  0  0  0  0  0  0  0  0  0  0
   20.2876   -4.1014  -15.2056 N   0  0  0  0  0  0  0  0  0  0  0  0
   19.4917   -3.4616  -14.1482 C   0  0  0  0  0  0  0  0  0  0  0  0
   18.5465   -2.5270  -14.8357 C   0  0  0  0  0  0  0  0  0  0  0  0
   18.8464   -2.7126  -16.3075 C   0  0  0  0  0  0  0  0  0  0  0  0
   20.3074   -3.1097  -16.2646 C   0  0  1  0  0  0  0  0  0  0  0  0
   21.1354   -1.9313  -15.8901 C   0  0  0  0  0  0  0  0  0  0  0  0
   21.4827   -0.9251  -16.7633 O   0  0  0  0  0  0  0  0  0  0  0  0
   21.5401   -1.8522  -14.7074 O   0  0  0  0  0  0  0  0  0  0  0  0
  1  2  1  0
  2  3  1  0
  3  4  1  1
  5  3  1  0
  6  5  2  0
  7  5  1  0
  8 11  1  0
  8  7  1  0
  9 10  1  0
  8  9  1  1
 11 12  2  0
 13 11  1  0
 13 14  1  0
 15 14  1  0
 16 17  1  0
 16 15  1  0
 17 18  1  1
 17 13  1  0
 18 19  1  0
 20 18  2  0
M  END
$$$$
