SCP.pdb
     RDKit          3D

 20 20  0  0  1  0  0  0  0  0999 V2000
   36.9942  -22.9521   10.0990 O   0  0  0  0  0  0  0  0  0  0  0  0
   35.8311  -22.4253   10.6435 C   0  0  0  0  0  0  0  0  0  0  0  0
   35.5456  -21.1102    9.9445 C   0  0  2  0  0  0  0  0  0  0  0  0
   36.2674  -20.0253   10.6171 N   0  0  0  0  0  0  0  0  0  0  0  0
   34.0836  -20.8292    9.9939 C   0  0  0  0  0  0  0  0  0  0  0  0
   33.5511  -20.5468   11.1072 O   0  0  0  0  0  0  0  0  0  0  0  0
   33.2230  -20.8523    8.8701 N   0  0  0  0  0  0  0  0  0  0  0  0
   31.7866  -20.6887    8.9680 C   0  0  1  0  0  0  0  0  0  0  0  0
   31.2926  -20.4277    7.5618 C   0  0  0  0  0  0  0  0  0  0  0  0
   29.4960  -20.4153    7.5766 S   0  0  0  0  0  0  0  0  0  0  0  0
   31.1908  -21.8734    9.5923 C   0  0  0  0  0  0  0  0  0  0  0  0
   31.7370  -23.0110    9.4440 O   0  0  0  0  0  0  0  0  0  0  0  0
   30.0126  -21.8339   10.3728 N   0  0  0  0  0  0  0  0  0  0  0  0
   29.1862  -20.6617   10.6951 C   0  0  0  0  0  0  0  0  0  0  0  0
   28.5420  -20.9471   12.0154 C   0  0  0  0  0  0  0  0  0  0  0  0
   29.0790  -22.3077   12.4036 C   0  0  0  0  0  0  0  0  0  0  0  0
   29.3321  -22.9256   11.0441 C   0  0  1  0  0  0  0  0  0  0  0  0
   28.0340  -23.2416   10.3886 C   0  0  0  0  0  0  0  0  0  0  0  0
   27.2187  -24.2875   10.7587 O   0  0  0  0  0  0  0  0  0  0  0  0
   27.6624  -22.5099    9.4424 O   0  0  0  0  0  0  0  0  0  0  0  0
  1  2  1  0
  2  3  1  0
  3  4  1  1
  5  3  1  0
  6  5  2  0
  7  5  1  0
  8 11  1  0
  8  7  1  0
  9 10  1  0
  8  9  1  6
 11 12  2  0
 13 11  1  0
 13 14  1  0
 15 14  1  0
 16 17  1  0
 16 15  1  0
 17 18  1  6
 17 13  1  0
 18 19  1  0
 20 18  2  0
M  END
$$$$
