SCP.pdb
     RDKit          3D

 20 20  0  0  1  0  0  0  0  0999 V2000
   17.4380  -12.9615  -14.7677 O   0  0  0  0  0  0  0  0  0  0  0  0
   17.4822  -11.5748  -14.7265 C   0  0  0  0  0  0  0  0  0  0  0  0
   16.4411  -11.1068  -13.7282 C   0  0  2  0  0  0  0  0  0  0  0  0
   15.1105  -11.1507  -14.3433 N   0  0  0  0  0  0  0  0  0  0  0  0
   16.7431   -9.7077  -13.3153 C   0  0  0  0  0  0  0  0  0  0  0  0
   16.6196   -8.7778  -14.1654 O   0  0  0  0  0  0  0  0  0  0  0  0
   17.1658   -9.3264  -12.0192 N   0  0  0  0  0  0  0  0  0  0  0  0
   17.5592   -7.9739  -11.6794 C   0  0  1  0  0  0  0  0  0  0  0  0
   17.4753   -7.8738  -10.1720 C   0  0  0  0  0  0  0  0  0  0  0  0
   18.2750   -6.3513   -9.6516 S   0  0  0  0  0  0  0  0  0  0  0  0
   18.8939   -7.6928  -12.2160 C   0  0  0  0  0  0  0  0  0  0  0  0
   19.7849   -8.5987  -12.2071 O   0  0  0  0  0  0  0  0  0  0  0  0
   19.2679   -6.4424  -12.7598 N   0  0  0  0  0  0  0  0  0  0  0  0
   18.4537   -5.2220  -12.8519 C   0  0  0  0  0  0  0  0  0  0  0  0
   18.9534   -4.4677  -14.0439 C   0  0  0  0  0  0  0  0  0  0  0  0
   20.0495   -5.3468  -14.6062 C   0  0  0  0  0  0  0  0  0  0  0  0
   20.5322   -6.0545  -13.3571 C   0  0  1  0  0  0  0  0  0  0  0  0
   21.2701   -5.0948  -12.4917 C   0  0  0  0  0  0  0  0  0  0  0  0
   22.6086   -4.8041  -12.6308 O   0  0  0  0  0  0  0  0  0  0  0  0
   20.6322   -4.5172  -11.5816 O   0  0  0  0  0  0  0  0  0  0  0  0
  1  2  1  0
  2  3  1  0
  3  4  1  6
  5  3  1  0
  6  5  2  0
  7  5  1  0
  8 11  1  0
  8  7  1  0
  9 10  1  0
  8  9  1  1
 11 12  2  0
 13 11  1  0
 13 14  1  0
 15 14  1  0
 16 17  1  0
 16 15  1  0
 17 18  1  1
 17 13  1  0
 18 19  1  0
 20 18  2  0
M  END
$$$$
