NWE.pdb
     RDKit          3D

 32 33  0  0  1  0  0  0  0  0999 V2000
   28.8936  -22.9289  -18.6002 N   0  0  0  0  0  0  0  0  0  0  0  0
   29.2067  -23.4306  -17.3095 C   0  0  0  0  0  0  0  0  0  0  0  0
   30.3980  -23.8539  -17.1393 O   0  0  0  0  0  0  0  0  0  0  0  0
   28.2099  -23.4663  -16.2078 C   0  0  0  0  0  0  0  0  0  0  0  0
   27.2779  -22.2779  -16.2586 C   0  0  2  0  0  0  0  0  0  0  0  0
   28.0349  -21.0578  -16.2929 N   0  0  0  0  0  0  0  0  0  0  0  0
   26.3609  -22.2482  -15.0862 C   0  0  0  0  0  0  0  0  0  0  0  0
   25.9230  -23.3191  -14.5800 O   0  0  0  0  0  0  0  0  0  0  0  0
   25.9860  -21.0004  -14.5452 N   0  0  0  0  0  0  0  0  0  0  0  0
   25.0496  -20.7401  -13.4953 C   0  0  1  0  0  0  0  0  0  0  0  0
   25.5360  -19.6878  -12.5181 C   0  0  0  0  0  0  0  0  0  0  0  0
   26.7077  -20.2195  -11.7865 C   0  0  0  0  0  0  0  0  0  0  0  0
   27.9281  -20.6521  -12.2355 C   0  0  0  0  0  0  0  0  0  0  0  0
   28.6795  -21.0592  -11.1711 N   0  0  0  0  0  0  0  0  0  0  0  0
   27.9964  -20.9089  -10.0344 C   0  0  0  0  0  0  0  0  0  0  0  0
   28.3304  -21.1741   -8.7112 C   0  0  0  0  0  0  0  0  0  0  0  0
   27.3919  -20.9007   -7.7431 C   0  0  0  0  0  0  0  0  0  0  0  0
   26.1777  -20.3868   -8.0785 C   0  0  0  0  0  0  0  0  0  0  0  0
   25.8603  -20.1282   -9.4032 C   0  0  0  0  0  0  0  0  0  0  0  0
   26.7581  -20.3844  -10.3899 C   0  0  0  0  0  0  0  0  0  0  0  0
   23.6611  -20.5552  -13.9321 C   0  0  0  0  0  0  0  0  0  0  0  0
   23.4517  -19.5883  -14.7369 O   0  0  0  0  0  0  0  0  0  0  0  0
   22.6076  -21.3759  -13.5072 N   0  0  0  0  0  0  0  0  0  0  0  0
   21.2300  -21.1324  -13.9647 C   0  0  1  0  0  0  0  0  0  0  0  0
   20.4397  -22.3974  -13.9128 C   0  0  0  0  0  0  0  0  0  0  0  0
   20.2148  -22.8632  -12.5087 C   0  0  0  0  0  0  0  0  0  0  0  0
   19.2472  -24.0015  -12.5414 C   0  0  0  0  0  0  0  0  0  0  0  0
   19.6652  -25.1706  -12.4850 O   0  0  0  0  0  0  0  0  0  0  0  0
   20.6471  -20.1138  -13.0808 C   0  0  0  0  0  0  0  0  0  0  0  0
   21.1571  -19.8177  -11.9869 O   0  0  0  0  0  0  0  0  0  0  0  0
   17.9049  -23.7309  -12.6337 O   0  0  0  0  0  0  0  0  0  0  0  0
   19.4926  -19.4493  -13.4577 O   0  0  0  0  0  0  0  0  0  0  0  0
  1  2  1  0
  2  3  2  0
  4  2  1  0
  5  6  1  1
  5  4  1  0
  7  5  1  0
  8  7  2  0
  9  7  1  0
 10  9  1  0
 11 12  1  0
 10 11  1  6
 12 20  1  0
 12 13  2  0
 13 14  1  0
 15 14  1  0
 15 16  2  0
 17 16  1  0
 18 17  2  0
 19 20  2  0
 19 18  1  0
 20 15  1  0
 21 22  2  0
 21 10  1  0
 23 21  1  0
 24 23  1  0
 24 25  1  1
 26 25  1  0
 27 26  1  0
 28 27  2  0
 29 24  1  0
 30 29  2  0
 31 27  1  0
 32 29  1  0
M  END
$$$$
