NWE.pdb
     RDKit          3D

 32 33  0  0  1  0  0  0  0  0999 V2000
   29.8257  -19.4072  -17.5421 N   0  0  0  0  0  0  0  0  0  0  0  0
   28.7070  -19.1250  -16.7147 C   0  0  0  0  0  0  0  0  0  0  0  0
   28.1859  -17.9675  -16.8412 O   0  0  0  0  0  0  0  0  0  0  0  0
   28.1628  -20.1154  -15.7496 C   0  0  0  0  0  0  0  0  0  0  0  0
   27.9757  -19.5131  -14.3763 C   0  0  2  0  0  0  0  0  0  0  0  0
   29.2168  -18.9662  -13.9037 N   0  0  0  0  0  0  0  0  0  0  0  0
   27.4843  -20.5207  -13.3967 C   0  0  0  0  0  0  0  0  0  0  0  0
   27.3823  -21.7381  -13.7168 O   0  0  0  0  0  0  0  0  0  0  0  0
   27.1324  -20.0946  -12.0987 N   0  0  0  0  0  0  0  0  0  0  0  0
   26.6346  -20.8858  -11.0157 C   0  0  1  0  0  0  0  0  0  0  0  0
   27.6651  -21.1105   -9.9264 C   0  0  0  0  0  0  0  0  0  0  0  0
   27.0063  -20.9701   -8.6084 C   0  0  0  0  0  0  0  0  0  0  0  0
   25.7175  -21.2211   -8.2157 C   0  0  0  0  0  0  0  0  0  0  0  0
   25.5881  -20.9302   -6.8883 N   0  0  0  0  0  0  0  0  0  0  0  0
   26.7483  -20.4964   -6.3915 C   0  0  0  0  0  0  0  0  0  0  0  0
   27.1141  -20.0890   -5.1136 C   0  0  0  0  0  0  0  0  0  0  0  0
   28.4165  -19.6943   -4.9118 C   0  0  0  0  0  0  0  0  0  0  0  0
   29.3121  -19.7057   -5.9359 C   0  0  0  0  0  0  0  0  0  0  0  0
   28.9310  -20.1148   -7.2046 C   0  0  0  0  0  0  0  0  0  0  0  0
   27.6546  -20.5115   -7.4467 C   0  0  0  0  0  0  0  0  0  0  0  0
   25.3115  -20.4944  -10.5164 C   0  0  0  0  0  0  0  0  0  0  0  0
   24.9335  -21.0543   -9.4347 O   0  0  0  0  0  0  0  0  0  0  0  0
   24.4903  -19.5642  -11.1677 N   0  0  0  0  0  0  0  0  0  0  0  0
   23.3503  -20.0074  -11.9864 C   0  0  1  0  0  0  0  0  0  0  0  0
   23.8029  -21.0022  -13.0028 C   0  0  0  0  0  0  0  0  0  0  0  0
   23.4873  -22.4069  -12.5948 C   0  0  0  0  0  0  0  0  0  0  0  0
   23.1516  -23.1880  -13.8237 C   0  0  0  0  0  0  0  0  0  0  0  0
   23.8142  -24.1985  -14.1146 O   0  0  0  0  0  0  0  0  0  0  0  0
   22.3606  -20.6008  -11.0770 C   0  0  0  0  0  0  0  0  0  0  0  0
   22.6680  -21.0199   -9.9482 O   0  0  0  0  0  0  0  0  0  0  0  0
   22.1094  -22.7706  -14.6131 O   0  0  0  0  0  0  0  0  0  0  0  0
   21.0371  -20.7071  -11.4687 O   0  0  0  0  0  0  0  0  0  0  0  0
  1  2  1  0
  2  3  2  0
  4  2  1  0
  5  6  1  1
  5  4  1  0
  7  5  1  0
  8  7  2  0
  9  7  1  0
 10  9  1  0
 11 12  1  0
 10 11  1  1
 12 20  1  0
 12 13  2  0
 13 14  1  0
 15 14  1  0
 15 16  2  0
 17 16  1  0
 18 17  2  0
 19 20  2  0
 19 18  1  0
 20 15  1  0
 21 22  2  0
 21 10  1  0
 23 21  1  0
 24 23  1  0
 24 25  1  6
 26 25  1  0
 27 26  1  0
 28 27  2  0
 29 24  1  0
 30 29  2  0
 31 27  1  0
 32 29  1  0
M  END
$$$$
