NWE.pdb
     RDKit          3D

 32 33  0  0  1  0  0  0  0  0999 V2000
   30.5378  -23.2270  -17.3850 N   0  0  0  0  0  0  0  0  0  0  0  0
   29.1712  -22.8482  -17.4517 C   0  0  0  0  0  0  0  0  0  0  0  0
   28.7818  -22.3206  -18.5460 O   0  0  0  0  0  0  0  0  0  0  0  0
   28.2347  -23.0499  -16.3155 C   0  0  0  0  0  0  0  0  0  0  0  0
   27.4708  -21.7873  -15.9901 C   0  0  2  0  0  0  0  0  0  0  0  0
   28.3844  -20.7060  -15.7472 N   0  0  0  0  0  0  0  0  0  0  0  0
   26.5993  -21.9647  -14.7961 C   0  0  0  0  0  0  0  0  0  0  0  0
   26.1975  -23.1118  -14.4532 O   0  0  0  0  0  0  0  0  0  0  0  0
   26.2269  -20.8276  -14.0488 N   0  0  0  0  0  0  0  0  0  0  0  0
   25.3157  -20.7556  -12.9482 C   0  0  1  0  0  0  0  0  0  0  0  0
   25.7566  -19.7740  -11.8801 C   0  0  0  0  0  0  0  0  0  0  0  0
   26.9493  -20.3185  -11.1930 C   0  0  0  0  0  0  0  0  0  0  0  0
   28.0633  -20.9460  -11.6863 C   0  0  0  0  0  0  0  0  0  0  0  0
   28.8905  -21.2718  -10.6505 N   0  0  0  0  0  0  0  0  0  0  0  0
   28.3603  -20.8797   -9.4902 C   0  0  0  0  0  0  0  0  0  0  0  0
   28.8180  -20.9814   -8.1814 C   0  0  0  0  0  0  0  0  0  0  0  0
   28.0275  -20.4648   -7.1809 C   0  0  0  0  0  0  0  0  0  0  0  0
   26.8369  -19.8744   -7.4718 C   0  0  0  0  0  0  0  0  0  0  0  0
   26.3948  -19.7812   -8.7825 C   0  0  0  0  0  0  0  0  0  0  0  0
   27.1445  -20.2792   -9.8000 C   0  0  0  0  0  0  0  0  0  0  0  0
   23.9006  -20.6411  -13.3189 C   0  0  0  0  0  0  0  0  0  0  0  0
   23.5755  -19.5932  -13.9690 O   0  0  0  0  0  0  0  0  0  0  0  0
   22.9413  -21.6090  -12.9919 N   0  0  0  0  0  0  0  0  0  0  0  0
   21.5489  -21.4760  -13.4501 C   0  0  1  0  0  0  0  0  0  0  0  0
   20.8417  -22.7850  -13.3332 C   0  0  0  0  0  0  0  0  0  0  0  0
   19.7172  -22.7309  -12.3473 C   0  0  0  0  0  0  0  0  0  0  0  0
   18.6187  -23.6162  -12.8398 C   0  0  0  0  0  0  0  0  0  0  0  0
   17.9015  -23.2449  -13.7846 O   0  0  0  0  0  0  0  0  0  0  0  0
   20.9057  -20.4560  -12.6106 C   0  0  0  0  0  0  0  0  0  0  0  0
   19.9539  -19.7687  -13.0182 O   0  0  0  0  0  0  0  0  0  0  0  0
   18.4221  -24.8319  -12.2341 O   0  0  0  0  0  0  0  0  0  0  0  0
   21.3575  -20.2358  -11.3208 O   0  0  0  0  0  0  0  0  0  0  0  0
  1  2  1  0
  2  3  2  0
  4  2  1  0
  5  6  1  1
  5  4  1  0
  7  5  1  0
  8  7  2  0
  9  7  1  0
 10  9  1  0
 11 12  1  0
 10 11  1  1
 12 20  1  0
 12 13  2  0
 13 14  1  0
 15 14  1  0
 15 16  2  0
 17 16  1  0
 18 17  2  0
 19 20  2  0
 19 18  1  0
 20 15  1  0
 21 22  2  0
 21 10  1  0
 23 21  1  0
 24 23  1  0
 24 25  1  1
 26 25  1  0
 27 26  1  0
 28 27  2  0
 29 24  1  0
 30 29  2  0
 31 27  1  0
 32 29  1  0
M  END
$$$$
