NWE.pdb
     RDKit          3D

 32 33  0  0  1  0  0  0  0  0999 V2000
   29.4957  -20.0421  -17.0782 N   0  0  0  0  0  0  0  0  0  0  0  0
   28.1975  -19.4850  -16.9378 C   0  0  0  0  0  0  0  0  0  0  0  0
   27.9416  -18.4570  -17.6485 O   0  0  0  0  0  0  0  0  0  0  0  0
   27.1823  -20.0587  -16.0163 C   0  0  0  0  0  0  0  0  0  0  0  0
   27.7263  -21.2445  -15.2538 C   0  0  2  0  0  0  0  0  0  0  0  0
   27.7375  -22.4091  -16.0943 N   0  0  0  0  0  0  0  0  0  0  0  0
   26.9196  -21.5317  -14.0360 C   0  0  0  0  0  0  0  0  0  0  0  0
   25.7638  -22.0322  -14.1288 O   0  0  0  0  0  0  0  0  0  0  0  0
   27.4670  -21.2358  -12.7700 N   0  0  0  0  0  0  0  0  0  0  0  0
   26.7938  -21.1834  -11.5087 C   0  0  1  0  0  0  0  0  0  0  0  0
   27.7233  -20.8546  -10.3567 C   0  0  0  0  0  0  0  0  0  0  0  0
   26.9144  -20.6403   -9.1358 C   0  0  0  0  0  0  0  0  0  0  0  0
   25.5714  -20.7913   -8.9085 C   0  0  0  0  0  0  0  0  0  0  0  0
   25.2961  -20.4642   -7.6122 N   0  0  0  0  0  0  0  0  0  0  0  0
   26.4124  -20.1033   -6.9759 C   0  0  0  0  0  0  0  0  0  0  0  0
   26.6417  -19.6961   -5.6666 C   0  0  0  0  0  0  0  0  0  0  0  0
   27.9332  -19.3904   -5.3042 C   0  0  0  0  0  0  0  0  0  0  0  0
   28.9482  -19.4865   -6.2049 C   0  0  0  0  0  0  0  0  0  0  0  0
   28.7025  -19.8941   -7.5071 C   0  0  0  0  0  0  0  0  0  0  0  0
   27.4417  -20.2045   -7.9060 C   0  0  0  0  0  0  0  0  0  0  0  0
   25.5410  -20.4196  -11.5037 C   0  0  0  0  0  0  0  0  0  0  0  0
   25.6587  -19.1511  -11.5625 O   0  0  0  0  0  0  0  0  0  0  0  0
   24.2766  -21.0205  -11.4389 N   0  0  0  0  0  0  0  0  0  0  0  0
   23.0570  -20.2427  -11.7111 C   0  0  1  0  0  0  0  0  0  0  0  0
   22.6907  -20.3487  -13.1540 C   0  0  0  0  0  0  0  0  0  0  0  0
   22.9567  -19.0772  -13.8969 C   0  0  0  0  0  0  0  0  0  0  0  0
   22.6248  -19.2973  -15.3372 C   0  0  0  0  0  0  0  0  0  0  0  0
   21.8235  -20.1917  -15.6577 O   0  0  0  0  0  0  0  0  0  0  0  0
   21.9905  -20.7854  -10.8586 C   0  0  0  0  0  0  0  0  0  0  0  0
   20.8821  -20.2330  -10.7545 O   0  0  0  0  0  0  0  0  0  0  0  0
   23.2163  -18.5006  -16.2853 O   0  0  0  0  0  0  0  0  0  0  0  0
   22.2042  -21.9483  -10.1386 O   0  0  0  0  0  0  0  0  0  0  0  0
  1  2  1  0
  2  3  2  0
  4  2  1  0
  5  6  1  6
  5  4  1  0
  7  5  1  0
  8  7  2  0
  9  7  1  0
 10  9  1  0
 11 12  1  0
 10 11  1  1
 12 20  1  0
 12 13  2  0
 13 14  1  0
 15 14  1  0
 15 16  2  0
 17 16  1  0
 18 17  2  0
 19 20  2  0
 19 18  1  0
 20 15  1  0
 21 22  2  0
 21 10  1  0
 23 21  1  0
 24 23  1  0
 24 25  1  6
 26 25  1  0
 27 26  1  0
 28 27  2  0
 29 24  1  0
 30 29  2  0
 31 27  1  0
 32 29  1  0
M  END
$$$$
