NWE.pdb
     RDKit          3D

 32 33  0  0  1  0  0  0  0  0999 V2000
   27.6301  -22.7394  -21.2037 N   0  0  0  0  0  0  0  0  0  0  0  0
   27.6861  -21.9131  -20.0506 C   0  0  0  0  0  0  0  0  0  0  0  0
   28.2414  -20.7738  -20.1958 O   0  0  0  0  0  0  0  0  0  0  0  0
   27.1318  -22.3403  -18.7395 C   0  0  0  0  0  0  0  0  0  0  0  0
   27.9963  -21.8776  -17.5897 C   0  0  2  0  0  0  0  0  0  0  0  0
   29.1982  -22.6615  -17.5289 N   0  0  0  0  0  0  0  0  0  0  0  0
   27.2814  -21.9822  -16.2880 C   0  0  0  0  0  0  0  0  0  0  0  0
   26.6065  -23.0104  -16.0014 O   0  0  0  0  0  0  0  0  0  0  0  0
   27.3691  -20.9112  -15.3739 N   0  0  0  0  0  0  0  0  0  0  0  0
   26.6997  -20.7672  -14.1178 C   0  0  1  0  0  0  0  0  0  0  0  0
   27.3877  -19.7833  -13.1917 C   0  0  0  0  0  0  0  0  0  0  0  0
   26.8886  -19.9938  -11.8142 C   0  0  0  0  0  0  0  0  0  0  0  0
   25.6417  -19.8196  -11.2729 C   0  0  0  0  0  0  0  0  0  0  0  0
   25.6789  -20.1424   -9.9471 N   0  0  0  0  0  0  0  0  0  0  0  0
   26.9083  -20.5248   -9.5954 C   0  0  0  0  0  0  0  0  0  0  0  0
   27.4351  -20.9452   -8.3795 C   0  0  0  0  0  0  0  0  0  0  0  0
   28.7678  -21.2841   -8.3380 C   0  0  0  0  0  0  0  0  0  0  0  0
   29.5388  -21.2078   -9.4563 C   0  0  0  0  0  0  0  0  0  0  0  0
   28.9978  -20.7863  -10.6613 C   0  0  0  0  0  0  0  0  0  0  0  0
   27.6866  -20.4417  -10.7453 C   0  0  0  0  0  0  0  0  0  0  0  0
   25.2455  -20.5910  -14.2046 C   0  0  0  0  0  0  0  0  0  0  0  0
   24.8443  -19.5232  -14.7748 O   0  0  0  0  0  0  0  0  0  0  0  0
   24.3286  -21.5231  -13.7003 N   0  0  0  0  0  0  0  0  0  0  0  0
   22.8794  -21.3082  -13.8420 C   0  0  1  0  0  0  0  0  0  0  0  0
   22.2376  -22.5120  -14.4472 C   0  0  0  0  0  0  0  0  0  0  0  0
   22.9013  -22.9215  -15.7243 C   0  0  0  0  0  0  0  0  0  0  0  0
   22.4803  -21.9706  -16.7974 C   0  0  0  0  0  0  0  0  0  0  0  0
   21.4651  -21.2708  -16.6406 O   0  0  0  0  0  0  0  0  0  0  0  0
   22.3409  -21.0458  -12.5004 C   0  0  0  0  0  0  0  0  0  0  0  0
   21.1777  -20.6466  -12.3216 O   0  0  0  0  0  0  0  0  0  0  0  0
   23.2294  -21.8881  -17.9444 O   0  0  0  0  0  0  0  0  0  0  0  0
   23.1364  -21.2427  -11.3847 O   0  0  0  0  0  0  0  0  0  0  0  0
  1  2  1  0
  2  3  2  0
  4  2  1  0
  5  6  1  1
  5  4  1  0
  7  5  1  0
  8  7  2  0
  9  7  1  0
 10  9  1  0
 11 12  1  0
 10 11  1  6
 12 20  1  0
 12 13  2  0
 13 14  1  0
 15 14  1  0
 15 16  2  0
 17 16  1  0
 18 17  2  0
 19 20  2  0
 19 18  1  0
 20 15  1  0
 21 22  2  0
 21 10  1  0
 23 21  1  0
 24 23  1  0
 24 25  1  1
 26 25  1  0
 27 26  1  0
 28 27  2  0
 29 24  1  0
 30 29  2  0
 31 27  1  0
 32 29  1  0
M  END
$$$$
