NWE.pdb
     RDKit          3D

 32 33  0  0  1  0  0  0  0  0999 V2000
   28.4486  -25.9911  -17.1287 N   0  0  0  0  0  0  0  0  0  0  0  0
   28.5385  -24.5904  -16.9150 C   0  0  0  0  0  0  0  0  0  0  0  0
   29.2420  -23.9332  -17.7520 O   0  0  0  0  0  0  0  0  0  0  0  0
   27.8551  -23.9142  -15.7817 C   0  0  0  0  0  0  0  0  0  0  0  0
   26.6452  -23.1352  -16.2433 C   0  0  2  0  0  0  0  0  0  0  0  0
   27.0509  -21.8691  -16.7866 N   0  0  0  0  0  0  0  0  0  0  0  0
   25.6849  -22.9012  -15.1300 C   0  0  0  0  0  0  0  0  0  0  0  0
   25.2279  -23.8665  -14.4560 O   0  0  0  0  0  0  0  0  0  0  0  0
   25.2904  -21.5789  -14.8364 N   0  0  0  0  0  0  0  0  0  0  0  0
   24.4334  -21.1277  -13.7834 C   0  0  1  0  0  0  0  0  0  0  0  0
   24.9799  -19.9144  -13.0566 C   0  0  0  0  0  0  0  0  0  0  0  0
   25.6400  -20.3611  -11.8094 C   0  0  0  0  0  0  0  0  0  0  0  0
   25.1226  -20.6698  -10.5785 C   0  0  0  0  0  0  0  0  0  0  0  0
   26.1393  -21.0283   -9.7413 N   0  0  0  0  0  0  0  0  0  0  0  0
   27.3104  -20.9675  -10.3785 C   0  0  0  0  0  0  0  0  0  0  0  0
   28.6081  -21.2375   -9.9590 C   0  0  0  0  0  0  0  0  0  0  0  0
   29.6253  -21.0831  -10.8725 C   0  0  0  0  0  0  0  0  0  0  0  0
   29.3609  -20.6789  -12.1443 C   0  0  0  0  0  0  0  0  0  0  0  0
   28.0609  -20.4135  -12.5466 C   0  0  0  0  0  0  0  0  0  0  0  0
   27.0277  -20.5528  -11.6758 C   0  0  0  0  0  0  0  0  0  0  0  0
   23.0136  -21.0235  -14.1387 C   0  0  0  0  0  0  0  0  0  0  0  0
   22.7463  -20.3373  -15.1799 O   0  0  0  0  0  0  0  0  0  0  0  0
   21.9909  -21.6305  -13.3975 N   0  0  0  0  0  0  0  0  0  0  0  0
   20.5831  -21.4993  -13.8064 C   0  0  1  0  0  0  0  0  0  0  0  0
   19.7137  -22.3443  -12.9360 C   0  0  0  0  0  0  0  0  0  0  0  0
   18.2680  -22.2311  -13.3052 C   0  0  0  0  0  0  0  0  0  0  0  0
   17.6291  -23.5684  -13.1143 C   0  0  0  0  0  0  0  0  0  0  0  0
   18.2580  -24.6012  -13.4019 O   0  0  0  0  0  0  0  0  0  0  0  0
   20.2216  -20.0801  -13.6881 C   0  0  0  0  0  0  0  0  0  0  0  0
   20.6180  -19.3734  -12.7459 O   0  0  0  0  0  0  0  0  0  0  0  0
   16.3499  -23.6301  -12.6210 O   0  0  0  0  0  0  0  0  0  0  0  0
   19.4144  -19.4895  -14.6452 O   0  0  0  0  0  0  0  0  0  0  0  0
  1  2  1  0
  2  3  2  0
  4  2  1  0
  5  6  1  1
  5  4  1  0
  7  5  1  0
  8  7  2  0
  9  7  1  0
 10  9  1  0
 11 12  1  0
 10 11  1  6
 12 20  1  0
 12 13  2  0
 13 14  1  0
 15 14  1  0
 15 16  2  0
 17 16  1  0
 18 17  2  0
 19 20  2  0
 19 18  1  0
 20 15  1  0
 21 22  2  0
 21 10  1  0
 23 21  1  0
 24 23  1  0
 24 25  1  1
 26 25  1  0
 27 26  1  0
 28 27  2  0
 29 24  1  0
 30 29  2  0
 31 27  1  0
 32 29  1  0
M  END
$$$$
