NWE.pdb
     RDKit          3D

 32 33  0  0  1  0  0  0  0  0999 V2000
   27.6082  -20.6853  -18.8558 N   0  0  0  0  0  0  0  0  0  0  0  0
   27.3515  -20.1749  -17.5561 C   0  0  0  0  0  0  0  0  0  0  0  0
   27.8582  -19.0363  -17.2837 O   0  0  0  0  0  0  0  0  0  0  0  0
   26.5380  -20.9167  -16.5577 C   0  0  0  0  0  0  0  0  0  0  0  0
   27.3627  -21.3297  -15.3607 C   0  0  2  0  0  0  0  0  0  0  0  0
   28.2352  -22.4148  -15.7127 N   0  0  0  0  0  0  0  0  0  0  0  0
   26.5033  -21.7478  -14.2192 C   0  0  0  0  0  0  0  0  0  0  0  0
   26.0426  -22.9218  -14.1523 O   0  0  0  0  0  0  0  0  0  0  0  0
   26.2091  -20.8095  -13.2076 N   0  0  0  0  0  0  0  0  0  0  0  0
   25.1867  -20.8805  -12.2095 C   0  0  1  0  0  0  0  0  0  0  0  0
   25.5418  -20.1218  -10.9457 C   0  0  0  0  0  0  0  0  0  0  0  0
   26.8123  -20.6575  -10.4073 C   0  0  0  0  0  0  0  0  0  0  0  0
   27.8201  -21.3614  -11.0129 C   0  0  0  0  0  0  0  0  0  0  0  0
   28.7893  -21.6393  -10.0927 N   0  0  0  0  0  0  0  0  0  0  0  0
   28.4554  -21.1417   -8.9002 C   0  0  0  0  0  0  0  0  0  0  0  0
   29.1077  -21.1619   -7.6727 C   0  0  0  0  0  0  0  0  0  0  0  0
   28.4951  -20.5426   -6.6078 C   0  0  0  0  0  0  0  0  0  0  0  0
   27.2891  -19.9316   -6.7599 C   0  0  0  0  0  0  0  0  0  0  0  0
   26.6518  -19.9205   -7.9911 C   0  0  0  0  0  0  0  0  0  0  0  0
   27.2219  -20.5211   -9.0679 C   0  0  0  0  0  0  0  0  0  0  0  0
   23.8249  -20.6301  -12.6953 C   0  0  0  0  0  0  0  0  0  0  0  0
   23.6438  -19.5271  -13.3093 O   0  0  0  0  0  0  0  0  0  0  0  0
   22.7670  -21.5304  -12.5103 N   0  0  0  0  0  0  0  0  0  0  0  0
   21.4537  -21.2885  -13.1294 C   0  0  1  0  0  0  0  0  0  0  0  0
   20.5899  -22.4978  -12.9925 C   0  0  0  0  0  0  0  0  0  0  0  0
   19.8695  -22.5292  -11.6813 C   0  0  0  0  0  0  0  0  0  0  0  0
   18.6718  -23.4112  -11.8252 C   0  0  0  0  0  0  0  0  0  0  0  0
   17.5621  -22.9112  -12.0772 O   0  0  0  0  0  0  0  0  0  0  0  0
   20.8520  -20.1348  -12.4469 C   0  0  0  0  0  0  0  0  0  0  0  0
   21.2383  -19.7528  -11.3292 O   0  0  0  0  0  0  0  0  0  0  0  0
   18.8223  -24.7670  -11.6753 O   0  0  0  0  0  0  0  0  0  0  0  0
   19.8202  -19.4354  -13.0489 O   0  0  0  0  0  0  0  0  0  0  0  0
  1  2  1  0
  2  3  2  0
  4  2  1  0
  5  6  1  6
  5  4  1  0
  7  5  1  0
  8  7  2  0
  9  7  1  0
 10  9  1  0
 11 12  1  0
 10 11  1  1
 12 20  1  0
 12 13  2  0
 13 14  1  0
 15 14  1  0
 15 16  2  0
 17 16  1  0
 18 17  2  0
 19 20  2  0
 19 18  1  0
 20 15  1  0
 21 22  2  0
 21 10  1  0
 23 21  1  0
 24 23  1  0
 24 25  1  1
 26 25  1  0
 27 26  1  0
 28 27  2  0
 29 24  1  0
 30 29  2  0
 31 27  1  0
 32 29  1  0
M  END
$$$$
