FPR.pdb
     RDKit          3D

 30 31  0  0  1  0  0  0  0  0999 V2000
   23.8087  -20.5112  -11.8816 N   0  0  0  0  0  0  0  0  0  0  0  0
   25.1876  -20.3707  -12.1737 C   0  0  1  0  0  0  0  0  0  0  0  0
   26.1175  -21.1292  -11.2433 C   0  0  0  0  0  0  0  0  0  0  0  0
   26.0111  -20.6222   -9.8251 C   0  0  0  0  0  0  0  0  0  0  0  0
   27.0104  -19.8106   -9.3447 C   0  0  0  0  0  0  0  0  0  0  0  0
   26.9757  -19.3239   -8.0572 C   0  0  0  0  0  0  0  0  0  0  0  0
   25.9098  -19.6728   -7.2612 C   0  0  0  0  0  0  0  0  0  0  0  0
   24.8943  -20.4942   -7.7415 C   0  0  0  0  0  0  0  0  0  0  0  0
   24.9569  -20.9648   -9.0319 C   0  0  0  0  0  0  0  0  0  0  0  0
   25.5593  -20.5946  -13.5940 C   0  0  0  0  0  0  0  0  0  0  0  0
   24.9998  -21.4881  -14.2725 O   0  0  0  0  0  0  0  0  0  0  0  0
   26.5731  -19.8105  -14.2710 N   0  0  0  0  0  0  0  0  0  0  0  0
   27.0573  -18.5516  -13.7540 C   0  0  0  0  0  0  0  0  0  0  0  0
   28.0466  -18.0420  -14.7703 C   0  0  0  0  0  0  0  0  0  0  0  0
   28.4610  -19.2574  -15.5433 C   0  0  0  0  0  0  0  0  0  0  0  0
   27.2025  -20.0876  -15.5107 C   0  0  1  0  0  0  0  0  0  0  0  0
   27.5502  -21.5143  -15.7448 C   0  0  0  0  0  0  0  0  0  0  0  0
   28.1803  -22.1322  -14.8600 O   0  0  0  0  0  0  0  0  0  0  0  0
   21.9485  -26.1287  -15.6843 N   0  0  0  0  0  0  0  0  0  0  0  0
   23.1039  -26.9474  -15.8136 C   0  0  0  0  0  0  0  0  0  0  0  0
   22.9832  -28.1882  -16.1904 N   0  0  0  0  0  0  0  0  0  0  0  0
   24.4081  -26.4435  -15.5390 N   0  0  0  0  0  0  0  0  0  0  0  0
   24.5288  -25.0738  -15.0981 C   0  0  0  0  0  0  0  0  0  0  0  0
   25.2546  -24.2303  -16.1400 C   0  0  0  0  0  0  0  0  0  0  0  0
   26.7317  -24.4917  -16.1332 C   0  0  0  0  0  0  0  0  0  0  0  0
   27.5032  -23.6562  -17.1079 C   0  0  2  0  0  0  0  0  0  0  0  0
   27.2118  -22.2261  -16.9137 N   0  0  0  0  0  0  0  0  0  0  0  0
   27.0929  -23.9713  -18.4789 C   0  0  0  0  0  0  0  0  0  0  0  0
   27.3864  -25.1903  -19.0418 O   0  0  0  0  0  0  0  0  0  0  0  0
   26.4699  -23.1324  -19.1533 O   0  0  0  0  0  0  0  0  0  0  0  0
  2  1  1  6
  2  3  1  0
  2 10  1  0
  3  4  1  0
  4  5  2  0
  4  9  1  0
  5  6  1  0
  6  7  2  0
  8  7  1  0
  9  8  2  0
 10 12  1  0
 11 10  2  0
 12 16  1  0
 12 13  1  0
 13 14  1  0
 15 14  1  0
 16 15  1  0
 17 27  1  0
 16 17  1  1
 18 17  2  0
 20 19  1  0
 20 22  1  0
 21 20  2  0
 22 23  1  0
 23 24  1  0
 24 25  1  0
 26 25  1  1
 26 27  1  0
 26 28  1  0
 28 29  1  0
 30 28  2  0
M  END
$$$$
