FPR.pdb
     RDKit          3D

 30 31  0  0  1  0  0  0  0  0999 V2000
   24.6369  -20.1507   -9.7472 N   0  0  0  0  0  0  0  0  0  0  0  0
   25.8752  -20.1646  -10.4348 C   0  0  1  0  0  0  0  0  0  0  0  0
   26.9321  -21.0701   -9.8277 C   0  0  0  0  0  0  0  0  0  0  0  0
   27.5800  -20.4298   -8.6235 C   0  0  0  0  0  0  0  0  0  0  0  0
   26.8144  -19.6136   -7.8263 C   0  0  0  0  0  0  0  0  0  0  0  0
   27.3495  -18.9933   -6.7196 C   0  0  0  0  0  0  0  0  0  0  0  0
   28.6762  -19.2133   -6.4318 C   0  0  0  0  0  0  0  0  0  0  0  0
   29.4572  -20.0390   -7.2349 C   0  0  0  0  0  0  0  0  0  0  0  0
   28.8945  -20.6445   -8.3336 C   0  0  0  0  0  0  0  0  0  0  0  0
   25.7814  -20.3686  -11.9028 C   0  0  0  0  0  0  0  0  0  0  0  0
   24.9596  -21.1814  -12.3884 O   0  0  0  0  0  0  0  0  0  0  0  0
   26.6182  -19.6557  -12.8475 N   0  0  0  0  0  0  0  0  0  0  0  0
   27.4068  -18.5044  -12.4742 C   0  0  0  0  0  0  0  0  0  0  0  0
   28.0747  -18.0344  -13.7407 C   0  0  0  0  0  0  0  0  0  0  0  0
   28.0515  -19.2255  -14.6501 C   0  0  0  0  0  0  0  0  0  0  0  0
   26.7716  -19.9060  -14.2345 C   0  0  1  0  0  0  0  0  0  0  0  0
   26.8314  -21.3407  -14.6209 C   0  0  0  0  0  0  0  0  0  0  0  0
   27.3995  -22.1466  -13.8533 O   0  0  0  0  0  0  0  0  0  0  0  0
   21.5640  -25.8371  -16.2877 N   0  0  0  0  0  0  0  0  0  0  0  0
   21.4599  -25.5460  -14.8998 C   0  0  0  0  0  0  0  0  0  0  0  0
   20.3302  -25.7317  -14.2790 N   0  0  0  0  0  0  0  0  0  0  0  0
   22.5705  -25.0501  -14.1576 N   0  0  0  0  0  0  0  0  0  0  0  0
   23.7976  -25.8108  -14.1803 C   0  0  0  0  0  0  0  0  0  0  0  0
   24.7395  -25.2895  -15.2596 C   0  0  0  0  0  0  0  0  0  0  0  0
   25.1082  -23.8542  -15.0269 C   0  0  0  0  0  0  0  0  0  0  0  0
   26.0555  -23.2955  -16.0438 C   0  0  2  0  0  0  0  0  0  0  0  0
   26.2822  -21.8594  -15.8113 N   0  0  0  0  0  0  0  0  0  0  0  0
   25.4767  -23.4028  -17.3857 C   0  0  0  0  0  0  0  0  0  0  0  0
   24.6920  -22.3980  -17.8992 O   0  0  0  0  0  0  0  0  0  0  0  0
   25.6908  -24.4122  -18.0800 O   0  0  0  0  0  0  0  0  0  0  0  0
  2  1  1  1
  2  3  1  0
  2 10  1  0
  3  4  1  0
  4  5  2  0
  4  9  1  0
  5  6  1  0
  6  7  2  0
  8  7  1  0
  9  8  2  0
 10 12  1  0
 11 10  2  0
 12 16  1  0
 12 13  1  0
 13 14  1  0
 15 14  1  0
 16 15  1  0
 17 27  1  0
 16 17  1  1
 18 17  2  0
 20 19  1  0
 20 22  1  0
 21 20  2  0
 22 23  1  0
 23 24  1  0
 24 25  1  0
 26 25  1  1
 26 27  1  0
 26 28  1  0
 28 29  1  0
 30 28  2  0
M  END
$$$$
