FPR.pdb
     RDKit          3D

 30 31  0  0  1  0  0  0  0  0999 V2000
   23.3060  -16.7224  -17.4409 N   0  0  0  0  0  0  0  0  0  0  0  0
   24.3835  -16.4195  -16.5728 C   0  0  1  0  0  0  0  0  0  0  0  0
   24.1108  -15.3002  -15.5836 C   0  0  0  0  0  0  0  0  0  0  0  0
   23.7374  -14.0194  -16.2906 C   0  0  0  0  0  0  0  0  0  0  0  0
   22.4203  -13.6281  -16.2815 C   0  0  0  0  0  0  0  0  0  0  0  0
   22.0152  -12.4753  -16.9162 C   0  0  0  0  0  0  0  0  0  0  0  0
   22.9678  -11.7223  -17.5619 C   0  0  0  0  0  0  0  0  0  0  0  0
   24.3035  -12.1127  -17.5748 C   0  0  0  0  0  0  0  0  0  0  0  0
   24.6775  -13.2692  -16.9321 C   0  0  0  0  0  0  0  0  0  0  0  0
   24.9977  -17.5892  -15.8945 C   0  0  0  0  0  0  0  0  0  0  0  0
   24.2984  -18.3838  -15.2227 O   0  0  0  0  0  0  0  0  0  0  0  0
   26.4161  -17.8791  -15.9643 N   0  0  0  0  0  0  0  0  0  0  0  0
   27.3013  -17.2152  -16.8929 C   0  0  0  0  0  0  0  0  0  0  0  0
   28.6585  -17.8362  -16.6840 C   0  0  0  0  0  0  0  0  0  0  0  0
   28.5957  -18.4405  -15.3139 C   0  0  0  0  0  0  0  0  0  0  0  0
   27.1447  -18.8403  -15.2193 C   0  0  1  0  0  0  0  0  0  0  0  0
   26.7620  -18.9614  -13.7875 C   0  0  0  0  0  0  0  0  0  0  0  0
   26.5984  -17.9184  -13.1189 O   0  0  0  0  0  0  0  0  0  0  0  0
   20.1575  -21.7274   -9.3519 N   0  0  0  0  0  0  0  0  0  0  0  0
   21.1388  -21.6897   -8.3236 C   0  0  0  0  0  0  0  0  0  0  0  0
   20.7929  -21.9023   -7.0861 N   0  0  0  0  0  0  0  0  0  0  0  0
   22.5085  -21.4225   -8.6108 N   0  0  0  0  0  0  0  0  0  0  0  0
   22.8902  -21.2378   -9.9911 C   0  0  0  0  0  0  0  0  0  0  0  0
   24.3642  -20.8648  -10.1013 C   0  0  0  0  0  0  0  0  0  0  0  0
   24.7796  -20.6640  -11.5286 C   0  0  0  0  0  0  0  0  0  0  0  0
   26.2226  -20.2999  -11.6981 C   0  0  2  0  0  0  0  0  0  0  0  0
   26.5684  -20.1908  -13.1251 N   0  0  0  0  0  0  0  0  0  0  0  0
   27.0777  -21.3579  -11.1532 C   0  0  0  0  0  0  0  0  0  0  0  0
   27.6019  -22.3326  -11.9681 O   0  0  0  0  0  0  0  0  0  0  0  0
   27.3402  -21.3855   -9.9379 O   0  0  0  0  0  0  0  0  0  0  0  0
  2  1  1  1
  2  3  1  0
  2 10  1  0
  3  4  1  0
  4  5  2  0
  4  9  1  0
  5  6  1  0
  6  7  2  0
  8  7  1  0
  9  8  2  0
 10 12  1  0
 11 10  2  0
 12 16  1  0
 12 13  1  0
 13 14  1  0
 15 14  1  0
 16 15  1  0
 17 27  1  0
 16 17  1  1
 18 17  2  0
 20 19  1  0
 20 22  1  0
 21 20  2  0
 22 23  1  0
 23 24  1  0
 24 25  1  0
 26 25  1  6
 26 27  1  0
 26 28  1  0
 28 29  1  0
 30 28  2  0
M  END
$$$$
