FPR.pdb
     RDKit          3D

 30 31  0  0  1  0  0  0  0  0999 V2000
   19.7194  -27.1017  -15.7522 N   0  0  0  0  0  0  0  0  0  0  0  0
   20.0161  -27.6995  -17.0016 C   0  0  1  0  0  0  0  0  0  0  0  0
   20.7525  -26.8014  -17.9799 C   0  0  0  0  0  0  0  0  0  0  0  0
   19.9763  -25.5365  -18.2576 C   0  0  0  0  0  0  0  0  0  0  0  0
   20.3392  -24.3885  -17.5955 C   0  0  0  0  0  0  0  0  0  0  0  0
   19.6646  -23.2054  -17.7986 C   0  0  0  0  0  0  0  0  0  0  0  0
   18.6135  -23.2030  -18.6855 C   0  0  0  0  0  0  0  0  0  0  0  0
   18.2409  -24.3621  -19.3595 C   0  0  0  0  0  0  0  0  0  0  0  0
   18.9338  -25.5284  -19.1357 C   0  0  0  0  0  0  0  0  0  0  0  0
   20.6542  -29.0384  -16.9267 C   0  0  0  0  0  0  0  0  0  0  0  0
   21.7734  -29.1884  -16.3820 O   0  0  0  0  0  0  0  0  0  0  0  0
   20.0359  -30.2320  -17.4689 N   0  0  0  0  0  0  0  0  0  0  0  0
   18.6951  -30.2382  -18.0065 C   0  0  0  0  0  0  0  0  0  0  0  0
   18.4183  -31.6646  -18.4064 C   0  0  0  0  0  0  0  0  0  0  0  0
   19.7723  -32.2884  -18.5600 C   0  0  0  0  0  0  0  0  0  0  0  0
   20.5751  -31.5419  -17.5244 C   0  0  1  0  0  0  0  0  0  0  0  0
   22.0188  -31.6232  -17.8711 C   0  0  0  0  0  0  0  0  0  0  0  0
   22.5302  -30.6969  -18.5360 O   0  0  0  0  0  0  0  0  0  0  0  0
   29.6252  -30.7305  -15.0176 N   0  0  0  0  0  0  0  0  0  0  0  0
   28.5351  -30.2261  -15.7787 C   0  0  0  0  0  0  0  0  0  0  0  0
   28.3291  -28.9420  -15.8481 N   0  0  0  0  0  0  0  0  0  0  0  0
   27.6489  -31.0961  -16.4772 N   0  0  0  0  0  0  0  0  0  0  0  0
   27.3230  -32.3650  -15.8701 C   0  0  0  0  0  0  0  0  0  0  0  0
   26.5650  -33.2556  -16.8479 C   0  0  0  0  0  0  0  0  0  0  0  0
   25.0841  -33.1974  -16.6165 C   0  0  0  0  0  0  0  0  0  0  0  0
   24.2985  -32.7398  -17.8069 C   0  0  2  0  0  0  0  0  0  0  0  0
   22.8606  -32.6896  -17.4944 N   0  0  0  0  0  0  0  0  0  0  0  0
   24.4417  -33.6990  -18.9054 C   0  0  0  0  0  0  0  0  0  0  0  0
   25.6570  -33.8982  -19.5157 O   0  0  0  0  0  0  0  0  0  0  0  0
   23.4572  -34.3481  -19.3008 O   0  0  0  0  0  0  0  0  0  0  0  0
  2  1  1  1
  2  3  1  0
  2 10  1  0
  3  4  1  0
  4  5  2  0
  4  9  1  0
  5  6  1  0
  6  7  2  0
  8  7  1  0
  9  8  2  0
 10 12  1  0
 11 10  2  0
 12 16  1  0
 12 13  1  0
 13 14  1  0
 15 14  1  0
 16 15  1  0
 17 27  1  0
 16 17  1  6
 18 17  2  0
 20 19  1  0
 20 22  1  0
 21 20  2  0
 22 23  1  0
 23 24  1  0
 24 25  1  0
 26 25  1  1
 26 27  1  0
 26 28  1  0
 28 29  1  0
 30 28  2  0
M  END
$$$$
