FPR.pdb
     RDKit          3D

 30 31  0  0  1  0  0  0  0  0999 V2000
   20.5539  -19.0559  -16.6129 N   0  0  0  0  0  0  0  0  0  0  0  0
   21.8056  -18.4322  -16.8382 C   0  0  1  0  0  0  0  0  0  0  0  0
   22.1079  -17.2590  -15.9228 C   0  0  0  0  0  0  0  0  0  0  0  0
   21.1161  -16.1376  -16.1192 C   0  0  0  0  0  0  0  0  0  0  0  0
   21.3485  -15.2282  -17.1227 C   0  0  0  0  0  0  0  0  0  0  0  0
   20.4865  -14.1780  -17.3461 C   0  0  0  0  0  0  0  0  0  0  0  0
   19.3818  -14.0629  -16.5349 C   0  0  0  0  0  0  0  0  0  0  0  0
   19.1405  -14.9805  -15.5169 C   0  0  0  0  0  0  0  0  0  0  0  0
   20.0197  -16.0187  -15.3182 C   0  0  0  0  0  0  0  0  0  0  0  0
   22.9666  -19.3547  -16.9196 C   0  0  0  0  0  0  0  0  0  0  0  0
   23.2248  -20.1484  -15.9842 O   0  0  0  0  0  0  0  0  0  0  0  0
   23.8571  -19.3936  -18.0626 N   0  0  0  0  0  0  0  0  0  0  0  0
   23.5822  -18.6799  -19.2880 C   0  0  0  0  0  0  0  0  0  0  0  0
   24.7083  -19.0259  -20.2278 C   0  0  0  0  0  0  0  0  0  0  0  0
   25.8204  -19.4910  -19.3372 C   0  0  0  0  0  0  0  0  0  0  0  0
   25.0601  -20.1305  -18.2027 C   0  0  1  0  0  0  0  0  0  0  0  0
   25.9263  -20.1731  -16.9948 C   0  0  0  0  0  0  0  0  0  0  0  0
   26.2340  -19.0977  -16.4377 O   0  0  0  0  0  0  0  0  0  0  0  0
   22.9735  -20.3046  -11.1298 N   0  0  0  0  0  0  0  0  0  0  0  0
   22.9369  -21.4636  -11.9528 C   0  0  0  0  0  0  0  0  0  0  0  0
   21.7926  -21.9583  -12.3294 N   0  0  0  0  0  0  0  0  0  0  0  0
   24.1320  -22.1089  -12.3836 N   0  0  0  0  0  0  0  0  0  0  0  0
   25.3927  -21.4644  -12.1005 C   0  0  0  0  0  0  0  0  0  0  0  0
   26.0030  -20.8842  -13.3712 C   0  0  0  0  0  0  0  0  0  0  0  0
   26.8628  -21.8876  -14.0811 C   0  0  0  0  0  0  0  0  0  0  0  0
   27.4489  -21.3880  -15.3657 C   0  0  2  0  0  0  0  0  0  0  0  0
   26.4299  -21.3618  -16.4282 N   0  0  0  0  0  0  0  0  0  0  0  0
   28.4969  -22.3003  -15.8311 C   0  0  0  0  0  0  0  0  0  0  0  0
   29.6653  -22.4540  -15.1238 O   0  0  0  0  0  0  0  0  0  0  0  0
   28.3394  -22.9504  -16.8796 O   0  0  0  0  0  0  0  0  0  0  0  0
  2  1  1  1
  2  3  1  0
  2 10  1  0
  3  4  1  0
  4  5  2  0
  4  9  1  0
  5  6  1  0
  6  7  2  0
  8  7  1  0
  9  8  2  0
 10 12  1  0
 11 10  2  0
 12 16  1  0
 12 13  1  0
 13 14  1  0
 15 14  1  0
 16 15  1  0
 17 27  1  0
 16 17  1  1
 18 17  2  0
 20 19  1  0
 20 22  1  0
 21 20  2  0
 22 23  1  0
 23 24  1  0
 24 25  1  0
 26 25  1  1
 26 27  1  0
 26 28  1  0
 28 29  1  0
 30 28  2  0
M  END
$$$$
