FPR.pdb
     RDKit          3D

 30 31  0  0  1  0  0  0  0  0999 V2000
   26.4217  -19.2080  -18.1604 N   0  0  0  0  0  0  0  0  0  0  0  0
   26.7771  -18.7317  -16.8746 C   0  0  1  0  0  0  0  0  0  0  0  0
   26.3882  -17.2902  -16.5980 C   0  0  0  0  0  0  0  0  0  0  0  0
   27.0301  -16.3473  -17.5873 C   0  0  0  0  0  0  0  0  0  0  0  0
   26.2601  -15.8518  -18.6118 C   0  0  0  0  0  0  0  0  0  0  0  0
   26.7896  -14.9954  -19.5510 C   0  0  0  0  0  0  0  0  0  0  0  0
   28.1152  -14.6474  -19.4361 C   0  0  0  0  0  0  0  0  0  0  0  0
   28.9005  -15.1454  -18.4008 C   0  0  0  0  0  0  0  0  0  0  0  0
   28.3434  -15.9989  -17.4780 C   0  0  0  0  0  0  0  0  0  0  0  0
   26.3882  -19.6126  -15.7439 C   0  0  0  0  0  0  0  0  0  0  0  0
   25.2015  -19.9906  -15.6013 O   0  0  0  0  0  0  0  0  0  0  0  0
   27.3375  -20.0803  -14.7533 N   0  0  0  0  0  0  0  0  0  0  0  0
   28.7663  -19.9572  -14.9258 C   0  0  0  0  0  0  0  0  0  0  0  0
   29.3849  -20.6071  -13.7149 C   0  0  0  0  0  0  0  0  0  0  0  0
   28.2991  -20.6024  -12.6818 C   0  0  0  0  0  0  0  0  0  0  0  0
   27.0628  -20.7474  -13.5330 C   0  0  1  0  0  0  0  0  0  0  0  0
   25.8861  -20.2393  -12.7790 C   0  0  0  0  0  0  0  0  0  0  0  0
   25.7136  -19.0044  -12.6953 O   0  0  0  0  0  0  0  0  0  0  0  0
   18.4415  -23.6213  -11.4917 N   0  0  0  0  0  0  0  0  0  0  0  0
   18.1210  -22.4338  -10.7782 C   0  0  0  0  0  0  0  0  0  0  0  0
   17.0850  -22.4084   -9.9893 N   0  0  0  0  0  0  0  0  0  0  0  0
   18.9105  -21.2543  -10.9027 N   0  0  0  0  0  0  0  0  0  0  0  0
   20.0140  -21.2699  -11.8339 C   0  0  0  0  0  0  0  0  0  0  0  0
   21.2763  -20.7089  -11.1890 C   0  0  0  0  0  0  0  0  0  0  0  0
   22.5158  -21.2158  -11.8647 C   0  0  0  0  0  0  0  0  0  0  0  0
   23.7771  -20.5547  -11.4004 C   0  0  2  0  0  0  0  0  0  0  0  0
   24.9392  -21.0687  -12.1442 N   0  0  0  0  0  0  0  0  0  0  0  0
   24.0245  -20.8721   -9.9914 C   0  0  0  0  0  0  0  0  0  0  0  0
   23.5382  -20.0665   -8.9896 O   0  0  0  0  0  0  0  0  0  0  0  0
   24.6826  -21.8818   -9.6843 O   0  0  0  0  0  0  0  0  0  0  0  0
  2  1  1  6
  2  3  1  0
  2 10  1  0
  3  4  1  0
  4  5  2  0
  4  9  1  0
  5  6  1  0
  6  7  2  0
  8  7  1  0
  9  8  2  0
 10 12  1  0
 11 10  2  0
 12 16  1  0
 12 13  1  0
 13 14  1  0
 15 14  1  0
 16 15  1  0
 17 27  1  0
 16 17  1  1
 18 17  2  0
 20 19  1  0
 20 22  1  0
 21 20  2  0
 22 23  1  0
 23 24  1  0
 24 25  1  0
 26 25  1  6
 26 27  1  0
 26 28  1  0
 28 29  1  0
 30 28  2  0
M  END
$$$$
