FPR.pdb
     RDKit          3D

 30 31  0  0  1  0  0  0  0  0999 V2000
   28.4555  -20.6400  -16.9491 N   0  0  0  0  0  0  0  0  0  0  0  0
   28.6477  -19.9943  -15.7031 C   0  0  1  0  0  0  0  0  0  0  0  0
   28.3264  -18.5103  -15.6971 C   0  0  0  0  0  0  0  0  0  0  0  0
   29.1246  -17.7698  -16.7432 C   0  0  0  0  0  0  0  0  0  0  0  0
   30.4632  -17.5594  -16.5159 C   0  0  0  0  0  0  0  0  0  0  0  0
   31.2429  -16.8828  -17.4271 C   0  0  0  0  0  0  0  0  0  0  0  0
   30.6439  -16.4214  -18.5759 C   0  0  0  0  0  0  0  0  0  0  0  0
   29.2887  -16.6313  -18.8125 C   0  0  0  0  0  0  0  0  0  0  0  0
   28.5360  -17.3104  -17.8836 C   0  0  0  0  0  0  0  0  0  0  0  0
   28.0318  -20.6754  -14.5359 C   0  0  0  0  0  0  0  0  0  0  0  0
   26.8514  -21.0950  -14.5848 O   0  0  0  0  0  0  0  0  0  0  0  0
   28.7422  -20.8923  -13.2912 N   0  0  0  0  0  0  0  0  0  0  0  0
   30.1750  -20.7480  -13.1776 C   0  0  0  0  0  0  0  0  0  0  0  0
   30.5142  -21.1119  -11.7551 C   0  0  0  0  0  0  0  0  0  0  0  0
   29.2305  -20.9421  -11.0004 C   0  0  0  0  0  0  0  0  0  0  0  0
   28.2073  -21.3082  -12.0460 C   0  0  1  0  0  0  0  0  0  0  0  0
   26.8972  -20.7063  -11.6816 C   0  0  0  0  0  0  0  0  0  0  0  0
   26.7516  -19.4703  -11.7943 O   0  0  0  0  0  0  0  0  0  0  0  0
   19.0021  -23.0553  -10.8551 N   0  0  0  0  0  0  0  0  0  0  0  0
   18.7269  -21.7660  -11.3876 C   0  0  0  0  0  0  0  0  0  0  0  0
   17.5767  -21.1995  -11.1590 N   0  0  0  0  0  0  0  0  0  0  0  0
   19.6856  -21.0655  -12.1753 N   0  0  0  0  0  0  0  0  0  0  0  0
   20.9878  -21.6637  -12.3522 C   0  0  0  0  0  0  0  0  0  0  0  0
   22.0428  -20.9159  -11.5449 C   0  0  0  0  0  0  0  0  0  0  0  0
   23.4154  -21.4759  -11.7737 C   0  0  0  0  0  0  0  0  0  0  0  0
   24.4783  -20.8515  -10.9228 C   0  0  2  0  0  0  0  0  0  0  0  0
   25.7935  -21.4470  -11.2115 N   0  0  0  0  0  0  0  0  0  0  0  0
   24.2136  -21.1195   -9.5067 C   0  0  0  0  0  0  0  0  0  0  0  0
   23.3441  -20.3332   -8.7892 O   0  0  0  0  0  0  0  0  0  0  0  0
   24.7775  -22.0687   -8.9341 O   0  0  0  0  0  0  0  0  0  0  0  0
  2  1  1  6
  2  3  1  0
  2 10  1  0
  3  4  1  0
  4  5  2  0
  4  9  1  0
  5  6  1  0
  6  7  2  0
  8  7  1  0
  9  8  2  0
 10 12  1  0
 11 10  2  0
 12 16  1  0
 12 13  1  0
 13 14  1  0
 15 14  1  0
 16 15  1  0
 17 27  1  0
 16 17  1  1
 18 17  2  0
 20 19  1  0
 20 22  1  0
 21 20  2  0
 22 23  1  0
 23 24  1  0
 24 25  1  0
 26 25  1  6
 26 27  1  0
 26 28  1  0
 28 29  1  0
 30 28  2  0
M  END
$$$$
