SQC.pdb
     RDKit          3D

 22 21  0  0  1  0  0  0  0  0999 V2000
   14.2518  -11.0287  -11.4164 O   0  0  0  0  0  0  0  0  0  0  0  0
   15.0923   -9.9091  -11.5346 C   0  0  0  0  0  0  0  0  0  0  0  0
   16.5114  -10.3827  -11.3979 C   0  0  2  0  0  0  0  0  0  0  0  0
   16.8197  -11.0670  -10.1861 N   0  0  0  0  0  0  0  0  0  0  0  0
   17.4373   -9.2221  -11.6124 C   0  0  0  0  0  0  0  0  0  0  0  0
   17.8296   -8.5271  -10.6195 O   0  0  0  0  0  0  0  0  0  0  0  0
   22.6013   -9.4501  -14.5345 N   0  0  0  0  0  0  0  0  0  0  0  0
   21.4250   -9.6144  -15.3347 C   0  0  0  0  0  0  0  0  0  0  0  0
   21.4798  -10.2431  -16.4089 O   0  0  0  0  0  0  0  0  0  0  0  0
   20.1903   -9.0116  -14.8342 C   0  0  0  0  0  0  0  0  0  0  0  0
   20.1956   -8.3610  -13.5092 C   0  0  0  0  0  0  0  0  0  0  0  0
   18.8825   -7.8273  -13.0478 C   0  0  2  0  0  0  0  0  0  0  0  0
   17.9012   -8.8557  -12.8923 N   0  0  0  0  0  0  0  0  0  0  0  0
   18.4090   -6.8384  -14.0681 C   0  0  0  0  0  0  0  0  0  0  0  0
   17.4380   -7.1415  -14.7821 O   0  0  0  0  0  0  0  0  0  0  0  0
   19.0544   -5.5927  -14.2096 N   0  0  0  0  0  0  0  0  0  0  0  0
   18.5939   -4.5603  -15.1154 C   0  0  1  0  0  0  0  0  0  0  0  0
   17.2091   -4.1011  -14.7449 C   0  0  0  0  0  0  0  0  0  0  0  0
   16.7415   -2.6053  -15.6289 S   0  0  0  0  0  0  0  0  0  0  0  0
   19.5298   -3.4223  -15.1523 C   0  0  0  0  0  0  0  0  0  0  0  0
   19.6875   -2.6258  -16.2713 O   0  0  0  0  0  0  0  0  0  0  0  0
   20.2072   -3.1682  -14.1292 O   0  0  0  0  0  0  0  0  0  0  0  0
  1  2  1  0
  3  5  1  0
  3  4  1  1
  3  2  1  0
  5  6  2  0
  7  8  1  0
  8 10  1  0
  9  8  2  0
 10 11  1  0
 12 11  1  6
 12 14  1  0
 13 12  1  0
 13  5  1  0
 14 15  2  0
 14 16  1  0
 16 17  1  0
 17 20  1  0
 17 18  1  1
 19 18  1  0
 20 22  2  0
 20 21  1  0
M  END
$$$$
