SQC.pdb
     RDKit          3D

 22 21  0  0  1  0  0  0  0  0999 V2000
   16.8779  -13.8381  -12.3923 O   0  0  0  0  0  0  0  0  0  0  0  0
   16.7413  -12.6179  -13.0751 C   0  0  0  0  0  0  0  0  0  0  0  0
   15.5722  -11.8860  -12.4799 C   0  0  2  0  0  0  0  0  0  0  0  0
   14.3088  -12.1423  -13.0882 N   0  0  0  0  0  0  0  0  0  0  0  0
   15.8732  -10.4166  -12.4607 C   0  0  0  0  0  0  0  0  0  0  0  0
   15.6431   -9.7048  -13.4918 O   0  0  0  0  0  0  0  0  0  0  0  0
   15.4888   -6.3034   -7.7281 N   0  0  0  0  0  0  0  0  0  0  0  0
   14.4623   -6.9209   -8.5130 C   0  0  0  0  0  0  0  0  0  0  0  0
   13.2724   -6.8611   -8.1486 O   0  0  0  0  0  0  0  0  0  0  0  0
   14.8818   -7.6130   -9.7309 C   0  0  0  0  0  0  0  0  0  0  0  0
   16.3224   -7.7235  -10.0332 C   0  0  0  0  0  0  0  0  0  0  0  0
   16.6605   -8.3650  -11.3355 C   0  0  2  0  0  0  0  0  0  0  0  0
   16.4141   -9.7737  -11.3286 N   0  0  0  0  0  0  0  0  0  0  0  0
   18.1130   -8.1157  -11.6024 C   0  0  0  0  0  0  0  0  0  0  0  0
   18.9521   -8.8436  -11.0450 O   0  0  0  0  0  0  0  0  0  0  0  0
   18.5127   -7.0772  -12.4685 N   0  0  0  0  0  0  0  0  0  0  0  0
   19.8806   -6.8955  -12.9089 C   0  0  1  0  0  0  0  0  0  0  0  0
   20.3966   -8.1391  -13.5819 C   0  0  0  0  0  0  0  0  0  0  0  0
   22.0740   -7.9209  -14.1952 S   0  0  0  0  0  0  0  0  0  0  0  0
   20.0069   -5.7281  -13.7997 C   0  0  0  0  0  0  0  0  0  0  0  0
   21.0381   -4.8142  -13.6856 O   0  0  0  0  0  0  0  0  0  0  0  0
   19.1462   -5.5594  -14.6946 O   0  0  0  0  0  0  0  0  0  0  0  0
  1  2  1  0
  3  5  1  0
  3  4  1  6
  3  2  1  0
  5  6  2  0
  7  8  1  0
  8 10  1  0
  9  8  2  0
 10 11  1  0
 12 11  1  1
 12 14  1  0
 13 12  1  0
 13  5  1  0
 14 15  2  0
 14 16  1  0
 16 17  1  0
 17 20  1  0
 17 18  1  6
 19 18  1  0
 20 22  2  0
 20 21  1  0
M  END
$$$$
