SQC.pdb
     RDKit          3D

 22 21  0  0  1  0  0  0  0  0999 V2000
   16.2612  -15.1531  -14.0764 O   0  0  0  0  0  0  0  0  0  0  0  0
   16.9827  -13.9983  -14.4227 C   0  0  0  0  0  0  0  0  0  0  0  0
   16.5360  -13.5699  -15.7916 C   0  0  2  0  0  0  0  0  0  0  0  0
   16.9200  -14.4282  -16.8629 N   0  0  0  0  0  0  0  0  0  0  0  0
   16.9936  -12.1627  -16.0374 C   0  0  0  0  0  0  0  0  0  0  0  0
   17.9722  -11.9379  -16.8214 O   0  0  0  0  0  0  0  0  0  0  0  0
   13.4986  -10.3013  -14.4964 N   0  0  0  0  0  0  0  0  0  0  0  0
   13.2840   -9.6413  -15.7493 C   0  0  0  0  0  0  0  0  0  0  0  0
   12.1810   -9.7263  -16.3222 O   0  0  0  0  0  0  0  0  0  0  0  0
   14.4071   -8.8878  -16.3052 C   0  0  0  0  0  0  0  0  0  0  0  0
   15.6393   -8.7424  -15.5056 C   0  0  0  0  0  0  0  0  0  0  0  0
   16.7235   -9.7195  -15.8084 C   0  0  2  0  0  0  0  0  0  0  0  0
   16.3777  -11.0528  -15.4241 N   0  0  0  0  0  0  0  0  0  0  0  0
   17.9473   -9.2880  -15.0607 C   0  0  0  0  0  0  0  0  0  0  0  0
   18.0369   -9.5734  -13.8543 O   0  0  0  0  0  0  0  0  0  0  0  0
   18.9717   -8.5751  -15.7169 N   0  0  0  0  0  0  0  0  0  0  0  0
   20.2274   -8.2293  -15.0830 C   0  0  1  0  0  0  0  0  0  0  0  0
   21.3852   -8.8643  -15.8055 C   0  0  0  0  0  0  0  0  0  0  0  0
   22.9671   -8.3067  -15.1542 S   0  0  0  0  0  0  0  0  0  0  0  0
   20.4015   -6.7681  -14.9987 C   0  0  0  0  0  0  0  0  0  0  0  0
   20.0194   -5.9142  -16.0168 O   0  0  0  0  0  0  0  0  0  0  0  0
   20.9150   -6.2830  -13.9638 O   0  0  0  0  0  0  0  0  0  0  0  0
  1  2  1  0
  3  5  1  0
  3  4  1  6
  3  2  1  0
  5  6  2  0
  7  8  1  0
  8 10  1  0
  9  8  2  0
 10 11  1  0
 12 11  1  1
 12 14  1  0
 13 12  1  0
 13  5  1  0
 14 15  2  0
 14 16  1  0
 16 17  1  0
 17 20  1  0
 17 18  1  6
 19 18  1  0
 20 22  2  0
 20 21  1  0
M  END
$$$$
