SQC.pdb
     RDKit          3D

 22 21  0  0  1  0  0  0  0  0999 V2000
   17.1705  -13.1666  -13.8960 O   0  0  0  0  0  0  0  0  0  0  0  0
   17.3114  -11.7850  -14.1085 C   0  0  0  0  0  0  0  0  0  0  0  0
   16.0243  -11.1238  -13.7046 C   0  0  2  0  0  0  0  0  0  0  0  0
   14.9660  -11.2000  -14.6565 N   0  0  0  0  0  0  0  0  0  0  0  0
   16.3044   -9.7005  -13.3225 C   0  0  0  0  0  0  0  0  0  0  0  0
   16.3198   -8.7916  -14.2149 O   0  0  0  0  0  0  0  0  0  0  0  0
   15.4423   -7.0549   -7.6991 N   0  0  0  0  0  0  0  0  0  0  0  0
   14.4949   -7.0528   -8.7731 C   0  0  0  0  0  0  0  0  0  0  0  0
   13.2914   -6.8232   -8.5475 O   0  0  0  0  0  0  0  0  0  0  0  0
   15.0077   -7.3351  -10.1131 C   0  0  0  0  0  0  0  0  0  0  0  0
   16.4513   -7.5867  -10.2904 C   0  0  0  0  0  0  0  0  0  0  0  0
   16.8765   -7.9578  -11.6701 C   0  0  2  0  0  0  0  0  0  0  0  0
   16.5599   -9.3150  -11.9907 N   0  0  0  0  0  0  0  0  0  0  0  0
   18.3581   -7.7585  -11.7591 C   0  0  0  0  0  0  0  0  0  0  0  0
   19.1011   -8.5568  -11.1628 O   0  0  0  0  0  0  0  0  0  0  0  0
   18.8919   -6.6876  -12.5053 N   0  0  0  0  0  0  0  0  0  0  0  0
   20.3138   -6.4801  -12.6872 C   0  0  1  0  0  0  0  0  0  0  0  0
   20.9108   -7.5724  -13.5335 C   0  0  0  0  0  0  0  0  0  0  0  0
   22.6642   -7.3029  -13.8342 S   0  0  0  0  0  0  0  0  0  0  0  0
   20.5925   -5.1554  -13.2703 C   0  0  0  0  0  0  0  0  0  0  0  0
   21.7156   -4.4196  -12.9406 O   0  0  0  0  0  0  0  0  0  0  0  0
   19.7795   -4.6798  -14.0967 O   0  0  0  0  0  0  0  0  0  0  0  0
  1  2  1  0
  3  5  1  0
  3  4  1  6
  3  2  1  0
  5  6  2  0
  7  8  1  0
  8 10  1  0
  9  8  2  0
 10 11  1  0
 12 11  1  1
 12 14  1  0
 13 12  1  0
 13  5  1  0
 14 15  2  0
 14 16  1  0
 16 17  1  0
 17 20  1  0
 17 18  1  6
 19 18  1  0
 20 22  2  0
 20 21  1  0
M  END
$$$$
