SQC.pdb
     RDKit          3D

 22 21  0  0  1  0  0  0  0  0999 V2000
   15.5793  -13.4465  -11.3192 O   0  0  0  0  0  0  0  0  0  0  0  0
   15.7796  -12.1478  -11.8164 C   0  0  0  0  0  0  0  0  0  0  0  0
   15.0194  -11.1961  -10.9370 C   0  0  2  0  0  0  0  0  0  0  0  0
   13.5989  -11.2820  -11.0175 N   0  0  0  0  0  0  0  0  0  0  0  0
   15.4913   -9.7980  -11.2064 C   0  0  0  0  0  0  0  0  0  0  0  0
   15.0961   -9.1810  -12.2485 O   0  0  0  0  0  0  0  0  0  0  0  0
   15.6768   -5.0692   -7.4032 N   0  0  0  0  0  0  0  0  0  0  0  0
   14.6214   -5.6861   -8.1494 C   0  0  0  0  0  0  0  0  0  0  0  0
   13.4315   -5.4446   -7.8700 O   0  0  0  0  0  0  0  0  0  0  0  0
   15.0113   -6.5968   -9.2249 C   0  0  0  0  0  0  0  0  0  0  0  0
   16.4448   -6.8630   -9.4550 C   0  0  0  0  0  0  0  0  0  0  0  0
   16.7573   -7.7679  -10.5976 C   0  0  2  0  0  0  0  0  0  0  0  0
   16.3745   -9.1215  -10.3404 N   0  0  0  0  0  0  0  0  0  0  0  0
   18.2344   -7.7057  -10.8369 C   0  0  0  0  0  0  0  0  0  0  0  0
   18.9545   -8.5852  -10.3340 O   0  0  0  0  0  0  0  0  0  0  0  0
   18.7893   -6.6705  -11.6171 N   0  0  0  0  0  0  0  0  0  0  0  0
   20.1836   -6.6335  -12.0080 C   0  0  1  0  0  0  0  0  0  0  0  0
   20.5737   -7.8997  -12.7224 C   0  0  0  0  0  0  0  0  0  0  0  0
   22.2944   -7.8686  -13.2474 S   0  0  0  0  0  0  0  0  0  0  0  0
   20.4766   -5.4523  -12.8394 C   0  0  0  0  0  0  0  0  0  0  0  0
   21.6449   -4.7242  -12.7109 O   0  0  0  0  0  0  0  0  0  0  0  0
   19.6337   -5.0963  -13.6955 O   0  0  0  0  0  0  0  0  0  0  0  0
  1  2  1  0
  3  5  1  0
  3  4  1  6
  3  2  1  0
  5  6  2  0
  7  8  1  0
  8 10  1  0
  9  8  2  0
 10 11  1  0
 12 11  1  1
 12 14  1  0
 13 12  1  0
 13  5  1  0
 14 15  2  0
 14 16  1  0
 16 17  1  0
 17 20  1  0
 17 18  1  6
 19 18  1  0
 20 22  2  0
 20 21  1  0
M  END
$$$$
