SQC.pdb
     RDKit          3D

 22 21  0  0  1  0  0  0  0  0999 V2000
   20.5424  -11.8279  -21.0370 O   0  0  0  0  0  0  0  0  0  0  0  0
   20.5248  -11.2981  -19.7358 C   0  0  0  0  0  0  0  0  0  0  0  0
   21.4838  -12.0978  -18.9005 C   0  0  2  0  0  0  0  0  0  0  0  0
   20.9997  -13.3569  -18.4399 N   0  0  0  0  0  0  0  0  0  0  0  0
   21.9594  -11.2517  -17.7568 C   0  0  0  0  0  0  0  0  0  0  0  0
   21.2594  -11.1607  -16.6964 O   0  0  0  0  0  0  0  0  0  0  0  0
   27.8959  -10.0731  -16.1835 N   0  0  0  0  0  0  0  0  0  0  0  0
   27.1046  -11.2403  -15.9335 C   0  0  0  0  0  0  0  0  0  0  0  0
   27.6489  -12.3024  -15.5760 O   0  0  0  0  0  0  0  0  0  0  0  0
   25.6599  -11.1180  -16.1239 C   0  0  0  0  0  0  0  0  0  0  0  0
   25.0959   -9.8109  -16.5140 C   0  0  0  0  0  0  0  0  0  0  0  0
   23.6151   -9.7710  -16.6791 C   0  0  2  0  0  0  0  0  0  0  0  0
   23.1721  -10.5343  -17.8044 N   0  0  0  0  0  0  0  0  0  0  0  0
   23.2155   -8.3392  -16.8612 C   0  0  0  0  0  0  0  0  0  0  0  0
   23.2279   -7.8610  -18.0083 O   0  0  0  0  0  0  0  0  0  0  0  0
   22.8339   -7.5569  -15.7518 N   0  0  0  0  0  0  0  0  0  0  0  0
   22.3736   -6.1884  -15.8683 C   0  0  1  0  0  0  0  0  0  0  0  0
   21.1326   -6.1109  -16.7167 C   0  0  0  0  0  0  0  0  0  0  0  0
   19.7923   -7.0977  -16.0332 S   0  0  0  0  0  0  0  0  0  0  0  0
   22.1398   -5.5863  -14.5435 C   0  0  0  0  0  0  0  0  0  0  0  0
   21.7611   -4.2663  -14.3834 O   0  0  0  0  0  0  0  0  0  0  0  0
   22.2901   -6.2998  -13.5244 O   0  0  0  0  0  0  0  0  0  0  0  0
  1  2  1  0
  3  5  1  0
  3  4  1  1
  3  2  1  0
  5  6  2  0
  7  8  1  0
  8 10  1  0
  9  8  2  0
 10 11  1  0
 12 11  1  6
 12 14  1  0
 13 12  1  0
 13  5  1  0
 14 15  2  0
 14 16  1  0
 16 17  1  0
 17 20  1  0
 17 18  1  6
 19 18  1  0
 20 22  2  0
 20 21  1  0
M  END
$$$$
