SQC.pdb
     RDKit          3D

 22 21  0  0  1  0  0  0  0  0999 V2000
   18.0879  -13.4692  -14.8510 O   0  0  0  0  0  0  0  0  0  0  0  0
   18.6971  -12.2431  -15.1663 C   0  0  0  0  0  0  0  0  0  0  0  0
   17.9055  -11.6074  -16.2736 C   0  0  2  0  0  0  0  0  0  0  0  0
   17.9098  -12.3068  -17.5156 N   0  0  0  0  0  0  0  0  0  0  0  0
   18.3638  -10.1902  -16.4513 C   0  0  0  0  0  0  0  0  0  0  0  0
   19.2624   -9.9133  -17.3107 O   0  0  0  0  0  0  0  0  0  0  0  0
   15.0012   -4.9010  -15.7777 N   0  0  0  0  0  0  0  0  0  0  0  0
   16.2978   -4.4364  -16.1700 C   0  0  0  0  0  0  0  0  0  0  0  0
   16.4763   -3.2349  -16.4471 O   0  0  0  0  0  0  0  0  0  0  0  0
   17.3698   -5.4291  -16.2315 C   0  0  0  0  0  0  0  0  0  0  0  0
   17.0616   -6.8379  -15.9169 C   0  0  0  0  0  0  0  0  0  0  0  0
   18.2196   -7.7757  -15.9571 C   0  0  2  0  0  0  0  0  0  0  0  0
   17.8351   -9.1271  -15.6910 N   0  0  0  0  0  0  0  0  0  0  0  0
   19.2054   -7.3265  -14.9230 C   0  0  0  0  0  0  0  0  0  0  0  0
   18.9230   -7.4895  -13.7236 O   0  0  0  0  0  0  0  0  0  0  0  0
   20.4253   -6.7334  -15.3082 N   0  0  0  0  0  0  0  0  0  0  0  0
   21.4441   -6.3302  -14.3608 C   0  0  1  0  0  0  0  0  0  0  0  0
   22.7771   -6.9307  -14.7193 C   0  0  0  0  0  0  0  0  0  0  0  0
   22.8096   -8.7066  -14.4322 S   0  0  0  0  0  0  0  0  0  0  0  0
   21.5398   -4.8623  -14.2679 C   0  0  0  0  0  0  0  0  0  0  0  0
   22.0779   -4.2207  -13.1678 O   0  0  0  0  0  0  0  0  0  0  0  0
   21.1174   -4.1712  -15.2240 O   0  0  0  0  0  0  0  0  0  0  0  0
  1  2  1  0
  3  5  1  0
  3  4  1  6
  3  2  1  0
  5  6  2  0
  7  8  1  0
  8 10  1  0
  9  8  2  0
 10 11  1  0
 12 11  1  1
 12 14  1  0
 13 12  1  0
 13  5  1  0
 14 15  2  0
 14 16  1  0
 16 17  1  0
 17 20  1  0
 17 18  1  6
 19 18  1  0
 20 22  2  0
 20 21  1  0
M  END
$$$$
