TPS.pdb
     RDKit          3D

 21 21  0  0  1  0  0  0  0  0999 V2000
    6.2283  -18.2664   18.9799 C   0  0  0  0  0  0  0  0  0  0  0  0
    7.2608  -18.1611   17.9117 C   0  0  1  0  0  0  0  0  0  0  0  0
    6.6363  -18.5786   16.7087 O   0  0  0  0  0  0  0  0  0  0  0  0
    7.7952  -16.7966   17.6396 C   0  0  2  0  0  0  0  0  0  0  0  0
    8.6122  -16.9348   16.4279 N   0  0  0  0  0  0  0  0  0  0  0  0
    8.6093  -16.2146   18.7365 C   0  0  0  0  0  0  0  0  0  0  0  0
    9.8045  -16.6816   18.8963 O   0  0  0  0  0  0  0  0  0  0  0  0
    8.2265  -15.2049   19.6234 N   0  0  0  0  0  0  0  0  0  0  0  0
    6.9456  -14.5437   19.6675 C   0  0  0  0  0  0  0  0  0  0  0  0
    7.2720  -13.1473   20.2054 C   0  0  0  0  0  0  0  0  0  0  0  0
    8.3404  -13.4393   21.2101 C   0  0  0  0  0  0  0  0  0  0  0  0
    9.0634  -14.6213   20.6353 C   0  0  1  0  0  0  0  0  0  0  0  0
    9.2946  -15.5889   21.7680 C   0  0  0  0  0  0  0  0  0  0  0  0
    8.3200  -16.2773   22.1482 O   0  0  0  0  0  0  0  0  0  0  0  0
   13.0665  -16.2226   23.1635 O   0  0  0  0  0  0  0  0  0  0  0  0
   12.2026  -17.3064   23.3198 C   0  0  0  0  0  0  0  0  0  0  0  0
   10.8041  -16.7459   23.4226 C   0  0  2  0  0  0  0  0  0  0  0  0
   10.5376  -15.7523   22.4094 N   0  0  0  0  0  0  0  0  0  0  0  0
   10.6767  -16.1096   24.7503 C   0  0  0  0  0  0  0  0  0  0  0  0
   10.8419  -16.8026   25.7799 O   0  0  0  0  0  0  0  0  0  0  0  0
   10.3797  -14.7669   24.9174 O   0  0  0  0  0  0  0  0  0  0  0  0
  2  1  1  1
  2  4  1  0
  2  3  1  0
  4  5  1  6
  4  6  1  0
  6  7  2  0
  8  6  1  0
  8 12  1  0
  9  8  1  0
 10  9  1  0
 10 11  1  0
 11 12  1  0
 12 13  1  1
 13 14  2  0
 15 16  1  0
 17 16  1  6
 17 19  1  0
 18 13  1  0
 18 17  1  0
 19 20  2  0
 19 21  1  0
M  END
$$$$
