TPS.pdb
     RDKit          3D

 21 21  0  0  1  0  0  0  0  0999 V2000
    6.0040  -14.1698   20.4739 C   0  0  0  0  0  0  0  0  0  0  0  0
    6.6004  -14.2966   21.8328 C   0  0  1  0  0  0  0  0  0  0  0  0
    7.4187  -15.4546   21.8043 O   0  0  0  0  0  0  0  0  0  0  0  0
    7.4878  -13.1829   22.2728 C   0  0  2  0  0  0  0  0  0  0  0  0
    8.5384  -13.0975   21.2510 N   0  0  0  0  0  0  0  0  0  0  0  0
    8.0983  -13.3635   23.6141 C   0  0  0  0  0  0  0  0  0  0  0  0
    9.3146  -13.8007   23.6551 O   0  0  0  0  0  0  0  0  0  0  0  0
    7.5013  -13.1080   24.8514 N   0  0  0  0  0  0  0  0  0  0  0  0
    6.1477  -12.6628   25.0737 C   0  0  0  0  0  0  0  0  0  0  0  0
    6.2351  -11.8579   26.3738 C   0  0  0  0  0  0  0  0  0  0  0  0
    7.2263  -12.6483   27.1668 C   0  0  0  0  0  0  0  0  0  0  0  0
    8.1501  -13.2142   26.1291 C   0  0  1  0  0  0  0  0  0  0  0  0
    8.3900  -14.6572   26.4939 C   0  0  0  0  0  0  0  0  0  0  0  0
    7.4583  -15.4681   26.2877 O   0  0  0  0  0  0  0  0  0  0  0  0
   11.8680  -16.1964   26.3303 O   0  0  0  0  0  0  0  0  0  0  0  0
   10.8914  -17.1593   26.5835 C   0  0  0  0  0  0  0  0  0  0  0  0
    9.8305  -16.5007   27.4327 C   0  0  2  0  0  0  0  0  0  0  0  0
    9.5957  -15.1290   27.0476 N   0  0  0  0  0  0  0  0  0  0  0  0
   10.3050  -16.5215   28.8322 C   0  0  0  0  0  0  0  0  0  0  0  0
   10.4155  -15.4424   29.4575 O   0  0  0  0  0  0  0  0  0  0  0  0
   10.6387  -17.6897   29.4977 O   0  0  0  0  0  0  0  0  0  0  0  0
  2  1  1  6
  2  4  1  0
  2  3  1  0
  4  5  1  6
  4  6  1  0
  6  7  2  0
  8  6  1  0
  8 12  1  0
  9  8  1  0
 10  9  1  0
 10 11  1  0
 11 12  1  0
 12 13  1  1
 13 14  2  0
 15 16  1  0
 17 16  1  6
 17 19  1  0
 18 13  1  0
 18 17  1  0
 19 20  2  0
 19 21  1  0
M  END
$$$$
