TPS.pdb
     RDKit          3D

 21 21  0  0  1  0  0  0  0  0999 V2000
    7.3605  -17.1745   15.1885 C   0  0  0  0  0  0  0  0  0  0  0  0
    7.8551  -16.7077   16.5135 C   0  0  1  0  0  0  0  0  0  0  0  0
    8.5356  -17.8068   17.0968 O   0  0  0  0  0  0  0  0  0  0  0  0
    8.8359  -15.5855   16.4962 C   0  0  2  0  0  0  0  0  0  0  0  0
    9.9446  -16.0527   15.6551 N   0  0  0  0  0  0  0  0  0  0  0  0
    9.3467  -15.1819   17.8305 C   0  0  0  0  0  0  0  0  0  0  0  0
   10.5026  -15.6415   18.1840 O   0  0  0  0  0  0  0  0  0  0  0  0
    8.7138  -14.3487   18.7568 N   0  0  0  0  0  0  0  0  0  0  0  0
    7.4482  -13.6796   18.5825 C   0  0  0  0  0  0  0  0  0  0  0  0
    7.5798  -12.4167   19.4388 C   0  0  0  0  0  0  0  0  0  0  0  0
    8.3526  -12.9156   20.6178 C   0  0  0  0  0  0  0  0  0  0  0  0
    9.2360  -13.9840   20.0448 C   0  0  1  0  0  0  0  0  0  0  0  0
    9.1875  -15.1520   20.9968 C   0  0  0  0  0  0  0  0  0  0  0  0
    8.1402  -15.8384   21.0167 O   0  0  0  0  0  0  0  0  0  0  0  0
   12.5490  -16.8275   22.2545 O   0  0  0  0  0  0  0  0  0  0  0  0
   11.3985  -17.6081   22.3642 C   0  0  0  0  0  0  0  0  0  0  0  0
   10.2600  -16.6735   22.6968 C   0  0  2  0  0  0  0  0  0  0  0  0
   10.2497  -15.5023   21.8525 N   0  0  0  0  0  0  0  0  0  0  0  0
   10.4352  -16.2408   24.0990 C   0  0  0  0  0  0  0  0  0  0  0  0
   10.6012  -15.0251   24.3485 O   0  0  0  0  0  0  0  0  0  0  0  0
   10.4251  -17.1229   25.1670 O   0  0  0  0  0  0  0  0  0  0  0  0
  2  1  1  6
  2  4  1  0
  2  3  1  0
  4  5  1  6
  4  6  1  0
  6  7  2  0
  8  6  1  0
  8 12  1  0
  9  8  1  0
 10  9  1  0
 10 11  1  0
 11 12  1  0
 12 13  1  1
 13 14  2  0
 15 16  1  0
 17 16  1  6
 17 19  1  0
 18 13  1  0
 18 17  1  0
 19 20  2  0
 19 21  1  0
M  END
$$$$
