TPS.pdb
     RDKit          3D

 21 21  0  0  1  0  0  0  0  0999 V2000
    7.0378  -17.7024   15.7309 C   0  0  0  0  0  0  0  0  0  0  0  0
    7.5760  -17.1277   16.9952 C   0  0  1  0  0  0  0  0  0  0  0  0
    8.1719  -18.2032   17.7020 O   0  0  0  0  0  0  0  0  0  0  0  0
    8.6417  -16.0955   16.8522 C   0  0  2  0  0  0  0  0  0  0  0  0
    9.7178  -16.7512   16.0993 N   0  0  0  0  0  0  0  0  0  0  0  0
    9.1707  -15.5626   18.1330 C   0  0  0  0  0  0  0  0  0  0  0  0
   10.3117  -16.0187   18.5359 O   0  0  0  0  0  0  0  0  0  0  0  0
    8.5697  -14.6099   18.9600 N   0  0  0  0  0  0  0  0  0  0  0  0
    7.3295  -13.9179   18.7089 C   0  0  0  0  0  0  0  0  0  0  0  0
    7.5083  -12.5742   19.4217 C   0  0  0  0  0  0  0  0  0  0  0  0
    8.2629  -12.9686   20.6510 C   0  0  0  0  0  0  0  0  0  0  0  0
    9.1058  -14.1253   20.2019 C   0  0  1  0  0  0  0  0  0  0  0  0
    9.0149  -15.1790   21.2763 C   0  0  0  0  0  0  0  0  0  0  0  0
    7.9456  -15.8250   21.3633 O   0  0  0  0  0  0  0  0  0  0  0  0
   12.1718  -17.1358   22.4217 O   0  0  0  0  0  0  0  0  0  0  0  0
   10.9331  -17.6852   22.7517 C   0  0  0  0  0  0  0  0  0  0  0  0
   10.0303  -16.5388   23.1404 C   0  0  2  0  0  0  0  0  0  0  0  0
   10.0612  -15.4666   22.1738 N   0  0  0  0  0  0  0  0  0  0  0  0
   10.5085  -16.0164   24.4375 C   0  0  0  0  0  0  0  0  0  0  0  0
   10.9677  -14.8531   24.4975 O   0  0  0  0  0  0  0  0  0  0  0  0
   10.4747  -16.7575   25.6074 O   0  0  0  0  0  0  0  0  0  0  0  0
  2  1  1  6
  2  4  1  0
  2  3  1  0
  4  5  1  1
  4  6  1  0
  6  7  2  0
  8  6  1  0
  8 12  1  0
  9  8  1  0
 10  9  1  0
 10 11  1  0
 11 12  1  0
 12 13  1  1
 13 14  2  0
 15 16  1  0
 17 16  1  6
 17 19  1  0
 18 13  1  0
 18 17  1  0
 19 20  2  0
 19 21  1  0
M  END
$$$$
