TPS.pdb
     RDKit          3D

 21 21  0  0  1  0  0  0  0  0999 V2000
    6.0592  -13.6523   20.2636 C   0  0  0  0  0  0  0  0  0  0  0  0
    6.5990  -13.9836   21.6116 C   0  0  1  0  0  0  0  0  0  0  0  0
    7.2637  -15.2297   21.4815 O   0  0  0  0  0  0  0  0  0  0  0  0
    7.6093  -13.0408   22.1702 C   0  0  2  0  0  0  0  0  0  0  0  0
    8.6975  -13.0108   21.1855 N   0  0  0  0  0  0  0  0  0  0  0  0
    8.1426  -13.4154   23.5043 C   0  0  0  0  0  0  0  0  0  0  0  0
    9.3010  -13.9891   23.5372 O   0  0  0  0  0  0  0  0  0  0  0  0
    7.5285  -13.2123   24.7430 N   0  0  0  0  0  0  0  0  0  0  0  0
    6.2297  -12.6278   24.9697 C   0  0  0  0  0  0  0  0  0  0  0  0
    6.3576  -11.9729   26.3482 C   0  0  0  0  0  0  0  0  0  0  0  0
    7.2127  -12.9543   27.0842 C   0  0  0  0  0  0  0  0  0  0  0  0
    8.1052  -13.5240   26.0217 C   0  0  1  0  0  0  0  0  0  0  0  0
    8.1551  -15.0146   26.2418 C   0  0  0  0  0  0  0  0  0  0  0  0
    7.0984  -15.6614   26.0594 O   0  0  0  0  0  0  0  0  0  0  0  0
   11.4516  -16.9996   25.7215 O   0  0  0  0  0  0  0  0  0  0  0  0
   10.3061  -17.7903   25.8096 C   0  0  0  0  0  0  0  0  0  0  0  0
    9.3923  -17.1343   26.8171 C   0  0  2  0  0  0  0  0  0  0  0  0
    9.3177  -15.7036   26.6374 N   0  0  0  0  0  0  0  0  0  0  0  0
    9.9406  -17.4115   28.1612 C   0  0  0  0  0  0  0  0  0  0  0  0
   10.2924  -16.4547   28.8883 O   0  0  0  0  0  0  0  0  0  0  0  0
   10.0877  -18.6931   28.6658 O   0  0  0  0  0  0  0  0  0  0  0  0
  2  1  1  6
  2  4  1  0
  2  3  1  0
  4  5  1  6
  4  6  1  0
  6  7  2  0
  8  6  1  0
  8 12  1  0
  9  8  1  0
 10  9  1  0
 10 11  1  0
 11 12  1  0
 12 13  1  1
 13 14  2  0
 15 16  1  0
 17 16  1  6
 17 19  1  0
 18 13  1  0
 18 17  1  0
 19 20  2  0
 19 21  1  0
M  END
$$$$
