TPS.pdb
     RDKit          3D

 21 21  0  0  1  0  0  0  0  0999 V2000
    9.0038  -16.6550   25.5604 C   0  0  0  0  0  0  0  0  0  0  0  0
    8.5091  -15.2572   25.4199 C   0  0  1  0  0  0  0  0  0  0  0  0
    9.5267  -14.5387   24.7418 O   0  0  0  0  0  0  0  0  0  0  0  0
    7.2718  -15.0711   24.6100 C   0  0  2  0  0  0  0  0  0  0  0  0
    6.2369  -15.8522   25.2982 N   0  0  0  0  0  0  0  0  0  0  0  0
    7.3801  -15.5080   23.1951 C   0  0  0  0  0  0  0  0  0  0  0  0
    7.0582  -16.7318   22.9289 O   0  0  0  0  0  0  0  0  0  0  0  0
    7.7917  -14.7360   22.1055 N   0  0  0  0  0  0  0  0  0  0  0  0
    8.1974  -13.3525   22.1404 C   0  0  0  0  0  0  0  0  0  0  0  0
    7.8171  -12.8235   20.7543 C   0  0  0  0  0  0  0  0  0  0  0  0
    8.1332  -13.9908   19.8748 C   0  0  0  0  0  0  0  0  0  0  0  0
    7.8512  -15.1826   20.7410 C   0  0  1  0  0  0  0  0  0  0  0  0
    8.9884  -16.1516   20.5398 C   0  0  0  0  0  0  0  0  0  0  0  0
   10.0386  -15.9539   21.1929 O   0  0  0  0  0  0  0  0  0  0  0  0
    8.3460  -19.5461   18.5061 O   0  0  0  0  0  0  0  0  0  0  0  0
    9.4767  -19.6179   19.3194 C   0  0  0  0  0  0  0  0  0  0  0  0
    9.9932  -18.2085   19.4842 C   0  0  2  0  0  0  0  0  0  0  0  0
    8.9260  -17.2528   19.6644 N   0  0  0  0  0  0  0  0  0  0  0  0
   10.7339  -17.8598   18.2538 C   0  0  0  0  0  0  0  0  0  0  0  0
   10.2643  -16.9938   17.4810 O   0  0  0  0  0  0  0  0  0  0  0  0
   11.9382  -18.4496   17.9061 O   0  0  0  0  0  0  0  0  0  0  0  0
  2  1  1  6
  2  4  1  0
  2  3  1  0
  4  5  1  1
  4  6  1  0
  6  7  2  0
  8  6  1  0
  8 12  1  0
  9  8  1  0
 10  9  1  0
 10 11  1  0
 11 12  1  0
 12 13  1  1
 13 14  2  0
 15 16  1  0
 17 16  1  6
 17 19  1  0
 18 13  1  0
 18 17  1  0
 19 20  2  0
 19 21  1  0
M  END
$$$$
