TPS.pdb
     RDKit          3D

 21 21  0  0  1  0  0  0  0  0999 V2000
    7.8314  -16.8239   14.7877 C   0  0  0  0  0  0  0  0  0  0  0  0
    8.2640  -16.4458   16.1618 C   0  0  1  0  0  0  0  0  0  0  0  0
    9.1270  -17.4789   16.6083 O   0  0  0  0  0  0  0  0  0  0  0  0
    9.0449  -15.1823   16.2859 C   0  0  2  0  0  0  0  0  0  0  0  0
   10.2078  -15.3575   15.4074 N   0  0  0  0  0  0  0  0  0  0  0  0
    9.4940  -14.8585   17.6635 C   0  0  0  0  0  0  0  0  0  0  0  0
   10.7227  -15.1284   17.9626 O   0  0  0  0  0  0  0  0  0  0  0  0
    8.7310  -14.2848   18.6840 N   0  0  0  0  0  0  0  0  0  0  0  0
    7.3702  -13.8191   18.5778 C   0  0  0  0  0  0  0  0  0  0  0  0
    7.2881  -12.6882   19.6073 C   0  0  0  0  0  0  0  0  0  0  0  0
    8.1360  -13.2147   20.7208 C   0  0  0  0  0  0  0  0  0  0  0  0
    9.1862  -14.0267   20.0222 C   0  0  1  0  0  0  0  0  0  0  0  0
    9.3374  -15.3108   20.7976 C   0  0  0  0  0  0  0  0  0  0  0  0
    8.6011  -16.2709   20.4747 O   0  0  0  0  0  0  0  0  0  0  0  0
   11.9591  -18.5442   22.7968 O   0  0  0  0  0  0  0  0  0  0  0  0
   11.8704  -17.2934   22.1862 C   0  0  0  0  0  0  0  0  0  0  0  0
   10.5069  -16.7352   22.5175 C   0  0  2  0  0  0  0  0  0  0  0  0
   10.2545  -15.4785   21.8528 N   0  0  0  0  0  0  0  0  0  0  0  0
   10.4605  -16.5125   23.9777 C   0  0  0  0  0  0  0  0  0  0  0  0
   10.3726  -15.3431   24.4164 O   0  0  0  0  0  0  0  0  0  0  0  0
   10.5097  -17.5452   24.8997 O   0  0  0  0  0  0  0  0  0  0  0  0
  2  1  1  6
  2  4  1  0
  2  3  1  0
  4  5  1  6
  4  6  1  0
  6  7  2  0
  8  6  1  0
  8 12  1  0
  9  8  1  0
 10  9  1  0
 10 11  1  0
 11 12  1  0
 12 13  1  1
 13 14  2  0
 15 16  1  0
 17 16  1  1
 17 19  1  0
 18 13  1  0
 18 17  1  0
 19 20  2  0
 19 21  1  0
M  END
$$$$
