TPS.pdb
     RDKit          3D

 21 21  0  0  1  0  0  0  0  0999 V2000
    5.7133  -18.4649   17.3528 C   0  0  0  0  0  0  0  0  0  0  0  0
    6.5289  -17.7485   18.3725 C   0  0  1  0  0  0  0  0  0  0  0  0
    7.2908  -18.7387   19.0436 O   0  0  0  0  0  0  0  0  0  0  0  0
    7.5154  -16.7584   17.8548 C   0  0  2  0  0  0  0  0  0  0  0  0
    8.3825  -17.5153   16.9438 N   0  0  0  0  0  0  0  0  0  0  0  0
    8.3351  -16.0902   18.8970 C   0  0  0  0  0  0  0  0  0  0  0  0
    9.4840  -16.6161   19.1717 O   0  0  0  0  0  0  0  0  0  0  0  0
    8.0028  -14.9415   19.6202 N   0  0  0  0  0  0  0  0  0  0  0  0
    6.8427  -14.1086   19.4196 C   0  0  0  0  0  0  0  0  0  0  0  0
    7.3084  -12.7182   19.8617 C   0  0  0  0  0  0  0  0  0  0  0  0
    8.1851  -13.0373   21.0303 C   0  0  0  0  0  0  0  0  0  0  0  0
    8.7854  -14.3665   20.6792 C   0  0  1  0  0  0  0  0  0  0  0  0
    8.7222  -15.2193   21.9208 C   0  0  0  0  0  0  0  0  0  0  0  0
    7.5920  -15.5976   22.3052 O   0  0  0  0  0  0  0  0  0  0  0  0
   11.4317  -17.7570   22.8171 O   0  0  0  0  0  0  0  0  0  0  0  0
   10.2718  -17.8368   23.5874 C   0  0  0  0  0  0  0  0  0  0  0  0
    9.8158  -16.4210   23.8482 C   0  0  2  0  0  0  0  0  0  0  0  0
    9.8584  -15.6049   22.6578 N   0  0  0  0  0  0  0  0  0  0  0  0
   10.7302  -15.8371   24.8516 C   0  0  0  0  0  0  0  0  0  0  0  0
   11.4821  -14.8929   24.5189 O   0  0  0  0  0  0  0  0  0  0  0  0
   10.7998  -16.2866   26.1601 O   0  0  0  0  0  0  0  0  0  0  0  0
  2  1  1  6
  2  4  1  0
  2  3  1  0
  4  5  1  6
  4  6  1  0
  6  7  2  0
  8  6  1  0
  8 12  1  0
  9  8  1  0
 10  9  1  0
 10 11  1  0
 11 12  1  0
 12 13  1  1
 13 14  2  0
 15 16  1  0
 17 16  1  6
 17 19  1  0
 18 13  1  0
 18 17  1  0
 19 20  2  0
 19 21  1  0
M  END
$$$$
