MSF.pdb
     RDKit          3D

 26 26  0  0  1  0  0  0  0  0999 V2000
    8.4492  -11.6565   19.6252 C   0  0  0  0  0  0  0  0  0  0  0  0
    8.4924  -12.6401   18.1470 S   0  0  0  0  0  0  0  0  0  0  0  0
    8.3881  -14.3888   18.3028 C   0  0  0  0  0  0  0  0  0  0  0  0
    8.2699  -15.0156   19.6449 C   0  0  0  0  0  0  0  0  0  0  0  0
    8.1890  -16.4838   19.6260 C   0  0  2  0  0  0  0  0  0  0  0  0
    7.1016  -16.9478   18.8463 N   0  0  0  0  0  0  0  0  0  0  0  0
    8.1625  -17.0823   21.0049 C   0  0  0  0  0  0  0  0  0  0  0  0
    7.0665  -17.2342   21.5813 O   0  0  0  0  0  0  0  0  0  0  0  0
   11.2312  -19.3247   22.7678 O   0  0  0  0  0  0  0  0  0  0  0  0
    9.9405  -19.2558   23.2819 C   0  0  0  0  0  0  0  0  0  0  0  0
    9.3735  -17.8721   23.0691 C   0  0  2  0  0  0  0  0  0  0  0  0
    9.3340  -17.4861   21.6889 N   0  0  0  0  0  0  0  0  0  0  0  0
   10.0406  -16.8804   23.9299 C   0  0  0  0  0  0  0  0  0  0  0  0
   11.1284  -16.3472   23.5353 O   0  0  0  0  0  0  0  0  0  0  0  0
    9.5496  -16.4695   25.1887 N   0  0  0  0  0  0  0  0  0  0  0  0
   10.3594  -15.6554   26.1083 C   0  0  1  0  0  0  0  0  0  0  0  0
   10.0524  -14.2164   25.7969 C   0  0  0  0  0  0  0  0  0  0  0  0
    8.7235  -13.7760   26.2561 C   0  0  0  0  0  0  0  0  0  0  0  0
    8.5260  -13.0292   27.4103 C   0  0  0  0  0  0  0  0  0  0  0  0
    7.2683  -12.6236   27.8199 C   0  0  0  0  0  0  0  0  0  0  0  0
    6.1484  -12.9678   27.0594 C   0  0  0  0  0  0  0  0  0  0  0  0
    6.3363  -13.7079   25.9141 C   0  0  0  0  0  0  0  0  0  0  0  0
    7.6009  -14.0990   25.5288 C   0  0  0  0  0  0  0  0  0  0  0  0
   10.1392  -16.0413   27.5023 C   0  0  0  0  0  0  0  0  0  0  0  0
    9.2332  -17.0319   27.8640 O   0  0  0  0  0  0  0  0  0  0  0  0
   10.7876  -15.4616   28.4061 O   0  0  0  0  0  0  0  0  0  0  0  0
  2  3  1  0
  2  1  1  0
  3  4  1  0
  4  5  1  0
  5  6  1  1
  7  5  1  0
  7 12  1  0
  8  7  2  0
  9 10  1  0
 11 10  1  6
 11 12  1  0
 11 13  1  0
 13 14  2  0
 15 13  1  0
 15 16  1  0
 16 24  1  0
 16 17  1  1
 18 17  1  0
 19 18  2  0
 20 19  1  0
 21 20  2  0
 22 21  1  0
 22 23  2  0
 23 18  1  0
 24 26  2  0
 24 25  1  0
M  END
$$$$
