MSF.pdb
     RDKit          3D

 26 26  0  0  1  0  0  0  0  0999 V2000
    8.2407  -12.0863   19.2496 C   0  0  0  0  0  0  0  0  0  0  0  0
    7.3748  -13.4785   18.5666 S   0  0  0  0  0  0  0  0  0  0  0  0
    8.2620  -14.9774   18.3228 C   0  0  0  0  0  0  0  0  0  0  0  0
    9.6486  -15.1195   18.8379 C   0  0  0  0  0  0  0  0  0  0  0  0
    9.8553  -16.2799   19.7173 C   0  0  2  0  0  0  0  0  0  0  0  0
    9.3303  -17.4713   19.1601 N   0  0  0  0  0  0  0  0  0  0  0  0
    9.3323  -16.0552   21.1088 C   0  0  0  0  0  0  0  0  0  0  0  0
    9.6940  -15.0406   21.7383 O   0  0  0  0  0  0  0  0  0  0  0  0
    7.3874  -19.0093   23.5417 O   0  0  0  0  0  0  0  0  0  0  0  0
    6.8098  -17.7516   23.4014 C   0  0  0  0  0  0  0  0  0  0  0  0
    7.8681  -16.7348   23.0441 C   0  0  2  0  0  0  0  0  0  0  0  0
    8.4395  -16.9492   21.7467 N   0  0  0  0  0  0  0  0  0  0  0  0
    8.8776  -16.6136   24.1097 C   0  0  0  0  0  0  0  0  0  0  0  0
   10.0594  -17.0397   23.8971 O   0  0  0  0  0  0  0  0  0  0  0  0
    8.6234  -16.0464   25.3778 N   0  0  0  0  0  0  0  0  0  0  0  0
    9.6650  -15.9657   26.4136 C   0  0  1  0  0  0  0  0  0  0  0  0
    9.7484  -14.5235   26.8319 C   0  0  0  0  0  0  0  0  0  0  0  0
    8.4495  -13.8280   26.8415 C   0  0  0  0  0  0  0  0  0  0  0  0
    7.3726  -14.2162   26.0550 C   0  0  0  0  0  0  0  0  0  0  0  0
    6.1606  -13.5496   26.0836 C   0  0  0  0  0  0  0  0  0  0  0  0
    5.9968  -12.4473   26.9256 C   0  0  0  0  0  0  0  0  0  0  0  0
    7.0598  -12.0566   27.7080 C   0  0  0  0  0  0  0  0  0  0  0  0
    8.2568  -12.7389   27.6600 C   0  0  0  0  0  0  0  0  0  0  0  0
    9.4108  -16.9066   27.5047 C   0  0  0  0  0  0  0  0  0  0  0  0
    8.2684  -17.6976   27.5517 O   0  0  0  0  0  0  0  0  0  0  0  0
   10.2492  -17.0069   28.4324 O   0  0  0  0  0  0  0  0  0  0  0  0
  2  3  1  0
  2  1  1  0
  3  4  1  0
  4  5  1  0
  5  6  1  6
  7  5  1  0
  7 12  1  0
  8  7  2  0
  9 10  1  0
 11 10  1  1
 11 12  1  0
 11 13  1  0
 13 14  2  0
 15 13  1  0
 15 16  1  0
 16 24  1  0
 16 17  1  1
 18 17  1  0
 19 18  2  0
 20 19  1  0
 21 20  2  0
 22 21  1  0
 22 23  2  0
 23 18  1  0
 24 26  2  0
 24 25  1  0
M  END
$$$$
