MSF.pdb
     RDKit          3D

 26 26  0  0  1  0  0  0  0  0999 V2000
    7.9938  -11.1623   21.0693 C   0  0  0  0  0  0  0  0  0  0  0  0
    8.7451  -12.4823   20.1486 S   0  0  0  0  0  0  0  0  0  0  0  0
    8.1140  -14.1108   20.3555 C   0  0  0  0  0  0  0  0  0  0  0  0
    8.7408  -15.2535   19.6418 C   0  0  0  0  0  0  0  0  0  0  0  0
    8.1187  -16.5574   19.9157 C   0  0  2  0  0  0  0  0  0  0  0  0
    6.7850  -16.6215   19.4437 N   0  0  0  0  0  0  0  0  0  0  0  0
    8.2006  -16.9476   21.3653 C   0  0  0  0  0  0  0  0  0  0  0  0
    7.2805  -16.6127   22.1385 O   0  0  0  0  0  0  0  0  0  0  0  0
   11.4242  -19.2789   22.9948 O   0  0  0  0  0  0  0  0  0  0  0  0
   10.1247  -19.3661   23.4835 C   0  0  0  0  0  0  0  0  0  0  0  0
    9.4083  -18.0518   23.2820 C   0  0  2  0  0  0  0  0  0  0  0  0
    9.2834  -17.6846   21.9017 N   0  0  0  0  0  0  0  0  0  0  0  0
    9.9948  -16.9875   24.1144 C   0  0  0  0  0  0  0  0  0  0  0  0
   10.7730  -16.1350   23.5751 O   0  0  0  0  0  0  0  0  0  0  0  0
    9.7507  -16.8418   25.4977 N   0  0  0  0  0  0  0  0  0  0  0  0
   10.5000  -15.8789   26.3198 C   0  0  1  0  0  0  0  0  0  0  0  0
   10.2765  -14.5227   25.7093 C   0  0  0  0  0  0  0  0  0  0  0  0
    8.9285  -13.9764   25.9444 C   0  0  0  0  0  0  0  0  0  0  0  0
    7.8127  -14.3618   25.2126 C   0  0  0  0  0  0  0  0  0  0  0  0
    6.5555  -13.8373   25.4540 C   0  0  0  0  0  0  0  0  0  0  0  0
    6.3841  -12.8875   26.4636 C   0  0  0  0  0  0  0  0  0  0  0  0
    7.4853  -12.5005   27.1931 C   0  0  0  0  0  0  0  0  0  0  0  0
    8.7271  -13.0392   26.9316 C   0  0  0  0  0  0  0  0  0  0  0  0
   10.1361  -15.9824   27.7331 C   0  0  0  0  0  0  0  0  0  0  0  0
   10.7538  -15.2182   28.7166 O   0  0  0  0  0  0  0  0  0  0  0  0
    9.2363  -16.7870   28.0746 O   0  0  0  0  0  0  0  0  0  0  0  0
  2  3  1  0
  2  1  1  0
  3  4  1  0
  4  5  1  0
  5  6  1  1
  7  5  1  0
  7 12  1  0
  8  7  2  0
  9 10  1  0
 11 10  1  6
 11 12  1  0
 11 13  1  0
 13 14  2  0
 15 13  1  0
 15 16  1  0
 16 24  1  0
 16 17  1  6
 18 17  1  0
 19 18  2  0
 20 19  1  0
 21 20  2  0
 22 21  1  0
 22 23  2  0
 23 18  1  0
 24 26  2  0
 24 25  1  0
M  END
$$$$
