MSF.pdb
     RDKit          3D

 26 26  0  0  1  0  0  0  0  0999 V2000
    8.5084  -11.1858   20.4431 C   0  0  0  0  0  0  0  0  0  0  0  0
    8.2713  -12.4133   19.1815 S   0  0  0  0  0  0  0  0  0  0  0  0
    7.8043  -14.0365   19.6716 C   0  0  0  0  0  0  0  0  0  0  0  0
    8.4937  -14.7041   20.8060 C   0  0  0  0  0  0  0  0  0  0  0  0
    8.1231  -16.1141   20.9987 C   0  0  2  0  0  0  0  0  0  0  0  0
    6.8132  -16.3891   20.5362 N   0  0  0  0  0  0  0  0  0  0  0  0
    8.3051  -16.5741   22.4184 C   0  0  0  0  0  0  0  0  0  0  0  0
    7.3513  -16.4766   23.2166 O   0  0  0  0  0  0  0  0  0  0  0  0
   11.9049  -18.3918   23.7168 O   0  0  0  0  0  0  0  0  0  0  0  0
   10.6923  -18.7823   24.2756 C   0  0  0  0  0  0  0  0  0  0  0  0
    9.7072  -17.6385   24.2219 C   0  0  2  0  0  0  0  0  0  0  0  0
    9.5201  -17.1185   22.8989 N   0  0  0  0  0  0  0  0  0  0  0  0
   10.0367  -16.5993   25.2124 C   0  0  0  0  0  0  0  0  0  0  0  0
   10.7333  -15.5956   24.8511 O   0  0  0  0  0  0  0  0  0  0  0  0
    9.6264  -16.6371   26.5631 N   0  0  0  0  0  0  0  0  0  0  0  0
   10.1513  -15.6903   27.5593 C   0  0  1  0  0  0  0  0  0  0  0  0
    8.9603  -15.0815   28.2470 C   0  0  0  0  0  0  0  0  0  0  0  0
    8.1534  -14.2048   27.3804 C   0  0  0  0  0  0  0  0  0  0  0  0
    6.9835  -14.6189   26.7568 C   0  0  0  0  0  0  0  0  0  0  0  0
    6.2401  -13.7762   25.9500 C   0  0  0  0  0  0  0  0  0  0  0  0
    6.6652  -12.4617   25.7444 C   0  0  0  0  0  0  0  0  0  0  0  0
    7.8239  -12.0441   26.3591 C   0  0  0  0  0  0  0  0  0  0  0  0
    8.5458  -12.9047   27.1584 C   0  0  0  0  0  0  0  0  0  0  0  0
   11.1141  -16.3322   28.4546 C   0  0  0  0  0  0  0  0  0  0  0  0
   11.9232  -15.6042   29.3196 O   0  0  0  0  0  0  0  0  0  0  0  0
   11.2172  -17.5824   28.4452 O   0  0  0  0  0  0  0  0  0  0  0  0
  2  3  1  0
  2  1  1  0
  3  4  1  0
  4  5  1  0
  5  6  1  1
  7  5  1  0
  7 12  1  0
  8  7  2  0
  9 10  1  0
 11 10  1  6
 11 12  1  0
 11 13  1  0
 13 14  2  0
 15 13  1  0
 15 16  1  0
 16 24  1  0
 16 17  1  1
 18 17  1  0
 19 18  2  0
 20 19  1  0
 21 20  2  0
 22 21  1  0
 22 23  2  0
 23 18  1  0
 24 26  2  0
 24 25  1  0
M  END
$$$$
