MSF.pdb
     RDKit          3D

 26 26  0  0  1  0  0  0  0  0999 V2000
    8.6183  -11.6385   20.0877 C   0  0  0  0  0  0  0  0  0  0  0  0
    8.3151  -12.7594   18.7438 S   0  0  0  0  0  0  0  0  0  0  0  0
    7.7842  -14.3931   19.1211 C   0  0  0  0  0  0  0  0  0  0  0  0
    7.5372  -14.7938   20.5305 C   0  0  0  0  0  0  0  0  0  0  0  0
    7.2845  -16.2300   20.7196 C   0  0  2  0  0  0  0  0  0  0  0  0
    6.2542  -16.7062   19.8727 N   0  0  0  0  0  0  0  0  0  0  0  0
    7.0167  -16.5891   22.1547 C   0  0  0  0  0  0  0  0  0  0  0  0
    5.8832  -16.3809   22.6327 O   0  0  0  0  0  0  0  0  0  0  0  0
    9.1774  -19.3438   24.5532 O   0  0  0  0  0  0  0  0  0  0  0  0
    7.8909  -18.8603   24.7685 C   0  0  0  0  0  0  0  0  0  0  0  0
    7.8217  -17.3966   24.4022 C   0  0  2  0  0  0  0  0  0  0  0  0
    7.9993  -17.1583   22.9997 N   0  0  0  0  0  0  0  0  0  0  0  0
    8.7193  -16.5891   25.2460 C   0  0  0  0  0  0  0  0  0  0  0  0
    9.8186  -16.1684   24.7582 O   0  0  0  0  0  0  0  0  0  0  0  0
    8.4421  -16.2404   26.5861 N   0  0  0  0  0  0  0  0  0  0  0  0
    9.4473  -15.5910   27.4418 C   0  0  1  0  0  0  0  0  0  0  0  0
    8.7327  -14.5095   28.2043 C   0  0  0  0  0  0  0  0  0  0  0  0
    8.0058  -13.5555   27.3486 C   0  0  0  0  0  0  0  0  0  0  0  0
    8.6261  -12.5104   26.6764 C   0  0  0  0  0  0  0  0  0  0  0  0
    7.9230  -11.6288   25.8749 C   0  0  0  0  0  0  0  0  0  0  0  0
    6.5425  -11.7797   25.7253 C   0  0  0  0  0  0  0  0  0  0  0  0
    5.9207  -12.8132   26.3886 C   0  0  0  0  0  0  0  0  0  0  0  0
    6.6455  -13.6776   27.1811 C   0  0  0  0  0  0  0  0  0  0  0  0
   10.1524  -16.5651   28.2753 C   0  0  0  0  0  0  0  0  0  0  0  0
    9.8227  -17.9157   28.2787 O   0  0  0  0  0  0  0  0  0  0  0  0
   11.0873  -16.1733   29.0141 O   0  0  0  0  0  0  0  0  0  0  0  0
  2  3  1  0
  2  1  1  0
  3  4  1  0
  4  5  1  0
  5  6  1  6
  7  5  1  0
  7 12  1  0
  8  7  2  0
  9 10  1  0
 11 10  1  6
 11 12  1  0
 11 13  1  0
 13 14  2  0
 15 13  1  0
 15 16  1  0
 16 24  1  0
 16 17  1  1
 18 17  1  0
 19 18  2  0
 20 19  1  0
 21 20  2  0
 22 21  1  0
 22 23  2  0
 23 18  1  0
 24 26  2  0
 24 25  1  0
M  END
$$$$
