MSF.pdb
     RDKit          3D

 26 26  0  0  1  0  0  0  0  0999 V2000
    7.5255  -11.7733   19.5277 C   0  0  0  0  0  0  0  0  0  0  0  0
    7.6523  -12.6361   17.9806 S   0  0  0  0  0  0  0  0  0  0  0  0
    8.0896  -14.3395   18.0065 C   0  0  0  0  0  0  0  0  0  0  0  0
    8.3134  -15.0359   19.3000 C   0  0  0  0  0  0  0  0  0  0  0  0
    8.6079  -16.4712   19.1755 C   0  0  2  0  0  0  0  0  0  0  0  0
    7.6391  -17.1485   18.3956 N   0  0  0  0  0  0  0  0  0  0  0  0
    8.7991  -17.1429   20.5068 C   0  0  0  0  0  0  0  0  0  0  0  0
    7.7975  -17.4286   21.1937 O   0  0  0  0  0  0  0  0  0  0  0  0
   12.6795  -17.6175   22.2767 O   0  0  0  0  0  0  0  0  0  0  0  0
   11.6699  -18.5300   22.5648 C   0  0  0  0  0  0  0  0  0  0  0  0
   10.3189  -17.8813   22.3767 C   0  0  2  0  0  0  0  0  0  0  0  0
   10.0749  -17.4705   21.0249 N   0  0  0  0  0  0  0  0  0  0  0  0
   10.0986  -16.8056   23.3585 C   0  0  0  0  0  0  0  0  0  0  0  0
   10.3335  -15.5995   23.0216 O   0  0  0  0  0  0  0  0  0  0  0  0
    9.6356  -17.0206   24.6753 N   0  0  0  0  0  0  0  0  0  0  0  0
    9.3777  -15.9042   25.5981 C   0  0  1  0  0  0  0  0  0  0  0  0
    8.3877  -14.9998   24.9170 C   0  0  0  0  0  0  0  0  0  0  0  0
    7.9357  -13.8727   25.7513 C   0  0  0  0  0  0  0  0  0  0  0  0
    8.7788  -12.8539   26.1759 C   0  0  0  0  0  0  0  0  0  0  0  0
    8.3306  -11.8031   26.9562 C   0  0  0  0  0  0  0  0  0  0  0  0
    6.9885  -11.7487   27.3391 C   0  0  0  0  0  0  0  0  0  0  0  0
    6.1468  -12.7550   26.9222 C   0  0  0  0  0  0  0  0  0  0  0  0
    6.6197  -13.7907   26.1449 C   0  0  0  0  0  0  0  0  0  0  0  0
    8.9639  -16.3831   26.9172 C   0  0  0  0  0  0  0  0  0  0  0  0
    8.0354  -17.4053   27.0781 O   0  0  0  0  0  0  0  0  0  0  0  0
    9.4609  -15.8566   27.9415 O   0  0  0  0  0  0  0  0  0  0  0  0
  2  3  1  0
  2  1  1  0
  3  4  1  0
  4  5  1  0
  5  6  1  1
  7  5  1  0
  7 12  1  0
  8  7  2  0
  9 10  1  0
 11 10  1  6
 11 12  1  0
 11 13  1  0
 13 14  2  0
 15 13  1  0
 15 16  1  0
 16 24  1  0
 16 17  1  6
 18 17  1  0
 19 18  2  0
 20 19  1  0
 21 20  2  0
 22 21  1  0
 22 23  2  0
 23 18  1  0
 24 26  2  0
 24 25  1  0
M  END
$$$$
