CVP.pdb
     RDKit          3D

 21 21  0  0  1  0  0  0  0  0999 V2000
   13.1098  -16.7899   19.1293 N   0  0  0  0  0  0  0  0  0  0  0  0
   11.8915  -17.3689   19.6633 C   0  0  1  0  0  0  0  0  0  0  0  0
   12.2323  -18.5936   20.4412 C   0  0  0  0  0  0  0  0  0  0  0  0
   10.7097  -19.3523   21.0945 S   0  0  0  0  0  0  0  0  0  0  0  0
   11.1139  -16.3517   20.3990 C   0  0  0  0  0  0  0  0  0  0  0  0
   11.6957  -15.6932   21.2969 O   0  0  0  0  0  0  0  0  0  0  0  0
    6.6770  -15.4982   20.1560 C   0  0  0  0  0  0  0  0  0  0  0  0
    7.8152  -14.5560   20.3266 C   0  0  1  0  0  0  0  0  0  0  0  0
    7.3543  -13.3849   21.1607 C   0  0  0  0  0  0  0  0  0  0  0  0
    9.0397  -15.1518   20.9944 C   0  0  2  0  0  0  0  0  0  0  0  0
    9.7547  -16.0513   20.1747 N   0  0  0  0  0  0  0  0  0  0  0  0
    8.7653  -15.5563   22.3823 C   0  0  0  0  0  0  0  0  0  0  0  0
    9.3191  -16.6471   22.7485 O   0  0  0  0  0  0  0  0  0  0  0  0
    7.9789  -14.9084   23.3560 N   0  0  0  0  0  0  0  0  0  0  0  0
    7.1789  -13.7239   23.3453 C   0  0  0  0  0  0  0  0  0  0  0  0
    7.7121  -13.0155   24.5797 C   0  0  0  0  0  0  0  0  0  0  0  0
    7.9726  -14.1544   25.5429 C   0  0  0  0  0  0  0  0  0  0  0  0
    7.8375  -15.4085   24.7213 C   0  0  1  0  0  0  0  0  0  0  0  0
    6.5078  -16.0173   24.9711 C   0  0  0  0  0  0  0  0  0  0  0  0
    6.2348  -16.7028   26.1571 O   0  0  0  0  0  0  0  0  0  0  0  0
    5.5503  -15.9661   24.1600 O   0  0  0  0  0  0  0  0  0  0  0  0
  2  1  1  1
  3  2  1  0
  4  3  1  0
  5 11  1  0
  5  2  1  0
  6  5  2  0
  8  7  1  1
  8 10  1  0
  9  8  1  0
 10 12  1  0
 10 11  1  6
 12 14  1  0
 13 12  2  0
 14 15  1  0
 14 18  1  0
 15 16  1  0
 16 17  1  0
 18 19  1  6
 18 17  1  0
 19 20  1  0
 21 19  2  0
M  END
$$$$
