CVP.pdb
     RDKit          3D

 21 21  0  0  1  0  0  0  0  0999 V2000
    8.7744  -14.5736   20.5245 N   0  0  0  0  0  0  0  0  0  0  0  0
    8.1820  -15.3578   21.5917 C   0  0  1  0  0  0  0  0  0  0  0  0
    8.6609  -16.7654   21.4878 C   0  0  0  0  0  0  0  0  0  0  0  0
    7.8880  -17.7770   22.7916 S   0  0  0  0  0  0  0  0  0  0  0  0
    8.4107  -14.7097   22.8987 C   0  0  0  0  0  0  0  0  0  0  0  0
    9.5647  -14.2870   23.1590 O   0  0  0  0  0  0  0  0  0  0  0  0
    6.9221  -13.0559   27.3444 C   0  0  0  0  0  0  0  0  0  0  0  0
    6.6313  -13.4074   25.9287 C   0  0  1  0  0  0  0  0  0  0  0  0
    6.3202  -12.1403   25.1688 C   0  0  0  0  0  0  0  0  0  0  0  0
    7.7577  -14.1208   25.2059 C   0  0  2  0  0  0  0  0  0  0  0  0
    7.4289  -14.5207   23.8928 N   0  0  0  0  0  0  0  0  0  0  0  0
    8.4334  -15.0987   26.0733 C   0  0  0  0  0  0  0  0  0  0  0  0
    8.2693  -16.3210   25.7424 O   0  0  0  0  0  0  0  0  0  0  0  0
    9.2313  -14.8714   27.2126 N   0  0  0  0  0  0  0  0  0  0  0  0
    9.3359  -13.7887   28.1400 C   0  0  0  0  0  0  0  0  0  0  0  0
   10.8381  -13.5580   28.1317 C   0  0  0  0  0  0  0  0  0  0  0  0
   11.3996  -14.9592   28.0137 C   0  0  0  0  0  0  0  0  0  0  0  0
   10.2179  -15.8352   27.6940 C   0  0  1  0  0  0  0  0  0  0  0  0
    9.7784  -16.5345   28.9264 C   0  0  0  0  0  0  0  0  0  0  0  0
   10.5440  -17.5560   29.4934 O   0  0  0  0  0  0  0  0  0  0  0  0
    8.7145  -16.2713   29.5396 O   0  0  0  0  0  0  0  0  0  0  0  0
  2  1  1  6
  3  2  1  0
  4  3  1  0
  5 11  1  0
  5  2  1  0
  6  5  2  0
  8  7  1  1
  8 10  1  0
  9  8  1  0
 10 12  1  0
 10 11  1  6
 12 14  1  0
 13 12  2  0
 14 15  1  0
 14 18  1  0
 15 16  1  0
 16 17  1  0
 18 19  1  1
 18 17  1  0
 19 20  1  0
 21 19  2  0
M  END
$$$$
