CVP.pdb
     RDKit          3D

 21 21  0  0  1  0  0  0  0  0999 V2000
    8.8403  -14.9901   20.3873 N   0  0  0  0  0  0  0  0  0  0  0  0
    8.1891  -15.5572   21.5531 C   0  0  1  0  0  0  0  0  0  0  0  0
    8.4761  -17.0186   21.6109 C   0  0  0  0  0  0  0  0  0  0  0  0
    7.4349  -17.8010   22.8854 S   0  0  0  0  0  0  0  0  0  0  0  0
    8.5470  -14.7968   22.7673 C   0  0  0  0  0  0  0  0  0  0  0  0
    9.7633  -14.6803   23.0590 O   0  0  0  0  0  0  0  0  0  0  0  0
    5.7982  -13.8934   26.2698 C   0  0  0  0  0  0  0  0  0  0  0  0
    6.8805  -13.0554   25.6880 C   0  0  1  0  0  0  0  0  0  0  0  0
    7.5344  -12.2686   26.7985 C   0  0  0  0  0  0  0  0  0  0  0  0
    7.9647  -13.8295   24.9632 C   0  0  2  0  0  0  0  0  0  0  0  0
    7.6259  -14.1799   23.6385 N   0  0  0  0  0  0  0  0  0  0  0  0
    8.5613  -14.8685   25.8176 C   0  0  0  0  0  0  0  0  0  0  0  0
    8.5052  -16.0545   25.3479 O   0  0  0  0  0  0  0  0  0  0  0  0
    9.1816  -14.7336   27.0759 N   0  0  0  0  0  0  0  0  0  0  0  0
    9.0510  -13.7889   28.1407 C   0  0  0  0  0  0  0  0  0  0  0  0
   10.5082  -13.4231   28.3698 C   0  0  0  0  0  0  0  0  0  0  0  0
   11.2299  -14.7360   28.1508 C   0  0  0  0  0  0  0  0  0  0  0  0
   10.2002  -15.6619   27.5607 C   0  0  1  0  0  0  0  0  0  0  0  0
    9.6899  -16.5666   28.6199 C   0  0  0  0  0  0  0  0  0  0  0  0
   10.5066  -17.5420   29.1967 O   0  0  0  0  0  0  0  0  0  0  0  0
    8.5176  -16.5284   29.0690 O   0  0  0  0  0  0  0  0  0  0  0  0
  2  1  1  6
  3  2  1  0
  4  3  1  0
  5 11  1  0
  5  2  1  0
  6  5  2  0
  8  7  1  1
  8 10  1  0
  9  8  1  0
 10 12  1  0
 10 11  1  6
 12 14  1  0
 13 12  2  0
 14 15  1  0
 14 18  1  0
 15 16  1  0
 16 17  1  0
 18 19  1  1
 18 17  1  0
 19 20  1  0
 21 19  2  0
M  END
$$$$
