CVP.pdb
     RDKit          3D

 21 21  0  0  1  0  0  0  0  0999 V2000
    9.5969  -16.4675   19.3973 N   0  0  0  0  0  0  0  0  0  0  0  0
   10.1800  -16.5119   20.7250 C   0  0  1  0  0  0  0  0  0  0  0  0
   11.5001  -15.8205   20.7026 C   0  0  0  0  0  0  0  0  0  0  0  0
   12.2987  -15.9641   22.3343 S   0  0  0  0  0  0  0  0  0  0  0  0
    9.2216  -16.0068   21.7285 C   0  0  0  0  0  0  0  0  0  0  0  0
    8.6056  -14.9409   21.4787 O   0  0  0  0  0  0  0  0  0  0  0  0
    6.5921  -18.0239   23.4296 C   0  0  0  0  0  0  0  0  0  0  0  0
    6.9631  -16.9478   24.3870 C   0  0  1  0  0  0  0  0  0  0  0  0
    7.3922  -17.5831   25.6878 C   0  0  0  0  0  0  0  0  0  0  0  0
    8.0834  -16.0386   23.9195 C   0  0  2  0  0  0  0  0  0  0  0  0
    8.9339  -16.6295   22.9604 N   0  0  0  0  0  0  0  0  0  0  0  0
    8.7075  -15.3167   25.0395 C   0  0  0  0  0  0  0  0  0  0  0  0
    9.9788  -15.4153   25.1067 O   0  0  0  0  0  0  0  0  0  0  0  0
    8.0970  -14.5367   26.0422 N   0  0  0  0  0  0  0  0  0  0  0  0
    6.7361  -14.2688   26.3875 C   0  0  0  0  0  0  0  0  0  0  0  0
    6.7600  -12.7508   26.4597 C   0  0  0  0  0  0  0  0  0  0  0  0
    8.1208  -12.4572   27.0550 C   0  0  0  0  0  0  0  0  0  0  0  0
    8.8601  -13.7681   27.0225 C   0  0  1  0  0  0  0  0  0  0  0  0
    8.8327  -14.3799   28.3738 C   0  0  0  0  0  0  0  0  0  0  0  0
    9.5634  -13.8349   29.4321 O   0  0  0  0  0  0  0  0  0  0  0  0
    8.1699  -15.4062   28.6649 O   0  0  0  0  0  0  0  0  0  0  0  0
  2  1  1  6
  3  2  1  0
  4  3  1  0
  5 11  1  0
  5  2  1  0
  6  5  2  0
  8  7  1  6
  8 10  1  0
  9  8  1  0
 10 12  1  0
 10 11  1  1
 12 14  1  0
 13 12  2  0
 14 15  1  0
 14 18  1  0
 15 16  1  0
 16 17  1  0
 18 19  1  1
 18 17  1  0
 19 20  1  0
 21 19  2  0
M  END
$$$$
