CVP.pdb
     RDKit          3D

 21 21  0  0  1  0  0  0  0  0999 V2000
    8.4953  -14.7486   20.3630 N   0  0  0  0  0  0  0  0  0  0  0  0
    8.0656  -15.5004   21.5270 C   0  0  1  0  0  0  0  0  0  0  0  0
    8.5463  -16.9060   21.4060 C   0  0  0  0  0  0  0  0  0  0  0  0
    7.9964  -17.8718   22.8502 S   0  0  0  0  0  0  0  0  0  0  0  0
    8.4610  -14.8043   22.7679 C   0  0  0  0  0  0  0  0  0  0  0  0
    9.6305  -14.3532   22.8498 O   0  0  0  0  0  0  0  0  0  0  0  0
    6.4879  -12.2281   25.2582 C   0  0  0  0  0  0  0  0  0  0  0  0
    7.1144  -13.3839   25.9540 C   0  0  1  0  0  0  0  0  0  0  0  0
    6.0278  -14.3454   26.3714 C   0  0  0  0  0  0  0  0  0  0  0  0
    8.1258  -14.1530   25.1259 C   0  0  2  0  0  0  0  0  0  0  0  0
    7.6243  -14.5986   23.8840 N   0  0  0  0  0  0  0  0  0  0  0  0
    8.8888  -15.1102   25.9423 C   0  0  0  0  0  0  0  0  0  0  0  0
    9.1028  -16.2423   25.3917 O   0  0  0  0  0  0  0  0  0  0  0  0
    9.4117  -14.9490   27.2411 N   0  0  0  0  0  0  0  0  0  0  0  0
    9.1174  -14.0536   28.3157 C   0  0  0  0  0  0  0  0  0  0  0  0
   10.5116  -13.5476   28.6475 C   0  0  0  0  0  0  0  0  0  0  0  0
   11.3778  -14.7732   28.4471 C   0  0  0  0  0  0  0  0  0  0  0  0
   10.4887  -15.7820   27.7706 C   0  0  1  0  0  0  0  0  0  0  0  0
   10.0096  -16.7641   28.7741 C   0  0  0  0  0  0  0  0  0  0  0  0
    8.6518  -16.8886   29.0769 O   0  0  0  0  0  0  0  0  0  0  0  0
   10.7647  -17.5388   29.4121 O   0  0  0  0  0  0  0  0  0  0  0  0
  2  1  1  6
  3  2  1  0
  4  3  1  0
  5 11  1  0
  5  2  1  0
  6  5  2  0
  8  7  1  6
  8 10  1  0
  9  8  1  0
 10 12  1  0
 10 11  1  6
 12 14  1  0
 13 12  2  0
 14 15  1  0
 14 18  1  0
 15 16  1  0
 16 17  1  0
 18 19  1  1
 18 17  1  0
 19 20  1  0
 21 19  2  0
M  END
$$$$
