CVP.pdb
     RDKit          3D

 21 21  0  0  1  0  0  0  0  0999 V2000
    8.0254  -14.2370   20.3504 N   0  0  0  0  0  0  0  0  0  0  0  0
    7.7122  -15.0692   21.4967 C   0  0  1  0  0  0  0  0  0  0  0  0
    8.2287  -16.4465   21.2566 C   0  0  0  0  0  0  0  0  0  0  0  0
    7.7969  -17.5205   22.6640 S   0  0  0  0  0  0  0  0  0  0  0  0
    8.1788  -14.4302   22.7435 C   0  0  0  0  0  0  0  0  0  0  0  0
    9.3317  -13.9314   22.7606 O   0  0  0  0  0  0  0  0  0  0  0  0
    6.4725  -11.9365   25.4285 C   0  0  0  0  0  0  0  0  0  0  0  0
    7.0695  -13.1473   26.0530 C   0  0  1  0  0  0  0  0  0  0  0  0
    5.9550  -14.0735   26.4769 C   0  0  0  0  0  0  0  0  0  0  0  0
    8.0097  -13.9284   25.1552 C   0  0  2  0  0  0  0  0  0  0  0  0
    7.4285  -14.3294   23.9330 N   0  0  0  0  0  0  0  0  0  0  0  0
    8.7838  -14.9276   25.9086 C   0  0  0  0  0  0  0  0  0  0  0  0
    8.9869  -16.0297   25.2966 O   0  0  0  0  0  0  0  0  0  0  0  0
    9.3274  -14.8346   27.2056 N   0  0  0  0  0  0  0  0  0  0  0  0
    9.0666  -13.9816   28.3225 C   0  0  0  0  0  0  0  0  0  0  0  0
   10.4756  -13.5197   28.6561 C   0  0  0  0  0  0  0  0  0  0  0  0
   11.3129  -14.7528   28.3897 C   0  0  0  0  0  0  0  0  0  0  0  0
   10.3935  -15.7122   27.6825 C   0  0  1  0  0  0  0  0  0  0  0  0
    9.9072  -16.7276   28.6487 C   0  0  0  0  0  0  0  0  0  0  0  0
   10.7804  -17.6436   29.2399 O   0  0  0  0  0  0  0  0  0  0  0  0
    8.7072  -16.8408   29.0016 O   0  0  0  0  0  0  0  0  0  0  0  0
  2  1  1  6
  3  2  1  0
  4  3  1  0
  5 11  1  0
  5  2  1  0
  6  5  2  0
  8  7  1  6
  8 10  1  0
  9  8  1  0
 10 12  1  0
 10 11  1  6
 12 14  1  0
 13 12  2  0
 14 15  1  0
 14 18  1  0
 15 16  1  0
 16 17  1  0
 18 19  1  1
 18 17  1  0
 19 20  1  0
 21 19  2  0
M  END
$$$$
