CVP.pdb
     RDKit          3D

 21 21  0  0  1  0  0  0  0  0999 V2000
    8.7292  -14.7253   20.6007 N   0  0  0  0  0  0  0  0  0  0  0  0
    7.9441  -15.3102   21.6713 C   0  0  1  0  0  0  0  0  0  0  0  0
    8.1182  -16.7903   21.6530 C   0  0  0  0  0  0  0  0  0  0  0  0
    7.0209  -17.5551   22.8906 S   0  0  0  0  0  0  0  0  0  0  0  0
    8.2546  -14.6556   22.9581 C   0  0  0  0  0  0  0  0  0  0  0  0
    9.4570  -14.4080   23.2244 O   0  0  0  0  0  0  0  0  0  0  0  0
    6.8939  -13.0249   27.4735 C   0  0  0  0  0  0  0  0  0  0  0  0
    6.5608  -13.2962   26.0495 C   0  0  1  0  0  0  0  0  0  0  0  0
    6.2300  -11.9885   25.3714 C   0  0  0  0  0  0  0  0  0  0  0  0
    7.6641  -13.9683   25.2550 C   0  0  2  0  0  0  0  0  0  0  0  0
    7.3018  -14.2779   23.9264 N   0  0  0  0  0  0  0  0  0  0  0  0
    8.3508  -15.0065   26.0397 C   0  0  0  0  0  0  0  0  0  0  0  0
    8.1252  -16.2064   25.6658 O   0  0  0  0  0  0  0  0  0  0  0  0
    9.2175  -14.8578   27.1411 N   0  0  0  0  0  0  0  0  0  0  0  0
    9.3978  -13.8311   28.1191 C   0  0  0  0  0  0  0  0  0  0  0  0
   10.9015  -13.6268   28.0356 C   0  0  0  0  0  0  0  0  0  0  0  0
   11.4259  -15.0289   27.8078 C   0  0  0  0  0  0  0  0  0  0  0  0
   10.2098  -15.8645   27.5100 C   0  0  1  0  0  0  0  0  0  0  0  0
    9.8273  -16.6242   28.7255 C   0  0  0  0  0  0  0  0  0  0  0  0
   10.6284  -17.6571   29.2178 O   0  0  0  0  0  0  0  0  0  0  0  0
    8.7836  -16.4053   29.3890 O   0  0  0  0  0  0  0  0  0  0  0  0
  2  1  1  6
  3  2  1  0
  4  3  1  0
  5 11  1  0
  5  2  1  0
  6  5  2  0
  8  7  1  1
  8 10  1  0
  9  8  1  0
 10 12  1  0
 10 11  1  6
 12 14  1  0
 13 12  2  0
 14 15  1  0
 14 18  1  0
 15 16  1  0
 16 17  1  0
 18 19  1  1
 18 17  1  0
 19 20  1  0
 21 19  2  0
M  END
$$$$
