WFR.pdb
     RDKit          3D

 37 39  0  0  1  0  0  0  0  0999 V2000
    7.8511  -15.3442   21.5954 N   0  0  0  0  0  0  0  0  0  0  0  0
    9.3127  -15.1665   21.7557 C   0  0  1  0  0  0  0  0  0  0  0  0
    9.6534  -13.8823   21.1086 C   0  0  0  0  0  0  0  0  0  0  0  0
    8.9850  -13.5578   19.8531 C   0  0  0  0  0  0  0  0  0  0  0  0
    9.1649  -12.3828   19.1297 C   0  0  0  0  0  0  0  0  0  0  0  0
    8.4359  -12.4204   18.0259 N   0  0  0  0  0  0  0  0  0  0  0  0
    7.7681  -13.6103   18.0029 C   0  0  0  0  0  0  0  0  0  0  0  0
    6.8819  -14.1634   17.1138 C   0  0  0  0  0  0  0  0  0  0  0  0
    6.3302  -15.4110   17.3411 C   0  0  0  0  0  0  0  0  0  0  0  0
    6.6365  -16.1490   18.4531 C   0  0  0  0  0  0  0  0  0  0  0  0
    7.5357  -15.5850   19.3526 C   0  0  0  0  0  0  0  0  0  0  0  0
    8.1019  -14.3397   19.1471 C   0  0  0  0  0  0  0  0  0  0  0  0
    9.6273  -15.3432   23.1666 C   0  0  0  0  0  0  0  0  0  0  0  0
   10.7656  -15.0838   23.6755 O   0  0  0  0  0  0  0  0  0  0  0  0
    8.6595  -15.8312   24.0944 N   0  0  0  0  0  0  0  0  0  0  0  0
    8.9943  -16.0133   25.5347 C   0  0  1  0  0  0  0  0  0  0  0  0
    7.8144  -15.5074   26.2638 C   0  0  0  0  0  0  0  0  0  0  0  0
    7.5932  -14.0709   26.3347 C   0  0  0  0  0  0  0  0  0  0  0  0
    6.5433  -13.4630   25.6809 C   0  0  0  0  0  0  0  0  0  0  0  0
    6.3084  -12.0969   25.7703 C   0  0  0  0  0  0  0  0  0  0  0  0
    7.1371  -11.3226   26.5265 C   0  0  0  0  0  0  0  0  0  0  0  0
    8.1907  -11.8965   27.1895 C   0  0  0  0  0  0  0  0  0  0  0  0
    8.4101  -13.2684   27.0878 C   0  0  0  0  0  0  0  0  0  0  0  0
    9.1999  -17.4567   25.7366 C   0  0  0  0  0  0  0  0  0  0  0  0
    8.1824  -18.2148   25.5323 O   0  0  0  0  0  0  0  0  0  0  0  0
   15.7575  -20.1998   24.2121 N   0  0  0  0  0  0  0  0  0  0  0  0
   15.0895  -19.4856   23.1608 C   0  0  0  0  0  0  0  0  0  0  0  0
   15.7511  -18.6208   22.4702 N   0  0  0  0  0  0  0  0  0  0  0  0
   13.7282  -19.7072   22.8652 N   0  0  0  0  0  0  0  0  0  0  0  0
   12.9600  -20.7058   23.5908 C   0  0  0  0  0  0  0  0  0  0  0  0
   12.4263  -20.0363   24.8144 C   0  0  0  0  0  0  0  0  0  0  0  0
   10.9732  -20.1755   24.9859 C   0  0  0  0  0  0  0  0  0  0  0  0
   10.4238  -19.5514   26.2375 C   0  0  2  0  0  0  0  0  0  0  0  0
   10.3754  -18.1127   26.1185 N   0  0  0  0  0  0  0  0  0  0  0  0
   11.0060  -20.0160   27.4936 C   0  0  0  0  0  0  0  0  0  0  0  0
   11.4828  -19.1646   28.3163 O   0  0  0  0  0  0  0  0  0  0  0  0
   11.0913  -21.3307   27.8804 O   0  0  0  0  0  0  0  0  0  0  0  0
  2  1  1  1
  2  3  1  0
  3  4  1  0
  4 12  1  0
  4  5  2  0
  5  6  1  0
  7  6  1  0
  7  8  2  0
  9  8  1  0
 10  9  2  0
 11 10  1  0
 11 12  2  0
 12  7  1  0
 13  2  1  0
 14 13  2  0
 15 13  1  0
 16 17  1  1
 16 15  1  0
 17 18  1  0
 18 19  2  0
 19 20  1  0
 21 20  2  0
 22 21  1  0
 23 22  2  0
 23 18  1  0
 24 34  1  0
 24 16  1  0
 25 24  2  0
 27 28  2  0
 27 26  1  0
 29 27  1  0
 30 29  1  0
 31 30  1  0
 33 32  1  6
 32 31  1  0
 33 34  1  0
 35 33  1  0
 35 37  1  0
 36 35  2  0
M  END
$$$$
