WFR.pdb
     RDKit          3D

 37 39  0  0  1  0  0  0  0  0999 V2000
   11.7472  -14.6197   19.7893 N   0  0  0  0  0  0  0  0  0  0  0  0
   10.3453  -14.7384   20.2522 C   0  0  1  0  0  0  0  0  0  0  0  0
    9.7121  -15.7769   19.4127 C   0  0  0  0  0  0  0  0  0  0  0  0
    9.3240  -15.4076   18.0558 C   0  0  0  0  0  0  0  0  0  0  0  0
    9.6359  -16.1303   16.9082 C   0  0  0  0  0  0  0  0  0  0  0  0
    9.1072  -15.5389   15.8490 N   0  0  0  0  0  0  0  0  0  0  0  0
    8.4438  -14.4253   16.2762 C   0  0  0  0  0  0  0  0  0  0  0  0
    7.7345  -13.4540   15.6164 C   0  0  0  0  0  0  0  0  0  0  0  0
    7.1584  -12.4017   16.3045 C   0  0  0  0  0  0  0  0  0  0  0  0
    7.2660  -12.2770   17.6638 C   0  0  0  0  0  0  0  0  0  0  0  0
    7.9859  -13.2640   18.3296 C   0  0  0  0  0  0  0  0  0  0  0  0
    8.5703  -14.3267   17.6642 C   0  0  0  0  0  0  0  0  0  0  0  0
   10.3711  -14.9269   21.6961 C   0  0  0  0  0  0  0  0  0  0  0  0
   11.4304  -15.1742   22.3585 O   0  0  0  0  0  0  0  0  0  0  0  0
    9.1839  -14.8465   22.4832 N   0  0  0  0  0  0  0  0  0  0  0  0
    9.2199  -14.3429   23.8849 C   0  0  1  0  0  0  0  0  0  0  0  0
    7.8522  -13.8513   24.1450 C   0  0  0  0  0  0  0  0  0  0  0  0
    7.5263  -13.3448   25.4696 C   0  0  0  0  0  0  0  0  0  0  0  0
    8.1621  -12.2457   26.0053 C   0  0  0  0  0  0  0  0  0  0  0  0
    7.8336  -11.7383   27.2559 C   0  0  0  0  0  0  0  0  0  0  0  0
    6.8518  -12.3393   27.9860 C   0  0  0  0  0  0  0  0  0  0  0  0
    6.1999  -13.4346   27.4816 C   0  0  0  0  0  0  0  0  0  0  0  0
    6.5433  -13.9289   26.2254 C   0  0  0  0  0  0  0  0  0  0  0  0
    9.5713  -15.4933   24.7332 C   0  0  0  0  0  0  0  0  0  0  0  0
    9.7589  -15.2493   25.9810 O   0  0  0  0  0  0  0  0  0  0  0  0
   15.7111  -16.0751   24.3494 N   0  0  0  0  0  0  0  0  0  0  0  0
   14.5555  -16.1892   23.5051 C   0  0  0  0  0  0  0  0  0  0  0  0
   13.8669  -15.1326   23.2370 N   0  0  0  0  0  0  0  0  0  0  0  0
   14.1558  -17.4281   22.9619 N   0  0  0  0  0  0  0  0  0  0  0  0
   13.5660  -18.4565   23.8037 C   0  0  0  0  0  0  0  0  0  0  0  0
   12.0998  -18.1789   23.8629 C   0  0  0  0  0  0  0  0  0  0  0  0
   11.5487  -18.1671   25.2255 C   0  0  0  0  0  0  0  0  0  0  0  0
   10.0828  -17.8477   25.3094 C   0  0  2  0  0  0  0  0  0  0  0  0
    9.7204  -16.8308   24.3498 N   0  0  0  0  0  0  0  0  0  0  0  0
    9.5563  -17.6029   26.6494 C   0  0  0  0  0  0  0  0  0  0  0  0
    9.7778  -16.4800   27.2144 O   0  0  0  0  0  0  0  0  0  0  0  0
    8.8222  -18.5034   27.3810 O   0  0  0  0  0  0  0  0  0  0  0  0
  2  1  1  6
  2  3  1  0
  3  4  1  0
  4 12  1  0
  4  5  2  0
  5  6  1  0
  7  6  1  0
  7  8  2  0
  9  8  1  0
 10  9  2  0
 11 10  1  0
 11 12  2  0
 12  7  1  0
 13  2  1  0
 14 13  2  0
 15 13  1  0
 16 17  1  1
 16 15  1  0
 17 18  1  0
 18 19  2  0
 19 20  1  0
 21 20  2  0
 22 21  1  0
 23 22  2  0
 23 18  1  0
 24 34  1  0
 24 16  1  0
 25 24  2  0
 27 28  2  0
 27 26  1  0
 29 27  1  0
 30 29  1  0
 31 30  1  0
 33 32  1  1
 32 31  1  0
 33 34  1  0
 35 33  1  0
 35 37  1  0
 36 35  2  0
M  END
$$$$
