WFR.pdb
     RDKit          3D

 37 39  0  0  1  0  0  0  0  0999 V2000
   10.3137  -15.4117   21.8374 N   0  0  0  0  0  0  0  0  0  0  0  0
    9.0886  -15.3733   22.6688 C   0  0  1  0  0  0  0  0  0  0  0  0
    8.0599  -16.1416   21.9370 C   0  0  0  0  0  0  0  0  0  0  0  0
    7.5255  -15.5608   20.7100 C   0  0  0  0  0  0  0  0  0  0  0  0
    6.4985  -16.1065   19.9460 C   0  0  0  0  0  0  0  0  0  0  0  0
    6.2359  -15.3154   18.9182 N   0  0  0  0  0  0  0  0  0  0  0  0
    7.0785  -14.2440   18.9859 C   0  0  0  0  0  0  0  0  0  0  0  0
    7.2475  -13.1409   18.1881 C   0  0  0  0  0  0  0  0  0  0  0  0
    8.2051  -12.1880   18.4841 C   0  0  0  0  0  0  0  0  0  0  0  0
    9.0243  -12.2963   19.5759 C   0  0  0  0  0  0  0  0  0  0  0  0
    8.8500  -13.4162   20.3828 C   0  0  0  0  0  0  0  0  0  0  0  0
    7.8986  -14.3823   20.1086 C   0  0  0  0  0  0  0  0  0  0  0  0
    9.4533  -15.7981   24.0132 C   0  0  0  0  0  0  0  0  0  0  0  0
   10.6553  -15.8935   24.4234 O   0  0  0  0  0  0  0  0  0  0  0  0
    8.4658  -16.1451   24.9828 N   0  0  0  0  0  0  0  0  0  0  0  0
    8.8176  -16.2962   26.4226 C   0  0  1  0  0  0  0  0  0  0  0  0
    7.7424  -15.5929   27.1501 C   0  0  0  0  0  0  0  0  0  0  0  0
    7.5720  -14.1625   26.9439 C   0  0  0  0  0  0  0  0  0  0  0  0
    6.4460  -13.6428   26.3429 C   0  0  0  0  0  0  0  0  0  0  0  0
    6.2632  -12.2765   26.1718 C   0  0  0  0  0  0  0  0  0  0  0  0
    7.2226  -11.4123   26.6089 C   0  0  0  0  0  0  0  0  0  0  0  0
    8.3546  -11.8971   27.2109 C   0  0  0  0  0  0  0  0  0  0  0  0
    8.5199  -13.2707   27.3737 C   0  0  0  0  0  0  0  0  0  0  0  0
    8.8280  -17.7416   26.7006 C   0  0  0  0  0  0  0  0  0  0  0  0
    8.7404  -18.0886   27.9350 O   0  0  0  0  0  0  0  0  0  0  0  0
   15.0874  -20.0436   22.2136 N   0  0  0  0  0  0  0  0  0  0  0  0
   13.9416  -19.4790   21.5581 C   0  0  0  0  0  0  0  0  0  0  0  0
   14.1094  -18.7965   20.4770 N   0  0  0  0  0  0  0  0  0  0  0  0
   12.6377  -19.6529   22.0674 N   0  0  0  0  0  0  0  0  0  0  0  0
   12.3212  -20.7705   22.9419 C   0  0  0  0  0  0  0  0  0  0  0  0
   12.0695  -20.2002   24.2990 C   0  0  0  0  0  0  0  0  0  0  0  0
   10.8040  -19.4610   24.4110 C   0  0  0  0  0  0  0  0  0  0  0  0
   10.0853  -19.6368   25.7188 C   0  0  2  0  0  0  0  0  0  0  0  0
    8.9144  -18.7934   25.7818 N   0  0  0  0  0  0  0  0  0  0  0  0
   10.9153  -19.5774   26.9188 C   0  0  0  0  0  0  0  0  0  0  0  0
   10.7637  -20.4581   27.8302 O   0  0  0  0  0  0  0  0  0  0  0  0
   11.8742  -18.6257   27.1637 O   0  0  0  0  0  0  0  0  0  0  0  0
  2  1  1  6
  2  3  1  0
  3  4  1  0
  4 12  1  0
  4  5  2  0
  5  6  1  0
  7  6  1  0
  7  8  2  0
  9  8  1  0
 10  9  2  0
 11 10  1  0
 11 12  2  0
 12  7  1  0
 13  2  1  0
 14 13  2  0
 15 13  1  0
 16 17  1  1
 16 15  1  0
 17 18  1  0
 18 19  2  0
 19 20  1  0
 21 20  2  0
 22 21  1  0
 23 22  2  0
 23 18  1  0
 24 34  1  0
 24 16  1  0
 25 24  2  0
 27 28  2  0
 27 26  1  0
 29 27  1  0
 30 29  1  0
 31 30  1  0
 33 32  1  6
 32 31  1  0
 33 34  1  0
 35 33  1  0
 35 37  1  0
 36 35  2  0
M  END
$$$$
