WFR.pdb
     RDKit          3D

 37 39  0  0  1  0  0  0  0  0999 V2000
   10.7654  -15.0302   20.6411 N   0  0  0  0  0  0  0  0  0  0  0  0
    9.6036  -15.2278   21.5381 C   0  0  1  0  0  0  0  0  0  0  0  0
    8.6610  -16.1085   20.8172 C   0  0  0  0  0  0  0  0  0  0  0  0
    7.8392  -15.5097   19.7710 C   0  0  0  0  0  0  0  0  0  0  0  0
    6.8881  -16.1861   19.0133 C   0  0  0  0  0  0  0  0  0  0  0  0
    6.3011  -15.3452   18.1769 N   0  0  0  0  0  0  0  0  0  0  0  0
    6.8507  -14.1105   18.3669 C   0  0  0  0  0  0  0  0  0  0  0  0
    6.6304  -12.8926   17.7753 C   0  0  0  0  0  0  0  0  0  0  0  0
    7.3505  -11.7752   18.1566 C   0  0  0  0  0  0  0  0  0  0  0  0
    8.3096  -11.8272   19.1326 C   0  0  0  0  0  0  0  0  0  0  0  0
    8.5300  -13.0640   19.7305 C   0  0  0  0  0  0  0  0  0  0  0  0
    7.8222  -14.1957   19.3676 C   0  0  0  0  0  0  0  0  0  0  0  0
   10.1129  -15.6597   22.8324 C   0  0  0  0  0  0  0  0  0  0  0  0
   11.1761  -16.3449   22.9814 O   0  0  0  0  0  0  0  0  0  0  0  0
    9.4386  -15.3380   24.0478 N   0  0  0  0  0  0  0  0  0  0  0  0
   10.0667  -15.6036   25.3724 C   0  0  1  0  0  0  0  0  0  0  0  0
    9.3144  -14.7610   26.3231 C   0  0  0  0  0  0  0  0  0  0  0  0
    9.6434  -14.8312   27.7389 C   0  0  0  0  0  0  0  0  0  0  0  0
    9.4472  -15.9791   28.4757 C   0  0  0  0  0  0  0  0  0  0  0  0
    9.7886  -16.0624   29.8195 C   0  0  0  0  0  0  0  0  0  0  0  0
   10.3364  -14.9792   30.4400 C   0  0  0  0  0  0  0  0  0  0  0  0
   10.5447  -13.8221   29.7351 C   0  0  0  0  0  0  0  0  0  0  0  0
   10.1959  -13.7579   28.3881 C   0  0  0  0  0  0  0  0  0  0  0  0
    9.8901  -17.0405   25.6379 C   0  0  0  0  0  0  0  0  0  0  0  0
    8.9037  -17.6156   25.0479 O   0  0  0  0  0  0  0  0  0  0  0  0
   12.8822  -21.2974   19.9339 N   0  0  0  0  0  0  0  0  0  0  0  0
   13.2787  -22.1203   21.0416 C   0  0  0  0  0  0  0  0  0  0  0  0
   13.8687  -23.2433   20.8100 N   0  0  0  0  0  0  0  0  0  0  0  0
   13.0390  -21.7304   22.3758 N   0  0  0  0  0  0  0  0  0  0  0  0
   12.2077  -20.5765   22.6780 C   0  0  0  0  0  0  0  0  0  0  0  0
   12.1881  -20.4348   24.1646 C   0  0  0  0  0  0  0  0  0  0  0  0
   11.6390  -19.1552   24.6354 C   0  0  0  0  0  0  0  0  0  0  0  0
   11.0603  -19.1900   26.0217 C   0  0  2  0  0  0  0  0  0  0  0  0
   10.6722  -17.8670   26.4524 N   0  0  0  0  0  0  0  0  0  0  0  0
   11.8305  -19.9282   27.0189 C   0  0  0  0  0  0  0  0  0  0  0  0
   12.2349  -21.1087   26.7506 O   0  0  0  0  0  0  0  0  0  0  0  0
   12.1675  -19.4509   28.2614 O   0  0  0  0  0  0  0  0  0  0  0  0
  2  1  1  6
  2  3  1  0
  3  4  1  0
  4 12  1  0
  4  5  2  0
  5  6  1  0
  7  6  1  0
  7  8  2  0
  9  8  1  0
 10  9  2  0
 11 10  1  0
 11 12  2  0
 12  7  1  0
 13  2  1  0
 14 13  2  0
 15 13  1  0
 16 17  1  1
 16 15  1  0
 17 18  1  0
 18 19  2  0
 19 20  1  0
 21 20  2  0
 22 21  1  0
 23 22  2  0
 23 18  1  0
 24 34  1  0
 24 16  1  0
 25 24  2  0
 27 28  2  0
 27 26  1  0
 29 27  1  0
 30 29  1  0
 31 30  1  0
 33 32  1  6
 32 31  1  0
 33 34  1  0
 35 33  1  0
 35 37  1  0
 36 35  2  0
M  END
$$$$
