WFR.pdb
     RDKit          3D

 37 39  0  0  1  0  0  0  0  0999 V2000
   11.9386  -17.3891   21.0171 N   0  0  0  0  0  0  0  0  0  0  0  0
   10.7085  -16.6391   21.3604 C   0  0  1  0  0  0  0  0  0  0  0  0
    9.6099  -17.2583   20.5900 C   0  0  0  0  0  0  0  0  0  0  0  0
    8.7630  -16.3790   19.7912 C   0  0  0  0  0  0  0  0  0  0  0  0
    8.1782  -16.7175   18.5747 C   0  0  0  0  0  0  0  0  0  0  0  0
    7.4486  -15.7063   18.1318 N   0  0  0  0  0  0  0  0  0  0  0  0
    7.5392  -14.6922   19.0405 C   0  0  0  0  0  0  0  0  0  0  0  0
    7.0025  -13.4305   19.0839 C   0  0  0  0  0  0  0  0  0  0  0  0
    7.2696  -12.5790   20.1405 C   0  0  0  0  0  0  0  0  0  0  0  0
    8.0747  -12.9478   21.1849 C   0  0  0  0  0  0  0  0  0  0  0  0
    8.6171  -14.2281   21.1377 C   0  0  0  0  0  0  0  0  0  0  0  0
    8.3640  -15.0985   20.0926 C   0  0  0  0  0  0  0  0  0  0  0  0
   10.6068  -16.5978   22.8127 C   0  0  0  0  0  0  0  0  0  0  0  0
   11.2628  -17.3644   23.5898 O   0  0  0  0  0  0  0  0  0  0  0  0
    9.7445  -15.6757   23.4772 N   0  0  0  0  0  0  0  0  0  0  0  0
    9.7938  -15.5013   24.9560 C   0  0  1  0  0  0  0  0  0  0  0  0
    9.0086  -14.2789   25.2187 C   0  0  0  0  0  0  0  0  0  0  0  0
    8.6949  -13.9261   26.5952 C   0  0  0  0  0  0  0  0  0  0  0  0
    9.6664  -13.8670   27.5708 C   0  0  0  0  0  0  0  0  0  0  0  0
    9.3787  -13.5002   28.8793 C   0  0  0  0  0  0  0  0  0  0  0  0
    8.0968  -13.1862   29.2206 C   0  0  0  0  0  0  0  0  0  0  0  0
    7.1071  -13.2350   28.2735 C   0  0  0  0  0  0  0  0  0  0  0  0
    7.4152  -13.6052   26.9664 C   0  0  0  0  0  0  0  0  0  0  0  0
    9.1722  -16.7013   25.5390 C   0  0  0  0  0  0  0  0  0  0  0  0
    8.5842  -17.4980   24.7197 O   0  0  0  0  0  0  0  0  0  0  0  0
    5.6839  -20.8183   22.5426 N   0  0  0  0  0  0  0  0  0  0  0  0
    6.8378  -20.0678   22.1344 C   0  0  0  0  0  0  0  0  0  0  0  0
    6.8007  -19.4132   21.0242 N   0  0  0  0  0  0  0  0  0  0  0  0
    8.0100  -20.0290   22.9180 N   0  0  0  0  0  0  0  0  0  0  0  0
    8.0047  -20.5029   24.2925 C   0  0  0  0  0  0  0  0  0  0  0  0
    8.1697  -19.3020   25.1649 C   0  0  0  0  0  0  0  0  0  0  0  0
    9.3433  -19.3619   26.0478 C   0  0  0  0  0  0  0  0  0  0  0  0
    9.2643  -18.4794   27.2614 C   0  0  2  0  0  0  0  0  0  0  0  0
    9.1477  -17.0903   26.8829 N   0  0  0  0  0  0  0  0  0  0  0  0
   10.2655  -18.7225   28.2964 C   0  0  0  0  0  0  0  0  0  0  0  0
   10.3237  -19.8684   28.8555 O   0  0  0  0  0  0  0  0  0  0  0  0
   11.1785  -17.7970   28.7381 O   0  0  0  0  0  0  0  0  0  0  0  0
  2  1  1  1
  2  3  1  0
  3  4  1  0
  4 12  1  0
  4  5  2  0
  5  6  1  0
  7  6  1  0
  7  8  2  0
  9  8  1  0
 10  9  2  0
 11 10  1  0
 11 12  2  0
 12  7  1  0
 13  2  1  0
 14 13  2  0
 15 13  1  0
 16 17  1  6
 16 15  1  0
 17 18  1  0
 18 19  2  0
 19 20  1  0
 21 20  2  0
 22 21  1  0
 23 22  2  0
 23 18  1  0
 24 34  1  0
 24 16  1  0
 25 24  2  0
 27 28  2  0
 27 26  1  0
 29 27  1  0
 30 29  1  0
 31 30  1  0
 33 32  1  6
 32 31  1  0
 33 34  1  0
 35 33  1  0
 35 37  1  0
 36 35  2  0
M  END
$$$$
