WFR.pdb
     RDKit          3D

 37 39  0  0  1  0  0  0  0  0999 V2000
    7.2820  -14.4512   21.6200 N   0  0  0  0  0  0  0  0  0  0  0  0
    8.4238  -15.3704   21.8317 C   0  0  1  0  0  0  0  0  0  0  0  0
    9.3678  -15.1309   20.7203 C   0  0  0  0  0  0  0  0  0  0  0  0
    8.8516  -15.2304   19.3594 C   0  0  0  0  0  0  0  0  0  0  0  0
    8.8174  -16.3947   18.5982 C   0  0  0  0  0  0  0  0  0  0  0  0
    8.2598  -16.1460   17.4241 N   0  0  0  0  0  0  0  0  0  0  0  0
    7.9202  -14.8247   17.3910 C   0  0  0  0  0  0  0  0  0  0  0  0
    7.3317  -14.0386   16.4332 C   0  0  0  0  0  0  0  0  0  0  0  0
    7.1056  -12.6927   16.6569 C   0  0  0  0  0  0  0  0  0  0  0  0
    7.4543  -12.0831   17.8324 C   0  0  0  0  0  0  0  0  0  0  0  0
    8.0507  -12.8834   18.8016 C   0  0  0  0  0  0  0  0  0  0  0  0
    8.2863  -14.2319   18.6023 C   0  0  0  0  0  0  0  0  0  0  0  0
    8.8921  -15.1861   23.1984 C   0  0  0  0  0  0  0  0  0  0  0  0
    9.1060  -14.0465   23.7253 O   0  0  0  0  0  0  0  0  0  0  0  0
    9.1499  -16.2954   24.0578 N   0  0  0  0  0  0  0  0  0  0  0  0
    9.1282  -16.1448   25.5398 C   0  0  1  0  0  0  0  0  0  0  0  0
    7.7205  -15.8445   25.8686 C   0  0  0  0  0  0  0  0  0  0  0  0
    7.3536  -14.4788   26.2115 C   0  0  0  0  0  0  0  0  0  0  0  0
    6.3143  -13.8252   25.5853 C   0  0  0  0  0  0  0  0  0  0  0  0
    5.9390  -12.5331   25.9300 C   0  0  0  0  0  0  0  0  0  0  0  0
    6.6136  -11.8806   26.9186 C   0  0  0  0  0  0  0  0  0  0  0  0
    7.6523  -12.5028   27.5613 C   0  0  0  0  0  0  0  0  0  0  0  0
    8.0140  -13.7991   27.2016 C   0  0  0  0  0  0  0  0  0  0  0  0
    9.5700  -17.4334   26.0972 C   0  0  0  0  0  0  0  0  0  0  0  0
    8.7060  -18.3850   26.0959 O   0  0  0  0  0  0  0  0  0  0  0  0
   16.8327  -20.1579   23.9118 N   0  0  0  0  0  0  0  0  0  0  0  0
   15.5580  -20.2002   23.2525 C   0  0  0  0  0  0  0  0  0  0  0  0
   15.4971  -20.6005   22.0283 N   0  0  0  0  0  0  0  0  0  0  0  0
   14.3715  -19.8151   23.9111 N   0  0  0  0  0  0  0  0  0  0  0  0
   14.3917  -19.4052   25.3059 C   0  0  0  0  0  0  0  0  0  0  0  0
   13.0155  -18.9289   25.6369 C   0  0  0  0  0  0  0  0  0  0  0  0
   12.4342  -19.5636   26.8285 C   0  0  0  0  0  0  0  0  0  0  0  0
   11.0761  -19.0509   27.2162 C   0  0  2  0  0  0  0  0  0  0  0  0
   10.8247  -17.7571   26.6253 N   0  0  0  0  0  0  0  0  0  0  0  0
   10.7472  -19.1197   28.6374 C   0  0  0  0  0  0  0  0  0  0  0  0
   10.8108  -18.0609   29.3474 O   0  0  0  0  0  0  0  0  0  0  0  0
   10.3654  -20.2597   29.3005 O   0  0  0  0  0  0  0  0  0  0  0  0
  2  1  1  6
  2  3  1  0
  3  4  1  0
  4 12  1  0
  4  5  2  0
  5  6  1  0
  7  6  1  0
  7  8  2  0
  9  8  1  0
 10  9  2  0
 11 10  1  0
 11 12  2  0
 12  7  1  0
 13  2  1  0
 14 13  2  0
 15 13  1  0
 16 17  1  1
 16 15  1  0
 17 18  1  0
 18 19  2  0
 19 20  1  0
 21 20  2  0
 22 21  1  0
 23 22  2  0
 23 18  1  0
 24 34  1  0
 24 16  1  0
 25 24  2  0
 27 28  2  0
 27 26  1  0
 29 27  1  0
 30 29  1  0
 31 30  1  0
 33 32  1  1
 32 31  1  0
 33 34  1  0
 35 33  1  0
 35 37  1  0
 36 35  2  0
M  END
$$$$
