WFR.pdb
     RDKit          3D

 37 39  0  0  1  0  0  0  0  0999 V2000
    5.2943  -19.2815   21.9663 N   0  0  0  0  0  0  0  0  0  0  0  0
    6.0699  -18.0443   21.7187 C   0  0  1  0  0  0  0  0  0  0  0  0
    5.3945  -17.3399   20.6089 C   0  0  0  0  0  0  0  0  0  0  0  0
    6.1023  -16.2298   19.9804 C   0  0  0  0  0  0  0  0  0  0  0  0
    6.6063  -16.2323   18.6834 C   0  0  0  0  0  0  0  0  0  0  0  0
    7.1617  -15.0611   18.4165 N   0  0  0  0  0  0  0  0  0  0  0  0
    7.0349  -14.2732   19.5236 C   0  0  0  0  0  0  0  0  0  0  0  0
    7.4313  -12.9901   19.8033 C   0  0  0  0  0  0  0  0  0  0  0  0
    7.1816  -12.4210   21.0387 C   0  0  0  0  0  0  0  0  0  0  0  0
    6.5338  -13.1019   22.0346 C   0  0  0  0  0  0  0  0  0  0  0  0
    6.1332  -14.4030   21.7474 C   0  0  0  0  0  0  0  0  0  0  0  0
    6.3701  -14.9939   20.5192 C   0  0  0  0  0  0  0  0  0  0  0  0
    6.2229  -17.3561   22.9930 C   0  0  0  0  0  0  0  0  0  0  0  0
    5.3405  -16.5842   23.4906 O   0  0  0  0  0  0  0  0  0  0  0  0
    7.3991  -17.5028   23.7870 N   0  0  0  0  0  0  0  0  0  0  0  0
    8.0770  -16.3201   24.3881 C   0  0  1  0  0  0  0  0  0  0  0  0
    7.0741  -15.7317   25.2980 C   0  0  0  0  0  0  0  0  0  0  0  0
    7.3961  -14.4962   25.9961 C   0  0  0  0  0  0  0  0  0  0  0  0
    8.4889  -14.3947   26.8295 C   0  0  0  0  0  0  0  0  0  0  0  0
    8.8196  -13.2094   27.4738 C   0  0  0  0  0  0  0  0  0  0  0  0
    8.0447  -12.1042   27.2828 C   0  0  0  0  0  0  0  0  0  0  0  0
    6.9506  -12.1720   26.4598 C   0  0  0  0  0  0  0  0  0  0  0  0
    6.6350  -13.3696   25.8223 C   0  0  0  0  0  0  0  0  0  0  0  0
    9.2528  -16.8341   25.1090 C   0  0  0  0  0  0  0  0  0  0  0  0
    9.0953  -17.9369   25.7500 O   0  0  0  0  0  0  0  0  0  0  0  0
   11.7181  -17.1789   17.6018 N   0  0  0  0  0  0  0  0  0  0  0  0
   12.9012  -17.5666   18.3171 C   0  0  0  0  0  0  0  0  0  0  0  0
   13.9170  -18.0089   17.6575 N   0  0  0  0  0  0  0  0  0  0  0  0
   12.9791  -17.4750   19.7225 N   0  0  0  0  0  0  0  0  0  0  0  0
   11.8045  -17.1505   20.5154 C   0  0  0  0  0  0  0  0  0  0  0  0
   12.2240  -17.1938   21.9480 C   0  0  0  0  0  0  0  0  0  0  0  0
   11.2000  -16.7102   22.8851 C   0  0  0  0  0  0  0  0  0  0  0  0
   11.6034  -16.7453   24.3321 C   0  0  2  0  0  0  0  0  0  0  0  0
   10.5324  -16.2723   25.1782 N   0  0  0  0  0  0  0  0  0  0  0  0
   12.9028  -16.1592   24.6492 C   0  0  0  0  0  0  0  0  0  0  0  0
   13.8876  -16.9257   24.9171 O   0  0  0  0  0  0  0  0  0  0  0  0
   13.1680  -14.8126   24.6888 O   0  0  0  0  0  0  0  0  0  0  0  0
  2  1  1  1
  2  3  1  0
  3  4  1  0
  4 12  1  0
  4  5  2  0
  5  6  1  0
  7  6  1  0
  7  8  2  0
  9  8  1  0
 10  9  2  0
 11 10  1  0
 11 12  2  0
 12  7  1  0
 13  2  1  0
 14 13  2  0
 15 13  1  0
 16 17  1  1
 16 15  1  0
 17 18  1  0
 18 19  2  0
 19 20  1  0
 21 20  2  0
 22 21  1  0
 23 22  2  0
 23 18  1  0
 24 34  1  0
 24 16  1  0
 25 24  2  0
 27 28  2  0
 27 26  1  0
 29 27  1  0
 30 29  1  0
 31 30  1  0
 33 32  1  6
 32 31  1  0
 33 34  1  0
 35 33  1  0
 35 37  1  0
 36 35  2  0
M  END
$$$$
