AFQ.pdb
     RDKit          3D

 26 26  0  0  1  0  0  0  0  0999 V2000
    8.4762  -18.2600   19.9388 C   0  0  0  0  0  0  0  0  0  0  0  0
    8.5420  -16.7639   19.6701 C   0  0  2  0  0  0  0  0  0  0  0  0
    9.6627  -16.5511   18.7798 N   0  0  0  0  0  0  0  0  0  0  0  0
    8.8347  -16.0516   20.9417 C   0  0  0  0  0  0  0  0  0  0  0  0
   10.0107  -15.8351   21.3324 O   0  0  0  0  0  0  0  0  0  0  0  0
    7.7720  -15.6053   21.7337 N   0  0  0  0  0  0  0  0  0  0  0  0
    8.0281  -14.8531   22.9668 C   0  0  1  0  0  0  0  0  0  0  0  0
    6.7811  -14.1240   23.3758 C   0  0  0  0  0  0  0  0  0  0  0  0
    6.9176  -13.4324   24.6608 C   0  0  0  0  0  0  0  0  0  0  0  0
    7.6299  -12.2660   24.8411 C   0  0  0  0  0  0  0  0  0  0  0  0
    7.7136  -11.6140   26.0533 C   0  0  0  0  0  0  0  0  0  0  0  0
    7.0695  -12.1203   27.1592 C   0  0  0  0  0  0  0  0  0  0  0  0
    6.3478  -13.2855   27.0148 C   0  0  0  0  0  0  0  0  0  0  0  0
    6.2666  -13.9345   25.8007 C   0  0  0  0  0  0  0  0  0  0  0  0
    8.5392  -15.8173   23.9650 C   0  0  0  0  0  0  0  0  0  0  0  0
    7.8887  -16.8912   24.1815 O   0  0  0  0  0  0  0  0  0  0  0  0
   12.0191  -19.3025   23.7679 N   0  0  0  0  0  0  0  0  0  0  0  0
   12.4790  -19.2691   25.1208 C   0  0  0  0  0  0  0  0  0  0  0  0
   12.9202  -20.3178   25.6030 O   0  0  0  0  0  0  0  0  0  0  0  0
   12.4225  -18.0232   25.9019 C   0  0  0  0  0  0  0  0  0  0  0  0
   11.7681  -16.8756   25.2114 C   0  0  0  0  0  0  0  0  0  0  0  0
   10.3452  -16.6549   25.5527 C   0  0  2  0  0  0  0  0  0  0  0  0
    9.7320  -15.6194   24.7065 N   0  0  0  0  0  0  0  0  0  0  0  0
   10.0401  -16.4649   26.9825 C   0  0  0  0  0  0  0  0  0  0  0  0
    9.6623  -15.3715   27.4576 O   0  0  0  0  0  0  0  0  0  0  0  0
   10.1577  -17.5095   27.9131 O   0  0  0  0  0  0  0  0  0  0  0  0
  2  1  1  1
  3  2  1  0
  4  5  2  0
  4  2  1  0
  6  4  1  0
  7  6  1  0
  7  8  1  1
  8  9  1  0
  9 10  2  0
  9 14  1  0
 10 11  1  0
 11 12  2  0
 13 12  1  0
 14 13  2  0
 15 16  2  0
 15  7  1  0
 18 17  1  0
 19 18  2  0
 20 18  1  0
 22 21  1  1
 21 20  1  0
 22 23  1  0
 23 15  1  0
 24 22  1  0
 25 24  2  0
 26 24  1  0
M  END
$$$$
