AFQ.pdb
     RDKit          3D

 26 26  0  0  1  0  0  0  0  0999 V2000
   10.7911  -16.1225   19.8688 C   0  0  0  0  0  0  0  0  0  0  0  0
    9.9955  -16.8299   20.9558 C   0  0  2  0  0  0  0  0  0  0  0  0
    8.6484  -16.9840   20.4502 N   0  0  0  0  0  0  0  0  0  0  0  0
    9.9288  -15.9581   22.1581 C   0  0  0  0  0  0  0  0  0  0  0  0
   10.9598  -15.6022   22.7850 O   0  0  0  0  0  0  0  0  0  0  0  0
    8.6820  -15.5160   22.6117 N   0  0  0  0  0  0  0  0  0  0  0  0
    8.5706  -14.7662   23.8676 C   0  0  1  0  0  0  0  0  0  0  0  0
    7.2465  -14.0599   23.9124 C   0  0  0  0  0  0  0  0  0  0  0  0
    7.0207  -13.3461   25.1725 C   0  0  0  0  0  0  0  0  0  0  0  0
    5.9390  -13.5586   26.0002 C   0  0  0  0  0  0  0  0  0  0  0  0
    5.7671  -12.9001   27.1995 C   0  0  0  0  0  0  0  0  0  0  0  0
    6.6978  -11.9799   27.6252 C   0  0  0  0  0  0  0  0  0  0  0  0
    7.7924  -11.7426   26.8220 C   0  0  0  0  0  0  0  0  0  0  0  0
    7.9605  -12.4033   25.6232 C   0  0  0  0  0  0  0  0  0  0  0  0
    8.7992  -15.7271   24.9684 C   0  0  0  0  0  0  0  0  0  0  0  0
    8.3235  -16.9053   24.8737 O   0  0  0  0  0  0  0  0  0  0  0  0
   12.7089  -18.5105   24.1782 N   0  0  0  0  0  0  0  0  0  0  0  0
   13.1048  -17.3669   24.9388 C   0  0  0  0  0  0  0  0  0  0  0  0
   14.0226  -16.6704   24.4923 O   0  0  0  0  0  0  0  0  0  0  0  0
   12.4355  -17.0420   26.2085 C   0  0  0  0  0  0  0  0  0  0  0  0
   10.9842  -17.3782   26.2599 C   0  0  0  0  0  0  0  0  0  0  0  0
   10.1377  -16.4298   27.0175 C   0  0  2  0  0  0  0  0  0  0  0  0
    9.5319  -15.4146   26.1420 N   0  0  0  0  0  0  0  0  0  0  0  0
   10.7411  -15.8406   28.2267 C   0  0  0  0  0  0  0  0  0  0  0  0
   10.9857  -16.5052   29.2574 O   0  0  0  0  0  0  0  0  0  0  0  0
   11.0813  -14.4805   28.3006 O   0  0  0  0  0  0  0  0  0  0  0  0
  2  1  1  6
  3  2  1  0
  4  5  2  0
  4  2  1  0
  6  4  1  0
  7  6  1  0
  7  8  1  1
  8  9  1  0
  9 10  2  0
  9 14  1  0
 10 11  1  0
 11 12  2  0
 13 12  1  0
 14 13  2  0
 15 16  2  0
 15  7  1  0
 18 17  1  0
 19 18  2  0
 20 18  1  0
 22 21  1  6
 21 20  1  0
 22 23  1  0
 23 15  1  0
 24 22  1  0
 25 24  2  0
 26 24  1  0
M  END
$$$$
