AFQ.pdb
     RDKit          3D

 26 26  0  0  1  0  0  0  0  0999 V2000
   10.1498  -18.5241   20.9812 C   0  0  0  0  0  0  0  0  0  0  0  0
    9.5954  -17.1777   20.5397 C   0  0  2  0  0  0  0  0  0  0  0  0
   10.4665  -16.6943   19.4902 N   0  0  0  0  0  0  0  0  0  0  0  0
    9.6799  -16.2194   21.6730 C   0  0  0  0  0  0  0  0  0  0  0  0
   10.7486  -15.6255   21.9694 O   0  0  0  0  0  0  0  0  0  0  0  0
    8.5372  -15.9656   22.4384 N   0  0  0  0  0  0  0  0  0  0  0  0
    8.5946  -15.0430   23.5773 C   0  0  1  0  0  0  0  0  0  0  0  0
    7.2422  -14.4270   23.7904 C   0  0  0  0  0  0  0  0  0  0  0  0
    7.1708  -13.6081   25.0039 C   0  0  0  0  0  0  0  0  0  0  0  0
    6.5234  -13.9902   26.1595 C   0  0  0  0  0  0  0  0  0  0  0  0
    6.5011  -13.2174   27.3013 C   0  0  0  0  0  0  0  0  0  0  0  0
    7.1437  -12.0007   27.3282 C   0  0  0  0  0  0  0  0  0  0  0  0
    7.8013  -11.5873   26.1897 C   0  0  0  0  0  0  0  0  0  0  0  0
    7.8213  -12.3631   25.0497 C   0  0  0  0  0  0  0  0  0  0  0  0
    9.1169  -15.8085   24.7299 C   0  0  0  0  0  0  0  0  0  0  0  0
    8.5813  -16.9254   25.0282 O   0  0  0  0  0  0  0  0  0  0  0  0
   15.0638  -16.4380   26.0844 N   0  0  0  0  0  0  0  0  0  0  0  0
   14.2549  -16.0302   24.9788 C   0  0  0  0  0  0  0  0  0  0  0  0
   14.8300  -15.7275   23.9278 O   0  0  0  0  0  0  0  0  0  0  0  0
   12.7894  -15.9759   25.1011 C   0  0  0  0  0  0  0  0  0  0  0  0
   12.2559  -16.3280   26.4477 C   0  0  0  0  0  0  0  0  0  0  0  0
   10.7925  -16.1811   26.6108 C   0  0  2  0  0  0  0  0  0  0  0  0
   10.1989  -15.3709   25.5358 N   0  0  0  0  0  0  0  0  0  0  0  0
   10.3237  -15.7710   27.9471 C   0  0  0  0  0  0  0  0  0  0  0  0
   10.3220  -16.5406   28.9328 O   0  0  0  0  0  0  0  0  0  0  0  0
    9.8417  -14.4771   28.2012 O   0  0  0  0  0  0  0  0  0  0  0  0
  2  1  1  1
  3  2  1  0
  4  5  2  0
  4  2  1  0
  6  4  1  0
  7  6  1  0
  7  8  1  1
  8  9  1  0
  9 10  2  0
  9 14  1  0
 10 11  1  0
 11 12  2  0
 13 12  1  0
 14 13  2  0
 15 16  2  0
 15  7  1  0
 18 17  1  0
 19 18  2  0
 20 18  1  0
 22 21  1  1
 21 20  1  0
 22 23  1  0
 23 15  1  0
 24 22  1  0
 25 24  2  0
 26 24  1  0
M  END
$$$$
