AFQ.pdb
     RDKit          3D

 26 26  0  0  1  0  0  0  0  0999 V2000
    7.6071  -18.2873   20.0634 C   0  0  0  0  0  0  0  0  0  0  0  0
    7.1361  -16.8477   19.9195 C   0  0  2  0  0  0  0  0  0  0  0  0
    7.6665  -16.3613   18.6641 N   0  0  0  0  0  0  0  0  0  0  0  0
    7.7306  -16.0281   21.0079 C   0  0  0  0  0  0  0  0  0  0  0  0
    8.8178  -15.4116   20.8643 O   0  0  0  0  0  0  0  0  0  0  0  0
    7.0641  -15.9356   22.2339 N   0  0  0  0  0  0  0  0  0  0  0  0
    7.6054  -15.1034   23.3138 C   0  0  1  0  0  0  0  0  0  0  0  0
    6.4778  -14.5852   24.1588 C   0  0  0  0  0  0  0  0  0  0  0  0
    6.9353  -13.7610   25.2810 C   0  0  0  0  0  0  0  0  0  0  0  0
    7.0346  -12.3865   25.2430 C   0  0  0  0  0  0  0  0  0  0  0  0
    7.4333  -11.6296   26.3245 C   0  0  0  0  0  0  0  0  0  0  0  0
    7.7558  -12.2383   27.5160 C   0  0  0  0  0  0  0  0  0  0  0  0
    7.6677  -13.6118   27.5895 C   0  0  0  0  0  0  0  0  0  0  0  0
    7.2685  -14.3651   26.5055 C   0  0  0  0  0  0  0  0  0  0  0  0
    8.5978  -15.9257   24.0393 C   0  0  0  0  0  0  0  0  0  0  0  0
    8.3299  -17.1459   24.2897 O   0  0  0  0  0  0  0  0  0  0  0  0
   14.6865  -15.3991   22.9277 N   0  0  0  0  0  0  0  0  0  0  0  0
   14.6633  -16.4250   23.9226 C   0  0  0  0  0  0  0  0  0  0  0  0
   15.7117  -17.0443   24.1329 O   0  0  0  0  0  0  0  0  0  0  0  0
   13.4272  -16.7244   24.6629 C   0  0  0  0  0  0  0  0  0  0  0  0
   12.2393  -15.9204   24.2574 C   0  0  0  0  0  0  0  0  0  0  0  0
   10.9635  -16.2990   24.9044 C   0  0  2  0  0  0  0  0  0  0  0  0
    9.8534  -15.4329   24.4778 N   0  0  0  0  0  0  0  0  0  0  0  0
   11.0035  -16.4810   26.3669 C   0  0  0  0  0  0  0  0  0  0  0  0
   10.6390  -15.5966   27.1723 O   0  0  0  0  0  0  0  0  0  0  0  0
   11.4607  -17.6706   26.9558 O   0  0  0  0  0  0  0  0  0  0  0  0
  2  1  1  1
  3  2  1  0
  4  5  2  0
  4  2  1  0
  6  4  1  0
  7  6  1  0
  7  8  1  1
  8  9  1  0
  9 10  2  0
  9 14  1  0
 10 11  1  0
 11 12  2  0
 13 12  1  0
 14 13  2  0
 15 16  2  0
 15  7  1  0
 18 17  1  0
 19 18  2  0
 20 18  1  0
 22 21  1  1
 21 20  1  0
 22 23  1  0
 23 15  1  0
 24 22  1  0
 25 24  2  0
 26 24  1  0
M  END
$$$$
