AFQ.pdb
     RDKit          3D

 26 26  0  0  1  0  0  0  0  0999 V2000
    7.3681  -18.7430   21.0243 C   0  0  0  0  0  0  0  0  0  0  0  0
    8.0734  -17.4157   20.7885 C   0  0  2  0  0  0  0  0  0  0  0  0
    9.3664  -17.7284   20.2189 N   0  0  0  0  0  0  0  0  0  0  0  0
    8.3063  -16.7474   22.0958 C   0  0  0  0  0  0  0  0  0  0  0  0
    9.3145  -16.9976   22.8055 O   0  0  0  0  0  0  0  0  0  0  0  0
    7.3778  -15.8088   22.5570 N   0  0  0  0  0  0  0  0  0  0  0  0
    7.6255  -15.0646   23.7966 C   0  0  1  0  0  0  0  0  0  0  0  0
    6.7834  -13.8218   23.8104 C   0  0  0  0  0  0  0  0  0  0  0  0
    6.8513  -13.0983   25.0832 C   0  0  0  0  0  0  0  0  0  0  0  0
    7.9395  -12.3605   25.4979 C   0  0  0  0  0  0  0  0  0  0  0  0
    7.9656  -11.6582   26.6844 C   0  0  0  0  0  0  0  0  0  0  0  0
    6.8733  -11.6695   27.5214 C   0  0  0  0  0  0  0  0  0  0  0  0
    5.7675  -12.3973   27.1378 C   0  0  0  0  0  0  0  0  0  0  0  0
    5.7453  -13.0983   25.9504 C   0  0  0  0  0  0  0  0  0  0  0  0
    7.3769  -15.9955   24.9186 C   0  0  0  0  0  0  0  0  0  0  0  0
    6.2817  -16.6455   24.9558 O   0  0  0  0  0  0  0  0  0  0  0  0
    7.1577  -21.5826   25.3064 N   0  0  0  0  0  0  0  0  0  0  0  0
    7.1655  -20.9514   26.5888 C   0  0  0  0  0  0  0  0  0  0  0  0
    6.4204  -21.4129   27.4600 O   0  0  0  0  0  0  0  0  0  0  0  0
    8.0342  -19.7926   26.8495 C   0  0  0  0  0  0  0  0  0  0  0  0
    7.4828  -18.4798   26.4086 C   0  0  0  0  0  0  0  0  0  0  0  0
    8.1529  -17.2866   26.9717 C   0  0  2  0  0  0  0  0  0  0  0  0
    8.3000  -16.2169   25.9725 N   0  0  0  0  0  0  0  0  0  0  0  0
    9.3996  -17.5317   27.7196 C   0  0  0  0  0  0  0  0  0  0  0  0
   10.5346  -17.3905   27.2140 O   0  0  0  0  0  0  0  0  0  0  0  0
    9.3927  -17.9461   29.0609 O   0  0  0  0  0  0  0  0  0  0  0  0
  2  1  1  1
  3  2  1  0
  4  5  2  0
  4  2  1  0
  6  4  1  0
  7  6  1  0
  7  8  1  1
  8  9  1  0
  9 10  2  0
  9 14  1  0
 10 11  1  0
 11 12  2  0
 13 12  1  0
 14 13  2  0
 15 16  2  0
 15  7  1  0
 18 17  1  0
 19 18  2  0
 20 18  1  0
 22 21  1  6
 21 20  1  0
 22 23  1  0
 23 15  1  0
 24 22  1  0
 25 24  2  0
 26 24  1  0
M  END
$$$$
