FLE.pdb
     RDKit          3D

 29 29  0  0  1  0  0  0  0  0999 V2000
   18.8356  -11.8932  -18.9909 N   0  0  0  0  0  0  0  0  0  0  0  0
   19.6834  -10.7435  -18.9624 C   0  0  1  0  0  0  0  0  0  0  0  0
   19.1791   -9.6371  -19.8788 C   0  0  0  0  0  0  0  0  0  0  0  0
   19.1517  -10.1110  -21.2706 C   0  0  0  0  0  0  0  0  0  0  0  0
   17.9228  -10.3202  -21.8578 C   0  0  0  0  0  0  0  0  0  0  0  0
   17.8932  -10.7638  -23.1619 C   0  0  0  0  0  0  0  0  0  0  0  0
   19.0650  -10.9888  -23.8502 C   0  0  0  0  0  0  0  0  0  0  0  0
   20.2800  -10.7694  -23.2329 C   0  0  0  0  0  0  0  0  0  0  0  0
   20.3452  -10.3304  -21.9434 C   0  0  0  0  0  0  0  0  0  0  0  0
   19.8396  -10.1867  -17.5876 C   0  0  0  0  0  0  0  0  0  0  0  0
   18.8669  -10.1618  -16.7934 O   0  0  0  0  0  0  0  0  0  0  0  0
   21.6024   -9.5113  -12.7893 C   0  0  0  0  0  0  0  0  0  0  0  0
   22.8042   -9.3805  -13.7477 C   0  0  2  0  0  0  0  0  0  0  0  0
   23.2555   -7.9474  -13.6389 C   0  0  0  0  0  0  0  0  0  0  0  0
   22.4331   -9.8092  -15.1138 C   0  0  0  0  0  0  0  0  0  0  0  0
   21.2047   -9.1744  -15.7122 C   0  0  2  0  0  0  0  0  0  0  0  0
   21.0667   -9.6671  -17.1129 N   0  0  0  0  0  0  0  0  0  0  0  0
   21.2330   -7.7105  -15.8155 C   0  0  0  0  0  0  0  0  0  0  0  0
   21.9034   -7.1344  -16.7552 O   0  0  0  0  0  0  0  0  0  0  0  0
   20.5752   -6.7888  -14.9687 N   0  0  0  0  0  0  0  0  0  0  0  0
   20.6424   -5.3349  -15.1778 C   0  0  1  0  0  0  0  0  0  0  0  0
   19.2811   -4.7494  -15.2631 C   0  0  0  0  0  0  0  0  0  0  0  0
   19.3362   -3.2536  -15.3735 C   0  0  0  0  0  0  0  0  0  0  0  0
   17.9588   -2.6725  -15.4658 C   0  0  0  0  0  0  0  0  0  0  0  0
   17.8264   -1.4423  -15.4194 O   0  0  0  0  0  0  0  0  0  0  0  0
   21.4481   -4.7745  -14.0900 C   0  0  0  0  0  0  0  0  0  0  0  0
   21.3061   -5.1365  -12.9023 O   0  0  0  0  0  0  0  0  0  0  0  0
   16.8834   -3.5111  -15.5986 O   0  0  0  0  0  0  0  0  0  0  0  0
   22.4100   -3.8113  -14.3345 O   0  0  0  0  0  0  0  0  0  0  0  0
  2  1  1  1
  2  3  1  0
  2 10  1  0
  4  3  1  0
  4  9  2  0
  5  4  1  0
  6  5  2  0
  6  7  1  0
  7  8  2  0
  8  9  1  0
 10 11  2  0
 13 15  1  0
 13 12  1  1
 14 13  1  0
 16 15  1  6
 16 18  1  0
 17 16  1  0
 17 10  1  0
 18 19  2  0
 20 18  1  0
 20 21  1  0
 21 26  1  0
 22 23  1  0
 21 22  1  1
 24 23  1  0
 24 28  1  0
 25 24  2  0
 26 27  2  0
 26 29  1  0
M  END
$$$$
