FLE.pdb
     RDKit          3D

 29 29  0  0  1  0  0  0  0  0999 V2000
   19.8230   -8.7668  -18.5314 N   0  0  0  0  0  0  0  0  0  0  0  0
   19.9730   -7.6788  -17.6177 C   0  0  1  0  0  0  0  0  0  0  0  0
   19.0177   -6.5345  -17.9277 C   0  0  0  0  0  0  0  0  0  0  0  0
   19.3583   -5.9336  -19.2260 C   0  0  0  0  0  0  0  0  0  0  0  0
   18.5607   -6.2375  -20.3078 C   0  0  0  0  0  0  0  0  0  0  0  0
   18.8765   -5.6761  -21.5257 C   0  0  0  0  0  0  0  0  0  0  0  0
   19.9613   -4.8359  -21.6476 C   0  0  0  0  0  0  0  0  0  0  0  0
   20.7404   -4.5515  -20.5442 C   0  0  0  0  0  0  0  0  0  0  0  0
   20.4558   -5.0903  -19.3240 C   0  0  0  0  0  0  0  0  0  0  0  0
   19.7701   -8.0955  -16.1999 C   0  0  0  0  0  0  0  0  0  0  0  0
   18.7597   -8.7636  -15.8682 O   0  0  0  0  0  0  0  0  0  0  0  0
   21.2122  -11.2903  -13.5701 C   0  0  0  0  0  0  0  0  0  0  0  0
   22.2060  -10.1783  -13.9649 C   0  0  2  0  0  0  0  0  0  0  0  0
   23.5654  -10.6881  -13.5632 C   0  0  0  0  0  0  0  0  0  0  0  0
   21.8222   -8.8902  -13.3475 C   0  0  0  0  0  0  0  0  0  0  0  0
   20.5112   -8.2924  -13.7881 C   0  0  2  0  0  0  0  0  0  0  0  0
   20.6858   -7.7674  -15.1728 N   0  0  0  0  0  0  0  0  0  0  0  0
   20.0360   -7.1515  -12.9963 C   0  0  0  0  0  0  0  0  0  0  0  0
   20.7481   -6.0799  -12.9013 O   0  0  0  0  0  0  0  0  0  0  0  0
   18.8189   -7.0646  -12.2818 N   0  0  0  0  0  0  0  0  0  0  0  0
   18.3755   -5.8278  -11.6217 C   0  0  1  0  0  0  0  0  0  0  0  0
   17.1920   -5.2555  -12.3110 C   0  0  0  0  0  0  0  0  0  0  0  0
   16.6770   -4.0415  -11.5944 C   0  0  0  0  0  0  0  0  0  0  0  0
   15.5483   -3.4117  -12.3512 C   0  0  0  0  0  0  0  0  0  0  0  0
   15.0379   -2.3748  -11.9068 O   0  0  0  0  0  0  0  0  0  0  0  0
   18.1280   -6.1492  -10.2139 C   0  0  0  0  0  0  0  0  0  0  0  0
   18.1488   -7.3232   -9.7859 O   0  0  0  0  0  0  0  0  0  0  0  0
   15.1094   -3.9943  -13.5110 O   0  0  0  0  0  0  0  0  0  0  0  0
   17.8584   -5.1563   -9.2896 O   0  0  0  0  0  0  0  0  0  0  0  0
  2  1  1  6
  2  3  1  0
  2 10  1  0
  4  3  1  0
  4  9  2  0
  5  4  1  0
  6  5  2  0
  6  7  1  0
  7  8  2  0
  8  9  1  0
 10 11  2  0
 13 15  1  0
 13 12  1  1
 14 13  1  0
 16 15  1  1
 16 18  1  0
 17 16  1  0
 17 10  1  0
 18 19  2  0
 20 18  1  0
 20 21  1  0
 21 26  1  0
 22 23  1  0
 21 22  1  6
 24 23  1  0
 24 28  1  0
 25 24  2  0
 26 27  2  0
 26 29  1  0
M  END
$$$$
