FLE.pdb
     RDKit          3D

 29 29  0  0  1  0  0  0  0  0999 V2000
   27.9356  -20.3043  -16.9086 N   0  0  0  0  0  0  0  0  0  0  0  0
   27.3283  -19.4938  -15.9009 C   0  0  1  0  0  0  0  0  0  0  0  0
   26.4342  -18.4144  -16.4957 C   0  0  0  0  0  0  0  0  0  0  0  0
   27.2577  -17.3344  -17.0596 C   0  0  0  0  0  0  0  0  0  0  0  0
   27.5292  -17.3669  -18.4102 C   0  0  0  0  0  0  0  0  0  0  0  0
   28.3002  -16.3565  -18.9422 C   0  0  0  0  0  0  0  0  0  0  0  0
   28.7811  -15.3470  -18.1376 C   0  0  0  0  0  0  0  0  0  0  0  0
   28.4909  -15.3437  -16.7881 C   0  0  0  0  0  0  0  0  0  0  0  0
   27.7307  -16.3284  -16.2292 C   0  0  0  0  0  0  0  0  0  0  0  0
   26.5245  -20.2964  -14.9343 C   0  0  0  0  0  0  0  0  0  0  0  0
   25.8827  -21.3051  -15.3189 O   0  0  0  0  0  0  0  0  0  0  0  0
   23.9569  -20.9842  -10.0919 C   0  0  0  0  0  0  0  0  0  0  0  0
   25.4706  -21.2799  -10.1281 C   0  0  2  0  0  0  0  0  0  0  0  0
   25.9799  -20.9566   -8.7478 C   0  0  0  0  0  0  0  0  0  0  0  0
   26.1249  -20.5269  -11.2201 C   0  0  0  0  0  0  0  0  0  0  0  0
   25.6364  -20.8009  -12.6187 C   0  0  2  0  0  0  0  0  0  0  0  0
   26.4428  -19.9718  -13.5599 N   0  0  0  0  0  0  0  0  0  0  0  0
   24.2380  -20.4423  -12.8842 C   0  0  0  0  0  0  0  0  0  0  0  0
   23.8577  -19.2106  -12.8307 O   0  0  0  0  0  0  0  0  0  0  0  0
   23.1857  -21.3258  -13.2178 N   0  0  0  0  0  0  0  0  0  0  0  0
   21.8530  -20.8527  -13.6205 C   0  0  1  0  0  0  0  0  0  0  0  0
   21.5228  -21.3083  -14.9940 C   0  0  0  0  0  0  0  0  0  0  0  0
   20.1767  -20.8055  -15.4272 C   0  0  0  0  0  0  0  0  0  0  0  0
   19.8345  -21.3038  -16.7976 C   0  0  0  0  0  0  0  0  0  0  0  0
   19.4288  -22.4667  -16.9250 O   0  0  0  0  0  0  0  0  0  0  0  0
   20.9005  -21.3191  -12.6097 C   0  0  0  0  0  0  0  0  0  0  0  0
   21.0082  -22.4360  -12.0594 O   0  0  0  0  0  0  0  0  0  0  0  0
   19.9775  -20.4660  -17.8722 O   0  0  0  0  0  0  0  0  0  0  0  0
   19.8312  -20.5345  -12.2177 O   0  0  0  0  0  0  0  0  0  0  0  0
  2  1  1  6
  2  3  1  0
  2 10  1  0
  4  3  1  0
  4  9  2  0
  5  4  1  0
  6  5  2  0
  6  7  1  0
  7  8  2  0
  8  9  1  0
 10 11  2  0
 13 15  1  0
 13 12  1  1
 14 13  1  0
 16 15  1  1
 16 18  1  0
 17 16  1  0
 17 10  1  0
 18 19  2  0
 20 18  1  0
 20 21  1  0
 21 26  1  0
 22 23  1  0
 21 22  1  6
 24 23  1  0
 24 28  1  0
 25 24  2  0
 26 27  2  0
 26 29  1  0
M  END
$$$$
