FLE.pdb
     RDKit          3D

 29 29  0  0  1  0  0  0  0  0999 V2000
   24.1143  -18.8769  -16.9400 N   0  0  0  0  0  0  0  0  0  0  0  0
   22.9892  -18.7355  -16.0709 C   0  0  1  0  0  0  0  0  0  0  0  0
   21.6999  -18.4811  -16.8396 C   0  0  0  0  0  0  0  0  0  0  0  0
   21.7042  -17.1176  -17.3904 C   0  0  0  0  0  0  0  0  0  0  0  0
   21.7582  -16.0631  -16.5048 C   0  0  0  0  0  0  0  0  0  0  0  0
   21.7627  -14.7842  -17.0172 C   0  0  0  0  0  0  0  0  0  0  0  0
   21.7143  -14.5765  -18.3781 C   0  0  0  0  0  0  0  0  0  0  0  0
   21.6609  -15.6546  -19.2385 C   0  0  0  0  0  0  0  0  0  0  0  0
   21.6549  -16.9335  -18.7648 C   0  0  0  0  0  0  0  0  0  0  0  0
   22.7931  -19.9281  -15.1968 C   0  0  0  0  0  0  0  0  0  0  0  0
   22.5809  -21.0601  -15.6977 O   0  0  0  0  0  0  0  0  0  0  0  0
   25.3940  -22.3189  -12.0142 C   0  0  0  0  0  0  0  0  0  0  0  0
   24.8981  -20.8859  -11.7300 C   0  0  2  0  0  0  0  0  0  0  0  0
   25.6045  -20.4546  -10.4713 C   0  0  0  0  0  0  0  0  0  0  0  0
   23.4215  -20.8487  -11.6534 C   0  0  0  0  0  0  0  0  0  0  0  0
   22.6711  -21.0693  -12.9412 C   0  0  2  0  0  0  0  0  0  0  0  0
   22.8346  -19.8507  -13.7850 N   0  0  0  0  0  0  0  0  0  0  0  0
   21.2217  -21.2580  -12.8068 C   0  0  0  0  0  0  0  0  0  0  0  0
   20.4852  -20.3266  -12.3024 O   0  0  0  0  0  0  0  0  0  0  0  0
   20.4773  -22.3985  -13.1868 N   0  0  0  0  0  0  0  0  0  0  0  0
   19.0356  -22.5252  -12.9267 C   0  0  1  0  0  0  0  0  0  0  0  0
   18.2524  -22.2973  -14.1668 C   0  0  0  0  0  0  0  0  0  0  0  0
   17.2885  -21.1587  -14.0023 C   0  0  0  0  0  0  0  0  0  0  0  0
   15.8892  -21.6629  -13.8267 C   0  0  0  0  0  0  0  0  0  0  0  0
   15.4900  -22.5801  -14.5564 O   0  0  0  0  0  0  0  0  0  0  0  0
   18.8135  -23.8468  -12.3347 C   0  0  0  0  0  0  0  0  0  0  0  0
   19.6762  -24.7498  -12.3807 O   0  0  0  0  0  0  0  0  0  0  0  0
   15.0879  -21.1008  -12.8679 O   0  0  0  0  0  0  0  0  0  0  0  0
   17.6274  -24.1536  -11.6930 O   0  0  0  0  0  0  0  0  0  0  0  0
  2  1  1  6
  2  3  1  0
  2 10  1  0
  4  3  1  0
  4  9  2  0
  5  4  1  0
  6  5  2  0
  6  7  1  0
  7  8  2  0
  8  9  1  0
 10 11  2  0
 13 15  1  0
 13 12  1  1
 14 13  1  0
 16 15  1  1
 16 18  1  0
 17 16  1  0
 17 10  1  0
 18 19  2  0
 20 18  1  0
 20 21  1  0
 21 26  1  0
 22 23  1  0
 21 22  1  6
 24 23  1  0
 24 28  1  0
 25 24  2  0
 26 27  2  0
 26 29  1  0
M  END
$$$$
