FLE.pdb
     RDKit          3D

 29 29  0  0  1  0  0  0  0  0999 V2000
   27.1727  -18.3235  -14.8473 N   0  0  0  0  0  0  0  0  0  0  0  0
   26.2328  -19.0622  -15.6297 C   0  0  1  0  0  0  0  0  0  0  0  0
   26.9073  -19.8410  -16.7507 C   0  0  0  0  0  0  0  0  0  0  0  0
   27.5429  -18.9114  -17.6964 C   0  0  0  0  0  0  0  0  0  0  0  0
   26.7511  -17.9535  -18.2917 C   0  0  0  0  0  0  0  0  0  0  0  0
   27.3432  -17.0806  -19.1780 C   0  0  0  0  0  0  0  0  0  0  0  0
   28.6897  -17.1715  -19.4543 C   0  0  0  0  0  0  0  0  0  0  0  0
   29.4551  -18.1427  -18.8409 C   0  0  0  0  0  0  0  0  0  0  0  0
   28.9009  -19.0226  -17.9586 C   0  0  0  0  0  0  0  0  0  0  0  0
   25.4315  -20.0134  -14.8064 C   0  0  0  0  0  0  0  0  0  0  0  0
   25.0080  -21.0873  -15.3009 O   0  0  0  0  0  0  0  0  0  0  0  0
   26.5998  -22.0593  -11.1365 C   0  0  0  0  0  0  0  0  0  0  0  0
   26.0615  -20.6473  -10.8256 C   0  0  2  0  0  0  0  0  0  0  0  0
   26.3460  -20.4178   -9.3641 C   0  0  0  0  0  0  0  0  0  0  0  0
   24.6355  -20.5363  -11.2022 C   0  0  0  0  0  0  0  0  0  0  0  0
   24.3027  -20.7328  -12.6584 C   0  0  2  0  0  0  0  0  0  0  0  0
   25.1115  -19.7628  -13.4514 N   0  0  0  0  0  0  0  0  0  0  0  0
   22.9072  -20.4723  -13.0313 C   0  0  0  0  0  0  0  0  0  0  0  0
   22.4188  -19.2813  -12.9447 O   0  0  0  0  0  0  0  0  0  0  0  0
   21.9680  -21.4153  -13.5088 N   0  0  0  0  0  0  0  0  0  0  0  0
   20.5831  -21.0524  -13.8446 C   0  0  1  0  0  0  0  0  0  0  0  0
   19.9731  -22.0665  -14.7405 C   0  0  0  0  0  0  0  0  0  0  0  0
   19.5136  -23.2698  -13.9702 C   0  0  0  0  0  0  0  0  0  0  0  0
   18.8499  -24.2628  -14.8740 C   0  0  0  0  0  0  0  0  0  0  0  0
   18.8256  -24.0378  -16.0913 O   0  0  0  0  0  0  0  0  0  0  0  0
   19.8586  -20.8820  -12.5827 C   0  0  0  0  0  0  0  0  0  0  0  0
   20.3159  -21.2883  -11.4929 O   0  0  0  0  0  0  0  0  0  0  0  0
   18.2884  -25.3907  -14.3357 O   0  0  0  0  0  0  0  0  0  0  0  0
   18.6252  -20.2575  -12.5440 O   0  0  0  0  0  0  0  0  0  0  0  0
  2  1  1  1
  2  3  1  0
  2 10  1  0
  4  3  1  0
  4  9  2  0
  5  4  1  0
  6  5  2  0
  6  7  1  0
  7  8  2  0
  8  9  1  0
 10 11  2  0
 13 15  1  0
 13 12  1  1
 14 13  1  0
 16 15  1  1
 16 18  1  0
 17 16  1  0
 17 10  1  0
 18 19  2  0
 20 18  1  0
 20 21  1  0
 21 26  1  0
 22 23  1  0
 21 22  1  6
 24 23  1  0
 24 28  1  0
 25 24  2  0
 26 27  2  0
 26 29  1  0
M  END
$$$$
