FLE.pdb
     RDKit          3D

 29 29  0  0  1  0  0  0  0  0999 V2000
   27.9770  -21.7627  -16.5845 N   0  0  0  0  0  0  0  0  0  0  0  0
   27.3338  -20.6971  -15.8832 C   0  0  1  0  0  0  0  0  0  0  0  0
   26.5159  -19.8110  -16.8127 C   0  0  0  0  0  0  0  0  0  0  0  0
   27.4115  -19.0276  -17.6768 C   0  0  0  0  0  0  0  0  0  0  0  0
   28.0294  -17.9220  -17.1336 C   0  0  0  0  0  0  0  0  0  0  0  0
   28.8695  -17.1858  -17.9401 C   0  0  0  0  0  0  0  0  0  0  0  0
   29.0789  -17.5532  -19.2511 C   0  0  0  0  0  0  0  0  0  0  0  0
   28.4445  -18.6663  -19.7648 C   0  0  0  0  0  0  0  0  0  0  0  0
   27.6067  -19.4173  -18.9941 C   0  0  0  0  0  0  0  0  0  0  0  0
   26.4436  -21.1903  -14.7928 C   0  0  0  0  0  0  0  0  0  0  0  0
   25.6372  -22.1302  -15.0016 O   0  0  0  0  0  0  0  0  0  0  0  0
   23.9316  -20.5576   -9.9589 C   0  0  0  0  0  0  0  0  0  0  0  0
   25.3647  -21.1243   -9.8856 C   0  0  2  0  0  0  0  0  0  0  0  0
   25.9353  -20.6171   -8.5869 C   0  0  0  0  0  0  0  0  0  0  0  0
   26.1383  -20.7483  -11.0888 C   0  0  0  0  0  0  0  0  0  0  0  0
   25.5666  -21.1656  -12.4189 C   0  0  2  0  0  0  0  0  0  0  0  0
   26.4589  -20.6377  -13.4907 N   0  0  0  0  0  0  0  0  0  0  0  0
   24.2320  -20.6394  -12.7293 C   0  0  0  0  0  0  0  0  0  0  0  0
   24.0024  -19.3707  -12.6826 O   0  0  0  0  0  0  0  0  0  0  0  0
   23.0919  -21.3882  -13.1021 N   0  0  0  0  0  0  0  0  0  0  0  0
   21.8196  -20.7563  -13.4818 C   0  0  1  0  0  0  0  0  0  0  0  0
   21.3155  -21.3106  -14.7631 C   0  0  0  0  0  0  0  0  0  0  0  0
   21.0975  -22.7925  -14.6686 C   0  0  0  0  0  0  0  0  0  0  0  0
   20.9146  -23.3946  -16.0278 C   0  0  0  0  0  0  0  0  0  0  0  0
   20.9757  -22.6563  -17.0200 O   0  0  0  0  0  0  0  0  0  0  0  0
   20.8904  -20.9404  -12.3642 C   0  0  0  0  0  0  0  0  0  0  0  0
   21.1505  -21.6912  -11.3996 O   0  0  0  0  0  0  0  0  0  0  0  0
   20.6854  -24.7406  -16.1411 O   0  0  0  0  0  0  0  0  0  0  0  0
   19.6737  -20.2838  -12.3292 O   0  0  0  0  0  0  0  0  0  0  0  0
  2  1  1  6
  2  3  1  0
  2 10  1  0
  4  3  1  0
  4  9  2  0
  5  4  1  0
  6  5  2  0
  6  7  1  0
  7  8  2  0
  8  9  1  0
 10 11  2  0
 13 15  1  0
 13 12  1  6
 14 13  1  0
 16 15  1  1
 16 18  1  0
 17 16  1  0
 17 10  1  0
 18 19  2  0
 20 18  1  0
 20 21  1  0
 21 26  1  0
 22 23  1  0
 21 22  1  6
 24 23  1  0
 24 28  1  0
 25 24  2  0
 26 27  2  0
 26 29  1  0
M  END
$$$$
