FLE.pdb
     RDKit          3D

 29 29  0  0  1  0  0  0  0  0999 V2000
   28.0576  -19.6478  -15.6366 N   0  0  0  0  0  0  0  0  0  0  0  0
   27.1079  -18.9635  -14.8175 C   0  0  1  0  0  0  0  0  0  0  0  0
   26.2479  -17.9982  -15.6219 C   0  0  0  0  0  0  0  0  0  0  0  0
   27.0357  -16.8131  -15.9927 C   0  0  0  0  0  0  0  0  0  0  0  0
   27.2461  -15.8499  -15.0299 C   0  0  0  0  0  0  0  0  0  0  0  0
   27.9840  -14.7384  -15.3735 C   0  0  0  0  0  0  0  0  0  0  0  0
   28.4926  -14.6035  -16.6466 C   0  0  0  0  0  0  0  0  0  0  0  0
   28.2637  -15.5867  -17.5881 C   0  0  0  0  0  0  0  0  0  0  0  0
   27.5376  -16.6996  -17.2813 C   0  0  0  0  0  0  0  0  0  0  0  0
   26.2094  -19.9016  -14.0846 C   0  0  0  0  0  0  0  0  0  0  0  0
   25.8737  -20.9977  -14.5977 O   0  0  0  0  0  0  0  0  0  0  0  0
   26.7022  -22.1063  -10.0389 C   0  0  0  0  0  0  0  0  0  0  0  0
   26.3709  -20.6000  -10.0015 C   0  0  2  0  0  0  0  0  0  0  0  0
   26.5210  -20.1875   -8.5604 C   0  0  0  0  0  0  0  0  0  0  0  0
   25.0346  -20.3437  -10.5814 C   0  0  0  0  0  0  0  0  0  0  0  0
   24.8737  -20.6112  -12.0554 C   0  0  2  0  0  0  0  0  0  0  0  0
   25.6968  -19.6139  -12.7979 N   0  0  0  0  0  0  0  0  0  0  0  0
   23.5120  -20.4619  -12.5826 C   0  0  0  0  0  0  0  0  0  0  0  0
   23.0257  -19.2896  -12.8144 O   0  0  0  0  0  0  0  0  0  0  0  0
   22.6059  -21.5015  -12.8950 N   0  0  0  0  0  0  0  0  0  0  0  0
   21.3554  -21.2663  -13.6320 C   0  0  1  0  0  0  0  0  0  0  0  0
   21.2741  -22.1412  -14.8283 C   0  0  0  0  0  0  0  0  0  0  0  0
   19.9701  -21.9607  -15.5490 C   0  0  0  0  0  0  0  0  0  0  0  0
   20.1322  -22.2032  -17.0181 C   0  0  0  0  0  0  0  0  0  0  0  0
   19.7751  -21.3216  -17.8108 O   0  0  0  0  0  0  0  0  0  0  0  0
   20.2504  -21.4657  -12.6910 C   0  0  0  0  0  0  0  0  0  0  0  0
   20.4248  -21.9533  -11.5536 O   0  0  0  0  0  0  0  0  0  0  0  0
   20.6689  -23.3882  -17.4482 O   0  0  0  0  0  0  0  0  0  0  0  0
   18.9540  -21.1187  -13.0254 O   0  0  0  0  0  0  0  0  0  0  0  0
  2  1  1  6
  2  3  1  0
  2 10  1  0
  4  3  1  0
  4  9  2  0
  5  4  1  0
  6  5  2  0
  6  7  1  0
  7  8  2  0
  8  9  1  0
 10 11  2  0
 13 15  1  0
 13 12  1  1
 14 13  1  0
 16 15  1  1
 16 18  1  0
 17 16  1  0
 17 10  1  0
 18 19  2  0
 20 18  1  0
 20 21  1  0
 21 26  1  0
 22 23  1  0
 21 22  1  6
 24 23  1  0
 24 28  1  0
 25 24  2  0
 26 27  2  0
 26 29  1  0
M  END
$$$$
