SIE.pdb
     RDKit          3D

 24 23  0  0  1  0  0  0  0  0999 V2000
    9.0729  -19.8799   18.9518 O   0  0  0  0  0  0  0  0  0  0  0  0
    8.2103  -19.0204   18.2731 C   0  0  0  0  0  0  0  0  0  0  0  0
    9.0121  -17.8240   17.7872 C   0  0  2  0  0  0  0  0  0  0  0  0
   10.1621  -18.2136   17.0312 N   0  0  0  0  0  0  0  0  0  0  0  0
    9.4575  -17.0769   18.9937 C   0  0  0  0  0  0  0  0  0  0  0  0
   10.6363  -17.1148   19.4153 O   0  0  0  0  0  0  0  0  0  0  0  0
    6.7322  -12.4835   19.8531 C   0  0  0  0  0  0  0  0  0  0  0  0
    7.9710  -13.4091   19.7692 C   0  0  0  0  0  0  0  0  0  0  0  0
    7.9008  -14.3248   20.9493 C   0  0  2  0  0  0  0  0  0  0  0  0
    8.1312  -13.4866   22.1902 C   0  0  0  0  0  0  0  0  0  0  0  0
    8.8533  -15.4746   20.8473 C   0  0  2  0  0  0  0  0  0  0  0  0
    8.5170  -16.3009   19.6832 N   0  0  0  0  0  0  0  0  0  0  0  0
    8.9119  -16.3573   22.0229 C   0  0  0  0  0  0  0  0  0  0  0  0
    8.1532  -17.3798   22.0564 O   0  0  0  0  0  0  0  0  0  0  0  0
    9.7530  -16.1590   23.1214 N   0  0  0  0  0  0  0  0  0  0  0  0
   10.2948  -17.2537   23.9251 C   0  0  1  0  0  0  0  0  0  0  0  0
   11.0120  -18.2417   23.0319 C   0  0  0  0  0  0  0  0  0  0  0  0
   11.6435  -19.3603   23.8452 C   0  0  0  0  0  0  0  0  0  0  0  0
   12.2795  -20.3154   22.9069 C   0  0  0  0  0  0  0  0  0  0  0  0
   11.7009  -20.8320   21.9293 O   0  0  0  0  0  0  0  0  0  0  0  0
   11.1649  -16.7685   24.9988 C   0  0  0  0  0  0  0  0  0  0  0  0
   11.6392  -15.4716   25.0964 O   0  0  0  0  0  0  0  0  0  0  0  0
   13.6116  -20.6687   23.1188 O   0  0  0  0  0  0  0  0  0  0  0  0
   11.5087  -17.5731   25.8937 O   0  0  0  0  0  0  0  0  0  0  0  0
  2  3  1  0
  2  1  1  0
  3  4  1  1
  5  3  1  0
  5  6  2  0
  7  8  1  0
  8  9  1  0
  9 11  1  0
  9 10  1  1
 11 12  1  6
 11 13  1  0
 12  5  1  0
 13 15  1  0
 14 13  2  0
 15 16  1  0
 16 21  1  0
 17 18  1  0
 16 17  1  6
 19 23  1  0
 19 18  1  0
 20 19  2  0
 21 24  2  0
 21 22  1  0
M  END
$$$$
