SIE.pdb
     RDKit          3D

 24 23  0  0  1  0  0  0  0  0999 V2000
    6.3520  -16.8372   21.8591 O   0  0  0  0  0  0  0  0  0  0  0  0
    6.9215  -16.1473   20.7899 C   0  0  0  0  0  0  0  0  0  0  0  0
    6.9194  -14.6641   21.1224 C   0  0  2  0  0  0  0  0  0  0  0  0
    7.4018  -13.8654   20.0385 N   0  0  0  0  0  0  0  0  0  0  0  0
    7.8145  -14.4778   22.2956 C   0  0  0  0  0  0  0  0  0  0  0  0
    9.0591  -14.3867   22.1885 O   0  0  0  0  0  0  0  0  0  0  0  0
    5.8313  -11.5848   26.4507 C   0  0  0  0  0  0  0  0  0  0  0  0
    6.8504  -12.1115   25.4103 C   0  0  0  0  0  0  0  0  0  0  0  0
    7.2019  -13.5048   25.8242 C   0  0  2  0  0  0  0  0  0  0  0  0
    7.8979  -13.4190   27.1672 C   0  0  0  0  0  0  0  0  0  0  0  0
    8.0195  -14.2247   24.7980 C   0  0  2  0  0  0  0  0  0  0  0  0
    7.2377  -14.4016   23.5698 N   0  0  0  0  0  0  0  0  0  0  0  0
    8.5266  -15.5454   25.2019 C   0  0  0  0  0  0  0  0  0  0  0  0
    7.6881  -16.4747   25.4377 O   0  0  0  0  0  0  0  0  0  0  0  0
    9.8798  -15.8648   25.3447 N   0  0  0  0  0  0  0  0  0  0  0  0
   10.3589  -17.2142   25.6400 C   0  0  1  0  0  0  0  0  0  0  0  0
   11.6728  -17.4602   24.9318 C   0  0  0  0  0  0  0  0  0  0  0  0
   12.2340  -18.8310   25.2747 C   0  0  0  0  0  0  0  0  0  0  0  0
   13.4799  -19.0311   24.4969 C   0  0  0  0  0  0  0  0  0  0  0  0
   14.5494  -19.4567   24.9788 O   0  0  0  0  0  0  0  0  0  0  0  0
   10.4706  -17.4547   27.0805 C   0  0  0  0  0  0  0  0  0  0  0  0
   10.5571  -16.4570   28.0364 O   0  0  0  0  0  0  0  0  0  0  0  0
   13.4701  -18.7278   23.1360 O   0  0  0  0  0  0  0  0  0  0  0  0
   10.4899  -18.6389   27.4851 O   0  0  0  0  0  0  0  0  0  0  0  0
  2  3  1  0
  2  1  1  0
  3  4  1  6
  5  3  1  0
  5  6  2  0
  7  8  1  0
  8  9  1  0
  9 11  1  0
  9 10  1  1
 11 12  1  6
 11 13  1  0
 12  5  1  0
 13 15  1  0
 14 13  2  0
 15 16  1  0
 16 21  1  0
 17 18  1  0
 16 17  1  6
 19 23  1  0
 19 18  1  0
 20 19  2  0
 21 24  2  0
 21 22  1  0
M  END
$$$$
