SIE.pdb
     RDKit          3D

 24 23  0  0  1  0  0  0  0  0999 V2000
    7.4476  -17.2027   20.8918 O   0  0  0  0  0  0  0  0  0  0  0  0
    6.5010  -16.1900   20.7449 C   0  0  0  0  0  0  0  0  0  0  0  0
    7.2345  -14.8653   20.6129 C   0  0  2  0  0  0  0  0  0  0  0  0
    8.1378  -14.8546   19.5040 N   0  0  0  0  0  0  0  0  0  0  0  0
    8.0077  -14.6666   21.8678 C   0  0  0  0  0  0  0  0  0  0  0  0
    9.2477  -14.8318   21.9311 O   0  0  0  0  0  0  0  0  0  0  0  0
    7.0803  -11.7037   27.1281 C   0  0  0  0  0  0  0  0  0  0  0  0
    7.9196  -12.8066   26.4370 C   0  0  0  0  0  0  0  0  0  0  0  0
    7.2026  -13.1602   25.1733 C   0  0  2  0  0  0  0  0  0  0  0  0
    5.8229  -13.6558   25.5559 C   0  0  0  0  0  0  0  0  0  0  0  0
    7.9559  -14.1462   24.3366 C   0  0  2  0  0  0  0  0  0  0  0  0
    7.3170  -14.2790   23.0232 N   0  0  0  0  0  0  0  0  0  0  0  0
    8.0895  -15.4947   24.9096 C   0  0  0  0  0  0  0  0  0  0  0  0
    7.4400  -16.4514   24.3757 O   0  0  0  0  0  0  0  0  0  0  0  0
    8.8908  -15.8122   26.0099 N   0  0  0  0  0  0  0  0  0  0  0  0
    9.8301  -16.9326   26.0218 C   0  0  1  0  0  0  0  0  0  0  0  0
   10.8790  -16.7361   24.9497 C   0  0  0  0  0  0  0  0  0  0  0  0
   11.8713  -17.8880   24.9335 C   0  0  0  0  0  0  0  0  0  0  0  0
   12.9072  -17.5950   23.9146 C   0  0  0  0  0  0  0  0  0  0  0  0
   13.5555  -16.5303   23.8565 O   0  0  0  0  0  0  0  0  0  0  0  0
   10.4378  -17.1261   27.3404 C   0  0  0  0  0  0  0  0  0  0  0  0
   10.8655  -18.3468   27.8338 O   0  0  0  0  0  0  0  0  0  0  0  0
   13.1857  -18.5643   22.9517 O   0  0  0  0  0  0  0  0  0  0  0  0
   10.5849  -16.1264   28.0789 O   0  0  0  0  0  0  0  0  0  0  0  0
  2  3  1  0
  2  1  1  0
  3  4  1  6
  5  3  1  0
  5  6  2  0
  7  8  1  0
  8  9  1  0
  9 11  1  0
  9 10  1  1
 11 12  1  6
 11 13  1  0
 12  5  1  0
 13 15  1  0
 14 13  2  0
 15 16  1  0
 16 21  1  0
 17 18  1  0
 16 17  1  6
 19 23  1  0
 19 18  1  0
 20 19  2  0
 21 24  2  0
 21 22  1  0
M  END
$$$$
