SIE.pdb
     RDKit          3D

 24 23  0  0  1  0  0  0  0  0999 V2000
    7.3633  -20.1511   17.8765 O   0  0  0  0  0  0  0  0  0  0  0  0
    8.0478  -19.2642   18.7061 C   0  0  0  0  0  0  0  0  0  0  0  0
    8.2560  -17.9637   17.9474 C   0  0  2  0  0  0  0  0  0  0  0  0
    9.0658  -18.1404   16.7818 N   0  0  0  0  0  0  0  0  0  0  0  0
    8.9407  -17.0222   18.8732 C   0  0  0  0  0  0  0  0  0  0  0  0
   10.1736  -16.8061   18.8275 O   0  0  0  0  0  0  0  0  0  0  0  0
    6.5542  -12.3756   20.2885 C   0  0  0  0  0  0  0  0  0  0  0  0
    7.6388  -13.4140   19.9094 C   0  0  0  0  0  0  0  0  0  0  0  0
    7.8029  -14.3120   21.0937 C   0  0  2  0  0  0  0  0  0  0  0  0
    8.2379  -13.4505   22.2617 C   0  0  0  0  0  0  0  0  0  0  0  0
    8.7442  -15.4462   20.8343 C   0  0  2  0  0  0  0  0  0  0  0  0
    8.1716  -16.3524   19.8334 N   0  0  0  0  0  0  0  0  0  0  0  0
    9.1102  -16.2501   22.0109 C   0  0  0  0  0  0  0  0  0  0  0  0
    8.2075  -16.9467   22.5784 O   0  0  0  0  0  0  0  0  0  0  0  0
   10.3941  -16.3123   22.5597 N   0  0  0  0  0  0  0  0  0  0  0  0
   10.7496  -17.1926   23.6717 C   0  0  1  0  0  0  0  0  0  0  0  0
   12.2213  -17.5364   23.6056 C   0  0  0  0  0  0  0  0  0  0  0  0
   13.0808  -16.3593   24.0383 C   0  0  0  0  0  0  0  0  0  0  0  0
   14.4974  -16.6875   23.7509 C   0  0  0  0  0  0  0  0  0  0  0  0
   15.0748  -17.7202   24.1478 O   0  0  0  0  0  0  0  0  0  0  0  0
   10.3898  -16.6132   24.9679 C   0  0  0  0  0  0  0  0  0  0  0  0
   10.3489  -17.3204   26.1573 O   0  0  0  0  0  0  0  0  0  0  0  0
   15.2459  -15.7921   22.9879 O   0  0  0  0  0  0  0  0  0  0  0  0
   10.0979  -15.3971   25.0142 O   0  0  0  0  0  0  0  0  0  0  0  0
  2  3  1  0
  2  1  1  0
  3  4  1  6
  5  3  1  0
  5  6  2  0
  7  8  1  0
  8  9  1  0
  9 11  1  0
  9 10  1  1
 11 12  1  6
 11 13  1  0
 12  5  1  0
 13 15  1  0
 14 13  2  0
 15 16  1  0
 16 21  1  0
 17 18  1  0
 16 17  1  1
 19 23  1  0
 19 18  1  0
 20 19  2  0
 21 24  2  0
 21 22  1  0
M  END
$$$$
