SIE.pdb
     RDKit          3D

 24 23  0  0  1  0  0  0  0  0999 V2000
    6.2619  -17.3378   20.3003 O   0  0  0  0  0  0  0  0  0  0  0  0
    6.3723  -16.7803   21.5732 C   0  0  0  0  0  0  0  0  0  0  0  0
    6.3671  -15.2666   21.4344 C   0  0  2  0  0  0  0  0  0  0  0  0
    6.6807  -14.8437   20.1046 N   0  0  0  0  0  0  0  0  0  0  0  0
    7.3997  -14.7386   22.3656 C   0  0  0  0  0  0  0  0  0  0  0  0
    8.5435  -14.3994   21.9845 O   0  0  0  0  0  0  0  0  0  0  0  0
    5.6386  -11.9014   26.6467 C   0  0  0  0  0  0  0  0  0  0  0  0
    6.5343  -12.3027   25.4488 C   0  0  0  0  0  0  0  0  0  0  0  0
    7.2974  -13.5164   25.8737 C   0  0  2  0  0  0  0  0  0  0  0  0
    8.2204  -13.1022   27.0016 C   0  0  0  0  0  0  0  0  0  0  0  0
    8.0291  -14.1661   24.7414 C   0  0  2  0  0  0  0  0  0  0  0  0
    7.0752  -14.6174   23.7229 N   0  0  0  0  0  0  0  0  0  0  0  0
    8.8736  -15.3144   25.1062 C   0  0  0  0  0  0  0  0  0  0  0  0
    8.3082  -16.4064   25.4376 O   0  0  0  0  0  0  0  0  0  0  0  0
   10.2711  -15.2996   25.1126 N   0  0  0  0  0  0  0  0  0  0  0  0
   11.0855  -16.5017   25.2849 C   0  0  1  0  0  0  0  0  0  0  0  0
   12.4050  -16.3371   24.5638 C   0  0  0  0  0  0  0  0  0  0  0  0
   13.3465  -17.4911   24.8696 C   0  0  0  0  0  0  0  0  0  0  0  0
   14.5935  -17.2920   24.0934 C   0  0  0  0  0  0  0  0  0  0  0  0
   15.1133  -18.1595   23.3624 O   0  0  0  0  0  0  0  0  0  0  0  0
   11.2820  -16.8344   26.6977 C   0  0  0  0  0  0  0  0  0  0  0  0
   11.5849  -18.1003   27.1692 O   0  0  0  0  0  0  0  0  0  0  0  0
   15.2386  -16.0586   24.1765 O   0  0  0  0  0  0  0  0  0  0  0  0
   11.1707  -15.9193   27.5443 O   0  0  0  0  0  0  0  0  0  0  0  0
  2  3  1  0
  2  1  1  0
  3  4  1  6
  5  3  1  0
  5  6  2  0
  7  8  1  0
  8  9  1  0
  9 11  1  0
  9 10  1  1
 11 12  1  6
 11 13  1  0
 12  5  1  0
 13 15  1  0
 14 13  2  0
 15 16  1  0
 16 21  1  0
 17 18  1  0
 16 17  1  1
 19 23  1  0
 19 18  1  0
 20 19  2  0
 21 24  2  0
 21 22  1  0
M  END
$$$$
