SIE.pdb
     RDKit          3D

 24 23  0  0  1  0  0  0  0  0999 V2000
    7.3467  -17.1453   21.1208 O   0  0  0  0  0  0  0  0  0  0  0  0
    6.2735  -16.2680   21.2691 C   0  0  0  0  0  0  0  0  0  0  0  0
    6.7967  -14.8466   21.1412 C   0  0  2  0  0  0  0  0  0  0  0  0
    7.5383  -14.6490   19.9343 N   0  0  0  0  0  0  0  0  0  0  0  0
    7.6921  -14.6039   22.3038 C   0  0  0  0  0  0  0  0  0  0  0  0
    8.9384  -14.5415   22.1956 O   0  0  0  0  0  0  0  0  0  0  0  0
    5.6579  -11.5266   26.3373 C   0  0  0  0  0  0  0  0  0  0  0  0
    6.6793  -12.0772   25.3117 C   0  0  0  0  0  0  0  0  0  0  0  0
    7.0617  -13.4444   25.7814 C   0  0  2  0  0  0  0  0  0  0  0  0
    7.7561  -13.2886   27.1190 C   0  0  0  0  0  0  0  0  0  0  0  0
    7.8947  -14.1873   24.7844 C   0  0  2  0  0  0  0  0  0  0  0  0
    7.1137  -14.4391   23.5689 N   0  0  0  0  0  0  0  0  0  0  0  0
    8.4382  -15.4748   25.2441 C   0  0  0  0  0  0  0  0  0  0  0  0
    7.6325  -16.4410   25.4427 O   0  0  0  0  0  0  0  0  0  0  0  0
    9.7932  -15.7242   25.4790 N   0  0  0  0  0  0  0  0  0  0  0  0
   10.3205  -17.0482   25.8059 C   0  0  1  0  0  0  0  0  0  0  0  0
   11.6437  -17.2626   25.1049 C   0  0  0  0  0  0  0  0  0  0  0  0
   12.2041  -18.6451   25.3990 C   0  0  0  0  0  0  0  0  0  0  0  0
   13.4587  -18.8119   24.6275 C   0  0  0  0  0  0  0  0  0  0  0  0
   13.5880  -18.5160   23.4221 O   0  0  0  0  0  0  0  0  0  0  0  0
   10.4382  -17.2511   27.2517 C   0  0  0  0  0  0  0  0  0  0  0  0
   10.4275  -18.4886   27.8721 O   0  0  0  0  0  0  0  0  0  0  0  0
   14.5759  -19.3329   25.2793 O   0  0  0  0  0  0  0  0  0  0  0  0
   10.5569  -16.2438   27.9849 O   0  0  0  0  0  0  0  0  0  0  0  0
  2  3  1  0
  2  1  1  0
  3  4  1  6
  5  3  1  0
  5  6  2  0
  7  8  1  0
  8  9  1  0
  9 11  1  0
  9 10  1  1
 11 12  1  6
 11 13  1  0
 12  5  1  0
 13 15  1  0
 14 13  2  0
 15 16  1  0
 16 21  1  0
 17 18  1  0
 16 17  1  6
 19 23  1  0
 19 18  1  0
 20 19  2  0
 21 24  2  0
 21 22  1  0
M  END
$$$$
