SIE.pdb
     RDKit          3D

 24 23  0  0  1  0  0  0  0  0999 V2000
    7.2462  -16.6346   20.9071 O   0  0  0  0  0  0  0  0  0  0  0  0
    6.1813  -15.7788   21.1846 C   0  0  0  0  0  0  0  0  0  0  0  0
    6.6969  -14.3492   21.1562 C   0  0  2  0  0  0  0  0  0  0  0  0
    7.3636  -14.0382   19.9296 N   0  0  0  0  0  0  0  0  0  0  0  0
    7.6619  -14.2099   22.2794 C   0  0  0  0  0  0  0  0  0  0  0  0
    8.9024  -14.1971   22.1071 O   0  0  0  0  0  0  0  0  0  0  0  0
    5.9509  -11.3968   26.6089 C   0  0  0  0  0  0  0  0  0  0  0  0
    6.9549  -11.8847   25.5353 C   0  0  0  0  0  0  0  0  0  0  0  0
    7.2858  -13.3032   25.8732 C   0  0  2  0  0  0  0  0  0  0  0  0
    8.0681  -13.2916   27.1707 C   0  0  0  0  0  0  0  0  0  0  0  0
    8.0126  -14.0068   24.7702 C   0  0  2  0  0  0  0  0  0  0  0  0
    7.1583  -14.0885   23.5809 N   0  0  0  0  0  0  0  0  0  0  0  0
    8.4789  -15.3667   25.0827 C   0  0  0  0  0  0  0  0  0  0  0  0
    7.6140  -16.2912   25.2216 O   0  0  0  0  0  0  0  0  0  0  0  0
    9.8201  -15.7284   25.2370 N   0  0  0  0  0  0  0  0  0  0  0  0
   10.2558  -17.0975   25.5086 C   0  0  1  0  0  0  0  0  0  0  0  0
   11.5498  -17.3802   24.7778 C   0  0  0  0  0  0  0  0  0  0  0  0
   12.1597  -18.6977   25.2293 C   0  0  0  0  0  0  0  0  0  0  0  0
   13.4074  -18.9201   24.4606 C   0  0  0  0  0  0  0  0  0  0  0  0
   13.7979  -18.1903   23.5267 O   0  0  0  0  0  0  0  0  0  0  0  0
   10.3799  -17.3599   26.9442 C   0  0  0  0  0  0  0  0  0  0  0  0
   10.3435  -18.6203   27.5157 O   0  0  0  0  0  0  0  0  0  0  0  0
   14.2070  -20.0131   24.7926 O   0  0  0  0  0  0  0  0  0  0  0  0
   10.5293  -16.3855   27.7153 O   0  0  0  0  0  0  0  0  0  0  0  0
  2  3  1  0
  2  1  1  0
  3  4  1  6
  5  3  1  0
  5  6  2  0
  7  8  1  0
  8  9  1  0
  9 11  1  0
  9 10  1  1
 11 12  1  6
 11 13  1  0
 12  5  1  0
 13 15  1  0
 14 13  2  0
 15 16  1  0
 16 21  1  0
 17 18  1  0
 16 17  1  6
 19 23  1  0
 19 18  1  0
 20 19  2  0
 21 24  2  0
 21 22  1  0
M  END
$$$$
