SIE.pdb
     RDKit          3D

 24 23  0  0  1  0  0  0  0  0999 V2000
    6.2289  -16.7684   20.0915 O   0  0  0  0  0  0  0  0  0  0  0  0
    6.5308  -16.3443   21.3848 C   0  0  0  0  0  0  0  0  0  0  0  0
    6.7918  -14.8474   21.3484 C   0  0  2  0  0  0  0  0  0  0  0  0
    7.3917  -14.4319   20.1182 N   0  0  0  0  0  0  0  0  0  0  0  0
    7.7213  -14.5382   22.4677 C   0  0  0  0  0  0  0  0  0  0  0  0
    8.9564  -14.4092   22.3047 O   0  0  0  0  0  0  0  0  0  0  0  0
    5.9026  -11.4837   26.5631 C   0  0  0  0  0  0  0  0  0  0  0  0
    6.9175  -12.0442   25.5363 C   0  0  0  0  0  0  0  0  0  0  0  0
    7.2566  -13.4302   25.9837 C   0  0  2  0  0  0  0  0  0  0  0  0
    8.0082  -13.3145   27.2941 C   0  0  0  0  0  0  0  0  0  0  0  0
    8.0168  -14.2021   24.9512 C   0  0  2  0  0  0  0  0  0  0  0  0
    7.1892  -14.3861   23.7545 N   0  0  0  0  0  0  0  0  0  0  0  0
    8.4961  -15.5273   25.3740 C   0  0  0  0  0  0  0  0  0  0  0  0
    7.6382  -16.4328   25.6312 O   0  0  0  0  0  0  0  0  0  0  0  0
    9.8426  -15.8754   25.5129 N   0  0  0  0  0  0  0  0  0  0  0  0
   10.2904  -17.2176   25.8814 C   0  0  1  0  0  0  0  0  0  0  0  0
   11.5478  -17.5685   25.1170 C   0  0  0  0  0  0  0  0  0  0  0  0
   12.1181  -18.9002   25.5784 C   0  0  0  0  0  0  0  0  0  0  0  0
   13.3254  -19.1940   24.7700 C   0  0  0  0  0  0  0  0  0  0  0  0
   13.7835  -18.4379   23.8894 O   0  0  0  0  0  0  0  0  0  0  0  0
   10.4832  -17.3550   27.3268 C   0  0  0  0  0  0  0  0  0  0  0  0
   10.3622  -18.5453   28.0232 O   0  0  0  0  0  0  0  0  0  0  0  0
   14.0034  -20.3908   24.9984 O   0  0  0  0  0  0  0  0  0  0  0  0
   10.7775  -16.3328   27.9864 O   0  0  0  0  0  0  0  0  0  0  0  0
  2  3  1  0
  2  1  1  0
  3  4  1  6
  5  3  1  0
  5  6  2  0
  7  8  1  0
  8  9  1  0
  9 11  1  0
  9 10  1  1
 11 12  1  6
 11 13  1  0
 12  5  1  0
 13 15  1  0
 14 13  2  0
 15 16  1  0
 16 21  1  0
 17 18  1  0
 16 17  1  6
 19 23  1  0
 19 18  1  0
 20 19  2  0
 21 24  2  0
 21 22  1  0
M  END
$$$$
