SIE.pdb
     RDKit          3D

 24 23  0  0  1  0  0  0  0  0999 V2000
    6.5560  -15.5882   18.9971 O   0  0  0  0  0  0  0  0  0  0  0  0
    7.2080  -15.4433   20.2207 C   0  0  0  0  0  0  0  0  0  0  0  0
    7.1364  -13.9814   20.6305 C   0  0  2  0  0  0  0  0  0  0  0  0
    7.6953  -13.1135   19.6405 N   0  0  0  0  0  0  0  0  0  0  0  0
    7.9146  -13.8418   21.8903 C   0  0  0  0  0  0  0  0  0  0  0  0
    9.1518  -13.6469   21.9025 O   0  0  0  0  0  0  0  0  0  0  0  0
    5.5035  -11.4486   26.1215 C   0  0  0  0  0  0  0  0  0  0  0  0
    6.5667  -11.8702   25.0773 C   0  0  0  0  0  0  0  0  0  0  0  0
    6.9820  -13.2631   25.4289 C   0  0  2  0  0  0  0  0  0  0  0  0
    7.5934  -13.2199   26.8145 C   0  0  0  0  0  0  0  0  0  0  0  0
    7.9009  -13.8670   24.4137 C   0  0  2  0  0  0  0  0  0  0  0  0
    7.2320  -13.9326   23.1101 N   0  0  0  0  0  0  0  0  0  0  0  0
    8.4005  -15.2140   24.7306 C   0  0  0  0  0  0  0  0  0  0  0  0
    7.5614  -16.1659   24.8393 O   0  0  0  0  0  0  0  0  0  0  0  0
    9.7475  -15.5350   24.9201 N   0  0  0  0  0  0  0  0  0  0  0  0
   10.2194  -16.8940   25.1815 C   0  0  1  0  0  0  0  0  0  0  0  0
   11.5518  -17.1160   24.5006 C   0  0  0  0  0  0  0  0  0  0  0  0
   12.1184  -18.4868   24.8345 C   0  0  0  0  0  0  0  0  0  0  0  0
   13.3982  -18.6513   24.1051 C   0  0  0  0  0  0  0  0  0  0  0  0
   13.9316  -17.7620   23.4109 O   0  0  0  0  0  0  0  0  0  0  0  0
   10.2927  -17.1838   26.6154 C   0  0  0  0  0  0  0  0  0  0  0  0
   10.2376  -18.4550   27.1610 O   0  0  0  0  0  0  0  0  0  0  0  0
   14.0604  -19.8753   24.1916 O   0  0  0  0  0  0  0  0  0  0  0  0
   10.4135  -16.2242   27.4097 O   0  0  0  0  0  0  0  0  0  0  0  0
  2  3  1  0
  2  1  1  0
  3  4  1  6
  5  3  1  0
  5  6  2  0
  7  8  1  0
  8  9  1  0
  9 11  1  0
  9 10  1  1
 11 12  1  6
 11 13  1  0
 12  5  1  0
 13 15  1  0
 14 13  2  0
 15 16  1  0
 16 21  1  0
 17 18  1  0
 16 17  1  1
 19 23  1  0
 19 18  1  0
 20 19  2  0
 21 24  2  0
 21 22  1  0
M  END
$$$$
