SIE.pdb
     RDKit          3D

 24 23  0  0  1  0  0  0  0  0999 V2000
    6.1461  -20.1540   18.3522 O   0  0  0  0  0  0  0  0  0  0  0  0
    7.1642  -19.2890   18.7505 C   0  0  0  0  0  0  0  0  0  0  0  0
    7.0646  -18.0192   17.9210 C   0  0  2  0  0  0  0  0  0  0  0  0
    7.3652  -18.2485   16.5416 N   0  0  0  0  0  0  0  0  0  0  0  0
    8.0515  -17.0552   18.4768 C   0  0  0  0  0  0  0  0  0  0  0  0
    8.6950  -16.2566   17.7579 O   0  0  0  0  0  0  0  0  0  0  0  0
    7.6880  -12.2690   20.5355 C   0  0  0  0  0  0  0  0  0  0  0  0
    8.6513  -13.4349   20.8688 C   0  0  0  0  0  0  0  0  0  0  0  0
    8.0067  -14.6820   20.3539 C   0  0  2  0  0  0  0  0  0  0  0  0
    6.6411  -14.7894   21.0014 C   0  0  0  0  0  0  0  0  0  0  0  0
    8.8455  -15.9015   20.5760 C   0  0  2  0  0  0  0  0  0  0  0  0
    8.2667  -17.0436   19.8609 N   0  0  0  0  0  0  0  0  0  0  0  0
    9.0309  -16.2979   21.9806 C   0  0  0  0  0  0  0  0  0  0  0  0
    8.1316  -17.0068   22.5381 O   0  0  0  0  0  0  0  0  0  0  0  0
   10.1383  -15.9545   22.7612 N   0  0  0  0  0  0  0  0  0  0  0  0
   10.7882  -16.8834   23.6846 C   0  0  1  0  0  0  0  0  0  0  0  0
   11.2033  -18.1368   22.9464 C   0  0  0  0  0  0  0  0  0  0  0  0
   12.2449  -17.8290   21.8825 C   0  0  0  0  0  0  0  0  0  0  0  0
   12.5875  -19.0927   21.1878 C   0  0  0  0  0  0  0  0  0  0  0  0
   11.9970  -20.1771   21.3682 O   0  0  0  0  0  0  0  0  0  0  0  0
   11.9216  -16.2665   24.3774 C   0  0  0  0  0  0  0  0  0  0  0  0
   12.5945  -16.8401   25.4427 O   0  0  0  0  0  0  0  0  0  0  0  0
   13.6367  -19.0833   20.2695 O   0  0  0  0  0  0  0  0  0  0  0  0
   12.3165  -15.1446   23.9877 O   0  0  0  0  0  0  0  0  0  0  0  0
  2  3  1  0
  2  1  1  0
  3  4  1  6
  5  3  1  0
  5  6  2  0
  7  8  1  0
  8  9  1  0
  9 11  1  0
  9 10  1  1
 11 12  1  6
 11 13  1  0
 12  5  1  0
 13 15  1  0
 14 13  2  0
 15 16  1  0
 16 21  1  0
 17 18  1  0
 16 17  1  6
 19 23  1  0
 19 18  1  0
 20 19  2  0
 21 24  2  0
 21 22  1  0
M  END
$$$$
