SIE.pdb
     RDKit          3D

 24 23  0  0  1  0  0  0  0  0999 V2000
    7.2607  -16.8299   21.4885 O   0  0  0  0  0  0  0  0  0  0  0  0
    6.2567  -15.8633   21.4526 C   0  0  0  0  0  0  0  0  0  0  0  0
    6.9127  -14.4922   21.4559 C   0  0  2  0  0  0  0  0  0  0  0  0
    7.6654  -14.2490   20.2643 N   0  0  0  0  0  0  0  0  0  0  0  0
    7.8316  -14.4499   22.6248 C   0  0  0  0  0  0  0  0  0  0  0  0
    9.0754  -14.5430   22.5105 O   0  0  0  0  0  0  0  0  0  0  0  0
    6.0057  -11.5006   26.8215 C   0  0  0  0  0  0  0  0  0  0  0  0
    6.9921  -12.0493   25.7611 C   0  0  0  0  0  0  0  0  0  0  0  0
    7.3294  -13.4464   26.1740 C   0  0  2  0  0  0  0  0  0  0  0  0
    8.0824  -13.3641   27.4862 C   0  0  0  0  0  0  0  0  0  0  0  0
    8.0875  -14.1939   25.1222 C   0  0  2  0  0  0  0  0  0  0  0  0
    7.2790  -14.2998   23.9032 N   0  0  0  0  0  0  0  0  0  0  0  0
    8.5199  -15.5502   25.4937 C   0  0  0  0  0  0  0  0  0  0  0  0
    7.6314  -16.4417   25.6885 O   0  0  0  0  0  0  0  0  0  0  0  0
    9.8525  -15.9427   25.6473 N   0  0  0  0  0  0  0  0  0  0  0  0
   10.2516  -17.2988   26.0209 C   0  0  1  0  0  0  0  0  0  0  0  0
   11.4025  -17.7544   25.1513 C   0  0  0  0  0  0  0  0  0  0  0  0
   12.3777  -16.6176   24.8899 C   0  0  0  0  0  0  0  0  0  0  0  0
   13.3981  -17.0929   23.9255 C   0  0  0  0  0  0  0  0  0  0  0  0
   13.3969  -18.2251   23.4009 O   0  0  0  0  0  0  0  0  0  0  0  0
   10.5788  -17.4026   27.4447 C   0  0  0  0  0  0  0  0  0  0  0  0
   10.5503  -16.3420   28.3340 O   0  0  0  0  0  0  0  0  0  0  0  0
   14.4331  -16.2279   23.5724 O   0  0  0  0  0  0  0  0  0  0  0  0
   10.9077  -18.5218   27.8983 O   0  0  0  0  0  0  0  0  0  0  0  0
  2  3  1  0
  2  1  1  0
  3  4  1  6
  5  3  1  0
  5  6  2  0
  7  8  1  0
  8  9  1  0
  9 11  1  0
  9 10  1  1
 11 12  1  6
 11 13  1  0
 12  5  1  0
 13 15  1  0
 14 13  2  0
 15 16  1  0
 16 21  1  0
 17 18  1  0
 16 17  1  6
 19 23  1  0
 19 18  1  0
 20 19  2  0
 21 24  2  0
 21 22  1  0
M  END
$$$$
