KPF.pdb
     RDKit          3D

 28 29  0  0  1  0  0  0  0  0999 V2000
   25.1440  -17.8467  -16.0559 N   0  0  0  0  0  0  0  0  0  0  0  0
   26.2003  -18.0818  -15.2175 C   0  0  1  0  0  0  0  0  0  0  0  0
   26.9546  -16.8786  -14.7777 C   0  0  0  0  0  0  0  0  0  0  0  0
   26.3833  -15.5869  -14.5241 C   0  0  0  0  0  0  0  0  0  0  0  0
   25.4817  -14.7825  -15.3209 C   0  0  0  0  0  0  0  0  0  0  0  0
   25.0724  -13.4503  -14.8134 C   0  0  0  0  0  0  0  0  0  0  0  0
   24.0681  -12.9586  -15.8275 N   0  0  0  0  0  0  0  0  0  0  0  0
   25.8850  -18.8648  -13.9748 C   0  0  0  0  0  0  0  0  0  0  0  0
   24.7090  -18.6254  -13.5395 O   0  0  0  0  0  0  0  0  0  0  0  0
   26.7510  -19.7692  -13.3304 N   0  0  0  0  0  0  0  0  0  0  0  0
   28.1427  -20.1084  -13.4880 C   0  0  0  0  0  0  0  0  0  0  0  0
   28.0791  -21.6306  -13.5510 C   0  0  0  0  0  0  0  0  0  0  0  0
   26.8874  -21.9684  -12.6903 C   0  0  0  0  0  0  0  0  0  0  0  0
   26.3439  -20.6349  -12.2296 C   0  0  1  0  0  0  0  0  0  0  0  0
   26.8800  -20.1774  -10.9396 C   0  0  0  0  0  0  0  0  0  0  0  0
   28.1126  -19.9127  -10.8760 O   0  0  0  0  0  0  0  0  0  0  0  0
   26.0922  -20.0277   -9.7986 N   0  0  0  0  0  0  0  0  0  0  0  0
   26.5185  -20.3625   -8.4537 C   0  0  1  0  0  0  0  0  0  0  0  0
   26.8986  -19.1573   -7.6880 C   0  0  0  0  0  0  0  0  0  0  0  0
   27.6939  -19.4032   -6.4721 C   0  0  0  0  0  0  0  0  0  0  0  0
   29.0623  -19.4504   -6.4936 C   0  0  0  0  0  0  0  0  0  0  0  0
   29.8175  -19.6732   -5.3614 C   0  0  0  0  0  0  0  0  0  0  0  0
   29.1887  -19.8601   -4.1581 C   0  0  0  0  0  0  0  0  0  0  0  0
   27.8131  -19.8211   -4.0921 C   0  0  0  0  0  0  0  0  0  0  0  0
   27.0735  -19.5938   -5.2484 C   0  0  0  0  0  0  0  0  0  0  0  0
   25.5185  -21.2448   -7.7883 C   0  0  0  0  0  0  0  0  0  0  0  0
   25.7842  -22.2303   -6.8865 O   0  0  0  0  0  0  0  0  0  0  0  0
   24.2844  -21.0598   -8.0983 O   0  0  0  0  0  0  0  0  0  0  0  0
  2  1  1  1
  3  2  1  0
  3  4  1  0
  5  4  1  0
  5  6  1  0
  6  7  1  0
  8 10  1  0
  8  2  1  0
  9  8  2  0
 10 14  1  0
 11 12  1  0
 11 10  1  0
 12 13  1  0
 13 14  1  0
 14 15  1  1
 15 17  1  0
 16 15  2  0
 17 18  1  0
 18 19  1  1
 19 20  1  0
 20 21  2  0
 21 22  1  0
 23 22  2  0
 24 23  1  0
 25 24  2  0
 25 20  1  0
 26 27  1  0
 26 18  1  0
 28 26  2  0
M  END
$$$$
