KPF.pdb
     RDKit          3D

 28 29  0  0  1  0  0  0  0  0999 V2000
   23.1766  -19.6316  -17.4517 N   0  0  0  0  0  0  0  0  0  0  0  0
   24.1759  -19.0111  -16.7515 C   0  0  1  0  0  0  0  0  0  0  0  0
   23.8172  -17.7071  -16.1344 C   0  0  0  0  0  0  0  0  0  0  0  0
   23.4622  -16.5174  -16.8539 C   0  0  0  0  0  0  0  0  0  0  0  0
   23.4922  -16.2297  -18.2721 C   0  0  0  0  0  0  0  0  0  0  0  0
   23.1715  -14.8562  -18.7309 C   0  0  0  0  0  0  0  0  0  0  0  0
   21.6871  -14.7215  -18.4917 N   0  0  0  0  0  0  0  0  0  0  0  0
   24.8211  -19.8309  -15.6704 C   0  0  0  0  0  0  0  0  0  0  0  0
   24.0544  -20.7603  -15.2478 O   0  0  0  0  0  0  0  0  0  0  0  0
   26.1161  -19.6368  -15.1527 N   0  0  0  0  0  0  0  0  0  0  0  0
   27.1306  -18.6311  -15.3432 C   0  0  0  0  0  0  0  0  0  0  0  0
   28.3599  -19.4888  -15.6227 C   0  0  0  0  0  0  0  0  0  0  0  0
   28.0990  -20.7456  -14.8305 C   0  0  0  0  0  0  0  0  0  0  0  0
   26.7459  -20.5335  -14.1903 C   0  0  1  0  0  0  0  0  0  0  0  0
   26.8003  -19.9479  -12.8430 C   0  0  0  0  0  0  0  0  0  0  0  0
   27.1166  -18.7298  -12.7441 O   0  0  0  0  0  0  0  0  0  0  0  0
   26.5218  -20.6748  -11.6859 N   0  0  0  0  0  0  0  0  0  0  0  0
   26.3945  -20.0980  -10.3617 C   0  0  1  0  0  0  0  0  0  0  0  0
   25.1982  -19.2372  -10.2564 C   0  0  0  0  0  0  0  0  0  0  0  0
   23.9071  -19.9178  -10.4604 C   0  0  0  0  0  0  0  0  0  0  0  0
   23.4215  -20.2000  -11.7093 C   0  0  0  0  0  0  0  0  0  0  0  0
   22.2181  -20.8421  -11.9125 C   0  0  0  0  0  0  0  0  0  0  0  0
   21.4635  -21.2172  -10.8317 C   0  0  0  0  0  0  0  0  0  0  0  0
   21.9149  -20.9517   -9.5574 C   0  0  0  0  0  0  0  0  0  0  0  0
   23.1329  -20.3034   -9.3785 C   0  0  0  0  0  0  0  0  0  0  0  0
   26.5087  -21.1523   -9.3146 C   0  0  0  0  0  0  0  0  0  0  0  0
   26.5708  -20.9510   -7.9689 O   0  0  0  0  0  0  0  0  0  0  0  0
   26.5565  -22.3711   -9.7213 O   0  0  0  0  0  0  0  0  0  0  0  0
  2  1  1  1
  3  2  1  0
  3  4  1  0
  5  4  1  0
  5  6  1  0
  6  7  1  0
  8 10  1  0
  8  2  1  0
  9  8  2  0
 10 14  1  0
 11 12  1  0
 11 10  1  0
 12 13  1  0
 13 14  1  0
 14 15  1  1
 15 17  1  0
 16 15  2  0
 17 18  1  0
 18 19  1  6
 19 20  1  0
 20 21  2  0
 21 22  1  0
 23 22  2  0
 24 23  1  0
 25 24  2  0
 25 20  1  0
 26 27  1  0
 26 18  1  0
 28 26  2  0
M  END
$$$$
