KPF.pdb
     RDKit          3D

 28 29  0  0  1  0  0  0  0  0999 V2000
   24.1123  -19.0757  -15.7298 N   0  0  0  0  0  0  0  0  0  0  0  0
   25.0469  -18.6986  -14.8034 C   0  0  1  0  0  0  0  0  0  0  0  0
   24.7913  -17.4034  -14.1200 C   0  0  0  0  0  0  0  0  0  0  0  0
   24.9300  -16.1068  -14.7189 C   0  0  0  0  0  0  0  0  0  0  0  0
   25.6152  -15.6945  -15.9253 C   0  0  0  0  0  0  0  0  0  0  0  0
   25.5525  -14.2698  -16.3329 C   0  0  0  0  0  0  0  0  0  0  0  0
   26.3262  -14.2194  -17.6282 N   0  0  0  0  0  0  0  0  0  0  0  0
   25.3353  -19.7012  -13.7224 C   0  0  0  0  0  0  0  0  0  0  0  0
   24.3401  -20.4694  -13.4994 O   0  0  0  0  0  0  0  0  0  0  0  0
   26.5450  -19.8197  -13.0116 N   0  0  0  0  0  0  0  0  0  0  0  0
   27.7170  -18.9907  -12.8838 C   0  0  0  0  0  0  0  0  0  0  0  0
   28.8314  -19.9977  -13.1465 C   0  0  0  0  0  0  0  0  0  0  0  0
   28.2604  -21.2958  -12.6326 C   0  0  0  0  0  0  0  0  0  0  0  0
   26.8700  -20.9503  -12.1496 C   0  0  1  0  0  0  0  0  0  0  0  0
   26.7960  -20.5977  -10.7244 C   0  0  0  0  0  0  0  0  0  0  0  0
   27.3750  -19.5404  -10.3497 O   0  0  0  0  0  0  0  0  0  0  0  0
   26.1222  -21.3748   -9.7826 N   0  0  0  0  0  0  0  0  0  0  0  0
   26.0695  -21.0861   -8.3626 C   0  0  1  0  0  0  0  0  0  0  0  0
   26.6013  -19.7409   -8.0613 C   0  0  0  0  0  0  0  0  0  0  0  0
   27.2708  -19.6014   -6.7559 C   0  0  0  0  0  0  0  0  0  0  0  0
   26.6111  -19.8041   -5.5733 C   0  0  0  0  0  0  0  0  0  0  0  0
   27.2285  -19.6828   -4.3461 C   0  0  0  0  0  0  0  0  0  0  0  0
   28.5550  -19.3432   -4.2898 C   0  0  0  0  0  0  0  0  0  0  0  0
   29.2562  -19.1296   -5.4564 C   0  0  0  0  0  0  0  0  0  0  0  0
   28.6110  -19.2590   -6.6822 C   0  0  0  0  0  0  0  0  0  0  0  0
   24.7103  -21.3649   -7.8184 C   0  0  0  0  0  0  0  0  0  0  0  0
   24.4226  -22.0336   -6.6673 O   0  0  0  0  0  0  0  0  0  0  0  0
   23.7114  -20.9350   -8.5044 O   0  0  0  0  0  0  0  0  0  0  0  0
  2  1  1  1
  3  2  1  0
  3  4  1  0
  5  4  1  0
  5  6  1  0
  6  7  1  0
  8 10  1  0
  8  2  1  0
  9  8  2  0
 10 14  1  0
 11 12  1  0
 11 10  1  0
 12 13  1  0
 13 14  1  0
 14 15  1  1
 15 17  1  0
 16 15  2  0
 17 18  1  0
 18 19  1  6
 19 20  1  0
 20 21  2  0
 21 22  1  0
 23 22  2  0
 24 23  1  0
 25 24  2  0
 25 20  1  0
 26 27  1  0
 26 18  1  0
 28 26  2  0
M  END
$$$$
