KPF.pdb
     RDKit          3D

 28 29  0  0  1  0  0  0  0  0999 V2000
   23.8404  -21.7677  -17.4330 N   0  0  0  0  0  0  0  0  0  0  0  0
   24.3028  -20.7028  -16.7077 C   0  0  1  0  0  0  0  0  0  0  0  0
   23.2598  -19.8297  -16.1078 C   0  0  0  0  0  0  0  0  0  0  0  0
   22.1655  -19.2338  -16.8194 C   0  0  0  0  0  0  0  0  0  0  0  0
   22.1575  -18.3170  -17.9394 C   0  0  0  0  0  0  0  0  0  0  0  0
   20.8638  -17.7484  -18.3900 C   0  0  0  0  0  0  0  0  0  0  0  0
   21.2361  -16.8419  -19.5383 N   0  0  0  0  0  0  0  0  0  0  0  0
   25.2671  -21.0344  -15.6044 C   0  0  0  0  0  0  0  0  0  0  0  0
   25.2191  -22.2673  -15.2766 O   0  0  0  0  0  0  0  0  0  0  0  0
   26.1418  -20.1273  -14.9760 N   0  0  0  0  0  0  0  0  0  0  0  0
   26.3914  -18.7150  -15.1177 C   0  0  0  0  0  0  0  0  0  0  0  0
   27.9114  -18.6858  -15.2371 C   0  0  0  0  0  0  0  0  0  0  0  0
   28.3514  -19.8702  -14.4133 C   0  0  0  0  0  0  0  0  0  0  0  0
   27.0707  -20.5011  -13.9157 C   0  0  1  0  0  0  0  0  0  0  0  0
   26.6306  -20.0167  -12.5994 C   0  0  0  0  0  0  0  0  0  0  0  0
   26.1967  -18.8337  -12.5235 O   0  0  0  0  0  0  0  0  0  0  0  0
   26.6743  -20.8007  -11.4468 N   0  0  0  0  0  0  0  0  0  0  0  0
   26.1822  -20.3839  -10.1482 C   0  0  1  0  0  0  0  0  0  0  0  0
   24.9982  -21.1672   -9.7385 C   0  0  0  0  0  0  0  0  0  0  0  0
   23.8442  -21.0973  -10.6524 C   0  0  0  0  0  0  0  0  0  0  0  0
   23.7540  -21.8790  -11.7731 C   0  0  0  0  0  0  0  0  0  0  0  0
   22.6764  -21.8271  -12.6321 C   0  0  0  0  0  0  0  0  0  0  0  0
   21.6468  -20.9613  -12.3700 C   0  0  0  0  0  0  0  0  0  0  0  0
   21.6980  -20.1562  -11.2533 C   0  0  0  0  0  0  0  0  0  0  0  0
   22.7957  -20.2278  -10.4014 C   0  0  0  0  0  0  0  0  0  0  0  0
   27.2903  -20.3457   -9.1522 C   0  0  0  0  0  0  0  0  0  0  0  0
   28.5621  -20.7951   -9.3412 O   0  0  0  0  0  0  0  0  0  0  0  0
   27.0183  -19.8423   -8.0008 O   0  0  0  0  0  0  0  0  0  0  0  0
  2  1  1  1
  3  2  1  0
  3  4  1  0
  5  4  1  0
  5  6  1  0
  6  7  1  0
  8 10  1  0
  8  2  1  0
  9  8  2  0
 10 14  1  0
 11 12  1  0
 11 10  1  0
 12 13  1  0
 13 14  1  0
 14 15  1  1
 15 17  1  0
 16 15  2  0
 17 18  1  0
 18 19  1  1
 19 20  1  0
 20 21  2  0
 21 22  1  0
 23 22  2  0
 24 23  1  0
 25 24  2  0
 25 20  1  0
 26 27  1  0
 26 18  1  0
 28 26  2  0
M  END
$$$$
