KPF.pdb
     RDKit          3D

 28 29  0  0  1  0  0  0  0  0999 V2000
   27.8825  -17.9053  -19.3332 N   0  0  0  0  0  0  0  0  0  0  0  0
   28.4307  -18.6674  -18.3370 C   0  0  1  0  0  0  0  0  0  0  0  0
   28.7056  -17.9581  -17.0597 C   0  0  0  0  0  0  0  0  0  0  0  0
   27.7639  -17.1498  -16.3393 C   0  0  0  0  0  0  0  0  0  0  0  0
   26.3171  -17.1825  -16.3169 C   0  0  0  0  0  0  0  0  0  0  0  0
   25.5891  -16.1411  -15.5518 C   0  0  0  0  0  0  0  0  0  0  0  0
   24.1349  -16.5162  -15.7042 N   0  0  0  0  0  0  0  0  0  0  0  0
   27.6734  -19.9141  -17.9776 C   0  0  0  0  0  0  0  0  0  0  0  0
   26.4918  -19.9166  -18.4610 O   0  0  0  0  0  0  0  0  0  0  0  0
   28.1666  -20.9819  -17.2033 N   0  0  0  0  0  0  0  0  0  0  0  0
   29.3837  -21.2049  -16.4645 C   0  0  0  0  0  0  0  0  0  0  0  0
   29.7999  -22.5809  -16.9729 C   0  0  0  0  0  0  0  0  0  0  0  0
   28.4858  -23.2527  -17.2843 C   0  0  0  0  0  0  0  0  0  0  0  0
   27.4300  -22.2182  -16.9670 C   0  0  1  0  0  0  0  0  0  0  0  0
   26.9027  -22.2939  -15.5969 C   0  0  0  0  0  0  0  0  0  0  0  0
   27.7121  -22.5777  -14.6706 O   0  0  0  0  0  0  0  0  0  0  0  0
   25.5623  -22.0694  -15.2842 N   0  0  0  0  0  0  0  0  0  0  0  0
   25.0225  -22.0509  -13.9386 C   0  0  1  0  0  0  0  0  0  0  0  0
   25.5634  -20.9235  -13.1513 C   0  0  0  0  0  0  0  0  0  0  0  0
   25.0262  -20.7882  -11.7857 C   0  0  0  0  0  0  0  0  0  0  0  0
   23.7962  -20.2399  -11.5376 C   0  0  0  0  0  0  0  0  0  0  0  0
   23.2803  -20.1140  -10.2648 C   0  0  0  0  0  0  0  0  0  0  0  0
   24.0168  -20.5473   -9.1933 C   0  0  0  0  0  0  0  0  0  0  0  0
   25.2599  -21.1046   -9.3986 C   0  0  0  0  0  0  0  0  0  0  0  0
   25.7580  -21.2214  -10.6924 C   0  0  0  0  0  0  0  0  0  0  0  0
   23.5355  -22.1468  -13.9660 C   0  0  0  0  0  0  0  0  0  0  0  0
   22.7533  -22.8247  -13.0808 O   0  0  0  0  0  0  0  0  0  0  0  0
   22.9321  -21.5321  -14.9206 O   0  0  0  0  0  0  0  0  0  0  0  0
  2  1  1  6
  3  2  1  0
  3  4  1  0
  5  4  1  0
  5  6  1  0
  6  7  1  0
  8 10  1  0
  8  2  1  0
  9  8  2  0
 10 14  1  0
 11 12  1  0
 11 10  1  0
 12 13  1  0
 13 14  1  0
 14 15  1  1
 15 17  1  0
 16 15  2  0
 17 18  1  0
 18 19  1  6
 19 20  1  0
 20 21  2  0
 21 22  1  0
 23 22  2  0
 24 23  1  0
 25 24  2  0
 25 20  1  0
 26 27  1  0
 26 18  1  0
 28 26  2  0
M  END
$$$$
