KPF.pdb
     RDKit          3D

 28 29  0  0  1  0  0  0  0  0999 V2000
   24.4444  -22.4582  -16.1511 N   0  0  0  0  0  0  0  0  0  0  0  0
   24.8050  -21.3400  -15.4487 C   0  0  1  0  0  0  0  0  0  0  0  0
   23.6826  -20.5123  -14.9336 C   0  0  0  0  0  0  0  0  0  0  0  0
   22.5860  -20.0199  -15.7173 C   0  0  0  0  0  0  0  0  0  0  0  0
   22.5709  -19.3467  -16.9985 C   0  0  0  0  0  0  0  0  0  0  0  0
   21.2743  -18.8787  -17.5461 C   0  0  0  0  0  0  0  0  0  0  0  0
   21.6242  -18.3209  -18.9045 N   0  0  0  0  0  0  0  0  0  0  0  0
   25.7326  -21.5688  -14.2893 C   0  0  0  0  0  0  0  0  0  0  0  0
   25.7964  -22.8003  -13.9587 O   0  0  0  0  0  0  0  0  0  0  0  0
   26.4678  -20.5748  -13.6152 N   0  0  0  0  0  0  0  0  0  0  0  0
   26.5640  -19.1423  -13.7402 C   0  0  0  0  0  0  0  0  0  0  0  0
   28.0751  -18.9420  -13.7834 C   0  0  0  0  0  0  0  0  0  0  0  0
   28.6041  -20.0767  -12.9421 C   0  0  0  0  0  0  0  0  0  0  0  0
   27.3794  -20.8512  -12.5109 C   0  0  1  0  0  0  0  0  0  0  0  0
   26.8232  -20.4304  -11.2169 C   0  0  0  0  0  0  0  0  0  0  0  0
   25.9575  -19.5117  -11.2201 O   0  0  0  0  0  0  0  0  0  0  0  0
   27.2098  -20.9968  -10.0025 N   0  0  0  0  0  0  0  0  0  0  0  0
   26.3109  -21.2706   -8.8983 C   0  0  1  0  0  0  0  0  0  0  0  0
   27.0336  -21.8188   -7.7319 C   0  0  0  0  0  0  0  0  0  0  0  0
   27.6347  -20.8193   -6.8312 C   0  0  0  0  0  0  0  0  0  0  0  0
   26.9193  -20.2154   -5.8318 C   0  0  0  0  0  0  0  0  0  0  0  0
   27.4726  -19.2836   -4.9788 C   0  0  0  0  0  0  0  0  0  0  0  0
   28.7896  -18.9342   -5.1253 C   0  0  0  0  0  0  0  0  0  0  0  0
   29.5453  -19.5175   -6.1186 C   0  0  0  0  0  0  0  0  0  0  0  0
   28.9644  -20.4555   -6.9661 C   0  0  0  0  0  0  0  0  0  0  0  0
   25.4533  -20.0860   -8.6108 C   0  0  0  0  0  0  0  0  0  0  0  0
   24.1796  -20.1087   -8.1291 O   0  0  0  0  0  0  0  0  0  0  0  0
   25.9648  -18.9295   -8.8434 O   0  0  0  0  0  0  0  0  0  0  0  0
  2  1  1  1
  3  2  1  0
  3  4  1  0
  5  4  1  0
  5  6  1  0
  6  7  1  0
  8 10  1  0
  8  2  1  0
  9  8  2  0
 10 14  1  0
 11 12  1  0
 11 10  1  0
 12 13  1  0
 13 14  1  0
 14 15  1  1
 15 17  1  0
 16 15  2  0
 17 18  1  0
 18 19  1  1
 19 20  1  0
 20 21  2  0
 21 22  1  0
 23 22  2  0
 24 23  1  0
 25 24  2  0
 25 20  1  0
 26 27  1  0
 26 18  1  0
 28 26  2  0
M  END
$$$$
