AGN.pdb
     RDKit          3D

 18 17  0  0  1  0  0  0  0  0999 V2000
    9.7060  -17.3773   20.8550 C   0  0  0  0  0  0  0  0  0  0  0  0
   10.5959  -17.9218   21.9216 C   0  0  2  0  0  0  0  0  0  0  0  0
    9.8313  -18.4216   23.0159 N   0  0  0  0  0  0  0  0  0  0  0  0
   11.6777  -16.9898   22.3460 C   0  0  0  0  0  0  0  0  0  0  0  0
   12.5242  -16.5176   21.5459 O   0  0  0  0  0  0  0  0  0  0  0  0
   11.8095  -16.5777   23.7105 N   0  0  0  0  0  0  0  0  0  0  0  0
   12.8272  -15.6975   24.1786 C   0  0  0  0  0  0  0  0  0  0  0  0
   12.7789  -15.4080   25.6256 C   0  0  0  0  0  0  0  0  0  0  0  0
   13.6034  -14.6337   26.1555 O   0  0  0  0  0  0  0  0  0  0  0  0
   10.8897  -13.1843   27.2064 N   0  0  0  0  0  0  0  0  0  0  0  0
    9.9817  -14.0499   27.8557 C   0  0  0  0  0  0  0  0  0  0  0  0
    8.8207  -13.5888   28.0944 O   0  0  0  0  0  0  0  0  0  0  0  0
   10.2906  -15.4282   28.2626 C   0  0  0  0  0  0  0  0  0  0  0  0
   11.6716  -15.8296   27.8682 C   0  0  2  0  0  0  0  0  0  0  0  0
   11.7844  -16.0171   26.4224 N   0  0  0  0  0  0  0  0  0  0  0  0
   11.9490  -17.1737   28.4973 C   0  0  0  0  0  0  0  0  0  0  0  0
   12.0309  -18.2414   27.8718 O   0  0  0  0  0  0  0  0  0  0  0  0
   12.1283  -17.2440   29.8713 O   0  0  0  0  0  0  0  0  0  0  0  0
  2  3  1  0
  2  1  1  6
  4  2  1  0
  5  4  2  0
  6  4  1  0
  7  6  1  0
  8  9  2  0
  8  7  1  0
 11 10  1  0
 11 12  2  0
 14 13  1  6
 13 11  1  0
 14 15  1  0
 15  8  1  0
 16 14  1  0
 17 16  2  0
 18 16  1  0
M  END
$$$$
