AGN.pdb
     RDKit          3D

 18 17  0  0  1  0  0  0  0  0999 V2000
    5.4812  -18.9476   19.4083 C   0  0  0  0  0  0  0  0  0  0  0  0
    6.8967  -18.5603   19.6772 C   0  0  2  0  0  0  0  0  0  0  0  0
    7.3753  -19.1778   20.8694 N   0  0  0  0  0  0  0  0  0  0  0  0
    7.1423  -17.0914   19.6444 C   0  0  0  0  0  0  0  0  0  0  0  0
    7.0641  -16.4100   18.5912 O   0  0  0  0  0  0  0  0  0  0  0  0
    7.4855  -16.3696   20.8319 N   0  0  0  0  0  0  0  0  0  0  0  0
    7.6273  -14.9530   20.8861 C   0  0  0  0  0  0  0  0  0  0  0  0
    8.0435  -14.4215   22.1992 C   0  0  0  0  0  0  0  0  0  0  0  0
    8.1843  -13.1940   22.3821 O   0  0  0  0  0  0  0  0  0  0  0  0
    6.4905  -13.1166   25.0198 N   0  0  0  0  0  0  0  0  0  0  0  0
    6.5219  -14.3768   25.6572 C   0  0  0  0  0  0  0  0  0  0  0  0
    5.4771  -14.7233   26.2942 O   0  0  0  0  0  0  0  0  0  0  0  0
    7.6675  -15.2973   25.6271 C   0  0  0  0  0  0  0  0  0  0  0  0
    8.6795  -14.8947   24.6085 C   0  0  2  0  0  0  0  0  0  0  0  0
    8.2864  -15.3163   23.2647 N   0  0  0  0  0  0  0  0  0  0  0  0
    9.9603  -15.6266   24.9295 C   0  0  0  0  0  0  0  0  0  0  0  0
   10.4415  -16.5399   24.2425 O   0  0  0  0  0  0  0  0  0  0  0  0
   10.6662  -15.2694   26.0694 O   0  0  0  0  0  0  0  0  0  0  0  0
  2  3  1  0
  2  1  1  1
  4  2  1  0
  5  4  2  0
  6  4  1  0
  7  6  1  0
  8  9  2  0
  8  7  1  0
 11 10  1  0
 11 12  2  0
 14 13  1  1
 13 11  1  0
 14 15  1  0
 15  8  1  0
 16 14  1  0
 17 16  2  0
 18 16  1  0
M  END
$$$$
