AGN.pdb
     RDKit          3D

 18 17  0  0  1  0  0  0  0  0999 V2000
    7.7489  -12.4526   19.9482 C   0  0  0  0  0  0  0  0  0  0  0  0
    7.8317  -13.9151   19.6653 C   0  0  2  0  0  0  0  0  0  0  0  0
    6.6548  -14.5864   20.1079 N   0  0  0  0  0  0  0  0  0  0  0  0
    9.0849  -14.5586   20.1497 C   0  0  0  0  0  0  0  0  0  0  0  0
   10.2279  -14.1947   19.7745 O   0  0  0  0  0  0  0  0  0  0  0  0
    9.0494  -15.6427   21.0838 N   0  0  0  0  0  0  0  0  0  0  0  0
   10.2116  -16.2989   21.5820 C   0  0  0  0  0  0  0  0  0  0  0  0
   10.4576  -16.1127   23.0259 C   0  0  0  0  0  0  0  0  0  0  0  0
   11.5196  -16.5042   23.5542 O   0  0  0  0  0  0  0  0  0  0  0  0
    6.4405  -13.3152   24.8409 N   0  0  0  0  0  0  0  0  0  0  0  0
    7.3209  -14.4154   24.9389 C   0  0  0  0  0  0  0  0  0  0  0  0
    7.0612  -15.4244   24.2097 O   0  0  0  0  0  0  0  0  0  0  0  0
    8.5002  -14.4631   25.8152 C   0  0  0  0  0  0  0  0  0  0  0  0
    9.5585  -15.3651   25.2767 C   0  0  2  0  0  0  0  0  0  0  0  0
    9.4756  -15.4820   23.8215 N   0  0  0  0  0  0  0  0  0  0  0  0
    9.3023  -16.7453   25.8325 C   0  0  0  0  0  0  0  0  0  0  0  0
    8.3044  -17.4349   25.5749 O   0  0  0  0  0  0  0  0  0  0  0  0
   10.2358  -17.3020   26.6949 O   0  0  0  0  0  0  0  0  0  0  0  0
  2  3  1  0
  2  1  1  1
  4  2  1  0
  5  4  2  0
  6  4  1  0
  7  6  1  0
  8  9  2  0
  8  7  1  0
 11 10  1  0
 11 12  2  0
 14 13  1  1
 13 11  1  0
 14 15  1  0
 15  8  1  0
 16 14  1  0
 17 16  2  0
 18 16  1  0
M  END
$$$$
