AGN.pdb
     RDKit          3D

 18 17  0  0  1  0  0  0  0  0999 V2000
    7.4504  -12.7623   18.1579 C   0  0  0  0  0  0  0  0  0  0  0  0
    8.2535  -13.7319   18.9584 C   0  0  2  0  0  0  0  0  0  0  0  0
    7.9118  -15.0745   18.6230 N   0  0  0  0  0  0  0  0  0  0  0  0
    8.2308  -13.4757   20.4257 C   0  0  0  0  0  0  0  0  0  0  0  0
    8.7148  -12.4384   20.9447 O   0  0  0  0  0  0  0  0  0  0  0  0
    7.6458  -14.4145   21.3342 N   0  0  0  0  0  0  0  0  0  0  0  0
    7.6336  -14.2474   22.7489 C   0  0  0  0  0  0  0  0  0  0  0  0
    8.6456  -15.0399   23.4754 C   0  0  0  0  0  0  0  0  0  0  0  0
    8.6281  -15.1199   24.7218 O   0  0  0  0  0  0  0  0  0  0  0  0
   11.0250  -18.7315   25.2007 N   0  0  0  0  0  0  0  0  0  0  0  0
   10.7125  -19.0110   23.8519 C   0  0  0  0  0  0  0  0  0  0  0  0
   10.5712  -20.2353   23.5378 O   0  0  0  0  0  0  0  0  0  0  0  0
   10.5406  -17.9906   22.8078 C   0  0  0  0  0  0  0  0  0  0  0  0
   10.6357  -16.6081   23.3586 C   0  0  2  0  0  0  0  0  0  0  0  0
    9.6492  -15.7177   22.7485 N   0  0  0  0  0  0  0  0  0  0  0  0
   11.9932  -16.0642   22.9836 C   0  0  0  0  0  0  0  0  0  0  0  0
   12.9515  -15.9612   23.7639 O   0  0  0  0  0  0  0  0  0  0  0  0
   12.2072  -15.6434   21.6789 O   0  0  0  0  0  0  0  0  0  0  0  0
  2  3  1  0
  2  1  1  6
  4  2  1  0
  5  4  2  0
  6  4  1  0
  7  6  1  0
  8  9  2  0
  8  7  1  0
 11 10  1  0
 11 12  2  0
 14 13  1  6
 13 11  1  0
 14 15  1  0
 15  8  1  0
 16 14  1  0
 17 16  2  0
 18 16  1  0
M  END
$$$$
