AGN.pdb
     RDKit          3D

 18 17  0  0  1  0  0  0  0  0999 V2000
   11.1564  -19.9805   21.1887 C   0  0  0  0  0  0  0  0  0  0  0  0
   10.7738  -18.5390   21.2327 C   0  0  2  0  0  0  0  0  0  0  0  0
   11.9036  -17.7051   20.9876 N   0  0  0  0  0  0  0  0  0  0  0  0
   10.0166  -18.1475   22.4544 C   0  0  0  0  0  0  0  0  0  0  0  0
    8.9713  -18.7373   22.8275 O   0  0  0  0  0  0  0  0  0  0  0  0
   10.4494  -17.0608   23.2794 N   0  0  0  0  0  0  0  0  0  0  0  0
    9.8089  -16.6835   24.4948 C   0  0  0  0  0  0  0  0  0  0  0  0
   10.7260  -16.2817   25.5799 C   0  0  0  0  0  0  0  0  0  0  0  0
   11.9648  -16.3384   25.4305 O   0  0  0  0  0  0  0  0  0  0  0  0
    8.2519  -12.8611   28.2884 N   0  0  0  0  0  0  0  0  0  0  0  0
    9.3179  -13.5644   27.6849 C   0  0  0  0  0  0  0  0  0  0  0  0
    9.2011  -13.8307   26.4468 O   0  0  0  0  0  0  0  0  0  0  0  0
   10.5342  -13.9971   28.3878 C   0  0  0  0  0  0  0  0  0  0  0  0
   11.0079  -15.3292   27.9137 C   0  0  2  0  0  0  0  0  0  0  0  0
   10.1929  -15.8263   26.8061 N   0  0  0  0  0  0  0  0  0  0  0  0
   10.8256  -16.3051   29.0511 C   0  0  0  0  0  0  0  0  0  0  0  0
   11.4005  -16.2258   30.1470 O   0  0  0  0  0  0  0  0  0  0  0  0
    9.9585  -17.3748   28.8811 O   0  0  0  0  0  0  0  0  0  0  0  0
  2  3  1  0
  2  1  1  1
  4  2  1  0
  5  4  2  0
  6  4  1  0
  7  6  1  0
  8  9  2  0
  8  7  1  0
 11 10  1  0
 11 12  2  0
 14 13  1  1
 13 11  1  0
 14 15  1  0
 15  8  1  0
 16 14  1  0
 17 16  2  0
 18 16  1  0
M  END
$$$$
