AGN.pdb
     RDKit          3D

 18 17  0  0  1  0  0  0  0  0999 V2000
    6.3904  -19.3281   22.6280 C   0  0  0  0  0  0  0  0  0  0  0  0
    6.5632  -18.2959   21.5646 C   0  0  2  0  0  0  0  0  0  0  0  0
    7.7693  -18.5127   20.8364 N   0  0  0  0  0  0  0  0  0  0  0  0
    6.4202  -16.8942   22.0482 C   0  0  0  0  0  0  0  0  0  0  0  0
    5.4785  -16.5221   22.7928 O   0  0  0  0  0  0  0  0  0  0  0  0
    7.3652  -15.8830   21.6831 N   0  0  0  0  0  0  0  0  0  0  0  0
    7.2716  -14.5230   22.0971 C   0  0  0  0  0  0  0  0  0  0  0  0
    8.0677  -14.1830   23.2932 C   0  0  0  0  0  0  0  0  0  0  0  0
    9.2754  -13.8786   23.1980 O   0  0  0  0  0  0  0  0  0  0  0  0
    6.9373  -11.4418   25.2538 N   0  0  0  0  0  0  0  0  0  0  0  0
    6.6354  -12.1258   26.4522 C   0  0  0  0  0  0  0  0  0  0  0  0
    5.7717  -11.5898   27.2164 O   0  0  0  0  0  0  0  0  0  0  0  0
    7.2460  -13.3988   26.8614 C   0  0  0  0  0  0  0  0  0  0  0  0
    8.1619  -13.9391   25.8160 C   0  0  2  0  0  0  0  0  0  0  0  0
    7.4530  -14.2029   24.5646 N   0  0  0  0  0  0  0  0  0  0  0  0
    8.6732  -15.2719   26.3077 C   0  0  0  0  0  0  0  0  0  0  0  0
    9.4087  -15.4243   27.2944 O   0  0  0  0  0  0  0  0  0  0  0  0
    8.3077  -16.4216   25.6225 O   0  0  0  0  0  0  0  0  0  0  0  0
  2  3  1  0
  2  1  1  1
  4  2  1  0
  5  4  2  0
  6  4  1  0
  7  6  1  0
  8  9  2  0
  8  7  1  0
 11 10  1  0
 11 12  2  0
 14 13  1  1
 13 11  1  0
 14 15  1  0
 15  8  1  0
 16 14  1  0
 17 16  2  0
 18 16  1  0
M  END
$$$$
