AGN.pdb
     RDKit          3D

 18 17  0  0  1  0  0  0  0  0999 V2000
    7.4787  -13.8570   19.3991 C   0  0  0  0  0  0  0  0  0  0  0  0
    8.0679  -13.5409   20.7329 C   0  0  2  0  0  0  0  0  0  0  0  0
    9.4921  -13.5409   20.6728 N   0  0  0  0  0  0  0  0  0  0  0  0
    7.5331  -14.3727   21.8469 C   0  0  0  0  0  0  0  0  0  0  0  0
    6.3293  -14.7272   21.9166 O   0  0  0  0  0  0  0  0  0  0  0  0
    8.3786  -14.8183   22.9126 N   0  0  0  0  0  0  0  0  0  0  0  0
    7.9526  -15.6998   23.9475 C   0  0  0  0  0  0  0  0  0  0  0  0
    8.9732  -15.9891   24.9745 C   0  0  0  0  0  0  0  0  0  0  0  0
   10.0841  -16.4672   24.6621 O   0  0  0  0  0  0  0  0  0  0  0  0
    7.4193  -12.5873   27.8199 N   0  0  0  0  0  0  0  0  0  0  0  0
    8.7096  -13.1387   27.6583 C   0  0  0  0  0  0  0  0  0  0  0  0
    9.5107  -12.5100   26.8965 O   0  0  0  0  0  0  0  0  0  0  0  0
    9.1759  -14.3721   28.3082 C   0  0  0  0  0  0  0  0  0  0  0  0
    9.7017  -15.3579   27.3206 C   0  0  2  0  0  0  0  0  0  0  0  0
    8.6877  -15.7208   26.3315 N   0  0  0  0  0  0  0  0  0  0  0  0
   10.0343  -16.6219   28.0764 C   0  0  0  0  0  0  0  0  0  0  0  0
    9.4430  -17.7029   27.9371 O   0  0  0  0  0  0  0  0  0  0  0  0
   11.0714  -16.5959   28.9978 O   0  0  0  0  0  0  0  0  0  0  0  0
  2  3  1  0
  2  1  1  6
  4  2  1  0
  5  4  2  0
  6  4  1  0
  7  6  1  0
  8  9  2  0
  8  7  1  0
 11 10  1  0
 11 12  2  0
 14 13  1  1
 13 11  1  0
 14 15  1  0
 15  8  1  0
 16 14  1  0
 17 16  2  0
 18 16  1  0
M  END
$$$$
