SYN.pdb
     RDKit          3D

 27 27  0  0  1  0  0  0  0  0999 V2000
   39.6648   -6.5042  -14.2847 O   0  0  0  0  0  0  0  0  0  0  0  0
   38.3874   -7.0503  -14.2133 C   0  0  0  0  0  0  0  0  0  0  0  0
   37.8140   -6.9535  -12.8215 C   0  0  2  0  0  0  0  0  0  0  0  0
   37.6616   -5.5814  -12.4483 N   0  0  0  0  0  0  0  0  0  0  0  0
   38.6043   -7.7378  -11.8375 C   0  0  0  0  0  0  0  0  0  0  0  0
   39.2123   -7.1667  -10.8926 O   0  0  0  0  0  0  0  0  0  0  0  0
   36.6716  -12.6273   -5.6593 O   0  0  0  0  0  0  0  0  0  0  0  0
   37.1668  -12.2782   -6.9164 C   0  0  0  0  0  0  0  0  0  0  0  0
   36.6796  -12.8568   -8.0689 C   0  0  0  0  0  0  0  0  0  0  0  0
   37.1769  -12.5034   -9.3037 C   0  0  0  0  0  0  0  0  0  0  0  0
   38.1917  -11.5497   -9.4595 C   0  0  0  0  0  0  0  0  0  0  0  0
   38.7351  -11.2120  -10.7866 C   0  0  0  0  0  0  0  0  0  0  0  0
   39.4889   -9.9187  -10.8828 C   0  0  2  0  0  0  0  0  0  0  0  0
   38.7243   -9.1473  -11.8942 N   0  0  0  0  0  0  0  0  0  0  0  0
   40.8654  -10.0906  -11.3745 C   0  0  0  0  0  0  0  0  0  0  0  0
   41.0364  -10.3135  -12.6289 O   0  0  0  0  0  0  0  0  0  0  0  0
   38.6628  -10.9857   -8.2979 C   0  0  0  0  0  0  0  0  0  0  0  0
   38.1655  -11.3388   -7.0614 C   0  0  0  0  0  0  0  0  0  0  0  0
   46.0478   -8.6511  -12.4830 N   0  0  0  0  0  0  0  0  0  0  0  0
   45.6367   -9.4433  -11.3729 C   0  0  0  0  0  0  0  0  0  0  0  0
   46.4211  -10.3232  -10.9592 O   0  0  0  0  0  0  0  0  0  0  0  0
   44.3358   -9.1957  -10.7765 C   0  0  0  0  0  0  0  0  0  0  0  0
   43.3201  -10.2496  -11.2085 C   0  0  2  0  0  0  0  0  0  0  0  0
   42.0438  -10.0260  -10.5887 N   0  0  0  0  0  0  0  0  0  0  0  0
   43.9432  -11.5525  -10.9012 C   0  0  0  0  0  0  0  0  0  0  0  0
   44.4741  -12.2521  -11.7785 O   0  0  0  0  0  0  0  0  0  0  0  0
   43.9415  -12.0192   -9.5971 O   0  0  0  0  0  0  0  0  0  0  0  0
  2  1  1  0
  2  3  1  0
  3  5  1  0
  3  4  1  1
  5  6  2  0
  7  8  1  0
  8 18  2  0
  8  9  1  0
  9 10  2  0
 10 11  1  0
 11 12  1  0
 13 12  1  6
 14 13  1  0
 14  5  1  0
 15 16  2  0
 15 13  1  0
 17 11  2  0
 18 17  1  0
 19 20  1  0
 20 22  1  0
 20 21  2  0
 23 22  1  1
 23 25  1  0
 23 24  1  0
 24 15  1  0
 25 27  1  0
 26 25  2  0
M  END
$$$$
