SYN.pdb
     RDKit          3D

 27 27  0  0  1  0  0  0  0  0999 V2000
   28.7356  -19.7977  -19.3709 O   0  0  0  0  0  0  0  0  0  0  0  0
   27.9059  -20.2587  -18.3540 C   0  0  0  0  0  0  0  0  0  0  0  0
   28.6315  -21.1949  -17.4202 C   0  0  2  0  0  0  0  0  0  0  0  0
   29.1181  -22.3289  -18.1431 N   0  0  0  0  0  0  0  0  0  0  0  0
   27.7987  -21.5686  -16.2476 C   0  0  0  0  0  0  0  0  0  0  0  0
   27.1980  -22.6759  -16.2064 O   0  0  0  0  0  0  0  0  0  0  0  0
   24.3973  -20.4476   -7.9296 O   0  0  0  0  0  0  0  0  0  0  0  0
   25.1013  -20.4179   -9.1341 C   0  0  0  0  0  0  0  0  0  0  0  0
   26.1948  -21.2292   -9.3499 C   0  0  0  0  0  0  0  0  0  0  0  0
   26.8811  -21.1902  -10.5434 C   0  0  0  0  0  0  0  0  0  0  0  0
   26.5145  -20.3371  -11.5928 C   0  0  0  0  0  0  0  0  0  0  0  0
   27.2836  -20.2847  -12.8483 C   0  0  0  0  0  0  0  0  0  0  0  0
   26.7329  -21.0802  -13.9947 C   0  0  2  0  0  0  0  0  0  0  0  0
   27.6282  -20.7247  -15.1238 N   0  0  0  0  0  0  0  0  0  0  0  0
   25.3586  -20.6951  -14.3541 C   0  0  0  0  0  0  0  0  0  0  0  0
   25.1953  -19.8812  -15.3356 O   0  0  0  0  0  0  0  0  0  0  0  0
   25.4219  -19.5373  -11.3565 C   0  0  0  0  0  0  0  0  0  0  0  0
   24.7343  -19.5756  -10.1621 C   0  0  0  0  0  0  0  0  0  0  0  0
   21.2460  -20.1511  -17.0612 N   0  0  0  0  0  0  0  0  0  0  0  0
   21.3415  -21.2272  -16.1329 C   0  0  0  0  0  0  0  0  0  0  0  0
   20.2937  -21.8398  -15.8372 O   0  0  0  0  0  0  0  0  0  0  0  0
   22.6405  -21.5617  -15.5763 C   0  0  0  0  0  0  0  0  0  0  0  0
   22.8968  -20.8036  -14.2768 C   0  0  2  0  0  0  0  0  0  0  0  0
   24.1747  -21.1470  -13.7182 N   0  0  0  0  0  0  0  0  0  0  0  0
   21.7379  -21.0964  -13.4099 C   0  0  0  0  0  0  0  0  0  0  0  0
   20.7633  -20.3315  -13.3323 O   0  0  0  0  0  0  0  0  0  0  0  0
   21.7265  -22.2577  -12.6550 O   0  0  0  0  0  0  0  0  0  0  0  0
  2  1  1  0
  2  3  1  0
  3  5  1  0
  3  4  1  6
  5  6  2  0
  7  8  1  0
  8 18  2  0
  8  9  1  0
  9 10  2  0
 10 11  1  0
 11 12  1  0
 13 12  1  1
 14 13  1  0
 14  5  1  0
 15 16  2  0
 15 13  1  0
 17 11  2  0
 18 17  1  0
 19 20  1  0
 20 22  1  0
 20 21  2  0
 23 22  1  6
 23 25  1  0
 23 24  1  0
 24 15  1  0
 25 27  1  0
 26 25  2  0
M  END
$$$$
