SYN.pdb
     RDKit          3D

 27 27  0  0  1  0  0  0  0  0999 V2000
   24.5948  -10.7551  -22.3071 O   0  0  0  0  0  0  0  0  0  0  0  0
   23.5085  -10.5062  -21.4746 C   0  0  0  0  0  0  0  0  0  0  0  0
   23.3580  -11.5709  -20.4169 C   0  0  2  0  0  0  0  0  0  0  0  0
   23.0068  -12.8179  -21.0228 N   0  0  0  0  0  0  0  0  0  0  0  0
   22.4145  -11.1615  -19.3443 C   0  0  0  0  0  0  0  0  0  0  0  0
   21.1735  -11.3429  -19.4694 O   0  0  0  0  0  0  0  0  0  0  0  0
   19.3281  -16.1324  -16.3842 O   0  0  0  0  0  0  0  0  0  0  0  0
   20.0299  -14.9311  -16.2757 C   0  0  0  0  0  0  0  0  0  0  0  0
   19.4433  -13.7987  -15.7522 C   0  0  0  0  0  0  0  0  0  0  0  0
   20.1469  -12.6190  -15.6505 C   0  0  0  0  0  0  0  0  0  0  0  0
   21.4798  -12.5015  -16.0666 C   0  0  0  0  0  0  0  0  0  0  0  0
   22.2037  -11.2211  -15.9827 C   0  0  0  0  0  0  0  0  0  0  0  0
   21.8891  -10.2128  -17.0478 C   0  0  2  0  0  0  0  0  0  0  0  0
   22.8372  -10.5539  -18.1375 N   0  0  0  0  0  0  0  0  0  0  0  0
   22.1498   -8.8278  -16.6234 C   0  0  0  0  0  0  0  0  0  0  0  0
   23.3723   -8.4371  -16.5509 O   0  0  0  0  0  0  0  0  0  0  0  0
   22.0449  -13.6422  -16.5852 C   0  0  0  0  0  0  0  0  0  0  0  0
   21.3413  -14.8235  -16.6873 C   0  0  0  0  0  0  0  0  0  0  0  0
   21.3636   -3.1774  -16.9204 N   0  0  0  0  0  0  0  0  0  0  0  0
   20.9831   -4.1580  -15.9600 C   0  0  0  0  0  0  0  0  0  0  0  0
   20.9866   -3.8292  -14.7548 O   0  0  0  0  0  0  0  0  0  0  0  0
   20.6113   -5.4845  -16.4198 C   0  0  0  0  0  0  0  0  0  0  0  0
   21.5789   -6.5422  -15.8965 C   0  0  2  0  0  0  0  0  0  0  0  0
   21.1679   -7.8617  -16.2878 N   0  0  0  0  0  0  0  0  0  0  0  0
   21.6604   -6.3209  -14.4389 C   0  0  0  0  0  0  0  0  0  0  0  0
   22.2212   -5.3251  -13.9541 O   0  0  0  0  0  0  0  0  0  0  0  0
   21.0973   -7.2461  -13.5755 O   0  0  0  0  0  0  0  0  0  0  0  0
  2  1  1  0
  2  3  1  0
  3  5  1  0
  3  4  1  6
  5  6  2  0
  7  8  1  0
  8 18  2  0
  8  9  1  0
  9 10  2  0
 10 11  1  0
 11 12  1  0
 13 12  1  1
 14 13  1  0
 14  5  1  0
 15 16  2  0
 15 13  1  0
 17 11  2  0
 18 17  1  0
 19 20  1  0
 20 22  1  0
 20 21  2  0
 23 22  1  1
 23 25  1  0
 23 24  1  0
 24 15  1  0
 25 27  1  0
 26 25  2  0
M  END
$$$$
