SYN.pdb
     RDKit          3D

 27 27  0  0  1  0  0  0  0  0999 V2000
   21.2868  -12.0396    8.7355 O   0  0  0  0  0  0  0  0  0  0  0  0
   19.9966  -12.2466    8.2586 C   0  0  0  0  0  0  0  0  0  0  0  0
   19.9447  -12.2146    6.7515 C   0  0  2  0  0  0  0  0  0  0  0  0
   19.8454  -10.8636    6.2928 N   0  0  0  0  0  0  0  0  0  0  0  0
   18.8721  -13.0902    6.2121 C   0  0  0  0  0  0  0  0  0  0  0  0
   17.7012  -12.6538    6.0475 O   0  0  0  0  0  0  0  0  0  0  0  0
   15.4700  -19.4397    0.9594 O   0  0  0  0  0  0  0  0  0  0  0  0
   16.1622  -18.4653    1.6797 C   0  0  0  0  0  0  0  0  0  0  0  0
   15.9123  -17.1218    1.4983 C   0  0  0  0  0  0  0  0  0  0  0  0
   16.6026  -16.1699    2.2156 C   0  0  0  0  0  0  0  0  0  0  0  0
   17.5843  -16.5051    3.1576 C   0  0  0  0  0  0  0  0  0  0  0  0
   18.3367  -15.4706    3.8884 C   0  0  0  0  0  0  0  0  0  0  0  0
   18.0005  -15.3111    5.3415 C   0  0  2  0  0  0  0  0  0  0  0  0
   19.0891  -14.4429    5.8550 N   0  0  0  0  0  0  0  0  0  0  0  0
   18.0334  -16.5826    6.0822 C   0  0  0  0  0  0  0  0  0  0  0  0
   19.1779  -17.0430    6.4434 O   0  0  0  0  0  0  0  0  0  0  0  0
   17.8174  -17.8497    3.3225 C   0  0  0  0  0  0  0  0  0  0  0  0
   17.1269  -18.8033    2.6049 C   0  0  0  0  0  0  0  0  0  0  0  0
   13.8162  -17.7959    8.8138 N   0  0  0  0  0  0  0  0  0  0  0  0
   15.2319  -17.9026    8.6997 C   0  0  0  0  0  0  0  0  0  0  0  0
   15.9326  -17.0564    9.2944 O   0  0  0  0  0  0  0  0  0  0  0  0
   15.7934  -18.9804    7.9045 C   0  0  0  0  0  0  0  0  0  0  0  0
   17.0941  -18.5511    7.2315 C   0  0  2  0  0  0  0  0  0  0  0  0
   16.9066  -17.3604    6.4504 N   0  0  0  0  0  0  0  0  0  0  0  0
   17.5568  -19.7294    6.4714 C   0  0  0  0  0  0  0  0  0  0  0  0
   17.8385  -19.6655    5.2641 O   0  0  0  0  0  0  0  0  0  0  0  0
   17.6846  -20.9494    7.1147 O   0  0  0  0  0  0  0  0  0  0  0  0
  2  1  1  0
  2  3  1  0
  3  5  1  0
  3  4  1  1
  5  6  2  0
  7  8  1  0
  8 18  2  0
  8  9  1  0
  9 10  2  0
 10 11  1  0
 11 12  1  0
 13 12  1  6
 14 13  1  0
 14  5  1  0
 15 16  2  0
 15 13  1  0
 17 11  2  0
 18 17  1  0
 19 20  1  0
 20 22  1  0
 20 21  2  0
 23 22  1  6
 23 25  1  0
 23 24  1  0
 24 15  1  0
 25 27  1  0
 26 25  2  0
M  END
$$$$
