SYN.pdb
     RDKit          3D

 27 27  0  0  1  0  0  0  0  0999 V2000
   30.3547   -8.4834  -17.9001 O   0  0  0  0  0  0  0  0  0  0  0  0
   28.9921   -8.6111  -18.1496 C   0  0  0  0  0  0  0  0  0  0  0  0
   28.4562   -9.9361  -17.6674 C   0  0  2  0  0  0  0  0  0  0  0  0
   29.0896  -11.0071  -18.3725 N   0  0  0  0  0  0  0  0  0  0  0  0
   26.9729   -9.9949  -17.7344 C   0  0  0  0  0  0  0  0  0  0  0  0
   26.3866  -10.3753  -18.7833 O   0  0  0  0  0  0  0  0  0  0  0  0
   18.7234  -11.7065  -14.9326 O   0  0  0  0  0  0  0  0  0  0  0  0
   20.0820  -11.4803  -15.1569 C   0  0  0  0  0  0  0  0  0  0  0  0
   20.6711  -11.7740  -16.3682 C   0  0  0  0  0  0  0  0  0  0  0  0
   22.0133  -11.5459  -16.5768 C   0  0  0  0  0  0  0  0  0  0  0  0
   22.8468  -11.0103  -15.5859 C   0  0  0  0  0  0  0  0  0  0  0  0
   24.2876  -10.8076  -15.8172 C   0  0  0  0  0  0  0  0  0  0  0  0
   24.6575   -9.6832  -16.7386 C   0  0  2  0  0  0  0  0  0  0  0  0
   26.1381   -9.6356  -16.6489 N   0  0  0  0  0  0  0  0  0  0  0  0
   24.1248   -8.3826  -16.3015 C   0  0  0  0  0  0  0  0  0  0  0  0
   24.5985   -7.8660  -15.2239 O   0  0  0  0  0  0  0  0  0  0  0  0
   22.2391  -10.7249  -14.3864 C   0  0  0  0  0  0  0  0  0  0  0  0
   20.8956  -10.9529  -14.1767 C   0  0  0  0  0  0  0  0  0  0  0  0
   21.8101   -4.0179  -15.4498 N   0  0  0  0  0  0  0  0  0  0  0  0
   21.3922   -4.3412  -16.7726 C   0  0  0  0  0  0  0  0  0  0  0  0
   20.7148   -3.4962  -17.3954 O   0  0  0  0  0  0  0  0  0  0  0  0
   21.7683   -5.6268  -17.3338 C   0  0  0  0  0  0  0  0  0  0  0  0
   22.6238   -6.4276  -16.3561 C   0  0  2  0  0  0  0  0  0  0  0  0
   23.1279   -7.6256  -16.9674 N   0  0  0  0  0  0  0  0  0  0  0  0
   21.7740   -6.6435  -15.1680 C   0  0  0  0  0  0  0  0  0  0  0  0
   20.7640   -7.3643  -15.2026 O   0  0  0  0  0  0  0  0  0  0  0  0
   22.1041   -6.0278  -13.9719 O   0  0  0  0  0  0  0  0  0  0  0  0
  2  1  1  0
  2  3  1  0
  3  5  1  0
  3  4  1  6
  5  6  2  0
  7  8  1  0
  8 18  2  0
  8  9  1  0
  9 10  2  0
 10 11  1  0
 11 12  1  0
 13 12  1  1
 14 13  1  0
 14  5  1  0
 15 16  2  0
 15 13  1  0
 17 11  2  0
 18 17  1  0
 19 20  1  0
 20 22  1  0
 20 21  2  0
 23 22  1  6
 23 25  1  0
 23 24  1  0
 24 15  1  0
 25 27  1  0
 26 25  2  0
M  END
$$$$
