SYN.pdb
     RDKit          3D

 27 27  0  0  1  0  0  0  0  0999 V2000
   28.3296  -19.8005  -19.4907 O   0  0  0  0  0  0  0  0  0  0  0  0
   27.4679  -20.5635  -18.7094 C   0  0  0  0  0  0  0  0  0  0  0  0
   28.2201  -21.4547  -17.7528 C   0  0  2  0  0  0  0  0  0  0  0  0
   28.7560  -22.5818  -18.4511 N   0  0  0  0  0  0  0  0  0  0  0  0
   27.3914  -21.8391  -16.5808 C   0  0  0  0  0  0  0  0  0  0  0  0
   26.8770  -22.9869  -16.4999 O   0  0  0  0  0  0  0  0  0  0  0  0
   23.7283  -20.7913   -8.4191 O   0  0  0  0  0  0  0  0  0  0  0  0
   24.4794  -20.7188   -9.5929 C   0  0  0  0  0  0  0  0  0  0  0  0
   24.0188  -20.0428  -10.7026 C   0  0  0  0  0  0  0  0  0  0  0  0
   24.7701  -19.9787  -11.8552 C   0  0  0  0  0  0  0  0  0  0  0  0
   26.0274  -20.5871  -11.9668 C   0  0  0  0  0  0  0  0  0  0  0  0
   26.7994  -20.5374  -13.2206 C   0  0  0  0  0  0  0  0  0  0  0  0
   26.2564  -21.3427  -14.3637 C   0  0  2  0  0  0  0  0  0  0  0  0
   27.1303  -20.9614  -15.5011 N   0  0  0  0  0  0  0  0  0  0  0  0
   24.8691  -20.9909  -14.7070 C   0  0  0  0  0  0  0  0  0  0  0  0
   24.6560  -19.8614  -15.2826 O   0  0  0  0  0  0  0  0  0  0  0  0
   26.4672  -21.2555  -10.8491 C   0  0  0  0  0  0  0  0  0  0  0  0
   25.7159  -21.3202   -9.6949 C   0  0  0  0  0  0  0  0  0  0  0  0
   22.3628  -20.9541  -18.4311 N   0  0  0  0  0  0  0  0  0  0  0  0
   22.1463  -20.5965  -17.0694 C   0  0  0  0  0  0  0  0  0  0  0  0
   22.1732  -19.3836  -16.7714 O   0  0  0  0  0  0  0  0  0  0  0  0
   21.9059  -21.6478  -16.0967 C   0  0  0  0  0  0  0  0  0  0  0  0
   22.4173  -21.2497  -14.7150 C   0  0  2  0  0  0  0  0  0  0  0  0
   23.7241  -21.7924  -14.4684 N   0  0  0  0  0  0  0  0  0  0  0  0
   21.3731  -21.6812  -13.7644 C   0  0  0  0  0  0  0  0  0  0  0  0
   21.5895  -22.5372  -12.8919 O   0  0  0  0  0  0  0  0  0  0  0  0
   20.1087  -21.1204  -13.8387 O   0  0  0  0  0  0  0  0  0  0  0  0
  2  1  1  0
  2  3  1  0
  3  5  1  0
  3  4  1  6
  5  6  2  0
  7  8  1  0
  8 18  2  0
  8  9  1  0
  9 10  2  0
 10 11  1  0
 11 12  1  0
 13 12  1  1
 14 13  1  0
 14  5  1  0
 15 16  2  0
 15 13  1  0
 17 11  2  0
 18 17  1  0
 19 20  1  0
 20 22  1  0
 20 21  2  0
 23 22  1  6
 23 25  1  0
 23 24  1  0
 24 15  1  0
 25 27  1  0
 26 25  2  0
M  END
$$$$
