SYN.pdb
     RDKit          3D

 27 27  0  0  1  0  0  0  0  0999 V2000
   24.6982   -9.6745  -20.2117 O   0  0  0  0  0  0  0  0  0  0  0  0
   25.5331  -10.5921  -19.5824 C   0  0  0  0  0  0  0  0  0  0  0  0
   24.8197  -11.8878  -19.2869 C   0  0  2  0  0  0  0  0  0  0  0  0
   24.3690  -12.4881  -20.5042 N   0  0  0  0  0  0  0  0  0  0  0  0
   23.7317  -11.7102  -18.2905 C   0  0  0  0  0  0  0  0  0  0  0  0
   22.5251  -11.8827  -18.6114 O   0  0  0  0  0  0  0  0  0  0  0  0
   22.6076  -17.6338  -15.0268 O   0  0  0  0  0  0  0  0  0  0  0  0
   22.7929  -16.2517  -14.9743 C   0  0  0  0  0  0  0  0  0  0  0  0
   24.0243  -15.6999  -14.6923 C   0  0  0  0  0  0  0  0  0  0  0  0
   24.1939  -14.3339  -14.6435 C   0  0  0  0  0  0  0  0  0  0  0  0
   23.1414  -13.4379  -14.8739 C   0  0  0  0  0  0  0  0  0  0  0  0
   23.3355  -11.9804  -14.7815 C   0  0  0  0  0  0  0  0  0  0  0  0
   22.8741  -11.1760  -15.9604 C   0  0  2  0  0  0  0  0  0  0  0  0
   23.9724  -11.3434  -16.9445 N   0  0  0  0  0  0  0  0  0  0  0  0
   22.7363   -9.7418  -15.6595 C   0  0  0  0  0  0  0  0  0  0  0  0
   23.8083   -9.0557  -15.4791 O   0  0  0  0  0  0  0  0  0  0  0  0
   21.9228  -14.0093  -15.1531 C   0  0  0  0  0  0  0  0  0  0  0  0
   21.7522  -15.3765  -15.2022 C   0  0  0  0  0  0  0  0  0  0  0  0
   21.5257   -4.9399  -14.9368 N   0  0  0  0  0  0  0  0  0  0  0  0
   20.5013   -5.4522  -15.7835 C   0  0  0  0  0  0  0  0  0  0  0  0
   19.6853   -4.6417  -16.2713 O   0  0  0  0  0  0  0  0  0  0  0  0
   20.4509   -6.8808  -16.0401 C   0  0  0  0  0  0  0  0  0  0  0  0
   21.5436   -7.6192  -15.2722 C   0  0  2  0  0  0  0  0  0  0  0  0
   21.5163   -9.0272  -15.5544 N   0  0  0  0  0  0  0  0  0  0  0  0
   21.3429   -7.2632  -13.8533 C   0  0  0  0  0  0  0  0  0  0  0  0
   20.7627   -8.0212  -13.0597 O   0  0  0  0  0  0  0  0  0  0  0  0
   21.8123   -6.0485  -13.3814 O   0  0  0  0  0  0  0  0  0  0  0  0
  2  1  1  0
  2  3  1  0
  3  5  1  0
  3  4  1  6
  5  6  2  0
  7  8  1  0
  8 18  2  0
  8  9  1  0
  9 10  2  0
 10 11  1  0
 11 12  1  0
 13 12  1  1
 14 13  1  0
 14  5  1  0
 15 16  2  0
 15 13  1  0
 17 11  2  0
 18 17  1  0
 19 20  1  0
 20 22  1  0
 20 21  2  0
 23 22  1  6
 23 25  1  0
 23 24  1  0
 24 15  1  0
 25 27  1  0
 26 25  2  0
M  END
$$$$
