SYN.pdb
     RDKit          3D

 27 27  0  0  1  0  0  0  0  0999 V2000
   15.3823   -9.7112  -16.8072 O   0  0  0  0  0  0  0  0  0  0  0  0
   15.6356   -9.7817  -15.4412 C   0  0  0  0  0  0  0  0  0  0  0  0
   17.1144   -9.8242  -15.1473 C   0  0  2  0  0  0  0  0  0  0  0  0
   17.6549  -11.0907  -15.5334 N   0  0  0  0  0  0  0  0  0  0  0  0
   17.4120   -9.4732  -13.7344 C   0  0  0  0  0  0  0  0  0  0  0  0
   17.2550  -10.3163  -12.8107 O   0  0  0  0  0  0  0  0  0  0  0  0
   24.0113   -9.9040  -14.5598 O   0  0  0  0  0  0  0  0  0  0  0  0
   22.9322   -9.2300  -13.9864 C   0  0  0  0  0  0  0  0  0  0  0  0
   22.3981   -8.0994  -14.5669 C   0  0  0  0  0  0  0  0  0  0  0  0
   21.3328   -7.4433  -13.9909 C   0  0  0  0  0  0  0  0  0  0  0  0
   20.7380   -7.8790  -12.7993 C   0  0  0  0  0  0  0  0  0  0  0  0
   19.6225   -7.1424  -12.1802 C   0  0  0  0  0  0  0  0  0  0  0  0
   18.3576   -7.9187  -11.9625 C   0  0  2  0  0  0  0  0  0  0  0  0
   17.8812   -8.1970  -13.3403 N   0  0  0  0  0  0  0  0  0  0  0  0
   17.3209   -7.1440  -11.2614 C   0  0  0  0  0  0  0  0  0  0  0  0
   16.7316   -6.2003  -11.9053 O   0  0  0  0  0  0  0  0  0  0  0  0
   21.2861   -9.0076  -12.2377 C   0  0  0  0  0  0  0  0  0  0  0  0
   22.3524   -9.6650  -12.8136 C   0  0  0  0  0  0  0  0  0  0  0  0
   12.9631   -6.7144   -7.6168 N   0  0  0  0  0  0  0  0  0  0  0  0
   14.2985   -6.2334   -7.4971 C   0  0  0  0  0  0  0  0  0  0  0  0
   14.4752   -5.1299   -6.9387 O   0  0  0  0  0  0  0  0  0  0  0  0
   15.3855   -7.0392   -8.0247 C   0  0  0  0  0  0  0  0  0  0  0  0
   15.8421   -6.5270   -9.3878 C   0  0  2  0  0  0  0  0  0  0  0  0
   16.8945   -7.3442   -9.9241 N   0  0  0  0  0  0  0  0  0  0  0  0
   16.1970   -5.1086   -9.1817 C   0  0  0  0  0  0  0  0  0  0  0  0
   17.3246   -4.7610   -8.7961 O   0  0  0  0  0  0  0  0  0  0  0  0
   15.2507   -4.1263   -9.4228 O   0  0  0  0  0  0  0  0  0  0  0  0
  2  1  1  0
  2  3  1  0
  3  5  1  0
  3  4  1  1
  5  6  2  0
  7  8  1  0
  8 18  2  0
  8  9  1  0
  9 10  2  0
 10 11  1  0
 11 12  1  0
 13 12  1  6
 14 13  1  0
 14  5  1  0
 15 16  2  0
 15 13  1  0
 17 11  2  0
 18 17  1  0
 19 20  1  0
 20 22  1  0
 20 21  2  0
 23 22  1  1
 23 25  1  0
 23 24  1  0
 24 15  1  0
 25 27  1  0
 26 25  2  0
M  END
$$$$
