KQL.pdb
     RDKit          3D

 27 26  0  0  1  0  0  0  0  0999 V2000
   25.7318  -18.5531  -17.2894 N   0  0  0  0  0  0  0  0  0  0  0  0
   25.9359  -19.6153  -16.3434 C   0  0  1  0  0  0  0  0  0  0  0  0
   27.3254  -20.1682  -16.3066 C   0  0  0  0  0  0  0  0  0  0  0  0
   27.9425  -20.4692  -17.6162 C   0  0  0  0  0  0  0  0  0  0  0  0
   29.3230  -21.0201  -17.6045 C   0  0  0  0  0  0  0  0  0  0  0  0
   29.9339  -21.1774  -18.9591 C   0  0  0  0  0  0  0  0  0  0  0  0
   31.2464  -21.7560  -18.9331 N   0  0  0  0  0  0  0  0  0  0  0  0
   25.5065  -19.1346  -14.9816 C   0  0  0  0  0  0  0  0  0  0  0  0
   25.2671  -17.8890  -14.8268 O   0  0  0  0  0  0  0  0  0  0  0  0
   21.5759  -22.5234  -13.9610 N   0  0  0  0  0  0  0  0  0  0  0  0
   20.9986  -21.5341  -13.1581 C   0  0  0  0  0  0  0  0  0  0  0  0
   19.9178  -21.6538  -12.5444 O   0  0  0  0  0  0  0  0  0  0  0  0
   21.7409  -20.2289  -13.0276 C   0  0  0  0  0  0  0  0  0  0  0  0
   22.9725  -20.2638  -13.8699 C   0  0  0  0  0  0  0  0  0  0  0  0
   24.2069  -20.0527  -13.0276 C   0  0  2  0  0  0  0  0  0  0  0  0
   25.3821  -20.0553  -13.9287 N   0  0  0  0  0  0  0  0  0  0  0  0
   24.4637  -21.0928  -12.0341 C   0  0  0  0  0  0  0  0  0  0  0  0
   23.4952  -21.8370  -11.6479 O   0  0  0  0  0  0  0  0  0  0  0  0
   27.9994  -18.5273   -8.3935 C   0  0  0  0  0  0  0  0  0  0  0  0
   27.0464  -19.7450   -8.3403 C   0  0  2  0  0  0  0  0  0  0  0  0
   27.7505  -20.8308   -7.5478 C   0  0  0  0  0  0  0  0  0  0  0  0
   26.8463  -20.1670   -9.7453 C   0  0  0  0  0  0  0  0  0  0  0  0
   25.8692  -21.2552   -9.9932 C   0  0  2  0  0  0  0  0  0  0  0  0
   25.7138  -21.3492  -11.4633 N   0  0  0  0  0  0  0  0  0  0  0  0
   24.5465  -21.1438   -9.4000 C   0  0  0  0  0  0  0  0  0  0  0  0
   23.7341  -20.2416   -9.7276 O   0  0  0  0  0  0  0  0  0  0  0  0
   24.1024  -22.0358   -8.4333 O   0  0  0  0  0  0  0  0  0  0  0  0
  2  8  1  0
  2  1  1  6
  3  2  1  0
  4  3  1  0
  5  4  1  0
  6  5  1  0
  7  6  1  0
  8  9  2  0
 10 11  1  0
 11 13  1  0
 11 12  2  0
 13 14  1  0
 15 14  1  6
 16 15  1  0
 16  8  1  0
 17 15  1  0
 18 17  2  0
 20 19  1  6
 20 22  1  0
 21 20  1  0
 23 22  1  6
 23 25  1  0
 23 24  1  0
 24 17  1  0
 25 27  1  0
 26 25  2  0
M  END
$$$$
