KQL.pdb
     RDKit          3D

 27 26  0  0  1  0  0  0  0  0999 V2000
   26.0671  -18.3033  -15.6764 N   0  0  0  0  0  0  0  0  0  0  0  0
   26.9208  -18.9181  -14.6976 C   0  0  1  0  0  0  0  0  0  0  0  0
   28.3272  -18.4087  -14.6791 C   0  0  0  0  0  0  0  0  0  0  0  0
   29.1848  -18.8200  -15.8113 C   0  0  0  0  0  0  0  0  0  0  0  0
   29.2496  -20.2726  -16.1198 C   0  0  0  0  0  0  0  0  0  0  0  0
   30.2569  -20.6356  -17.1623 C   0  0  0  0  0  0  0  0  0  0  0  0
   30.0659  -19.9504  -18.4081 N   0  0  0  0  0  0  0  0  0  0  0  0
   26.2755  -18.7802  -13.3432 C   0  0  0  0  0  0  0  0  0  0  0  0
   26.0461  -17.6045  -12.8985 O   0  0  0  0  0  0  0  0  0  0  0  0
   21.5551  -22.0196  -12.4366 N   0  0  0  0  0  0  0  0  0  0  0  0
   21.5184  -21.3840  -11.1910 C   0  0  0  0  0  0  0  0  0  0  0  0
   20.5507  -21.4144  -10.4025 O   0  0  0  0  0  0  0  0  0  0  0  0
   22.7408  -20.6065  -10.7751 C   0  0  0  0  0  0  0  0  0  0  0  0
   23.7454  -20.6197  -11.8786 C   0  0  0  0  0  0  0  0  0  0  0  0
   25.0011  -19.8875  -11.4724 C   0  0  2  0  0  0  0  0  0  0  0  0
   25.9464  -19.9326  -12.6114 N   0  0  0  0  0  0  0  0  0  0  0  0
   25.7158  -20.4671  -10.3375 C   0  0  0  0  0  0  0  0  0  0  0  0
   26.2021  -21.6472  -10.4455 O   0  0  0  0  0  0  0  0  0  0  0  0
   28.1331  -18.8215   -5.0580 C   0  0  0  0  0  0  0  0  0  0  0  0
   27.7247  -20.0944   -5.8369 C   0  0  2  0  0  0  0  0  0  0  0  0
   28.9710  -20.9471   -5.9867 C   0  0  0  0  0  0  0  0  0  0  0  0
   27.2466  -19.6274   -7.1580 C   0  0  0  0  0  0  0  0  0  0  0  0
   26.4583  -20.5859   -7.9706 C   0  0  2  0  0  0  0  0  0  0  0  0
   25.9205  -19.8170   -9.1169 N   0  0  0  0  0  0  0  0  0  0  0  0
   25.3558  -21.2878   -7.3336 C   0  0  0  0  0  0  0  0  0  0  0  0
   24.1606  -20.9157   -7.4525 O   0  0  0  0  0  0  0  0  0  0  0  0
   25.5629  -22.4183   -6.5548 O   0  0  0  0  0  0  0  0  0  0  0  0
  2  8  1  0
  2  1  1  6
  3  2  1  0
  4  3  1  0
  5  4  1  0
  6  5  1  0
  7  6  1  0
  8  9  2  0
 10 11  1  0
 11 13  1  0
 11 12  2  0
 13 14  1  0
 15 14  1  6
 16 15  1  0
 16  8  1  0
 17 15  1  0
 18 17  2  0
 20 19  1  1
 20 22  1  0
 21 20  1  0
 23 22  1  1
 23 25  1  0
 23 24  1  0
 24 17  1  0
 25 27  1  0
 26 25  2  0
M  END
$$$$
