KQL.pdb
     RDKit          3D

 27 26  0  0  1  0  0  0  0  0999 V2000
   26.2260  -19.3996  -15.6483 N   0  0  0  0  0  0  0  0  0  0  0  0
   27.1842  -19.4794  -14.5805 C   0  0  1  0  0  0  0  0  0  0  0  0
   28.3378  -18.5343  -14.6970 C   0  0  0  0  0  0  0  0  0  0  0  0
   28.7536  -18.1788  -16.0708 C   0  0  0  0  0  0  0  0  0  0  0  0
   27.7631  -17.4596  -16.9140 C   0  0  0  0  0  0  0  0  0  0  0  0
   28.2853  -17.0325  -18.2474 C   0  0  0  0  0  0  0  0  0  0  0  0
   27.2823  -16.4648  -19.1016 N   0  0  0  0  0  0  0  0  0  0  0  0
   26.4611  -19.2949  -13.2717 C   0  0  0  0  0  0  0  0  0  0  0  0
   26.1417  -18.1093  -12.9182 O   0  0  0  0  0  0  0  0  0  0  0  0
   21.7009  -20.6665  -10.6071 N   0  0  0  0  0  0  0  0  0  0  0  0
   21.9623  -20.5725  -11.9781 C   0  0  0  0  0  0  0  0  0  0  0  0
   21.1183  -20.2674  -12.8463 O   0  0  0  0  0  0  0  0  0  0  0  0
   23.3690  -20.8619  -12.4354 C   0  0  0  0  0  0  0  0  0  0  0  0
   24.2234  -21.1928  -11.2572 C   0  0  0  0  0  0  0  0  0  0  0  0
   25.4320  -20.2909  -11.1983 C   0  0  2  0  0  0  0  0  0  0  0  0
   26.1600  -20.4161  -12.4817 N   0  0  0  0  0  0  0  0  0  0  0  0
   26.4011  -20.6219  -10.1561 C   0  0  0  0  0  0  0  0  0  0  0  0
   27.1543  -21.6466  -10.3096 O   0  0  0  0  0  0  0  0  0  0  0  0
   28.5486  -18.7654   -4.8077 C   0  0  0  0  0  0  0  0  0  0  0  0
   28.2121  -20.0526   -5.5975 C   0  0  2  0  0  0  0  0  0  0  0  0
   29.5014  -20.8400   -5.7412 C   0  0  0  0  0  0  0  0  0  0  0  0
   27.7221  -19.6023   -6.9201 C   0  0  0  0  0  0  0  0  0  0  0  0
   26.9850  -20.5927   -7.7424 C   0  0  2  0  0  0  0  0  0  0  0  0
   26.5787  -19.8872   -8.9800 N   0  0  0  0  0  0  0  0  0  0  0  0
   25.8080  -21.2260   -7.1701 C   0  0  0  0  0  0  0  0  0  0  0  0
   24.6535  -20.7441   -7.2972 O   0  0  0  0  0  0  0  0  0  0  0  0
   25.8936  -22.4087   -6.4482 O   0  0  0  0  0  0  0  0  0  0  0  0
  2  8  1  0
  2  1  1  6
  3  2  1  0
  4  3  1  0
  5  4  1  0
  6  5  1  0
  7  6  1  0
  8  9  2  0
 10 11  1  0
 11 13  1  0
 11 12  2  0
 13 14  1  0
 15 14  1  6
 16 15  1  0
 16  8  1  0
 17 15  1  0
 18 17  2  0
 20 19  1  1
 20 22  1  0
 21 20  1  0
 23 22  1  1
 23 25  1  0
 23 24  1  0
 24 17  1  0
 25 27  1  0
 26 25  2  0
M  END
$$$$
