KQL.pdb
     RDKit          3D

 27 26  0  0  1  0  0  0  0  0999 V2000
   28.4020  -21.8570  -14.3008 N   0  0  0  0  0  0  0  0  0  0  0  0
   28.2709  -20.8500  -15.3174 C   0  0  1  0  0  0  0  0  0  0  0  0
   28.2335  -21.3707  -16.7193 C   0  0  0  0  0  0  0  0  0  0  0  0
   29.0547  -22.5699  -16.9918 C   0  0  0  0  0  0  0  0  0  0  0  0
   28.4585  -23.8899  -16.6579 C   0  0  0  0  0  0  0  0  0  0  0  0
   29.3689  -25.0521  -16.8889 C   0  0  0  0  0  0  0  0  0  0  0  0
   28.7648  -26.3207  -16.5996 N   0  0  0  0  0  0  0  0  0  0  0  0
   27.0521  -20.0177  -15.0146 C   0  0  0  0  0  0  0  0  0  0  0  0
   26.6843  -19.1473  -15.8747 O   0  0  0  0  0  0  0  0  0  0  0  0
   23.9583  -24.4221  -15.0538 N   0  0  0  0  0  0  0  0  0  0  0  0
   23.2919  -23.4066  -15.7476 C   0  0  0  0  0  0  0  0  0  0  0  0
   22.3707  -23.5901  -16.5702 O   0  0  0  0  0  0  0  0  0  0  0  0
   23.7219  -21.9874  -15.4778 C   0  0  0  0  0  0  0  0  0  0  0  0
   24.8633  -21.9813  -14.5162 C   0  0  0  0  0  0  0  0  0  0  0  0
   24.9471  -20.6619  -13.7883 C   0  0  2  0  0  0  0  0  0  0  0  0
   26.3590  -20.2159  -13.8096 N   0  0  0  0  0  0  0  0  0  0  0  0
   24.5642  -20.7071  -12.3790 C   0  0  0  0  0  0  0  0  0  0  0  0
   23.3375  -20.5191  -12.0612 O   0  0  0  0  0  0  0  0  0  0  0  0
   26.7844  -21.1459   -7.5908 C   0  0  0  0  0  0  0  0  0  0  0  0
   26.9852  -20.0896   -8.7033 C   0  0  2  0  0  0  0  0  0  0  0  0
   27.5614  -18.8496   -8.0450 C   0  0  0  0  0  0  0  0  0  0  0  0
   25.6377  -19.8145   -9.2515 C   0  0  0  0  0  0  0  0  0  0  0  0
   24.9432  -20.9329   -9.9351 C   0  0  2  0  0  0  0  0  0  0  0  0
   25.4513  -20.9510  -11.3264 N   0  0  0  0  0  0  0  0  0  0  0  0
   23.4900  -20.9192   -9.9794 C   0  0  0  0  0  0  0  0  0  0  0  0
   22.7825  -21.4165   -9.0666 O   0  0  0  0  0  0  0  0  0  0  0  0
   22.7973  -20.3494  -11.0391 O   0  0  0  0  0  0  0  0  0  0  0  0
  2  8  1  0
  2  1  1  1
  3  2  1  0
  4  3  1  0
  5  4  1  0
  6  5  1  0
  7  6  1  0
  8  9  2  0
 10 11  1  0
 11 13  1  0
 11 12  2  0
 13 14  1  0
 15 14  1  1
 16 15  1  0
 16  8  1  0
 17 15  1  0
 18 17  2  0
 20 19  1  1
 20 22  1  0
 21 20  1  0
 23 22  1  6
 23 25  1  0
 23 24  1  0
 24 17  1  0
 25 27  1  0
 26 25  2  0
M  END
$$$$
