KQL.pdb
     RDKit          3D

 27 26  0  0  1  0  0  0  0  0999 V2000
   25.9094  -21.7626  -11.2784 N   0  0  0  0  0  0  0  0  0  0  0  0
   25.4014  -21.8096  -12.6217 C   0  0  1  0  0  0  0  0  0  0  0  0
   24.0403  -22.4147  -12.7600 C   0  0  0  0  0  0  0  0  0  0  0  0
   23.9567  -23.6570  -13.5578 C   0  0  0  0  0  0  0  0  0  0  0  0
   24.8682  -23.7749  -14.7260 C   0  0  0  0  0  0  0  0  0  0  0  0
   24.6692  -25.0129  -15.5388 C   0  0  0  0  0  0  0  0  0  0  0  0
   25.5916  -25.1372  -16.6305 N   0  0  0  0  0  0  0  0  0  0  0  0
   25.4381  -20.4181  -13.1980 C   0  0  0  0  0  0  0  0  0  0  0  0
   25.0852  -19.4436  -12.4506 O   0  0  0  0  0  0  0  0  0  0  0  0
   28.6953  -16.4414  -18.4507 N   0  0  0  0  0  0  0  0  0  0  0  0
   28.4714  -17.5733  -17.6599 C   0  0  0  0  0  0  0  0  0  0  0  0
   29.2094  -18.5801  -17.6296 O   0  0  0  0  0  0  0  0  0  0  0  0
   27.2469  -17.5718  -16.7811 C   0  0  0  0  0  0  0  0  0  0  0  0
   27.1552  -18.8658  -16.0432 C   0  0  0  0  0  0  0  0  0  0  0  0
   25.9595  -18.8769  -15.1223 C   0  0  2  0  0  0  0  0  0  0  0  0
   25.8533  -20.2282  -14.5259 N   0  0  0  0  0  0  0  0  0  0  0  0
   24.6753  -18.6255  -15.7722 C   0  0  0  0  0  0  0  0  0  0  0  0
   24.0361  -19.6085  -16.2881 O   0  0  0  0  0  0  0  0  0  0  0  0
   20.5708  -14.1570  -16.2005 C   0  0  0  0  0  0  0  0  0  0  0  0
   20.8406  -15.6122  -16.6513 C   0  0  2  0  0  0  0  0  0  0  0  0
   19.7650  -16.4816  -16.0267 C   0  0  0  0  0  0  0  0  0  0  0  0
   22.1756  -15.9634  -16.1160 C   0  0  0  0  0  0  0  0  0  0  0  0
   22.7716  -17.2441  -16.5690 C   0  0  2  0  0  0  0  0  0  0  0  0
   24.0728  -17.3680  -15.8720 N   0  0  0  0  0  0  0  0  0  0  0  0
   22.9957  -17.4360  -17.9927 C   0  0  0  0  0  0  0  0  0  0  0  0
   24.0155  -16.9940  -18.5806 O   0  0  0  0  0  0  0  0  0  0  0  0
   22.0903  -18.1256  -18.7878 O   0  0  0  0  0  0  0  0  0  0  0  0
  2  8  1  0
  2  1  1  1
  3  2  1  0
  4  3  1  0
  5  4  1  0
  6  5  1  0
  7  6  1  0
  8  9  2  0
 10 11  1  0
 11 13  1  0
 11 12  2  0
 13 14  1  0
 15 14  1  6
 16 15  1  0
 16  8  1  0
 17 15  1  0
 18 17  2  0
 20 19  1  1
 20 22  1  0
 21 20  1  0
 23 22  1  6
 23 25  1  0
 23 24  1  0
 24 17  1  0
 25 27  1  0
 26 25  2  0
M  END
$$$$
