KQL.pdb
     RDKit          3D

 27 26  0  0  1  0  0  0  0  0999 V2000
   16.9894  -11.5812  -19.9538 N   0  0  0  0  0  0  0  0  0  0  0  0
   17.9407  -12.4796  -19.3601 C   0  0  1  0  0  0  0  0  0  0  0  0
   18.3010  -13.6625  -20.2018 C   0  0  0  0  0  0  0  0  0  0  0  0
   17.2716  -14.7176  -20.3188 C   0  0  0  0  0  0  0  0  0  0  0  0
   16.4669  -14.7441  -21.5683 C   0  0  0  0  0  0  0  0  0  0  0  0
   15.5042  -15.8836  -21.6558 C   0  0  0  0  0  0  0  0  0  0  0  0
   16.0640  -17.1404  -21.2495 N   0  0  0  0  0  0  0  0  0  0  0  0
   19.1670  -11.6941  -18.9742 C   0  0  0  0  0  0  0  0  0  0  0  0
   20.1234  -12.3110  -18.3932 O   0  0  0  0  0  0  0  0  0  0  0  0
   19.6792   -6.8124  -21.9886 N   0  0  0  0  0  0  0  0  0  0  0  0
   20.4410   -7.9069  -22.4111 C   0  0  0  0  0  0  0  0  0  0  0  0
   20.7478   -8.1476  -23.5972 O   0  0  0  0  0  0  0  0  0  0  0  0
   20.9248   -8.8631  -21.3512 C   0  0  0  0  0  0  0  0  0  0  0  0
   20.4813   -8.3908  -20.0067 C   0  0  0  0  0  0  0  0  0  0  0  0
   20.4571   -9.5298  -19.0169 C   0  0  2  0  0  0  0  0  0  0  0  0
   19.2283  -10.3202  -19.2582 N   0  0  0  0  0  0  0  0  0  0  0  0
   20.4042   -9.1288  -17.6129 C   0  0  0  0  0  0  0  0  0  0  0  0
   19.2656   -8.8905  -17.0764 O   0  0  0  0  0  0  0  0  0  0  0  0
   23.0746  -10.2288  -12.4817 C   0  0  0  0  0  0  0  0  0  0  0  0
   22.1463   -9.1513  -13.0907 C   0  0  2  0  0  0  0  0  0  0  0  0
   20.8137   -9.2494  -12.3713 C   0  0  0  0  0  0  0  0  0  0  0  0
   21.9974   -9.5035  -14.5211 C   0  0  0  0  0  0  0  0  0  0  0  0
   21.3429   -8.5039  -15.4003 C   0  0  2  0  0  0  0  0  0  0  0  0
   21.5245   -8.9874  -16.7886 N   0  0  0  0  0  0  0  0  0  0  0  0
   21.7962   -7.1240  -15.3339 C   0  0  0  0  0  0  0  0  0  0  0  0
   22.5926   -6.6345  -16.1748 O   0  0  0  0  0  0  0  0  0  0  0  0
   21.3695   -6.2628  -14.3321 O   0  0  0  0  0  0  0  0  0  0  0  0
  2  8  1  0
  2  1  1  6
  3  2  1  0
  4  3  1  0
  5  4  1  0
  6  5  1  0
  7  6  1  0
  8  9  2  0
 10 11  1  0
 11 13  1  0
 11 12  2  0
 13 14  1  0
 15 14  1  6
 16 15  1  0
 16  8  1  0
 17 15  1  0
 18 17  2  0
 20 19  1  1
 20 22  1  0
 21 20  1  0
 23 22  1  1
 23 25  1  0
 23 24  1  0
 24 17  1  0
 25 27  1  0
 26 25  2  0
M  END
$$$$
