KQL.pdb
     RDKit          3D

 27 26  0  0  1  0  0  0  0  0999 V2000
   23.9968  -20.9762  -16.8396 N   0  0  0  0  0  0  0  0  0  0  0  0
   22.8929  -21.7798  -17.2871 C   0  0  1  0  0  0  0  0  0  0  0  0
   23.2308  -22.7817  -18.3452 C   0  0  0  0  0  0  0  0  0  0  0  0
   23.9155  -22.2564  -19.5460 C   0  0  0  0  0  0  0  0  0  0  0  0
   23.3349  -21.0448  -20.1818 C   0  0  0  0  0  0  0  0  0  0  0  0
   24.1375  -20.5030  -21.3199 C   0  0  0  0  0  0  0  0  0  0  0  0
   23.5986  -19.2969  -21.8793 N   0  0  0  0  0  0  0  0  0  0  0  0
   22.2668  -22.4454  -16.0892 C   0  0  0  0  0  0  0  0  0  0  0  0
   22.5795  -23.6587  -15.8383 O   0  0  0  0  0  0  0  0  0  0  0  0
   20.3477  -19.2296  -11.3125 N   0  0  0  0  0  0  0  0  0  0  0  0
   20.8580  -18.8439  -12.5565 C   0  0  0  0  0  0  0  0  0  0  0  0
   21.0984  -17.6665  -12.8954 O   0  0  0  0  0  0  0  0  0  0  0  0
   21.1366  -19.9352  -13.5581 C   0  0  0  0  0  0  0  0  0  0  0  0
   20.6413  -21.2407  -13.0312 C   0  0  0  0  0  0  0  0  0  0  0  0
   20.7524  -22.3213  -14.0789 C   0  0  2  0  0  0  0  0  0  0  0  0
   21.3659  -21.7256  -15.2879 N   0  0  0  0  0  0  0  0  0  0  0  0
   19.4807  -22.8921  -14.5167 C   0  0  0  0  0  0  0  0  0  0  0  0
   19.0391  -22.6051  -15.6845 O   0  0  0  0  0  0  0  0  0  0  0  0
   15.8311  -26.1559  -15.6507 C   0  0  0  0  0  0  0  0  0  0  0  0
   15.8788  -26.2191  -14.1056 C   0  0  2  0  0  0  0  0  0  0  0  0
   14.6700  -25.4612  -13.5887 C   0  0  0  0  0  0  0  0  0  0  0  0
   17.1331  -25.5397  -13.7089 C   0  0  0  0  0  0  0  0  0  0  0  0
   17.3763  -24.1868  -14.2665 C   0  0  2  0  0  0  0  0  0  0  0  0
   18.6929  -23.7516  -13.7454 N   0  0  0  0  0  0  0  0  0  0  0  0
   16.4060  -23.1405  -13.9878 C   0  0  0  0  0  0  0  0  0  0  0  0
   16.4979  -22.3844  -12.9873 O   0  0  0  0  0  0  0  0  0  0  0  0
   15.3170  -22.9146  -14.8188 O   0  0  0  0  0  0  0  0  0  0  0  0
  2  8  1  0
  2  1  1  1
  3  2  1  0
  4  3  1  0
  5  4  1  0
  6  5  1  0
  7  6  1  0
  8  9  2  0
 10 11  1  0
 11 13  1  0
 11 12  2  0
 13 14  1  0
 15 14  1  1
 16 15  1  0
 16  8  1  0
 17 15  1  0
 18 17  2  0
 20 19  1  6
 20 22  1  0
 21 20  1  0
 23 22  1  1
 23 25  1  0
 23 24  1  0
 24 17  1  0
 25 27  1  0
 26 25  2  0
M  END
$$$$
