KQL.pdb
     RDKit          3D

 27 26  0  0  1  0  0  0  0  0999 V2000
   16.5660  -11.9644  -18.1063 N   0  0  0  0  0  0  0  0  0  0  0  0
   17.3860  -11.6482  -16.9696 C   0  0  1  0  0  0  0  0  0  0  0  0
   18.3455  -12.7227  -16.5662 C   0  0  0  0  0  0  0  0  0  0  0  0
   17.7660  -14.0649  -16.3442 C   0  0  0  0  0  0  0  0  0  0  0  0
   17.0333  -14.2844  -15.0697 C   0  0  0  0  0  0  0  0  0  0  0  0
   16.4811  -15.6635  -14.9074 C   0  0  0  0  0  0  0  0  0  0  0  0
   15.8309  -15.8767  -13.6466 N   0  0  0  0  0  0  0  0  0  0  0  0
   18.1049  -10.3524  -17.2416 C   0  0  0  0  0  0  0  0  0  0  0  0
   18.5171  -10.1264  -18.4297 O   0  0  0  0  0  0  0  0  0  0  0  0
   16.3889   -5.0607  -15.4739 N   0  0  0  0  0  0  0  0  0  0  0  0
   16.3008   -5.5238  -16.7909 C   0  0  0  0  0  0  0  0  0  0  0  0
   15.5220   -5.0716  -17.6558 O   0  0  0  0  0  0  0  0  0  0  0  0
   17.2166   -6.6524  -17.1899 C   0  0  0  0  0  0  0  0  0  0  0  0
   18.0802   -7.0327  -16.0336 C   0  0  0  0  0  0  0  0  0  0  0  0
   19.0162   -8.1561  -16.4073 C   0  0  2  0  0  0  0  0  0  0  0  0
   18.3026   -9.4364  -16.1958 N   0  0  0  0  0  0  0  0  0  0  0  0
   20.2336   -8.2405  -15.6039 C   0  0  0  0  0  0  0  0  0  0  0  0
   20.1359   -8.4822  -14.3497 O   0  0  0  0  0  0  0  0  0  0  0  0
   26.0884   -9.4036  -16.2149 C   0  0  0  0  0  0  0  0  0  0  0  0
   25.0852   -8.8491  -15.1758 C   0  0  2  0  0  0  0  0  0  0  0  0
   25.0546   -9.8273  -14.0161 C   0  0  0  0  0  0  0  0  0  0  0  0
   23.7729   -8.8053  -15.8601 C   0  0  0  0  0  0  0  0  0  0  0  0
   22.6743   -8.0835  -15.1726 C   0  0  2  0  0  0  0  0  0  0  0  0
   21.5270   -8.0804  -16.1098 N   0  0  0  0  0  0  0  0  0  0  0  0
   22.9123   -6.7170  -14.7371 C   0  0  0  0  0  0  0  0  0  0  0  0
   22.7539   -5.7290  -15.4987 O   0  0  0  0  0  0  0  0  0  0  0  0
   23.3283   -6.4245  -13.4453 O   0  0  0  0  0  0  0  0  0  0  0  0
  2  8  1  0
  2  1  1  6
  3  2  1  0
  4  3  1  0
  5  4  1  0
  6  5  1  0
  7  6  1  0
  8  9  2  0
 10 11  1  0
 11 13  1  0
 11 12  2  0
 13 14  1  0
 15 14  1  1
 16 15  1  0
 16  8  1  0
 17 15  1  0
 18 17  2  0
 20 19  1  6
 20 22  1  0
 21 20  1  0
 23 22  1  6
 23 25  1  0
 23 24  1  0
 24 17  1  0
 25 27  1  0
 26 25  2  0
M  END
$$$$
