KQL.pdb
     RDKit          3D

 27 26  0  0  1  0  0  0  0  0999 V2000
   20.8002  -28.1330  -16.8911 N   0  0  0  0  0  0  0  0  0  0  0  0
   22.1597  -28.3412  -16.4748 C   0  0  1  0  0  0  0  0  0  0  0  0
   22.7422  -29.6633  -16.8628 C   0  0  0  0  0  0  0  0  0  0  0  0
   22.2291  -30.8418  -16.1318 C   0  0  0  0  0  0  0  0  0  0  0  0
   22.7179  -31.0434  -14.7426 C   0  0  0  0  0  0  0  0  0  0  0  0
   22.2001  -32.2796  -14.0817 C   0  0  0  0  0  0  0  0  0  0  0  0
   22.7746  -32.5235  -12.7901 N   0  0  0  0  0  0  0  0  0  0  0  0
   23.0005  -27.2040  -16.9943 C   0  0  0  0  0  0  0  0  0  0  0  0
   23.3924  -27.2466  -18.2097 O   0  0  0  0  0  0  0  0  0  0  0  0
   22.9650  -21.5449  -14.5789 N   0  0  0  0  0  0  0  0  0  0  0  0
   24.0150  -21.3609  -15.4846 C   0  0  0  0  0  0  0  0  0  0  0  0
   24.5530  -20.2635  -15.7402 O   0  0  0  0  0  0  0  0  0  0  0  0
   24.5314  -22.5816  -16.2022 C   0  0  0  0  0  0  0  0  0  0  0  0
   23.7236  -23.7743  -15.8118 C   0  0  0  0  0  0  0  0  0  0  0  0
   24.1369  -24.9884  -16.6075 C   0  0  2  0  0  0  0  0  0  0  0  0
   23.3293  -26.1386  -16.1408 N   0  0  0  0  0  0  0  0  0  0  0  0
   25.5326  -25.3889  -16.4455 C   0  0  0  0  0  0  0  0  0  0  0  0
   25.9106  -25.8894  -15.3285 O   0  0  0  0  0  0  0  0  0  0  0  0
   29.5716  -28.6435  -18.8253 C   0  0  0  0  0  0  0  0  0  0  0  0
   29.5179  -27.4997  -17.7848 C   0  0  2  0  0  0  0  0  0  0  0  0
   29.7077  -28.1290  -16.4170 C   0  0  0  0  0  0  0  0  0  0  0  0
   28.1683  -26.9029  -17.9051 C   0  0  0  0  0  0  0  0  0  0  0  0
   27.9034  -25.6654  -17.1312 C   0  0  2  0  0  0  0  0  0  0  0  0
   26.5090  -25.2716  -17.4391 N   0  0  0  0  0  0  0  0  0  0  0  0
   28.7632  -24.5143  -17.3542 C   0  0  0  0  0  0  0  0  0  0  0  0
   30.0130  -24.5715  -17.2288 O   0  0  0  0  0  0  0  0  0  0  0  0
   28.2481  -23.2792  -17.7236 O   0  0  0  0  0  0  0  0  0  0  0  0
  2  8  1  0
  2  1  1  6
  3  2  1  0
  4  3  1  0
  5  4  1  0
  6  5  1  0
  7  6  1  0
  8  9  2  0
 10 11  1  0
 11 13  1  0
 11 12  2  0
 13 14  1  0
 15 14  1  1
 16 15  1  0
 16  8  1  0
 17 15  1  0
 18 17  2  0
 20 19  1  6
 20 22  1  0
 21 20  1  0
 23 22  1  6
 23 25  1  0
 23 24  1  0
 24 17  1  0
 25 27  1  0
 26 25  2  0
M  END
$$$$
