PHK.pdb
     RDKit          3D

 27 28  0  0  1  0  0  0  0  0999 V2000
   25.2889  -22.1062  -15.4247 N   0  0  0  0  0  0  0  0  0  0  0  0
   26.6152  -22.2749  -15.9705 C   0  0  0  0  0  0  0  0  0  0  0  0
   27.3960  -21.0367  -15.6813 C   0  0  0  0  0  0  0  0  0  0  0  0
   26.3783  -20.1231  -15.0302 C   0  0  0  0  0  0  0  0  0  0  0  0
   25.4611  -21.1367  -14.3734 C   0  0  1  0  0  0  0  0  0  0  0  0
   24.1947  -20.5460  -13.9105 C   0  0  0  0  0  0  0  0  0  0  0  0
   24.1179  -19.5910  -13.0916 O   0  0  0  0  0  0  0  0  0  0  0  0
   22.9902  -21.0966  -14.4273 N   0  0  0  0  0  0  0  0  0  0  0  0
   21.6699  -20.5922  -14.0079 C   0  0  1  0  0  0  0  0  0  0  0  0
   21.0545  -19.9653  -15.2132 C   0  0  0  0  0  0  0  0  0  0  0  0
   21.5874  -18.6832  -15.6429 C   0  0  0  0  0  0  0  0  0  0  0  0
   22.5481  -18.5221  -16.6261 C   0  0  0  0  0  0  0  0  0  0  0  0
   22.7870  -17.2084  -16.7498 N   0  0  0  0  0  0  0  0  0  0  0  0
   22.0203  -16.5460  -15.8901 C   0  0  0  0  0  0  0  0  0  0  0  0
   21.2782  -17.4594  -15.2053 N   0  0  0  0  0  0  0  0  0  0  0  0
   20.8974  -21.7328  -13.5079 C   0  0  0  0  0  0  0  0  0  0  0  0
   20.9810  -22.8543  -14.1247 O   0  0  0  0  0  0  0  0  0  0  0  0
   20.0436  -21.7472  -12.3793 N   0  0  0  0  0  0  0  0  0  0  0  0
   19.3548  -22.9886  -11.9486 C   0  0  1  0  0  0  0  0  0  0  0  0
   19.3368  -23.0110  -10.4329 C   0  0  0  0  0  0  0  0  0  0  0  0
   18.7833  -24.2803   -9.9066 C   0  0  0  0  0  0  0  0  0  0  0  0
   18.6939  -24.2705   -8.3793 C   0  0  0  0  0  0  0  0  0  0  0  0
   18.2501  -25.5894   -7.8401 C   0  0  0  0  0  0  0  0  0  0  0  0
   18.2112  -25.5761   -6.3810 N   0  0  0  0  0  0  0  0  0  0  0  0
   18.0284  -23.0254  -12.5242 C   0  0  0  0  0  0  0  0  0  0  0  0
   17.4409  -24.2380  -12.8694 O   0  0  0  0  0  0  0  0  0  0  0  0
   17.3907  -21.9404  -12.7194 O   0  0  0  0  0  0  0  0  0  0  0  0
  1  5  1  0
  1  2  1  0
  2  3  1  0
  4  3  1  0
  5  4  1  0
  6  7  2  0
  5  6  1  6
  8  6  1  0
  9  8  1  0
  9 10  1  6
 11 10  1  0
 11 15  1  0
 12 13  1  0
 12 11  2  0
 13 14  1  0
 14 15  2  0
 16  9  1  0
 17 16  2  0
 18 16  1  0
 19 18  1  0
 20 21  1  0
 19 20  1  1
 22 21  1  0
 23 22  1  0
 24 23  1  0
 25 19  1  0
 25 26  1  0
 27 25  2  0
M  END
$$$$
