PHK.pdb
     RDKit          3D

 27 28  0  0  1  0  0  0  0  0999 V2000
   24.1904  -22.8122  -15.1103 N   0  0  0  0  0  0  0  0  0  0  0  0
   25.4793  -23.0060  -15.7322 C   0  0  0  0  0  0  0  0  0  0  0  0
   26.3533  -21.8571  -15.3543 C   0  0  0  0  0  0  0  0  0  0  0  0
   25.4268  -20.9548  -14.5658 C   0  0  0  0  0  0  0  0  0  0  0  0
   24.4700  -21.9719  -13.9742 C   0  0  1  0  0  0  0  0  0  0  0  0
   23.2662  -21.3545  -13.3941 C   0  0  0  0  0  0  0  0  0  0  0  0
   23.2861  -20.5072  -12.4612 O   0  0  0  0  0  0  0  0  0  0  0  0
   22.0090  -21.7472  -13.9289 N   0  0  0  0  0  0  0  0  0  0  0  0
   20.7436  -21.2043  -13.4017 C   0  0  1  0  0  0  0  0  0  0  0  0
   20.0489  -20.5580  -14.5524 C   0  0  0  0  0  0  0  0  0  0  0  0
   20.3985  -19.1797  -14.8529 C   0  0  0  0  0  0  0  0  0  0  0  0
   21.2402  -18.3972  -14.0815 C   0  0  0  0  0  0  0  0  0  0  0  0
   21.3270  -17.1940  -14.6671 N   0  0  0  0  0  0  0  0  0  0  0  0
   20.5792  -17.1921  -15.7656 C   0  0  0  0  0  0  0  0  0  0  0  0
   20.0049  -18.4214  -15.8799 N   0  0  0  0  0  0  0  0  0  0  0  0
   19.9819  -22.3222  -12.8377 C   0  0  0  0  0  0  0  0  0  0  0  0
   19.9445  -23.4315  -13.4804 O   0  0  0  0  0  0  0  0  0  0  0  0
   19.2617  -22.3262  -11.6195 N   0  0  0  0  0  0  0  0  0  0  0  0
   18.4954  -23.5183  -11.1801 C   0  0  1  0  0  0  0  0  0  0  0  0
   18.5798  -23.5967   -9.6685 C   0  0  0  0  0  0  0  0  0  0  0  0
   17.7678  -24.7115   -9.1280 C   0  0  0  0  0  0  0  0  0  0  0  0
   17.7526  -24.7128   -7.5980 C   0  0  0  0  0  0  0  0  0  0  0  0
   17.9084  -26.0890   -7.0419 C   0  0  0  0  0  0  0  0  0  0  0  0
   17.8022  -26.0842   -5.5861 N   0  0  0  0  0  0  0  0  0  0  0  0
   17.1346  -23.4171  -11.6597 C   0  0  0  0  0  0  0  0  0  0  0  0
   16.4471  -24.5508  -12.0803 O   0  0  0  0  0  0  0  0  0  0  0  0
   16.5584  -22.2821  -11.7000 O   0  0  0  0  0  0  0  0  0  0  0  0
  1  5  1  0
  1  2  1  0
  2  3  1  0
  4  3  1  0
  5  4  1  0
  6  7  2  0
  5  6  1  6
  8  6  1  0
  9  8  1  0
  9 10  1  6
 11 10  1  0
 11 15  1  0
 12 13  1  0
 12 11  2  0
 13 14  1  0
 14 15  2  0
 16  9  1  0
 17 16  2  0
 18 16  1  0
 19 18  1  0
 20 21  1  0
 19 20  1  1
 22 21  1  0
 23 22  1  0
 24 23  1  0
 25 19  1  0
 25 26  1  0
 27 25  2  0
M  END
$$$$
