PHK.pdb
     RDKit          3D

 27 28  0  0  1  0  0  0  0  0999 V2000
   19.3100  -29.0010  -16.1058 N   0  0  0  0  0  0  0  0  0  0  0  0
   19.1805  -28.7430  -17.5208 C   0  0  0  0  0  0  0  0  0  0  0  0
   19.8096  -27.4212  -17.8100 C   0  0  0  0  0  0  0  0  0  0  0  0
   20.2032  -26.9114  -16.4391 C   0  0  0  0  0  0  0  0  0  0  0  0
   20.4506  -28.2166  -15.7074 C   0  0  1  0  0  0  0  0  0  0  0  0
   20.5597  -28.0430  -14.2497 C   0  0  0  0  0  0  0  0  0  0  0  0
   21.4554  -27.3599  -13.6844 O   0  0  0  0  0  0  0  0  0  0  0  0
   19.5875  -28.6918  -13.4406 N   0  0  0  0  0  0  0  0  0  0  0  0
   19.6072  -28.5773  -11.9708 C   0  0  1  0  0  0  0  0  0  0  0  0
   18.4165  -27.7618  -11.5944 C   0  0  0  0  0  0  0  0  0  0  0  0
   18.5596  -26.3160  -11.6340 C   0  0  0  0  0  0  0  0  0  0  0  0
   19.7312  -25.6515  -11.9526 C   0  0  0  0  0  0  0  0  0  0  0  0
   19.4827  -24.3354  -11.8878 N   0  0  0  0  0  0  0  0  0  0  0  0
   18.2123  -24.1510  -11.5441 C   0  0  0  0  0  0  0  0  0  0  0  0
   17.6417  -25.3773  -11.3872 N   0  0  0  0  0  0  0  0  0  0  0  0
   19.5596  -29.9343  -11.4193 C   0  0  0  0  0  0  0  0  0  0  0  0
   18.8228  -30.8109  -11.9969 O   0  0  0  0  0  0  0  0  0  0  0  0
   20.2615  -30.4127  -10.2873 N   0  0  0  0  0  0  0  0  0  0  0  0
   20.1631  -31.8303   -9.8608 C   0  0  1  0  0  0  0  0  0  0  0  0
   21.4163  -32.1708   -9.0787 C   0  0  0  0  0  0  0  0  0  0  0  0
   22.6113  -32.2332   -9.9519 C   0  0  0  0  0  0  0  0  0  0  0  0
   23.8862  -32.5047   -9.1507 C   0  0  0  0  0  0  0  0  0  0  0  0
   25.0443  -32.8181  -10.0384 C   0  0  0  0  0  0  0  0  0  0  0  0
   26.2677  -33.0012   -9.2635 N   0  0  0  0  0  0  0  0  0  0  0  0
   18.9543  -32.0159   -9.0884 C   0  0  0  0  0  0  0  0  0  0  0  0
   18.5422  -31.0493   -8.1771 O   0  0  0  0  0  0  0  0  0  0  0  0
   18.2599  -33.0726   -9.2403 O   0  0  0  0  0  0  0  0  0  0  0  0
  1  5  1  0
  1  2  1  0
  2  3  1  0
  4  3  1  0
  5  4  1  0
  6  7  2  0
  5  6  1  1
  8  6  1  0
  9  8  1  0
  9 10  1  1
 11 10  1  0
 11 15  1  0
 12 13  1  0
 12 11  2  0
 13 14  1  0
 14 15  2  0
 16  9  1  0
 17 16  2  0
 18 16  1  0
 19 18  1  0
 20 21  1  0
 19 20  1  1
 22 21  1  0
 23 22  1  0
 24 23  1  0
 25 19  1  0
 25 26  1  0
 27 25  2  0
M  END
$$$$
