PHK.pdb
     RDKit          3D

 27 28  0  0  1  0  0  0  0  0999 V2000
   24.3417  -13.6031  -18.5041 N   0  0  0  0  0  0  0  0  0  0  0  0
   24.6088  -14.9808  -18.8452 C   0  0  0  0  0  0  0  0  0  0  0  0
   25.4245  -15.5795  -17.7485 C   0  0  0  0  0  0  0  0  0  0  0  0
   25.6843  -14.4085  -16.8237 C   0  0  0  0  0  0  0  0  0  0  0  0
   24.4449  -13.5692  -17.0677 C   0  0  1  0  0  0  0  0  0  0  0  0
   24.5606  -12.2068  -16.5225 C   0  0  0  0  0  0  0  0  0  0  0  0
   24.7462  -11.9468  -15.3033 O   0  0  0  0  0  0  0  0  0  0  0  0
   24.4546  -11.1256  -17.4394 N   0  0  0  0  0  0  0  0  0  0  0  0
   24.5750   -9.7246  -16.9964 C   0  0  1  0  0  0  0  0  0  0  0  0
   25.4051   -9.0272  -18.0206 C   0  0  0  0  0  0  0  0  0  0  0  0
   26.8327   -9.3002  -18.0195 C   0  0  0  0  0  0  0  0  0  0  0  0
   27.4987   -9.9932  -17.0236 C   0  0  0  0  0  0  0  0  0  0  0  0
   28.7945  -10.0491  -17.3640 N   0  0  0  0  0  0  0  0  0  0  0  0
   28.9648   -9.4238  -18.5241 C   0  0  0  0  0  0  0  0  0  0  0  0
   27.7502   -8.9605  -18.9292 N   0  0  0  0  0  0  0  0  0  0  0  0
   23.2209   -9.1730  -16.8961 C   0  0  0  0  0  0  0  0  0  0  0  0
   22.3518   -9.5029  -17.7798 O   0  0  0  0  0  0  0  0  0  0  0  0
   22.7376   -8.2924  -15.8991 N   0  0  0  0  0  0  0  0  0  0  0  0
   21.3085   -7.8976  -15.8453 C   0  0  1  0  0  0  0  0  0  0  0  0
   20.4880   -9.1468  -15.5916 C   0  0  0  0  0  0  0  0  0  0  0  0
   19.0364   -8.8544  -15.5511 C   0  0  0  0  0  0  0  0  0  0  0  0
   18.2058  -10.1268  -15.3720 C   0  0  0  0  0  0  0  0  0  0  0  0
   16.7429   -9.8573  -15.4930 C   0  0  0  0  0  0  0  0  0  0  0  0
   15.9618  -11.0628  -15.2339 N   0  0  0  0  0  0  0  0  0  0  0  0
   21.1270   -6.8919  -14.8217 C   0  0  0  0  0  0  0  0  0  0  0  0
   19.9748   -6.1132  -14.7921 O   0  0  0  0  0  0  0  0  0  0  0  0
   22.0282   -6.7140  -13.9396 O   0  0  0  0  0  0  0  0  0  0  0  0
  1  5  1  0
  1  2  1  0
  2  3  1  0
  4  3  1  0
  5  4  1  0
  6  7  2  0
  5  6  1  6
  8  6  1  0
  9  8  1  0
  9 10  1  6
 11 10  1  0
 11 15  1  0
 12 13  1  0
 12 11  2  0
 13 14  1  0
 14 15  2  0
 16  9  1  0
 17 16  2  0
 18 16  1  0
 19 18  1  0
 20 21  1  0
 19 20  1  1
 22 21  1  0
 23 22  1  0
 24 23  1  0
 25 19  1  0
 25 26  1  0
 27 25  2  0
M  END
$$$$
