PHK.pdb
     RDKit          3D

 27 28  0  0  1  0  0  0  0  0999 V2000
   33.6780  -27.6502  -22.1356 N   0  0  0  0  0  0  0  0  0  0  0  0
   34.8914  -27.4864  -22.9013 C   0  0  0  0  0  0  0  0  0  0  0  0
   36.0251  -28.0228  -22.0929 C   0  0  0  0  0  0  0  0  0  0  0  0
   35.3730  -28.3989  -20.7785 C   0  0  0  0  0  0  0  0  0  0  0  0
   33.9700  -28.7413  -21.2415 C   0  0  1  0  0  0  0  0  0  0  0  0
   33.0131  -28.8568  -20.1289 C   0  0  0  0  0  0  0  0  0  0  0  0
   33.1284  -29.6782  -19.1799 O   0  0  0  0  0  0  0  0  0  0  0  0
   31.8933  -27.9811  -20.1375 N   0  0  0  0  0  0  0  0  0  0  0  0
   30.8684  -28.0299  -19.0788 C   0  0  1  0  0  0  0  0  0  0  0  0
   30.6530  -26.6228  -18.6338 C   0  0  0  0  0  0  0  0  0  0  0  0
   29.5174  -26.3656  -17.7638 C   0  0  0  0  0  0  0  0  0  0  0  0
   29.2915  -27.0061  -16.5578 C   0  0  0  0  0  0  0  0  0  0  0  0
   28.1576  -26.5111  -16.0408 N   0  0  0  0  0  0  0  0  0  0  0  0
   27.6686  -25.5937  -16.8685 C   0  0  0  0  0  0  0  0  0  0  0  0
   28.5107  -25.5042  -17.9346 N   0  0  0  0  0  0  0  0  0  0  0  0
   29.6626  -28.6306  -19.6559 C   0  0  0  0  0  0  0  0  0  0  0  0
   29.3425  -28.3371  -20.8628 O   0  0  0  0  0  0  0  0  0  0  0  0
   28.7800  -29.5353  -19.0191 N   0  0  0  0  0  0  0  0  0  0  0  0
   27.5471  -30.0131  -19.6920 C   0  0  1  0  0  0  0  0  0  0  0  0
   27.0479  -31.2320  -18.9416 C   0  0  0  0  0  0  0  0  0  0  0  0
   25.7821  -31.7499  -19.5108 C   0  0  0  0  0  0  0  0  0  0  0  0
   25.3027  -33.0055  -18.7795 C   0  0  0  0  0  0  0  0  0  0  0  0
   23.9976  -33.4950  -19.3127 C   0  0  0  0  0  0  0  0  0  0  0  0
   23.7115  -34.8479  -18.8453 N   0  0  0  0  0  0  0  0  0  0  0  0
   26.5752  -28.9424  -19.7290 C   0  0  0  0  0  0  0  0  0  0  0  0
   25.7447  -28.7793  -20.8327 O   0  0  0  0  0  0  0  0  0  0  0  0
   26.4776  -28.1395  -18.7452 O   0  0  0  0  0  0  0  0  0  0  0  0
  1  5  1  0
  1  2  1  0
  2  3  1  0
  4  3  1  0
  5  4  1  0
  6  7  2  0
  5  6  1  1
  8  6  1  0
  9  8  1  0
  9 10  1  6
 11 10  1  0
 11 15  1  0
 12 13  1  0
 12 11  2  0
 13 14  1  0
 14 15  2  0
 16  9  1  0
 17 16  2  0
 18 16  1  0
 19 18  1  0
 20 21  1  0
 19 20  1  1
 22 21  1  0
 23 22  1  0
 24 23  1  0
 25 19  1  0
 25 26  1  0
 27 25  2  0
M  END
$$$$
