PHK.pdb
     RDKit          3D

 27 28  0  0  1  0  0  0  0  0999 V2000
   18.6925  -19.8096    1.6073 N   0  0  0  0  0  0  0  0  0  0  0  0
   19.3506  -19.5819    0.3422 C   0  0  0  0  0  0  0  0  0  0  0  0
   18.8048  -18.3228   -0.2438 C   0  0  0  0  0  0  0  0  0  0  0  0
   17.7188  -17.9221    0.7331 C   0  0  0  0  0  0  0  0  0  0  0  0
   18.2671  -18.4980    2.0244 C   0  0  1  0  0  0  0  0  0  0  0  0
   17.2703  -18.5242    3.1073 C   0  0  0  0  0  0  0  0  0  0  0  0
   16.7017  -17.4987    3.5694 O   0  0  0  0  0  0  0  0  0  0  0  0
   16.9373  -19.7920    3.6574 N   0  0  0  0  0  0  0  0  0  0  0  0
   15.9302  -19.9284    4.7255 C   0  0  1  0  0  0  0  0  0  0  0  0
   15.0139  -21.0274    4.3047 C   0  0  0  0  0  0  0  0  0  0  0  0
   14.0679  -20.7355    3.2407 C   0  0  0  0  0  0  0  0  0  0  0  0
   13.3150  -19.5772    3.1555 C   0  0  0  0  0  0  0  0  0  0  0  0
   12.5640  -19.6609    2.0478 N   0  0  0  0  0  0  0  0  0  0  0  0
   12.8147  -20.8163    1.4410 C   0  0  0  0  0  0  0  0  0  0  0  0
   13.7456  -21.4808    2.1799 N   0  0  0  0  0  0  0  0  0  0  0  0
   16.6418  -20.2318    5.9703 C   0  0  0  0  0  0  0  0  0  0  0  0
   17.7051  -20.9470    5.9160 O   0  0  0  0  0  0  0  0  0  0  0  0
   16.2865  -19.8081    7.2730 N   0  0  0  0  0  0  0  0  0  0  0  0
   17.1428  -20.1159    8.4448 C   0  0  1  0  0  0  0  0  0  0  0  0
   17.3566  -18.8294    9.2178 C   0  0  0  0  0  0  0  0  0  0  0  0
   18.1442  -19.0523   10.4524 C   0  0  0  0  0  0  0  0  0  0  0  0
   18.4247  -17.7421   11.1911 C   0  0  0  0  0  0  0  0  0  0  0  0
   19.2519  -17.9597   12.4141 C   0  0  0  0  0  0  0  0  0  0  0  0
   19.6849  -16.6903   12.9901 N   0  0  0  0  0  0  0  0  0  0  0  0
   16.5146  -21.1481    9.2398 C   0  0  0  0  0  0  0  0  0  0  0  0
   15.1287  -21.2524    9.2956 O   0  0  0  0  0  0  0  0  0  0  0  0
   17.2333  -21.9691    9.8968 O   0  0  0  0  0  0  0  0  0  0  0  0
  1  5  1  0
  1  2  1  0
  2  3  1  0
  4  3  1  0
  5  4  1  0
  6  7  2  0
  5  6  1  1
  8  6  1  0
  9  8  1  0
  9 10  1  6
 11 10  1  0
 11 15  1  0
 12 13  1  0
 12 11  2  0
 13 14  1  0
 14 15  2  0
 16  9  1  0
 17 16  2  0
 18 16  1  0
 19 18  1  0
 20 21  1  0
 19 20  1  1
 22 21  1  0
 23 22  1  0
 24 23  1  0
 25 19  1  0
 25 26  1  0
 27 25  2  0
M  END
$$$$
