PHK.pdb
     RDKit          3D

 27 28  0  0  1  0  0  0  0  0999 V2000
   25.0629  -33.5062   -7.8323 N   0  0  0  0  0  0  0  0  0  0  0  0
   24.2756  -32.8673   -8.8606 C   0  0  0  0  0  0  0  0  0  0  0  0
   25.0421  -31.6917   -9.3674 C   0  0  0  0  0  0  0  0  0  0  0  0
   26.2648  -31.6573   -8.4740 C   0  0  0  0  0  0  0  0  0  0  0  0
   26.4184  -33.1288   -8.1405 C   0  0  1  0  0  0  0  0  0  0  0  0
   27.3578  -33.3689   -7.0329 C   0  0  0  0  0  0  0  0  0  0  0  0
   28.5377  -32.9270   -6.9985 O   0  0  0  0  0  0  0  0  0  0  0  0
   26.8923  -34.1495   -5.9399 N   0  0  0  0  0  0  0  0  0  0  0  0
   27.5260  -34.0704   -4.6110 C   0  0  1  0  0  0  0  0  0  0  0  0
   26.4262  -34.1895   -3.6105 C   0  0  0  0  0  0  0  0  0  0  0  0
   26.8015  -34.2036   -2.2065 C   0  0  0  0  0  0  0  0  0  0  0  0
   28.0830  -33.9788   -1.7341 C   0  0  0  0  0  0  0  0  0  0  0  0
   28.0449  -34.0688   -0.3967 N   0  0  0  0  0  0  0  0  0  0  0  0
   26.8006  -34.3388   -0.0161 C   0  0  0  0  0  0  0  0  0  0  0  0
   26.0317  -34.4221   -1.1367 N   0  0  0  0  0  0  0  0  0  0  0  0
   28.4964  -35.1646   -4.5163 C   0  0  0  0  0  0  0  0  0  0  0  0
   28.1970  -36.3025   -5.0267 O   0  0  0  0  0  0  0  0  0  0  0  0
   29.7754  -35.1114   -3.9127 N   0  0  0  0  0  0  0  0  0  0  0  0
   30.7149  -36.2568   -3.9934 C   0  0  1  0  0  0  0  0  0  0  0  0
   32.1226  -35.7186   -3.8299 C   0  0  0  0  0  0  0  0  0  0  0  0
   33.1407  -36.7855   -3.9706 C   0  0  0  0  0  0  0  0  0  0  0  0
   34.5550  -36.2567   -3.7236 C   0  0  0  0  0  0  0  0  0  0  0  0
   35.5866  -37.3178   -3.9158 C   0  0  0  0  0  0  0  0  0  0  0  0
   36.9281  -36.8001   -3.6651 N   0  0  0  0  0  0  0  0  0  0  0  0
   30.3686  -37.2330   -2.9838 C   0  0  0  0  0  0  0  0  0  0  0  0
   30.4978  -38.5936   -3.2422 O   0  0  0  0  0  0  0  0  0  0  0  0
   29.9401  -36.8472   -1.8483 O   0  0  0  0  0  0  0  0  0  0  0  0
  1  5  1  0
  1  2  1  0
  2  3  1  0
  4  3  1  0
  5  4  1  0
  6  7  2  0
  5  6  1  1
  8  6  1  0
  9  8  1  0
  9 10  1  1
 11 10  1  0
 11 15  1  0
 12 13  1  0
 12 11  2  0
 13 14  1  0
 14 15  2  0
 16  9  1  0
 17 16  2  0
 18 16  1  0
 19 18  1  0
 20 21  1  0
 19 20  1  1
 22 21  1  0
 23 22  1  0
 24 23  1  0
 25 19  1  0
 25 26  1  0
 27 25  2  0
M  END
$$$$
