PHK.pdb
     RDKit          3D

 27 28  0  0  1  0  0  0  0  0999 V2000
   25.6048  -14.8680  -15.3560 N   0  0  0  0  0  0  0  0  0  0  0  0
   26.7168  -15.7895  -15.3510 C   0  0  0  0  0  0  0  0  0  0  0  0
   27.5221  -15.5500  -16.5842 C   0  0  0  0  0  0  0  0  0  0  0  0
   26.7205  -14.5035  -17.3302 C   0  0  0  0  0  0  0  0  0  0  0  0
   26.0567  -13.7746  -16.1777 C   0  0  1  0  0  0  0  0  0  0  0  0
   24.9691  -12.8843  -16.6150 C   0  0  0  0  0  0  0  0  0  0  0  0
   25.1249  -11.9115  -17.4012 O   0  0  0  0  0  0  0  0  0  0  0  0
   23.6663  -13.1493  -16.1117 N   0  0  0  0  0  0  0  0  0  0  0  0
   22.4910  -12.3907  -16.5772 C   0  0  1  0  0  0  0  0  0  0  0  0
   21.2992  -13.2412  -16.2930 C   0  0  0  0  0  0  0  0  0  0  0  0
   19.9978  -12.7093  -16.6616 C   0  0  0  0  0  0  0  0  0  0  0  0
   19.7872  -11.4500  -17.1959 C   0  0  0  0  0  0  0  0  0  0  0  0
   18.4703  -11.3135  -17.4084 N   0  0  0  0  0  0  0  0  0  0  0  0
   17.8530  -12.4284  -17.0314 C   0  0  0  0  0  0  0  0  0  0  0  0
   18.7991  -13.2917  -16.5693 N   0  0  0  0  0  0  0  0  0  0  0  0
   22.4651  -11.1202  -15.8472 C   0  0  0  0  0  0  0  0  0  0  0  0
   22.8320  -11.1057  -14.6182 O   0  0  0  0  0  0  0  0  0  0  0  0
   22.0760   -9.8588  -16.3574 N   0  0  0  0  0  0  0  0  0  0  0  0
   22.1532   -8.6328  -15.5255 C   0  0  1  0  0  0  0  0  0  0  0  0
   22.4216   -7.4593  -16.4468 C   0  0  0  0  0  0  0  0  0  0  0  0
   22.4556   -6.1753  -15.7089 C   0  0  0  0  0  0  0  0  0  0  0  0
   22.5696   -4.9791  -16.6560 C   0  0  0  0  0  0  0  0  0  0  0  0
   22.4978   -3.6810  -15.9231 C   0  0  0  0  0  0  0  0  0  0  0  0
   22.7435   -2.5555  -16.8194 N   0  0  0  0  0  0  0  0  0  0  0  0
   20.9258   -8.4848  -14.7745 C   0  0  0  0  0  0  0  0  0  0  0  0
   20.9463   -7.9787  -13.4791 O   0  0  0  0  0  0  0  0  0  0  0  0
   19.8156   -8.8212  -15.3000 O   0  0  0  0  0  0  0  0  0  0  0  0
  1  5  1  0
  1  2  1  0
  2  3  1  0
  4  3  1  0
  5  4  1  0
  6  7  2  0
  5  6  1  6
  8  6  1  0
  9  8  1  0
  9 10  1  1
 11 10  1  0
 11 15  1  0
 12 13  1  0
 12 11  2  0
 13 14  1  0
 14 15  2  0
 16  9  1  0
 17 16  2  0
 18 16  1  0
 19 18  1  0
 20 21  1  0
 19 20  1  6
 22 21  1  0
 23 22  1  0
 24 23  1  0
 25 19  1  0
 25 26  1  0
 27 25  2  0
M  END
$$$$
