PHK.pdb
     RDKit          3D

 27 28  0  0  1  0  0  0  0  0999 V2000
   29.8149  -18.2654  -17.1866 N   0  0  0  0  0  0  0  0  0  0  0  0
   31.0819  -17.7190  -17.6128 C   0  0  0  0  0  0  0  0  0  0  0  0
   31.3765  -18.2434  -18.9784 C   0  0  0  0  0  0  0  0  0  0  0  0
   30.2362  -19.2056  -19.2393 C   0  0  0  0  0  0  0  0  0  0  0  0
   29.1311  -18.5711  -18.4170 C   0  0  1  0  0  0  0  0  0  0  0  0
   27.9715  -19.4596  -18.2356 C   0  0  0  0  0  0  0  0  0  0  0  0
   27.2806  -19.9223  -19.1828 O   0  0  0  0  0  0  0  0  0  0  0  0
   27.6197  -19.8099  -16.9035 N   0  0  0  0  0  0  0  0  0  0  0  0
   26.5301  -20.7614  -16.6189 C   0  0  1  0  0  0  0  0  0  0  0  0
   27.1190  -21.8366  -15.7694 C   0  0  0  0  0  0  0  0  0  0  0  0
   27.8529  -22.8932  -16.4457 C   0  0  0  0  0  0  0  0  0  0  0  0
   27.9183  -23.0483  -17.8195 C   0  0  0  0  0  0  0  0  0  0  0  0
   28.6809  -24.1221  -18.0717 N   0  0  0  0  0  0  0  0  0  0  0  0
   29.0922  -24.6412  -16.9196 C   0  0  0  0  0  0  0  0  0  0  0  0
   28.5793  -23.8801  -15.9138 N   0  0  0  0  0  0  0  0  0  0  0  0
   25.4633  -20.0234  -15.9368 C   0  0  0  0  0  0  0  0  0  0  0  0
   25.7626  -19.3059  -14.9167 O   0  0  0  0  0  0  0  0  0  0  0  0
   24.0922  -20.0014  -16.2868 N   0  0  0  0  0  0  0  0  0  0  0  0
   23.1157  -19.1805  -15.5294 C   0  0  1  0  0  0  0  0  0  0  0  0
   21.9733  -18.8335  -16.4636 C   0  0  0  0  0  0  0  0  0  0  0  0
   20.8978  -18.0901  -15.7672 C   0  0  0  0  0  0  0  0  0  0  0  0
   19.7400  -17.7521  -16.7086 C   0  0  0  0  0  0  0  0  0  0  0  0
   18.6183  -17.0786  -15.9906 C   0  0  0  0  0  0  0  0  0  0  0  0
   17.4395  -16.9647  -16.8438 N   0  0  0  0  0  0  0  0  0  0  0  0
   22.6794  -19.9115  -14.3601 C   0  0  0  0  0  0  0  0  0  0  0  0
   22.3713  -19.2407  -13.1812 O   0  0  0  0  0  0  0  0  0  0  0  0
   22.5769  -21.1801  -14.4061 O   0  0  0  0  0  0  0  0  0  0  0  0
  1  5  1  0
  1  2  1  0
  2  3  1  0
  4  3  1  0
  5  4  1  0
  6  7  2  0
  5  6  1  1
  8  6  1  0
  9  8  1  0
  9 10  1  1
 11 10  1  0
 11 15  1  0
 12 13  1  0
 12 11  2  0
 13 14  1  0
 14 15  2  0
 16  9  1  0
 17 16  2  0
 18 16  1  0
 19 18  1  0
 20 21  1  0
 19 20  1  6
 22 21  1  0
 23 22  1  0
 24 23  1  0
 25 19  1  0
 25 26  1  0
 27 25  2  0
M  END
$$$$
