PHK.pdb
     RDKit          3D

 27 28  0  0  1  0  0  0  0  0999 V2000
   26.0205  -21.3499  -15.3334 N   0  0  0  0  0  0  0  0  0  0  0  0
   27.4051  -21.3534  -15.7437 C   0  0  0  0  0  0  0  0  0  0  0  0
   28.0482  -20.1155  -15.2141 C   0  0  0  0  0  0  0  0  0  0  0  0
   26.8978  -19.3689  -14.5711 C   0  0  0  0  0  0  0  0  0  0  0  0
   26.0042  -20.5215  -14.1551 C   0  0  1  0  0  0  0  0  0  0  0  0
   24.6530  -20.0856  -13.7663 C   0  0  0  0  0  0  0  0  0  0  0  0
   24.4136  -19.2726  -12.8334 O   0  0  0  0  0  0  0  0  0  0  0  0
   23.5583  -20.6229  -14.4970 N   0  0  0  0  0  0  0  0  0  0  0  0
   22.1754  -20.1716  -14.2568 C   0  0  1  0  0  0  0  0  0  0  0  0
   21.6623  -19.6675  -15.5634 C   0  0  0  0  0  0  0  0  0  0  0  0
   22.0577  -18.3269  -15.9621 C   0  0  0  0  0  0  0  0  0  0  0  0
   22.7358  -17.4344  -15.1501 C   0  0  0  0  0  0  0  0  0  0  0  0
   22.9276  -16.3093  -15.8540 N   0  0  0  0  0  0  0  0  0  0  0  0
   22.4007  -16.4607  -17.0646 C   0  0  0  0  0  0  0  0  0  0  0  0
   21.8625  -17.7097  -17.1306 N   0  0  0  0  0  0  0  0  0  0  0  0
   21.4145  -21.3198  -13.7564 C   0  0  0  0  0  0  0  0  0  0  0  0
   21.6902  -22.4884  -14.2075 O   0  0  0  0  0  0  0  0  0  0  0  0
   20.3777  -21.2931  -12.7933 N   0  0  0  0  0  0  0  0  0  0  0  0
   19.7272  -22.5416  -12.3252 C   0  0  1  0  0  0  0  0  0  0  0  0
   19.5477  -22.4400  -10.8234 C   0  0  0  0  0  0  0  0  0  0  0  0
   18.8990  -23.6479  -10.2625 C   0  0  0  0  0  0  0  0  0  0  0  0
   18.8560  -23.6109   -8.7336 C   0  0  0  0  0  0  0  0  0  0  0  0
   18.1089  -24.7737   -8.1703 C   0  0  0  0  0  0  0  0  0  0  0  0
   18.1437  -24.7656   -6.7111 N   0  0  0  0  0  0  0  0  0  0  0  0
   18.4753  -22.7222  -13.0270 C   0  0  0  0  0  0  0  0  0  0  0  0
   17.9985  -23.9989  -13.3049 O   0  0  0  0  0  0  0  0  0  0  0  0
   17.8023  -21.7061  -13.3964 O   0  0  0  0  0  0  0  0  0  0  0  0
  1  5  1  0
  1  2  1  0
  2  3  1  0
  4  3  1  0
  5  4  1  0
  6  7  2  0
  5  6  1  6
  8  6  1  0
  9  8  1  0
  9 10  1  6
 11 10  1  0
 11 15  1  0
 12 13  1  0
 12 11  2  0
 13 14  1  0
 14 15  2  0
 16  9  1  0
 17 16  2  0
 18 16  1  0
 19 18  1  0
 20 21  1  0
 19 20  1  1
 22 21  1  0
 23 22  1  0
 24 23  1  0
 25 19  1  0
 25 26  1  0
 27 25  2  0
M  END
$$$$
