PHK.pdb
     RDKit          3D

 27 28  0  0  1  0  0  0  0  0999 V2000
   16.2175  -26.4132   -6.0931 N   0  0  0  0  0  0  0  0  0  0  0  0
   16.9485  -27.1813   -7.0735 C   0  0  0  0  0  0  0  0  0  0  0  0
   18.2594  -26.5075   -7.3061 C   0  0  0  0  0  0  0  0  0  0  0  0
   18.1629  -25.2508   -6.4661 C   0  0  0  0  0  0  0  0  0  0  0  0
   17.2410  -25.7173   -5.3560 C   0  0  1  0  0  0  0  0  0  0  0  0
   16.7211  -24.6075   -4.5405 C   0  0  0  0  0  0  0  0  0  0  0  0
   17.4388  -23.6966   -4.0468 O   0  0  0  0  0  0  0  0  0  0  0  0
   15.3200  -24.5730   -4.3024 N   0  0  0  0  0  0  0  0  0  0  0  0
   14.6540  -23.3593   -3.7955 C   0  0  1  0  0  0  0  0  0  0  0  0
   13.3138  -23.3088   -4.4479 C   0  0  0  0  0  0  0  0  0  0  0  0
   13.2498  -22.7758   -5.7985 C   0  0  0  0  0  0  0  0  0  0  0  0
   13.2761  -21.4281   -6.1126 C   0  0  0  0  0  0  0  0  0  0  0  0
   13.2007  -21.3201   -7.4471 N   0  0  0  0  0  0  0  0  0  0  0  0
   13.1289  -22.5368   -7.9766 C   0  0  0  0  0  0  0  0  0  0  0  0
   13.1593  -23.4372   -6.9556 N   0  0  0  0  0  0  0  0  0  0  0  0
   14.5682  -23.4764   -2.3371 C   0  0  0  0  0  0  0  0  0  0  0  0
   14.4604  -24.6434   -1.8159 O   0  0  0  0  0  0  0  0  0  0  0  0
   14.5984  -22.4165   -1.3998 N   0  0  0  0  0  0  0  0  0  0  0  0
   14.6342  -22.6783    0.0601 C   0  0  1  0  0  0  0  0  0  0  0  0
   15.3656  -21.5278    0.7231 C   0  0  0  0  0  0  0  0  0  0  0  0
   15.4547  -21.7040    2.1913 C   0  0  0  0  0  0  0  0  0  0  0  0
   16.0560  -20.4744    2.8750 C   0  0  0  0  0  0  0  0  0  0  0  0
   16.0085  -20.5867    4.3625 C   0  0  0  0  0  0  0  0  0  0  0  0
   16.5094  -19.3724    4.9989 N   0  0  0  0  0  0  0  0  0  0  0  0
   13.2835  -22.8397    0.5516 C   0  0  0  0  0  0  0  0  0  0  0  0
   13.0353  -23.5659    1.7116 O   0  0  0  0  0  0  0  0  0  0  0  0
   12.3107  -22.3154   -0.0814 O   0  0  0  0  0  0  0  0  0  0  0  0
  1  5  1  0
  1  2  1  0
  2  3  1  0
  4  3  1  0
  5  4  1  0
  6  7  2  0
  5  6  1  6
  8  6  1  0
  9  8  1  0
  9 10  1  6
 11 10  1  0
 11 15  1  0
 12 13  1  0
 12 11  2  0
 13 14  1  0
 14 15  2  0
 16  9  1  0
 17 16  2  0
 18 16  1  0
 19 18  1  0
 20 21  1  0
 19 20  1  1
 22 21  1  0
 23 22  1  0
 24 23  1  0
 25 19  1  0
 25 26  1  0
 27 25  2  0
M  END
$$$$
