HQK.pdb
     RDKit          3D

 29 29  0  0  1  0  0  0  0  0999 V2000
   27.0976  -23.4778  -16.8841 N   0  0  0  0  0  0  0  0  0  0  0  0
   26.6878  -22.1344  -16.5329 C   0  0  1  0  0  0  0  0  0  0  0  0
   25.8751  -21.6027  -17.7225 C   0  0  0  0  0  0  0  0  0  0  0  0
   26.7735  -20.8934  -18.6311 C   0  0  0  0  0  0  0  0  0  0  0  0
   28.1502  -20.9001  -18.5672 C   0  0  0  0  0  0  0  0  0  0  0  0
   28.6091  -20.1238  -19.5826 N   0  0  0  0  0  0  0  0  0  0  0  0
   27.5641  -19.6438  -20.2634 C   0  0  0  0  0  0  0  0  0  0  0  0
   26.4605  -20.1230  -19.6693 N   0  0  0  0  0  0  0  0  0  0  0  0
   25.7482  -22.2100  -15.3995 C   0  0  0  0  0  0  0  0  0  0  0  0
   25.0726  -23.2522  -15.2447 O   0  0  0  0  0  0  0  0  0  0  0  0
   25.8366  -22.2227  -10.4792 N   0  0  0  0  0  0  0  0  0  0  0  0
   24.8263  -21.2849  -10.1681 C   0  0  0  0  0  0  0  0  0  0  0  0
   24.1267  -21.4280   -9.1386 O   0  0  0  0  0  0  0  0  0  0  0  0
   24.5772  -20.0994  -11.0717 C   0  0  0  0  0  0  0  0  0  0  0  0
   25.3238  -20.3303  -12.3277 C   0  0  0  0  0  0  0  0  0  0  0  0
   24.7371  -21.2351  -13.3427 C   0  0  2  0  0  0  0  0  0  0  0  0
   25.6228  -21.1314  -14.5205 N   0  0  0  0  0  0  0  0  0  0  0  0
   23.4033  -20.8609  -13.8332 C   0  0  0  0  0  0  0  0  0  0  0  0
   23.2257  -19.8500  -14.6077 O   0  0  0  0  0  0  0  0  0  0  0  0
   22.2677  -21.5987  -13.4794 N   0  0  0  0  0  0  0  0  0  0  0  0
   20.9104  -21.2423  -13.8880 C   0  0  1  0  0  0  0  0  0  0  0  0
   20.2026  -22.4839  -14.2950 C   0  0  0  0  0  0  0  0  0  0  0  0
   18.7613  -22.3962  -14.6084 C   0  0  0  0  0  0  0  0  0  0  0  0
   18.1291  -23.7145  -14.9663 C   0  0  0  0  0  0  0  0  0  0  0  0
   16.6574  -23.3800  -15.2980 C   0  0  0  0  0  0  0  0  0  0  0  0
   15.9855  -24.5928  -15.6678 N   0  0  0  0  0  0  0  0  0  0  0  0
   20.2847  -20.4081  -12.8838 C   0  0  0  0  0  0  0  0  0  0  0  0
   19.7067  -19.3342  -13.2458 O   0  0  0  0  0  0  0  0  0  0  0  0
   20.2686  -20.6925  -11.5364 O   0  0  0  0  0  0  0  0  0  0  0  0
  2  1  1  6
  2  9  1  0
  3  2  1  0
  3  4  1  0
  4  5  2  0
  5  6  1  0
  7  6  1  0
  8  4  1  0
  8  7  2  0
  9 17  1  0
  9 10  2  0
 11 12  1  0
 12 14  1  0
 13 12  2  0
 14 15  1  0
 16 15  1  1
 16 18  1  0
 17 16  1  0
 18 19  2  0
 20 21  1  0
 20 18  1  0
 21 22  1  1
 23 22  1  0
 24 25  1  0
 24 23  1  0
 26 25  1  0
 27 21  1  0
 27 29  1  0
 28 27  2  0
M  END
$$$$
