HQK.pdb
     RDKit          3D

 29 29  0  0  1  0  0  0  0  0999 V2000
   14.3914  -18.7029    3.4361 N   0  0  0  0  0  0  0  0  0  0  0  0
   15.4718  -19.3186    4.1774 C   0  0  1  0  0  0  0  0  0  0  0  0
   16.5900  -19.6004    3.1632 C   0  0  0  0  0  0  0  0  0  0  0  0
   16.2166  -20.7600    2.3559 C   0  0  0  0  0  0  0  0  0  0  0  0
   15.7214  -20.7180    1.0704 C   0  0  0  0  0  0  0  0  0  0  0  0
   15.5016  -21.9989    0.6764 N   0  0  0  0  0  0  0  0  0  0  0  0
   15.8441  -22.8205    1.6732 C   0  0  0  0  0  0  0  0  0  0  0  0
   16.2751  -22.0482    2.6822 N   0  0  0  0  0  0  0  0  0  0  0  0
   16.0192  -18.3278    5.1219 C   0  0  0  0  0  0  0  0  0  0  0  0
   15.8762  -17.1104    4.8689 O   0  0  0  0  0  0  0  0  0  0  0  0
   17.0079  -19.3168   11.6436 N   0  0  0  0  0  0  0  0  0  0  0  0
   16.2481  -18.3307   10.9749 C   0  0  0  0  0  0  0  0  0  0  0  0
   15.0699  -18.0929   11.3291 O   0  0  0  0  0  0  0  0  0  0  0  0
   16.8457  -17.5516    9.8261 C   0  0  0  0  0  0  0  0  0  0  0  0
   16.5996  -18.3224    8.5877 C   0  0  0  0  0  0  0  0  0  0  0  0
   17.0849  -17.7694    7.3026 C   0  0  2  0  0  0  0  0  0  0  0  0
   16.6836  -18.7522    6.2752 N   0  0  0  0  0  0  0  0  0  0  0  0
   18.5439  -17.6527    7.1709 C   0  0  0  0  0  0  0  0  0  0  0  0
   19.2576  -18.6030    6.6802 O   0  0  0  0  0  0  0  0  0  0  0  0
   19.2173  -16.4926    7.5710 N   0  0  0  0  0  0  0  0  0  0  0  0
   20.6670  -16.3274    7.4860 C   0  0  1  0  0  0  0  0  0  0  0  0
   20.9556  -14.9297    7.0720 C   0  0  0  0  0  0  0  0  0  0  0  0
   20.7764  -13.8542    8.0690 C   0  0  0  0  0  0  0  0  0  0  0  0
   20.9474  -12.4660    7.5127 C   0  0  0  0  0  0  0  0  0  0  0  0
   20.6016  -11.5168    8.6820 C   0  0  0  0  0  0  0  0  0  0  0  0
   20.6506  -10.1651    8.2028 N   0  0  0  0  0  0  0  0  0  0  0  0
   21.3014  -16.8181    8.6912 C   0  0  0  0  0  0  0  0  0  0  0  0
   20.5833  -17.0558    9.7141 O   0  0  0  0  0  0  0  0  0  0  0  0
   22.6527  -17.0504    8.8196 O   0  0  0  0  0  0  0  0  0  0  0  0
  2  1  1  6
  2  9  1  0
  3  2  1  0
  3  4  1  0
  4  5  2  0
  5  6  1  0
  7  6  1  0
  8  4  1  0
  8  7  2  0
  9 17  1  0
  9 10  2  0
 11 12  1  0
 12 14  1  0
 13 12  2  0
 14 15  1  0
 16 15  1  1
 16 18  1  0
 17 16  1  0
 18 19  2  0
 20 21  1  0
 20 18  1  0
 21 22  1  1
 23 22  1  0
 24 25  1  0
 24 23  1  0
 26 25  1  0
 27 21  1  0
 27 29  1  0
 28 27  2  0
M  END
$$$$
