HQK.pdb
     RDKit          3D

 29 29  0  0  1  0  0  0  0  0999 V2000
   23.2628  -25.5860  -16.9405 N   0  0  0  0  0  0  0  0  0  0  0  0
   22.0383  -26.2361  -16.5236 C   0  0  1  0  0  0  0  0  0  0  0  0
   22.0985  -27.6694  -17.0717 C   0  0  0  0  0  0  0  0  0  0  0  0
   21.9503  -27.6278  -18.5250 C   0  0  0  0  0  0  0  0  0  0  0  0
   22.8658  -28.1019  -19.4397 C   0  0  0  0  0  0  0  0  0  0  0  0
   22.3577  -27.8771  -20.6788 N   0  0  0  0  0  0  0  0  0  0  0  0
   21.1667  -27.2837  -20.5543 C   0  0  0  0  0  0  0  0  0  0  0  0
   20.9391  -27.1420  -19.2396 N   0  0  0  0  0  0  0  0  0  0  0  0
   22.0484  -26.3613  -15.0548 C   0  0  0  0  0  0  0  0  0  0  0  0
   23.1485  -26.4509  -14.4646 O   0  0  0  0  0  0  0  0  0  0  0  0
   17.7146  -23.7947  -12.0484 N   0  0  0  0  0  0  0  0  0  0  0  0
   18.2316  -24.4478  -10.9068 C   0  0  0  0  0  0  0  0  0  0  0  0
   17.7182  -24.2529   -9.7806 O   0  0  0  0  0  0  0  0  0  0  0  0
   19.4083  -25.3881  -11.0296 C   0  0  0  0  0  0  0  0  0  0  0  0
   19.7764  -25.4587  -12.4606 C   0  0  0  0  0  0  0  0  0  0  0  0
   20.8568  -26.3859  -12.8678 C   0  0  2  0  0  0  0  0  0  0  0  0
   20.8452  -26.3785  -14.3451 N   0  0  0  0  0  0  0  0  0  0  0  0
   20.6629  -27.7931  -12.4910 C   0  0  0  0  0  0  0  0  0  0  0  0
   19.8845  -28.5711  -13.1560 O   0  0  0  0  0  0  0  0  0  0  0  0
   21.3271  -28.3467  -11.3903 N   0  0  0  0  0  0  0  0  0  0  0  0
   21.2018  -29.7465  -10.9887 C   0  0  1  0  0  0  0  0  0  0  0  0
   22.3967  -30.1117  -10.1843 C   0  0  0  0  0  0  0  0  0  0  0  0
   22.4662  -31.4729   -9.6140 C   0  0  0  0  0  0  0  0  0  0  0  0
   23.7234  -31.7485   -8.8334 C   0  0  0  0  0  0  0  0  0  0  0  0
   23.5578  -33.1878   -8.2960 C   0  0  0  0  0  0  0  0  0  0  0  0
   24.7138  -33.5188   -7.5130 N   0  0  0  0  0  0  0  0  0  0  0  0
   19.8982  -29.9890  -10.4075 C   0  0  0  0  0  0  0  0  0  0  0  0
   19.3121  -31.0929  -10.6446 O   0  0  0  0  0  0  0  0  0  0  0  0
   19.2276  -29.0959   -9.6017 O   0  0  0  0  0  0  0  0  0  0  0  0
  2  1  1  6
  2  9  1  0
  3  2  1  0
  3  4  1  0
  4  5  2  0
  5  6  1  0
  7  6  1  0
  8  4  1  0
  8  7  2  0
  9 17  1  0
  9 10  2  0
 11 12  1  0
 12 14  1  0
 13 12  2  0
 14 15  1  0
 16 15  1  1
 16 18  1  0
 17 16  1  0
 18 19  2  0
 20 21  1  0
 20 18  1  0
 21 22  1  1
 23 22  1  0
 24 25  1  0
 24 23  1  0
 26 25  1  0
 27 21  1  0
 27 29  1  0
 28 27  2  0
M  END
$$$$
