HQK.pdb
     RDKit          3D

 29 29  0  0  1  0  0  0  0  0999 V2000
   14.0278  -24.0180  -11.5195 N   0  0  0  0  0  0  0  0  0  0  0  0
   15.2542  -23.9384  -10.7542 C   0  0  1  0  0  0  0  0  0  0  0  0
   15.3457  -22.4986  -10.2279 C   0  0  0  0  0  0  0  0  0  0  0  0
   15.5504  -21.5933  -11.3568 C   0  0  0  0  0  0  0  0  0  0  0  0
   16.6981  -21.5008  -12.1144 C   0  0  0  0  0  0  0  0  0  0  0  0
   16.4870  -20.5483  -13.0592 N   0  0  0  0  0  0  0  0  0  0  0  0
   15.2538  -20.0565  -12.9063 C   0  0  0  0  0  0  0  0  0  0  0  0
   14.7034  -20.7044  -11.8681 N   0  0  0  0  0  0  0  0  0  0  0  0
   15.1232  -24.7990   -9.5644 C   0  0  0  0  0  0  0  0  0  0  0  0
   14.0526  -24.7736   -8.9167 O   0  0  0  0  0  0  0  0  0  0  0  0
   17.9436  -29.9111   -9.7293 N   0  0  0  0  0  0  0  0  0  0  0  0
   17.4268  -30.1348   -8.4332 C   0  0  0  0  0  0  0  0  0  0  0  0
   17.5601  -31.2532   -7.8841 O   0  0  0  0  0  0  0  0  0  0  0  0
   16.7078  -29.0300   -7.6940 C   0  0  0  0  0  0  0  0  0  0  0  0
   16.7080  -27.8352   -8.5664 C   0  0  0  0  0  0  0  0  0  0  0  0
   15.9876  -26.6253   -8.1082 C   0  0  2  0  0  0  0  0  0  0  0  0
   16.1820  -25.6238   -9.1768 N   0  0  0  0  0  0  0  0  0  0  0  0
   16.5159  -25.9932   -6.8911 C   0  0  0  0  0  0  0  0  0  0  0  0
   17.3516  -25.0174   -6.9430 O   0  0  0  0  0  0  0  0  0  0  0  0
   16.1227  -26.4273   -5.6199 N   0  0  0  0  0  0  0  0  0  0  0  0
   16.5127  -25.7598   -4.3795 C   0  0  1  0  0  0  0  0  0  0  0  0
   15.3200  -25.0686   -3.8246 C   0  0  0  0  0  0  0  0  0  0  0  0
   15.4725  -24.3150   -2.5629 C   0  0  0  0  0  0  0  0  0  0  0  0
   14.2689  -23.4919   -2.1894 C   0  0  0  0  0  0  0  0  0  0  0  0
   14.6638  -22.7690   -0.8820 C   0  0  0  0  0  0  0  0  0  0  0  0
   13.5728  -21.9295   -0.4769 N   0  0  0  0  0  0  0  0  0  0  0  0
   17.2223  -26.6787   -3.5146 C   0  0  0  0  0  0  0  0  0  0  0  0
   17.0025  -27.9267   -3.6266 O   0  0  0  0  0  0  0  0  0  0  0  0
   18.1356  -26.2974   -2.5570 O   0  0  0  0  0  0  0  0  0  0  0  0
  2  1  1  6
  2  9  1  0
  3  2  1  0
  3  4  1  0
  4  5  2  0
  5  6  1  0
  7  6  1  0
  8  4  1  0
  8  7  2  0
  9 17  1  0
  9 10  2  0
 11 12  1  0
 12 14  1  0
 13 12  2  0
 14 15  1  0
 16 15  1  6
 16 18  1  0
 17 16  1  0
 18 19  2  0
 20 21  1  0
 20 18  1  0
 21 22  1  1
 23 22  1  0
 24 25  1  0
 24 23  1  0
 26 25  1  0
 27 21  1  0
 27 29  1  0
 28 27  2  0
M  END
$$$$
