HQK.pdb
     RDKit          3D

 29 29  0  0  1  0  0  0  0  0999 V2000
   28.4524  -31.6894  -16.0638 N   0  0  0  0  0  0  0  0  0  0  0  0
   28.4268  -30.6964  -17.1170 C   0  0  1  0  0  0  0  0  0  0  0  0
   28.2919  -31.4672  -18.4383 C   0  0  0  0  0  0  0  0  0  0  0  0
   29.5805  -32.0727  -18.7677 C   0  0  0  0  0  0  0  0  0  0  0  0
   30.6737  -31.4069  -19.2789 C   0  0  0  0  0  0  0  0  0  0  0  0
   31.6657  -32.3195  -19.4446 N   0  0  0  0  0  0  0  0  0  0  0  0
   31.2186  -33.5167  -19.0538 C   0  0  0  0  0  0  0  0  0  0  0  0
   29.9517  -33.3442  -18.6469 N   0  0  0  0  0  0  0  0  0  0  0  0
   27.1938  -29.8996  -16.9829 C   0  0  0  0  0  0  0  0  0  0  0  0
   26.2304  -30.3818  -16.3457 O   0  0  0  0  0  0  0  0  0  0  0  0
   27.1222  -23.9029  -16.5176 N   0  0  0  0  0  0  0  0  0  0  0  0
   28.1025  -24.8808  -16.2353 C   0  0  0  0  0  0  0  0  0  0  0  0
   29.2040  -24.5467  -15.7402 O   0  0  0  0  0  0  0  0  0  0  0  0
   27.8355  -26.3395  -16.5264 C   0  0  0  0  0  0  0  0  0  0  0  0
   26.4305  -26.4556  -16.9749 C   0  0  0  0  0  0  0  0  0  0  0  0
   25.9154  -27.7932  -17.3466 C   0  0  2  0  0  0  0  0  0  0  0  0
   27.1138  -28.6303  -17.5608 N   0  0  0  0  0  0  0  0  0  0  0  0
   25.1717  -27.8592  -18.6124 C   0  0  0  0  0  0  0  0  0  0  0  0
   25.7446  -28.1777  -19.7186 O   0  0  0  0  0  0  0  0  0  0  0  0
   23.8006  -27.5823  -18.6627 N   0  0  0  0  0  0  0  0  0  0  0  0
   23.0128  -27.6116  -19.8935 C   0  0  1  0  0  0  0  0  0  0  0  0
   21.6461  -28.0927  -19.5634 C   0  0  0  0  0  0  0  0  0  0  0  0
   20.6690  -28.2306  -20.6630 C   0  0  0  0  0  0  0  0  0  0  0  0
   19.3182  -28.7302  -20.2256 C   0  0  0  0  0  0  0  0  0  0  0  0
   18.4648  -28.7675  -21.5133 C   0  0  0  0  0  0  0  0  0  0  0  0
   17.1784  -29.3168  -21.1929 N   0  0  0  0  0  0  0  0  0  0  0  0
   23.1325  -26.3527  -20.5982 C   0  0  0  0  0  0  0  0  0  0  0  0
   23.0949  -26.3508  -21.8698 O   0  0  0  0  0  0  0  0  0  0  0  0
   23.2895  -25.1298  -19.9846 O   0  0  0  0  0  0  0  0  0  0  0  0
  2  1  1  1
  2  9  1  0
  3  2  1  0
  3  4  1  0
  4  5  2  0
  5  6  1  0
  7  6  1  0
  8  4  1  0
  8  7  2  0
  9 17  1  0
  9 10  2  0
 11 12  1  0
 12 14  1  0
 13 12  2  0
 14 15  1  0
 16 15  1  6
 16 18  1  0
 17 16  1  0
 18 19  2  0
 20 21  1  0
 20 18  1  0
 21 22  1  1
 23 22  1  0
 24 25  1  0
 24 23  1  0
 26 25  1  0
 27 21  1  0
 27 29  1  0
 28 27  2  0
M  END
$$$$
