HQK.pdb
     RDKit          3D

 29 29  0  0  1  0  0  0  0  0999 V2000
   16.4544  -13.8546  -17.4302 N   0  0  0  0  0  0  0  0  0  0  0  0
   17.4945  -13.5616  -16.4668 C   0  0  1  0  0  0  0  0  0  0  0  0
   18.8282  -13.8929  -17.1523 C   0  0  0  0  0  0  0  0  0  0  0  0
   18.9350  -15.3423  -17.3061 C   0  0  0  0  0  0  0  0  0  0  0  0
   18.9444  -16.0245  -18.5037 C   0  0  0  0  0  0  0  0  0  0  0  0
   19.0573  -17.3473  -18.2182 N   0  0  0  0  0  0  0  0  0  0  0  0
   19.1172  -17.4976  -16.8916 C   0  0  0  0  0  0  0  0  0  0  0  0
   19.0413  -16.2689  -16.3579 N   0  0  0  0  0  0  0  0  0  0  0  0
   17.5130  -12.1081  -16.2214 C   0  0  0  0  0  0  0  0  0  0  0  0
   17.2063  -11.3347  -17.1564 O   0  0  0  0  0  0  0  0  0  0  0  0
   16.5073   -9.8539  -10.7897 N   0  0  0  0  0  0  0  0  0  0  0  0
   15.4793  -10.0678  -11.7354 C   0  0  0  0  0  0  0  0  0  0  0  0
   14.2938  -10.2155  -11.3575 O   0  0  0  0  0  0  0  0  0  0  0  0
   15.7960  -10.1212  -13.2122 C   0  0  0  0  0  0  0  0  0  0  0  0
   17.2632  -10.0027  -13.3590 C   0  0  0  0  0  0  0  0  0  0  0  0
   17.8537  -10.1597  -14.7079 C   0  0  2  0  0  0  0  0  0  0  0  0
   17.8683  -11.6147  -14.9637 N   0  0  0  0  0  0  0  0  0  0  0  0
   19.2537   -9.7337  -14.8429 C   0  0  0  0  0  0  0  0  0  0  0  0
   20.2311  -10.5250  -14.5749 O   0  0  0  0  0  0  0  0  0  0  0  0
   19.5801   -8.4437  -15.2774 N   0  0  0  0  0  0  0  0  0  0  0  0
   20.9519   -7.9705  -15.4515 C   0  0  1  0  0  0  0  0  0  0  0  0
   21.4132   -8.3608  -16.8091 C   0  0  0  0  0  0  0  0  0  0  0  0
   22.7612   -7.9350  -17.2387 C   0  0  0  0  0  0  0  0  0  0  0  0
   23.1125   -8.3357  -18.6464 C   0  0  0  0  0  0  0  0  0  0  0  0
   24.5336   -7.7767  -18.8828 C   0  0  0  0  0  0  0  0  0  0  0  0
   24.4402   -6.6509  -19.7677 N   0  0  0  0  0  0  0  0  0  0  0  0
   21.0543   -6.5750  -15.0801 C   0  0  0  0  0  0  0  0  0  0  0  0
   22.1017   -6.1704  -14.4821 O   0  0  0  0  0  0  0  0  0  0  0  0
   20.0826   -5.6310  -15.3277 O   0  0  0  0  0  0  0  0  0  0  0  0
  2  1  1  6
  2  9  1  0
  3  2  1  0
  3  4  1  0
  4  5  2  0
  5  6  1  0
  7  6  1  0
  8  4  1  0
  8  7  2  0
  9 17  1  0
  9 10  2  0
 11 12  1  0
 12 14  1  0
 13 12  2  0
 14 15  1  0
 16 15  1  1
 16 18  1  0
 17 16  1  0
 18 19  2  0
 20 21  1  0
 20 18  1  0
 21 22  1  6
 23 22  1  0
 24 25  1  0
 24 23  1  0
 26 25  1  0
 27 21  1  0
 27 29  1  0
 28 27  2  0
M  END
$$$$
