HQK.pdb
     RDKit          3D

 29 29  0  0  1  0  0  0  0  0999 V2000
   23.2014  -20.8593  -16.5437 N   0  0  0  0  0  0  0  0  0  0  0  0
   23.9666  -20.2770  -15.4614 C   0  0  1  0  0  0  0  0  0  0  0  0
   24.3605  -18.8647  -15.9180 C   0  0  0  0  0  0  0  0  0  0  0  0
   25.1052  -18.9622  -17.1717 C   0  0  0  0  0  0  0  0  0  0  0  0
   26.3498  -19.5343  -17.3242 C   0  0  0  0  0  0  0  0  0  0  0  0
   26.6911  -19.4242  -18.6340 N   0  0  0  0  0  0  0  0  0  0  0  0
   25.7015  -18.8065  -19.2861 C   0  0  0  0  0  0  0  0  0  0  0  0
   24.7496  -18.5351  -18.3801 N   0  0  0  0  0  0  0  0  0  0  0  0
   23.0767  -20.0959  -14.3001 C   0  0  0  0  0  0  0  0  0  0  0  0
   23.5160  -19.5002  -13.2908 O   0  0  0  0  0  0  0  0  0  0  0  0
   18.4610  -17.4882  -14.5184 N   0  0  0  0  0  0  0  0  0  0  0  0
   18.3950  -17.6094  -13.1120 C   0  0  0  0  0  0  0  0  0  0  0  0
   17.4717  -17.0537  -12.4726 O   0  0  0  0  0  0  0  0  0  0  0  0
   19.4351  -18.4095  -12.3624 C   0  0  0  0  0  0  0  0  0  0  0  0
   20.3850  -18.9516  -13.3586 C   0  0  0  0  0  0  0  0  0  0  0  0
   20.8564  -20.3464  -13.1998 C   0  0  2  0  0  0  0  0  0  0  0  0
   21.7686  -20.5848  -14.3372 N   0  0  0  0  0  0  0  0  0  0  0  0
   19.8223  -21.3842  -13.3150 C   0  0  0  0  0  0  0  0  0  0  0  0
   19.5149  -21.9112  -14.4468 O   0  0  0  0  0  0  0  0  0  0  0  0
   19.1316  -21.8472  -12.1890 N   0  0  0  0  0  0  0  0  0  0  0  0
   18.0419  -22.8193  -12.2502 C   0  0  1  0  0  0  0  0  0  0  0  0
   17.6730  -23.1974  -10.8613 C   0  0  0  0  0  0  0  0  0  0  0  0
   18.6619  -23.9403  -10.0530 C   0  0  0  0  0  0  0  0  0  0  0  0
   18.2503  -24.1518   -8.6207 C   0  0  0  0  0  0  0  0  0  0  0  0
   19.4545  -24.8538   -7.9537 C   0  0  0  0  0  0  0  0  0  0  0  0
   19.2327  -24.8932   -6.5365 N   0  0  0  0  0  0  0  0  0  0  0  0
   16.9887  -22.3411  -13.1208 C   0  0  0  0  0  0  0  0  0  0  0  0
   16.7051  -21.1009  -13.1235 O   0  0  0  0  0  0  0  0  0  0  0  0
   16.2520  -23.1433  -13.9637 O   0  0  0  0  0  0  0  0  0  0  0  0
  2  1  1  6
  2  9  1  0
  3  2  1  0
  3  4  1  0
  4  5  2  0
  5  6  1  0
  7  6  1  0
  8  4  1  0
  8  7  2  0
  9 17  1  0
  9 10  2  0
 11 12  1  0
 12 14  1  0
 13 12  2  0
 14 15  1  0
 16 15  1  6
 16 18  1  0
 17 16  1  0
 18 19  2  0
 20 21  1  0
 20 18  1  0
 21 22  1  1
 23 22  1  0
 24 25  1  0
 24 23  1  0
 26 25  1  0
 27 21  1  0
 27 29  1  0
 28 27  2  0
M  END
$$$$
