HQK.pdb
     RDKit          3D

 29 29  0  0  1  0  0  0  0  0999 V2000
   18.1941  -15.2936  -17.9100 N   0  0  0  0  0  0  0  0  0  0  0  0
   18.7147  -14.5243  -16.7996 C   0  0  1  0  0  0  0  0  0  0  0  0
   20.2451  -14.6202  -16.8837 C   0  0  0  0  0  0  0  0  0  0  0  0
   20.6602  -15.9567  -16.4627 C   0  0  0  0  0  0  0  0  0  0  0  0
   20.8437  -17.0401  -17.2947 C   0  0  0  0  0  0  0  0  0  0  0  0
   21.2271  -18.0880  -16.5207 N   0  0  0  0  0  0  0  0  0  0  0  0
   21.2843  -17.6845  -15.2479 C   0  0  0  0  0  0  0  0  0  0  0  0
   20.9366  -16.3886  -15.2355 N   0  0  0  0  0  0  0  0  0  0  0  0
   18.3835  -13.1040  -17.0145 C   0  0  0  0  0  0  0  0  0  0  0  0
   18.2925  -12.6768  -18.1874 O   0  0  0  0  0  0  0  0  0  0  0  0
   14.9334  -11.0048  -13.1008 N   0  0  0  0  0  0  0  0  0  0  0  0
   14.4441  -11.5210  -14.3219 C   0  0  0  0  0  0  0  0  0  0  0  0
   13.3096  -12.0502  -14.3747 O   0  0  0  0  0  0  0  0  0  0  0  0
   15.2815  -11.4416  -15.5774 C   0  0  0  0  0  0  0  0  0  0  0  0
   16.5296  -10.7241  -15.2373 C   0  0  0  0  0  0  0  0  0  0  0  0
   17.6995  -10.8777  -16.1320 C   0  0  2  0  0  0  0  0  0  0  0  0
   18.1770  -12.2597  -15.9209 N   0  0  0  0  0  0  0  0  0  0  0  0
   18.8539  -10.0227  -15.8219 C   0  0  0  0  0  0  0  0  0  0  0  0
   19.8193  -10.4322  -15.0777 O   0  0  0  0  0  0  0  0  0  0  0  0
   18.9515   -8.7233  -16.3330 N   0  0  0  0  0  0  0  0  0  0  0  0
   20.0441   -7.8069  -16.0128 C   0  0  1  0  0  0  0  0  0  0  0  0
   20.1003   -6.7593  -17.0652 C   0  0  0  0  0  0  0  0  0  0  0  0
   21.1222   -5.6992  -16.9426 C   0  0  0  0  0  0  0  0  0  0  0  0
   21.1712   -4.7546  -18.1135 C   0  0  0  0  0  0  0  0  0  0  0  0
   22.2822   -3.7382  -17.7664 C   0  0  0  0  0  0  0  0  0  0  0  0
   22.5524   -2.9421  -18.9293 N   0  0  0  0  0  0  0  0  0  0  0  0
   19.9504   -7.3735  -14.6346 C   0  0  0  0  0  0  0  0  0  0  0  0
   18.8013   -7.1703  -14.1280 O   0  0  0  0  0  0  0  0  0  0  0  0
   21.0335   -7.1571  -13.8120 O   0  0  0  0  0  0  0  0  0  0  0  0
  2  1  1  6
  2  9  1  0
  3  2  1  0
  3  4  1  0
  4  5  2  0
  5  6  1  0
  7  6  1  0
  8  4  1  0
  8  7  2  0
  9 17  1  0
  9 10  2  0
 11 12  1  0
 12 14  1  0
 13 12  2  0
 14 15  1  0
 16 15  1  1
 16 18  1  0
 17 16  1  0
 18 19  2  0
 20 21  1  0
 20 18  1  0
 21 22  1  6
 23 22  1  0
 24 25  1  0
 24 23  1  0
 26 25  1  0
 27 21  1  0
 27 29  1  0
 28 27  2  0
M  END
$$$$
