HQK.pdb
     RDKit          3D

 29 29  0  0  1  0  0  0  0  0999 V2000
   28.3662  -21.3133  -15.6678 N   0  0  0  0  0  0  0  0  0  0  0  0
   27.4851  -20.3125  -15.1040 C   0  0  1  0  0  0  0  0  0  0  0  0
   26.9088  -19.5234  -16.2887 C   0  0  0  0  0  0  0  0  0  0  0  0
   27.9689  -18.7054  -16.8740 C   0  0  0  0  0  0  0  0  0  0  0  0
   28.5291  -18.8878  -18.1200 C   0  0  0  0  0  0  0  0  0  0  0  0
   29.4736  -17.9265  -18.2869 N   0  0  0  0  0  0  0  0  0  0  0  0
   29.5105  -17.1645  -17.1897 C   0  0  0  0  0  0  0  0  0  0  0  0
   28.5898  -17.6545  -16.3455 N   0  0  0  0  0  0  0  0  0  0  0  0
   26.3401  -20.9947  -14.4739 C   0  0  0  0  0  0  0  0  0  0  0  0
   25.9550  -22.0878  -14.9462 O   0  0  0  0  0  0  0  0  0  0  0  0
   25.2942  -20.4745   -8.5739 N   0  0  0  0  0  0  0  0  0  0  0  0
   26.3755  -21.1248   -9.2102 C   0  0  0  0  0  0  0  0  0  0  0  0
   27.4042  -21.4234   -8.5601 O   0  0  0  0  0  0  0  0  0  0  0  0
   26.3051  -21.4678  -10.6803 C   0  0  0  0  0  0  0  0  0  0  0  0
   25.0066  -20.9772  -11.1918 C   0  0  0  0  0  0  0  0  0  0  0  0
   24.6855  -21.1866  -12.6222 C   0  0  2  0  0  0  0  0  0  0  0  0
   25.7045  -20.4215  -13.3698 N   0  0  0  0  0  0  0  0  0  0  0  0
   23.3953  -20.6444  -13.0704 C   0  0  0  0  0  0  0  0  0  0  0  0
   23.2541  -19.4060  -13.3863 O   0  0  0  0  0  0  0  0  0  0  0  0
   22.2638  -21.4614  -13.1778 N   0  0  0  0  0  0  0  0  0  0  0  0
   20.9573  -20.9813  -13.6237 C   0  0  1  0  0  0  0  0  0  0  0  0
   20.4014  -21.9649  -14.5890 C   0  0  0  0  0  0  0  0  0  0  0  0
   19.0498  -21.7222  -15.1341 C   0  0  0  0  0  0  0  0  0  0  0  0
   18.6021  -22.7443  -16.1444 C   0  0  0  0  0  0  0  0  0  0  0  0
   17.1936  -22.2866  -16.5852 C   0  0  0  0  0  0  0  0  0  0  0  0
   16.6991  -23.2106  -17.5654 N   0  0  0  0  0  0  0  0  0  0  0  0
   20.1394  -20.6170  -12.4862 C   0  0  0  0  0  0  0  0  0  0  0  0
   20.2989  -21.2374  -11.3870 O   0  0  0  0  0  0  0  0  0  0  0  0
   19.1790  -19.6302  -12.5029 O   0  0  0  0  0  0  0  0  0  0  0  0
  2  1  1  6
  2  9  1  0
  3  2  1  0
  3  4  1  0
  4  5  2  0
  5  6  1  0
  7  6  1  0
  8  4  1  0
  8  7  2  0
  9 17  1  0
  9 10  2  0
 11 12  1  0
 12 14  1  0
 13 12  2  0
 14 15  1  0
 16 15  1  1
 16 18  1  0
 17 16  1  0
 18 19  2  0
 20 21  1  0
 20 18  1  0
 21 22  1  1
 23 22  1  0
 24 25  1  0
 24 23  1  0
 26 25  1  0
 27 21  1  0
 27 29  1  0
 28 27  2  0
M  END
$$$$
