HQK.pdb
     RDKit          3D

 29 29  0  0  1  0  0  0  0  0999 V2000
   21.3840  -21.6464  -18.2810 N   0  0  0  0  0  0  0  0  0  0  0  0
   20.1999  -21.2730  -17.5363 C   0  0  1  0  0  0  0  0  0  0  0  0
   19.0916  -22.2457  -17.9654 C   0  0  0  0  0  0  0  0  0  0  0  0
   18.6297  -21.8780  -19.3022 C   0  0  0  0  0  0  0  0  0  0  0  0
   18.7462  -22.6553  -20.4344 C   0  0  0  0  0  0  0  0  0  0  0  0
   18.1982  -21.9601  -21.4642 N   0  0  0  0  0  0  0  0  0  0  0  0
   17.7519  -20.7880  -21.0028 C   0  0  0  0  0  0  0  0  0  0  0  0
   18.0237  -20.7590  -19.6892 N   0  0  0  0  0  0  0  0  0  0  0  0
   20.4410  -21.5362  -16.1060 C   0  0  0  0  0  0  0  0  0  0  0  0
   21.2269  -22.4563  -15.7861 O   0  0  0  0  0  0  0  0  0  0  0  0
   22.9589  -20.3635  -12.4269 N   0  0  0  0  0  0  0  0  0  0  0  0
   22.0823  -19.8716  -11.4336 C   0  0  0  0  0  0  0  0  0  0  0  0
   22.4178  -19.8961  -10.2266 O   0  0  0  0  0  0  0  0  0  0  0  0
   20.7314  -19.3109  -11.8137 C   0  0  0  0  0  0  0  0  0  0  0  0
   20.5403  -19.5487  -13.2613 C   0  0  0  0  0  0  0  0  0  0  0  0
   20.1679  -20.9095  -13.7110 C   0  0  2  0  0  0  0  0  0  0  0  0
   19.7980  -20.7657  -15.1340 N   0  0  0  0  0  0  0  0  0  0  0  0
   18.9830  -21.4909  -13.0648 C   0  0  0  0  0  0  0  0  0  0  0  0
   17.7932  -21.0965  -13.3515 O   0  0  0  0  0  0  0  0  0  0  0  0
   19.1035  -22.5078  -12.1104 N   0  0  0  0  0  0  0  0  0  0  0  0
   17.9984  -22.9655  -11.2705 C   0  0  1  0  0  0  0  0  0  0  0  0
   18.5671  -23.6453  -10.0778 C   0  0  0  0  0  0  0  0  0  0  0  0
   17.6340  -24.2732   -9.1197 C   0  0  0  0  0  0  0  0  0  0  0  0
   18.2996  -24.8353   -7.8922 C   0  0  0  0  0  0  0  0  0  0  0  0
   17.1407  -25.2858   -6.9747 C   0  0  0  0  0  0  0  0  0  0  0  0
   17.6977  -25.8342   -5.7713 N   0  0  0  0  0  0  0  0  0  0  0  0
   17.0560  -21.8894  -11.0476 C   0  0  0  0  0  0  0  0  0  0  0  0
   17.4975  -20.7318  -10.7587 O   0  0  0  0  0  0  0  0  0  0  0  0
   15.6877  -22.0256  -11.1237 O   0  0  0  0  0  0  0  0  0  0  0  0
  2  1  1  6
  2  9  1  0
  3  2  1  0
  3  4  1  0
  4  5  2  0
  5  6  1  0
  7  6  1  0
  8  4  1  0
  8  7  2  0
  9 17  1  0
  9 10  2  0
 11 12  1  0
 12 14  1  0
 13 12  2  0
 14 15  1  0
 16 15  1  1
 16 18  1  0
 17 16  1  0
 18 19  2  0
 20 21  1  0
 20 18  1  0
 21 22  1  1
 23 22  1  0
 24 25  1  0
 24 23  1  0
 26 25  1  0
 27 21  1  0
 27 29  1  0
 28 27  2  0
M  END
$$$$
