HQK.pdb
     RDKit          3D

 29 29  0  0  1  0  0  0  0  0999 V2000
   23.2752  -16.0121  -17.2712 N   0  0  0  0  0  0  0  0  0  0  0  0
   23.3103  -14.9925  -16.2440 C   0  0  1  0  0  0  0  0  0  0  0  0
   24.7304  -14.4081  -16.2595 C   0  0  0  0  0  0  0  0  0  0  0  0
   25.6653  -15.4215  -15.7750 C   0  0  0  0  0  0  0  0  0  0  0  0
   25.3411  -16.7181  -15.4385 C   0  0  0  0  0  0  0  0  0  0  0  0
   26.4837  -17.3328  -15.0374 N   0  0  0  0  0  0  0  0  0  0  0  0
   27.4925  -16.4599  -15.1166 C   0  0  0  0  0  0  0  0  0  0  0  0
   26.9739  -15.3069  -15.5662 N   0  0  0  0  0  0  0  0  0  0  0  0
   22.4132  -13.8924  -16.6418 C   0  0  0  0  0  0  0  0  0  0  0  0
   22.3097  -13.6078  -17.8562 O   0  0  0  0  0  0  0  0  0  0  0  0
   19.1986  -15.2026  -14.8660 N   0  0  0  0  0  0  0  0  0  0  0  0
   18.2917  -14.6612  -15.8048 C   0  0  0  0  0  0  0  0  0  0  0  0
   17.4280  -15.3921  -16.3430 O   0  0  0  0  0  0  0  0  0  0  0  0
   18.3520  -13.1962  -16.1711 C   0  0  0  0  0  0  0  0  0  0  0  0
   19.4407  -12.5823  -15.3798 C   0  0  0  0  0  0  0  0  0  0  0  0
   20.6862  -12.1887  -16.0774 C   0  0  2  0  0  0  0  0  0  0  0  0
   21.6964  -13.1876  -15.6718 N   0  0  0  0  0  0  0  0  0  0  0  0
   21.2525  -10.8909  -15.6842 C   0  0  0  0  0  0  0  0  0  0  0  0
   22.0124  -10.7677  -14.6543 O   0  0  0  0  0  0  0  0  0  0  0  0
   20.9904   -9.7318  -16.4239 N   0  0  0  0  0  0  0  0  0  0  0  0
   21.5576   -8.4227  -16.1064 C   0  0  1  0  0  0  0  0  0  0  0  0
   21.4475   -7.5599  -17.3113 C   0  0  0  0  0  0  0  0  0  0  0  0
   21.9002   -6.1571  -17.2104 C   0  0  0  0  0  0  0  0  0  0  0  0
   21.6138   -5.3296  -18.4347 C   0  0  0  0  0  0  0  0  0  0  0  0
   22.1862   -3.9294  -18.1188 C   0  0  0  0  0  0  0  0  0  0  0  0
   22.0220   -3.0971  -19.2761 N   0  0  0  0  0  0  0  0  0  0  0  0
   21.0048   -7.9217  -14.8658 C   0  0  0  0  0  0  0  0  0  0  0  0
   19.8177   -8.2460  -14.5432 O   0  0  0  0  0  0  0  0  0  0  0  0
   21.6790   -7.1008  -13.9893 O   0  0  0  0  0  0  0  0  0  0  0  0
  2  1  1  6
  2  9  1  0
  3  2  1  0
  3  4  1  0
  4  5  2  0
  5  6  1  0
  7  6  1  0
  8  4  1  0
  8  7  2  0
  9 17  1  0
  9 10  2  0
 11 12  1  0
 12 14  1  0
 13 12  2  0
 14 15  1  0
 16 15  1  1
 16 18  1  0
 17 16  1  0
 18 19  2  0
 20 21  1  0
 20 18  1  0
 21 22  1  6
 23 22  1  0
 24 25  1  0
 24 23  1  0
 26 25  1  0
 27 21  1  0
 27 29  1  0
 28 27  2  0
M  END
$$$$
