LHQ.pdb
     RDKit          3D

 28 28  0  0  1  0  0  0  0  0999 V2000
   14.8367   -5.7833   -7.4541 C   0  0  0  0  0  0  0  0  0  0  0  0
   14.4263   -6.6759   -8.6037 C   0  0  1  0  0  0  0  0  0  0  0  0
   13.6019   -5.8661   -9.5508 C   0  0  0  0  0  0  0  0  0  0  0  0
   15.6579   -7.2723   -9.2168 C   0  0  0  0  0  0  0  0  0  0  0  0
   15.2712   -8.1972  -10.3739 C   0  0  2  0  0  0  0  0  0  0  0  0
   14.6712   -9.4066   -9.9091 N   0  0  0  0  0  0  0  0  0  0  0  0
   16.4124   -8.4154  -11.2814 C   0  0  0  0  0  0  0  0  0  0  0  0
   17.3703   -9.1330  -10.8942 O   0  0  0  0  0  0  0  0  0  0  0  0
   16.4626   -7.8344  -12.5909 N   0  0  0  0  0  0  0  0  0  0  0  0
   17.5722   -8.0225  -13.4746 C   0  0  1  0  0  0  0  0  0  0  0  0
   17.1261   -8.5095  -14.8347 C   0  0  0  0  0  0  0  0  0  0  0  0
   16.7064   -9.9310  -14.7432 C   0  0  0  0  0  0  0  0  0  0  0  0
   17.5750  -11.0190  -14.6870 C   0  0  0  0  0  0  0  0  0  0  0  0
   16.8358  -12.1259  -14.6119 N   0  0  0  0  0  0  0  0  0  0  0  0
   15.5393  -11.8029  -14.6173 C   0  0  0  0  0  0  0  0  0  0  0  0
   15.4803  -10.4604  -14.6978 N   0  0  0  0  0  0  0  0  0  0  0  0
   18.4047   -6.8196  -13.5455 C   0  0  0  0  0  0  0  0  0  0  0  0
   17.8810   -5.7123  -13.2119 O   0  0  0  0  0  0  0  0  0  0  0  0
   24.4596   -6.0476  -15.3066 N   0  0  0  0  0  0  0  0  0  0  0  0
   24.0582   -4.7269  -15.0414 C   0  0  0  0  0  0  0  0  0  0  0  0
   24.8593   -3.7945  -15.1743 O   0  0  0  0  0  0  0  0  0  0  0  0
   22.6407   -4.4685  -14.5943 C   0  0  0  0  0  0  0  0  0  0  0  0
   21.8640   -5.7520  -14.5427 C   0  0  0  0  0  0  0  0  0  0  0  0
   20.4776   -5.5244  -14.0652 C   0  0  2  0  0  0  0  0  0  0  0  0
   19.7455   -6.7927  -13.9557 N   0  0  0  0  0  0  0  0  0  0  0  0
   19.7472   -4.5712  -14.8954 C   0  0  0  0  0  0  0  0  0  0  0  0
   19.1378   -4.8722  -16.0885 O   0  0  0  0  0  0  0  0  0  0  0  0
   19.6602   -3.3670  -14.5035 O   0  0  0  0  0  0  0  0  0  0  0  0
  2  1  1  1
  2  3  1  0
  4  5  1  0
  4  2  1  0
  5  6  1  1
  7  8  2  0
  7  5  1  0
  9  7  1  0
 10  9  1  0
 11 12  1  0
 10 11  1  6
 12 13  2  0
 12 16  1  0
 13 14  1  0
 14 15  1  0
 16 15  2  0
 17 18  2  0
 17 10  1  0
 19 20  1  0
 20 22  1  0
 21 20  2  0
 22 23  1  0
 24 23  1  6
 24 25  1  0
 25 17  1  0
 26 24  1  0
 27 26  1  0
 28 26  2  0
M  END
$$$$
