LHQ.pdb
     RDKit          3D

 28 28  0  0  1  0  0  0  0  0999 V2000
   28.2371  -18.7179   -7.1379 C   0  0  0  0  0  0  0  0  0  0  0  0
   27.6346  -19.9680   -7.7388 C   0  0  1  0  0  0  0  0  0  0  0  0
   27.0154  -20.7631   -6.6357 C   0  0  0  0  0  0  0  0  0  0  0  0
   26.6770  -19.5711   -8.8223 C   0  0  0  0  0  0  0  0  0  0  0  0
   26.2169  -20.8108   -9.5940 C   0  0  2  0  0  0  0  0  0  0  0  0
   27.2336  -21.8119   -9.6451 N   0  0  0  0  0  0  0  0  0  0  0  0
   25.6842  -20.4424  -10.9183 C   0  0  0  0  0  0  0  0  0  0  0  0
   24.9028  -19.4606  -11.0093 O   0  0  0  0  0  0  0  0  0  0  0  0
   26.0299  -21.1693  -12.1045 N   0  0  0  0  0  0  0  0  0  0  0  0
   25.5851  -20.7751  -13.4061 C   0  0  1  0  0  0  0  0  0  0  0  0
   26.5538  -21.2099  -14.4824 C   0  0  0  0  0  0  0  0  0  0  0  0
   27.2397  -20.0201  -15.0472 C   0  0  0  0  0  0  0  0  0  0  0  0
   26.9952  -18.7017  -14.6688 C   0  0  0  0  0  0  0  0  0  0  0  0
   27.7954  -17.9165  -15.3903 N   0  0  0  0  0  0  0  0  0  0  0  0
   28.5394  -18.6638  -16.2108 C   0  0  0  0  0  0  0  0  0  0  0  0
   28.1864  -19.9436  -15.9872 N   0  0  0  0  0  0  0  0  0  0  0  0
   24.2144  -21.2256  -13.6581 C   0  0  0  0  0  0  0  0  0  0  0  0
   23.9390  -22.4456  -13.4404 O   0  0  0  0  0  0  0  0  0  0  0  0
   18.8544  -18.8441  -12.3654 N   0  0  0  0  0  0  0  0  0  0  0  0
   19.8707  -19.4083  -11.5751 C   0  0  0  0  0  0  0  0  0  0  0  0
   19.8602  -19.2582  -10.3479 O   0  0  0  0  0  0  0  0  0  0  0  0
   20.9683  -20.1956  -12.2470 C   0  0  0  0  0  0  0  0  0  0  0  0
   20.7820  -20.1908  -13.7364 C   0  0  0  0  0  0  0  0  0  0  0  0
   21.8468  -20.9701  -14.4154 C   0  0  2  0  0  0  0  0  0  0  0  0
   23.1730  -20.4104  -14.1246 N   0  0  0  0  0  0  0  0  0  0  0  0
   21.6315  -21.0790  -15.8552 C   0  0  0  0  0  0  0  0  0  0  0  0
   20.7914  -21.9817  -16.4592 O   0  0  0  0  0  0  0  0  0  0  0  0
   22.2620  -20.2903  -16.6245 O   0  0  0  0  0  0  0  0  0  0  0  0
  2  1  1  1
  2  3  1  0
  4  5  1  0
  4  2  1  0
  5  6  1  6
  7  8  2  0
  7  5  1  0
  9  7  1  0
 10  9  1  0
 11 12  1  0
 10 11  1  6
 12 13  2  0
 12 16  1  0
 13 14  1  0
 14 15  1  0
 16 15  2  0
 17 18  2  0
 17 10  1  0
 19 20  1  0
 20 22  1  0
 21 20  2  0
 22 23  1  0
 24 23  1  6
 24 25  1  0
 25 17  1  0
 26 24  1  0
 27 26  1  0
 28 26  2  0
M  END
$$$$
