LHQ.pdb
     RDKit          3D

 28 28  0  0  1  0  0  0  0  0999 V2000
   19.0087  -14.4676  -20.8424 C   0  0  0  0  0  0  0  0  0  0  0  0
   20.0490  -13.4690  -20.3871 C   0  0  1  0  0  0  0  0  0  0  0  0
   20.5828  -12.7693  -21.5945 C   0  0  0  0  0  0  0  0  0  0  0  0
   19.4312  -12.5558  -19.3709 C   0  0  0  0  0  0  0  0  0  0  0  0
   20.4571  -11.5183  -18.9073 C   0  0  2  0  0  0  0  0  0  0  0  0
   21.6781  -12.1291  -18.4893 N   0  0  0  0  0  0  0  0  0  0  0  0
   19.8757  -10.6120  -17.9004 C   0  0  0  0  0  0  0  0  0  0  0  0
   18.8044  -10.0096  -18.1691 O   0  0  0  0  0  0  0  0  0  0  0  0
   20.4944  -10.3970  -16.6253 N   0  0  0  0  0  0  0  0  0  0  0  0
   19.9607   -9.4926  -15.6533 C   0  0  1  0  0  0  0  0  0  0  0  0
   19.5677  -10.2089  -14.3811 C   0  0  0  0  0  0  0  0  0  0  0  0
   18.2774  -10.9155  -14.5841 C   0  0  0  0  0  0  0  0  0  0  0  0
   18.1452  -12.2743  -14.8623 C   0  0  0  0  0  0  0  0  0  0  0  0
   16.8442  -12.5408  -14.9786 N   0  0  0  0  0  0  0  0  0  0  0  0
   16.1368  -11.4232  -14.7893 C   0  0  0  0  0  0  0  0  0  0  0  0
   17.0280  -10.4429  -14.5500 N   0  0  0  0  0  0  0  0  0  0  0  0
   20.8707   -8.3696  -15.4165 C   0  0  0  0  0  0  0  0  0  0  0  0
   22.1100   -8.6208  -15.3040 O   0  0  0  0  0  0  0  0  0  0  0  0
   20.5381   -2.4383  -17.1841 N   0  0  0  0  0  0  0  0  0  0  0  0
   21.7360   -2.4280  -16.4488 C   0  0  0  0  0  0  0  0  0  0  0  0
   22.4527   -1.4206  -16.4410 O   0  0  0  0  0  0  0  0  0  0  0  0
   22.1296   -3.6610  -15.6737 C   0  0  0  0  0  0  0  0  0  0  0  0
   21.1360   -4.7632  -15.9000 C   0  0  0  0  0  0  0  0  0  0  0  0
   21.4721   -5.9653  -15.0974 C   0  0  2  0  0  0  0  0  0  0  0  0
   20.4794   -7.0278  -15.3030 N   0  0  0  0  0  0  0  0  0  0  0  0
   21.6289   -5.6664  -13.6771 C   0  0  0  0  0  0  0  0  0  0  0  0
   22.7283   -5.0645  -13.1164 O   0  0  0  0  0  0  0  0  0  0  0  0
   20.6900   -5.9821  -12.8832 O   0  0  0  0  0  0  0  0  0  0  0  0
  2  1  1  6
  2  3  1  0
  4  5  1  0
  4  2  1  0
  5  6  1  1
  7  8  2  0
  7  5  1  0
  9  7  1  0
 10  9  1  0
 11 12  1  0
 10 11  1  1
 12 13  2  0
 12 16  1  0
 13 14  1  0
 14 15  1  0
 16 15  2  0
 17 18  2  0
 17 10  1  0
 19 20  1  0
 20 22  1  0
 21 20  2  0
 22 23  1  0
 24 23  1  6
 24 25  1  0
 25 17  1  0
 26 24  1  0
 27 26  1  0
 28 26  2  0
M  END
$$$$
