LHQ.pdb
     RDKit          3D

 28 28  0  0  1  0  0  0  0  0999 V2000
    7.5117  -16.8091  -12.3099 C   0  0  0  0  0  0  0  0  0  0  0  0
    7.9009  -16.2391  -10.9644 C   0  0  1  0  0  0  0  0  0  0  0  0
    6.6898  -15.6089  -10.3576 C   0  0  0  0  0  0  0  0  0  0  0  0
    8.5072  -17.3303  -10.1337 C   0  0  0  0  0  0  0  0  0  0  0  0
    8.9869  -16.7636   -8.7948 C   0  0  2  0  0  0  0  0  0  0  0  0
   10.0594  -15.8365   -8.9645 N   0  0  0  0  0  0  0  0  0  0  0  0
    9.2874  -17.8453   -7.8393 C   0  0  0  0  0  0  0  0  0  0  0  0
    8.9274  -19.0189   -8.1144 O   0  0  0  0  0  0  0  0  0  0  0  0
    9.9771  -17.5994   -6.6069 N   0  0  0  0  0  0  0  0  0  0  0  0
   10.3511  -18.6506   -5.7110 C   0  0  1  0  0  0  0  0  0  0  0  0
   11.6659  -18.3575   -5.0245 C   0  0  0  0  0  0  0  0  0  0  0  0
   12.7901  -18.7862   -5.8948 C   0  0  0  0  0  0  0  0  0  0  0  0
   12.6520  -19.4743   -7.0985 C   0  0  0  0  0  0  0  0  0  0  0  0
   13.8735  -19.6841   -7.5894 N   0  0  0  0  0  0  0  0  0  0  0  0
   14.7864  -19.1661   -6.7626 C   0  0  0  0  0  0  0  0  0  0  0  0
   14.1067  -18.6230   -5.7352 N   0  0  0  0  0  0  0  0  0  0  0  0
    9.2719  -18.9541   -4.7683 C   0  0  0  0  0  0  0  0  0  0  0  0
    8.3199  -18.1207   -4.6645 O   0  0  0  0  0  0  0  0  0  0  0  0
    5.1299  -18.3328   -3.8669 N   0  0  0  0  0  0  0  0  0  0  0  0
    4.6943  -19.4879   -3.1946 C   0  0  0  0  0  0  0  0  0  0  0  0
    3.6127  -19.4887   -2.5957 O   0  0  0  0  0  0  0  0  0  0  0  0
    5.5652  -20.7197   -3.2165 C   0  0  0  0  0  0  0  0  0  0  0  0
    6.8027  -20.4736   -4.0297 C   0  0  0  0  0  0  0  0  0  0  0  0
    8.0081  -20.3979   -3.1675 C   0  0  2  0  0  0  0  0  0  0  0  0
    9.2054  -20.1012   -3.9644 N   0  0  0  0  0  0  0  0  0  0  0  0
    8.2014  -21.6023   -2.3654 C   0  0  0  0  0  0  0  0  0  0  0  0
    9.0561  -22.6294   -2.6815 O   0  0  0  0  0  0  0  0  0  0  0  0
    7.5355  -21.7300   -1.2922 O   0  0  0  0  0  0  0  0  0  0  0  0
  2  1  1  6
  2  3  1  0
  4  5  1  0
  4  2  1  0
  5  6  1  6
  7  8  2  0
  7  5  1  0
  9  7  1  0
 10  9  1  0
 11 12  1  0
 10 11  1  1
 12 13  2  0
 12 16  1  0
 13 14  1  0
 14 15  1  0
 16 15  2  0
 17 18  2  0
 17 10  1  0
 19 20  1  0
 20 22  1  0
 21 20  2  0
 22 23  1  0
 24 23  1  6
 24 25  1  0
 25 17  1  0
 26 24  1  0
 27 26  1  0
 28 26  2  0
M  END
$$$$
