LHQ.pdb
     RDKit          3D

 28 28  0  0  1  0  0  0  0  0999 V2000
   30.0714  -21.4971  -10.5577 C   0  0  0  0  0  0  0  0  0  0  0  0
   28.5706  -21.6572  -10.6523 C   0  0  1  0  0  0  0  0  0  0  0  0
   28.0111  -21.6293   -9.2672 C   0  0  0  0  0  0  0  0  0  0  0  0
   28.0263  -20.5918  -11.5562 C   0  0  0  0  0  0  0  0  0  0  0  0
   26.5326  -20.8240  -11.7986 C   0  0  2  0  0  0  0  0  0  0  0  0
   26.1509  -22.1694  -11.5107 N   0  0  0  0  0  0  0  0  0  0  0  0
   26.1387  -20.3743  -13.1462 C   0  0  0  0  0  0  0  0  0  0  0  0
   26.1546  -19.1436  -13.4067 O   0  0  0  0  0  0  0  0  0  0  0  0
   25.7384  -21.2971  -14.1674 N   0  0  0  0  0  0  0  0  0  0  0  0
   25.3011  -20.8711  -15.4616 C   0  0  1  0  0  0  0  0  0  0  0  0
   25.7228  -21.8422  -16.5409 C   0  0  0  0  0  0  0  0  0  0  0  0
   25.4534  -21.2521  -17.8767 C   0  0  0  0  0  0  0  0  0  0  0  0
   25.0309  -19.9438  -18.1023 C   0  0  0  0  0  0  0  0  0  0  0  0
   24.8952  -19.7815  -19.4185 N   0  0  0  0  0  0  0  0  0  0  0  0
   25.2090  -20.9180  -20.0472 C   0  0  0  0  0  0  0  0  0  0  0  0
   25.5468  -21.8030  -19.0906 N   0  0  0  0  0  0  0  0  0  0  0  0
   23.8623  -20.5973  -15.4727 C   0  0  0  0  0  0  0  0  0  0  0  0
   23.3548  -20.1215  -16.5347 O   0  0  0  0  0  0  0  0  0  0  0  0
   21.8569  -20.0163  -10.5942 N   0  0  0  0  0  0  0  0  0  0  0  0
   20.9353  -21.0100  -10.9671 C   0  0  0  0  0  0  0  0  0  0  0  0
   20.5604  -21.8519  -10.1429 O   0  0  0  0  0  0  0  0  0  0  0  0
   20.4147  -21.0311  -12.3830 C   0  0  0  0  0  0  0  0  0  0  0  0
   21.0634  -19.9498  -13.1973 C   0  0  0  0  0  0  0  0  0  0  0  0
   21.5682  -20.4771  -14.4893 C   0  0  2  0  0  0  0  0  0  0  0  0
   22.9930  -20.8204  -14.3951 N   0  0  0  0  0  0  0  0  0  0  0  0
   21.3246  -19.5642  -15.6021 C   0  0  0  0  0  0  0  0  0  0  0  0
   22.2983  -19.0324  -16.4112 O   0  0  0  0  0  0  0  0  0  0  0  0
   20.1289  -19.2213  -15.8552 O   0  0  0  0  0  0  0  0  0  0  0  0
  2  1  1  1
  2  3  1  0
  4  5  1  0
  4  2  1  0
  5  6  1  6
  7  8  2  0
  7  5  1  0
  9  7  1  0
 10  9  1  0
 11 12  1  0
 10 11  1  6
 12 13  2  0
 12 16  1  0
 13 14  1  0
 14 15  1  0
 16 15  2  0
 17 18  2  0
 17 10  1  0
 19 20  1  0
 20 22  1  0
 21 20  2  0
 22 23  1  0
 24 23  1  1
 24 25  1  0
 25 17  1  0
 26 24  1  0
 27 26  1  0
 28 26  2  0
M  END
$$$$
