LHQ.pdb
     RDKit          3D

 28 28  0  0  1  0  0  0  0  0999 V2000
   37.4539  -31.0432    5.1248 C   0  0  0  0  0  0  0  0  0  0  0  0
   36.4061  -30.0706    4.6320 C   0  0  1  0  0  0  0  0  0  0  0  0
   35.1155  -30.3918    5.3130 C   0  0  0  0  0  0  0  0  0  0  0  0
   36.8940  -28.6727    4.8683 C   0  0  0  0  0  0  0  0  0  0  0  0
   35.9275  -27.6672    4.2369 C   0  0  2  0  0  0  0  0  0  0  0  0
   35.7920  -27.8724    2.8304 N   0  0  0  0  0  0  0  0  0  0  0  0
   36.2899  -26.2850    4.5995 C   0  0  0  0  0  0  0  0  0  0  0  0
   37.2318  -25.7208    3.9853 O   0  0  0  0  0  0  0  0  0  0  0  0
   35.6013  -25.5654    5.6305 N   0  0  0  0  0  0  0  0  0  0  0  0
   36.0166  -24.2700    6.0742 C   0  0  1  0  0  0  0  0  0  0  0  0
   34.9251  -23.5697    6.8514 C   0  0  0  0  0  0  0  0  0  0  0  0
   33.8913  -23.0623    5.9138 C   0  0  0  0  0  0  0  0  0  0  0  0
   33.9555  -23.1575    4.5252 C   0  0  0  0  0  0  0  0  0  0  0  0
   32.8546  -22.5939    4.0277 N   0  0  0  0  0  0  0  0  0  0  0  0
   32.0890  -22.1429    5.0256 C   0  0  0  0  0  0  0  0  0  0  0  0
   32.7377  -22.4376    6.1679 N   0  0  0  0  0  0  0  0  0  0  0  0
   37.2824  -24.3403    6.8079 C   0  0  0  0  0  0  0  0  0  0  0  0
   37.6959  -25.4834    7.1739 O   0  0  0  0  0  0  0  0  0  0  0  0
   41.1391  -24.9803    3.5891 N   0  0  0  0  0  0  0  0  0  0  0  0
   42.0332  -24.3185    4.4485 C   0  0  0  0  0  0  0  0  0  0  0  0
   43.2008  -24.1164    4.0958 O   0  0  0  0  0  0  0  0  0  0  0  0
   41.5456  -23.8620    5.8012 C   0  0  0  0  0  0  0  0  0  0  0  0
   40.0452  -23.8319    5.8361 C   0  0  0  0  0  0  0  0  0  0  0  0
   39.5461  -23.3364    7.1428 C   0  0  2  0  0  0  0  0  0  0  0  0
   38.0809  -23.2368    7.1412 N   0  0  0  0  0  0  0  0  0  0  0  0
   40.1542  -22.0674    7.5315 C   0  0  0  0  0  0  0  0  0  0  0  0
   39.4660  -20.8996    7.7509 O   0  0  0  0  0  0  0  0  0  0  0  0
   41.4139  -22.0183    7.6800 O   0  0  0  0  0  0  0  0  0  0  0  0
  2  1  1  1
  2  3  1  0
  4  5  1  0
  4  2  1  0
  5  6  1  6
  7  8  2  0
  7  5  1  0
  9  7  1  0
 10  9  1  0
 11 12  1  0
 10 11  1  1
 12 13  2  0
 12 16  1  0
 13 14  1  0
 14 15  1  0
 16 15  2  0
 17 18  2  0
 17 10  1  0
 19 20  1  0
 20 22  1  0
 21 20  2  0
 22 23  1  0
 24 23  1  6
 24 25  1  0
 25 17  1  0
 26 24  1  0
 27 26  1  0
 28 26  2  0
M  END
$$$$
