VTL.pdb
     RDKit          3D

 23 22  0  0  1  0  0  0  0  0999 V2000
    8.7164  -12.5259   18.0718 C   0  0  0  0  0  0  0  0  0  0  0  0
    8.0771  -13.2579   19.2356 C   0  0  2  0  0  0  0  0  0  0  0  0
    8.3111  -12.4264   20.4708 C   0  0  0  0  0  0  0  0  0  0  0  0
    8.6940  -14.6227   19.3140 C   0  0  2  0  0  0  0  0  0  0  0  0
    8.4901  -15.2730   18.0356 N   0  0  0  0  0  0  0  0  0  0  0  0
    8.1979  -15.4486   20.4066 C   0  0  0  0  0  0  0  0  0  0  0  0
    7.3679  -16.3850   20.2840 O   0  0  0  0  0  0  0  0  0  0  0  0
    8.1851  -18.0454   21.3036 C   0  0  0  0  0  0  0  0  0  0  0  0
    8.7736  -17.4882   22.5727 C   0  0  1  0  0  0  0  0  0  0  0  0
   10.1609  -17.5339   22.4618 O   0  0  0  0  0  0  0  0  0  0  0  0
    8.2958  -16.0625   22.8216 C   0  0  2  0  0  0  0  0  0  0  0  0
    8.6739  -15.1965   21.7236 N   0  0  0  0  0  0  0  0  0  0  0  0
    8.8605  -15.5385   24.0899 C   0  0  0  0  0  0  0  0  0  0  0  0
    9.9853  -14.9835   24.1144 O   0  0  0  0  0  0  0  0  0  0  0  0
    8.0991  -12.0220   25.9523 C   0  0  0  0  0  0  0  0  0  0  0  0
    6.9957  -13.0506   26.1429 C   0  0  2  0  0  0  0  0  0  0  0  0
    5.8473  -12.2819   26.7774 C   0  0  0  0  0  0  0  0  0  0  0  0
    7.5156  -14.1091   27.0417 C   0  0  0  0  0  0  0  0  0  0  0  0
    8.6115  -14.9671   26.4857 C   0  0  2  0  0  0  0  0  0  0  0  0
    8.1607  -15.6452   25.2962 N   0  0  0  0  0  0  0  0  0  0  0  0
    9.2386  -15.8741   27.4604 C   0  0  0  0  0  0  0  0  0  0  0  0
    9.1971  -17.1105   27.4406 O   0  0  0  0  0  0  0  0  0  0  0  0
    9.9525  -15.3124   28.5152 O   0  0  0  0  0  0  0  0  0  0  0  0
  2  1  1  6
  2  4  1  0
  2  3  1  0
  4  6  1  0
  4  5  1  6
  6  7  2  0
  9  8  1  6
  9 11  1  0
 10  9  1  0
 11 12  1  6
 12  6  1  0
 13 11  1  0
 13 20  1  0
 14 13  2  0
 16 15  1  1
 16 17  1  0
 18 16  1  0
 19 20  1  0
 19 18  1  1
 21 19  1  0
 22 21  2  0
 23 21  1  0
M  END
$$$$
