VTL.pdb
     RDKit          3D

 23 22  0  0  1  0  0  0  0  0999 V2000
    7.3226  -12.7833   18.9731 C   0  0  0  0  0  0  0  0  0  0  0  0
    8.7853  -13.1811   18.9429 C   0  0  2  0  0  0  0  0  0  0  0  0
    9.4208  -12.4637   17.7795 C   0  0  0  0  0  0  0  0  0  0  0  0
    8.8524  -14.6749   18.8265 C   0  0  2  0  0  0  0  0  0  0  0  0
    8.3078  -15.0415   17.5351 N   0  0  0  0  0  0  0  0  0  0  0  0
    8.1829  -15.3958   19.9008 C   0  0  0  0  0  0  0  0  0  0  0  0
    6.9648  -15.7074   19.9111 O   0  0  0  0  0  0  0  0  0  0  0  0
    8.3863  -18.6754   21.2065 C   0  0  0  0  0  0  0  0  0  0  0  0
    8.7541  -17.8185   22.3888 C   0  0  1  0  0  0  0  0  0  0  0  0
   10.1354  -17.8797   22.5534 O   0  0  0  0  0  0  0  0  0  0  0  0
    8.2946  -16.3791   22.1898 C   0  0  2  0  0  0  0  0  0  0  0  0
    8.9438  -15.7889   21.0371 N   0  0  0  0  0  0  0  0  0  0  0  0
    8.5856  -15.5682   23.3981 C   0  0  0  0  0  0  0  0  0  0  0  0
    9.6606  -14.9302   23.5031 O   0  0  0  0  0  0  0  0  0  0  0  0
    5.7627  -12.2307   27.4518 C   0  0  0  0  0  0  0  0  0  0  0  0
    7.0656  -12.9733   27.2010 C   0  0  2  0  0  0  0  0  0  0  0  0
    8.1155  -11.8841   27.0488 C   0  0  0  0  0  0  0  0  0  0  0  0
    6.9031  -13.7624   25.9561 C   0  0  0  0  0  0  0  0  0  0  0  0
    7.9860  -14.7547   25.6579 C   0  0  2  0  0  0  0  0  0  0  0  0
    7.6748  -15.4881   24.4565 N   0  0  0  0  0  0  0  0  0  0  0  0
    8.3489  -15.6281   26.7854 C   0  0  0  0  0  0  0  0  0  0  0  0
    7.8596  -16.7358   27.0393 O   0  0  0  0  0  0  0  0  0  0  0  0
    9.3343  -15.1893   27.6652 O   0  0  0  0  0  0  0  0  0  0  0  0
  2  1  1  6
  2  4  1  0
  2  3  1  0
  4  6  1  0
  4  5  1  6
  6  7  2  0
  9  8  1  6
  9 11  1  0
 10  9  1  0
 11 12  1  6
 12  6  1  0
 13 11  1  0
 13 20  1  0
 14 13  2  0
 16 15  1  6
 16 17  1  0
 18 16  1  0
 19 20  1  0
 19 18  1  1
 21 19  1  0
 22 21  2  0
 23 21  1  0
M  END
$$$$
