VTL.pdb
     RDKit          3D

 23 22  0  0  1  0  0  0  0  0999 V2000
    8.8241  -12.6686   17.8089 C   0  0  0  0  0  0  0  0  0  0  0  0
    8.0924  -13.3230   18.9643 C   0  0  2  0  0  0  0  0  0  0  0  0
    8.4022  -12.5213   20.2025 C   0  0  0  0  0  0  0  0  0  0  0  0
    8.5519  -14.7481   19.0504 C   0  0  2  0  0  0  0  0  0  0  0  0
    8.2591  -15.3833   17.7818 N   0  0  0  0  0  0  0  0  0  0  0  0
    7.9798  -15.5021   20.1577 C   0  0  0  0  0  0  0  0  0  0  0  0
    7.1028  -16.3960   20.0453 O   0  0  0  0  0  0  0  0  0  0  0  0
    7.7563  -18.0573   21.1740 C   0  0  0  0  0  0  0  0  0  0  0  0
    8.3521  -17.4766   22.4292 C   0  0  1  0  0  0  0  0  0  0  0  0
    9.7357  -17.6144   22.3542 O   0  0  0  0  0  0  0  0  0  0  0  0
    7.9609  -16.0134   22.5984 C   0  0  2  0  0  0  0  0  0  0  0  0
    8.4313  -15.2245   21.4783 N   0  0  0  0  0  0  0  0  0  0  0  0
    8.5162  -15.4692   23.8624 C   0  0  0  0  0  0  0  0  0  0  0  0
    9.7118  -15.0962   23.9337 O   0  0  0  0  0  0  0  0  0  0  0  0
    5.8697  -11.9647   27.1316 C   0  0  0  0  0  0  0  0  0  0  0  0
    7.2449  -12.5204   26.7969 C   0  0  2  0  0  0  0  0  0  0  0  0
    7.5032  -12.0914   25.3612 C   0  0  0  0  0  0  0  0  0  0  0  0
    7.1802  -13.9958   26.9299 C   0  0  0  0  0  0  0  0  0  0  0  0
    8.2510  -14.7696   26.2222 C   0  0  2  0  0  0  0  0  0  0  0  0
    7.7286  -15.3542   25.0125 N   0  0  0  0  0  0  0  0  0  0  0  0
    8.9692  -15.7395   27.0644 C   0  0  0  0  0  0  0  0  0  0  0  0
    8.8458  -16.9701   27.0302 O   0  0  0  0  0  0  0  0  0  0  0  0
    9.8801  -15.2515   27.9969 O   0  0  0  0  0  0  0  0  0  0  0  0
  2  1  1  6
  2  4  1  0
  2  3  1  0
  4  6  1  0
  4  5  1  6
  6  7  2  0
  9  8  1  6
  9 11  1  0
 10  9  1  0
 11 12  1  6
 12  6  1  0
 13 11  1  0
 13 20  1  0
 14 13  2  0
 16 15  1  6
 16 17  1  0
 18 16  1  0
 19 20  1  0
 19 18  1  1
 21 19  1  0
 22 21  2  0
 23 21  1  0
M  END
$$$$
