VTL.pdb
     RDKit          3D

 23 22  0  0  1  0  0  0  0  0999 V2000
    8.6464  -12.8026   17.4429 C   0  0  0  0  0  0  0  0  0  0  0  0
    8.0320  -13.3991   18.6941 C   0  0  2  0  0  0  0  0  0  0  0  0
    8.4419  -12.5278   19.8537 C   0  0  0  0  0  0  0  0  0  0  0  0
    8.5172  -14.8131   18.8143 C   0  0  2  0  0  0  0  0  0  0  0  0
    8.1258  -15.5176   17.6106 N   0  0  0  0  0  0  0  0  0  0  0  0
    8.0528  -15.5126   20.0048 C   0  0  0  0  0  0  0  0  0  0  0  0
    6.8725  -15.8990   20.2003 O   0  0  0  0  0  0  0  0  0  0  0  0
    8.9067  -18.6744   21.5065 C   0  0  0  0  0  0  0  0  0  0  0  0
    9.2159  -17.6728   22.5876 C   0  0  1  0  0  0  0  0  0  0  0  0
   10.5988  -17.5263   22.6576 O   0  0  0  0  0  0  0  0  0  0  0  0
    8.5419  -16.3349   22.3077 C   0  0  2  0  0  0  0  0  0  0  0  0
    8.9874  -15.7920   21.0407 N   0  0  0  0  0  0  0  0  0  0  0  0
    8.8315  -15.3687   23.3961 C   0  0  0  0  0  0  0  0  0  0  0  0
    9.6924  -14.4684   23.2472 O   0  0  0  0  0  0  0  0  0  0  0  0
    7.1312  -13.0069   28.0377 C   0  0  0  0  0  0  0  0  0  0  0  0
    7.3926  -12.3652   26.6842 C   0  0  2  0  0  0  0  0  0  0  0  0
    6.3001  -11.3193   26.5277 C   0  0  0  0  0  0  0  0  0  0  0  0
    7.2928  -13.4273   25.6543 C   0  0  0  0  0  0  0  0  0  0  0  0
    8.3895  -14.4488   25.6515 C   0  0  2  0  0  0  0  0  0  0  0  0
    8.1572  -15.4287   24.6200 N   0  0  0  0  0  0  0  0  0  0  0  0
    8.6723  -15.0528   26.9634 C   0  0  0  0  0  0  0  0  0  0  0  0
    9.4023  -14.5805   27.8437 O   0  0  0  0  0  0  0  0  0  0  0  0
    8.0735  -16.2719   27.2678 O   0  0  0  0  0  0  0  0  0  0  0  0
  2  1  1  6
  2  4  1  0
  2  3  1  0
  4  6  1  0
  4  5  1  6
  6  7  2  0
  9  8  1  6
  9 11  1  0
 10  9  1  0
 11 12  1  6
 12  6  1  0
 13 11  1  0
 13 20  1  0
 14 13  2  0
 16 15  1  1
 16 17  1  0
 18 16  1  0
 19 20  1  0
 19 18  1  1
 21 19  1  0
 22 21  2  0
 23 21  1  0
M  END
$$$$
