VTL.pdb
     RDKit          3D

 23 22  0  0  1  0  0  0  0  0999 V2000
   13.7521  -17.9835   18.9694 C   0  0  0  0  0  0  0  0  0  0  0  0
   13.8959  -17.8844   20.4755 C   0  0  2  0  0  0  0  0  0  0  0  0
   15.1183  -18.6770   20.8620 C   0  0  0  0  0  0  0  0  0  0  0  0
   12.6320  -18.4054   21.0924 C   0  0  2  0  0  0  0  0  0  0  0  0
   12.2320  -19.5835   20.3504 N   0  0  0  0  0  0  0  0  0  0  0  0
   11.5472  -17.4354   21.1592 C   0  0  0  0  0  0  0  0  0  0  0  0
   11.4003  -16.4620   20.3770 O   0  0  0  0  0  0  0  0  0  0  0  0
    8.1689  -17.6029   20.3405 C   0  0  0  0  0  0  0  0  0  0  0  0
    8.1588  -17.3272   21.8208 C   0  0  1  0  0  0  0  0  0  0  0  0
    7.9765  -18.5378   22.4842 O   0  0  0  0  0  0  0  0  0  0  0  0
    9.4525  -16.6547   22.2645 C   0  0  2  0  0  0  0  0  0  0  0  0
   10.5653  -17.5782   22.1791 N   0  0  0  0  0  0  0  0  0  0  0  0
    9.3264  -16.1498   23.6542 C   0  0  0  0  0  0  0  0  0  0  0  0
    9.9681  -16.6789   24.5933 O   0  0  0  0  0  0  0  0  0  0  0  0
    5.7949  -12.4572   26.8052 C   0  0  0  0  0  0  0  0  0  0  0  0
    7.2751  -12.7919   26.7112 C   0  0  2  0  0  0  0  0  0  0  0  0
    7.9912  -11.4648   26.9062 C   0  0  0  0  0  0  0  0  0  0  0  0
    7.5245  -13.3621   25.3654 C   0  0  0  0  0  0  0  0  0  0  0  0
    8.2717  -14.6608   25.3271 C   0  0  2  0  0  0  0  0  0  0  0  0
    8.4912  -15.0711   23.9628 N   0  0  0  0  0  0  0  0  0  0  0  0
    7.6960  -15.7276   26.1615 C   0  0  0  0  0  0  0  0  0  0  0  0
    6.6977  -16.4075   25.8932 O   0  0  0  0  0  0  0  0  0  0  0  0
    8.3151  -16.0195   27.3736 O   0  0  0  0  0  0  0  0  0  0  0  0
  2  1  1  6
  2  4  1  0
  2  3  1  0
  4  6  1  0
  4  5  1  6
  6  7  2  0
  9  8  1  6
  9 11  1  0
 10  9  1  0
 11 12  1  1
 12  6  1  0
 13 11  1  0
 13 20  1  0
 14 13  2  0
 16 15  1  6
 16 17  1  0
 18 16  1  0
 19 20  1  0
 19 18  1  6
 21 19  1  0
 22 21  2  0
 23 21  1  0
M  END
$$$$
