VTL.pdb
     RDKit          3D

 23 22  0  0  1  0  0  0  0  0999 V2000
    7.5872  -12.5943   19.3713 C   0  0  0  0  0  0  0  0  0  0  0  0
    9.0263  -13.0664   19.4399 C   0  0  2  0  0  0  0  0  0  0  0  0
    9.7821  -12.3610   18.3431 C   0  0  0  0  0  0  0  0  0  0  0  0
    9.0270  -14.5592   19.2950 C   0  0  2  0  0  0  0  0  0  0  0  0
    8.4824  -14.8759   17.9906 N   0  0  0  0  0  0  0  0  0  0  0  0
    8.3122  -15.2692   20.3473 C   0  0  0  0  0  0  0  0  0  0  0  0
    7.0986  -15.5946   20.3023 O   0  0  0  0  0  0  0  0  0  0  0  0
    8.0958  -18.4501   21.3566 C   0  0  0  0  0  0  0  0  0  0  0  0
    8.6396  -17.7984   22.6005 C   0  0  1  0  0  0  0  0  0  0  0  0
   10.0122  -18.0284   22.6436 O   0  0  0  0  0  0  0  0  0  0  0  0
    8.3389  -16.3044   22.6158 C   0  0  2  0  0  0  0  0  0  0  0  0
    9.0194  -15.6338   21.5270 N   0  0  0  0  0  0  0  0  0  0  0  0
    8.7506  -15.7041   23.9090 C   0  0  0  0  0  0  0  0  0  0  0  0
    9.9096  -15.2521   24.0703 O   0  0  0  0  0  0  0  0  0  0  0  0
    8.0394  -12.0352   26.0402 C   0  0  0  0  0  0  0  0  0  0  0  0
    6.8618  -12.9955   25.9879 C   0  0  2  0  0  0  0  0  0  0  0  0
    5.6952  -12.2192   26.5783 C   0  0  0  0  0  0  0  0  0  0  0  0
    7.2089  -14.1808   26.8085 C   0  0  0  0  0  0  0  0  0  0  0  0
    8.2765  -15.0759   26.2561 C   0  0  2  0  0  0  0  0  0  0  0  0
    7.8638  -15.6222   24.9875 N   0  0  0  0  0  0  0  0  0  0  0  0
    8.7648  -16.1022   27.1911 C   0  0  0  0  0  0  0  0  0  0  0  0
    8.5782  -17.3220   27.1006 O   0  0  0  0  0  0  0  0  0  0  0  0
    9.5103  -15.6872   28.2909 O   0  0  0  0  0  0  0  0  0  0  0  0
  2  1  1  6
  2  4  1  0
  2  3  1  0
  4  6  1  0
  4  5  1  6
  6  7  2  0
  9  8  1  6
  9 11  1  0
 10  9  1  0
 11 12  1  6
 12  6  1  0
 13 11  1  0
 13 20  1  0
 14 13  2  0
 16 15  1  1
 16 17  1  0
 18 16  1  0
 19 20  1  0
 19 18  1  1
 21 19  1  0
 22 21  2  0
 23 21  1  0
M  END
$$$$
