VTL.pdb
     RDKit          3D

 23 22  0  0  1  0  0  0  0  0999 V2000
   11.0981  -22.6893   26.5412 C   0  0  0  0  0  0  0  0  0  0  0  0
   11.1695  -21.1748   26.5349 C   0  0  2  0  0  0  0  0  0  0  0  0
    9.9150  -20.6644   27.1964 C   0  0  0  0  0  0  0  0  0  0  0  0
   11.3124  -20.7281   25.1103 C   0  0  2  0  0  0  0  0  0  0  0  0
   12.4397  -21.4349   24.5374 N   0  0  0  0  0  0  0  0  0  0  0  0
   11.4554  -19.2885   24.9395 C   0  0  0  0  0  0  0  0  0  0  0  0
   12.4766  -18.6231   25.2479 O   0  0  0  0  0  0  0  0  0  0  0  0
   11.4157  -17.2333   21.9325 C   0  0  0  0  0  0  0  0  0  0  0  0
   10.2812  -16.7142   22.7757 C   0  0  1  0  0  0  0  0  0  0  0  0
    9.0917  -17.2195   22.2574 O   0  0  0  0  0  0  0  0  0  0  0  0
   10.4513  -17.1170   24.2357 C   0  0  2  0  0  0  0  0  0  0  0  0
   10.3699  -18.5558   24.3830 N   0  0  0  0  0  0  0  0  0  0  0  0
    9.4165  -16.4681   25.0784 C   0  0  0  0  0  0  0  0  0  0  0  0
    8.3114  -17.0245   25.2855 O   0  0  0  0  0  0  0  0  0  0  0  0
    9.1729  -15.2744   29.2034 C   0  0  0  0  0  0  0  0  0  0  0  0
   10.0250  -14.2945   28.4124 C   0  0  2  0  0  0  0  0  0  0  0  0
   10.5542  -13.3116   29.4449 C   0  0  0  0  0  0  0  0  0  0  0  0
    9.1463  -13.6324   27.4183 C   0  0  0  0  0  0  0  0  0  0  0  0
    8.5791  -14.5147   26.3478 C   0  0  2  0  0  0  0  0  0  0  0  0
    9.6373  -15.2191   25.6680 N   0  0  0  0  0  0  0  0  0  0  0  0
    7.6508  -13.8436   25.4240 C   0  0  0  0  0  0  0  0  0  0  0  0
    7.8066  -13.7031   24.2046 O   0  0  0  0  0  0  0  0  0  0  0  0
    6.4777  -13.3068   25.9467 O   0  0  0  0  0  0  0  0  0  0  0  0
  2  1  1  6
  2  4  1  0
  2  3  1  0
  4  6  1  0
  4  5  1  1
  6  7  2  0
  9  8  1  6
  9 11  1  0
 10  9  1  0
 11 12  1  6
 12  6  1  0
 13 11  1  0
 13 20  1  0
 14 13  2  0
 16 15  1  1
 16 17  1  0
 18 16  1  0
 19 20  1  0
 19 18  1  1
 21 19  1  0
 22 21  2  0
 23 21  1  0
M  END
$$$$
