VTL.pdb
     RDKit          3D

 23 22  0  0  1  0  0  0  0  0999 V2000
    7.0223  -13.2288   19.5865 C   0  0  0  0  0  0  0  0  0  0  0  0
    8.5347  -13.1938   19.4855 C   0  0  2  0  0  0  0  0  0  0  0  0
    8.8849  -12.3264   18.3037 C   0  0  0  0  0  0  0  0  0  0  0  0
    9.0183  -14.6068   19.3479 C   0  0  2  0  0  0  0  0  0  0  0  0
    8.6276  -15.0808   18.0359 N   0  0  0  0  0  0  0  0  0  0  0  0
    8.5517  -15.5100   20.3912 C   0  0  0  0  0  0  0  0  0  0  0  0
    7.9186  -16.5778   20.1914 O   0  0  0  0  0  0  0  0  0  0  0  0
    8.5445  -18.0230   21.2345 C   0  0  0  0  0  0  0  0  0  0  0  0
    9.0107  -17.4810   22.5598 C   0  0  1  0  0  0  0  0  0  0  0  0
   10.4030  -17.4573   22.5509 O   0  0  0  0  0  0  0  0  0  0  0  0
    8.4460  -16.0886   22.8146 C   0  0  2  0  0  0  0  0  0  0  0  0
    8.8202  -15.1812   21.7493 N   0  0  0  0  0  0  0  0  0  0  0  0
    8.9293  -15.5611   24.1147 C   0  0  0  0  0  0  0  0  0  0  0  0
   10.0998  -15.1277   24.2399 O   0  0  0  0  0  0  0  0  0  0  0  0
    7.9709  -11.9492   26.0670 C   0  0  0  0  0  0  0  0  0  0  0  0
    6.8852  -13.0053   26.2005 C   0  0  2  0  0  0  0  0  0  0  0  0
    5.7173  -12.2870   26.8578 C   0  0  0  0  0  0  0  0  0  0  0  0
    7.4168  -14.0938   27.0556 C   0  0  0  0  0  0  0  0  0  0  0  0
    8.5284  -14.9103   26.4693 C   0  0  2  0  0  0  0  0  0  0  0  0
    8.0994  -15.5292   25.2401 N   0  0  0  0  0  0  0  0  0  0  0  0
    9.1531  -15.8611   27.4028 C   0  0  0  0  0  0  0  0  0  0  0  0
    9.7779  -15.5728   28.4311 O   0  0  0  0  0  0  0  0  0  0  0  0
    9.0452  -17.2208   27.1253 O   0  0  0  0  0  0  0  0  0  0  0  0
  2  1  1  6
  2  4  1  0
  2  3  1  0
  4  6  1  0
  4  5  1  6
  6  7  2  0
  9  8  1  6
  9 11  1  0
 10  9  1  0
 11 12  1  6
 12  6  1  0
 13 11  1  0
 13 20  1  0
 14 13  2  0
 16 15  1  1
 16 17  1  0
 18 16  1  0
 19 20  1  0
 19 18  1  1
 21 19  1  0
 22 21  2  0
 23 21  1  0
M  END
$$$$
