VTL.pdb
     RDKit          3D

 23 22  0  0  1  0  0  0  0  0999 V2000
    7.3614  -12.8851   19.3756 C   0  0  0  0  0  0  0  0  0  0  0  0
    8.8377  -13.1622   19.1695 C   0  0  2  0  0  0  0  0  0  0  0  0
    9.3140  -12.2541   18.0648 C   0  0  0  0  0  0  0  0  0  0  0  0
    8.9906  -14.6189   18.8468 C   0  0  2  0  0  0  0  0  0  0  0  0
    8.3636  -14.8542   17.5623 N   0  0  0  0  0  0  0  0  0  0  0  0
    8.4619  -15.5215   19.8607 C   0  0  0  0  0  0  0  0  0  0  0  0
    7.7095  -16.5025   19.6319 O   0  0  0  0  0  0  0  0  0  0  0  0
    8.6335  -18.1179   20.5992 C   0  0  0  0  0  0  0  0  0  0  0  0
    9.0331  -17.6178   21.9622 C   0  0  1  0  0  0  0  0  0  0  0  0
   10.4236  -17.5643   22.0119 O   0  0  0  0  0  0  0  0  0  0  0  0
    8.4269  -16.2486   22.2458 C   0  0  2  0  0  0  0  0  0  0  0  0
    8.8088  -15.2973   21.2223 N   0  0  0  0  0  0  0  0  0  0  0  0
    8.8595  -15.7534   23.5762 C   0  0  0  0  0  0  0  0  0  0  0  0
   10.0023  -15.2631   23.7414 O   0  0  0  0  0  0  0  0  0  0  0  0
    5.6968  -12.3552   27.1304 C   0  0  0  0  0  0  0  0  0  0  0  0
    7.0641  -13.0116   27.0239 C   0  0  2  0  0  0  0  0  0  0  0  0
    8.0188  -11.8779   26.6844 C   0  0  0  0  0  0  0  0  0  0  0  0
    6.9970  -14.0212   25.9400 C   0  0  0  0  0  0  0  0  0  0  0  0
    8.1819  -14.9296   25.8101 C   0  0  2  0  0  0  0  0  0  0  0  0
    8.0112  -15.8163   24.6864 N   0  0  0  0  0  0  0  0  0  0  0  0
    8.5556  -15.6353   27.0462 C   0  0  0  0  0  0  0  0  0  0  0  0
    9.0086  -15.1183   28.0750 O   0  0  0  0  0  0  0  0  0  0  0  0
    8.3937  -17.0172   27.0880 O   0  0  0  0  0  0  0  0  0  0  0  0
  2  1  1  6
  2  4  1  0
  2  3  1  0
  4  6  1  0
  4  5  1  6
  6  7  2  0
  9  8  1  6
  9 11  1  0
 10  9  1  0
 11 12  1  6
 12  6  1  0
 13 11  1  0
 13 20  1  0
 14 13  2  0
 16 15  1  6
 16 17  1  0
 18 16  1  0
 19 20  1  0
 19 18  1  1
 21 19  1  0
 22 21  2  0
 23 21  1  0
M  END
$$$$
