VTL.pdb
     RDKit          3D

 23 22  0  0  1  0  0  0  0  0999 V2000
    7.2318  -12.7044   19.8136 C   0  0  0  0  0  0  0  0  0  0  0  0
    8.6792  -13.0634   19.5402 C   0  0  2  0  0  0  0  0  0  0  0  0
    9.1169  -12.2723   18.3342 C   0  0  0  0  0  0  0  0  0  0  0  0
    8.7532  -14.5472   19.3347 C   0  0  2  0  0  0  0  0  0  0  0  0
    8.0088  -14.8636   18.1329 N   0  0  0  0  0  0  0  0  0  0  0  0
    8.2842  -15.3382   20.4645 C   0  0  0  0  0  0  0  0  0  0  0  0
    7.0844  -15.6445   20.6825 O   0  0  0  0  0  0  0  0  0  0  0  0
    9.0942  -18.6500   23.8981 C   0  0  0  0  0  0  0  0  0  0  0  0
    9.5638  -17.8613   22.7043 C   0  0  1  0  0  0  0  0  0  0  0  0
    9.3770  -18.6448   21.5685 O   0  0  0  0  0  0  0  0  0  0  0  0
    8.8092  -16.5427   22.5841 C   0  0  2  0  0  0  0  0  0  0  0  0
    9.2374  -15.8128   21.4083 N   0  0  0  0  0  0  0  0  0  0  0  0
    9.0198  -15.7104   23.7944 C   0  0  0  0  0  0  0  0  0  0  0  0
   10.0976  -15.0939   23.9737 O   0  0  0  0  0  0  0  0  0  0  0  0
    5.7745  -12.2090   27.1222 C   0  0  0  0  0  0  0  0  0  0  0  0
    7.1542  -12.7306   26.7533 C   0  0  2  0  0  0  0  0  0  0  0  0
    7.5597  -11.9335   25.5236 C   0  0  0  0  0  0  0  0  0  0  0  0
    7.0252  -14.1776   26.4563 C   0  0  0  0  0  0  0  0  0  0  0  0
    8.2731  -14.8714   26.0005 C   0  0  2  0  0  0  0  0  0  0  0  0
    8.0278  -15.5855   24.7725 N   0  0  0  0  0  0  0  0  0  0  0  0
    8.9265  -15.7007   27.0258 C   0  0  0  0  0  0  0  0  0  0  0  0
    9.7429  -15.3114   27.8700 O   0  0  0  0  0  0  0  0  0  0  0  0
    8.6133  -17.0562   27.0715 O   0  0  0  0  0  0  0  0  0  0  0  0
  2  1  1  6
  2  4  1  0
  2  3  1  0
  4  6  1  0
  4  5  1  6
  6  7  2  0
  9  8  1  1
  9 11  1  0
 10  9  1  0
 11 12  1  6
 12  6  1  0
 13 11  1  0
 13 20  1  0
 14 13  2  0
 16 15  1  6
 16 17  1  0
 18 16  1  0
 19 20  1  0
 19 18  1  1
 21 19  1  0
 22 21  2  0
 23 21  1  0
M  END
$$$$
