KAQ.pdb
     RDKit          3D

 24 23  0  0  1  0  0  0  0  0999 V2000
   25.2740  -18.7311  -19.0186 N   0  0  0  0  0  0  0  0  0  0  0  0
   25.8375  -18.3440  -17.7570 C   0  0  1  0  0  0  0  0  0  0  0  0
   27.0078  -17.4209  -18.0287 C   0  0  0  0  0  0  0  0  0  0  0  0
   27.4390  -17.6176  -19.4739 C   0  0  0  0  0  0  0  0  0  0  0  0
   26.7526  -16.6549  -20.4119 C   0  0  0  0  0  0  0  0  0  0  0  0
   27.4218  -16.8361  -21.7683 C   0  0  0  0  0  0  0  0  0  0  0  0
   28.7490  -16.2714  -21.8168 N   0  0  0  0  0  0  0  0  0  0  0  0
   24.8622  -17.8166  -16.8056 C   0  0  0  0  0  0  0  0  0  0  0  0
   25.2584  -17.3987  -15.6628 O   0  0  0  0  0  0  0  0  0  0  0  0
   21.4948  -16.3120  -16.5771 C   0  0  0  0  0  0  0  0  0  0  0  0
   22.5219  -17.2902  -16.0130 C   0  0  2  0  0  0  0  0  0  0  0  0
   23.4584  -17.7116  -17.0175 N   0  0  0  0  0  0  0  0  0  0  0  0
   21.7393  -18.4239  -15.4548 C   0  0  0  0  0  0  0  0  0  0  0  0
   21.2125  -19.2203  -16.2697 O   0  0  0  0  0  0  0  0  0  0  0  0
   21.3996  -20.1757   -9.1516 N   0  0  0  0  0  0  0  0  0  0  0  0
   20.3568  -20.9201   -9.8453 C   0  0  0  0  0  0  0  0  0  0  0  0
   19.6317  -21.5977   -9.0950 O   0  0  0  0  0  0  0  0  0  0  0  0
   20.2293  -20.8415  -11.2899 C   0  0  0  0  0  0  0  0  0  0  0  0
   21.0890  -19.9305  -12.0755 C   0  0  0  0  0  0  0  0  0  0  0  0
   20.7959  -19.7691  -13.5165 C   0  0  2  0  0  0  0  0  0  0  0  0
   21.5686  -18.6338  -14.0685 N   0  0  0  0  0  0  0  0  0  0  0  0
   19.3953  -19.4872  -13.7937 C   0  0  0  0  0  0  0  0  0  0  0  0
   18.8896  -18.1682  -13.6844 O   0  0  0  0  0  0  0  0  0  0  0  0
   18.5607  -20.3892  -14.1353 O   0  0  0  0  0  0  0  0  0  0  0  0
  2  1  1  6
  3  2  1  0
  4  3  1  0
  5  4  1  0
  6  7  1  0
  6  5  1  0
  8  2  1  0
  8  9  2  0
 11 10  1  6
 12 11  1  0
 12  8  1  0
 13 14  2  0
 13 11  1  0
 15 16  1  0
 16 17  2  0
 18 16  1  0
 18 19  1  0
 20 19  1  1
 20 22  1  0
 20 21  1  0
 21 13  1  0
 22 23  1  0
 24 22  2  0
M  END
$$$$
