KAQ.pdb
     RDKit          3D

 24 23  0  0  1  0  0  0  0  0999 V2000
   17.3358  -12.0072  -13.8424 N   0  0  0  0  0  0  0  0  0  0  0  0
   17.2588  -11.4761  -15.1732 C   0  0  1  0  0  0  0  0  0  0  0  0
   16.5903  -12.5116  -16.0543 C   0  0  0  0  0  0  0  0  0  0  0  0
   17.5938  -13.6227  -16.3222 C   0  0  0  0  0  0  0  0  0  0  0  0
   16.9805  -14.7784  -17.0745 C   0  0  0  0  0  0  0  0  0  0  0  0
   18.0853  -15.8155  -17.2304 C   0  0  0  0  0  0  0  0  0  0  0  0
   17.6555  -16.9849  -17.9586 N   0  0  0  0  0  0  0  0  0  0  0  0
   16.6626  -10.1444  -15.2495 C   0  0  0  0  0  0  0  0  0  0  0  0
   16.5888   -9.5506  -16.3806 O   0  0  0  0  0  0  0  0  0  0  0  0
   14.5997   -7.8166  -13.0848 C   0  0  0  0  0  0  0  0  0  0  0  0
   15.4818   -8.1271  -14.2913 C   0  0  2  0  0  0  0  0  0  0  0  0
   16.1316   -9.4012  -14.1576 N   0  0  0  0  0  0  0  0  0  0  0  0
   16.4496   -7.0031  -14.3869 C   0  0  0  0  0  0  0  0  0  0  0  0
   17.6032   -7.1921  -13.9293 O   0  0  0  0  0  0  0  0  0  0  0  0
   19.3473   -5.5000  -18.9850 N   0  0  0  0  0  0  0  0  0  0  0  0
   19.4717   -4.2275  -18.2865 C   0  0  0  0  0  0  0  0  0  0  0  0
   20.1914   -3.3965  -18.8691 O   0  0  0  0  0  0  0  0  0  0  0  0
   18.7945   -4.0104  -17.0202 C   0  0  0  0  0  0  0  0  0  0  0  0
   17.8977   -5.0420  -16.4567 C   0  0  0  0  0  0  0  0  0  0  0  0
   17.1368   -4.7077  -15.2328 C   0  0  2  0  0  0  0  0  0  0  0  0
   16.1257   -5.7540  -14.9612 N   0  0  0  0  0  0  0  0  0  0  0  0
   16.4118   -3.4495  -15.3284 C   0  0  0  0  0  0  0  0  0  0  0  0
   17.0451   -2.2252  -15.0001 O   0  0  0  0  0  0  0  0  0  0  0  0
   15.1927   -3.3778  -15.6965 O   0  0  0  0  0  0  0  0  0  0  0  0
  2  1  1  1
  3  2  1  0
  4  3  1  0
  5  4  1  0
  6  7  1  0
  6  5  1  0
  8  2  1  0
  8  9  2  0
 11 10  1  1
 12 11  1  0
 12  8  1  0
 13 14  2  0
 13 11  1  0
 15 16  1  0
 16 17  2  0
 18 16  1  0
 18 19  1  0
 20 19  1  6
 20 22  1  0
 20 21  1  0
 21 13  1  0
 22 23  1  0
 24 22  2  0
M  END
$$$$
