KAQ.pdb
     RDKit          3D

 24 23  0  0  1  0  0  0  0  0999 V2000
   13.1424  -20.6015    2.3531 N   0  0  0  0  0  0  0  0  0  0  0  0
   14.5293  -20.9582    2.4446 C   0  0  1  0  0  0  0  0  0  0  0  0
   15.1380  -20.1858    3.5971 C   0  0  0  0  0  0  0  0  0  0  0  0
   14.8938  -18.7044    3.3542 C   0  0  0  0  0  0  0  0  0  0  0  0
   15.5330  -17.8382    4.4120 C   0  0  0  0  0  0  0  0  0  0  0  0
   15.2125  -16.3986    4.0305 C   0  0  0  0  0  0  0  0  0  0  0  0
   15.7456  -15.4399    4.9681 N   0  0  0  0  0  0  0  0  0  0  0  0
   14.7723  -22.3982    2.4890 C   0  0  0  0  0  0  0  0  0  0  0  0
   14.1871  -23.1093    3.3776 O   0  0  0  0  0  0  0  0  0  0  0  0
   16.6199  -25.1018    0.5511 C   0  0  0  0  0  0  0  0  0  0  0  0
   15.9737  -24.5116    1.8018 C   0  0  2  0  0  0  0  0  0  0  0  0
   15.6253  -23.1305    1.6157 N   0  0  0  0  0  0  0  0  0  0  0  0
   16.9583  -24.7062    2.8981 C   0  0  0  0  0  0  0  0  0  0  0  0
   17.8091  -23.8011    3.0794 O   0  0  0  0  0  0  0  0  0  0  0  0
   17.6314  -26.2886    8.9941 N   0  0  0  0  0  0  0  0  0  0  0  0
   16.8162  -25.2828    8.3258 C   0  0  0  0  0  0  0  0  0  0  0  0
   16.3215  -24.4379    9.0935 O   0  0  0  0  0  0  0  0  0  0  0  0
   16.6302  -25.3199    6.8859 C   0  0  0  0  0  0  0  0  0  0  0  0
   17.2270  -26.4025    6.0749 C   0  0  0  0  0  0  0  0  0  0  0  0
   17.9394  -26.0285    4.8335 C   0  0  2  0  0  0  0  0  0  0  0  0
   16.9729  -25.8499    3.7268 N   0  0  0  0  0  0  0  0  0  0  0  0
   18.8931  -27.0337    4.3889 C   0  0  0  0  0  0  0  0  0  0  0  0
   18.5856  -27.8892    3.3020 O   0  0  0  0  0  0  0  0  0  0  0  0
   20.0297  -27.2043    4.9422 O   0  0  0  0  0  0  0  0  0  0  0  0
  2  1  1  1
  3  2  1  0
  4  3  1  0
  5  4  1  0
  6  7  1  0
  6  5  1  0
  8  2  1  0
  8  9  2  0
 11 10  1  6
 12 11  1  0
 12  8  1  0
 13 14  2  0
 13 11  1  0
 15 16  1  0
 16 17  2  0
 18 16  1  0
 18 19  1  0
 20 19  1  1
 20 22  1  0
 20 21  1  0
 21 13  1  0
 22 23  1  0
 24 22  2  0
M  END
$$$$
