KAQ.pdb
     RDKit          3D

 24 23  0  0  1  0  0  0  0  0999 V2000
   28.1481  -21.1959  -16.5287 N   0  0  0  0  0  0  0  0  0  0  0  0
   27.4261  -20.2993  -15.6721 C   0  0  1  0  0  0  0  0  0  0  0  0
   26.7875  -19.2334  -16.5391 C   0  0  0  0  0  0  0  0  0  0  0  0
   27.8509  -18.6917  -17.4819 C   0  0  0  0  0  0  0  0  0  0  0  0
   28.8628  -17.8291  -16.7680 C   0  0  0  0  0  0  0  0  0  0  0  0
   29.7515  -17.2338  -17.8526 C   0  0  0  0  0  0  0  0  0  0  0  0
   30.7116  -16.2900  -17.3329 N   0  0  0  0  0  0  0  0  0  0  0  0
   26.5023  -20.9646  -14.7564 C   0  0  0  0  0  0  0  0  0  0  0  0
   25.7819  -21.9333  -15.1809 O   0  0  0  0  0  0  0  0  0  0  0  0
   25.4339  -20.7974  -11.0985 C   0  0  0  0  0  0  0  0  0  0  0  0
   25.2910  -21.2301  -12.5554 C   0  0  2  0  0  0  0  0  0  0  0  0
   26.3055  -20.6407  -13.3841 N   0  0  0  0  0  0  0  0  0  0  0  0
   23.9195  -20.8300  -12.9653 C   0  0  0  0  0  0  0  0  0  0  0  0
   23.7275  -19.6205  -13.2411 O   0  0  0  0  0  0  0  0  0  0  0  0
   18.8237  -24.8513  -14.0175 N   0  0  0  0  0  0  0  0  0  0  0  0
   18.3364  -23.4905  -14.2005 C   0  0  0  0  0  0  0  0  0  0  0  0
   17.1165  -23.4147  -14.4326 O   0  0  0  0  0  0  0  0  0  0  0  0
   19.2462  -22.3618  -14.1132 C   0  0  0  0  0  0  0  0  0  0  0  0
   20.6511  -22.5548  -13.6946 C   0  0  0  0  0  0  0  0  0  0  0  0
   21.4967  -21.3529  -13.5248 C   0  0  2  0  0  0  0  0  0  0  0  0
   22.8446  -21.7421  -13.0533 N   0  0  0  0  0  0  0  0  0  0  0  0
   20.9739  -20.4118  -12.5456 C   0  0  0  0  0  0  0  0  0  0  0  0
   20.2114  -19.2909  -12.9576 O   0  0  0  0  0  0  0  0  0  0  0  0
   21.1729  -20.5336  -11.2915 O   0  0  0  0  0  0  0  0  0  0  0  0
  2  1  1  6
  3  2  1  0
  4  3  1  0
  5  4  1  0
  6  7  1  0
  6  5  1  0
  8  2  1  0
  8  9  2  0
 11 10  1  1
 12 11  1  0
 12  8  1  0
 13 14  2  0
 13 11  1  0
 15 16  1  0
 16 17  2  0
 18 16  1  0
 18 19  1  0
 20 19  1  1
 20 22  1  0
 20 21  1  0
 21 13  1  0
 22 23  1  0
 24 22  2  0
M  END
$$$$
