KAQ.pdb
     RDKit          3D

 24 23  0  0  1  0  0  0  0  0999 V2000
   21.6236  -15.6283  -17.3596 N   0  0  0  0  0  0  0  0  0  0  0  0
   22.0212  -14.3503  -17.8771 C   0  0  1  0  0  0  0  0  0  0  0  0
   21.0458  -13.9615  -18.9693 C   0  0  0  0  0  0  0  0  0  0  0  0
   20.8980  -15.1446  -19.9136 C   0  0  0  0  0  0  0  0  0  0  0  0
   20.0053  -14.8302  -21.0892 C   0  0  0  0  0  0  0  0  0  0  0  0
   19.9900  -16.0831  -21.9557 C   0  0  0  0  0  0  0  0  0  0  0  0
   21.2050  -16.2519  -22.7157 N   0  0  0  0  0  0  0  0  0  0  0  0
   22.2175  -13.3276  -16.8523 C   0  0  0  0  0  0  0  0  0  0  0  0
   21.2201  -12.9369  -16.1522 O   0  0  0  0  0  0  0  0  0  0  0  0
   25.0211  -11.1358  -15.4719 C   0  0  0  0  0  0  0  0  0  0  0  0
   23.5680  -11.5744  -15.6338 C   0  0  2  0  0  0  0  0  0  0  0  0
   23.4489  -12.6889  -16.5322 N   0  0  0  0  0  0  0  0  0  0  0  0
   22.8331  -10.3756  -16.1156 C   0  0  0  0  0  0  0  0  0  0  0  0
   22.8239  -10.1606  -17.3524 O   0  0  0  0  0  0  0  0  0  0  0  0
   16.6421   -6.8441  -16.7084 N   0  0  0  0  0  0  0  0  0  0  0  0
   17.5789   -7.8937  -16.3294 C   0  0  0  0  0  0  0  0  0  0  0  0
   17.0417   -8.9869  -16.0761 O   0  0  0  0  0  0  0  0  0  0  0  0
   19.0045   -7.6238  -16.2653 C   0  0  0  0  0  0  0  0  0  0  0  0
   19.9586   -8.6885  -15.8882 C   0  0  0  0  0  0  0  0  0  0  0  0
   21.3841   -8.3227  -15.7380 C   0  0  2  0  0  0  0  0  0  0  0  0
   22.1588   -9.4858  -15.2504 N   0  0  0  0  0  0  0  0  0  0  0  0
   21.6078   -7.2489  -14.7816 C   0  0  0  0  0  0  0  0  0  0  0  0
   21.3521   -5.9013  -15.1370 O   0  0  0  0  0  0  0  0  0  0  0  0
   22.0432   -7.4521  -13.6001 O   0  0  0  0  0  0  0  0  0  0  0  0
  2  1  1  1
  3  2  1  0
  4  3  1  0
  5  4  1  0
  6  7  1  0
  6  5  1  0
  8  2  1  0
  8  9  2  0
 11 10  1  6
 12 11  1  0
 12  8  1  0
 13 14  2  0
 13 11  1  0
 15 16  1  0
 16 17  2  0
 18 16  1  0
 18 19  1  0
 20 19  1  1
 20 22  1  0
 20 21  1  0
 21 13  1  0
 22 23  1  0
 24 22  2  0
M  END
$$$$
