KAQ.pdb
     RDKit          3D

 24 23  0  0  1  0  0  0  0  0999 V2000
   22.1422  -18.3986  -16.7949 N   0  0  0  0  0  0  0  0  0  0  0  0
   22.6774  -19.3723  -15.8870 C   0  0  1  0  0  0  0  0  0  0  0  0
   24.1827  -19.2042  -15.8515 C   0  0  0  0  0  0  0  0  0  0  0  0
   24.7212  -19.4746  -17.2481 C   0  0  0  0  0  0  0  0  0  0  0  0
   26.2255  -19.3698  -17.3114 C   0  0  0  0  0  0  0  0  0  0  0  0
   26.6114  -19.6866  -18.7506 C   0  0  0  0  0  0  0  0  0  0  0  0
   28.0393  -19.6851  -18.9597 N   0  0  0  0  0  0  0  0  0  0  0  0
   22.0401  -19.3746  -14.5723 C   0  0  0  0  0  0  0  0  0  0  0  0
   22.1994  -18.3724  -13.7927 O   0  0  0  0  0  0  0  0  0  0  0  0
   19.5921  -19.1889  -12.6824 C   0  0  0  0  0  0  0  0  0  0  0  0
   20.5789  -20.3511  -12.7575 C   0  0  2  0  0  0  0  0  0  0  0  0
   21.2262  -20.4134  -14.0384 N   0  0  0  0  0  0  0  0  0  0  0  0
   19.7889  -21.5745  -12.4603 C   0  0  0  0  0  0  0  0  0  0  0  0
   19.2349  -22.1546  -13.4260 O   0  0  0  0  0  0  0  0  0  0  0  0
   19.7183  -24.9581   -6.8543 N   0  0  0  0  0  0  0  0  0  0  0  0
   18.6783  -25.5345   -7.6963 C   0  0  0  0  0  0  0  0  0  0  0  0
   18.0983  -26.5117   -7.1898 O   0  0  0  0  0  0  0  0  0  0  0  0
   18.3939  -24.9756   -9.0062 C   0  0  0  0  0  0  0  0  0  0  0  0
   19.1023  -23.7682   -9.4822 C   0  0  0  0  0  0  0  0  0  0  0  0
   18.8386  -23.3072  -10.8629 C   0  0  2  0  0  0  0  0  0  0  0  0
   19.6402  -22.0981  -11.1569 N   0  0  0  0  0  0  0  0  0  0  0  0
   17.4484  -22.9461  -11.0964 C   0  0  0  0  0  0  0  0  0  0  0  0
   16.5381  -23.8901  -11.6330 O   0  0  0  0  0  0  0  0  0  0  0  0
   16.9815  -21.7859  -10.8452 O   0  0  0  0  0  0  0  0  0  0  0  0
  2  1  1  6
  3  2  1  0
  4  3  1  0
  5  4  1  0
  6  7  1  0
  6  5  1  0
  8  2  1  0
  8  9  2  0
 11 10  1  6
 12 11  1  0
 12  8  1  0
 13 14  2  0
 13 11  1  0
 15 16  1  0
 16 17  2  0
 18 16  1  0
 18 19  1  0
 20 19  1  1
 20 22  1  0
 20 21  1  0
 21 13  1  0
 22 23  1  0
 24 22  2  0
M  END
$$$$
