VMD.pdb
     RDKit          3D

 24 23  0  0  1  0  0  0  0  0999 V2000
    6.9303  -18.1901   19.0980 C   0  0  0  0  0  0  0  0  0  0  0  0
    7.6099  -17.7016   20.3559 C   0  0  1  0  0  0  0  0  0  0  0  0
    8.8935  -18.5026   20.5225 C   0  0  0  0  0  0  0  0  0  0  0  0
    7.9502  -16.2247   20.2415 C   0  0  2  0  0  0  0  0  0  0  0  0
    8.8657  -16.0242   19.1257 N   0  0  0  0  0  0  0  0  0  0  0  0
    8.5395  -15.7112   21.5044 C   0  0  0  0  0  0  0  0  0  0  0  0
    9.7652  -15.7297   21.6912 O   0  0  0  0  0  0  0  0  0  0  0  0
    7.4293  -11.5232   27.7190 C   0  0  0  0  0  0  0  0  0  0  0  0
    6.7086  -12.1258   26.1635 S   0  0  0  0  0  0  0  0  0  0  0  0
    7.3187  -13.7922   25.8843 C   0  0  0  0  0  0  0  0  0  0  0  0
    6.8595  -14.2581   24.5155 C   0  0  0  0  0  0  0  0  0  0  0  0
    8.0986  -14.8194   23.8219 C   0  0  2  0  0  0  0  0  0  0  0  0
    7.7042  -15.2005   22.4966 N   0  0  0  0  0  0  0  0  0  0  0  0
    8.7860  -15.8493   24.5845 C   0  0  0  0  0  0  0  0  0  0  0  0
    8.2100  -16.9503   24.7913 O   0  0  0  0  0  0  0  0  0  0  0  0
   10.0754  -15.6750   25.1075 N   0  0  0  0  0  0  0  0  0  0  0  0
   10.8278  -16.7243   25.8002 C   0  0  1  0  0  0  0  0  0  0  0  0
   12.2987  -16.3920   25.8003 C   0  0  0  0  0  0  0  0  0  0  0  0
   12.9113  -16.4906   24.4673 C   0  0  0  0  0  0  0  0  0  0  0  0
   12.5070  -17.3361   23.6058 O   0  0  0  0  0  0  0  0  0  0  0  0
   10.2604  -16.9450   27.1480 C   0  0  0  0  0  0  0  0  0  0  0  0
   10.6637  -17.9519   27.8343 O   0  0  0  0  0  0  0  0  0  0  0  0
   13.9623  -15.6628   24.0962 O   0  0  0  0  0  0  0  0  0  0  0  0
    9.3267  -16.1528   27.7330 O   0  0  0  0  0  0  0  0  0  0  0  0
  2  4  1  0
  2  1  1  6
  3  2  1  0
  4  5  1  6
  6  4  1  0
  6 13  1  0
  7  6  2  0
  9  8  1  0
 10  9  1  0
 11 10  1  0
 12 11  1  1
 12 13  1  0
 14 16  1  0
 14 12  1  0
 15 14  2  0
 17 16  1  0
 17 21  1  0
 17 18  1  1
 19 18  1  0
 19 20  2  0
 21 22  2  0
 21 24  1  0
 23 19  1  0
M  END
$$$$
