VMD.pdb
     RDKit          3D

 24 23  0  0  1  0  0  0  0  0999 V2000
    7.2604  -18.6745   19.9553 C   0  0  0  0  0  0  0  0  0  0  0  0
    7.9175  -17.7951   20.9934 C   0  0  1  0  0  0  0  0  0  0  0  0
    9.3353  -18.3103   21.1975 C   0  0  0  0  0  0  0  0  0  0  0  0
    7.9705  -16.3527   20.5172 C   0  0  2  0  0  0  0  0  0  0  0  0
    8.7416  -16.2787   19.2830 N   0  0  0  0  0  0  0  0  0  0  0  0
    8.5542  -15.4664   21.5562 C   0  0  0  0  0  0  0  0  0  0  0  0
    9.7539  -15.1543   21.5291 O   0  0  0  0  0  0  0  0  0  0  0  0
    6.6126  -11.8277   28.2401 C   0  0  0  0  0  0  0  0  0  0  0  0
    5.9973  -12.6312   26.7309 S   0  0  0  0  0  0  0  0  0  0  0  0
    7.4206  -13.1575   25.7692 C   0  0  0  0  0  0  0  0  0  0  0  0
    6.9322  -13.7932   24.4811 C   0  0  0  0  0  0  0  0  0  0  0  0
    8.1832  -14.2467   23.7323 C   0  0  2  0  0  0  0  0  0  0  0  0
    7.7432  -14.9772   22.5790 N   0  0  0  0  0  0  0  0  0  0  0  0
    9.1546  -14.9341   24.5682 C   0  0  0  0  0  0  0  0  0  0  0  0
    9.5535  -14.3838   25.6287 O   0  0  0  0  0  0  0  0  0  0  0  0
    9.6755  -16.1960   24.2478 N   0  0  0  0  0  0  0  0  0  0  0  0
   10.4401  -17.0282   25.1805 C   0  0  1  0  0  0  0  0  0  0  0  0
    9.5735  -17.4259   26.3488 C   0  0  0  0  0  0  0  0  0  0  0  0
   10.3114  -18.1544   27.3913 C   0  0  0  0  0  0  0  0  0  0  0  0
   11.5066  -17.8474   27.7038 O   0  0  0  0  0  0  0  0  0  0  0  0
   11.0407  -18.1714   24.4598 C   0  0  0  0  0  0  0  0  0  0  0  0
   11.8085  -18.9757   25.1011 O   0  0  0  0  0  0  0  0  0  0  0  0
    9.7306  -19.2131   28.0764 O   0  0  0  0  0  0  0  0  0  0  0  0
   10.8430  -18.4471   23.1459 O   0  0  0  0  0  0  0  0  0  0  0  0
  2  4  1  0
  2  1  1  6
  3  2  1  0
  4  5  1  6
  6  4  1  0
  6 13  1  0
  7  6  2  0
  9  8  1  0
 10  9  1  0
 11 10  1  0
 12 11  1  1
 12 13  1  0
 14 16  1  0
 14 12  1  0
 15 14  2  0
 17 16  1  0
 17 21  1  0
 17 18  1  1
 19 18  1  0
 19 20  2  0
 21 22  2  0
 21 24  1  0
 23 19  1  0
M  END
$$$$
