VMD.pdb
     RDKit          3D

 24 23  0  0  1  0  0  0  0  0999 V2000
    7.1104  -15.8170   19.8560 C   0  0  0  0  0  0  0  0  0  0  0  0
    7.9480  -14.7478   19.1945 C   0  0  1  0  0  0  0  0  0  0  0  0
    7.3615  -14.4978   17.8122 C   0  0  0  0  0  0  0  0  0  0  0  0
    7.9048  -13.4592   19.9994 C   0  0  2  0  0  0  0  0  0  0  0  0
    8.3852  -12.3577   19.1753 N   0  0  0  0  0  0  0  0  0  0  0  0
    8.7095  -13.5764   21.2422 C   0  0  0  0  0  0  0  0  0  0  0  0
    9.6347  -12.7862   21.4810 O   0  0  0  0  0  0  0  0  0  0  0  0
    6.5544  -11.5400   27.6692 C   0  0  0  0  0  0  0  0  0  0  0  0
    6.4119  -11.7697   25.8722 S   0  0  0  0  0  0  0  0  0  0  0  0
    7.4241  -13.1823   25.4167 C   0  0  0  0  0  0  0  0  0  0  0  0
    7.4334  -13.3100   23.9051 C   0  0  0  0  0  0  0  0  0  0  0  0
    8.3878  -14.4576   23.5832 C   0  0  2  0  0  0  0  0  0  0  0  0
    8.4227  -14.5897   22.1555 N   0  0  0  0  0  0  0  0  0  0  0  0
    8.1038  -15.6833   24.3125 C   0  0  0  0  0  0  0  0  0  0  0  0
    7.1901  -15.6864   25.1797 O   0  0  0  0  0  0  0  0  0  0  0  0
    8.8059  -16.8775   24.0950 N   0  0  0  0  0  0  0  0  0  0  0  0
   10.0345  -17.2467   24.8028 C   0  0  1  0  0  0  0  0  0  0  0  0
   11.1943  -16.4341   24.2844 C   0  0  0  0  0  0  0  0  0  0  0  0
   11.9679  -17.1318   23.2468 C   0  0  0  0  0  0  0  0  0  0  0  0
   11.8616  -16.8284   22.0151 O   0  0  0  0  0  0  0  0  0  0  0  0
    9.8274  -17.1366   26.2630 C   0  0  0  0  0  0  0  0  0  0  0  0
   10.3282  -18.0350   27.0307 O   0  0  0  0  0  0  0  0  0  0  0  0
   12.8467  -18.1561   23.5723 O   0  0  0  0  0  0  0  0  0  0  0  0
    9.1353  -16.1412   26.8728 O   0  0  0  0  0  0  0  0  0  0  0  0
  2  4  1  0
  2  1  1  1
  3  2  1  0
  4  5  1  6
  6  4  1  0
  6 13  1  0
  7  6  2  0
  9  8  1  0
 10  9  1  0
 11 10  1  0
 12 11  1  6
 12 13  1  0
 14 16  1  0
 14 12  1  0
 15 14  2  0
 17 16  1  0
 17 21  1  0
 17 18  1  6
 19 18  1  0
 19 20  2  0
 21 22  2  0
 21 24  1  0
 23 19  1  0
M  END
$$$$
