VMD.pdb
     RDKit          3D

 24 23  0  0  1  0  0  0  0  0999 V2000
    8.7360  -12.2137   19.9261 C   0  0  0  0  0  0  0  0  0  0  0  0
    7.5442  -13.1349   20.0419 C   0  0  1  0  0  0  0  0  0  0  0  0
    6.8792  -13.1961   18.6740 C   0  0  0  0  0  0  0  0  0  0  0  0
    7.9844  -14.5313   20.4498 C   0  0  2  0  0  0  0  0  0  0  0  0
    6.8395  -15.4316   20.4060 N   0  0  0  0  0  0  0  0  0  0  0  0
    8.5983  -14.5261   21.8021 C   0  0  0  0  0  0  0  0  0  0  0  0
    9.7048  -14.0026   21.9993 O   0  0  0  0  0  0  0  0  0  0  0  0
    6.3410  -10.9500   26.6153 C   0  0  0  0  0  0  0  0  0  0  0  0
    6.4213  -12.7648   26.6612 S   0  0  0  0  0  0  0  0  0  0  0  0
    7.1344  -13.3228   25.1096 C   0  0  0  0  0  0  0  0  0  0  0  0
    7.2155  -14.8377   25.1256 C   0  0  0  0  0  0  0  0  0  0  0  0
    8.3885  -15.2081   24.2211 C   0  0  2  0  0  0  0  0  0  0  0  0
    7.9225  -15.1187   22.8676 N   0  0  0  0  0  0  0  0  0  0  0  0
    9.0318  -16.4638   24.5736 C   0  0  0  0  0  0  0  0  0  0  0  0
    8.3643  -17.5312   24.5303 O   0  0  0  0  0  0  0  0  0  0  0  0
   10.3761  -16.5461   24.9642 N   0  0  0  0  0  0  0  0  0  0  0  0
   11.0583  -17.7998   25.2951 C   0  0  1  0  0  0  0  0  0  0  0  0
   12.5016  -17.7330   24.8632 C   0  0  0  0  0  0  0  0  0  0  0  0
   13.2581  -18.9501   25.1926 C   0  0  0  0  0  0  0  0  0  0  0  0
   12.8817  -19.7431   26.1145 O   0  0  0  0  0  0  0  0  0  0  0  0
   10.8729  -18.1113   26.7289 C   0  0  0  0  0  0  0  0  0  0  0  0
   10.7910  -17.1443   27.5689 O   0  0  0  0  0  0  0  0  0  0  0  0
   14.4203  -19.2811   24.5091 O   0  0  0  0  0  0  0  0  0  0  0  0
   10.7801  -19.3641   27.2422 O   0  0  0  0  0  0  0  0  0  0  0  0
  2  4  1  0
  2  1  1  6
  3  2  1  0
  4  5  1  1
  6  4  1  0
  6 13  1  0
  7  6  2  0
  9  8  1  0
 10  9  1  0
 11 10  1  0
 12 11  1  1
 12 13  1  0
 14 16  1  0
 14 12  1  0
 15 14  2  0
 17 16  1  0
 17 21  1  0
 17 18  1  1
 19 18  1  0
 19 20  2  0
 21 22  2  0
 21 24  1  0
 23 19  1  0
M  END
$$$$
