VMD.pdb
     RDKit          3D

 24 23  0  0  1  0  0  0  0  0999 V2000
    7.9272  -18.0221   21.0730 C   0  0  0  0  0  0  0  0  0  0  0  0
    8.5759  -16.9500   20.2290 C   0  0  1  0  0  0  0  0  0  0  0  0
    8.0921  -17.1395   18.7982 C   0  0  0  0  0  0  0  0  0  0  0  0
    8.1735  -15.5679   20.7168 C   0  0  2  0  0  0  0  0  0  0  0  0
    8.6773  -14.5622   19.7904 N   0  0  0  0  0  0  0  0  0  0  0  0
    8.6776  -15.3168   22.0911 C   0  0  0  0  0  0  0  0  0  0  0  0
    9.8716  -15.0520   22.2951 O   0  0  0  0  0  0  0  0  0  0  0  0
    7.0689  -10.7508   26.1796 C   0  0  0  0  0  0  0  0  0  0  0  0
    7.4272  -12.5133   26.4393 S   0  0  0  0  0  0  0  0  0  0  0  0
    6.6998  -13.4287   25.0754 C   0  0  0  0  0  0  0  0  0  0  0  0
    6.8930  -14.9127   25.3245 C   0  0  0  0  0  0  0  0  0  0  0  0
    8.1523  -15.3100   24.5578 C   0  0  2  0  0  0  0  0  0  0  0  0
    7.7971  -15.3797   23.1699 N   0  0  0  0  0  0  0  0  0  0  0  0
    8.8180  -16.4895   25.0873 C   0  0  0  0  0  0  0  0  0  0  0  0
    8.2119  -17.5938   25.0811 O   0  0  0  0  0  0  0  0  0  0  0  0
   10.1184  -16.4578   25.6112 N   0  0  0  0  0  0  0  0  0  0  0  0
   10.7711  -17.6010   26.2546 C   0  0  1  0  0  0  0  0  0  0  0  0
   12.2663  -17.5071   26.0829 C   0  0  0  0  0  0  0  0  0  0  0  0
   12.7133  -17.8588   24.7270 C   0  0  0  0  0  0  0  0  0  0  0  0
   11.8896  -18.1979   23.8176 O   0  0  0  0  0  0  0  0  0  0  0  0
   10.3322  -17.7047   27.6631 C   0  0  0  0  0  0  0  0  0  0  0  0
    9.7167  -16.7127   28.1964 O   0  0  0  0  0  0  0  0  0  0  0  0
   14.0589  -17.8376   24.3857 O   0  0  0  0  0  0  0  0  0  0  0  0
   10.5313  -18.7870   28.4572 O   0  0  0  0  0  0  0  0  0  0  0  0
  2  4  1  0
  2  1  1  1
  3  2  1  0
  4  5  1  6
  6  4  1  0
  6 13  1  0
  7  6  2  0
  9  8  1  0
 10  9  1  0
 11 10  1  0
 12 11  1  1
 12 13  1  0
 14 16  1  0
 14 12  1  0
 15 14  2  0
 17 16  1  0
 17 21  1  0
 17 18  1  1
 19 18  1  0
 19 20  2  0
 21 22  2  0
 21 24  1  0
 23 19  1  0
M  END
$$$$
