VMD.pdb
     RDKit          3D

 24 23  0  0  1  0  0  0  0  0999 V2000
    6.5645  -17.3752   19.0499 C   0  0  0  0  0  0  0  0  0  0  0  0
    7.3396  -17.0550   20.3065 C   0  0  1  0  0  0  0  0  0  0  0  0
    8.5520  -17.9748   20.3425 C   0  0  0  0  0  0  0  0  0  0  0  0
    7.8062  -15.6085   20.2940 C   0  0  2  0  0  0  0  0  0  0  0  0
    8.6982  -15.3978   19.1613 N   0  0  0  0  0  0  0  0  0  0  0  0
    8.4805  -15.2518   21.5683 C   0  0  0  0  0  0  0  0  0  0  0  0
    9.7130  -15.3268   21.6815 O   0  0  0  0  0  0  0  0  0  0  0  0
    6.7806  -11.1102   26.9943 C   0  0  0  0  0  0  0  0  0  0  0  0
    6.3496  -12.8696   27.1388 S   0  0  0  0  0  0  0  0  0  0  0  0
    7.5567  -13.8103   26.1978 C   0  0  0  0  0  0  0  0  0  0  0  0
    7.0505  -13.9720   24.7768 C   0  0  0  0  0  0  0  0  0  0  0  0
    8.1978  -14.5984   23.9877 C   0  0  2  0  0  0  0  0  0  0  0  0
    7.7185  -14.8265   22.6552 N   0  0  0  0  0  0  0  0  0  0  0  0
    8.7990  -15.7527   24.6364 C   0  0  0  0  0  0  0  0  0  0  0  0
    8.1402  -16.8228   24.7236 O   0  0  0  0  0  0  0  0  0  0  0  0
   10.0930  -15.7331   25.1765 N   0  0  0  0  0  0  0  0  0  0  0  0
   10.7306  -16.8852   25.8192 C   0  0  1  0  0  0  0  0  0  0  0  0
   12.2198  -16.8499   25.5847 C   0  0  0  0  0  0  0  0  0  0  0  0
   12.5863  -17.0663   24.1773 C   0  0  0  0  0  0  0  0  0  0  0  0
   11.9882  -17.9267   23.4546 O   0  0  0  0  0  0  0  0  0  0  0  0
   10.3471  -16.9422   27.2464 C   0  0  0  0  0  0  0  0  0  0  0  0
    9.8215  -15.9052   27.7901 O   0  0  0  0  0  0  0  0  0  0  0  0
   13.6069  -16.3385   23.5802 O   0  0  0  0  0  0  0  0  0  0  0  0
   10.5089  -18.0254   28.0477 O   0  0  0  0  0  0  0  0  0  0  0  0
  2  4  1  0
  2  1  1  6
  3  2  1  0
  4  5  1  6
  6  4  1  0
  6 13  1  0
  7  6  2  0
  9  8  1  0
 10  9  1  0
 11 10  1  0
 12 11  1  1
 12 13  1  0
 14 16  1  0
 14 12  1  0
 15 14  2  0
 17 16  1  0
 17 21  1  0
 17 18  1  1
 19 18  1  0
 19 20  2  0
 21 22  2  0
 21 24  1  0
 23 19  1  0
M  END
$$$$
