VMD.pdb
     RDKit          3D

 24 23  0  0  1  0  0  0  0  0999 V2000
    7.4005  -15.9008   20.3557 C   0  0  0  0  0  0  0  0  0  0  0  0
    7.9816  -14.6519   19.7351 C   0  0  1  0  0  0  0  0  0  0  0  0
    7.3029  -14.4532   18.3871 C   0  0  0  0  0  0  0  0  0  0  0  0
    7.7145  -13.4422   20.6157 C   0  0  2  0  0  0  0  0  0  0  0  0
    8.2504  -12.2489   19.9738 N   0  0  0  0  0  0  0  0  0  0  0  0
    8.3037  -13.6224   21.9670 C   0  0  0  0  0  0  0  0  0  0  0  0
    9.5308  -13.5790   22.1397 O   0  0  0  0  0  0  0  0  0  0  0  0
    6.7076  -12.0810   28.2512 C   0  0  0  0  0  0  0  0  0  0  0  0
    7.6119  -11.7612   26.7078 S   0  0  0  0  0  0  0  0  0  0  0  0
    6.6189  -12.3891   25.3487 C   0  0  0  0  0  0  0  0  0  0  0  0
    6.7260  -13.9022   25.3233 C   0  0  0  0  0  0  0  0  0  0  0  0
    7.8797  -14.2288   24.3780 C   0  0  2  0  0  0  0  0  0  0  0  0
    7.4668  -13.8443   23.0593 N   0  0  0  0  0  0  0  0  0  0  0  0
    8.3751  -15.5906   24.5001 C   0  0  0  0  0  0  0  0  0  0  0  0
    7.6880  -16.5397   24.0377 O   0  0  0  0  0  0  0  0  0  0  0  0
    9.5960  -15.9033   25.1150 N   0  0  0  0  0  0  0  0  0  0  0  0
   10.1518  -17.2568   25.1927 C   0  0  1  0  0  0  0  0  0  0  0  0
   11.2448  -17.4269   24.1678 C   0  0  0  0  0  0  0  0  0  0  0  0
   11.9318  -18.7230   24.2684 C   0  0  0  0  0  0  0  0  0  0  0  0
   13.0253  -18.8532   24.9070 O   0  0  0  0  0  0  0  0  0  0  0  0
   10.5759  -17.5487   26.5791 C   0  0  0  0  0  0  0  0  0  0  0  0
   10.5831  -16.5966   27.4398 O   0  0  0  0  0  0  0  0  0  0  0  0
   11.4128  -19.8603   23.6645 O   0  0  0  0  0  0  0  0  0  0  0  0
   10.9674  -18.7683   27.0273 O   0  0  0  0  0  0  0  0  0  0  0  0
  2  4  1  0
  2  1  1  1
  3  2  1  0
  4  5  1  6
  6  4  1  0
  6 13  1  0
  7  6  2  0
  9  8  1  0
 10  9  1  0
 11 10  1  0
 12 11  1  1
 12 13  1  0
 14 16  1  0
 14 12  1  0
 15 14  2  0
 17 16  1  0
 17 21  1  0
 17 18  1  6
 19 18  1  0
 19 20  2  0
 21 22  2  0
 21 24  1  0
 23 19  1  0
M  END
$$$$
