VTN.pdb
     RDKit          3D

 23 22  0  0  1  0  0  0  0  0999 V2000
    9.0986  -19.6692   18.3492 C   0  0  0  0  0  0  0  0  0  0  0  0
    7.6363  -19.2082   18.2895 C   0  0  2  0  0  0  0  0  0  0  0  0
    6.9668  -20.0444   17.2470 C   0  0  0  0  0  0  0  0  0  0  0  0
    7.6683  -17.7463   17.9493 C   0  0  2  0  0  0  0  0  0  0  0  0
    8.1147  -17.5915   16.5767 N   0  0  0  0  0  0  0  0  0  0  0  0
    8.5013  -16.9281   18.8535 C   0  0  0  0  0  0  0  0  0  0  0  0
    9.7146  -16.7502   18.6252 O   0  0  0  0  0  0  0  0  0  0  0  0
    7.5082  -13.4131   20.2949 C   0  0  0  0  0  0  0  0  0  0  0  0
    7.8185  -14.3820   21.3944 C   0  0  1  0  0  0  0  0  0  0  0  0
    6.6079  -14.8106   21.9449 O   0  0  0  0  0  0  0  0  0  0  0  0
    8.6747  -15.5319   20.9551 C   0  0  2  0  0  0  0  0  0  0  0  0
    7.9296  -16.3299   20.0011 N   0  0  0  0  0  0  0  0  0  0  0  0
    8.9292  -16.3881   22.1624 C   0  0  0  0  0  0  0  0  0  0  0  0
    8.4995  -17.5552   22.2914 O   0  0  0  0  0  0  0  0  0  0  0  0
   12.5537  -19.3977   23.7610 N   0  0  0  0  0  0  0  0  0  0  0  0
   12.7687  -18.0247   23.5108 C   0  0  0  0  0  0  0  0  0  0  0  0
   13.8813  -17.5261   23.8346 O   0  0  0  0  0  0  0  0  0  0  0  0
   11.7243  -17.2165   22.8932 C   0  0  0  0  0  0  0  0  0  0  0  0
   10.7263  -16.6713   23.8920 C   0  0  2  0  0  0  0  0  0  0  0  0
    9.7010  -15.8866   23.2583 N   0  0  0  0  0  0  0  0  0  0  0  0
   11.3272  -16.0246   25.0604 C   0  0  0  0  0  0  0  0  0  0  0  0
   11.5566  -16.7548   26.0878 O   0  0  0  0  0  0  0  0  0  0  0  0
   11.6798  -14.7012   25.1834 O   0  0  0  0  0  0  0  0  0  0  0  0
  2  1  1  6
  2  3  1  0
  4  6  1  0
  4  2  1  0
  4  5  1  6
  6 12  1  0
  7  6  2  0
  9 10  1  0
  9  8  1  6
  9 11  1  0
 11 13  1  0
 11 12  1  6
 13 20  1  0
 13 14  2  0
 16 15  1  0
 16 18  1  0
 17 16  2  0
 19 21  1  0
 19 18  1  6
 20 19  1  0
 21 23  1  0
 22 21  2  0
M  END
$$$$
