VTN.pdb
     RDKit          3D

 23 22  0  0  1  0  0  0  0  0999 V2000
    7.7546  -15.0142   16.9329 C   0  0  0  0  0  0  0  0  0  0  0  0
    8.5781  -15.0910   18.2253 C   0  0  2  0  0  0  0  0  0  0  0  0
    8.4402  -16.4884   18.7376 C   0  0  0  0  0  0  0  0  0  0  0  0
    8.0055  -14.0583   19.1525 C   0  0  2  0  0  0  0  0  0  0  0  0
    8.0554  -12.7615   18.5019 N   0  0  0  0  0  0  0  0  0  0  0  0
    8.6629  -13.9935   20.4734 C   0  0  0  0  0  0  0  0  0  0  0  0
    9.8152  -13.5321   20.5963 O   0  0  0  0  0  0  0  0  0  0  0  0
    6.8974  -12.9539   23.9888 C   0  0  0  0  0  0  0  0  0  0  0  0
    7.4921  -14.3286   23.9690 C   0  0  1  0  0  0  0  0  0  0  0  0
    6.4535  -15.2442   23.7814 O   0  0  0  0  0  0  0  0  0  0  0  0
    8.5798  -14.4959   22.9507 C   0  0  2  0  0  0  0  0  0  0  0  0
    7.9889  -14.4583   21.6272 N   0  0  0  0  0  0  0  0  0  0  0  0
    9.1700  -15.8630   23.1456 C   0  0  0  0  0  0  0  0  0  0  0  0
    9.1329  -16.7670   22.2825 O   0  0  0  0  0  0  0  0  0  0  0  0
   12.2802  -19.9193   23.0645 N   0  0  0  0  0  0  0  0  0  0  0  0
   12.5514  -18.6637   23.6509 C   0  0  0  0  0  0  0  0  0  0  0  0
   13.5894  -18.5470   24.3582 O   0  0  0  0  0  0  0  0  0  0  0  0
   11.6479  -17.5400   23.4356 C   0  0  0  0  0  0  0  0  0  0  0  0
   10.5972  -17.4069   24.5170 C   0  0  2  0  0  0  0  0  0  0  0  0
    9.8227  -16.2036   24.3728 N   0  0  0  0  0  0  0  0  0  0  0  0
   11.0928  -17.6305   25.8766 C   0  0  0  0  0  0  0  0  0  0  0  0
   11.3546  -16.5977   26.5881 O   0  0  0  0  0  0  0  0  0  0  0  0
   11.3131  -18.8424   26.4880 O   0  0  0  0  0  0  0  0  0  0  0  0
  2  1  1  6
  2  3  1  0
  4  6  1  0
  4  2  1  0
  4  5  1  6
  6 12  1  0
  7  6  2  0
  9 10  1  0
  9  8  1  6
  9 11  1  0
 11 13  1  0
 11 12  1  6
 13 20  1  0
 13 14  2  0
 16 15  1  0
 16 18  1  0
 17 16  2  0
 19 21  1  0
 19 18  1  6
 20 19  1  0
 21 23  1  0
 22 21  2  0
M  END
$$$$
