VTN.pdb
     RDKit          3D

 23 22  0  0  1  0  0  0  0  0999 V2000
    9.5446  -19.4727   18.0750 C   0  0  0  0  0  0  0  0  0  0  0  0
    8.3106  -18.8861   17.3768 C   0  0  2  0  0  0  0  0  0  0  0  0
    7.9449  -19.8381   16.2840 C   0  0  0  0  0  0  0  0  0  0  0  0
    8.7147  -17.5304   16.8742 C   0  0  2  0  0  0  0  0  0  0  0  0
    9.7403  -17.6905   15.8594 N   0  0  0  0  0  0  0  0  0  0  0  0
    9.1766  -16.6029   17.9266 C   0  0  0  0  0  0  0  0  0  0  0  0
   10.3841  -16.5237   18.2291 O   0  0  0  0  0  0  0  0  0  0  0  0
    7.7192  -12.8640   20.9145 C   0  0  0  0  0  0  0  0  0  0  0  0
    7.4652  -13.8871   19.8503 C   0  0  1  0  0  0  0  0  0  0  0  0
    7.1163  -13.2115   18.6782 O   0  0  0  0  0  0  0  0  0  0  0  0
    8.6138  -14.8269   19.6369 C   0  0  2  0  0  0  0  0  0  0  0  0
    8.2478  -15.7850   18.6120 N   0  0  0  0  0  0  0  0  0  0  0  0
    8.8155  -15.5863   20.9168 C   0  0  0  0  0  0  0  0  0  0  0  0
    8.0857  -16.5312   21.2882 O   0  0  0  0  0  0  0  0  0  0  0  0
   12.2652  -17.6861   21.7752 N   0  0  0  0  0  0  0  0  0  0  0  0
   12.5207  -16.4395   22.3874 C   0  0  0  0  0  0  0  0  0  0  0  0
   13.5464  -15.7981   22.0301 O   0  0  0  0  0  0  0  0  0  0  0  0
   11.6142  -15.9188   23.4035 C   0  0  0  0  0  0  0  0  0  0  0  0
   10.1582  -15.9978   22.9974 C   0  0  2  0  0  0  0  0  0  0  0  0
    9.8897  -15.2480   21.7999 N   0  0  0  0  0  0  0  0  0  0  0  0
    9.2098  -15.7373   24.0823 C   0  0  0  0  0  0  0  0  0  0  0  0
    8.6004  -14.6103   24.0772 O   0  0  0  0  0  0  0  0  0  0  0  0
    8.8924  -16.5777   25.1234 O   0  0  0  0  0  0  0  0  0  0  0  0
  2  1  1  6
  2  3  1  0
  4  6  1  0
  4  2  1  0
  4  5  1  6
  6 12  1  0
  7  6  2  0
  9 10  1  0
  9  8  1  1
  9 11  1  0
 11 13  1  0
 11 12  1  6
 13 20  1  0
 13 14  2  0
 16 15  1  0
 16 18  1  0
 17 16  2  0
 19 21  1  0
 19 18  1  1
 20 19  1  0
 21 23  1  0
 22 21  2  0
M  END
$$$$
