VTN.pdb
     RDKit          3D

 23 22  0  0  1  0  0  0  0  0999 V2000
    9.9018  -12.3547   19.9389 C   0  0  0  0  0  0  0  0  0  0  0  0
    8.6053  -12.4909   19.1296 C   0  0  2  0  0  0  0  0  0  0  0  0
    7.5108  -12.7449   20.1153 C   0  0  0  0  0  0  0  0  0  0  0  0
    8.8217  -13.6290   18.1746 C   0  0  2  0  0  0  0  0  0  0  0  0
    7.6544  -13.7563   17.3211 N   0  0  0  0  0  0  0  0  0  0  0  0
    9.1240  -14.9205   18.8239 C   0  0  0  0  0  0  0  0  0  0  0  0
    8.2097  -15.6666   19.2283 O   0  0  0  0  0  0  0  0  0  0  0  0
   10.7031  -17.7877   17.3729 C   0  0  0  0  0  0  0  0  0  0  0  0
   11.5695  -17.4102   18.5351 C   0  0  1  0  0  0  0  0  0  0  0  0
   12.6925  -16.7450   18.0366 O   0  0  0  0  0  0  0  0  0  0  0  0
   10.8549  -16.6035   19.5775 C   0  0  2  0  0  0  0  0  0  0  0  0
   10.4662  -15.3326   18.9978 N   0  0  0  0  0  0  0  0  0  0  0  0
   11.8382  -16.3192   20.6765 C   0  0  0  0  0  0  0  0  0  0  0  0
   12.5038  -15.2639   20.7596 O   0  0  0  0  0  0  0  0  0  0  0  0
    9.9167  -17.6511   24.3231 N   0  0  0  0  0  0  0  0  0  0  0  0
   11.0968  -16.8832   24.4306 C   0  0  0  0  0  0  0  0  0  0  0  0
   10.9944  -15.6786   24.7908 O   0  0  0  0  0  0  0  0  0  0  0  0
   12.3931  -17.4795   24.1314 C   0  0  0  0  0  0  0  0  0  0  0  0
   12.9649  -17.0238   22.8061 C   0  0  2  0  0  0  0  0  0  0  0  0
   12.0659  -17.2794   21.7130 N   0  0  0  0  0  0  0  0  0  0  0  0
   14.3395  -17.4616   22.5547 C   0  0  0  0  0  0  0  0  0  0  0  0
   15.2308  -17.1356   23.4153 O   0  0  0  0  0  0  0  0  0  0  0  0
   14.7912  -18.1951   21.4828 O   0  0  0  0  0  0  0  0  0  0  0  0
  2  1  1  1
  2  3  1  0
  4  6  1  0
  4  2  1  0
  4  5  1  1
  6 12  1  0
  7  6  2  0
  9 10  1  0
  9  8  1  6
  9 11  1  0
 11 13  1  0
 11 12  1  6
 13 20  1  0
 13 14  2  0
 16 15  1  0
 16 18  1  0
 17 16  2  0
 19 21  1  0
 19 18  1  1
 20 19  1  0
 21 23  1  0
 22 21  2  0
M  END
$$$$
