VTN.pdb
     RDKit          3D

 23 22  0  0  1  0  0  0  0  0999 V2000
   14.7585  -15.7931   18.5705 C   0  0  0  0  0  0  0  0  0  0  0  0
   13.6401  -16.2678   17.6333 C   0  0  2  0  0  0  0  0  0  0  0  0
   14.3038  -17.0031   16.5139 C   0  0  0  0  0  0  0  0  0  0  0  0
   12.9124  -15.0333   17.1854 C   0  0  2  0  0  0  0  0  0  0  0  0
   13.8436  -14.1640   16.4893 N   0  0  0  0  0  0  0  0  0  0  0  0
   12.2382  -14.2950   18.2723 C   0  0  0  0  0  0  0  0  0  0  0  0
   12.8559  -13.4584   18.9610 O   0  0  0  0  0  0  0  0  0  0  0  0
    8.2708  -13.0400   18.0933 C   0  0  0  0  0  0  0  0  0  0  0  0
    8.6634  -13.9077   19.2494 C   0  0  1  0  0  0  0  0  0  0  0  0
    8.2528  -15.2130   18.9668 O   0  0  0  0  0  0  0  0  0  0  0  0
   10.1237  -13.8373   19.5821 C   0  0  2  0  0  0  0  0  0  0  0  0
   10.8707  -14.5289   18.5498 N   0  0  0  0  0  0  0  0  0  0  0  0
   10.3270  -14.5858   20.8682 C   0  0  0  0  0  0  0  0  0  0  0  0
    9.8829  -14.2049   21.9732 O   0  0  0  0  0  0  0  0  0  0  0  0
    9.9888  -19.1069   23.9236 N   0  0  0  0  0  0  0  0  0  0  0  0
   11.0680  -18.8757   23.0428 C   0  0  0  0  0  0  0  0  0  0  0  0
   12.1832  -19.3987   23.3148 O   0  0  0  0  0  0  0  0  0  0  0  0
   10.8841  -18.0530   21.8533 C   0  0  0  0  0  0  0  0  0  0  0  0
   11.2171  -16.5944   22.0825 C   0  0  2  0  0  0  0  0  0  0  0  0
   11.0663  -15.8111   20.8857 N   0  0  0  0  0  0  0  0  0  0  0  0
   12.4813  -16.3627   22.7843 C   0  0  0  0  0  0  0  0  0  0  0  0
   12.5584  -16.7435   24.0051 O   0  0  0  0  0  0  0  0  0  0  0  0
   13.6145  -15.7736   22.2747 O   0  0  0  0  0  0  0  0  0  0  0  0
  2  1  1  1
  2  3  1  0
  4  6  1  0
  4  2  1  0
  4  5  1  1
  6 12  1  0
  7  6  2  0
  9 10  1  0
  9  8  1  6
  9 11  1  0
 11 13  1  0
 11 12  1  6
 13 20  1  0
 13 14  2  0
 16 15  1  0
 16 18  1  0
 17 16  2  0
 19 21  1  0
 19 18  1  6
 20 19  1  0
 21 23  1  0
 22 21  2  0
M  END
$$$$
