VTN.pdb
     RDKit          3D

 23 22  0  0  1  0  0  0  0  0999 V2000
    7.9291  -19.3453   18.5281 C   0  0  0  0  0  0  0  0  0  0  0  0
    6.6312  -18.5474   18.3452 C   0  0  2  0  0  0  0  0  0  0  0  0
    5.7321  -19.3835   17.4926 C   0  0  0  0  0  0  0  0  0  0  0  0
    7.0217  -17.2481   17.7022 C   0  0  2  0  0  0  0  0  0  0  0  0
    7.3991  -17.4994   16.3232 N   0  0  0  0  0  0  0  0  0  0  0  0
    8.0991  -16.5207   18.4031 C   0  0  0  0  0  0  0  0  0  0  0  0
    9.2875  -16.6242   18.0386 O   0  0  0  0  0  0  0  0  0  0  0  0
    7.8798  -12.7804   19.6065 C   0  0  0  0  0  0  0  0  0  0  0  0
    8.2395  -13.6851   20.7448 C   0  0  1  0  0  0  0  0  0  0  0  0
    7.1081  -13.8329   21.5513 O   0  0  0  0  0  0  0  0  0  0  0  0
    8.7941  -15.0074   20.3065 C   0  0  2  0  0  0  0  0  0  0  0  0
    7.7953  -15.6897   19.5071 N   0  0  0  0  0  0  0  0  0  0  0  0
    9.0246  -15.8287   21.5426 C   0  0  0  0  0  0  0  0  0  0  0  0
    8.2397  -16.7142   21.9466 O   0  0  0  0  0  0  0  0  0  0  0  0
   10.7569  -19.9934   23.8590 N   0  0  0  0  0  0  0  0  0  0  0  0
   11.5570  -18.9896   23.2706 C   0  0  0  0  0  0  0  0  0  0  0  0
   12.8009  -19.0199   23.4779 O   0  0  0  0  0  0  0  0  0  0  0  0
   10.9487  -17.9522   22.4465 C   0  0  0  0  0  0  0  0  0  0  0  0
   10.7254  -16.6548   23.1936 C   0  0  2  0  0  0  0  0  0  0  0  0
   10.1942  -15.6250   22.3416 N   0  0  0  0  0  0  0  0  0  0  0  0
   11.8618  -16.2193   24.0081 C   0  0  0  0  0  0  0  0  0  0  0  0
   12.7665  -15.5171   23.4338 O   0  0  0  0  0  0  0  0  0  0  0  0
   12.0728  -16.4818   25.3413 O   0  0  0  0  0  0  0  0  0  0  0  0
  2  1  1  6
  2  3  1  0
  4  6  1  0
  4  2  1  0
  4  5  1  6
  6 12  1  0
  7  6  2  0
  9 10  1  0
  9  8  1  6
  9 11  1  0
 11 13  1  0
 11 12  1  6
 13 20  1  0
 13 14  2  0
 16 15  1  0
 16 18  1  0
 17 16  2  0
 19 21  1  0
 19 18  1  6
 20 19  1  0
 21 23  1  0
 22 21  2  0
M  END
$$$$
