VTN.pdb
     RDKit          3D

 23 22  0  0  1  0  0  0  0  0999 V2000
    7.1101  -13.1445   21.3127 C   0  0  0  0  0  0  0  0  0  0  0  0
    8.4947  -13.0795   20.6544 C   0  0  2  0  0  0  0  0  0  0  0  0
    8.3867  -12.1038   19.5273 C   0  0  0  0  0  0  0  0  0  0  0  0
    8.8137  -14.4757   20.2041 C   0  0  2  0  0  0  0  0  0  0  0  0
    8.0044  -14.7924   19.0414 N   0  0  0  0  0  0  0  0  0  0  0  0
    8.6380  -15.5074   21.2461 C   0  0  0  0  0  0  0  0  0  0  0  0
    7.5229  -16.0251   21.4570 O   0  0  0  0  0  0  0  0  0  0  0  0
   10.0915  -18.8166   21.4764 C   0  0  0  0  0  0  0  0  0  0  0  0
   10.5469  -18.0815   22.6995 C   0  0  1  0  0  0  0  0  0  0  0  0
   11.8695  -17.6809   22.4933 O   0  0  0  0  0  0  0  0  0  0  0  0
    9.6617  -16.9294   23.0699 C   0  0  2  0  0  0  0  0  0  0  0  0
    9.7415  -15.9260   22.0263 N   0  0  0  0  0  0  0  0  0  0  0  0
   10.2177  -16.3227   24.3262 C   0  0  0  0  0  0  0  0  0  0  0  0
   11.0509  -15.3904   24.3397 O   0  0  0  0  0  0  0  0  0  0  0  0
    9.2191  -13.1400   26.8752 N   0  0  0  0  0  0  0  0  0  0  0  0
    9.4744  -14.1168   27.8624 C   0  0  0  0  0  0  0  0  0  0  0  0
    9.9551  -13.7390   28.9658 O   0  0  0  0  0  0  0  0  0  0  0  0
    9.1845  -15.5214   27.6007 C   0  0  0  0  0  0  0  0  0  0  0  0
   10.2851  -16.2222   26.8335 C   0  0  2  0  0  0  0  0  0  0  0  0
    9.8046  -16.8040   25.6091 N   0  0  0  0  0  0  0  0  0  0  0  0
   11.1025  -17.1323   27.6386 C   0  0  0  0  0  0  0  0  0  0  0  0
   10.9227  -18.3902   27.4749 O   0  0  0  0  0  0  0  0  0  0  0  0
   12.0572  -16.7859   28.5656 O   0  0  0  0  0  0  0  0  0  0  0  0
  2  1  1  6
  2  3  1  0
  4  6  1  0
  4  2  1  0
  4  5  1  6
  6 12  1  0
  7  6  2  0
  9 10  1  0
  9  8  1  6
  9 11  1  0
 11 13  1  0
 11 12  1  6
 13 20  1  0
 13 14  2  0
 16 15  1  0
 16 18  1  0
 17 16  2  0
 19 21  1  0
 19 18  1  1
 20 19  1  0
 21 23  1  0
 22 21  2  0
M  END
$$$$
