VTN.pdb
     RDKit          3D

 23 22  0  0  1  0  0  0  0  0999 V2000
    7.5968  -12.6539   19.9928 C   0  0  0  0  0  0  0  0  0  0  0  0
    8.5365  -13.2647   18.9447 C   0  0  2  0  0  0  0  0  0  0  0  0
    7.7576  -13.3526   17.6719 C   0  0  0  0  0  0  0  0  0  0  0  0
    8.9532  -14.6037   19.4808 C   0  0  2  0  0  0  0  0  0  0  0  0
    7.8476  -15.5335   19.3375 N   0  0  0  0  0  0  0  0  0  0  0  0
    9.4239  -14.5804   20.8804 C   0  0  0  0  0  0  0  0  0  0  0  0
   10.4645  -13.9707   21.1987 O   0  0  0  0  0  0  0  0  0  0  0  0
    6.9619  -14.2023   24.0738 C   0  0  0  0  0  0  0  0  0  0  0  0
    7.8448  -15.4113   24.1239 C   0  0  1  0  0  0  0  0  0  0  0  0
    7.0765  -16.5207   23.7615 O   0  0  0  0  0  0  0  0  0  0  0  0
    9.0810  -15.2852   23.2849 C   0  0  2  0  0  0  0  0  0  0  0  0
    8.6949  -15.2552   21.8877 N   0  0  0  0  0  0  0  0  0  0  0  0
    9.8993  -16.5255   23.5031 C   0  0  0  0  0  0  0  0  0  0  0  0
   10.0379  -17.4275   22.6484 O   0  0  0  0  0  0  0  0  0  0  0  0
   13.9530  -19.5357   23.7084 N   0  0  0  0  0  0  0  0  0  0  0  0
   13.9644  -18.3085   24.4069 C   0  0  0  0  0  0  0  0  0  0  0  0
   14.9220  -18.0794   25.1954 O   0  0  0  0  0  0  0  0  0  0  0  0
   12.8920  -17.3404   24.2119 C   0  0  0  0  0  0  0  0  0  0  0  0
   11.6007  -17.7387   24.8939 C   0  0  2  0  0  0  0  0  0  0  0  0
   10.5793  -16.7373   24.7444 N   0  0  0  0  0  0  0  0  0  0  0  0
   11.7620  -18.2169   26.2686 C   0  0  0  0  0  0  0  0  0  0  0  0
   11.4031  -17.4305   27.2142 O   0  0  0  0  0  0  0  0  0  0  0  0
   12.2626  -19.4338   26.6678 O   0  0  0  0  0  0  0  0  0  0  0  0
  2  1  1  1
  2  3  1  0
  4  6  1  0
  4  2  1  0
  4  5  1  1
  6 12  1  0
  7  6  2  0
  9 10  1  0
  9  8  1  6
  9 11  1  0
 11 13  1  0
 11 12  1  6
 13 20  1  0
 13 14  2  0
 16 15  1  0
 16 18  1  0
 17 16  2  0
 19 21  1  0
 19 18  1  1
 20 19  1  0
 21 23  1  0
 22 21  2  0
M  END
$$$$
