VTN.pdb
     RDKit          3D

 23 22  0  0  1  0  0  0  0  0999 V2000
    7.4775  -12.1034   18.3074 C   0  0  0  0  0  0  0  0  0  0  0  0
    7.9581  -13.1322   19.3394 C   0  0  2  0  0  0  0  0  0  0  0  0
    9.0303  -12.4659   20.1398 C   0  0  0  0  0  0  0  0  0  0  0  0
    8.4482  -14.3166   18.5577 C   0  0  2  0  0  0  0  0  0  0  0  0
    7.3665  -14.8131   17.7267 N   0  0  0  0  0  0  0  0  0  0  0  0
    8.9993  -15.4079   19.3862 C   0  0  0  0  0  0  0  0  0  0  0  0
    8.2527  -16.1339   20.0729 O   0  0  0  0  0  0  0  0  0  0  0  0
   10.7513  -18.3826   18.4335 C   0  0  0  0  0  0  0  0  0  0  0  0
   11.6990  -17.6562   19.3379 C   0  0  1  0  0  0  0  0  0  0  0  0
   12.6842  -17.0644   18.5432 O   0  0  0  0  0  0  0  0  0  0  0  0
   11.0264  -16.6601   20.2342 C   0  0  2  0  0  0  0  0  0  0  0  0
   10.3935  -15.6468   19.4128 N   0  0  0  0  0  0  0  0  0  0  0  0
   12.0995  -15.9859   21.0401 C   0  0  0  0  0  0  0  0  0  0  0  0
   12.1371  -14.7552   21.2580 O   0  0  0  0  0  0  0  0  0  0  0  0
   14.2641  -16.1449   25.6272 N   0  0  0  0  0  0  0  0  0  0  0  0
   12.8906  -16.2498   25.3170 C   0  0  0  0  0  0  0  0  0  0  0  0
   12.0563  -16.1408   26.2568 O   0  0  0  0  0  0  0  0  0  0  0  0
   12.4616  -16.4772   23.9423 C   0  0  0  0  0  0  0  0  0  0  0  0
   13.6142  -16.5413   22.9632 C   0  0  2  0  0  0  0  0  0  0  0  0
   13.1652  -16.7502   21.6129 N   0  0  0  0  0  0  0  0  0  0  0  0
   14.7056  -17.4303   23.3667 C   0  0  0  0  0  0  0  0  0  0  0  0
   14.4638  -18.6882   23.3956 O   0  0  0  0  0  0  0  0  0  0  0  0
   15.9819  -17.0640   23.7240 O   0  0  0  0  0  0  0  0  0  0  0  0
  2  1  1  6
  2  3  1  0
  4  6  1  0
  4  2  1  0
  4  5  1  1
  6 12  1  0
  7  6  2  0
  9 10  1  0
  9  8  1  6
  9 11  1  0
 11 13  1  0
 11 12  1  6
 13 20  1  0
 13 14  2  0
 16 15  1  0
 16 18  1  0
 17 16  2  0
 19 21  1  0
 19 18  1  1
 20 19  1  0
 21 23  1  0
 22 21  2  0
M  END
$$$$
