VDF.pdb
     RDKit          3D

 27 27  0  0  1  0  0  0  0  0999 V2000
    8.4276  -12.7540   18.6266 C   0  0  0  0  0  0  0  0  0  0  0  0
    8.5911  -13.7750   19.7222 C   0  0  1  0  0  0  0  0  0  0  0  0
    7.3033  -13.8339   20.5098 C   0  0  0  0  0  0  0  0  0  0  0  0
    8.9362  -15.1435   19.1769 C   0  0  2  0  0  0  0  0  0  0  0  0
    7.8902  -15.6388   18.3124 N   0  0  0  0  0  0  0  0  0  0  0  0
    9.2442  -16.0730   20.2790 C   0  0  0  0  0  0  0  0  0  0  0  0
    8.3801  -16.9244   20.6073 O   0  0  0  0  0  0  0  0  0  0  0  0
   10.4647  -16.0665   20.9979 N   0  0  0  0  0  0  0  0  0  0  0  0
   10.7199  -17.0019   22.0738 C   0  0  1  0  0  0  0  0  0  0  0  0
   12.1856  -17.2574   22.2479 C   0  0  0  0  0  0  0  0  0  0  0  0
   12.8359  -17.8445   21.0794 C   0  0  0  0  0  0  0  0  0  0  0  0
   12.1469  -18.4971   20.2591 O   0  0  0  0  0  0  0  0  0  0  0  0
   10.0637  -16.5695   23.3361 C   0  0  0  0  0  0  0  0  0  0  0  0
   10.1941  -17.1940   24.4167 O   0  0  0  0  0  0  0  0  0  0  0  0
   14.1914  -17.7125   20.8331 O   0  0  0  0  0  0  0  0  0  0  0  0
    9.2484  -15.4040   23.3522 N   0  0  0  0  0  0  0  0  0  0  0  0
    8.6169  -14.9085   24.5874 C   0  0  1  0  0  0  0  0  0  0  0  0
    7.9209  -13.6110   24.3446 C   0  0  0  0  0  0  0  0  0  0  0  0
    7.4605  -13.0344   25.6136 C   0  0  0  0  0  0  0  0  0  0  0  0
    6.1468  -13.1682   26.0106 C   0  0  0  0  0  0  0  0  0  0  0  0
    5.6989  -12.6485   27.2034 C   0  0  0  0  0  0  0  0  0  0  0  0
    6.5497  -11.9787   28.0372 C   0  0  0  0  0  0  0  0  0  0  0  0
    7.8590  -11.8377   27.6558 C   0  0  0  0  0  0  0  0  0  0  0  0
    8.3201  -12.3613   26.4492 C   0  0  0  0  0  0  0  0  0  0  0  0
    7.7964  -15.9653   25.2021 C   0  0  0  0  0  0  0  0  0  0  0  0
    6.8010  -16.6740   24.5525 O   0  0  0  0  0  0  0  0  0  0  0  0
    7.9635  -16.3030   26.4276 O   0  0  0  0  0  0  0  0  0  0  0  0
  2  3  1  6
  2  1  1  0
  4  2  1  0
  4  5  1  1
  6  7  2  0
  6  4  1  0
  8  6  1  0
  9  8  1  0
  9 10  1  1
 11 10  1  0
 12 11  2  0
 13 16  1  0
 13  9  1  0
 14 13  2  0
 15 11  1  0
 17 16  1  0
 17 25  1  0
 17 18  1  6
 19 20  2  0
 19 18  1  0
 21 20  1  0
 22 21  2  0
 23 22  1  0
 23 24  2  0
 24 19  1  0
 25 26  1  0
 27 25  2  0
M  END
$$$$
