VDF.pdb
     RDKit          3D

 27 27  0  0  1  0  0  0  0  0999 V2000
    7.6795  -12.4180   19.2311 C   0  0  0  0  0  0  0  0  0  0  0  0
    7.9791  -13.4324   20.3037 C   0  0  1  0  0  0  0  0  0  0  0  0
    6.7540  -13.5740   21.1762 C   0  0  0  0  0  0  0  0  0  0  0  0
    8.3687  -14.7745   19.7239 C   0  0  2  0  0  0  0  0  0  0  0  0
    7.3191  -15.3040   18.8846 N   0  0  0  0  0  0  0  0  0  0  0  0
    8.7549  -15.7061   20.7993 C   0  0  0  0  0  0  0  0  0  0  0  0
    7.8999  -16.5241   21.2226 O   0  0  0  0  0  0  0  0  0  0  0  0
   10.0416  -15.7373   21.3909 N   0  0  0  0  0  0  0  0  0  0  0  0
   10.3979  -16.7260   22.3876 C   0  0  1  0  0  0  0  0  0  0  0  0
   11.8097  -17.1973   22.2184 C   0  0  0  0  0  0  0  0  0  0  0  0
   12.1875  -18.2933   23.1067 C   0  0  0  0  0  0  0  0  0  0  0  0
   11.2962  -19.0559   23.5509 O   0  0  0  0  0  0  0  0  0  0  0  0
   10.1234  -16.2333   23.7634 C   0  0  0  0  0  0  0  0  0  0  0  0
   10.7345  -15.2614   24.2702 O   0  0  0  0  0  0  0  0  0  0  0  0
   13.4974  -18.5314   23.4847 O   0  0  0  0  0  0  0  0  0  0  0  0
    9.1332  -16.8682   24.5632 N   0  0  0  0  0  0  0  0  0  0  0  0
    8.9709  -16.5630   25.9951 C   0  0  1  0  0  0  0  0  0  0  0  0
    7.5847  -16.0919   26.2840 C   0  0  0  0  0  0  0  0  0  0  0  0
    7.5330  -14.6249   26.2768 C   0  0  0  0  0  0  0  0  0  0  0  0
    8.0618  -13.8980   27.3224 C   0  0  0  0  0  0  0  0  0  0  0  0
    8.0373  -12.5222   27.3276 C   0  0  0  0  0  0  0  0  0  0  0  0
    7.4836  -11.8293   26.2878 C   0  0  0  0  0  0  0  0  0  0  0  0
    6.9538  -12.5386   25.2410 C   0  0  0  0  0  0  0  0  0  0  0  0
    6.9749  -13.9321   25.2286 C   0  0  0  0  0  0  0  0  0  0  0  0
    9.4436  -17.6905   26.8155 C   0  0  0  0  0  0  0  0  0  0  0  0
    9.9925  -18.8584   26.3158 O   0  0  0  0  0  0  0  0  0  0  0  0
    9.3692  -17.6538   28.0949 O   0  0  0  0  0  0  0  0  0  0  0  0
  2  3  1  1
  2  1  1  0
  4  2  1  0
  4  5  1  1
  6  7  2  0
  6  4  1  0
  8  6  1  0
  9  8  1  0
  9 10  1  1
 11 10  1  0
 12 11  2  0
 13 16  1  0
 13  9  1  0
 14 13  2  0
 15 11  1  0
 17 16  1  0
 17 25  1  0
 17 18  1  6
 19 20  2  0
 19 18  1  0
 21 20  1  0
 22 21  2  0
 23 22  1  0
 23 24  2  0
 24 19  1  0
 25 26  1  0
 27 25  2  0
M  END
$$$$
