VDF.pdb
     RDKit          3D

 27 27  0  0  1  0  0  0  0  0999 V2000
    7.8695  -13.0362   21.3003 C   0  0  0  0  0  0  0  0  0  0  0  0
    7.5255  -13.5920   19.9430 C   0  0  1  0  0  0  0  0  0  0  0  0
    7.6463  -12.4769   18.9309 C   0  0  0  0  0  0  0  0  0  0  0  0
    8.4214  -14.7491   19.5590 C   0  0  2  0  0  0  0  0  0  0  0  0
    8.0752  -15.2656   18.2551 N   0  0  0  0  0  0  0  0  0  0  0  0
    8.3930  -15.7894   20.6033 C   0  0  0  0  0  0  0  0  0  0  0  0
    7.9831  -16.9375   20.2979 O   0  0  0  0  0  0  0  0  0  0  0  0
    8.8027  -15.5739   21.9420 N   0  0  0  0  0  0  0  0  0  0  0  0
    9.2388  -16.6641   22.7899 C   0  0  1  0  0  0  0  0  0  0  0  0
   10.2955  -17.4923   22.1255 C   0  0  0  0  0  0  0  0  0  0  0  0
   10.7318  -18.6475   22.9053 C   0  0  0  0  0  0  0  0  0  0  0  0
    9.9291  -19.5909   23.1027 O   0  0  0  0  0  0  0  0  0  0  0  0
    9.6580  -16.1751   24.1302 C   0  0  0  0  0  0  0  0  0  0  0  0
   10.7242  -15.5404   24.3176 O   0  0  0  0  0  0  0  0  0  0  0  0
   12.0034  -18.7499   23.4420 O   0  0  0  0  0  0  0  0  0  0  0  0
    8.8384  -16.4207   25.2665 N   0  0  0  0  0  0  0  0  0  0  0  0
    9.2647  -16.0622   26.6302 C   0  0  1  0  0  0  0  0  0  0  0  0
    8.1414  -15.4421   27.3921 C   0  0  0  0  0  0  0  0  0  0  0  0
    7.7505  -14.1679   26.7769 C   0  0  0  0  0  0  0  0  0  0  0  0
    6.5806  -14.0661   26.0543 C   0  0  0  0  0  0  0  0  0  0  0  0
    6.1885  -12.8774   25.4829 C   0  0  0  0  0  0  0  0  0  0  0  0
    6.9535  -11.7526   25.6155 C   0  0  0  0  0  0  0  0  0  0  0  0
    8.1196  -11.8384   26.3313 C   0  0  0  0  0  0  0  0  0  0  0  0
    8.5232  -13.0389   26.9130 C   0  0  0  0  0  0  0  0  0  0  0  0
    9.9172  -17.2105   27.2809 C   0  0  0  0  0  0  0  0  0  0  0  0
   10.0679  -18.4631   26.7120 O   0  0  0  0  0  0  0  0  0  0  0  0
   10.4029  -17.1119   28.4633 O   0  0  0  0  0  0  0  0  0  0  0  0
  2  3  1  6
  2  1  1  0
  4  2  1  0
  4  5  1  6
  6  7  2  0
  6  4  1  0
  8  6  1  0
  9  8  1  0
  9 10  1  6
 11 10  1  0
 12 11  2  0
 13 16  1  0
 13  9  1  0
 14 13  2  0
 15 11  1  0
 17 16  1  0
 17 25  1  0
 17 18  1  1
 19 20  2  0
 19 18  1  0
 21 20  1  0
 22 21  2  0
 23 22  1  0
 23 24  2  0
 24 19  1  0
 25 26  1  0
 27 25  2  0
M  END
$$$$
