VDF.pdb
     RDKit          3D

 27 27  0  0  1  0  0  0  0  0999 V2000
    8.4543  -12.8298   21.6163 C   0  0  0  0  0  0  0  0  0  0  0  0
    7.5251  -13.5862   20.7031 C   0  0  1  0  0  0  0  0  0  0  0  0
    7.1201  -12.6676   19.5742 C   0  0  0  0  0  0  0  0  0  0  0  0
    8.1656  -14.8421   20.1541 C   0  0  2  0  0  0  0  0  0  0  0  0
    7.2939  -15.5015   19.2096 N   0  0  0  0  0  0  0  0  0  0  0  0
    8.5796  -15.7311   21.2550 C   0  0  0  0  0  0  0  0  0  0  0  0
    7.7067  -16.4389   21.8176 O   0  0  0  0  0  0  0  0  0  0  0  0
    9.9123  -15.8384   21.7228 N   0  0  0  0  0  0  0  0  0  0  0  0
   10.2803  -16.7732   22.7660 C   0  0  1  0  0  0  0  0  0  0  0  0
   11.6754  -17.2867   22.5810 C   0  0  0  0  0  0  0  0  0  0  0  0
   11.9150  -17.9217   21.2878 C   0  0  0  0  0  0  0  0  0  0  0  0
   12.6951  -17.3741   20.4724 O   0  0  0  0  0  0  0  0  0  0  0  0
   10.0623  -16.1922   24.1173 C   0  0  0  0  0  0  0  0  0  0  0  0
   10.6293  -15.1412   24.5031 O   0  0  0  0  0  0  0  0  0  0  0  0
   11.3146  -19.1123   20.9171 O   0  0  0  0  0  0  0  0  0  0  0  0
    9.1807  -16.8301   25.0333 N   0  0  0  0  0  0  0  0  0  0  0  0
    9.0543  -16.3888   26.4330 C   0  0  1  0  0  0  0  0  0  0  0  0
    7.6540  -15.9690   26.7332 C   0  0  0  0  0  0  0  0  0  0  0  0
    7.4576  -14.5585   26.3774 C   0  0  0  0  0  0  0  0  0  0  0  0
    8.2442  -13.5756   26.9401 C   0  0  0  0  0  0  0  0  0  0  0  0
    8.0865  -12.2496   26.6084 C   0  0  0  0  0  0  0  0  0  0  0  0
    7.1375  -11.8637   25.7037 C   0  0  0  0  0  0  0  0  0  0  0  0
    6.3477  -12.8298   25.1358 C   0  0  0  0  0  0  0  0  0  0  0  0
    6.5016  -14.1750   25.4668 C   0  0  0  0  0  0  0  0  0  0  0  0
    9.6244  -17.3978   27.3412 C   0  0  0  0  0  0  0  0  0  0  0  0
    9.9892  -17.1644   28.6556 O   0  0  0  0  0  0  0  0  0  0  0  0
    9.8254  -18.6017   26.9490 O   0  0  0  0  0  0  0  0  0  0  0  0
  2  3  1  6
  2  1  1  0
  4  2  1  0
  4  5  1  6
  6  7  2  0
  6  4  1  0
  8  6  1  0
  9  8  1  0
  9 10  1  6
 11 10  1  0
 12 11  2  0
 13 16  1  0
 13  9  1  0
 14 13  2  0
 15 11  1  0
 17 16  1  0
 17 25  1  0
 17 18  1  1
 19 20  2  0
 19 18  1  0
 21 20  1  0
 22 21  2  0
 23 22  1  0
 23 24  2  0
 24 19  1  0
 25 26  1  0
 27 25  2  0
M  END
$$$$
