VDF.pdb
     RDKit          3D

 27 27  0  0  1  0  0  0  0  0999 V2000
    7.4652  -12.3601   19.9431 C   0  0  0  0  0  0  0  0  0  0  0  0
    8.6733  -12.9978   19.3081 C   0  0  1  0  0  0  0  0  0  0  0  0
    9.8444  -12.8319   20.2480 C   0  0  0  0  0  0  0  0  0  0  0  0
    8.4485  -14.4624   19.0028 C   0  0  2  0  0  0  0  0  0  0  0  0
    7.4668  -14.6318   17.9566 N   0  0  0  0  0  0  0  0  0  0  0  0
    8.0945  -15.1951   20.2322 C   0  0  0  0  0  0  0  0  0  0  0  0
    6.9267  -15.0847   20.6833 O   0  0  0  0  0  0  0  0  0  0  0  0
    8.9968  -16.0235   20.9436 N   0  0  0  0  0  0  0  0  0  0  0  0
    8.5929  -16.7441   22.1332 C   0  0  1  0  0  0  0  0  0  0  0  0
    8.7119  -18.2260   21.9488 C   0  0  0  0  0  0  0  0  0  0  0  0
   10.0521  -18.6806   21.5884 C   0  0  0  0  0  0  0  0  0  0  0  0
   11.0399  -18.2353   22.2204 O   0  0  0  0  0  0  0  0  0  0  0  0
    9.3224  -16.2598   23.3351 C   0  0  0  0  0  0  0  0  0  0  0  0
   10.3800  -15.5884   23.2617 O   0  0  0  0  0  0  0  0  0  0  0  0
   10.2847  -19.5897   20.5711 O   0  0  0  0  0  0  0  0  0  0  0  0
    8.8265  -16.5531   24.6356 N   0  0  0  0  0  0  0  0  0  0  0  0
    9.5799  -16.2127   25.8548 C   0  0  1  0  0  0  0  0  0  0  0  0
    9.7619  -14.7361   25.9719 C   0  0  0  0  0  0  0  0  0  0  0  0
    8.4578  -14.0630   26.0044 C   0  0  0  0  0  0  0  0  0  0  0  0
    8.3098  -12.7925   25.4893 C   0  0  0  0  0  0  0  0  0  0  0  0
    7.0929  -12.1503   25.4961 C   0  0  0  0  0  0  0  0  0  0  0  0
    5.9853  -12.7575   26.0180 C   0  0  0  0  0  0  0  0  0  0  0  0
    6.1171  -14.0208   26.5338 C   0  0  0  0  0  0  0  0  0  0  0  0
    7.3463  -14.6778   26.5304 C   0  0  0  0  0  0  0  0  0  0  0  0
    8.9835  -16.8751   27.0267 C   0  0  0  0  0  0  0  0  0  0  0  0
    9.5444  -16.9033   28.2915 O   0  0  0  0  0  0  0  0  0  0  0  0
    7.8627  -17.4914   26.9383 O   0  0  0  0  0  0  0  0  0  0  0  0
  2  3  1  1
  2  1  1  0
  4  2  1  0
  4  5  1  6
  6  7  2  0
  6  4  1  0
  8  6  1  0
  9  8  1  0
  9 10  1  6
 11 10  1  0
 12 11  2  0
 13 16  1  0
 13  9  1  0
 14 13  2  0
 15 11  1  0
 17 16  1  0
 17 25  1  0
 17 18  1  1
 19 20  2  0
 19 18  1  0
 21 20  1  0
 22 21  2  0
 23 22  1  0
 23 24  2  0
 24 19  1  0
 25 26  1  0
 27 25  2  0
M  END
$$$$
