VDF.pdb
     RDKit          3D

 27 27  0  0  1  0  0  0  0  0999 V2000
    7.8706  -12.4370   20.5607 C   0  0  0  0  0  0  0  0  0  0  0  0
    7.7852  -13.5513   19.5504 C   0  0  1  0  0  0  0  0  0  0  0  0
    7.7355  -12.9365   18.1714 C   0  0  0  0  0  0  0  0  0  0  0  0
    8.9536  -14.5065   19.6577 C   0  0  2  0  0  0  0  0  0  0  0  0
    8.9770  -15.4280   18.5456 N   0  0  0  0  0  0  0  0  0  0  0  0
    8.9356  -15.1957   20.9609 C   0  0  0  0  0  0  0  0  0  0  0  0
    8.4457  -14.5973   21.9515 O   0  0  0  0  0  0  0  0  0  0  0  0
    9.4407  -16.5028   21.1683 N   0  0  0  0  0  0  0  0  0  0  0  0
    9.3269  -17.1688   22.4494 C   0  0  1  0  0  0  0  0  0  0  0  0
    9.7021  -18.6160   22.3551 C   0  0  0  0  0  0  0  0  0  0  0  0
    9.6271  -19.3397   23.6214 C   0  0  0  0  0  0  0  0  0  0  0  0
   10.6506  -19.9199   24.0562 O   0  0  0  0  0  0  0  0  0  0  0  0
   10.0900  -16.4507   23.5044 C   0  0  0  0  0  0  0  0  0  0  0  0
   11.2118  -15.9291   23.2938 O   0  0  0  0  0  0  0  0  0  0  0  0
    8.4664  -19.4154   24.3715 O   0  0  0  0  0  0  0  0  0  0  0  0
    9.5533  -16.3327   24.8164 N   0  0  0  0  0  0  0  0  0  0  0  0
   10.2740  -15.6368   25.8963 C   0  0  1  0  0  0  0  0  0  0  0  0
   10.0895  -14.1596   25.7920 C   0  0  0  0  0  0  0  0  0  0  0  0
    8.7216  -13.7887   26.1741 C   0  0  0  0  0  0  0  0  0  0  0  0
    8.4472  -13.3282   27.4445 C   0  0  0  0  0  0  0  0  0  0  0  0
    7.1748  -12.9608   27.8179 C   0  0  0  0  0  0  0  0  0  0  0  0
    6.1362  -13.0420   26.9333 C   0  0  0  0  0  0  0  0  0  0  0  0
    6.3937  -13.4982   25.6663 C   0  0  0  0  0  0  0  0  0  0  0  0
    7.6798  -13.8721   25.2808 C   0  0  0  0  0  0  0  0  0  0  0  0
    9.9370  -16.2295   27.2013 C   0  0  0  0  0  0  0  0  0  0  0  0
    9.0286  -17.2554   27.3945 O   0  0  0  0  0  0  0  0  0  0  0  0
   10.4887  -15.8100   28.2799 O   0  0  0  0  0  0  0  0  0  0  0  0
  2  3  1  6
  2  1  1  0
  4  2  1  0
  4  5  1  6
  6  7  2  0
  6  4  1  0
  8  6  1  0
  9  8  1  0
  9 10  1  6
 11 10  1  0
 12 11  2  0
 13 16  1  0
 13  9  1  0
 14 13  2  0
 15 11  1  0
 17 16  1  0
 17 25  1  0
 17 18  1  1
 19 20  2  0
 19 18  1  0
 21 20  1  0
 22 21  2  0
 23 22  1  0
 23 24  2  0
 24 19  1  0
 25 26  1  0
 27 25  2  0
M  END
$$$$
