VDF.pdb
     RDKit          3D

 27 27  0  0  1  0  0  0  0  0999 V2000
    8.1773  -12.4944   19.2479 C   0  0  0  0  0  0  0  0  0  0  0  0
    8.6138  -13.4698   20.3098 C   0  0  1  0  0  0  0  0  0  0  0  0
    7.9704  -13.0664   21.6157 C   0  0  0  0  0  0  0  0  0  0  0  0
    8.2433  -14.8944   19.9598 C   0  0  2  0  0  0  0  0  0  0  0  0
    6.8787  -14.9782   19.4933 N   0  0  0  0  0  0  0  0  0  0  0  0
    8.5045  -15.7886   21.1024 C   0  0  0  0  0  0  0  0  0  0  0  0
    7.5731  -16.0140   21.9155 O   0  0  0  0  0  0  0  0  0  0  0  0
    9.7515  -16.4158   21.3435 N   0  0  0  0  0  0  0  0  0  0  0  0
   10.0108  -17.1514   22.5640 C   0  0  1  0  0  0  0  0  0  0  0  0
   10.9280  -18.3116   22.3257 C   0  0  0  0  0  0  0  0  0  0  0  0
   10.4080  -19.3060   21.3910 C   0  0  0  0  0  0  0  0  0  0  0  0
    9.1726  -19.5182   21.3480 O   0  0  0  0  0  0  0  0  0  0  0  0
   10.4970  -16.2543   23.6456 C   0  0  0  0  0  0  0  0  0  0  0  0
   11.2276  -15.2584   23.4235 O   0  0  0  0  0  0  0  0  0  0  0  0
   11.2245  -20.0326   20.5419 O   0  0  0  0  0  0  0  0  0  0  0  0
   10.1367  -16.5086   24.9979 N   0  0  0  0  0  0  0  0  0  0  0  0
   10.4695  -15.5721   26.0851 C   0  0  1  0  0  0  0  0  0  0  0  0
   10.1275  -14.1708   25.7024 C   0  0  0  0  0  0  0  0  0  0  0  0
    8.7599  -13.8463   26.1256 C   0  0  0  0  0  0  0  0  0  0  0  0
    8.5169  -13.3265   27.3794 C   0  0  0  0  0  0  0  0  0  0  0  0
    7.2443  -13.0013   27.7896 C   0  0  0  0  0  0  0  0  0  0  0  0
    6.1742  -13.1853   26.9595 C   0  0  0  0  0  0  0  0  0  0  0  0
    6.4003  -13.7014   25.7097 C   0  0  0  0  0  0  0  0  0  0  0  0
    7.6864  -14.0332   25.2871 C   0  0  0  0  0  0  0  0  0  0  0  0
    9.8975  -16.0415   27.3580 C   0  0  0  0  0  0  0  0  0  0  0  0
    8.9871  -17.0763   27.4836 O   0  0  0  0  0  0  0  0  0  0  0  0
   10.2231  -15.4941   28.4707 O   0  0  0  0  0  0  0  0  0  0  0  0
  2  3  1  1
  2  1  1  0
  4  2  1  0
  4  5  1  1
  6  7  2  0
  6  4  1  0
  8  6  1  0
  9  8  1  0
  9 10  1  6
 11 10  1  0
 12 11  2  0
 13 16  1  0
 13  9  1  0
 14 13  2  0
 15 11  1  0
 17 16  1  0
 17 25  1  0
 17 18  1  6
 19 20  2  0
 19 18  1  0
 21 20  1  0
 22 21  2  0
 23 22  1  0
 23 24  2  0
 24 19  1  0
 25 26  1  0
 27 25  2  0
M  END
$$$$
