YNN.pdb
     RDKit          3D

 29 29  0  0  1  0  0  0  0  0999 V2000
   36.0091  -34.3633  -17.5700 O   0  0  0  0  0  0  0  0  0  0  0  0
   34.8714  -33.5779  -17.6106 C   0  0  0  0  0  0  0  0  0  0  0  0
   34.6728  -32.7464  -18.6849 C   0  0  0  0  0  0  0  0  0  0  0  0
   33.5467  -31.9751  -18.7153 C   0  0  0  0  0  0  0  0  0  0  0  0
   32.5924  -31.9856  -17.7196 C   0  0  0  0  0  0  0  0  0  0  0  0
   31.3892  -31.1349  -17.7830 C   0  0  0  0  0  0  0  0  0  0  0  0
   30.1578  -31.9972  -17.9778 C   0  0  2  0  0  0  0  0  0  0  0  0
   30.1537  -32.6432  -19.2640 N   0  0  0  0  0  0  0  0  0  0  0  0
   28.9132  -31.2312  -17.8161 C   0  0  0  0  0  0  0  0  0  0  0  0
   28.3625  -30.7558  -18.8405 O   0  0  0  0  0  0  0  0  0  0  0  0
   32.8041  -32.8226  -16.6502 C   0  0  0  0  0  0  0  0  0  0  0  0
   33.9490  -33.6186  -16.6020 C   0  0  0  0  0  0  0  0  0  0  0  0
   25.8781  -33.4356  -15.2828 N   0  0  0  0  0  0  0  0  0  0  0  0
   25.6362  -32.2522  -16.0243 C   0  0  0  0  0  0  0  0  0  0  0  0
   25.0207  -32.3718  -17.1405 O   0  0  0  0  0  0  0  0  0  0  0  0
   26.0396  -30.8976  -15.6052 C   0  0  0  0  0  0  0  0  0  0  0  0
   27.0265  -30.2736  -16.5204 C   0  0  2  0  0  0  0  0  0  0  0  0
   28.2665  -30.9776  -16.5661 N   0  0  0  0  0  0  0  0  0  0  0  0
   27.2202  -28.8118  -16.2866 C   0  0  0  0  0  0  0  0  0  0  0  0
   28.3045  -28.4168  -15.8269 O   0  0  0  0  0  0  0  0  0  0  0  0
   26.7497  -23.6949  -16.2807 N   0  0  0  0  0  0  0  0  0  0  0  0
   27.5804  -24.4382  -17.1366 C   0  0  0  0  0  0  0  0  0  0  0  0
   28.4852  -23.8372  -17.8191 O   0  0  0  0  0  0  0  0  0  0  0  0
   27.4813  -25.9024  -17.3114 C   0  0  0  0  0  0  0  0  0  0  0  0
   26.3663  -26.4219  -16.4291 C   0  0  2  0  0  0  0  0  0  0  0  0
   26.2219  -27.8554  -16.5674 N   0  0  0  0  0  0  0  0  0  0  0  0
   25.1059  -25.7775  -16.8100 C   0  0  0  0  0  0  0  0  0  0  0  0
   24.0782  -26.5452  -17.3409 O   0  0  0  0  0  0  0  0  0  0  0  0
   24.8865  -24.5376  -16.6841 O   0  0  0  0  0  0  0  0  0  0  0  0
  2  1  1  0
  2 12  2  0
  3  2  1  0
  4  3  2  0
  4  5  1  0
  5 11  2  0
  6  5  1  0
  7  8  1  6
  7  6  1  0
  9  7  1  0
 10  9  2  0
 11 12  1  0
 13 14  1  0
 14 15  2  0
 14 16  1  0
 17 16  1  1
 17 19  1  0
 17 18  1  0
 18  9  1  0
 19 20  2  0
 22 21  1  0
 22 24  1  0
 23 22  2  0
 25 24  1  6
 26 25  1  0
 26 19  1  0
 27 28  1  0
 27 25  1  0
 29 27  2  0
M  END
$$$$
