YNN.pdb
     RDKit          3D

 29 29  0  0  1  0  0  0  0  0999 V2000
   26.2196  -17.9243  -20.3838 O   0  0  0  0  0  0  0  0  0  0  0  0
   26.7107  -18.1968  -19.1199 C   0  0  0  0  0  0  0  0  0  0  0  0
   28.0340  -18.5335  -18.9766 C   0  0  0  0  0  0  0  0  0  0  0  0
   28.5089  -18.8008  -17.7248 C   0  0  0  0  0  0  0  0  0  0  0  0
   27.7270  -18.7510  -16.5898 C   0  0  0  0  0  0  0  0  0  0  0  0
   28.2725  -19.0506  -15.2527 C   0  0  0  0  0  0  0  0  0  0  0  0
   28.2131  -20.5430  -14.9941 C   0  0  2  0  0  0  0  0  0  0  0  0
   28.0294  -21.2909  -16.2100 N   0  0  0  0  0  0  0  0  0  0  0  0
   27.1516  -20.8989  -14.0409 C   0  0  0  0  0  0  0  0  0  0  0  0
   26.1394  -21.5083  -14.4683 O   0  0  0  0  0  0  0  0  0  0  0  0
   26.4043  -18.4125  -16.7479 C   0  0  0  0  0  0  0  0  0  0  0  0
   25.9013  -18.1357  -18.0195 C   0  0  0  0  0  0  0  0  0  0  0  0
   23.8438  -21.3053  -10.0197 N   0  0  0  0  0  0  0  0  0  0  0  0
   25.0821  -20.8002   -9.5504 C   0  0  0  0  0  0  0  0  0  0  0  0
   25.1897  -20.5784   -8.2941 O   0  0  0  0  0  0  0  0  0  0  0  0
   26.2519  -20.5132  -10.4003 C   0  0  0  0  0  0  0  0  0  0  0  0
   26.0241  -20.8282  -11.8320 C   0  0  2  0  0  0  0  0  0  0  0  0
   27.1766  -20.6026  -12.6421 N   0  0  0  0  0  0  0  0  0  0  0  0
   24.8040  -20.1827  -12.4010 C   0  0  0  0  0  0  0  0  0  0  0  0
   24.8714  -19.0011  -12.7780 O   0  0  0  0  0  0  0  0  0  0  0  0
   21.0067  -19.4806  -16.2075 N   0  0  0  0  0  0  0  0  0  0  0  0
   20.9936  -20.4395  -15.1801 C   0  0  0  0  0  0  0  0  0  0  0  0
   19.8720  -20.8800  -14.7401 O   0  0  0  0  0  0  0  0  0  0  0  0
   22.2137  -20.9899  -14.5533 C   0  0  0  0  0  0  0  0  0  0  0  0
   22.3951  -20.3446  -13.1960 C   0  0  2  0  0  0  0  0  0  0  0  0
   23.5731  -20.8597  -12.5312 N   0  0  0  0  0  0  0  0  0  0  0  0
   21.2197  -20.6232  -12.3653 C   0  0  0  0  0  0  0  0  0  0  0  0
   21.2068  -21.7497  -11.5540 O   0  0  0  0  0  0  0  0  0  0  0  0
   20.1907  -19.8872  -12.3376 O   0  0  0  0  0  0  0  0  0  0  0  0
  2  1  1  0
  2 12  2  0
  3  2  1  0
  4  3  2  0
  4  5  1  0
  5 11  2  0
  6  5  1  0
  7  8  1  6
  7  6  1  0
  9  7  1  0
 10  9  2  0
 11 12  1  0
 13 14  1  0
 14 15  2  0
 14 16  1  0
 17 16  1  1
 17 19  1  0
 17 18  1  0
 18  9  1  0
 19 20  2  0
 22 21  1  0
 22 24  1  0
 23 22  2  0
 25 24  1  6
 26 25  1  0
 26 19  1  0
 27 28  1  0
 27 25  1  0
 29 27  2  0
M  END
$$$$
