YNN.pdb
     RDKit          3D

 29 29  0  0  1  0  0  0  0  0999 V2000
   28.8932  -19.7778   -6.5119 O   0  0  0  0  0  0  0  0  0  0  0  0
   28.0990  -19.9644   -7.6288 C   0  0  0  0  0  0  0  0  0  0  0  0
   28.1207  -21.1796   -8.2673 C   0  0  0  0  0  0  0  0  0  0  0  0
   27.3332  -21.3535   -9.3689 C   0  0  0  0  0  0  0  0  0  0  0  0
   26.5125  -20.3690   -9.8782 C   0  0  0  0  0  0  0  0  0  0  0  0
   25.6779  -20.5903  -11.0740 C   0  0  0  0  0  0  0  0  0  0  0  0
   24.2743  -20.0743  -10.8258 C   0  0  2  0  0  0  0  0  0  0  0  0
   23.6416  -20.7503   -9.7239 N   0  0  0  0  0  0  0  0  0  0  0  0
   23.4223  -20.1890  -12.0187 C   0  0  0  0  0  0  0  0  0  0  0  0
   22.5890  -21.1277  -12.0742 O   0  0  0  0  0  0  0  0  0  0  0  0
   26.5006  -19.1577   -9.2291 C   0  0  0  0  0  0  0  0  0  0  0  0
   27.2985  -18.9616   -8.1014 C   0  0  0  0  0  0  0  0  0  0  0  0
   21.0505  -16.9362  -13.5777 N   0  0  0  0  0  0  0  0  0  0  0  0
   22.1597  -17.0787  -14.4485 C   0  0  0  0  0  0  0  0  0  0  0  0
   22.8975  -16.0494  -14.6361 O   0  0  0  0  0  0  0  0  0  0  0  0
   22.5252  -18.3219  -15.1514 C   0  0  0  0  0  0  0  0  0  0  0  0
   22.5936  -19.5010  -14.2537 C   0  0  2  0  0  0  0  0  0  0  0  0
   23.4652  -19.3044  -13.1416 N   0  0  0  0  0  0  0  0  0  0  0  0
   22.8754  -20.7820  -14.9671 C   0  0  0  0  0  0  0  0  0  0  0  0
   23.8782  -21.4400  -14.6439 O   0  0  0  0  0  0  0  0  0  0  0  0
   20.2431  -25.0757  -15.9120 N   0  0  0  0  0  0  0  0  0  0  0  0
   20.0061  -24.1759  -14.8588 C   0  0  0  0  0  0  0  0  0  0  0  0
   19.2537  -24.5295  -13.8818 O   0  0  0  0  0  0  0  0  0  0  0  0
   20.5769  -22.8140  -14.7966 C   0  0  0  0  0  0  0  0  0  0  0  0
   21.4364  -22.5919  -16.0228 C   0  0  2  0  0  0  0  0  0  0  0  0
   22.0483  -21.2804  -15.9954 N   0  0  0  0  0  0  0  0  0  0  0  0
   20.6050  -22.7043  -17.2250 C   0  0  0  0  0  0  0  0  0  0  0  0
   20.7362  -23.8160  -18.0460 O   0  0  0  0  0  0  0  0  0  0  0  0
   19.7546  -21.8341  -17.5728 O   0  0  0  0  0  0  0  0  0  0  0  0
  2  1  1  0
  2 12  2  0
  3  2  1  0
  4  3  2  0
  4  5  1  0
  5 11  2  0
  6  5  1  0
  7  8  1  1
  7  6  1  0
  9  7  1  0
 10  9  2  0
 11 12  1  0
 13 14  1  0
 14 15  2  0
 14 16  1  0
 17 16  1  6
 17 19  1  0
 17 18  1  0
 18  9  1  0
 19 20  2  0
 22 21  1  0
 22 24  1  0
 23 22  2  0
 25 24  1  1
 26 25  1  0
 26 19  1  0
 27 28  1  0
 27 25  1  0
 29 27  2  0
M  END
$$$$
