YNN.pdb
     RDKit          3D

 29 29  0  0  1  0  0  0  0  0999 V2000
   29.2103  -20.1141   -3.4149 O   0  0  0  0  0  0  0  0  0  0  0  0
   28.5207  -19.9510   -4.6026 C   0  0  0  0  0  0  0  0  0  0  0  0
   28.8690  -18.9202   -5.4401 C   0  0  0  0  0  0  0  0  0  0  0  0
   28.1819  -18.7677   -6.6099 C   0  0  0  0  0  0  0  0  0  0  0  0
   27.1509  -19.5973   -6.9983 C   0  0  0  0  0  0  0  0  0  0  0  0
   26.4269  -19.4002   -8.2681 C   0  0  0  0  0  0  0  0  0  0  0  0
   26.7111  -20.5547   -9.2083 C   0  0  2  0  0  0  0  0  0  0  0  0
   28.1185  -20.6949   -9.4750 N   0  0  0  0  0  0  0  0  0  0  0  0
   25.9871  -20.4242  -10.4815 C   0  0  0  0  0  0  0  0  0  0  0  0
   26.3268  -19.5117  -11.2755 O   0  0  0  0  0  0  0  0  0  0  0  0
   26.8130  -20.6249   -6.1505 C   0  0  0  0  0  0  0  0  0  0  0  0
   27.5041  -20.7966   -4.9507 C   0  0  0  0  0  0  0  0  0  0  0  0
   27.0771  -22.5260  -13.8907 N   0  0  0  0  0  0  0  0  0  0  0  0
   25.9222  -21.7049  -13.8635 C   0  0  0  0  0  0  0  0  0  0  0  0
   25.9820  -20.5835  -14.4783 O   0  0  0  0  0  0  0  0  0  0  0  0
   24.6606  -22.0468  -13.1816 C   0  0  0  0  0  0  0  0  0  0  0  0
   24.2654  -21.0530  -12.1535 C   0  0  2  0  0  0  0  0  0  0  0  0
   24.9080  -21.2654  -10.8976 N   0  0  0  0  0  0  0  0  0  0  0  0
   22.7877  -20.8968  -12.0076 C   0  0  0  0  0  0  0  0  0  0  0  0
   22.1851  -21.6224  -11.1992 O   0  0  0  0  0  0  0  0  0  0  0  0
   19.2711  -17.6793  -11.4366 N   0  0  0  0  0  0  0  0  0  0  0  0
   19.4700  -17.6158  -12.8265 C   0  0  0  0  0  0  0  0  0  0  0  0
   19.0385  -16.6009  -13.4816 O   0  0  0  0  0  0  0  0  0  0  0  0
   20.1587  -18.6649  -13.6073 C   0  0  0  0  0  0  0  0  0  0  0  0
   20.6125  -19.7552  -12.6604 C   0  0  2  0  0  0  0  0  0  0  0  0
   22.0431  -19.9561  -12.7498 N   0  0  0  0  0  0  0  0  0  0  0  0
   19.9334  -21.0086  -13.0024 C   0  0  0  0  0  0  0  0  0  0  0  0
   20.5061  -21.8650  -13.9330 O   0  0  0  0  0  0  0  0  0  0  0  0
   18.8330  -21.3711  -12.4934 O   0  0  0  0  0  0  0  0  0  0  0  0
  2  1  1  0
  2 12  2  0
  3  2  1  0
  4  3  2  0
  4  5  1  0
  5 11  2  0
  6  5  1  0
  7  8  1  6
  7  6  1  0
  9  7  1  0
 10  9  2  0
 11 12  1  0
 13 14  1  0
 14 15  2  0
 14 16  1  0
 17 16  1  6
 17 19  1  0
 17 18  1  0
 18  9  1  0
 19 20  2  0
 22 21  1  0
 22 24  1  0
 23 22  2  0
 25 24  1  6
 26 25  1  0
 26 19  1  0
 27 28  1  0
 27 25  1  0
 29 27  2  0
M  END
$$$$
