YNN.pdb
     RDKit          3D

 29 29  0  0  1  0  0  0  0  0999 V2000
   32.7771  -22.1186   -9.9339 O   0  0  0  0  0  0  0  0  0  0  0  0
   31.6001  -21.6617  -10.4984 C   0  0  0  0  0  0  0  0  0  0  0  0
   30.4226  -21.8279   -9.8122 C   0  0  0  0  0  0  0  0  0  0  0  0
   29.2663  -21.3736  -10.3782 C   0  0  0  0  0  0  0  0  0  0  0  0
   29.2163  -20.7534  -11.6091 C   0  0  0  0  0  0  0  0  0  0  0  0
   27.9476  -20.2788  -12.1928 C   0  0  0  0  0  0  0  0  0  0  0  0
   27.1085  -21.4617  -12.6337 C   0  0  2  0  0  0  0  0  0  0  0  0
   27.6882  -22.1388  -13.7638 N   0  0  0  0  0  0  0  0  0  0  0  0
   25.7281  -21.0725  -12.9575 C   0  0  0  0  0  0  0  0  0  0  0  0
   25.3543  -21.1245  -14.1559 O   0  0  0  0  0  0  0  0  0  0  0  0
   30.4024  -20.5936  -12.2848 C   0  0  0  0  0  0  0  0  0  0  0  0
   31.5942  -21.0512  -11.7220 C   0  0  0  0  0  0  0  0  0  0  0  0
   24.1342  -21.7971   -9.8820 N   0  0  0  0  0  0  0  0  0  0  0  0
   22.9498  -21.0242   -9.9746 C   0  0  0  0  0  0  0  0  0  0  0  0
   22.2243  -20.9297   -8.9240 O   0  0  0  0  0  0  0  0  0  0  0  0
   22.4938  -20.3225  -11.1883 C   0  0  0  0  0  0  0  0  0  0  0  0
   23.3793  -20.5444  -12.3578 C   0  0  2  0  0  0  0  0  0  0  0  0
   24.7585  -20.6309  -12.0035 N   0  0  0  0  0  0  0  0  0  0  0  0
   23.1472  -19.5832  -13.4764 C   0  0  0  0  0  0  0  0  0  0  0  0
   23.9633  -18.6640  -13.6560 O   0  0  0  0  0  0  0  0  0  0  0  0
   21.3062  -17.3853  -17.7970 N   0  0  0  0  0  0  0  0  0  0  0  0
   22.2872  -18.3914  -17.8269 C   0  0  0  0  0  0  0  0  0  0  0  0
   22.9906  -18.5577  -18.8866 O   0  0  0  0  0  0  0  0  0  0  0  0
   22.5719  -19.2962  -16.6934 C   0  0  0  0  0  0  0  0  0  0  0  0
   21.7901  -18.8228  -15.4867 C   0  0  2  0  0  0  0  0  0  0  0  0
   22.0377  -19.6745  -14.3428 N   0  0  0  0  0  0  0  0  0  0  0  0
   20.3575  -18.8467  -15.7967 C   0  0  0  0  0  0  0  0  0  0  0  0
   19.7555  -17.7183  -16.3369 O   0  0  0  0  0  0  0  0  0  0  0  0
   19.6145  -19.8520  -15.6002 O   0  0  0  0  0  0  0  0  0  0  0  0
  2  1  1  0
  2 12  2  0
  3  2  1  0
  4  3  2  0
  4  5  1  0
  5 11  2  0
  6  5  1  0
  7  8  1  6
  7  6  1  0
  9  7  1  0
 10  9  2  0
 11 12  1  0
 13 14  1  0
 14 15  2  0
 14 16  1  0
 17 16  1  1
 17 19  1  0
 17 18  1  0
 18  9  1  0
 19 20  2  0
 22 21  1  0
 22 24  1  0
 23 22  2  0
 25 24  1  6
 26 25  1  0
 26 19  1  0
 27 28  1  0
 27 25  1  0
 29 27  2  0
M  END
$$$$
