YNN.pdb
     RDKit          3D

 29 29  0  0  1  0  0  0  0  0999 V2000
   29.3987  -14.4628  -18.6372 O   0  0  0  0  0  0  0  0  0  0  0  0
   28.8533  -15.2322  -17.6256 C   0  0  0  0  0  0  0  0  0  0  0  0
   29.1601  -16.5691  -17.5650 C   0  0  0  0  0  0  0  0  0  0  0  0
   28.6164  -17.3199  -16.5627 C   0  0  0  0  0  0  0  0  0  0  0  0
   27.7706  -16.8055  -15.6024 C   0  0  0  0  0  0  0  0  0  0  0  0
   27.1973  -17.6475  -14.5357 C   0  0  0  0  0  0  0  0  0  0  0  0
   26.2835  -18.6948  -15.1405 C   0  0  2  0  0  0  0  0  0  0  0  0
   25.2886  -18.1071  -15.9986 N   0  0  0  0  0  0  0  0  0  0  0  0
   25.6177  -19.5097  -14.1135 C   0  0  0  0  0  0  0  0  0  0  0  0
   26.3275  -20.1009  -13.2619 O   0  0  0  0  0  0  0  0  0  0  0  0
   27.4721  -15.4659  -15.6752 C   0  0  0  0  0  0  0  0  0  0  0  0
   28.0186  -14.6827  -16.6923 C   0  0  0  0  0  0  0  0  0  0  0  0
   24.1648  -21.9572   -9.8830 N   0  0  0  0  0  0  0  0  0  0  0  0
   23.5408  -20.8497  -10.5098 C   0  0  0  0  0  0  0  0  0  0  0  0
   22.3790  -20.5130  -10.0904 O   0  0  0  0  0  0  0  0  0  0  0  0
   24.1302  -20.0590  -11.6056 C   0  0  0  0  0  0  0  0  0  0  0  0
   23.6519  -20.4742  -12.9472 C   0  0  2  0  0  0  0  0  0  0  0  0
   24.2032  -19.6886  -14.0027 N   0  0  0  0  0  0  0  0  0  0  0  0
   22.1662  -20.5830  -13.0467 C   0  0  0  0  0  0  0  0  0  0  0  0
   21.4948  -19.5433  -13.1533 O   0  0  0  0  0  0  0  0  0  0  0  0
   20.9729  -24.2496  -15.9101 N   0  0  0  0  0  0  0  0  0  0  0  0
   20.2165  -23.2476  -15.2783 C   0  0  0  0  0  0  0  0  0  0  0  0
   19.8873  -22.1953  -15.9339 O   0  0  0  0  0  0  0  0  0  0  0  0
   19.7627  -23.3225  -13.8737 C   0  0  0  0  0  0  0  0  0  0  0  0
   20.0629  -22.0026  -13.1960 C   0  0  2  0  0  0  0  0  0  0  0  0
   21.4888  -21.8203  -13.0263 N   0  0  0  0  0  0  0  0  0  0  0  0
   19.4196  -21.9760  -11.8790 C   0  0  0  0  0  0  0  0  0  0  0  0
   18.0401  -22.1032  -11.7887 O   0  0  0  0  0  0  0  0  0  0  0  0
   20.0534  -21.8416  -10.7919 O   0  0  0  0  0  0  0  0  0  0  0  0
  2  1  1  0
  2 12  2  0
  3  2  1  0
  4  3  2  0
  4  5  1  0
  5 11  2  0
  6  5  1  0
  7  8  1  1
  7  6  1  0
  9  7  1  0
 10  9  2  0
 11 12  1  0
 13 14  1  0
 14 15  2  0
 14 16  1  0
 17 16  1  1
 17 19  1  0
 17 18  1  0
 18  9  1  0
 19 20  2  0
 22 21  1  0
 22 24  1  0
 23 22  2  0
 25 24  1  1
 26 25  1  0
 26 19  1  0
 27 28  1  0
 27 25  1  0
 29 27  2  0
M  END
$$$$
