YNN.pdb
     RDKit          3D

 29 29  0  0  1  0  0  0  0  0999 V2000
   28.8693  -13.8912  -17.1637 O   0  0  0  0  0  0  0  0  0  0  0  0
   28.1264  -14.9875  -16.7648 C   0  0  0  0  0  0  0  0  0  0  0  0
   27.9513  -16.0295  -17.6415 C   0  0  0  0  0  0  0  0  0  0  0  0
   27.2163  -17.1069  -17.2381 C   0  0  0  0  0  0  0  0  0  0  0  0
   26.6364  -17.2060  -15.9907 C   0  0  0  0  0  0  0  0  0  0  0  0
   25.8442  -18.3837  -15.5897 C   0  0  0  0  0  0  0  0  0  0  0  0
   26.6754  -19.2852  -14.6985 C   0  0  2  0  0  0  0  0  0  0  0  0
   27.7038  -19.9691  -15.4375 N   0  0  0  0  0  0  0  0  0  0  0  0
   25.8516  -20.2732  -13.9863 C   0  0  0  0  0  0  0  0  0  0  0  0
   25.8560  -21.4628  -14.3904 O   0  0  0  0  0  0  0  0  0  0  0  0
   26.8198  -16.1558  -15.1233 C   0  0  0  0  0  0  0  0  0  0  0  0
   27.5683  -15.0464  -15.5178 C   0  0  0  0  0  0  0  0  0  0  0  0
   26.4291  -19.8953   -9.3210 N   0  0  0  0  0  0  0  0  0  0  0  0
   25.8795  -20.8784  -10.1814 C   0  0  0  0  0  0  0  0  0  0  0  0
   26.6521  -21.8249  -10.5639 O   0  0  0  0  0  0  0  0  0  0  0  0
   24.4873  -20.8912  -10.6662 C   0  0  0  0  0  0  0  0  0  0  0  0
   24.3838  -21.0395  -12.1387 C   0  0  2  0  0  0  0  0  0  0  0  0
   25.0303  -19.9862  -12.8513 N   0  0  0  0  0  0  0  0  0  0  0  0
   22.9899  -21.2696  -12.6214 C   0  0  0  0  0  0  0  0  0  0  0  0
   22.2372  -21.9987  -11.9544 O   0  0  0  0  0  0  0  0  0  0  0  0
   19.4765  -22.9024  -16.5251 N   0  0  0  0  0  0  0  0  0  0  0  0
   19.6362  -22.6695  -15.1484 C   0  0  0  0  0  0  0  0  0  0  0  0
   18.6035  -22.6380  -14.3881 O   0  0  0  0  0  0  0  0  0  0  0  0
   20.9452  -22.4512  -14.4977 C   0  0  0  0  0  0  0  0  0  0  0  0
   21.1914  -20.9614  -14.3912 C   0  0  2  0  0  0  0  0  0  0  0  0
   22.4876  -20.6915  -13.8062 N   0  0  0  0  0  0  0  0  0  0  0  0
   20.1543  -20.3571  -13.5496 C   0  0  0  0  0  0  0  0  0  0  0  0
   19.4126  -19.2901  -14.0381 O   0  0  0  0  0  0  0  0  0  0  0  0
   19.8831  -20.7531  -12.3787 O   0  0  0  0  0  0  0  0  0  0  0  0
  2  1  1  0
  2 12  2  0
  3  2  1  0
  4  3  2  0
  4  5  1  0
  5 11  2  0
  6  5  1  0
  7  8  1  6
  7  6  1  0
  9  7  1  0
 10  9  2  0
 11 12  1  0
 13 14  1  0
 14 15  2  0
 14 16  1  0
 17 16  1  1
 17 19  1  0
 17 18  1  0
 18  9  1  0
 19 20  2  0
 22 21  1  0
 22 24  1  0
 23 22  2  0
 25 24  1  1
 26 25  1  0
 26 19  1  0
 27 28  1  0
 27 25  1  0
 29 27  2  0
M  END
$$$$
