YNN.pdb
     RDKit          3D

 29 29  0  0  1  0  0  0  0  0999 V2000
   19.8139  -23.8108   -7.0818 O   0  0  0  0  0  0  0  0  0  0  0  0
   20.5138  -22.9737   -7.9316 C   0  0  0  0  0  0  0  0  0  0  0  0
   21.2537  -21.9479   -7.3975 C   0  0  0  0  0  0  0  0  0  0  0  0
   21.9408  -21.1272   -8.2449 C   0  0  0  0  0  0  0  0  0  0  0  0
   21.9318  -21.2731   -9.6163 C   0  0  0  0  0  0  0  0  0  0  0  0
   22.6828  -20.3644  -10.5027 C   0  0  0  0  0  0  0  0  0  0  0  0
   23.9108  -21.0697  -11.0433 C   0  0  2  0  0  0  0  0  0  0  0  0
   24.9677  -21.1294  -10.0680 N   0  0  0  0  0  0  0  0  0  0  0  0
   24.4184  -20.4376  -12.2701 C   0  0  0  0  0  0  0  0  0  0  0  0
   25.0015  -19.3285  -12.1779 O   0  0  0  0  0  0  0  0  0  0  0  0
   21.1871  -22.3041  -10.1372 C   0  0  0  0  0  0  0  0  0  0  0  0
   20.4786  -23.1533   -9.2867 C   0  0  0  0  0  0  0  0  0  0  0  0
   27.6033  -20.7671  -13.9447 N   0  0  0  0  0  0  0  0  0  0  0  0
   27.0317  -21.4442  -15.0510 C   0  0  0  0  0  0  0  0  0  0  0  0
   27.7514  -22.3249  -15.6387 O   0  0  0  0  0  0  0  0  0  0  0  0
   25.6729  -21.2096  -15.5724 C   0  0  0  0  0  0  0  0  0  0  0  0
   24.8624  -20.3170  -14.7080 C   0  0  2  0  0  0  0  0  0  0  0  0
   24.3001  -20.9910  -13.5834 N   0  0  0  0  0  0  0  0  0  0  0  0
   23.8408  -19.5249  -15.4550 C   0  0  0  0  0  0  0  0  0  0  0  0
   22.7144  -20.0169  -15.6343 O   0  0  0  0  0  0  0  0  0  0  0  0
   23.0844  -14.3923  -18.6734 N   0  0  0  0  0  0  0  0  0  0  0  0
   22.6571  -15.2413  -17.6381 C   0  0  0  0  0  0  0  0  0  0  0  0
   21.4017  -15.3973  -17.4255 O   0  0  0  0  0  0  0  0  0  0  0  0
   23.5770  -15.9859  -16.7527 C   0  0  0  0  0  0  0  0  0  0  0  0
   23.1851  -17.4480  -16.7656 C   0  0  2  0  0  0  0  0  0  0  0  0
   24.0996  -18.2360  -15.9669 N   0  0  0  0  0  0  0  0  0  0  0  0
   23.2083  -17.9445  -18.1447 C   0  0  0  0  0  0  0  0  0  0  0  0
   22.0170  -18.0724  -18.8460 O   0  0  0  0  0  0  0  0  0  0  0  0
   24.2680  -18.2722  -18.7539 O   0  0  0  0  0  0  0  0  0  0  0  0
  2  1  1  0
  2 12  2  0
  3  2  1  0
  4  3  2  0
  4  5  1  0
  5 11  2  0
  6  5  1  0
  7  8  1  1
  7  6  1  0
  9  7  1  0
 10  9  2  0
 11 12  1  0
 13 14  1  0
 14 15  2  0
 14 16  1  0
 17 16  1  6
 17 19  1  0
 17 18  1  0
 18  9  1  0
 19 20  2  0
 22 21  1  0
 22 24  1  0
 23 22  2  0
 25 24  1  6
 26 25  1  0
 26 19  1  0
 27 28  1  0
 27 25  1  0
 29 27  2  0
M  END
$$$$
