YNN.pdb
     RDKit          3D

 29 29  0  0  1  0  0  0  0  0999 V2000
   21.1635  -19.3133  -14.3706 O   0  0  0  0  0  0  0  0  0  0  0  0
   21.0551  -17.9745  -14.7005 C   0  0  0  0  0  0  0  0  0  0  0  0
   20.1231  -17.2014  -14.0534 C   0  0  0  0  0  0  0  0  0  0  0  0
   20.0240  -15.8811  -14.3865 C   0  0  0  0  0  0  0  0  0  0  0  0
   20.8134  -15.2784  -15.3434 C   0  0  0  0  0  0  0  0  0  0  0  0
   20.6758  -13.8494  -15.6815 C   0  0  0  0  0  0  0  0  0  0  0  0
   19.4407  -13.6380  -16.5345 C   0  0  2  0  0  0  0  0  0  0  0  0
   19.5583  -14.2808  -17.8169 N   0  0  0  0  0  0  0  0  0  0  0  0
   19.1409  -12.2121  -16.7327 C   0  0  0  0  0  0  0  0  0  0  0  0
   19.8929  -11.5380  -17.4801 O   0  0  0  0  0  0  0  0  0  0  0  0
   21.7420  -16.0642  -15.9832 C   0  0  0  0  0  0  0  0  0  0  0  0
   21.8580  -17.4155  -15.6557 C   0  0  0  0  0  0  0  0  0  0  0  0
   15.3771  -10.0793  -18.7689 N   0  0  0  0  0  0  0  0  0  0  0  0
   15.6559  -10.5197  -17.4510 C   0  0  0  0  0  0  0  0  0  0  0  0
   15.2178  -11.6734  -17.1102 O   0  0  0  0  0  0  0  0  0  0  0  0
   16.4118   -9.7491  -16.4469 C   0  0  0  0  0  0  0  0  0  0  0  0
   17.8452  -10.1260  -16.3804 C   0  0  2  0  0  0  0  0  0  0  0  0
   18.0444  -11.5168  -16.1332 N   0  0  0  0  0  0  0  0  0  0  0  0
   18.6473   -9.2717  -15.4551 C   0  0  0  0  0  0  0  0  0  0  0  0
   19.3279   -9.8195  -14.5721 O   0  0  0  0  0  0  0  0  0  0  0  0
   22.7978   -5.6017  -14.4917 N   0  0  0  0  0  0  0  0  0  0  0  0
   21.7148   -6.3641  -14.0214 C   0  0  0  0  0  0  0  0  0  0  0  0
   21.3537   -6.2607  -12.7948 O   0  0  0  0  0  0  0  0  0  0  0  0
   20.9428   -7.3024  -14.8628 C   0  0  0  0  0  0  0  0  0  0  0  0
   19.4702   -6.9812  -14.7219 C   0  0  2  0  0  0  0  0  0  0  0  0
   18.6672   -7.8638  -15.5413 N   0  0  0  0  0  0  0  0  0  0  0  0
   19.2334   -5.5964  -15.1405 C   0  0  0  0  0  0  0  0  0  0  0  0
   19.2256   -5.2823  -16.4928 O   0  0  0  0  0  0  0  0  0  0  0  0
   19.0305   -4.6447  -14.3316 O   0  0  0  0  0  0  0  0  0  0  0  0
  2  1  1  0
  2 12  2  0
  3  2  1  0
  4  3  2  0
  4  5  1  0
  5 11  2  0
  6  5  1  0
  7  8  1  6
  7  6  1  0
  9  7  1  0
 10  9  2  0
 11 12  1  0
 13 14  1  0
 14 15  2  0
 14 16  1  0
 17 16  1  1
 17 19  1  0
 17 18  1  0
 18  9  1  0
 19 20  2  0
 22 21  1  0
 22 24  1  0
 23 22  2  0
 25 24  1  6
 26 25  1  0
 26 19  1  0
 27 28  1  0
 27 25  1  0
 29 27  2  0
M  END
$$$$
