YNN.pdb
     RDKit          3D

 29 29  0  0  1  0  0  0  0  0999 V2000
   23.6080  -21.9141   -5.6034 O   0  0  0  0  0  0  0  0  0  0  0  0
   24.2099  -21.4043   -6.7395 C   0  0  0  0  0  0  0  0  0  0  0  0
   25.4599  -20.8453   -6.6385 C   0  0  0  0  0  0  0  0  0  0  0  0
   26.0452  -20.3447   -7.7657 C   0  0  0  0  0  0  0  0  0  0  0  0
   25.4457  -20.3700   -9.0076 C   0  0  0  0  0  0  0  0  0  0  0  0
   26.1059  -19.8155  -10.2042 C   0  0  0  0  0  0  0  0  0  0  0  0
   26.4655  -20.9354  -11.1604 C   0  0  2  0  0  0  0  0  0  0  0  0
   27.6191  -21.6715  -10.7144 N   0  0  0  0  0  0  0  0  0  0  0  0
   26.7020  -20.4442  -12.5260 C   0  0  0  0  0  0  0  0  0  0  0  0
   27.7147  -19.7326  -12.7419 O   0  0  0  0  0  0  0  0  0  0  0  0
   24.1947  -20.9326   -9.0940 C   0  0  0  0  0  0  0  0  0  0  0  0
   23.5808  -21.4496   -7.9528 C   0  0  0  0  0  0  0  0  0  0  0  0
   27.0125  -19.0469  -17.4357 N   0  0  0  0  0  0  0  0  0  0  0  0
   27.3562  -20.3685  -17.0561 C   0  0  0  0  0  0  0  0  0  0  0  0
   28.0660  -21.0508  -17.8745 O   0  0  0  0  0  0  0  0  0  0  0  0
   26.9579  -21.0129  -15.7914 C   0  0  0  0  0  0  0  0  0  0  0  0
   26.1378  -20.1340  -14.9220 C   0  0  2  0  0  0  0  0  0  0  0  0
   25.8585  -20.7140  -13.6489 N   0  0  0  0  0  0  0  0  0  0  0  0
   24.9041  -19.6173  -15.5853 C   0  0  0  0  0  0  0  0  0  0  0  0
   23.9527  -20.3943  -15.7705 O   0  0  0  0  0  0  0  0  0  0  0  0
   21.5127  -16.5131  -17.9958 N   0  0  0  0  0  0  0  0  0  0  0  0
   22.7725  -15.8924  -18.0501 C   0  0  0  0  0  0  0  0  0  0  0  0
   22.9055  -14.7856  -18.6848 O   0  0  0  0  0  0  0  0  0  0  0  0
   23.9874  -16.4404  -17.4114 C   0  0  0  0  0  0  0  0  0  0  0  0
   23.6228  -17.7242  -16.6970 C   0  0  2  0  0  0  0  0  0  0  0  0
   24.7705  -18.2790  -16.0113 N   0  0  0  0  0  0  0  0  0  0  0  0
   23.1340  -18.7014  -17.6743 C   0  0  0  0  0  0  0  0  0  0  0  0
   21.7861  -19.0330  -17.6948 O   0  0  0  0  0  0  0  0  0  0  0  0
   23.8770  -19.2770  -18.5217 O   0  0  0  0  0  0  0  0  0  0  0  0
  2  1  1  0
  2 12  2  0
  3  2  1  0
  4  3  2  0
  4  5  1  0
  5 11  2  0
  6  5  1  0
  7  8  1  1
  7  6  1  0
  9  7  1  0
 10  9  2  0
 11 12  1  0
 13 14  1  0
 14 15  2  0
 14 16  1  0
 17 16  1  6
 17 19  1  0
 17 18  1  0
 18  9  1  0
 19 20  2  0
 22 21  1  0
 22 24  1  0
 23 22  2  0
 25 24  1  6
 26 25  1  0
 26 19  1  0
 27 28  1  0
 27 25  1  0
 29 27  2  0
M  END
$$$$
