YEE.pdb
     RDKit          3D

 31 31  0  0  1  0  0  0  0  0999 V2000
    5.5144  -10.1164   26.6561 O   0  0  0  0  0  0  0  0  0  0  0  0
    6.1736  -11.3377   26.4598 C   0  0  0  0  0  0  0  0  0  0  0  0
    6.7697  -11.6309   25.2601 C   0  0  0  0  0  0  0  0  0  0  0  0
    7.4242  -12.8309   25.0494 C   0  0  0  0  0  0  0  0  0  0  0  0
    7.4787  -13.7470   26.0603 C   0  0  0  0  0  0  0  0  0  0  0  0
    8.1759  -15.0488   25.8661 C   0  0  0  0  0  0  0  0  0  0  0  0
    7.4092  -15.7973   24.7766 C   0  0  2  0  0  0  0  0  0  0  0  0
    6.2503  -16.3817   25.3838 N   0  0  0  0  0  0  0  0  0  0  0  0
    8.3500  -16.8287   24.2514 C   0  0  0  0  0  0  0  0  0  0  0  0
    8.4726  -17.9400   24.8265 O   0  0  0  0  0  0  0  0  0  0  0  0
    6.8787  -13.4722   27.2935 C   0  0  0  0  0  0  0  0  0  0  0  0
    6.2332  -12.2633   27.4691 C   0  0  0  0  0  0  0  0  0  0  0  0
    9.1229  -16.5836   23.1000 N   0  0  0  0  0  0  0  0  0  0  0  0
   10.1525  -17.5308   22.6652 C   0  0  1  0  0  0  0  0  0  0  0  0
   10.5582  -17.1802   21.2696 C   0  0  0  0  0  0  0  0  0  0  0  0
   11.5985  -18.0582   20.6693 C   0  0  0  0  0  0  0  0  0  0  0  0
   11.8729  -17.7052   19.2720 C   0  0  0  0  0  0  0  0  0  0  0  0
   12.5713  -16.7211   18.9859 O   0  0  0  0  0  0  0  0  0  0  0  0
   11.3246  -17.4179   23.5965 C   0  0  0  0  0  0  0  0  0  0  0  0
   11.8972  -16.3436   23.8710 O   0  0  0  0  0  0  0  0  0  0  0  0
   11.3441  -18.4827   18.2605 O   0  0  0  0  0  0  0  0  0  0  0  0
   11.8441  -18.5950   24.2264 N   0  0  0  0  0  0  0  0  0  0  0  0
   12.9730  -18.5269   25.1683 C   0  0  1  0  0  0  0  0  0  0  0  0
   12.6473  -19.4037   26.3346 C   0  0  0  0  0  0  0  0  0  0  0  0
   11.5165  -18.9899   27.1886 C   0  0  0  0  0  0  0  0  0  0  0  0
   11.3323  -19.8678   28.3519 C   0  0  0  0  0  0  0  0  0  0  0  0
   10.3113  -19.9207   29.0402 O   0  0  0  0  0  0  0  0  0  0  0  0
   14.1870  -18.8928   24.4510 C   0  0  0  0  0  0  0  0  0  0  0  0
   14.0945  -19.5864   23.2640 O   0  0  0  0  0  0  0  0  0  0  0  0
   12.4183  -20.6992   28.6819 O   0  0  0  0  0  0  0  0  0  0  0  0
   15.3127  -18.5928   24.8862 O   0  0  0  0  0  0  0  0  0  0  0  0
  2  1  1  0
  3  2  2  0
  4  3  1  0
  5 11  1  0
  5  4  2  0
  6  5  1  0
  7  6  1  0
  7  8  1  1
  9 10  2  0
  9  7  1  0
 11 12  2  0
 12  2  1  0
 13  9  1  0
 14 13  1  0
 14 15  1  6
 15 16  1  0
 16 17  1  0
 17 21  1  0
 18 17  2  0
 19 14  1  0
 20 19  2  0
 22 19  1  0
 23 22  1  0
 23 24  1  1
 24 25  1  0
 26 30  1  0
 26 25  1  0
 27 26  2  0
 28 23  1  0
 28 29  1  0
 31 28  2  0
M  END
$$$$
