YEE.pdb
     RDKit          3D

 31 31  0  0  1  0  0  0  0  0999 V2000
    8.9460  -11.6582   19.4330 O   0  0  0  0  0  0  0  0  0  0  0  0
    8.3980  -12.8355   19.9603 C   0  0  0  0  0  0  0  0  0  0  0  0
    7.3975  -13.5029   19.3013 C   0  0  0  0  0  0  0  0  0  0  0  0
    6.8456  -14.6657   19.8074 C   0  0  0  0  0  0  0  0  0  0  0  0
    7.3076  -15.1623   20.9922 C   0  0  0  0  0  0  0  0  0  0  0  0
    6.7348  -16.4126   21.5644 C   0  0  0  0  0  0  0  0  0  0  0  0
    7.0217  -17.5258   20.5577 C   0  0  2  0  0  0  0  0  0  0  0  0
    5.8965  -18.4130   20.5581 N   0  0  0  0  0  0  0  0  0  0  0  0
    8.2665  -18.1953   21.0341 C   0  0  0  0  0  0  0  0  0  0  0  0
    8.2183  -19.0924   21.9136 O   0  0  0  0  0  0  0  0  0  0  0  0
    8.3273  -14.5006   21.6840 C   0  0  0  0  0  0  0  0  0  0  0  0
    8.8557  -13.3413   21.1493 C   0  0  0  0  0  0  0  0  0  0  0  0
    9.5248  -17.8397   20.5112 N   0  0  0  0  0  0  0  0  0  0  0  0
   10.7424  -18.5381   20.9307 C   0  0  1  0  0  0  0  0  0  0  0  0
   11.7750  -18.3710   19.8625 C   0  0  0  0  0  0  0  0  0  0  0  0
   13.0861  -19.0182   20.1374 C   0  0  0  0  0  0  0  0  0  0  0  0
   14.0438  -18.7992   19.0478 C   0  0  0  0  0  0  0  0  0  0  0  0
   14.8330  -17.8428   19.0722 O   0  0  0  0  0  0  0  0  0  0  0  0
   11.2172  -17.9315   22.2192 C   0  0  0  0  0  0  0  0  0  0  0  0
   11.3755  -16.7066   22.3976 O   0  0  0  0  0  0  0  0  0  0  0  0
   14.0652  -19.6733   17.9788 O   0  0  0  0  0  0  0  0  0  0  0  0
   11.5166  -18.7807   23.3335 N   0  0  0  0  0  0  0  0  0  0  0  0
   11.9892  -18.2294   24.6136 C   0  0  1  0  0  0  0  0  0  0  0  0
   11.5655  -19.1671   25.6982 C   0  0  0  0  0  0  0  0  0  0  0  0
   11.9442  -18.8088   27.0792 C   0  0  0  0  0  0  0  0  0  0  0  0
   11.4792  -19.7903   28.0684 C   0  0  0  0  0  0  0  0  0  0  0  0
   10.9042  -20.8461   27.7973 O   0  0  0  0  0  0  0  0  0  0  0  0
   13.4276  -18.0206   24.5159 C   0  0  0  0  0  0  0  0  0  0  0  0
   14.0174  -16.9966   25.2247 O   0  0  0  0  0  0  0  0  0  0  0  0
   11.7218  -19.4757   29.4182 O   0  0  0  0  0  0  0  0  0  0  0  0
   14.1416  -18.7483   23.8039 O   0  0  0  0  0  0  0  0  0  0  0  0
  2  1  1  0
  3  2  2  0
  4  3  1  0
  5 11  1  0
  5  4  2  0
  6  5  1  0
  7  6  1  0
  7  8  1  1
  9 10  2  0
  9  7  1  0
 11 12  2  0
 12  2  1  0
 13  9  1  0
 14 13  1  0
 14 15  1  6
 15 16  1  0
 16 17  1  0
 17 21  1  0
 18 17  2  0
 19 14  1  0
 20 19  2  0
 22 19  1  0
 23 22  1  0
 23 24  1  1
 24 25  1  0
 26 30  1  0
 26 25  1  0
 27 26  2  0
 28 23  1  0
 28 29  1  0
 31 28  2  0
M  END
$$$$
