YEE.pdb
     RDKit          3D

 31 31  0  0  1  0  0  0  0  0999 V2000
    5.4631  -12.4004   18.8210 O   0  0  0  0  0  0  0  0  0  0  0  0
    6.7454  -12.8843   19.1146 C   0  0  0  0  0  0  0  0  0  0  0  0
    6.9149  -14.0077   19.8826 C   0  0  0  0  0  0  0  0  0  0  0  0
    8.1728  -14.4987   20.1819 C   0  0  0  0  0  0  0  0  0  0  0  0
    9.2735  -13.8497   19.7011 C   0  0  0  0  0  0  0  0  0  0  0  0
   10.6422  -14.3527   20.0049 C   0  0  0  0  0  0  0  0  0  0  0  0
   11.1562  -15.0195   18.7297 C   0  0  2  0  0  0  0  0  0  0  0  0
   10.3214  -16.1538   18.4652 N   0  0  0  0  0  0  0  0  0  0  0  0
   12.5663  -15.4129   19.0152 C   0  0  0  0  0  0  0  0  0  0  0  0
   12.8225  -16.4106   19.7360 O   0  0  0  0  0  0  0  0  0  0  0  0
    9.1277  -12.7018   18.9154 C   0  0  0  0  0  0  0  0  0  0  0  0
    7.8562  -12.2390   18.6362 C   0  0  0  0  0  0  0  0  0  0  0  0
   13.6440  -14.6775   18.4852 N   0  0  0  0  0  0  0  0  0  0  0  0
   15.0298  -15.0385   18.7941 C   0  0  1  0  0  0  0  0  0  0  0  0
   15.9334  -14.2570   17.8951 C   0  0  0  0  0  0  0  0  0  0  0  0
   17.3810  -14.5805   18.0099 C   0  0  0  0  0  0  0  0  0  0  0  0
   18.0438  -14.5965   16.7012 C   0  0  0  0  0  0  0  0  0  0  0  0
   18.1574  -15.6484   16.0542 O   0  0  0  0  0  0  0  0  0  0  0  0
   15.2990  -14.7002   20.2316 C   0  0  0  0  0  0  0  0  0  0  0  0
   15.2228  -13.5474   20.7037 O   0  0  0  0  0  0  0  0  0  0  0  0
   18.5486  -13.4199   16.1832 O   0  0  0  0  0  0  0  0  0  0  0  0
   15.6686  -15.7391   21.1462 N   0  0  0  0  0  0  0  0  0  0  0  0
   15.8207  -15.4758   22.5862 C   0  0  1  0  0  0  0  0  0  0  0  0
   15.3607  -16.6925   23.3233 C   0  0  0  0  0  0  0  0  0  0  0  0
   13.9128  -16.9796   23.3044 C   0  0  0  0  0  0  0  0  0  0  0  0
   13.5725  -18.2292   23.9976 C   0  0  0  0  0  0  0  0  0  0  0  0
   14.3656  -19.1424   24.2344 O   0  0  0  0  0  0  0  0  0  0  0  0
   17.2055  -15.0989   22.8363 C   0  0  0  0  0  0  0  0  0  0  0  0
   18.1769  -15.4218   21.9140 O   0  0  0  0  0  0  0  0  0  0  0  0
   12.2346  -18.3669   24.4108 O   0  0  0  0  0  0  0  0  0  0  0  0
   17.5352  -14.4889   23.8685 O   0  0  0  0  0  0  0  0  0  0  0  0
  2  1  1  0
  3  2  2  0
  4  3  1  0
  5 11  1  0
  5  4  2  0
  6  5  1  0
  7  6  1  0
  7  8  1  1
  9 10  2  0
  9  7  1  0
 11 12  2  0
 12  2  1  0
 13  9  1  0
 14 13  1  0
 14 15  1  6
 15 16  1  0
 16 17  1  0
 17 21  1  0
 18 17  2  0
 19 14  1  0
 20 19  2  0
 22 19  1  0
 23 22  1  0
 23 24  1  1
 24 25  1  0
 26 30  1  0
 26 25  1  0
 27 26  2  0
 28 23  1  0
 28 29  1  0
 31 28  2  0
M  END
$$$$
