YEE.pdb
     RDKit          3D

 31 31  0  0  1  0  0  0  0  0999 V2000
    5.1756  -10.4783   27.4185 O   0  0  0  0  0  0  0  0  0  0  0  0
    5.9422  -11.5213   26.8807 C   0  0  0  0  0  0  0  0  0  0  0  0
    6.6144  -12.3942   27.6973 C   0  0  0  0  0  0  0  0  0  0  0  0
    7.3751  -13.4286   27.1834 C   0  0  0  0  0  0  0  0  0  0  0  0
    7.4594  -13.5855   25.8298 C   0  0  0  0  0  0  0  0  0  0  0  0
    8.2701  -14.6894   25.2443 C   0  0  0  0  0  0  0  0  0  0  0  0
    7.2889  -15.6287   24.5443 C   0  0  2  0  0  0  0  0  0  0  0  0
    6.5081  -16.2752   25.5570 N   0  0  0  0  0  0  0  0  0  0  0  0
    8.1268  -16.5952   23.7770 C   0  0  0  0  0  0  0  0  0  0  0  0
    8.5175  -17.6677   24.3039 O   0  0  0  0  0  0  0  0  0  0  0  0
    6.7834  -12.7087   24.9753 C   0  0  0  0  0  0  0  0  0  0  0  0
    6.0326  -11.6863   25.5229 C   0  0  0  0  0  0  0  0  0  0  0  0
    8.5003  -16.3305   22.4452 N   0  0  0  0  0  0  0  0  0  0  0  0
    9.4699  -17.1800   21.7492 C   0  0  1  0  0  0  0  0  0  0  0  0
    9.4647  -16.8136   20.2997 C   0  0  0  0  0  0  0  0  0  0  0  0
    8.2017  -17.1114   19.5722 C   0  0  0  0  0  0  0  0  0  0  0  0
    8.1610  -16.4616   18.2575 C   0  0  0  0  0  0  0  0  0  0  0  0
    9.0560  -16.6536   17.4208 O   0  0  0  0  0  0  0  0  0  0  0  0
   10.8261  -16.9395   22.3464 C   0  0  0  0  0  0  0  0  0  0  0  0
   11.2445  -15.8181   22.6997 O   0  0  0  0  0  0  0  0  0  0  0  0
    7.1080  -15.6230   17.9487 O   0  0  0  0  0  0  0  0  0  0  0  0
   11.7212  -18.0417   22.5370 N   0  0  0  0  0  0  0  0  0  0  0  0
   12.9632  -17.8964   23.3132 C   0  0  1  0  0  0  0  0  0  0  0  0
   12.8643  -18.7948   24.5041 C   0  0  0  0  0  0  0  0  0  0  0  0
   14.0991  -19.4842   24.9275 C   0  0  0  0  0  0  0  0  0  0  0  0
   13.8819  -20.3936   26.0605 C   0  0  0  0  0  0  0  0  0  0  0  0
   14.2311  -20.1697   27.2210 O   0  0  0  0  0  0  0  0  0  0  0  0
   14.0873  -18.1767   22.4300 C   0  0  0  0  0  0  0  0  0  0  0  0
   15.3598  -17.8075   22.8082 O   0  0  0  0  0  0  0  0  0  0  0  0
   13.2241  -21.6030   25.7701 O   0  0  0  0  0  0  0  0  0  0  0  0
   13.9262  -18.7448   21.3356 O   0  0  0  0  0  0  0  0  0  0  0  0
  2  1  1  0
  3  2  2  0
  4  3  1  0
  5 11  1  0
  5  4  2  0
  6  5  1  0
  7  6  1  0
  7  8  1  1
  9 10  2  0
  9  7  1  0
 11 12  2  0
 12  2  1  0
 13  9  1  0
 14 13  1  0
 14 15  1  6
 15 16  1  0
 16 17  1  0
 17 21  1  0
 18 17  2  0
 19 14  1  0
 20 19  2  0
 22 19  1  0
 23 22  1  0
 23 24  1  1
 24 25  1  0
 26 30  1  0
 26 25  1  0
 27 26  2  0
 28 23  1  0
 28 29  1  0
 31 28  2  0
M  END
$$$$
