YEE.pdb
     RDKit          3D

 31 31  0  0  1  0  0  0  0  0999 V2000
    7.2102  -11.2501   18.8372 O   0  0  0  0  0  0  0  0  0  0  0  0
    7.8419  -12.2920   19.5301 C   0  0  0  0  0  0  0  0  0  0  0  0
    9.1948  -12.4893   19.4239 C   0  0  0  0  0  0  0  0  0  0  0  0
    9.8340  -13.5121   20.1006 C   0  0  0  0  0  0  0  0  0  0  0  0
    9.1007  -14.3466   20.8943 C   0  0  0  0  0  0  0  0  0  0  0  0
    9.7586  -15.4578   21.6367 C   0  0  0  0  0  0  0  0  0  0  0  0
   10.0619  -16.5495   20.6115 C   0  0  2  0  0  0  0  0  0  0  0  0
    8.8136  -17.1258   20.2079 N   0  0  0  0  0  0  0  0  0  0  0  0
   10.9364  -17.5344   21.3115 C   0  0  0  0  0  0  0  0  0  0  0  0
   10.4493  -18.3716   22.1131 O   0  0  0  0  0  0  0  0  0  0  0  0
    7.7194  -14.1667   21.0196 C   0  0  0  0  0  0  0  0  0  0  0  0
    7.1136  -13.1346   20.3292 C   0  0  0  0  0  0  0  0  0  0  0  0
   12.3273  -17.5511   21.0919 N   0  0  0  0  0  0  0  0  0  0  0  0
   13.1793  -18.5647   21.7188 C   0  0  1  0  0  0  0  0  0  0  0  0
   14.4064  -18.7342   20.8817 C   0  0  0  0  0  0  0  0  0  0  0  0
   14.1848  -19.3440   19.5429 C   0  0  0  0  0  0  0  0  0  0  0  0
   15.2952  -19.0676   18.6248 C   0  0  0  0  0  0  0  0  0  0  0  0
   16.2562  -19.8458   18.5303 O   0  0  0  0  0  0  0  0  0  0  0  0
   13.5447  -18.0916   23.0958 C   0  0  0  0  0  0  0  0  0  0  0  0
   13.9274  -16.9329   23.3573 O   0  0  0  0  0  0  0  0  0  0  0  0
   15.2679  -17.9218   17.8543 O   0  0  0  0  0  0  0  0  0  0  0  0
   13.4608  -18.9987   24.2015 N   0  0  0  0  0  0  0  0  0  0  0  0
   13.7384  -18.5586   25.5782 C   0  0  1  0  0  0  0  0  0  0  0  0
   13.0538  -19.5088   26.5075 C   0  0  0  0  0  0  0  0  0  0  0  0
   13.3125  -19.3378   27.9507 C   0  0  0  0  0  0  0  0  0  0  0  0
   12.6047  -20.3258   28.7757 C   0  0  0  0  0  0  0  0  0  0  0  0
   13.0871  -21.3884   29.1721 O   0  0  0  0  0  0  0  0  0  0  0  0
   15.1830  -18.4755   25.7470 C   0  0  0  0  0  0  0  0  0  0  0  0
   16.0023  -19.3247   25.0356 O   0  0  0  0  0  0  0  0  0  0  0  0
   11.2787  -20.0095   29.1243 O   0  0  0  0  0  0  0  0  0  0  0  0
   15.6989  -17.6515   26.5224 O   0  0  0  0  0  0  0  0  0  0  0  0
  2  1  1  0
  3  2  2  0
  4  3  1  0
  5 11  1  0
  5  4  2  0
  6  5  1  0
  7  6  1  0
  7  8  1  1
  9 10  2  0
  9  7  1  0
 11 12  2  0
 12  2  1  0
 13  9  1  0
 14 13  1  0
 14 15  1  6
 15 16  1  0
 16 17  1  0
 17 21  1  0
 18 17  2  0
 19 14  1  0
 20 19  2  0
 22 19  1  0
 23 22  1  0
 23 24  1  1
 24 25  1  0
 26 30  1  0
 26 25  1  0
 27 26  2  0
 28 23  1  0
 28 29  1  0
 31 28  2  0
M  END
$$$$
