YEE.pdb
     RDKit          3D

 31 31  0  0  1  0  0  0  0  0999 V2000
    6.5727  -12.8885   17.4907 O   0  0  0  0  0  0  0  0  0  0  0  0
    7.3422  -13.2521   18.6044 C   0  0  0  0  0  0  0  0  0  0  0  0
    8.7117  -13.2745   18.5367 C   0  0  0  0  0  0  0  0  0  0  0  0
    9.4861  -13.6308   19.6258 C   0  0  0  0  0  0  0  0  0  0  0  0
    8.8728  -13.9687   20.7979 C   0  0  0  0  0  0  0  0  0  0  0  0
    9.6777  -14.3568   21.9895 C   0  0  0  0  0  0  0  0  0  0  0  0
   10.2301  -15.7535   21.7081 C   0  0  2  0  0  0  0  0  0  0  0  0
    9.1316  -16.6726   21.7524 N   0  0  0  0  0  0  0  0  0  0  0  0
   11.2306  -16.0201   22.7817 C   0  0  0  0  0  0  0  0  0  0  0  0
   12.2150  -15.2559   22.9479 O   0  0  0  0  0  0  0  0  0  0  0  0
    7.4775  -13.9538   20.8930 C   0  0  0  0  0  0  0  0  0  0  0  0
    6.7349  -13.5929   19.7851 C   0  0  0  0  0  0  0  0  0  0  0  0
   11.0975  -17.1328   23.6346 N   0  0  0  0  0  0  0  0  0  0  0  0
   12.0565  -17.3759   24.7150 C   0  0  1  0  0  0  0  0  0  0  0  0
   11.3554  -18.1090   25.8133 C   0  0  0  0  0  0  0  0  0  0  0  0
   12.2161  -18.5209   26.9547 C   0  0  0  0  0  0  0  0  0  0  0  0
   11.4635  -19.2746   27.9637 C   0  0  0  0  0  0  0  0  0  0  0  0
   10.5957  -18.7242   28.6579 O   0  0  0  0  0  0  0  0  0  0  0  0
   13.1856  -18.2017   24.1702 C   0  0  0  0  0  0  0  0  0  0  0  0
   13.0363  -19.3111   23.6185 O   0  0  0  0  0  0  0  0  0  0  0  0
   11.7274  -20.6185   28.1416 O   0  0  0  0  0  0  0  0  0  0  0  0
   14.5301  -17.7178   24.2726 N   0  0  0  0  0  0  0  0  0  0  0  0
   15.6734  -18.5259   23.8186 C   0  0  1  0  0  0  0  0  0  0  0  0
   16.7625  -17.5863   23.4108 C   0  0  0  0  0  0  0  0  0  0  0  0
   16.4473  -16.6194   22.3409 C   0  0  0  0  0  0  0  0  0  0  0  0
   17.6191  -15.8439   21.9128 C   0  0  0  0  0  0  0  0  0  0  0  0
   18.3206  -16.1087   20.9346 O   0  0  0  0  0  0  0  0  0  0  0  0
   16.0324  -19.4477   24.8880 C   0  0  0  0  0  0  0  0  0  0  0  0
   16.4162  -20.7344   24.5785 O   0  0  0  0  0  0  0  0  0  0  0  0
   17.9415  -14.7204   22.6961 O   0  0  0  0  0  0  0  0  0  0  0  0
   16.0009  -19.1002   26.0815 O   0  0  0  0  0  0  0  0  0  0  0  0
  2  1  1  0
  3  2  2  0
  4  3  1  0
  5 11  1  0
  5  4  2  0
  6  5  1  0
  7  6  1  0
  7  8  1  1
  9 10  2  0
  9  7  1  0
 11 12  2  0
 12  2  1  0
 13  9  1  0
 14 13  1  0
 14 15  1  1
 15 16  1  0
 16 17  1  0
 17 21  1  0
 18 17  2  0
 19 14  1  0
 20 19  2  0
 22 19  1  0
 23 22  1  0
 23 24  1  1
 24 25  1  0
 26 30  1  0
 26 25  1  0
 27 26  2  0
 28 23  1  0
 28 29  1  0
 31 28  2  0
M  END
$$$$
