WWE.pdb
     RDKit          3D

 38 41  0  0  1  0  0  0  0  0999 V2000
    7.9119  -15.9244   20.4207 N   0  0  0  0  0  0  0  0  0  0  0  0
    9.0273  -15.0427   20.6882 C   0  0  1  0  0  0  0  0  0  0  0  0
    8.7657  -13.6199   20.1886 C   0  0  0  0  0  0  0  0  0  0  0  0
    9.2330  -13.5268   18.7867 C   0  0  0  0  0  0  0  0  0  0  0  0
    8.4507  -13.3087   17.6603 C   0  0  0  0  0  0  0  0  0  0  0  0
    9.2698  -13.2898   16.5764 N   0  0  0  0  0  0  0  0  0  0  0  0
   10.5318  -13.4825   16.9444 C   0  0  0  0  0  0  0  0  0  0  0  0
   11.7403  -13.5649   16.3025 C   0  0  0  0  0  0  0  0  0  0  0  0
   12.9097  -13.7893   17.0131 C   0  0  0  0  0  0  0  0  0  0  0  0
   12.9029  -13.9367   18.3753 C   0  0  0  0  0  0  0  0  0  0  0  0
   11.6765  -13.8526   19.0228 C   0  0  0  0  0  0  0  0  0  0  0  0
   10.5253  -13.6327   18.3289 C   0  0  0  0  0  0  0  0  0  0  0  0
    9.1083  -14.9188   22.1761 C   0  0  0  0  0  0  0  0  0  0  0  0
    9.7483  -13.9893   22.7191 O   0  0  0  0  0  0  0  0  0  0  0  0
    8.4764  -15.8384   23.0716 N   0  0  0  0  0  0  0  0  0  0  0  0
    8.9624  -16.0022   24.4182 C   0  0  1  0  0  0  0  0  0  0  0  0
    7.8568  -16.5068   25.3047 C   0  0  0  0  0  0  0  0  0  0  0  0
    7.0259  -15.4411   25.8828 C   0  0  0  0  0  0  0  0  0  0  0  0
    5.7999  -15.6470   26.4935 C   0  0  0  0  0  0  0  0  0  0  0  0
    5.3867  -14.4519   26.9344 N   0  0  0  0  0  0  0  0  0  0  0  0
    6.2783  -13.4958   26.6381 C   0  0  0  0  0  0  0  0  0  0  0  0
    6.3308  -12.1301   26.8529 C   0  0  0  0  0  0  0  0  0  0  0  0
    7.4112  -11.4080   26.4034 C   0  0  0  0  0  0  0  0  0  0  0  0
    8.4617  -11.9924   25.7362 C   0  0  0  0  0  0  0  0  0  0  0  0
    8.4046  -13.3511   25.5242 C   0  0  0  0  0  0  0  0  0  0  0  0
    7.3274  -14.0919   25.9714 C   0  0  0  0  0  0  0  0  0  0  0  0
   10.0549  -17.0316   24.4564 C   0  0  0  0  0  0  0  0  0  0  0  0
    9.9079  -18.0293   23.7074 O   0  0  0  0  0  0  0  0  0  0  0  0
   11.2021  -16.9611   25.2454 N   0  0  0  0  0  0  0  0  0  0  0  0
   12.2696  -17.9457   25.1075 C   0  0  1  0  0  0  0  0  0  0  0  0
   13.4230  -17.3758   24.3711 C   0  0  0  0  0  0  0  0  0  0  0  0
   14.6538  -18.1849   24.2485 C   0  0  0  0  0  0  0  0  0  0  0  0
   15.7493  -17.5499   23.4859 C   0  0  0  0  0  0  0  0  0  0  0  0
   16.6765  -18.2599   23.0451 O   0  0  0  0  0  0  0  0  0  0  0  0
   12.5029  -18.6555   26.3407 C   0  0  0  0  0  0  0  0  0  0  0  0
   13.3456  -19.6162   26.3190 O   0  0  0  0  0  0  0  0  0  0  0  0
   15.7495  -16.1672   23.2615 O   0  0  0  0  0  0  0  0  0  0  0  0
   11.9006  -18.4053   27.5619 O   0  0  0  0  0  0  0  0  0  0  0  0
  2  1  1  1
  3  2  1  0
  4  5  2  0
  4  3  1  0
  6  5  1  0
  7 12  2  0
  7  6  1  0
  8  7  1  0
  9 10  1  0
  9  8  2  0
 10 11  2  0
 11 12  1  0
 12  4  1  0
 13  2  1  0
 14 13  2  0
 15 13  1  0
 16 15  1  0
 16 17  1  1
 18 19  2  0
 18 17  1  0
 20 19  1  0
 21 26  2  0
 21 20  1  0
 22 21  1  0
 23 24  1  0
 23 22  2  0
 24 25  2  0
 25 26  1  0
 26 18  1  0
 27 29  1  0
 27 16  1  0
 28 27  2  0
 30 29  1  0
 30 31  1  1
 31 32  1  0
 32 33  1  0
 33 37  1  0
 34 33  2  0
 35 38  1  0
 35 30  1  0
 36 35  2  0
M  END
$$$$
