WWE.pdb
     RDKit          3D

 38 41  0  0  1  0  0  0  0  0999 V2000
    9.5549  -14.3003   21.7641 N   0  0  0  0  0  0  0  0  0  0  0  0
    8.8615  -15.5153   22.1329 C   0  0  1  0  0  0  0  0  0  0  0  0
    9.0089  -16.6050   21.0684 C   0  0  0  0  0  0  0  0  0  0  0  0
    8.5214  -16.0639   19.7792 C   0  0  0  0  0  0  0  0  0  0  0  0
    8.4080  -16.7497   18.5771 C   0  0  0  0  0  0  0  0  0  0  0  0
    7.9177  -15.8894   17.6466 N   0  0  0  0  0  0  0  0  0  0  0  0
    7.7101  -14.6923   18.1843 C   0  0  0  0  0  0  0  0  0  0  0  0
    7.2497  -13.4812   17.7367 C   0  0  0  0  0  0  0  0  0  0  0  0
    7.1618  -12.3931   18.5919 C   0  0  0  0  0  0  0  0  0  0  0  0
    7.5294  -12.4855   19.9086 C   0  0  0  0  0  0  0  0  0  0  0  0
    7.9956  -13.7144   20.3590 C   0  0  0  0  0  0  0  0  0  0  0  0
    8.0840  -14.7857   19.5226 C   0  0  0  0  0  0  0  0  0  0  0  0
    9.5757  -16.0507   23.3325 C   0  0  0  0  0  0  0  0  0  0  0  0
   10.7765  -15.7728   23.5543 O   0  0  0  0  0  0  0  0  0  0  0  0
    8.9525  -16.9073   24.2941 N   0  0  0  0  0  0  0  0  0  0  0  0
    9.4498  -16.9778   25.6447 C   0  0  1  0  0  0  0  0  0  0  0  0
    8.3077  -16.8728   26.6180 C   0  0  0  0  0  0  0  0  0  0  0  0
    7.4606  -15.6891   26.4142 C   0  0  0  0  0  0  0  0  0  0  0  0
    6.1822  -15.7221   25.8821 C   0  0  0  0  0  0  0  0  0  0  0  0
    5.7243  -14.4639   25.9083 N   0  0  0  0  0  0  0  0  0  0  0  0
    6.6384  -13.6305   26.4251 C   0  0  0  0  0  0  0  0  0  0  0  0
    6.6727  -12.2678   26.6610 C   0  0  0  0  0  0  0  0  0  0  0  0
    7.7967  -11.6967   27.2101 C   0  0  0  0  0  0  0  0  0  0  0  0
    8.9102  -12.4324   27.5407 C   0  0  0  0  0  0  0  0  0  0  0  0
    8.8716  -13.7874   27.3033 C   0  0  0  0  0  0  0  0  0  0  0  0
    7.7493  -14.3776   26.7544 C   0  0  0  0  0  0  0  0  0  0  0  0
   10.1090  -18.3047   25.8888 C   0  0  0  0  0  0  0  0  0  0  0  0
    9.4198  -19.3246   25.6374 O   0  0  0  0  0  0  0  0  0  0  0  0
   11.4077  -18.4852   26.3621 N   0  0  0  0  0  0  0  0  0  0  0  0
   11.8210  -19.7519   26.9559 C   0  0  1  0  0  0  0  0  0  0  0  0
   13.2531  -20.0214   26.6837 C   0  0  0  0  0  0  0  0  0  0  0  0
   13.9369  -19.2267   25.6418 C   0  0  0  0  0  0  0  0  0  0  0  0
   13.7861  -19.7372   24.2627 C   0  0  0  0  0  0  0  0  0  0  0  0
   13.7437  -20.9697   24.0701 O   0  0  0  0  0  0  0  0  0  0  0  0
   11.3201  -19.8994   28.2999 C   0  0  0  0  0  0  0  0  0  0  0  0
   11.6385  -20.9613   28.9357 O   0  0  0  0  0  0  0  0  0  0  0  0
   13.6937  -18.8493   23.1832 O   0  0  0  0  0  0  0  0  0  0  0  0
   10.5172  -19.0019   28.9830 O   0  0  0  0  0  0  0  0  0  0  0  0
  2  1  1  6
  3  2  1  0
  4  5  2  0
  4  3  1  0
  6  5  1  0
  7 12  2  0
  7  6  1  0
  8  7  1  0
  9 10  1  0
  9  8  2  0
 10 11  2  0
 11 12  1  0
 12  4  1  0
 13  2  1  0
 14 13  2  0
 15 13  1  0
 16 15  1  0
 16 17  1  1
 18 19  2  0
 18 17  1  0
 20 19  1  0
 21 26  2  0
 21 20  1  0
 22 21  1  0
 23 24  1  0
 23 22  2  0
 24 25  2  0
 25 26  1  0
 26 18  1  0
 27 29  1  0
 27 16  1  0
 28 27  2  0
 30 29  1  0
 30 31  1  1
 31 32  1  0
 32 33  1  0
 33 37  1  0
 34 33  2  0
 35 38  1  0
 35 30  1  0
 36 35  2  0
M  END
$$$$
