WWE.pdb
     RDKit          3D

 38 41  0  0  1  0  0  0  0  0999 V2000
    8.7454  -16.9391   21.0942 N   0  0  0  0  0  0  0  0  0  0  0  0
    8.4134  -15.5497   21.3235 C   0  0  1  0  0  0  0  0  0  0  0  0
    7.0021  -15.2102   20.8386 C   0  0  0  0  0  0  0  0  0  0  0  0
    7.0742  -14.8741   19.3984 C   0  0  0  0  0  0  0  0  0  0  0  0
    6.3973  -15.5020   18.3612 C   0  0  0  0  0  0  0  0  0  0  0  0
    6.7407  -14.8851   17.2003 N   0  0  0  0  0  0  0  0  0  0  0  0
    7.5981  -13.8977   17.4349 C   0  0  0  0  0  0  0  0  0  0  0  0
    8.2640  -12.9734   16.6724 C   0  0  0  0  0  0  0  0  0  0  0  0
    9.1229  -12.0547   17.2566 C   0  0  0  0  0  0  0  0  0  0  0  0
    9.3379  -12.0352   18.6097 C   0  0  0  0  0  0  0  0  0  0  0  0
    8.6614  -12.9733   19.3796 C   0  0  0  0  0  0  0  0  0  0  0  0
    7.8173  -13.8778   18.8101 C   0  0  0  0  0  0  0  0  0  0  0  0
    8.3619  -15.3768   22.8078 C   0  0  0  0  0  0  0  0  0  0  0  0
    7.9917  -14.2985   23.3262 O   0  0  0  0  0  0  0  0  0  0  0  0
    8.7291  -16.4096   23.7272 N   0  0  0  0  0  0  0  0  0  0  0  0
    9.5230  -16.1072   24.8911 C   0  0  1  0  0  0  0  0  0  0  0  0
    8.7087  -16.3225   26.1375 C   0  0  0  0  0  0  0  0  0  0  0  0
    7.5421  -15.4350   26.2454 C   0  0  0  0  0  0  0  0  0  0  0  0
    6.2270  -15.8491   26.1126 C   0  0  0  0  0  0  0  0  0  0  0  0
    5.4628  -14.7709   26.3289 N   0  0  0  0  0  0  0  0  0  0  0  0
    6.2155  -13.6929   26.5901 C   0  0  0  0  0  0  0  0  0  0  0  0
    5.9331  -12.3670   26.8662 C   0  0  0  0  0  0  0  0  0  0  0  0
    6.9608  -11.4799   27.0848 C   0  0  0  0  0  0  0  0  0  0  0  0
    8.2820  -11.8575   27.0394 C   0  0  0  0  0  0  0  0  0  0  0  0
    8.5579  -13.1773   26.7636 C   0  0  0  0  0  0  0  0  0  0  0  0
    7.5371  -14.0822   26.5439 C   0  0  0  0  0  0  0  0  0  0  0  0
   10.7002  -17.0355   24.9746 C   0  0  0  0  0  0  0  0  0  0  0  0
   10.4697  -18.2502   24.7519 O   0  0  0  0  0  0  0  0  0  0  0  0
   12.0078  -16.6550   25.2724 N   0  0  0  0  0  0  0  0  0  0  0  0
   13.1055  -17.6122   25.1896 C   0  0  1  0  0  0  0  0  0  0  0  0
   14.2930  -17.0010   24.5462 C   0  0  0  0  0  0  0  0  0  0  0  0
   15.5443  -17.7849   24.4811 C   0  0  0  0  0  0  0  0  0  0  0  0
   16.6994  -17.0759   23.8909 C   0  0  0  0  0  0  0  0  0  0  0  0
   17.8021  -17.6569   23.8244 O   0  0  0  0  0  0  0  0  0  0  0  0
   13.2703  -18.3425   26.4219 C   0  0  0  0  0  0  0  0  0  0  0  0
   12.9356  -17.7546   27.5062 O   0  0  0  0  0  0  0  0  0  0  0  0
   16.5601  -15.7665   23.4133 O   0  0  0  0  0  0  0  0  0  0  0  0
   13.7622  -19.6296   26.5572 O   0  0  0  0  0  0  0  0  0  0  0  0
  2  1  1  1
  3  2  1  0
  4  5  2  0
  4  3  1  0
  6  5  1  0
  7 12  2  0
  7  6  1  0
  8  7  1  0
  9 10  1  0
  9  8  2  0
 10 11  2  0
 11 12  1  0
 12  4  1  0
 13  2  1  0
 14 13  2  0
 15 13  1  0
 16 15  1  0
 16 17  1  1
 18 19  2  0
 18 17  1  0
 20 19  1  0
 21 26  2  0
 21 20  1  0
 22 21  1  0
 23 24  1  0
 23 22  2  0
 24 25  2  0
 25 26  1  0
 26 18  1  0
 27 29  1  0
 27 16  1  0
 28 27  2  0
 30 29  1  0
 30 31  1  1
 31 32  1  0
 32 33  1  0
 33 37  1  0
 34 33  2  0
 35 38  1  0
 35 30  1  0
 36 35  2  0
M  END
$$$$
