WWE.pdb
     RDKit          3D

 38 41  0  0  1  0  0  0  0  0999 V2000
   11.1626  -16.3711   26.3123 N   0  0  0  0  0  0  0  0  0  0  0  0
   10.5946  -17.6989   26.2261 C   0  0  1  0  0  0  0  0  0  0  0  0
    9.3175  -17.8311   27.0591 C   0  0  0  0  0  0  0  0  0  0  0  0
    8.6624  -16.5045   27.1186 C   0  0  0  0  0  0  0  0  0  0  0  0
    7.3495  -16.2074   26.7777 C   0  0  0  0  0  0  0  0  0  0  0  0
    7.1526  -14.8784   26.9805 N   0  0  0  0  0  0  0  0  0  0  0  0
    8.2640  -14.3077   27.4324 C   0  0  0  0  0  0  0  0  0  0  0  0
    8.6407  -13.0396   27.7918 C   0  0  0  0  0  0  0  0  0  0  0  0
    9.9297  -12.7776   28.2309 C   0  0  0  0  0  0  0  0  0  0  0  0
   10.8707  -13.7694   28.3220 C   0  0  0  0  0  0  0  0  0  0  0  0
   10.4857  -15.0535   27.9570 C   0  0  0  0  0  0  0  0  0  0  0  0
    9.2209  -15.3154   27.5247 C   0  0  0  0  0  0  0  0  0  0  0  0
   10.1481  -17.8660   24.8089 C   0  0  0  0  0  0  0  0  0  0  0  0
    9.4426  -18.8394   24.4580 O   0  0  0  0  0  0  0  0  0  0  0  0
   10.4916  -16.9458   23.7686 N   0  0  0  0  0  0  0  0  0  0  0  0
   10.3171  -17.3054   22.3842 C   0  0  1  0  0  0  0  0  0  0  0  0
    9.5424  -16.2323   21.6692 C   0  0  0  0  0  0  0  0  0  0  0  0
    8.3530  -15.7717   22.3998 C   0  0  0  0  0  0  0  0  0  0  0  0
    7.4877  -16.6024   23.0923 C   0  0  0  0  0  0  0  0  0  0  0  0
    6.5707  -15.8101   23.6621 N   0  0  0  0  0  0  0  0  0  0  0  0
    6.8010  -14.5220   23.3710 C   0  0  0  0  0  0  0  0  0  0  0  0
    6.1658  -13.3355   23.6911 C   0  0  0  0  0  0  0  0  0  0  0  0
    6.6597  -12.1445   23.2131 C   0  0  0  0  0  0  0  0  0  0  0  0
    7.7771  -12.0779   22.4148 C   0  0  0  0  0  0  0  0  0  0  0  0
    8.4051  -13.2609   22.0984 C   0  0  0  0  0  0  0  0  0  0  0  0
    7.9234  -14.4660   22.5724 C   0  0  0  0  0  0  0  0  0  0  0  0
   11.6500  -17.4086   21.7005 C   0  0  0  0  0  0  0  0  0  0  0  0
   12.5299  -16.5905   22.0673 O   0  0  0  0  0  0  0  0  0  0  0  0
   11.9783  -18.3316   20.7087 N   0  0  0  0  0  0  0  0  0  0  0  0
   13.3417  -18.4336   20.1999 C   0  0  1  0  0  0  0  0  0  0  0  0
   13.5838  -19.7672   19.5997 C   0  0  0  0  0  0  0  0  0  0  0  0
   14.8842  -20.0229   18.9453 C   0  0  0  0  0  0  0  0  0  0  0  0
   15.6759  -21.1254   19.5309 C   0  0  0  0  0  0  0  0  0  0  0  0
   15.1173  -21.9364   20.2979 O   0  0  0  0  0  0  0  0  0  0  0  0
   13.7280  -17.2521   19.4692 C   0  0  0  0  0  0  0  0  0  0  0  0
   14.9110  -16.8047   19.6526 O   0  0  0  0  0  0  0  0  0  0  0  0
   17.0377  -21.2586   19.2310 O   0  0  0  0  0  0  0  0  0  0  0  0
   12.9416  -16.5394   18.5803 O   0  0  0  0  0  0  0  0  0  0  0  0
  2  1  1  6
  3  2  1  0
  4  5  2  0
  4  3  1  0
  6  5  1  0
  7 12  2  0
  7  6  1  0
  8  7  1  0
  9 10  1  0
  9  8  2  0
 10 11  2  0
 11 12  1  0
 12  4  1  0
 13  2  1  0
 14 13  2  0
 15 13  1  0
 16 15  1  0
 16 17  1  6
 18 19  2  0
 18 17  1  0
 20 19  1  0
 21 26  2  0
 21 20  1  0
 22 21  1  0
 23 24  1  0
 23 22  2  0
 24 25  2  0
 25 26  1  0
 26 18  1  0
 27 29  1  0
 27 16  1  0
 28 27  2  0
 30 29  1  0
 30 31  1  6
 31 32  1  0
 32 33  1  0
 33 37  1  0
 34 33  2  0
 35 38  1  0
 35 30  1  0
 36 35  2  0
M  END
$$$$
