WWE.pdb
     RDKit          3D

 38 41  0  0  1  0  0  0  0  0999 V2000
    7.8744  -16.3768   21.9128 N   0  0  0  0  0  0  0  0  0  0  0  0
    8.9626  -17.3147   21.7412 C   0  0  1  0  0  0  0  0  0  0  0  0
    9.8247  -16.9756   20.5229 C   0  0  0  0  0  0  0  0  0  0  0  0
    9.3868  -15.6634   19.9949 C   0  0  0  0  0  0  0  0  0  0  0  0
    9.8616  -15.0219   18.8586 C   0  0  0  0  0  0  0  0  0  0  0  0
    9.1939  -13.8456   18.7296 N   0  0  0  0  0  0  0  0  0  0  0  0
    8.3183  -13.6975   19.7178 C   0  0  0  0  0  0  0  0  0  0  0  0
    7.4089  -12.7414   20.0891 C   0  0  0  0  0  0  0  0  0  0  0  0
    6.6287  -12.9038   21.2239 C   0  0  0  0  0  0  0  0  0  0  0  0
    6.7358  -14.0188   22.0131 C   0  0  0  0  0  0  0  0  0  0  0  0
    7.6585  -14.9859   21.6339 C   0  0  0  0  0  0  0  0  0  0  0  0
    8.4271  -14.8305   20.5204 C   0  0  0  0  0  0  0  0  0  0  0  0
    9.8654  -17.1198   22.9171 C   0  0  0  0  0  0  0  0  0  0  0  0
   10.9222  -17.7797   23.0442 O   0  0  0  0  0  0  0  0  0  0  0  0
    9.5907  -16.1862   23.9657 N   0  0  0  0  0  0  0  0  0  0  0  0
    9.7946  -16.5512   25.3447 C   0  0  1  0  0  0  0  0  0  0  0  0
    8.4684  -16.7859   26.0147 C   0  0  0  0  0  0  0  0  0  0  0  0
    7.4914  -15.7109   25.7908 C   0  0  0  0  0  0  0  0  0  0  0  0
    6.2014  -15.9080   25.3266 C   0  0  0  0  0  0  0  0  0  0  0  0
    5.6133  -14.7051   25.3085 N   0  0  0  0  0  0  0  0  0  0  0  0
    6.4552  -13.7521   25.7330 C   0  0  0  0  0  0  0  0  0  0  0  0
    6.3542  -12.3818   25.8936 C   0  0  0  0  0  0  0  0  0  0  0  0
    7.4340  -11.6655   26.3538 C   0  0  0  0  0  0  0  0  0  0  0  0
    8.6334  -12.2605   26.6666 C   0  0  0  0  0  0  0  0  0  0  0  0
    8.7293  -13.6238   26.5044 C   0  0  0  0  0  0  0  0  0  0  0  0
    7.6531  -14.3588   26.0453 C   0  0  0  0  0  0  0  0  0  0  0  0
   10.5618  -17.8388   25.4351 C   0  0  0  0  0  0  0  0  0  0  0  0
    9.9096  -18.8532   25.7869 O   0  0  0  0  0  0  0  0  0  0  0  0
   11.9198  -17.9895   25.1589 N   0  0  0  0  0  0  0  0  0  0  0  0
   12.8616  -18.3678   26.2067 C   0  0  1  0  0  0  0  0  0  0  0  0
   14.1354  -17.6225   26.0674 C   0  0  0  0  0  0  0  0  0  0  0  0
   15.0087  -17.9238   24.9136 C   0  0  0  0  0  0  0  0  0  0  0  0
   15.3044  -16.7741   24.0328 C   0  0  0  0  0  0  0  0  0  0  0  0
   15.8486  -15.7601   24.5160 O   0  0  0  0  0  0  0  0  0  0  0  0
   12.2235  -18.4360   27.4980 C   0  0  0  0  0  0  0  0  0  0  0  0
   12.3340  -19.5268   28.1545 O   0  0  0  0  0  0  0  0  0  0  0  0
   14.9765  -16.8198   22.6717 O   0  0  0  0  0  0  0  0  0  0  0  0
   11.4913  -17.4324   28.1090 O   0  0  0  0  0  0  0  0  0  0  0  0
  2  1  1  1
  3  2  1  0
  4  5  2  0
  4  3  1  0
  6  5  1  0
  7 12  2  0
  7  6  1  0
  8  7  1  0
  9 10  1  0
  9  8  2  0
 10 11  2  0
 11 12  1  0
 12  4  1  0
 13  2  1  0
 14 13  2  0
 15 13  1  0
 16 15  1  0
 16 17  1  6
 18 19  2  0
 18 17  1  0
 20 19  1  0
 21 26  2  0
 21 20  1  0
 22 21  1  0
 23 24  1  0
 23 22  2  0
 24 25  2  0
 25 26  1  0
 26 18  1  0
 27 29  1  0
 27 16  1  0
 28 27  2  0
 30 29  1  0
 30 31  1  1
 31 32  1  0
 32 33  1  0
 33 37  1  0
 34 33  2  0
 35 38  1  0
 35 30  1  0
 36 35  2  0
M  END
$$$$
