WWE.pdb
     RDKit          3D

 38 41  0  0  1  0  0  0  0  0999 V2000
    9.9934  -16.2126   18.8031 N   0  0  0  0  0  0  0  0  0  0  0  0
    9.8397  -17.1196   19.9197 C   0  0  1  0  0  0  0  0  0  0  0  0
   11.1004  -17.9540   20.1580 C   0  0  0  0  0  0  0  0  0  0  0  0
   11.1557  -19.0165   19.1282 C   0  0  0  0  0  0  0  0  0  0  0  0
   11.6847  -18.9101   17.8488 C   0  0  0  0  0  0  0  0  0  0  0  0
   11.5392  -20.1121   17.2321 N   0  0  0  0  0  0  0  0  0  0  0  0
   10.9479  -20.9821   18.0436 C   0  0  0  0  0  0  0  0  0  0  0  0
   10.5550  -22.2927   17.9600 C   0  0  0  0  0  0  0  0  0  0  0  0
    9.9351  -22.9195   19.0305 C   0  0  0  0  0  0  0  0  0  0  0  0
    9.6928  -22.2576   20.2055 C   0  0  0  0  0  0  0  0  0  0  0  0
   10.0922  -20.9294   20.2869 C   0  0  0  0  0  0  0  0  0  0  0  0
   10.7010  -20.3095   19.2380 C   0  0  0  0  0  0  0  0  0  0  0  0
    9.7123  -16.2595   21.1361 C   0  0  0  0  0  0  0  0  0  0  0  0
   10.6716  -15.5686   21.5495 O   0  0  0  0  0  0  0  0  0  0  0  0
    8.5093  -16.1682   21.9051 N   0  0  0  0  0  0  0  0  0  0  0  0
    8.5165  -15.5523   23.2078 C   0  0  1  0  0  0  0  0  0  0  0  0
    7.1190  -15.5098   23.7627 C   0  0  0  0  0  0  0  0  0  0  0  0
    7.0360  -14.9541   25.1209 C   0  0  0  0  0  0  0  0  0  0  0  0
    6.9487  -15.7147   26.2752 C   0  0  0  0  0  0  0  0  0  0  0  0
    6.9474  -14.8541   27.3012 N   0  0  0  0  0  0  0  0  0  0  0  0
    7.0271  -13.5884   26.8669 C   0  0  0  0  0  0  0  0  0  0  0  0
    7.0514  -12.3561   27.4951 C   0  0  0  0  0  0  0  0  0  0  0  0
    7.1303  -11.2069   26.7441 C   0  0  0  0  0  0  0  0  0  0  0  0
    7.1861  -11.2270   25.3705 C   0  0  0  0  0  0  0  0  0  0  0  0
    7.1608  -12.4552   24.7501 C   0  0  0  0  0  0  0  0  0  0  0  0
    7.0841  -13.6197   25.4899 C   0  0  0  0  0  0  0  0  0  0  0  0
    9.3400  -16.3657   24.1643 C   0  0  0  0  0  0  0  0  0  0  0  0
    9.1685  -17.6097   24.1298 O   0  0  0  0  0  0  0  0  0  0  0  0
   10.2670  -15.8514   25.0695 N   0  0  0  0  0  0  0  0  0  0  0  0
   11.0675  -16.7364   25.9085 C   0  0  1  0  0  0  0  0  0  0  0  0
   12.5029  -16.6520   25.5478 C   0  0  0  0  0  0  0  0  0  0  0  0
   12.9730  -17.3686   24.3435 C   0  0  0  0  0  0  0  0  0  0  0  0
   14.4097  -17.2053   24.0365 C   0  0  0  0  0  0  0  0  0  0  0  0
   14.8203  -16.1076   23.6071 O   0  0  0  0  0  0  0  0  0  0  0  0
   10.6839  -16.6475   27.2956 C   0  0  0  0  0  0  0  0  0  0  0  0
   11.3098  -17.3858   28.1301 O   0  0  0  0  0  0  0  0  0  0  0  0
   15.3009  -18.2698   24.2228 O   0  0  0  0  0  0  0  0  0  0  0  0
    9.6938  -15.8382   27.8262 O   0  0  0  0  0  0  0  0  0  0  0  0
  2  1  1  6
  3  2  1  0
  4  5  2  0
  4  3  1  0
  6  5  1  0
  7 12  2  0
  7  6  1  0
  8  7  1  0
  9 10  1  0
  9  8  2  0
 10 11  2  0
 11 12  1  0
 12  4  1  0
 13  2  1  0
 14 13  2  0
 15 13  1  0
 16 15  1  0
 16 17  1  1
 18 19  2  0
 18 17  1  0
 20 19  1  0
 21 26  2  0
 21 20  1  0
 22 21  1  0
 23 24  1  0
 23 22  2  0
 24 25  2  0
 25 26  1  0
 26 18  1  0
 27 29  1  0
 27 16  1  0
 28 27  2  0
 30 29  1  0
 30 31  1  1
 31 32  1  0
 32 33  1  0
 33 37  1  0
 34 33  2  0
 35 38  1  0
 35 30  1  0
 36 35  2  0
M  END
$$$$
