WWE.pdb
     RDKit          3D

 38 41  0  0  1  0  0  0  0  0999 V2000
    8.6534  -18.2472   22.6218 N   0  0  0  0  0  0  0  0  0  0  0  0
    9.8385  -17.5876   22.1181 C   0  0  1  0  0  0  0  0  0  0  0  0
    9.5462  -16.7649   20.8611 C   0  0  0  0  0  0  0  0  0  0  0  0
    8.3429  -15.9403   21.1152 C   0  0  0  0  0  0  0  0  0  0  0  0
    7.0819  -16.3956   21.4770 C   0  0  0  0  0  0  0  0  0  0  0  0
    6.2684  -15.3160   21.6147 N   0  0  0  0  0  0  0  0  0  0  0  0
    6.9364  -14.1957   21.3625 C   0  0  0  0  0  0  0  0  0  0  0  0
    6.6380  -12.8579   21.3415 C   0  0  0  0  0  0  0  0  0  0  0  0
    7.6049  -11.9180   21.0180 C   0  0  0  0  0  0  0  0  0  0  0  0
    8.8876  -12.2875   20.7087 C   0  0  0  0  0  0  0  0  0  0  0  0
    9.1867  -13.6441   20.7309 C   0  0  0  0  0  0  0  0  0  0  0  0
    8.2402  -14.5708   21.0477 C   0  0  0  0  0  0  0  0  0  0  0  0
   10.2235  -16.5814   23.1550 C   0  0  0  0  0  0  0  0  0  0  0  0
   11.1325  -15.7454   22.9466 O   0  0  0  0  0  0  0  0  0  0  0  0
    9.5967  -16.5045   24.4388 N   0  0  0  0  0  0  0  0  0  0  0  0
   10.3321  -16.0394   25.5874 C   0  0  1  0  0  0  0  0  0  0  0  0
    9.3793  -15.6698   26.6912 C   0  0  0  0  0  0  0  0  0  0  0  0
    8.1418  -15.0326   26.2190 C   0  0  0  0  0  0  0  0  0  0  0  0
    7.0578  -15.7175   25.6951 C   0  0  0  0  0  0  0  0  0  0  0  0
    6.1163  -14.8016   25.4344 N   0  0  0  0  0  0  0  0  0  0  0  0
    6.5388  -13.5718   25.7604 C   0  0  0  0  0  0  0  0  0  0  0  0
    5.9757  -12.3104   25.6855 C   0  0  0  0  0  0  0  0  0  0  0  0
    6.6938  -11.2148   26.1040 C   0  0  0  0  0  0  0  0  0  0  0  0
    7.9712  -11.3177   26.6019 C   0  0  0  0  0  0  0  0  0  0  0  0
    8.5273  -12.5745   26.6738 C   0  0  0  0  0  0  0  0  0  0  0  0
    7.8187  -13.6861   26.2598 C   0  0  0  0  0  0  0  0  0  0  0  0
   11.2124  -17.1329   26.1204 C   0  0  0  0  0  0  0  0  0  0  0  0
   11.7567  -16.9188   27.2322 O   0  0  0  0  0  0  0  0  0  0  0  0
   11.4630  -18.3482   25.4853 N   0  0  0  0  0  0  0  0  0  0  0  0
   12.3402  -19.3445   26.0902 C   0  0  1  0  0  0  0  0  0  0  0  0
   11.6552  -20.6544   26.2017 C   0  0  0  0  0  0  0  0  0  0  0  0
   11.2412  -21.3441   24.9618 C   0  0  0  0  0  0  0  0  0  0  0  0
   10.6180  -22.6700   25.1588 C   0  0  0  0  0  0  0  0  0  0  0  0
    9.4134  -22.8261   24.8716 O   0  0  0  0  0  0  0  0  0  0  0  0
   13.6703  -19.2906   25.5361 C   0  0  0  0  0  0  0  0  0  0  0  0
   14.5769  -19.9869   26.1077 O   0  0  0  0  0  0  0  0  0  0  0  0
   11.3689  -23.7393   25.6637 O   0  0  0  0  0  0  0  0  0  0  0  0
   14.0758  -18.5522   24.4375 O   0  0  0  0  0  0  0  0  0  0  0  0
  2  1  1  1
  3  2  1  0
  4  5  2  0
  4  3  1  0
  6  5  1  0
  7 12  2  0
  7  6  1  0
  8  7  1  0
  9 10  1  0
  9  8  2  0
 10 11  2  0
 11 12  1  0
 12  4  1  0
 13  2  1  0
 14 13  2  0
 15 13  1  0
 16 15  1  0
 16 17  1  1
 18 19  2  0
 18 17  1  0
 20 19  1  0
 21 26  2  0
 21 20  1  0
 22 21  1  0
 23 24  1  0
 23 22  2  0
 24 25  2  0
 25 26  1  0
 26 18  1  0
 27 29  1  0
 27 16  1  0
 28 27  2  0
 30 29  1  0
 30 31  1  6
 31 32  1  0
 32 33  1  0
 33 37  1  0
 34 33  2  0
 35 38  1  0
 35 30  1  0
 36 35  2  0
M  END
$$$$
