WWE.pdb
     RDKit          3D

 38 41  0  0  1  0  0  0  0  0999 V2000
    9.3136  -17.0444   18.9671 N   0  0  0  0  0  0  0  0  0  0  0  0
    9.1885  -17.7336   20.2330 C   0  0  1  0  0  0  0  0  0  0  0  0
   10.4402  -18.5478   20.5685 C   0  0  0  0  0  0  0  0  0  0  0  0
   10.4615  -19.7462   19.6990 C   0  0  0  0  0  0  0  0  0  0  0  0
   11.2159  -19.9269   18.5473 C   0  0  0  0  0  0  0  0  0  0  0  0
   10.9437  -21.1640   18.0558 N   0  0  0  0  0  0  0  0  0  0  0  0
   10.0587  -21.7860   18.8272 C   0  0  0  0  0  0  0  0  0  0  0  0
    9.4333  -23.0058   18.8176 C   0  0  0  0  0  0  0  0  0  0  0  0
    8.5241  -23.3473   19.8074 C   0  0  0  0  0  0  0  0  0  0  0  0
    8.2173  -22.4844   20.8266 C   0  0  0  0  0  0  0  0  0  0  0  0
    8.8529  -21.2490   20.8334 C   0  0  0  0  0  0  0  0  0  0  0  0
    9.7463  -20.9091   19.8632 C   0  0  0  0  0  0  0  0  0  0  0  0
    9.1314  -16.6676   21.2799 C   0  0  0  0  0  0  0  0  0  0  0  0
   10.0147  -15.7832   21.3589 O   0  0  0  0  0  0  0  0  0  0  0  0
    8.0857  -16.5840   22.2527 N   0  0  0  0  0  0  0  0  0  0  0  0
    8.2762  -15.8407   23.4724 C   0  0  1  0  0  0  0  0  0  0  0  0
    7.0165  -15.8716   24.2940 C   0  0  0  0  0  0  0  0  0  0  0  0
    7.1310  -15.1749   25.5831 C   0  0  0  0  0  0  0  0  0  0  0  0
    7.1937  -15.8078   26.8136 C   0  0  0  0  0  0  0  0  0  0  0  0
    7.3475  -14.8450   27.7316 N   0  0  0  0  0  0  0  0  0  0  0  0
    7.3846  -13.6344   27.1569 C   0  0  0  0  0  0  0  0  0  0  0  0
    7.5140  -12.3445   27.6396 C   0  0  0  0  0  0  0  0  0  0  0  0
    7.5048  -11.2829   26.7657 C   0  0  0  0  0  0  0  0  0  0  0  0
    7.3691  -11.4481   25.4075 C   0  0  0  0  0  0  0  0  0  0  0  0
    7.2399  -12.7331   24.9321 C   0  0  0  0  0  0  0  0  0  0  0  0
    7.2495  -13.8111   25.7963 C   0  0  0  0  0  0  0  0  0  0  0  0
    9.3543  -16.4725   24.3049 C   0  0  0  0  0  0  0  0  0  0  0  0
    9.3092  -17.7226   24.4208 O   0  0  0  0  0  0  0  0  0  0  0  0
   10.3857  -15.7866   24.9445 N   0  0  0  0  0  0  0  0  0  0  0  0
   11.4915  -16.5051   25.5681 C   0  0  1  0  0  0  0  0  0  0  0  0
   12.7615  -16.2501   24.8471 C   0  0  0  0  0  0  0  0  0  0  0  0
   13.9975  -16.8913   25.3430 C   0  0  0  0  0  0  0  0  0  0  0  0
   15.2095  -16.6229   24.5405 C   0  0  0  0  0  0  0  0  0  0  0  0
   15.1358  -16.6569   23.2949 O   0  0  0  0  0  0  0  0  0  0  0  0
   11.4617  -16.3868   27.0048 C   0  0  0  0  0  0  0  0  0  0  0  0
   12.2964  -17.0873   27.6725 O   0  0  0  0  0  0  0  0  0  0  0  0
   16.4279  -16.3357   25.1691 O   0  0  0  0  0  0  0  0  0  0  0  0
   10.6111  -15.5863   27.7480 O   0  0  0  0  0  0  0  0  0  0  0  0
  2  1  1  6
  3  2  1  0
  4  5  2  0
  4  3  1  0
  6  5  1  0
  7 12  2  0
  7  6  1  0
  8  7  1  0
  9 10  1  0
  9  8  2  0
 10 11  2  0
 11 12  1  0
 12  4  1  0
 13  2  1  0
 14 13  2  0
 15 13  1  0
 16 15  1  0
 16 17  1  1
 18 19  2  0
 18 17  1  0
 20 19  1  0
 21 26  2  0
 21 20  1  0
 22 21  1  0
 23 24  1  0
 23 22  2  0
 24 25  2  0
 25 26  1  0
 26 18  1  0
 27 29  1  0
 27 16  1  0
 28 27  2  0
 30 29  1  0
 30 31  1  6
 31 32  1  0
 32 33  1  0
 33 37  1  0
 34 33  2  0
 35 38  1  0
 35 30  1  0
 36 35  2  0
M  END
$$$$
