WWE.pdb
     RDKit          3D

 38 41  0  0  1  0  0  0  0  0999 V2000
    8.8480  -15.9390   21.6759 N   0  0  0  0  0  0  0  0  0  0  0  0
   10.2491  -15.5818   21.6270 C   0  0  1  0  0  0  0  0  0  0  0  0
   10.4784  -14.2609   20.8886 C   0  0  0  0  0  0  0  0  0  0  0  0
    9.2297  -13.9035   20.1777 C   0  0  0  0  0  0  0  0  0  0  0  0
    8.2144  -13.0770   20.6408 C   0  0  0  0  0  0  0  0  0  0  0  0
    7.2550  -13.0109   19.6809 N   0  0  0  0  0  0  0  0  0  0  0  0
    7.5982  -13.7471   18.6295 C   0  0  0  0  0  0  0  0  0  0  0  0
    7.0360  -14.0485   17.4161 C   0  0  0  0  0  0  0  0  0  0  0  0
    7.6824  -14.8876   16.5211 C   0  0  0  0  0  0  0  0  0  0  0  0
    8.8998  -15.4446   16.8129 C   0  0  0  0  0  0  0  0  0  0  0  0
    9.4667  -15.1371   18.0435 C   0  0  0  0  0  0  0  0  0  0  0  0
    8.8354  -14.3137   18.9259 C   0  0  0  0  0  0  0  0  0  0  0  0
   10.6552  -15.3080   23.0397 C   0  0  0  0  0  0  0  0  0  0  0  0
   11.8571  -15.3388   23.3903 O   0  0  0  0  0  0  0  0  0  0  0  0
    9.7177  -15.0010   24.0759 N   0  0  0  0  0  0  0  0  0  0  0  0
    9.4939  -15.9240   25.1595 C   0  0  1  0  0  0  0  0  0  0  0  0
    8.0705  -16.4100   25.1337 C   0  0  0  0  0  0  0  0  0  0  0  0
    7.0951  -15.4164   25.6046 C   0  0  0  0  0  0  0  0  0  0  0  0
    5.7237  -15.6101   25.6196 C   0  0  0  0  0  0  0  0  0  0  0  0
    5.1879  -14.5099   26.1635 N   0  0  0  0  0  0  0  0  0  0  0  0
    6.1393  -13.6253   26.4944 C   0  0  0  0  0  0  0  0  0  0  0  0
    6.1236  -12.3637   27.0620 C   0  0  0  0  0  0  0  0  0  0  0  0
    7.3055  -11.6920   27.2687 C   0  0  0  0  0  0  0  0  0  0  0  0
    8.5258  -12.2267   26.9294 C   0  0  0  0  0  0  0  0  0  0  0  0
    8.5362  -13.4816   26.3644 C   0  0  0  0  0  0  0  0  0  0  0  0
    7.3579  -14.1712   26.1520 C   0  0  0  0  0  0  0  0  0  0  0  0
   10.3697  -17.1337   25.0031 C   0  0  0  0  0  0  0  0  0  0  0  0
   10.4358  -17.9061   25.9916 O   0  0  0  0  0  0  0  0  0  0  0  0
   11.0992  -17.4588   23.8606 N   0  0  0  0  0  0  0  0  0  0  0  0
   11.9258  -18.6599   23.8144 C   0  0  1  0  0  0  0  0  0  0  0  0
   12.5232  -18.8395   22.4695 C   0  0  0  0  0  0  0  0  0  0  0  0
   13.4282  -19.9862   22.2449 C   0  0  0  0  0  0  0  0  0  0  0  0
   13.6576  -20.3367   20.8273 C   0  0  0  0  0  0  0  0  0  0  0  0
   13.8931  -21.5242   20.5233 O   0  0  0  0  0  0  0  0  0  0  0  0
   12.7678  -18.7730   24.9794 C   0  0  0  0  0  0  0  0  0  0  0  0
   12.7932  -17.7837   25.7881 O   0  0  0  0  0  0  0  0  0  0  0  0
   13.6135  -19.3484   19.8355 O   0  0  0  0  0  0  0  0  0  0  0  0
   13.5649  -19.8531   25.3180 O   0  0  0  0  0  0  0  0  0  0  0  0
  2  1  1  1
  3  2  1  0
  4  5  2  0
  4  3  1  0
  6  5  1  0
  7 12  2  0
  7  6  1  0
  8  7  1  0
  9 10  1  0
  9  8  2  0
 10 11  2  0
 11 12  1  0
 12  4  1  0
 13  2  1  0
 14 13  2  0
 15 13  1  0
 16 15  1  0
 16 17  1  6
 18 19  2  0
 18 17  1  0
 20 19  1  0
 21 26  2  0
 21 20  1  0
 22 21  1  0
 23 24  1  0
 23 22  2  0
 24 25  2  0
 25 26  1  0
 26 18  1  0
 27 29  1  0
 27 16  1  0
 28 27  2  0
 30 29  1  0
 30 31  1  6
 31 32  1  0
 32 33  1  0
 33 37  1  0
 34 33  2  0
 35 38  1  0
 35 30  1  0
 36 35  2  0
M  END
$$$$
