WWE.pdb
     RDKit          3D

 38 41  0  0  1  0  0  0  0  0999 V2000
    8.5493  -16.8465   22.0306 N   0  0  0  0  0  0  0  0  0  0  0  0
    9.1102  -15.5412   22.3043 C   0  0  1  0  0  0  0  0  0  0  0  0
    8.0465  -14.4414   22.2690 C   0  0  0  0  0  0  0  0  0  0  0  0
    7.5218  -14.3470   20.8877 C   0  0  0  0  0  0  0  0  0  0  0  0
    6.4396  -15.0375   20.3583 C   0  0  0  0  0  0  0  0  0  0  0  0
    6.2926  -14.6591   19.0616 N   0  0  0  0  0  0  0  0  0  0  0  0
    7.2182  -13.7653   18.7307 C   0  0  0  0  0  0  0  0  0  0  0  0
    7.5469  -13.0649   17.5990 C   0  0  0  0  0  0  0  0  0  0  0  0
    8.6178  -12.1839   17.5933 C   0  0  0  0  0  0  0  0  0  0  0  0
    9.3839  -11.9806   18.7109 C   0  0  0  0  0  0  0  0  0  0  0  0
    9.0481  -12.6920   19.8561 C   0  0  0  0  0  0  0  0  0  0  0  0
    7.9974  -13.5587   19.8663 C   0  0  0  0  0  0  0  0  0  0  0  0
    9.5751  -15.5809   23.7248 C   0  0  0  0  0  0  0  0  0  0  0  0
   10.2754  -14.6617   24.2076 O   0  0  0  0  0  0  0  0  0  0  0  0
    9.2638  -16.6540   24.6184 N   0  0  0  0  0  0  0  0  0  0  0  0
    9.8828  -16.7297   25.9174 C   0  0  1  0  0  0  0  0  0  0  0  0
    8.8272  -16.7328   26.9891 C   0  0  0  0  0  0  0  0  0  0  0  0
    7.6927  -15.8417   26.7078 C   0  0  0  0  0  0  0  0  0  0  0  0
    6.4396  -16.2714   26.3034 C   0  0  0  0  0  0  0  0  0  0  0  0
    5.6737  -15.1775   26.2039 N   0  0  0  0  0  0  0  0  0  0  0  0
    6.3673  -14.0748   26.5201 C   0  0  0  0  0  0  0  0  0  0  0  0
    6.0602  -12.7268   26.5690 C   0  0  0  0  0  0  0  0  0  0  0  0
    7.0259  -11.8180   26.9328 C   0  0  0  0  0  0  0  0  0  0  0  0
    8.3081  -12.1950   27.2555 C   0  0  0  0  0  0  0  0  0  0  0  0
    8.6090  -13.5370   27.2046 C   0  0  0  0  0  0  0  0  0  0  0  0
    7.6498  -14.4636   26.8433 C   0  0  0  0  0  0  0  0  0  0  0  0
   10.6476  -18.0145   26.0562 C   0  0  0  0  0  0  0  0  0  0  0  0
   10.5112  -18.6303   27.1427 O   0  0  0  0  0  0  0  0  0  0  0  0
   11.4804  -18.5663   25.0840 N   0  0  0  0  0  0  0  0  0  0  0  0
   12.5013  -19.5461   25.4384 C   0  0  1  0  0  0  0  0  0  0  0  0
   13.2615  -19.9750   24.2402 C   0  0  0  0  0  0  0  0  0  0  0  0
   14.3014  -21.0137   24.3964 C   0  0  0  0  0  0  0  0  0  0  0  0
   14.9783  -21.4176   23.1459 C   0  0  0  0  0  0  0  0  0  0  0  0
   14.6532  -20.8699   22.0725 O   0  0  0  0  0  0  0  0  0  0  0  0
   13.2202  -19.1610   26.6275 C   0  0  0  0  0  0  0  0  0  0  0  0
   13.5579  -20.0880   27.4398 O   0  0  0  0  0  0  0  0  0  0  0  0
   15.9717  -22.4050   23.1635 O   0  0  0  0  0  0  0  0  0  0  0  0
   13.5857  -17.8756   26.9891 O   0  0  0  0  0  0  0  0  0  0  0  0
  2  1  1  1
  3  2  1  0
  4  5  2  0
  4  3  1  0
  6  5  1  0
  7 12  2  0
  7  6  1  0
  8  7  1  0
  9 10  1  0
  9  8  2  0
 10 11  2  0
 11 12  1  0
 12  4  1  0
 13  2  1  0
 14 13  2  0
 15 13  1  0
 16 15  1  0
 16 17  1  1
 18 19  2  0
 18 17  1  0
 20 19  1  0
 21 26  2  0
 21 20  1  0
 22 21  1  0
 23 24  1  0
 23 22  2  0
 24 25  2  0
 25 26  1  0
 26 18  1  0
 27 29  1  0
 27 16  1  0
 28 27  2  0
 30 29  1  0
 30 31  1  6
 31 32  1  0
 32 33  1  0
 33 37  1  0
 34 33  2  0
 35 38  1  0
 35 30  1  0
 36 35  2  0
M  END
$$$$
