FAQ.pdb
     RDKit          3D

 26 26  0  0  1  0  0  0  0  0999 V2000
   16.8276  -12.8614    6.9058 N   0  0  0  0  0  0  0  0  0  0  0  0
   17.1975  -14.2260    6.5904 C   0  0  1  0  0  0  0  0  0  0  0  0
   18.1616  -14.2510    5.4112 C   0  0  0  0  0  0  0  0  0  0  0  0
   19.3345  -13.3967    5.7374 C   0  0  0  0  0  0  0  0  0  0  0  0
   20.3979  -13.8649    6.4857 C   0  0  0  0  0  0  0  0  0  0  0  0
   21.4939  -13.0890    6.7987 C   0  0  0  0  0  0  0  0  0  0  0  0
   21.5613  -11.7832    6.3600 C   0  0  0  0  0  0  0  0  0  0  0  0
   20.5017  -11.3128    5.6130 C   0  0  0  0  0  0  0  0  0  0  0  0
   19.4056  -12.0901    5.3003 C   0  0  0  0  0  0  0  0  0  0  0  0
   17.7478  -14.9014    7.7690 C   0  0  0  0  0  0  0  0  0  0  0  0
   18.3502  -14.2166    8.6394 O   0  0  0  0  0  0  0  0  0  0  0  0
   17.4647  -18.2059    9.5163 C   0  0  0  0  0  0  0  0  0  0  0  0
   18.1508  -16.8942    9.2124 C   0  0  2  0  0  0  0  0  0  0  0  0
   17.6437  -16.2951    7.9943 N   0  0  0  0  0  0  0  0  0  0  0  0
   19.6161  -17.1243    9.1413 C   0  0  0  0  0  0  0  0  0  0  0  0
   20.2225  -17.2901    8.0523 O   0  0  0  0  0  0  0  0  0  0  0  0
   24.4119  -14.0887   12.3639 N   0  0  0  0  0  0  0  0  0  0  0  0
   23.1387  -14.6869   12.5548 C   0  0  0  0  0  0  0  0  0  0  0  0
   22.6261  -14.6113   13.6984 O   0  0  0  0  0  0  0  0  0  0  0  0
   22.5041  -15.3532   11.4090 C   0  0  0  0  0  0  0  0  0  0  0  0
   22.4926  -16.8395   11.5064 C   0  0  0  0  0  0  0  0  0  0  0  0
   21.7774  -17.3992   10.2919 C   0  0  2  0  0  0  0  0  0  0  0  0
   20.3542  -17.1579   10.3410 N   0  0  0  0  0  0  0  0  0  0  0  0
   21.9737  -18.8777   10.1914 C   0  0  0  0  0  0  0  0  0  0  0  0
   23.1243  -19.4282    9.5963 O   0  0  0  0  0  0  0  0  0  0  0  0
   21.1366  -19.6880   10.6251 O   0  0  0  0  0  0  0  0  0  0  0  0
  2  1  1  1
  2  3  1  0
  2 10  1  0
  3  4  1  0
  4  5  2  0
  4  9  1  0
  5  6  1  0
  6  7  2  0
  8  7  1  0
  9  8  2  0
 10 11  2  0
 13 12  1  6
 14 13  1  0
 14 10  1  0
 15 16  2  0
 15 13  1  0
 17 18  1  0
 18 20  1  0
 19 18  2  0
 20 21  1  0
 22 21  1  1
 22 24  1  0
 22 23  1  0
 23 15  1  0
 24 25  1  0
 26 24  2  0
M  END
$$$$
