FAQ.pdb
     RDKit          3D

 26 26  0  0  1  0  0  0  0  0999 V2000
   26.5885  -19.8481  -17.1857 N   0  0  0  0  0  0  0  0  0  0  0  0
   27.1870  -19.0869  -16.1083 C   0  0  1  0  0  0  0  0  0  0  0  0
   26.4678  -17.7541  -15.9427 C   0  0  0  0  0  0  0  0  0  0  0  0
   26.7311  -16.9189  -17.1448 C   0  0  0  0  0  0  0  0  0  0  0  0
   27.9791  -16.3880  -17.4104 C   0  0  0  0  0  0  0  0  0  0  0  0
   28.2433  -15.6116  -18.5189 C   0  0  0  0  0  0  0  0  0  0  0  0
   27.2379  -15.3346  -19.4214 C   0  0  0  0  0  0  0  0  0  0  0  0
   25.9912  -15.8629  -19.1592 C   0  0  0  0  0  0  0  0  0  0  0  0
   25.7280  -16.6397  -18.0498 C   0  0  0  0  0  0  0  0  0  0  0  0
   27.2012  -19.8655  -14.8666 C   0  0  0  0  0  0  0  0  0  0  0  0
   26.1728  -20.5196  -14.5444 O   0  0  0  0  0  0  0  0  0  0  0  0
   29.5261  -20.5470  -11.9569 C   0  0  0  0  0  0  0  0  0  0  0  0
   28.2037  -20.5488  -12.6884 C   0  0  2  0  0  0  0  0  0  0  0  0
   28.3139  -19.9298  -13.9939 N   0  0  0  0  0  0  0  0  0  0  0  0
   27.1875  -19.8707  -11.8441 C   0  0  0  0  0  0  0  0  0  0  0  0
   27.0427  -18.6217  -11.8324 O   0  0  0  0  0  0  0  0  0  0  0  0
   22.5046  -19.8072  -13.0921 N   0  0  0  0  0  0  0  0  0  0  0  0
   22.4132  -20.8707  -12.1560 C   0  0  0  0  0  0  0  0  0  0  0  0
   21.6425  -21.8229  -12.4307 O   0  0  0  0  0  0  0  0  0  0  0  0
   23.2217  -20.7911  -10.9313 C   0  0  0  0  0  0  0  0  0  0  0  0
   24.1349  -19.6152  -10.8873 C   0  0  0  0  0  0  0  0  0  0  0  0
   25.4011  -20.0124  -10.1533 C   0  0  2  0  0  0  0  0  0  0  0  0
   26.3542  -20.6582  -11.0254 N   0  0  0  0  0  0  0  0  0  0  0  0
   25.0975  -20.9666   -9.0434 C   0  0  0  0  0  0  0  0  0  0  0  0
   24.3054  -20.5875   -7.9433 O   0  0  0  0  0  0  0  0  0  0  0  0
   25.5265  -22.1333   -9.0371 O   0  0  0  0  0  0  0  0  0  0  0  0
  2  1  1  6
  2  3  1  0
  2 10  1  0
  3  4  1  0
  4  5  2  0
  4  9  1  0
  5  6  1  0
  6  7  2  0
  8  7  1  0
  9  8  2  0
 10 11  2  0
 13 12  1  1
 14 13  1  0
 14 10  1  0
 15 16  2  0
 15 13  1  0
 17 18  1  0
 18 20  1  0
 19 18  2  0
 20 21  1  0
 22 21  1  6
 22 24  1  0
 22 23  1  0
 23 15  1  0
 24 25  1  0
 26 24  2  0
M  END
$$$$
