FAQ.pdb
     RDKit          3D

 26 26  0  0  1  0  0  0  0  0999 V2000
   27.9813  -20.2604  -15.5498 N   0  0  0  0  0  0  0  0  0  0  0  0
   27.1794  -19.5653  -14.5636 C   0  0  1  0  0  0  0  0  0  0  0  0
   26.2066  -18.6155  -15.2508 C   0  0  0  0  0  0  0  0  0  0  0  0
   26.9714  -17.4603  -15.7916 C   0  0  0  0  0  0  0  0  0  0  0  0
   27.3919  -17.4100  -17.1072 C   0  0  0  0  0  0  0  0  0  0  0  0
   28.1017  -16.3485  -17.6274 C   0  0  0  0  0  0  0  0  0  0  0  0
   28.4216  -15.2739  -16.8242 C   0  0  0  0  0  0  0  0  0  0  0  0
   28.0034  -15.3211  -15.5108 C   0  0  0  0  0  0  0  0  0  0  0  0
   27.2933  -16.3837  -14.9913 C   0  0  0  0  0  0  0  0  0  0  0  0
   26.4948  -20.5178  -13.6849 C   0  0  0  0  0  0  0  0  0  0  0  0
   25.8988  -21.5028  -14.1986 O   0  0  0  0  0  0  0  0  0  0  0  0
   25.6200  -20.8325  -10.0152 C   0  0  0  0  0  0  0  0  0  0  0  0
   25.4011  -21.0127  -11.4996 C   0  0  2  0  0  0  0  0  0  0  0  0
   26.4604  -20.3989  -12.2747 N   0  0  0  0  0  0  0  0  0  0  0  0
   24.0694  -20.4621  -11.8585 C   0  0  0  0  0  0  0  0  0  0  0  0
   23.8689  -19.2319  -12.0247 O   0  0  0  0  0  0  0  0  0  0  0  0
   21.6897  -21.6850  -16.9139 N   0  0  0  0  0  0  0  0  0  0  0  0
   20.5585  -21.0865  -16.2993 C   0  0  0  0  0  0  0  0  0  0  0  0
   19.5804  -20.8019  -17.0331 O   0  0  0  0  0  0  0  0  0  0  0  0
   20.6029  -20.8390  -14.8514 C   0  0  0  0  0  0  0  0  0  0  0  0
   21.8705  -21.2774  -14.2035 C   0  0  0  0  0  0  0  0  0  0  0  0
   21.8111  -20.9191  -12.7311 C   0  0  2  0  0  0  0  0  0  0  0  0
   22.9901  -21.3533  -12.0187 N   0  0  0  0  0  0  0  0  0  0  0  0
   20.6329  -21.5617  -12.0726 C   0  0  0  0  0  0  0  0  0  0  0  0
   19.4762  -20.8257  -11.7541 O   0  0  0  0  0  0  0  0  0  0  0  0
   20.6167  -22.7688  -11.7760 O   0  0  0  0  0  0  0  0  0  0  0  0
  2  1  1  6
  2  3  1  0
  2 10  1  0
  3  4  1  0
  4  5  2  0
  4  9  1  0
  5  6  1  0
  6  7  2  0
  8  7  1  0
  9  8  2  0
 10 11  2  0
 13 12  1  1
 14 13  1  0
 14 10  1  0
 15 16  2  0
 15 13  1  0
 17 18  1  0
 18 20  1  0
 19 18  2  0
 20 21  1  0
 22 21  1  6
 22 24  1  0
 22 23  1  0
 23 15  1  0
 24 25  1  0
 26 24  2  0
M  END
$$$$
