FAQ.pdb
     RDKit          3D

 26 26  0  0  1  0  0  0  0  0999 V2000
   27.5712  -19.6892  -15.7022 N   0  0  0  0  0  0  0  0  0  0  0  0
   26.7830  -19.0980  -14.6402 C   0  0  1  0  0  0  0  0  0  0  0  0
   25.8613  -18.0240  -15.2041 C   0  0  0  0  0  0  0  0  0  0  0  0
   26.6831  -16.8451  -15.5871 C   0  0  0  0  0  0  0  0  0  0  0  0
   27.1910  -15.9681  -14.6475 C   0  0  0  0  0  0  0  0  0  0  0  0
   27.9546  -14.8699  -14.9823 C   0  0  0  0  0  0  0  0  0  0  0  0
   28.2417  -14.6080  -16.3056 C   0  0  0  0  0  0  0  0  0  0  0  0
   27.7363  -15.4813  -17.2458 C   0  0  0  0  0  0  0  0  0  0  0  0
   26.9724  -16.5799  -16.9097 C   0  0  0  0  0  0  0  0  0  0  0  0
   26.0455  -20.1287  -13.9041 C   0  0  0  0  0  0  0  0  0  0  0  0
   25.5410  -21.0917  -14.5425 O   0  0  0  0  0  0  0  0  0  0  0  0
   24.9884  -20.8995  -10.3526 C   0  0  0  0  0  0  0  0  0  0  0  0
   24.9269  -21.0121  -11.8584 C   0  0  2  0  0  0  0  0  0  0  0  0
   25.8616  -20.1101  -12.5007 N   0  0  0  0  0  0  0  0  0  0  0  0
   23.5317  -20.7627  -12.3016 C   0  0  0  0  0  0  0  0  0  0  0  0
   23.0309  -19.6100  -12.3419 O   0  0  0  0  0  0  0  0  0  0  0  0
   19.7854  -19.0401  -14.3527 N   0  0  0  0  0  0  0  0  0  0  0  0
   20.7465  -19.8310  -15.0356 C   0  0  0  0  0  0  0  0  0  0  0  0
   21.8382  -19.2889  -15.3364 O   0  0  0  0  0  0  0  0  0  0  0  0
   20.4056  -21.2264  -15.3458 C   0  0  0  0  0  0  0  0  0  0  0  0
   21.1445  -22.2246  -14.5235 C   0  0  0  0  0  0  0  0  0  0  0  0
   21.3882  -21.6342  -13.1481 C   0  0  2  0  0  0  0  0  0  0  0  0
   22.7397  -21.8606  -12.6918 N   0  0  0  0  0  0  0  0  0  0  0  0
   20.4706  -22.2416  -12.1363 C   0  0  0  0  0  0  0  0  0  0  0  0
   19.2753  -21.6055  -11.7517 O   0  0  0  0  0  0  0  0  0  0  0  0
   20.7160  -23.3302  -11.5887 O   0  0  0  0  0  0  0  0  0  0  0  0
  2  1  1  6
  2  3  1  0
  2 10  1  0
  3  4  1  0
  4  5  2  0
  4  9  1  0
  5  6  1  0
  6  7  2  0
  8  7  1  0
  9  8  2  0
 10 11  2  0
 13 12  1  1
 14 13  1  0
 14 10  1  0
 15 16  2  0
 15 13  1  0
 17 18  1  0
 18 20  1  0
 19 18  2  0
 20 21  1  0
 22 21  1  6
 22 24  1  0
 22 23  1  0
 23 15  1  0
 24 25  1  0
 26 24  2  0
M  END
$$$$
