FAQ.pdb
     RDKit          3D

 26 26  0  0  1  0  0  0  0  0999 V2000
   25.9114  -21.3413   -8.2351 N   0  0  0  0  0  0  0  0  0  0  0  0
   26.9582  -20.5174   -8.8044 C   0  0  1  0  0  0  0  0  0  0  0  0
   28.2287  -20.6305   -7.9716 C   0  0  0  0  0  0  0  0  0  0  0  0
   27.9606  -20.0774   -6.6172 C   0  0  0  0  0  0  0  0  0  0  0  0
   27.7916  -18.7234   -6.3978 C   0  0  0  0  0  0  0  0  0  0  0  0
   27.5424  -18.1913   -5.1504 C   0  0  0  0  0  0  0  0  0  0  0  0
   27.4521  -19.0215   -4.0528 C   0  0  0  0  0  0  0  0  0  0  0  0
   27.6203  -20.3733   -4.2684 C   0  0  0  0  0  0  0  0  0  0  0  0
   27.8696  -20.9047   -5.5170 C   0  0  0  0  0  0  0  0  0  0  0  0
   27.1859  -20.8635  -10.2103 C   0  0  0  0  0  0  0  0  0  0  0  0
   28.2900  -21.3734  -10.5424 O   0  0  0  0  0  0  0  0  0  0  0  0
   26.8582  -22.3927  -12.8445 C   0  0  0  0  0  0  0  0  0  0  0  0
   26.5498  -20.9304  -12.6202 C   0  0  2  0  0  0  0  0  0  0  0  0
   26.2296  -20.6580  -11.2335 N   0  0  0  0  0  0  0  0  0  0  0  0
   25.4448  -20.5285  -13.5272 C   0  0  0  0  0  0  0  0  0  0  0  0
   25.5234  -20.6359  -14.7776 O   0  0  0  0  0  0  0  0  0  0  0  0
   20.4160  -21.8124  -10.5489 N   0  0  0  0  0  0  0  0  0  0  0  0
   20.9101  -20.4874  -10.4236 C   0  0  0  0  0  0  0  0  0  0  0  0
   20.5607  -19.8294   -9.4131 O   0  0  0  0  0  0  0  0  0  0  0  0
   21.7944  -19.9719  -11.4782 C   0  0  0  0  0  0  0  0  0  0  0  0
   22.0154  -20.9268  -12.5997 C   0  0  0  0  0  0  0  0  0  0  0  0
   22.9917  -20.3055  -13.5798 C   0  0  2  0  0  0  0  0  0  0  0  0
   24.2635  -20.0070  -12.9638 N   0  0  0  0  0  0  0  0  0  0  0  0
   22.4531  -19.0239  -14.1294 C   0  0  0  0  0  0  0  0  0  0  0  0
   23.1671  -17.8164  -14.0140 O   0  0  0  0  0  0  0  0  0  0  0  0
   21.3563  -18.9617  -14.7112 O   0  0  0  0  0  0  0  0  0  0  0  0
  2  1  1  1
  2  3  1  0
  2 10  1  0
  3  4  1  0
  4  5  2  0
  4  9  1  0
  5  6  1  0
  6  7  2  0
  8  7  1  0
  9  8  2  0
 10 11  2  0
 13 12  1  1
 14 13  1  0
 14 10  1  0
 15 16  2  0
 15 13  1  0
 17 18  1  0
 18 20  1  0
 19 18  2  0
 20 21  1  0
 22 21  1  1
 22 24  1  0
 22 23  1  0
 23 15  1  0
 24 25  1  0
 26 24  2  0
M  END
$$$$
