FAQ.pdb
     RDKit          3D

 26 26  0  0  1  0  0  0  0  0999 V2000
   27.2823  -22.4370  -11.6479 N   0  0  0  0  0  0  0  0  0  0  0  0
   26.2521  -21.5463  -11.1542 C   0  0  1  0  0  0  0  0  0  0  0  0
   26.8496  -20.1862  -10.8166 C   0  0  0  0  0  0  0  0  0  0  0  0
   27.4308  -20.2481   -9.4490 C   0  0  0  0  0  0  0  0  0  0  0  0
   28.6952  -20.7530   -9.2113 C   0  0  0  0  0  0  0  0  0  0  0  0
   29.2516  -20.8189   -7.9514 C   0  0  0  0  0  0  0  0  0  0  0  0
   28.5395  -20.3687   -6.8594 C   0  0  0  0  0  0  0  0  0  0  0  0
   27.2774  -19.8642   -7.0933 C   0  0  0  0  0  0  0  0  0  0  0  0
   26.7216  -19.7987   -8.3544 C   0  0  0  0  0  0  0  0  0  0  0  0
   25.1497  -21.4430  -12.1145 C   0  0  0  0  0  0  0  0  0  0  0  0
   25.4165  -21.3646  -13.3441 O   0  0  0  0  0  0  0  0  0  0  0  0
   21.5340  -22.2464  -12.2544 C   0  0  0  0  0  0  0  0  0  0  0  0
   22.7369  -21.4728  -12.7425 C   0  0  2  0  0  0  0  0  0  0  0  0
   23.7841  -21.4255  -11.7420 N   0  0  0  0  0  0  0  0  0  0  0  0
   22.3010  -20.1113  -13.1446 C   0  0  0  0  0  0  0  0  0  0  0  0
   22.0309  -19.2130  -12.3072 O   0  0  0  0  0  0  0  0  0  0  0  0
   23.2769  -17.3782  -18.6730 N   0  0  0  0  0  0  0  0  0  0  0  0
   24.1233  -17.3945  -17.5332 C   0  0  0  0  0  0  0  0  0  0  0  0
   25.3159  -17.0347  -17.6891 O   0  0  0  0  0  0  0  0  0  0  0  0
   23.5539  -17.8291  -16.2500 C   0  0  0  0  0  0  0  0  0  0  0  0
   22.0985  -18.1402  -16.3107 C   0  0  0  0  0  0  0  0  0  0  0  0
   21.6318  -18.5467  -14.9263 C   0  0  2  0  0  0  0  0  0  0  0  0
   22.1862  -19.8162  -14.5174 N   0  0  0  0  0  0  0  0  0  0  0  0
   20.1433  -18.6776  -14.8820 C   0  0  0  0  0  0  0  0  0  0  0  0
   19.3387  -17.7134  -14.2462 O   0  0  0  0  0  0  0  0  0  0  0  0
   19.5471  -19.6372  -15.4006 O   0  0  0  0  0  0  0  0  0  0  0  0
  2  1  1  6
  2  3  1  0
  2 10  1  0
  3  4  1  0
  4  5  2  0
  4  9  1  0
  5  6  1  0
  6  7  2  0
  8  7  1  0
  9  8  2  0
 10 11  2  0
 13 12  1  1
 14 13  1  0
 14 10  1  0
 15 16  2  0
 15 13  1  0
 17 18  1  0
 18 20  1  0
 19 18  2  0
 20 21  1  0
 22 21  1  6
 22 24  1  0
 22 23  1  0
 23 15  1  0
 24 25  1  0
 26 24  2  0
M  END
$$$$
