IWE.pdb
     RDKit          3D

 32 33  0  0  1  0  0  0  0  0999 V2000
    6.8028  -12.5298   19.0409 C   0  0  0  0  0  0  0  0  0  0  0  0
    7.0865  -13.9485   19.4566 C   0  0  0  0  0  0  0  0  0  0  0  0
    7.9638  -14.0308   20.6590 C   0  0  2  0  0  0  0  0  0  0  0  0
    9.2256  -13.2434   20.4586 C   0  0  0  0  0  0  0  0  0  0  0  0
    8.2187  -15.4645   21.0848 C   0  0  2  0  0  0  0  0  0  0  0  0
    7.0745  -16.2826   21.1359 N   0  0  0  0  0  0  0  0  0  0  0  0
    9.0578  -15.4116   22.3051 C   0  0  0  0  0  0  0  0  0  0  0  0
   10.1873  -14.7935   22.2713 O   0  0  0  0  0  0  0  0  0  0  0  0
    8.7513  -15.9844   23.5609 N   0  0  0  0  0  0  0  0  0  0  0  0
    9.6893  -15.9625   24.6717 C   0  0  1  0  0  0  0  0  0  0  0  0
    9.1698  -15.1908   25.8394 C   0  0  0  0  0  0  0  0  0  0  0  0
    7.7779  -14.7614   25.7723 C   0  0  0  0  0  0  0  0  0  0  0  0
    6.6086  -15.3907   25.4353 C   0  0  0  0  0  0  0  0  0  0  0  0
    5.5832  -14.5200   25.5502 N   0  0  0  0  0  0  0  0  0  0  0  0
    6.0592  -13.3374   25.9545 C   0  0  0  0  0  0  0  0  0  0  0  0
    5.4196  -12.1423   26.2125 C   0  0  0  0  0  0  0  0  0  0  0  0
    6.1546  -11.0422   26.6257 C   0  0  0  0  0  0  0  0  0  0  0  0
    7.5250  -11.1199   26.7857 C   0  0  0  0  0  0  0  0  0  0  0  0
    8.1181  -12.3299   26.5172 C   0  0  0  0  0  0  0  0  0  0  0  0
    7.4197  -13.4445   26.1043 C   0  0  0  0  0  0  0  0  0  0  0  0
   10.2029  -17.3082   25.0263 C   0  0  0  0  0  0  0  0  0  0  0  0
    9.3222  -18.1701   25.3393 O   0  0  0  0  0  0  0  0  0  0  0  0
   11.5636  -17.6274   25.0222 N   0  0  0  0  0  0  0  0  0  0  0  0
   11.9991  -18.9984   25.3660 C   0  0  1  0  0  0  0  0  0  0  0  0
   13.3033  -19.2616   24.7110 C   0  0  0  0  0  0  0  0  0  0  0  0
   14.4924  -18.5238   25.1638 C   0  0  0  0  0  0  0  0  0  0  0  0
   15.3124  -17.9767   24.0894 C   0  0  0  0  0  0  0  0  0  0  0  0
   15.0520  -18.1499   22.8846 O   0  0  0  0  0  0  0  0  0  0  0  0
   11.9801  -19.1108   26.8079 C   0  0  0  0  0  0  0  0  0  0  0  0
   11.7448  -18.0904   27.5259 O   0  0  0  0  0  0  0  0  0  0  0  0
   16.4396  -17.2179   24.4239 O   0  0  0  0  0  0  0  0  0  0  0  0
   12.1976  -20.2900   27.4898 O   0  0  0  0  0  0  0  0  0  0  0  0
  2  1  1  0
  3  2  1  0
  3  4  1  6
  5  3  1  0
  5  6  1  1
  7  5  1  0
  7  8  2  0
  9  7  1  0
 10  9  1  0
 10 21  1  0
 10 11  1  1
 12 11  1  0
 13 12  2  0
 14 13  1  0
 15 14  1  0
 15 20  2  0
 16 15  1  0
 17 16  2  0
 17 18  1  0
 18 19  2  0
 19 20  1  0
 20 12  1  0
 21 23  1  0
 22 21  2  0
 23 24  1  0
 24 29  1  0
 24 25  1  1
 26 25  1  0
 27 28  2  0
 27 26  1  0
 29 30  2  0
 29 32  1  0
 31 27  1  0
M  END
$$$$
