IWE.pdb
     RDKit          3D

 32 33  0  0  1  0  0  0  0  0999 V2000
    7.9810  -17.1520   17.5620 C   0  0  0  0  0  0  0  0  0  0  0  0
    7.1747  -16.6055   18.7096 C   0  0  0  0  0  0  0  0  0  0  0  0
    8.0181  -16.2456   19.8849 C   0  0  2  0  0  0  0  0  0  0  0  0
    8.8514  -17.4132   20.3260 C   0  0  0  0  0  0  0  0  0  0  0  0
    7.2023  -15.6381   21.0107 C   0  0  2  0  0  0  0  0  0  0  0  0
    6.4494  -14.5033   20.6548 N   0  0  0  0  0  0  0  0  0  0  0  0
    8.1066  -15.5019   22.1767 C   0  0  0  0  0  0  0  0  0  0  0  0
    8.9038  -14.4927   22.2459 O   0  0  0  0  0  0  0  0  0  0  0  0
    8.2021  -16.3886   23.2739 N   0  0  0  0  0  0  0  0  0  0  0  0
    9.0939  -16.1399   24.3951 C   0  0  1  0  0  0  0  0  0  0  0  0
    8.3602  -16.0225   25.6900 C   0  0  0  0  0  0  0  0  0  0  0  0
    7.2956  -15.0279   25.7504 C   0  0  0  0  0  0  0  0  0  0  0  0
    5.9374  -15.0840   25.5800 C   0  0  0  0  0  0  0  0  0  0  0  0
    5.4136  -13.8520   25.7556 N   0  0  0  0  0  0  0  0  0  0  0  0
    6.4011  -12.9950   26.0367 C   0  0  0  0  0  0  0  0  0  0  0  0
    6.3801  -11.6394   26.2935 C   0  0  0  0  0  0  0  0  0  0  0  0
    7.5641  -10.9698   26.5599 C   0  0  0  0  0  0  0  0  0  0  0  0
    8.7735  -11.6382   26.5736 C   0  0  0  0  0  0  0  0  0  0  0  0
    8.7452  -12.9869   26.3123 C   0  0  0  0  0  0  0  0  0  0  0  0
    7.5876  -13.6856   26.0430 C   0  0  0  0  0  0  0  0  0  0  0  0
   10.2435  -17.0762   24.4431 C   0  0  0  0  0  0  0  0  0  0  0  0
    9.9636  -18.3033   24.2626 O   0  0  0  0  0  0  0  0  0  0  0  0
   11.5568  -16.6558   24.6706 N   0  0  0  0  0  0  0  0  0  0  0  0
   12.6356  -17.6572   24.8153 C   0  0  1  0  0  0  0  0  0  0  0  0
   13.9003  -17.0705   24.3095 C   0  0  0  0  0  0  0  0  0  0  0  0
   13.9705  -16.6206   22.9109 C   0  0  0  0  0  0  0  0  0  0  0  0
   15.1557  -15.8365   22.5847 C   0  0  0  0  0  0  0  0  0  0  0  0
   15.2916  -15.2339   21.5041 O   0  0  0  0  0  0  0  0  0  0  0  0
   12.6449  -18.0885   26.1958 C   0  0  0  0  0  0  0  0  0  0  0  0
   11.9311  -17.4889   27.0581 O   0  0  0  0  0  0  0  0  0  0  0  0
   16.1855  -15.7507   23.5283 O   0  0  0  0  0  0  0  0  0  0  0  0
   13.3923  -19.1488   26.6648 O   0  0  0  0  0  0  0  0  0  0  0  0
  2  1  1  0
  3  2  1  0
  3  4  1  1
  5  3  1  0
  5  6  1  6
  7  5  1  0
  7  8  2  0
  9  7  1  0
 10  9  1  0
 10 21  1  0
 10 11  1  1
 12 11  1  0
 13 12  2  0
 14 13  1  0
 15 14  1  0
 15 20  2  0
 16 15  1  0
 17 16  2  0
 17 18  1  0
 18 19  2  0
 19 20  1  0
 20 12  1  0
 21 23  1  0
 22 21  2  0
 23 24  1  0
 24 29  1  0
 24 25  1  1
 26 25  1  0
 27 28  2  0
 27 26  1  0
 29 30  2  0
 29 32  1  0
 31 27  1  0
M  END
$$$$
