IWE.pdb
     RDKit          3D

 32 33  0  0  1  0  0  0  0  0999 V2000
    7.2367  -12.5779   17.1749 C   0  0  0  0  0  0  0  0  0  0  0  0
    8.0742  -13.7483   17.6163 C   0  0  0  0  0  0  0  0  0  0  0  0
    8.3307  -13.7505   19.0847 C   0  0  2  0  0  0  0  0  0  0  0  0
    9.1153  -12.5388   19.4950 C   0  0  0  0  0  0  0  0  0  0  0  0
    8.9552  -15.0507   19.5550 C   0  0  2  0  0  0  0  0  0  0  0  0
    8.3197  -16.2181   19.0917 N   0  0  0  0  0  0  0  0  0  0  0  0
    9.1517  -14.9326   21.0191 C   0  0  0  0  0  0  0  0  0  0  0  0
   10.1559  -14.2654   21.4719 O   0  0  0  0  0  0  0  0  0  0  0  0
    8.3289  -15.4901   22.0248 N   0  0  0  0  0  0  0  0  0  0  0  0
    8.6062  -15.3089   23.4406 C   0  0  1  0  0  0  0  0  0  0  0  0
    7.3766  -14.9875   24.2241 C   0  0  0  0  0  0  0  0  0  0  0  0
    7.5647  -14.6695   25.6347 C   0  0  0  0  0  0  0  0  0  0  0  0
    8.1545  -15.3263   26.6823 C   0  0  0  0  0  0  0  0  0  0  0  0
    8.0562  -14.5698   27.7964 N   0  0  0  0  0  0  0  0  0  0  0  0
    7.4154  -13.4349   27.4970 C   0  0  0  0  0  0  0  0  0  0  0  0
    7.0708  -12.3535   28.2819 C   0  0  0  0  0  0  0  0  0  0  0  0
    6.3942  -11.2820   27.7205 C   0  0  0  0  0  0  0  0  0  0  0  0
    6.0557  -11.2756   26.3807 C   0  0  0  0  0  0  0  0  0  0  0  0
    6.4194  -12.3736   25.6389 C   0  0  0  0  0  0  0  0  0  0  0  0
    7.0921  -13.4569   26.1629 C   0  0  0  0  0  0  0  0  0  0  0  0
    9.4130  -16.4101   24.0211 C   0  0  0  0  0  0  0  0  0  0  0  0
    9.3467  -16.5359   25.2846 O   0  0  0  0  0  0  0  0  0  0  0  0
   10.2013  -17.2647   23.2456 N   0  0  0  0  0  0  0  0  0  0  0  0
   10.9525  -18.3624   23.8924 C   0  0  1  0  0  0  0  0  0  0  0  0
   11.4034  -19.3115   22.8458 C   0  0  0  0  0  0  0  0  0  0  0  0
   12.2253  -18.8113   21.7333 C   0  0  0  0  0  0  0  0  0  0  0  0
   12.6146  -19.8269   20.7622 C   0  0  0  0  0  0  0  0  0  0  0  0
   12.8234  -19.5705   19.5623 O   0  0  0  0  0  0  0  0  0  0  0  0
   11.9954  -17.7610   24.6940 C   0  0  0  0  0  0  0  0  0  0  0  0
   12.7266  -18.4838   25.4391 O   0  0  0  0  0  0  0  0  0  0  0  0
   12.7667  -21.1485   21.1963 O   0  0  0  0  0  0  0  0  0  0  0  0
   12.2739  -16.4100   24.7048 O   0  0  0  0  0  0  0  0  0  0  0  0
  2  1  1  0
  3  2  1  0
  3  4  1  6
  5  3  1  0
  5  6  1  1
  7  5  1  0
  7  8  2  0
  9  7  1  0
 10  9  1  0
 10 21  1  0
 10 11  1  1
 12 11  1  0
 13 12  2  0
 14 13  1  0
 15 14  1  0
 15 20  2  0
 16 15  1  0
 17 16  2  0
 17 18  1  0
 18 19  2  0
 19 20  1  0
 20 12  1  0
 21 23  1  0
 22 21  2  0
 23 24  1  0
 24 29  1  0
 24 25  1  6
 26 25  1  0
 27 28  2  0
 27 26  1  0
 29 30  2  0
 29 32  1  0
 31 27  1  0
M  END
$$$$
