IWE.pdb
     RDKit          3D

 32 33  0  0  1  0  0  0  0  0999 V2000
    6.6949  -12.3381   18.8477 C   0  0  0  0  0  0  0  0  0  0  0  0
    6.9945  -13.7764   19.1755 C   0  0  0  0  0  0  0  0  0  0  0  0
    7.8710  -13.9228   20.3723 C   0  0  2  0  0  0  0  0  0  0  0  0
    9.1389  -13.1366   20.2093 C   0  0  0  0  0  0  0  0  0  0  0  0
    8.1147  -15.3772   20.7291 C   0  0  2  0  0  0  0  0  0  0  0  0
    6.9756  -16.2022   20.6754 N   0  0  0  0  0  0  0  0  0  0  0  0
    8.8903  -15.3896   21.9918 C   0  0  0  0  0  0  0  0  0  0  0  0
   10.0002  -14.7397   22.0602 O   0  0  0  0  0  0  0  0  0  0  0  0
    8.5400  -16.0602   23.1863 N   0  0  0  0  0  0  0  0  0  0  0  0
    9.3909  -16.0372   24.3652 C   0  0  1  0  0  0  0  0  0  0  0  0
    8.6100  -16.1543   25.6323 C   0  0  0  0  0  0  0  0  0  0  0  0
    7.4576  -15.2722   25.7740 C   0  0  0  0  0  0  0  0  0  0  0  0
    6.1047  -15.4580   25.6652 C   0  0  0  0  0  0  0  0  0  0  0  0
    5.4724  -14.2892   25.9045 N   0  0  0  0  0  0  0  0  0  0  0  0
    6.3841  -13.3466   26.1666 C   0  0  0  0  0  0  0  0  0  0  0  0
    6.2434  -12.0072   26.4675 C   0  0  0  0  0  0  0  0  0  0  0  0
    7.3680  -11.2311   26.6999 C   0  0  0  0  0  0  0  0  0  0  0  0
    8.6362  -11.7765   26.6358 C   0  0  0  0  0  0  0  0  0  0  0  0
    8.7269  -13.1136   26.3330 C   0  0  0  0  0  0  0  0  0  0  0  0
    7.6313  -13.9160   26.0956 C   0  0  0  0  0  0  0  0  0  0  0  0
   10.5318  -16.9812   24.2778 C   0  0  0  0  0  0  0  0  0  0  0  0
   10.2364  -18.1759   23.9581 O   0  0  0  0  0  0  0  0  0  0  0  0
   11.8534  -16.6008   24.5269 N   0  0  0  0  0  0  0  0  0  0  0  0
   12.9441  -17.5886   24.3787 C   0  0  1  0  0  0  0  0  0  0  0  0
   14.1470  -16.8948   23.8581 C   0  0  0  0  0  0  0  0  0  0  0  0
   15.4333  -17.6079   23.8432 C   0  0  0  0  0  0  0  0  0  0  0  0
   16.5360  -16.8578   23.2539 C   0  0  0  0  0  0  0  0  0  0  0  0
   16.7860  -15.6757   23.5529 O   0  0  0  0  0  0  0  0  0  0  0  0
   13.0998  -18.2572   25.6518 C   0  0  0  0  0  0  0  0  0  0  0  0
   13.7387  -19.3521   25.7254 O   0  0  0  0  0  0  0  0  0  0  0  0
   17.3552  -17.4938   22.3144 O   0  0  0  0  0  0  0  0  0  0  0  0
   12.5955  -17.7730   26.8409 O   0  0  0  0  0  0  0  0  0  0  0  0
  2  1  1  0
  3  2  1  0
  3  4  1  6
  5  3  1  0
  5  6  1  1
  7  5  1  0
  7  8  2  0
  9  7  1  0
 10  9  1  0
 10 21  1  0
 10 11  1  1
 12 11  1  0
 13 12  2  0
 14 13  1  0
 15 14  1  0
 15 20  2  0
 16 15  1  0
 17 16  2  0
 17 18  1  0
 18 19  2  0
 19 20  1  0
 20 12  1  0
 21 23  1  0
 22 21  2  0
 23 24  1  0
 24 29  1  0
 24 25  1  1
 26 25  1  0
 27 28  2  0
 27 26  1  0
 29 30  2  0
 29 32  1  0
 31 27  1  0
M  END
$$$$
