IWE.pdb
     RDKit          3D

 32 33  0  0  1  0  0  0  0  0999 V2000
    7.0507  -12.3065   19.0449 C   0  0  0  0  0  0  0  0  0  0  0  0
    7.2593  -13.7650   19.3538 C   0  0  0  0  0  0  0  0  0  0  0  0
    8.0263  -13.9818   20.6135 C   0  0  2  0  0  0  0  0  0  0  0  0
    9.3115  -13.2072   20.6003 C   0  0  0  0  0  0  0  0  0  0  0  0
    8.2230  -15.4552   20.9177 C   0  0  2  0  0  0  0  0  0  0  0  0
    7.0699  -16.2505   20.7799 N   0  0  0  0  0  0  0  0  0  0  0  0
    8.9421  -15.5385   22.2107 C   0  0  0  0  0  0  0  0  0  0  0  0
   10.0861  -14.9607   22.3381 O   0  0  0  0  0  0  0  0  0  0  0  0
    8.5007  -16.2071   23.3759 N   0  0  0  0  0  0  0  0  0  0  0  0
    9.3259  -16.3106   24.5686 C   0  0  1  0  0  0  0  0  0  0  0  0
    8.5162  -16.2985   25.8229 C   0  0  0  0  0  0  0  0  0  0  0  0
    7.3828  -15.3818   25.8606 C   0  0  0  0  0  0  0  0  0  0  0  0
    6.0464  -15.5179   25.5917 C   0  0  0  0  0  0  0  0  0  0  0  0
    5.4269  -14.3355   25.7950 N   0  0  0  0  0  0  0  0  0  0  0  0
    6.3308  -13.4327   26.1904 C   0  0  0  0  0  0  0  0  0  0  0  0
    6.1975  -12.0985   26.5168 C   0  0  0  0  0  0  0  0  0  0  0  0
    7.3112  -11.3685   26.9015 C   0  0  0  0  0  0  0  0  0  0  0  0
    8.5608  -11.9549   26.9652 C   0  0  0  0  0  0  0  0  0  0  0  0
    8.6448  -13.2851   26.6313 C   0  0  0  0  0  0  0  0  0  0  0  0
    7.5597  -14.0423   26.2440 C   0  0  0  0  0  0  0  0  0  0  0  0
   10.3074  -17.4209   24.5025 C   0  0  0  0  0  0  0  0  0  0  0  0
   10.2328  -18.1628   23.4726 O   0  0  0  0  0  0  0  0  0  0  0  0
   11.2606  -17.6525   25.4981 N   0  0  0  0  0  0  0  0  0  0  0  0
   12.3545  -18.6189   25.2592 C   0  0  1  0  0  0  0  0  0  0  0  0
   13.3809  -17.9741   24.4047 C   0  0  0  0  0  0  0  0  0  0  0  0
   13.9716  -18.7393   23.2962 C   0  0  0  0  0  0  0  0  0  0  0  0
   14.4731  -17.9244   22.1960 C   0  0  0  0  0  0  0  0  0  0  0  0
   14.0404  -18.0184   21.0328 O   0  0  0  0  0  0  0  0  0  0  0  0
   12.8085  -19.0879   26.5499 C   0  0  0  0  0  0  0  0  0  0  0  0
   13.7510  -19.9353   26.6273 O   0  0  0  0  0  0  0  0  0  0  0  0
   15.4817  -16.9901   22.4570 O   0  0  0  0  0  0  0  0  0  0  0  0
   12.2815  -18.6619   27.7514 O   0  0  0  0  0  0  0  0  0  0  0  0
  2  1  1  0
  3  2  1  0
  3  4  1  6
  5  3  1  0
  5  6  1  1
  7  5  1  0
  7  8  2  0
  9  7  1  0
 10  9  1  0
 10 21  1  0
 10 11  1  1
 12 11  1  0
 13 12  2  0
 14 13  1  0
 15 14  1  0
 15 20  2  0
 16 15  1  0
 17 16  2  0
 17 18  1  0
 18 19  2  0
 19 20  1  0
 20 12  1  0
 21 23  1  0
 22 21  2  0
 23 24  1  0
 24 29  1  0
 24 25  1  1
 26 25  1  0
 27 28  2  0
 27 26  1  0
 29 30  2  0
 29 32  1  0
 31 27  1  0
M  END
$$$$
