IWE.pdb
     RDKit          3D

 32 33  0  0  1  0  0  0  0  0999 V2000
    7.5977  -13.0254   18.3318 C   0  0  0  0  0  0  0  0  0  0  0  0
    6.8042  -13.4344   19.5439 C   0  0  0  0  0  0  0  0  0  0  0  0
    7.6678  -13.7435   20.7190 C   0  0  2  0  0  0  0  0  0  0  0  0
    8.7996  -12.7639   20.8266 C   0  0  0  0  0  0  0  0  0  0  0  0
    8.1294  -15.1887   20.7260 C   0  0  2  0  0  0  0  0  0  0  0  0
    7.1524  -16.1275   20.3445 N   0  0  0  0  0  0  0  0  0  0  0  0
    8.8090  -15.4204   22.0223 C   0  0  0  0  0  0  0  0  0  0  0  0
    9.9194  -14.8176   22.2724 O   0  0  0  0  0  0  0  0  0  0  0  0
    8.3621  -16.2626   23.0665 N   0  0  0  0  0  0  0  0  0  0  0  0
    9.1189  -16.4407   24.2952 C   0  0  1  0  0  0  0  0  0  0  0  0
    8.2433  -16.4610   25.5043 C   0  0  0  0  0  0  0  0  0  0  0  0
    7.2054  -15.4393   25.5771 C   0  0  0  0  0  0  0  0  0  0  0  0
    5.8671  -15.4274   25.2842 C   0  0  0  0  0  0  0  0  0  0  0  0
    5.3638  -14.2016   25.5434 N   0  0  0  0  0  0  0  0  0  0  0  0
    6.3451  -13.4153   25.9986 C   0  0  0  0  0  0  0  0  0  0  0  0
    6.3382  -12.0935   26.3951 C   0  0  0  0  0  0  0  0  0  0  0  0
    7.5113  -11.4992   26.8330 C   0  0  0  0  0  0  0  0  0  0  0  0
    8.6957  -12.2096   26.8808 C   0  0  0  0  0  0  0  0  0  0  0  0
    8.6540  -13.5221   26.4764 C   0  0  0  0  0  0  0  0  0  0  0  0
    7.5067  -14.1461   26.0348 C   0  0  0  0  0  0  0  0  0  0  0  0
   10.0744  -17.5736   24.2312 C   0  0  0  0  0  0  0  0  0  0  0  0
    9.9077  -18.3821   23.2641 O   0  0  0  0  0  0  0  0  0  0  0  0
   11.0986  -17.7572   25.1642 N   0  0  0  0  0  0  0  0  0  0  0  0
   12.3185  -18.5008   24.7813 C   0  0  1  0  0  0  0  0  0  0  0  0
   12.9093  -17.8601   23.5814 C   0  0  0  0  0  0  0  0  0  0  0  0
   14.2120  -18.3315   23.0875 C   0  0  0  0  0  0  0  0  0  0  0  0
   14.6847  -17.6574   21.8841 C   0  0  0  0  0  0  0  0  0  0  0  0
   14.2964  -17.9621   20.7415 O   0  0  0  0  0  0  0  0  0  0  0  0
   13.1704  -18.5670   25.9483 C   0  0  0  0  0  0  0  0  0  0  0  0
   12.9319  -17.8332   26.9568 O   0  0  0  0  0  0  0  0  0  0  0  0
   15.6117  -16.6175   22.0164 O   0  0  0  0  0  0  0  0  0  0  0  0
   14.2599  -19.4059   26.0580 O   0  0  0  0  0  0  0  0  0  0  0  0
  2  1  1  0
  3  2  1  0
  3  4  1  6
  5  3  1  0
  5  6  1  1
  7  5  1  0
  7  8  2  0
  9  7  1  0
 10  9  1  0
 10 21  1  0
 10 11  1  1
 12 11  1  0
 13 12  2  0
 14 13  1  0
 15 14  1  0
 15 20  2  0
 16 15  1  0
 17 16  2  0
 17 18  1  0
 18 19  2  0
 19 20  1  0
 20 12  1  0
 21 23  1  0
 22 21  2  0
 23 24  1  0
 24 29  1  0
 24 25  1  6
 26 25  1  0
 27 28  2  0
 27 26  1  0
 29 30  2  0
 29 32  1  0
 31 27  1  0
M  END
$$$$
