IWE.pdb
     RDKit          3D

 32 33  0  0  1  0  0  0  0  0999 V2000
    7.5559  -12.3492   20.3712 C   0  0  0  0  0  0  0  0  0  0  0  0
    7.6789  -13.6672   21.0878 C   0  0  0  0  0  0  0  0  0  0  0  0
    8.4296  -14.6837   20.2970 C   0  0  2  0  0  0  0  0  0  0  0  0
    7.8122  -14.8739   18.9424 C   0  0  0  0  0  0  0  0  0  0  0  0
    8.6068  -15.9844   21.0577 C   0  0  2  0  0  0  0  0  0  0  0  0
    7.4175  -16.6948   21.3073 N   0  0  0  0  0  0  0  0  0  0  0  0
    9.4669  -15.6886   22.2276 C   0  0  0  0  0  0  0  0  0  0  0  0
   10.6592  -15.2389   22.0401 O   0  0  0  0  0  0  0  0  0  0  0  0
    9.1178  -15.8474   23.5886 N   0  0  0  0  0  0  0  0  0  0  0  0
   10.0741  -15.6349   24.6631 C   0  0  1  0  0  0  0  0  0  0  0  0
    9.5375  -14.7434   25.7337 C   0  0  0  0  0  0  0  0  0  0  0  0
    8.0949  -14.5311   25.7456 C   0  0  0  0  0  0  0  0  0  0  0  0
    7.0172  -15.3410   25.5018 C   0  0  0  0  0  0  0  0  0  0  0  0
    5.8797  -14.6310   25.6600 N   0  0  0  0  0  0  0  0  0  0  0  0
    6.1933  -13.3766   26.0015 C   0  0  0  0  0  0  0  0  0  0  0  0
    5.3955  -12.2829   26.2691 C   0  0  0  0  0  0  0  0  0  0  0  0
    5.9777  -11.0707   26.6049 C   0  0  0  0  0  0  0  0  0  0  0  0
    7.3510  -10.9353   26.6777 C   0  0  0  0  0  0  0  0  0  0  0  0
    8.1044  -12.0511   26.4031 C   0  0  0  0  0  0  0  0  0  0  0  0
    7.5607  -13.2722   26.0656 C   0  0  0  0  0  0  0  0  0  0  0  0
   10.6627  -16.8963   25.1760 C   0  0  0  0  0  0  0  0  0  0  0  0
   11.5515  -16.7647   26.0756 O   0  0  0  0  0  0  0  0  0  0  0  0
   10.2779  -18.1575   24.7130 N   0  0  0  0  0  0  0  0  0  0  0  0
   10.8901  -19.3728   25.2927 C   0  0  1  0  0  0  0  0  0  0  0  0
   12.0899  -19.7273   24.4964 C   0  0  0  0  0  0  0  0  0  0  0  0
   12.9087  -18.6503   23.9194 C   0  0  0  0  0  0  0  0  0  0  0  0
   14.1116  -19.1046   23.2320 C   0  0  0  0  0  0  0  0  0  0  0  0
   14.9444  -18.3226   22.7378 O   0  0  0  0  0  0  0  0  0  0  0  0
   11.1155  -19.1168   26.6982 C   0  0  0  0  0  0  0  0  0  0  0  0
   11.6283  -20.0129   27.4374 O   0  0  0  0  0  0  0  0  0  0  0  0
   14.3463  -20.4801   23.1262 O   0  0  0  0  0  0  0  0  0  0  0  0
   10.8126  -17.9234   27.3203 O   0  0  0  0  0  0  0  0  0  0  0  0
  2  1  1  0
  3  2  1  0
  3  4  1  6
  5  3  1  0
  5  6  1  1
  7  5  1  0
  7  8  2  0
  9  7  1  0
 10  9  1  0
 10 21  1  0
 10 11  1  1
 12 11  1  0
 13 12  2  0
 14 13  1  0
 15 14  1  0
 15 20  2  0
 16 15  1  0
 17 16  2  0
 17 18  1  0
 18 19  2  0
 19 20  1  0
 20 12  1  0
 21 23  1  0
 22 21  2  0
 23 24  1  0
 24 29  1  0
 24 25  1  6
 26 25  1  0
 27 28  2  0
 27 26  1  0
 29 30  2  0
 29 32  1  0
 31 27  1  0
M  END
$$$$
