IWE.pdb
     RDKit          3D

 32 33  0  0  1  0  0  0  0  0999 V2000
    7.4878  -11.9901   18.6736 C   0  0  0  0  0  0  0  0  0  0  0  0
    7.5103  -13.3558   19.3064 C   0  0  0  0  0  0  0  0  0  0  0  0
    8.4932  -14.2722   18.6613 C   0  0  2  0  0  0  0  0  0  0  0  0
    8.2850  -14.3242   17.1760 C   0  0  0  0  0  0  0  0  0  0  0  0
    8.5069  -15.6445   19.3084 C   0  0  2  0  0  0  0  0  0  0  0  0
    7.4400  -16.4862   18.9415 N   0  0  0  0  0  0  0  0  0  0  0  0
    8.7267  -15.4374   20.7592 C   0  0  0  0  0  0  0  0  0  0  0  0
    9.8192  -14.8874   21.1625 O   0  0  0  0  0  0  0  0  0  0  0  0
    7.8379  -15.7870   21.8018 N   0  0  0  0  0  0  0  0  0  0  0  0
    8.1713  -15.5873   23.2030 C   0  0  1  0  0  0  0  0  0  0  0  0
    6.9593  -15.5262   24.0726 C   0  0  0  0  0  0  0  0  0  0  0  0
    7.1847  -15.2791   25.4919 C   0  0  0  0  0  0  0  0  0  0  0  0
    7.4186  -16.0931   26.5687 C   0  0  0  0  0  0  0  0  0  0  0  0
    7.5663  -15.3366   27.6772 N   0  0  0  0  0  0  0  0  0  0  0  0
    7.4337  -14.0478   27.3457 C   0  0  0  0  0  0  0  0  0  0  0  0
    7.4979  -12.9026   28.1129 C   0  0  0  0  0  0  0  0  0  0  0  0
    7.3209  -11.6634   27.5177 C   0  0  0  0  0  0  0  0  0  0  0  0
    7.0798  -11.5518   26.1616 C   0  0  0  0  0  0  0  0  0  0  0  0
    7.0245  -12.7189   25.4385 C   0  0  0  0  0  0  0  0  0  0  0  0
    7.1952  -13.9682   25.9961 C   0  0  0  0  0  0  0  0  0  0  0  0
    9.2110  -16.5251   23.6931 C   0  0  0  0  0  0  0  0  0  0  0  0
    8.9945  -17.7571   23.4651 O   0  0  0  0  0  0  0  0  0  0  0  0
   10.3612  -16.1009   24.3641 N   0  0  0  0  0  0  0  0  0  0  0  0
   11.4370  -17.0701   24.6657 C   0  0  1  0  0  0  0  0  0  0  0  0
   12.7364  -16.4787   24.2642 C   0  0  0  0  0  0  0  0  0  0  0  0
   13.9808  -17.1732   24.6283 C   0  0  0  0  0  0  0  0  0  0  0  0
   15.1992  -16.5117   24.1766 C   0  0  0  0  0  0  0  0  0  0  0  0
   15.1921  -15.4393   23.5448 O   0  0  0  0  0  0  0  0  0  0  0  0
   11.3117  -17.4376   26.0590 C   0  0  0  0  0  0  0  0  0  0  0  0
   10.6267  -16.7193   26.8509 O   0  0  0  0  0  0  0  0  0  0  0  0
   16.4332  -17.1029   24.4696 O   0  0  0  0  0  0  0  0  0  0  0  0
   11.8948  -18.5578   26.6138 O   0  0  0  0  0  0  0  0  0  0  0  0
  2  1  1  0
  3  2  1  0
  3  4  1  6
  5  3  1  0
  5  6  1  1
  7  5  1  0
  7  8  2  0
  9  7  1  0
 10  9  1  0
 10 21  1  0
 10 11  1  1
 12 11  1  0
 13 12  2  0
 14 13  1  0
 15 14  1  0
 15 20  2  0
 16 15  1  0
 17 16  2  0
 17 18  1  0
 18 19  2  0
 19 20  1  0
 20 12  1  0
 21 23  1  0
 22 21  2  0
 23 24  1  0
 24 29  1  0
 24 25  1  1
 26 25  1  0
 27 28  2  0
 27 26  1  0
 29 30  2  0
 29 32  1  0
 31 27  1  0
M  END
$$$$
