CQG.pdb
     RDKit          3D

 20 19  0  0  1  0  0  0  0  0999 V2000
    7.4919  -19.3004   17.6758 N   0  0  0  0  0  0  0  0  0  0  0  0
    6.9800  -18.6064   18.8417 C   0  0  1  0  0  0  0  0  0  0  0  0
    6.8169  -19.5533   20.0132 C   0  0  0  0  0  0  0  0  0  0  0  0
    5.1074  -20.1413   20.1148 S   0  0  0  0  0  0  0  0  0  0  0  0
    7.9452  -17.5154   19.2256 C   0  0  0  0  0  0  0  0  0  0  0  0
    9.1489  -17.6831   18.9544 O   0  0  0  0  0  0  0  0  0  0  0  0
    9.3442  -12.1819   18.1825 N   0  0  0  0  0  0  0  0  0  0  0  0
    9.7132  -12.6412   19.4710 C   0  0  0  0  0  0  0  0  0  0  0  0
   10.9273  -12.8140   19.7235 O   0  0  0  0  0  0  0  0  0  0  0  0
    8.6785  -12.9015   20.4703 C   0  0  0  0  0  0  0  0  0  0  0  0
    7.7166  -13.9845   20.0758 C   0  0  0  0  0  0  0  0  0  0  0  0
    8.3856  -15.3019   20.2820 C   0  0  2  0  0  0  0  0  0  0  0  0
    7.4806  -16.3530   19.8690 N   0  0  0  0  0  0  0  0  0  0  0  0
    8.7938  -15.5609   21.6950 C   0  0  0  0  0  0  0  0  0  0  0  0
    7.9936  -15.5051   22.6625 O   0  0  0  0  0  0  0  0  0  0  0  0
   10.1483  -15.8941   22.0323 N   0  0  0  0  0  0  0  0  0  0  0  0
   10.6134  -15.9908   23.3781 C   0  0  0  0  0  0  0  0  0  0  0  0
   12.0492  -16.3297   23.4882 C   0  0  0  0  0  0  0  0  0  0  0  0
   12.3283  -17.4267   24.0395 O   0  0  0  0  0  0  0  0  0  0  0  0
   13.0785  -15.5485   23.0409 O   0  0  0  0  0  0  0  0  0  0  0  0
  2  3  1  0
  2  1  1  6
  4  3  1  0
  5  6  2  0
  5  2  1  0
  7  8  1  0
  8 10  1  0
  9  8  2  0
 10 11  1  0
 12 11  1  1
 12 13  1  0
 13  5  1  0
 14 16  1  0
 14 12  1  0
 15 14  2  0
 17 16  1  0
 18 17  1  0
 19 18  2  0
 20 18  1  0
M  END
$$$$
