CQG.pdb
     RDKit          3D

 20 19  0  0  1  0  0  0  0  0999 V2000
    6.4962  -13.4498   19.8703 N   0  0  0  0  0  0  0  0  0  0  0  0
    7.6136  -14.3323   20.1451 C   0  0  1  0  0  0  0  0  0  0  0  0
    8.8849  -13.8217   19.4980 C   0  0  0  0  0  0  0  0  0  0  0  0
    8.7020  -13.7787   17.6971 S   0  0  0  0  0  0  0  0  0  0  0  0
    7.8209  -14.4111   21.6350 C   0  0  0  0  0  0  0  0  0  0  0  0
    7.7265  -13.3569   22.2910 O   0  0  0  0  0  0  0  0  0  0  0  0
    5.9244  -18.8582   25.1118 N   0  0  0  0  0  0  0  0  0  0  0  0
    6.0534  -18.6653   23.7141 C   0  0  0  0  0  0  0  0  0  0  0  0
    5.5418  -19.5066   22.9407 O   0  0  0  0  0  0  0  0  0  0  0  0
    6.7744  -17.4987   23.2081 C   0  0  0  0  0  0  0  0  0  0  0  0
    7.3735  -16.6439   24.2870 C   0  0  0  0  0  0  0  0  0  0  0  0
    8.3870  -15.7448   23.6625 C   0  0  2  0  0  0  0  0  0  0  0  0
    8.1108  -15.6458   22.2453 N   0  0  0  0  0  0  0  0  0  0  0  0
    9.7967  -16.2060   23.8360 C   0  0  0  0  0  0  0  0  0  0  0  0
   10.2701  -16.5669   24.9429 O   0  0  0  0  0  0  0  0  0  0  0  0
   10.7059  -16.2637   22.7272 N   0  0  0  0  0  0  0  0  0  0  0  0
   12.0644  -16.6815   22.8563 C   0  0  0  0  0  0  0  0  0  0  0  0
   12.8779  -15.8003   23.7226 C   0  0  0  0  0  0  0  0  0  0  0  0
   12.2487  -15.0715   24.5339 O   0  0  0  0  0  0  0  0  0  0  0  0
   14.2429  -15.7224   23.7051 O   0  0  0  0  0  0  0  0  0  0  0  0
  2  3  1  0
  2  1  1  1
  4  3  1  0
  5  6  2  0
  5  2  1  0
  7  8  1  0
  8 10  1  0
  9  8  2  0
 10 11  1  0
 12 11  1  6
 12 13  1  0
 13  5  1  0
 14 16  1  0
 14 12  1  0
 15 14  2  0
 17 16  1  0
 18 17  1  0
 19 18  2  0
 20 18  1  0
M  END
$$$$
