CQG.pdb
     RDKit          3D

 20 19  0  0  1  0  0  0  0  0999 V2000
    4.0129  -25.0348   26.1882 N   0  0  0  0  0  0  0  0  0  0  0  0
    5.4466  -24.8736   26.0414 C   0  0  1  0  0  0  0  0  0  0  0  0
    5.7757  -23.8993   24.9287 C   0  0  0  0  0  0  0  0  0  0  0  0
    5.7496  -24.7411   23.3259 S   0  0  0  0  0  0  0  0  0  0  0  0
    6.0157  -24.3498   27.3341 C   0  0  0  0  0  0  0  0  0  0  0  0
    5.4180  -23.4117   27.8938 O   0  0  0  0  0  0  0  0  0  0  0  0
    8.3648  -27.4925   32.0245 N   0  0  0  0  0  0  0  0  0  0  0  0
    8.5558  -26.1351   32.3825 C   0  0  0  0  0  0  0  0  0  0  0  0
    8.9158  -25.8657   33.5510 O   0  0  0  0  0  0  0  0  0  0  0  0
    8.3308  -25.0862   31.3894 C   0  0  0  0  0  0  0  0  0  0  0  0
    7.8508  -25.6022   30.0639 C   0  0  0  0  0  0  0  0  0  0  0  0
    7.7479  -24.4492   29.1228 C   0  0  2  0  0  0  0  0  0  0  0  0
    7.1855  -24.9166   27.8739 N   0  0  0  0  0  0  0  0  0  0  0  0
    9.0533  -23.7849   28.8315 C   0  0  0  0  0  0  0  0  0  0  0  0
    9.8192  -24.1519   27.9051 O   0  0  0  0  0  0  0  0  0  0  0  0
    9.5139  -22.6697   29.6083 N   0  0  0  0  0  0  0  0  0  0  0  0
   10.7309  -21.9779   29.3302 C   0  0  0  0  0  0  0  0  0  0  0  0
   11.4956  -21.6091   30.5418 C   0  0  0  0  0  0  0  0  0  0  0  0
   10.9776  -21.9124   31.6487 O   0  0  0  0  0  0  0  0  0  0  0  0
   12.7057  -20.9726   30.5449 O   0  0  0  0  0  0  0  0  0  0  0  0
  2  3  1  0
  2  1  1  1
  4  3  1  0
  5  6  2  0
  5  2  1  0
  7  8  1  0
  8 10  1  0
  9  8  2  0
 10 11  1  0
 12 11  1  1
 12 13  1  0
 13  5  1  0
 14 16  1  0
 14 12  1  0
 15 14  2  0
 17 16  1  0
 18 17  1  0
 19 18  2  0
 20 18  1  0
M  END
$$$$
