CQG.pdb
     RDKit          3D

 20 19  0  0  1  0  0  0  0  0999 V2000
    8.8232  -14.5988   14.1726 N   0  0  0  0  0  0  0  0  0  0  0  0
    8.0563  -14.7165   15.3978 C   0  0  1  0  0  0  0  0  0  0  0  0
    7.6353  -16.1511   15.6430 C   0  0  0  0  0  0  0  0  0  0  0  0
    9.0775  -17.1725   16.0368 S   0  0  0  0  0  0  0  0  0  0  0  0
    8.9039  -14.2513   16.5530 C   0  0  0  0  0  0  0  0  0  0  0  0
   10.0838  -13.9319   16.3159 O   0  0  0  0  0  0  0  0  0  0  0  0
    7.8946  -13.2596   22.5138 N   0  0  0  0  0  0  0  0  0  0  0  0
    6.9873  -13.9728   21.6918 C   0  0  0  0  0  0  0  0  0  0  0  0
    6.1593  -14.7398   22.2338 O   0  0  0  0  0  0  0  0  0  0  0  0
    7.0359  -13.8001   20.2410 C   0  0  0  0  0  0  0  0  0  0  0  0
    8.0726  -12.8152   19.7842 C   0  0  0  0  0  0  0  0  0  0  0  0
    9.0633  -13.5389   18.9356 C   0  0  2  0  0  0  0  0  0  0  0  0
    8.3601  -14.1874   17.8496 N   0  0  0  0  0  0  0  0  0  0  0  0
    9.8510  -14.5734   19.6703 C   0  0  0  0  0  0  0  0  0  0  0  0
   10.5761  -14.3087   20.6620 O   0  0  0  0  0  0  0  0  0  0  0  0
    9.8227  -15.9531   19.2767 N   0  0  0  0  0  0  0  0  0  0  0  0
   10.4052  -16.9966   20.0569 C   0  0  0  0  0  0  0  0  0  0  0  0
   11.8457  -17.2043   19.7916 C   0  0  0  0  0  0  0  0  0  0  0  0
   12.4026  -18.1471   20.4131 O   0  0  0  0  0  0  0  0  0  0  0  0
   12.6032  -16.4570   18.9328 O   0  0  0  0  0  0  0  0  0  0  0  0
  2  3  1  0
  2  1  1  6
  4  3  1  0
  5  6  2  0
  5  2  1  0
  7  8  1  0
  8 10  1  0
  9  8  2  0
 10 11  1  0
 12 11  1  1
 12 13  1  0
 13  5  1  0
 14 16  1  0
 14 12  1  0
 15 14  2  0
 17 16  1  0
 18 17  1  0
 19 18  2  0
 20 18  1  0
M  END
$$$$
