CQG.pdb
     RDKit          3D

 20 19  0  0  1  0  0  0  0  0999 V2000
   11.4263  -21.9361   16.1109 N   0  0  0  0  0  0  0  0  0  0  0  0
   11.4024  -23.0280   17.0649 C   0  0  1  0  0  0  0  0  0  0  0  0
   12.7917  -23.5904   17.2864 C   0  0  0  0  0  0  0  0  0  0  0  0
   13.9161  -23.0225   15.9858 S   0  0  0  0  0  0  0  0  0  0  0  0
   10.8655  -22.5201   18.3776 C   0  0  0  0  0  0  0  0  0  0  0  0
   10.8287  -21.2878   18.5522 O   0  0  0  0  0  0  0  0  0  0  0  0
    5.9220  -24.5132   20.9733 N   0  0  0  0  0  0  0  0  0  0  0  0
    6.1213  -23.2099   20.4548 C   0  0  0  0  0  0  0  0  0  0  0  0
    5.1234  -22.5491   20.0873 O   0  0  0  0  0  0  0  0  0  0  0  0
    7.4758  -22.6680   20.3602 C   0  0  0  0  0  0  0  0  0  0  0  0
    8.5413  -23.6217   20.8170 C   0  0  0  0  0  0  0  0  0  0  0  0
    9.8686  -22.9708   20.6165 C   0  0  2  0  0  0  0  0  0  0  0  0
   10.4252  -23.4262   19.3606 N   0  0  0  0  0  0  0  0  0  0  0  0
   10.8553  -23.2578   21.7001 C   0  0  0  0  0  0  0  0  0  0  0  0
   10.8531  -24.3233   22.3668 O   0  0  0  0  0  0  0  0  0  0  0  0
   11.8801  -22.3148   22.0465 N   0  0  0  0  0  0  0  0  0  0  0  0
   12.9167  -22.6023   22.9845 C   0  0  0  0  0  0  0  0  0  0  0  0
   13.9388  -21.5375   23.0862 C   0  0  0  0  0  0  0  0  0  0  0  0
   15.0000  -21.7112   22.4312 O   0  0  0  0  0  0  0  0  0  0  0  0
   13.8147  -20.3964   23.8291 O   0  0  0  0  0  0  0  0  0  0  0  0
  2  3  1  0
  2  1  1  6
  4  3  1  0
  5  6  2  0
  5  2  1  0
  7  8  1  0
  8 10  1  0
  9  8  2  0
 10 11  1  0
 12 11  1  1
 12 13  1  0
 13  5  1  0
 14 16  1  0
 14 12  1  0
 15 14  2  0
 17 16  1  0
 18 17  1  0
 19 18  2  0
 20 18  1  0
M  END
$$$$
