CQG.pdb
     RDKit          3D

 20 19  0  0  1  0  0  0  0  0999 V2000
    5.4208  -13.9551   26.7094 N   0  0  0  0  0  0  0  0  0  0  0  0
    6.3276  -13.1799   25.8850 C   0  0  1  0  0  0  0  0  0  0  0  0
    7.4081  -12.5291   26.7244 C   0  0  0  0  0  0  0  0  0  0  0  0
    6.7767  -11.0236   27.5074 S   0  0  0  0  0  0  0  0  0  0  0  0
    6.9751  -14.0928   24.8767 C   0  0  0  0  0  0  0  0  0  0  0  0
    7.1656  -15.2787   25.2052 O   0  0  0  0  0  0  0  0  0  0  0  0
    8.2023  -12.6640   18.7518 N   0  0  0  0  0  0  0  0  0  0  0  0
    8.4994  -14.0410   18.9033 C   0  0  0  0  0  0  0  0  0  0  0  0
    8.8654  -14.6919   17.8983 O   0  0  0  0  0  0  0  0  0  0  0  0
    8.3738  -14.6681   20.2179 C   0  0  0  0  0  0  0  0  0  0  0  0
    7.8572  -13.7432   21.2815 C   0  0  0  0  0  0  0  0  0  0  0  0
    7.8707  -14.4730   22.5826 C   0  0  2  0  0  0  0  0  0  0  0  0
    7.3448  -13.6009   23.6108 N   0  0  0  0  0  0  0  0  0  0  0  0
    9.2264  -14.9349   23.0055 C   0  0  0  0  0  0  0  0  0  0  0  0
   10.0672  -14.1820   23.5585 O   0  0  0  0  0  0  0  0  0  0  0  0
    9.6521  -16.2899   22.7998 N   0  0  0  0  0  0  0  0  0  0  0  0
   10.9104  -16.7872   23.2538 C   0  0  0  0  0  0  0  0  0  0  0  0
   11.8642  -17.0782   22.1609 C   0  0  0  0  0  0  0  0  0  0  0  0
   11.4374  -16.9274   20.9860 O   0  0  0  0  0  0  0  0  0  0  0  0
   13.1557  -17.4927   22.3334 O   0  0  0  0  0  0  0  0  0  0  0  0
  2  3  1  0
  2  1  1  1
  4  3  1  0
  5  6  2  0
  5  2  1  0
  7  8  1  0
  8 10  1  0
  9  8  2  0
 10 11  1  0
 12 11  1  6
 12 13  1  0
 13  5  1  0
 14 16  1  0
 14 12  1  0
 15 14  2  0
 17 16  1  0
 18 17  1  0
 19 18  2  0
 20 18  1  0
M  END
$$$$
