CQG.pdb
     RDKit          3D

 20 19  0  0  1  0  0  0  0  0999 V2000
    7.2961  -13.6885   17.6742 N   0  0  0  0  0  0  0  0  0  0  0  0
    8.2776  -14.2751   18.5662 C   0  0  1  0  0  0  0  0  0  0  0  0
    9.5382  -13.4363   18.6188 C   0  0  0  0  0  0  0  0  0  0  0  0
   10.1724  -13.1464   16.9478 S   0  0  0  0  0  0  0  0  0  0  0  0
    7.6907  -14.3631   19.9508 C   0  0  0  0  0  0  0  0  0  0  0  0
    6.5098  -13.9995   20.1052 O   0  0  0  0  0  0  0  0  0  0  0  0
    5.9296  -19.1515   20.5683 N   0  0  0  0  0  0  0  0  0  0  0  0
    5.9323  -18.8887   21.9605 C   0  0  0  0  0  0  0  0  0  0  0  0
    5.3451  -19.6877   22.7250 O   0  0  0  0  0  0  0  0  0  0  0  0
    6.6143  -17.7009   22.4714 C   0  0  0  0  0  0  0  0  0  0  0  0
    7.1759  -16.8172   21.3957 C   0  0  0  0  0  0  0  0  0  0  0  0
    7.9040  -15.6907   22.0488 C   0  0  2  0  0  0  0  0  0  0  0  0
    8.4691  -14.8435   21.0206 N   0  0  0  0  0  0  0  0  0  0  0  0
    9.0059  -16.1260   22.9579 C   0  0  0  0  0  0  0  0  0  0  0  0
    8.8026  -16.6467   24.0836 O   0  0  0  0  0  0  0  0  0  0  0  0
   10.3841  -15.9709   22.5892 N   0  0  0  0  0  0  0  0  0  0  0  0
   11.4591  -16.1251   23.5152 C   0  0  0  0  0  0  0  0  0  0  0  0
   12.7953  -15.9162   22.9155 C   0  0  0  0  0  0  0  0  0  0  0  0
   13.7764  -15.9398   23.7042 O   0  0  0  0  0  0  0  0  0  0  0  0
   13.0365  -15.7028   21.5866 O   0  0  0  0  0  0  0  0  0  0  0  0
  2  3  1  0
  2  1  1  6
  4  3  1  0
  5  6  2  0
  5  2  1  0
  7  8  1  0
  8 10  1  0
  9  8  2  0
 10 11  1  0
 12 11  1  6
 12 13  1  0
 13  5  1  0
 14 16  1  0
 14 12  1  0
 15 14  2  0
 17 16  1  0
 18 17  1  0
 19 18  2  0
 20 18  1  0
M  END
$$$$
