TAS.pdb
     RDKit          3D

 19 18  0  0  1  0  0  0  0  0999 V2000
   10.0646  -22.4569   17.3109 C   0  0  0  0  0  0  0  0  0  0  0  0
    9.9487  -21.0264   16.8514 C   0  0  1  0  0  0  0  0  0  0  0  0
    9.7098  -21.0058   15.4855 O   0  0  0  0  0  0  0  0  0  0  0  0
    8.7930  -20.3666   17.5959 C   0  0  2  0  0  0  0  0  0  0  0  0
    8.3734  -19.2022   16.8804 N   0  0  0  0  0  0  0  0  0  0  0  0
    9.1097  -20.1047   19.0079 C   0  0  0  0  0  0  0  0  0  0  0  0
    9.9211  -19.1985   19.3755 O   0  0  0  0  0  0  0  0  0  0  0  0
    7.8165  -21.5003   22.2999 C   0  0  0  0  0  0  0  0  0  0  0  0
    8.7744  -20.7331   21.4236 C   0  0  2  0  0  0  0  0  0  0  0  0
    8.4886  -20.8917   20.0151 N   0  0  0  0  0  0  0  0  0  0  0  0
   10.1908  -21.0580   21.7445 C   0  0  0  0  0  0  0  0  0  0  0  0
   10.8037  -22.0112   21.1976 O   0  0  0  0  0  0  0  0  0  0  0  0
   14.3034  -19.3672   23.5405 O   0  0  0  0  0  0  0  0  0  0  0  0
   12.9888  -19.2096   23.1389 C   0  0  0  0  0  0  0  0  0  0  0  0
   12.2411  -20.5456   23.1316 C   0  0  2  0  0  0  0  0  0  0  0  0
   10.9104  -20.2870   22.6974 N   0  0  0  0  0  0  0  0  0  0  0  0
   12.2292  -21.0366   24.5274 C   0  0  0  0  0  0  0  0  0  0  0  0
   13.2913  -21.7858   24.9854 O   0  0  0  0  0  0  0  0  0  0  0  0
   11.2580  -20.7601   25.2554 O   0  0  0  0  0  0  0  0  0  0  0  0
  2  3  1  0
  2  1  1  1
  4  2  1  0
  4  5  1  6
  6  4  1  0
  6 10  1  0
  7  6  2  0
  9  8  1  1
  9 10  1  0
  9 11  1  0
 11 12  2  0
 13 14  1  0
 15 14  1  1
 15 17  1  0
 16 11  1  0
 16 15  1  0
 17 18  1  0
 19 17  2  0
M  END
$$$$
