TAS.pdb
     RDKit          3D

 19 18  0  0  1  0  0  0  0  0999 V2000
    6.6103  -18.6983   19.7532 C   0  0  0  0  0  0  0  0  0  0  0  0
    7.4712  -18.4001   18.5528 C   0  0  1  0  0  0  0  0  0  0  0  0
    6.8569  -18.9045   17.4164 O   0  0  0  0  0  0  0  0  0  0  0  0
    7.6355  -16.8888   18.4332 C   0  0  2  0  0  0  0  0  0  0  0  0
    8.1494  -16.5704   17.1377 N   0  0  0  0  0  0  0  0  0  0  0  0
    8.4272  -16.3199   19.5342 C   0  0  0  0  0  0  0  0  0  0  0  0
    9.6700  -16.5433   19.6761 O   0  0  0  0  0  0  0  0  0  0  0  0
    7.5899  -14.0452   22.4718 C   0  0  0  0  0  0  0  0  0  0  0  0
    8.4568  -14.9799   21.6664 C   0  0  2  0  0  0  0  0  0  0  0  0
    7.7873  -15.4826   20.4875 N   0  0  0  0  0  0  0  0  0  0  0  0
    9.0054  -16.0790   22.5065 C   0  0  0  0  0  0  0  0  0  0  0  0
    8.3350  -17.1035   22.7970 O   0  0  0  0  0  0  0  0  0  0  0  0
   12.8009  -17.1012   22.3080 O   0  0  0  0  0  0  0  0  0  0  0  0
   12.4611  -16.8749   23.6301 C   0  0  0  0  0  0  0  0  0  0  0  0
   10.9493  -16.9825   23.8463 C   0  0  2  0  0  0  0  0  0  0  0  0
   10.3296  -16.0052   23.0176 N   0  0  0  0  0  0  0  0  0  0  0  0
   10.6976  -16.6686   25.2702 C   0  0  0  0  0  0  0  0  0  0  0  0
   11.1223  -17.5523   26.2385 O   0  0  0  0  0  0  0  0  0  0  0  0
   10.1071  -15.6114   25.5591 O   0  0  0  0  0  0  0  0  0  0  0  0
  2  3  1  0
  2  1  1  1
  4  2  1  0
  4  5  1  6
  6  4  1  0
  6 10  1  0
  7  6  2  0
  9  8  1  1
  9 10  1  0
  9 11  1  0
 11 12  2  0
 13 14  1  0
 15 14  1  1
 15 17  1  0
 16 11  1  0
 16 15  1  0
 17 18  1  0
 19 17  2  0
M  END
$$$$
