TAS.pdb
     RDKit          3D

 19 18  0  0  1  0  0  0  0  0999 V2000
    6.9069  -16.8705   16.9747 C   0  0  0  0  0  0  0  0  0  0  0  0
    8.1898  -17.6471   17.1233 C   0  0  1  0  0  0  0  0  0  0  0  0
    9.1880  -17.0194   16.3935 O   0  0  0  0  0  0  0  0  0  0  0  0
    8.5670  -17.6886   18.6002 C   0  0  2  0  0  0  0  0  0  0  0  0
    7.5298  -18.3433   19.3345 N   0  0  0  0  0  0  0  0  0  0  0  0
    8.9126  -16.3611   19.1302 C   0  0  0  0  0  0  0  0  0  0  0  0
   10.0905  -15.8867   19.0858 O   0  0  0  0  0  0  0  0  0  0  0  0
    6.8796  -13.4072   20.3208 C   0  0  0  0  0  0  0  0  0  0  0  0
    8.1375  -14.2346   20.2347 C   0  0  2  0  0  0  0  0  0  0  0  0
    7.8948  -15.5639   19.7203 N   0  0  0  0  0  0  0  0  0  0  0  0
    8.8638  -14.2640   21.5333 C   0  0  0  0  0  0  0  0  0  0  0  0
    9.2077  -13.2147   22.1367 O   0  0  0  0  0  0  0  0  0  0  0  0
    9.6506  -16.9065   25.4458 O   0  0  0  0  0  0  0  0  0  0  0  0
    9.0694  -16.6833   24.2101 C   0  0  0  0  0  0  0  0  0  0  0  0
    9.8571  -15.6513   23.3986 C   0  0  2  0  0  0  0  0  0  0  0  0
    9.1990  -15.5023   22.1452 N   0  0  0  0  0  0  0  0  0  0  0  0
   11.2110  -16.2117   23.1933 C   0  0  0  0  0  0  0  0  0  0  0  0
   12.1386  -16.1167   24.2080 O   0  0  0  0  0  0  0  0  0  0  0  0
   11.4796  -16.7566   22.1067 O   0  0  0  0  0  0  0  0  0  0  0  0
  2  3  1  0
  2  1  1  1
  4  2  1  0
  4  5  1  1
  6  4  1  0
  6 10  1  0
  7  6  2  0
  9  8  1  1
  9 10  1  0
  9 11  1  0
 11 12  2  0
 13 14  1  0
 15 14  1  1
 15 17  1  0
 16 11  1  0
 16 15  1  0
 17 18  1  0
 19 17  2  0
M  END
$$$$
