TAS.pdb
     RDKit          3D

 19 18  0  0  1  0  0  0  0  0999 V2000
   -4.0839  -27.1157   26.6810 C   0  0  0  0  0  0  0  0  0  0  0  0
   -3.2501  -27.5097   27.8728 C   0  0  1  0  0  0  0  0  0  0  0  0
   -2.5124  -28.6408   27.5574 O   0  0  0  0  0  0  0  0  0  0  0  0
   -2.3168  -26.3545   28.2190 C   0  0  2  0  0  0  0  0  0  0  0  0
   -1.3167  -26.8125   29.1322 N   0  0  0  0  0  0  0  0  0  0  0  0
   -3.0432  -25.1666   28.6922 C   0  0  0  0  0  0  0  0  0  0  0  0
   -3.7041  -25.1500   29.7773 O   0  0  0  0  0  0  0  0  0  0  0  0
   -3.4621  -21.6285   27.3512 C   0  0  0  0  0  0  0  0  0  0  0  0
   -3.7787  -22.7994   28.2470 C   0  0  2  0  0  0  0  0  0  0  0  0
   -3.0131  -23.9793   27.9118 N   0  0  0  0  0  0  0  0  0  0  0  0
   -5.2401  -23.0774   28.2894 C   0  0  0  0  0  0  0  0  0  0  0  0
   -5.8339  -23.7018   27.3724 O   0  0  0  0  0  0  0  0  0  0  0  0
   -8.8838  -23.9842   31.1480 O   0  0  0  0  0  0  0  0  0  0  0  0
   -7.5590  -23.6885   30.8801 C   0  0  0  0  0  0  0  0  0  0  0  0
   -7.4127  -22.9085   29.5708 C   0  0  2  0  0  0  0  0  0  0  0  0
   -6.0272  -22.6380   29.3884 N   0  0  0  0  0  0  0  0  0  0  0  0
   -8.1552  -21.6403   29.7433 C   0  0  0  0  0  0  0  0  0  0  0  0
   -9.4775  -21.5783   29.3603 O   0  0  0  0  0  0  0  0  0  0  0  0
   -7.5660  -20.6583   30.2313 O   0  0  0  0  0  0  0  0  0  0  0  0
  2  3  1  0
  2  1  1  6
  4  2  1  0
  4  5  1  1
  6  4  1  0
  6 10  1  0
  7  6  2  0
  9  8  1  6
  9 10  1  0
  9 11  1  0
 11 12  2  0
 13 14  1  0
 15 14  1  1
 15 17  1  0
 16 11  1  0
 16 15  1  0
 17 18  1  0
 19 17  2  0
M  END
$$$$
