ARY.pdb
     RDKit          3D

 29 29  0  0  1  0  0  0  0  0999 V2000
    8.0490  -12.3431   20.7668 C   0  0  0  0  0  0  0  0  0  0  0  0
    8.2910  -13.6861   20.1199 C   0  0  2  0  0  0  0  0  0  0  0  0
    7.4637  -13.7821   18.9348 N   0  0  0  0  0  0  0  0  0  0  0  0
    7.9837  -14.8190   21.0258 C   0  0  0  0  0  0  0  0  0  0  0  0
    7.0605  -15.6408   20.7921 O   0  0  0  0  0  0  0  0  0  0  0  0
    6.9551  -18.4295   18.9917 N   0  0  0  0  0  0  0  0  0  0  0  0
    8.0508  -19.1310   18.4084 C   0  0  0  0  0  0  0  0  0  0  0  0
    7.9917  -19.4805   17.1707 N   0  0  0  0  0  0  0  0  0  0  0  0
    9.1644  -19.4108   19.2341 N   0  0  0  0  0  0  0  0  0  0  0  0
    9.1349  -18.7629   20.5892 C   0  0  0  0  0  0  0  0  0  0  0  0
    9.9436  -17.5367   20.4985 C   0  0  0  0  0  0  0  0  0  0  0  0
   10.1834  -16.7640   21.7174 C   0  0  0  0  0  0  0  0  0  0  0  0
    9.1276  -16.3687   22.6796 C   0  0  2  0  0  0  0  0  0  0  0  0
    8.7377  -14.9955   22.1872 N   0  0  0  0  0  0  0  0  0  0  0  0
    9.6836  -16.0743   24.0192 C   0  0  0  0  0  0  0  0  0  0  0  0
   10.7948  -15.4668   24.2124 O   0  0  0  0  0  0  0  0  0  0  0  0
    8.7405  -20.0343   16.7394 O   0  0  0  0  0  0  0  0  0  0  0  0
    6.1048  -10.9070   25.6305 C   0  0  0  0  0  0  0  0  0  0  0  0
    6.6951  -12.0865   26.0749 C   0  0  0  0  0  0  0  0  0  0  0  0
    6.0256  -13.2697   25.8486 C   0  0  0  0  0  0  0  0  0  0  0  0
    6.6100  -14.4390   26.2877 C   0  0  0  0  0  0  0  0  0  0  0  0
    7.8320  -14.4850   26.9430 C   0  0  0  0  0  0  0  0  0  0  0  0
    8.3689  -15.7732   27.3952 C   0  0  2  0  0  0  0  0  0  0  0  0
    9.5043  -16.1967   26.5052 N   0  0  0  0  0  0  0  0  0  0  0  0
    8.9497  -16.4852   25.1765 C   0  0  0  0  0  0  0  0  0  0  0  0
   10.0823  -17.4555   27.0196 O   0  0  0  0  0  0  0  0  0  0  0  0
   10.7982  -17.4437   28.2128 C   0  0  0  0  0  0  0  0  0  0  0  0
    8.4684  -13.2998   27.1523 C   0  0  0  0  0  0  0  0  0  0  0  0
    7.9107  -12.1014   26.7240 O   0  0  0  0  0  0  0  0  0  0  0  0
  2  3  1  0
  2  1  1  1
  4  2  1  0
  5  4  2  0
  7  6  1  0
  7  9  1  0
  8  7  2  0
 10  9  1  0
 10 11  1  0
 12 11  1  0
 13 12  1  6
 13 14  1  0
 14  4  1  0
 15 24  1  0
 15 13  1  0
 16 15  2  0
 18 17  1  0
 18 28  2  0
 19 18  1  0
 20 19  2  0
 20 21  1  0
 21 27  2  0
 22 21  1  0
 23 22  1  6
 23 24  1  0
 25 23  1  0
 25 26  1  0
 27 28  1  0
 29 25  2  0
M  END
$$$$
