ARY.pdb
     RDKit          3D

 29 29  0  0  1  0  0  0  0  0999 V2000
    8.0468  -11.7609   20.0147 C   0  0  0  0  0  0  0  0  0  0  0  0
    8.3115  -13.0492   19.2724 C   0  0  2  0  0  0  0  0  0  0  0  0
    7.5337  -13.0448   18.0505 N   0  0  0  0  0  0  0  0  0  0  0  0
    7.9638  -14.2492   20.0711 C   0  0  0  0  0  0  0  0  0  0  0  0
    6.8375  -14.8048   20.0016 O   0  0  0  0  0  0  0  0  0  0  0  0
   11.6507  -20.7986   20.0728 N   0  0  0  0  0  0  0  0  0  0  0  0
   10.4926  -21.5244   20.4785 C   0  0  0  0  0  0  0  0  0  0  0  0
   10.4686  -22.8047   20.3442 N   0  0  0  0  0  0  0  0  0  0  0  0
    9.4120  -20.7875   21.0167 N   0  0  0  0  0  0  0  0  0  0  0  0
    9.1624  -19.4542   20.3710 C   0  0  0  0  0  0  0  0  0  0  0  0
    9.7991  -18.4368   21.2227 C   0  0  0  0  0  0  0  0  0  0  0  0
    9.5973  -17.0248   20.8973 C   0  0  0  0  0  0  0  0  0  0  0  0
    8.6820  -16.1189   21.6309 C   0  0  2  0  0  0  0  0  0  0  0  0
    8.9105  -14.7966   20.9385 N   0  0  0  0  0  0  0  0  0  0  0  0
    9.1629  -15.8406   23.0027 C   0  0  0  0  0  0  0  0  0  0  0  0
   10.2489  -15.2136   23.2643 O   0  0  0  0  0  0  0  0  0  0  0  0
    9.6439  -23.3515   20.6165 O   0  0  0  0  0  0  0  0  0  0  0  0
    6.3106  -10.3224   26.3162 C   0  0  0  0  0  0  0  0  0  0  0  0
    6.6955  -11.6599   26.3246 C   0  0  0  0  0  0  0  0  0  0  0  0
    5.7048  -12.6178   26.3082 C   0  0  0  0  0  0  0  0  0  0  0  0
    6.0851  -13.9434   26.3157 C   0  0  0  0  0  0  0  0  0  0  0  0
    7.4083  -14.3600   26.3389 C   0  0  0  0  0  0  0  0  0  0  0  0
    7.7212  -15.7931   26.3675 C   0  0  2  0  0  0  0  0  0  0  0  0
    8.8945  -16.0800   25.4721 N   0  0  0  0  0  0  0  0  0  0  0  0
    8.3809  -16.2913   24.1128 C   0  0  0  0  0  0  0  0  0  0  0  0
    9.5343  -17.3420   25.8980 O   0  0  0  0  0  0  0  0  0  0  0  0
    9.4721  -18.4564   25.0670 C   0  0  0  0  0  0  0  0  0  0  0  0
    8.3636  -13.3902   26.3553 C   0  0  0  0  0  0  0  0  0  0  0  0
    8.0188  -12.0442   26.3484 O   0  0  0  0  0  0  0  0  0  0  0  0
  2  3  1  0
  2  1  1  1
  4  2  1  0
  5  4  2  0
  7  6  1  0
  7  9  1  0
  8  7  2  0
 10  9  1  0
 10 11  1  0
 12 11  1  0
 13 12  1  6
 13 14  1  0
 14  4  1  0
 15 24  1  0
 15 13  1  0
 16 15  2  0
 18 17  1  0
 18 28  2  0
 19 18  1  0
 20 19  2  0
 20 21  1  0
 21 27  2  0
 22 21  1  0
 23 22  1  6
 23 24  1  0
 25 23  1  0
 25 26  1  0
 27 28  1  0
 29 25  2  0
M  END
$$$$
