ARY.pdb
     RDKit          3D

 29 29  0  0  1  0  0  0  0  0999 V2000
   13.8442  -14.8724   19.5995 C   0  0  0  0  0  0  0  0  0  0  0  0
   13.1604  -15.7454   20.6247 C   0  0  2  0  0  0  0  0  0  0  0  0
   12.6618  -16.9319   19.9600 N   0  0  0  0  0  0  0  0  0  0  0  0
   12.0374  -15.0549   21.3036 C   0  0  0  0  0  0  0  0  0  0  0  0
   12.1843  -13.9663   21.9165 O   0  0  0  0  0  0  0  0  0  0  0  0
    7.7278  -15.0392   17.1002 N   0  0  0  0  0  0  0  0  0  0  0  0
    7.7488  -13.6288   16.8928 C   0  0  0  0  0  0  0  0  0  0  0  0
    7.9766  -13.1657   15.7133 N   0  0  0  0  0  0  0  0  0  0  0  0
    7.5142  -12.7978   18.0130 N   0  0  0  0  0  0  0  0  0  0  0  0
    7.2690  -13.5217   19.3064 C   0  0  0  0  0  0  0  0  0  0  0  0
    8.4957  -14.2719   19.6197 C   0  0  0  0  0  0  0  0  0  0  0  0
    8.5363  -15.0670   20.8472 C   0  0  0  0  0  0  0  0  0  0  0  0
    9.5725  -14.9323   21.8983 C   0  0  2  0  0  0  0  0  0  0  0  0
   10.7616  -15.6202   21.2715 N   0  0  0  0  0  0  0  0  0  0  0  0
    9.2905  -15.7973   23.0657 C   0  0  0  0  0  0  0  0  0  0  0  0
    9.7483  -16.9862   23.1995 O   0  0  0  0  0  0  0  0  0  0  0  0
    8.0327  -12.1554   15.5415 O   0  0  0  0  0  0  0  0  0  0  0  0
   11.9520  -14.0687   29.7490 C   0  0  0  0  0  0  0  0  0  0  0  0
   10.8736  -14.3386   28.9116 C   0  0  0  0  0  0  0  0  0  0  0  0
   10.5240  -15.6567   28.7122 C   0  0  0  0  0  0  0  0  0  0  0  0
    9.4550  -15.9252   27.8833 C   0  0  0  0  0  0  0  0  0  0  0  0
    8.7170  -14.9405   27.2425 C   0  0  0  0  0  0  0  0  0  0  0  0
    7.6079  -15.3187   26.3599 C   0  0  2  0  0  0  0  0  0  0  0  0
    8.1169  -16.1766   25.2351 N   0  0  0  0  0  0  0  0  0  0  0  0
    8.4598  -15.2913   24.1148 C   0  0  0  0  0  0  0  0  0  0  0  0
    7.0317  -17.0661   24.7720 O   0  0  0  0  0  0  0  0  0  0  0  0
    6.4441  -16.8416   23.5307 C   0  0  0  0  0  0  0  0  0  0  0  0
    9.0873  -13.6484   27.4589 C   0  0  0  0  0  0  0  0  0  0  0  0
   10.1589  -13.3391   28.2876 O   0  0  0  0  0  0  0  0  0  0  0  0
  2  3  1  0
  2  1  1  6
  4  2  1  0
  5  4  2  0
  7  6  1  0
  7  9  1  0
  8  7  2  0
 10  9  1  0
 10 11  1  0
 12 11  1  0
 13 12  1  6
 13 14  1  0
 14  4  1  0
 15 24  1  0
 15 13  1  0
 16 15  2  0
 18 17  1  0
 18 28  2  0
 19 18  1  0
 20 19  2  0
 20 21  1  0
 21 27  2  0
 22 21  1  0
 23 22  1  1
 23 24  1  0
 25 23  1  0
 25 26  1  0
 27 28  1  0
 29 25  2  0
M  END
$$$$
