ARY.pdb
     RDKit          3D

 29 29  0  0  1  0  0  0  0  0999 V2000
    8.1059  -11.8617   20.5724 C   0  0  0  0  0  0  0  0  0  0  0  0
    8.3169  -13.1781   19.8630 C   0  0  2  0  0  0  0  0  0  0  0  0
    7.3994  -13.2508   18.7446 N   0  0  0  0  0  0  0  0  0  0  0  0
    8.1011  -14.3455   20.7514 C   0  0  0  0  0  0  0  0  0  0  0  0
    7.0071  -14.9644   20.8013 O   0  0  0  0  0  0  0  0  0  0  0  0
   14.7320  -17.0792   19.2161 N   0  0  0  0  0  0  0  0  0  0  0  0
   14.0260  -15.8494   19.0687 C   0  0  0  0  0  0  0  0  0  0  0  0
   14.6356  -14.8235   18.5853 N   0  0  0  0  0  0  0  0  0  0  0  0
   12.6694  -15.8201   19.4679 N   0  0  0  0  0  0  0  0  0  0  0  0
   12.1952  -17.0362   20.2117 C   0  0  0  0  0  0  0  0  0  0  0  0
   11.4770  -16.5590   21.4044 C   0  0  0  0  0  0  0  0  0  0  0  0
   10.0706  -16.9269   21.5690 C   0  0  0  0  0  0  0  0  0  0  0  0
    9.0710  -16.1102   22.2973 C   0  0  2  0  0  0  0  0  0  0  0  0
    9.1407  -14.7883   21.5708 N   0  0  0  0  0  0  0  0  0  0  0  0
    9.5379  -15.7464   23.6538 C   0  0  0  0  0  0  0  0  0  0  0  0
   10.5272  -14.9651   23.8819 O   0  0  0  0  0  0  0  0  0  0  0  0
   14.1550  -13.9232   18.4766 O   0  0  0  0  0  0  0  0  0  0  0  0
    5.6980  -10.8615   25.3791 C   0  0  0  0  0  0  0  0  0  0  0  0
    6.2665  -12.0720   25.7645 C   0  0  0  0  0  0  0  0  0  0  0  0
    7.4275  -12.0340   26.5062 C   0  0  0  0  0  0  0  0  0  0  0  0
    7.9911  -13.2329   26.8893 C   0  0  0  0  0  0  0  0  0  0  0  0
    7.4517  -14.4699   26.5673 C   0  0  0  0  0  0  0  0  0  0  0  0
    8.1313  -15.6964   26.9987 C   0  0  2  0  0  0  0  0  0  0  0  0
    9.3344  -15.9480   26.1328 N   0  0  0  0  0  0  0  0  0  0  0  0
    8.8557  -16.2905   24.7875 C   0  0  0  0  0  0  0  0  0  0  0  0
   10.0673  -17.1232   26.6476 O   0  0  0  0  0  0  0  0  0  0  0  0
   10.1725  -18.2648   25.8588 C   0  0  0  0  0  0  0  0  0  0  0  0
    6.3051  -14.4744   25.8333 C   0  0  0  0  0  0  0  0  0  0  0  0
    5.7081  -13.2865   25.4293 O   0  0  0  0  0  0  0  0  0  0  0  0
  2  3  1  0
  2  1  1  1
  4  2  1  0
  5  4  2  0
  7  6  1  0
  7  9  1  0
  8  7  2  0
 10  9  1  0
 10 11  1  0
 12 11  1  0
 13 12  1  6
 13 14  1  0
 14  4  1  0
 15 24  1  0
 15 13  1  0
 16 15  2  0
 18 17  1  0
 18 28  2  0
 19 18  1  0
 20 19  2  0
 20 21  1  0
 21 27  2  0
 22 21  1  0
 23 22  1  6
 23 24  1  0
 25 23  1  0
 25 26  1  0
 27 28  1  0
 29 25  2  0
M  END
$$$$
