ARY.pdb
     RDKit          3D

 29 29  0  0  1  0  0  0  0  0999 V2000
    8.6347  -19.8469   20.2843 C   0  0  0  0  0  0  0  0  0  0  0  0
    8.7843  -19.3561   21.7047 C   0  0  2  0  0  0  0  0  0  0  0  0
    7.5031  -19.4745   22.3701 N   0  0  0  0  0  0  0  0  0  0  0  0
    9.2460  -17.9488   21.7759 C   0  0  0  0  0  0  0  0  0  0  0  0
   10.3618  -17.5796   21.3279 O   0  0  0  0  0  0  0  0  0  0  0  0
    9.0130  -12.2217   17.6045 N   0  0  0  0  0  0  0  0  0  0  0  0
    8.2003  -13.2984   17.1429 C   0  0  0  0  0  0  0  0  0  0  0  0
    8.0894  -13.5105   15.8778 N   0  0  0  0  0  0  0  0  0  0  0  0
    7.5473  -14.0908   18.1155 N   0  0  0  0  0  0  0  0  0  0  0  0
    8.0690  -13.9429   19.5166 C   0  0  0  0  0  0  0  0  0  0  0  0
    7.2455  -14.8076   20.3768 C   0  0  0  0  0  0  0  0  0  0  0  0
    7.5663  -14.8875   21.8019 C   0  0  0  0  0  0  0  0  0  0  0  0
    8.7899  -15.5185   22.3508 C   0  0  2  0  0  0  0  0  0  0  0  0
    8.4236  -16.9834   22.3591 N   0  0  0  0  0  0  0  0  0  0  0  0
    8.9604  -15.2308   23.7925 C   0  0  0  0  0  0  0  0  0  0  0  0
    8.5015  -14.1833   24.3698 O   0  0  0  0  0  0  0  0  0  0  0  0
    7.5026  -14.2712   15.5168 O   0  0  0  0  0  0  0  0  0  0  0  0
    5.4708  -11.2352   26.3848 C   0  0  0  0  0  0  0  0  0  0  0  0
    6.2147  -12.4098   26.4472 C   0  0  0  0  0  0  0  0  0  0  0  0
    5.5903  -13.5895   26.1042 C   0  0  0  0  0  0  0  0  0  0  0  0
    6.3268  -14.7539   26.1648 C   0  0  0  0  0  0  0  0  0  0  0  0
    7.6584  -14.7981   26.5520 C   0  0  0  0  0  0  0  0  0  0  0  0
    8.3589  -16.0859   26.6088 C   0  0  2  0  0  0  0  0  0  0  0  0
    9.7477  -15.9394   26.0520 N   0  0  0  0  0  0  0  0  0  0  0  0
    9.6770  -16.1669   24.6030 C   0  0  0  0  0  0  0  0  0  0  0  0
   10.6127  -16.9954   26.6178 O   0  0  0  0  0  0  0  0  0  0  0  0
   10.8875  -16.9984   27.9819 C   0  0  0  0  0  0  0  0  0  0  0  0
    8.2468  -13.6166   26.8854 C   0  0  0  0  0  0  0  0  0  0  0  0
    7.5367  -12.4232   26.8363 O   0  0  0  0  0  0  0  0  0  0  0  0
  2  3  1  0
  2  1  1  6
  4  2  1  0
  5  4  2  0
  7  6  1  0
  7  9  1  0
  8  7  2  0
 10  9  1  0
 10 11  1  0
 12 11  1  0
 13 12  1  1
 13 14  1  0
 14  4  1  0
 15 24  1  0
 15 13  1  0
 16 15  2  0
 18 17  1  0
 18 28  2  0
 19 18  1  0
 20 19  2  0
 20 21  1  0
 21 27  2  0
 22 21  1  0
 23 22  1  6
 23 24  1  0
 25 23  1  0
 25 26  1  0
 27 28  1  0
 29 25  2  0
M  END
$$$$
