ARY.pdb
     RDKit          3D

 29 29  0  0  1  0  0  0  0  0999 V2000
    6.1203  -19.6772   25.3142 C   0  0  0  0  0  0  0  0  0  0  0  0
    6.1376  -19.5626   23.8084 C   0  0  2  0  0  0  0  0  0  0  0  0
    6.3099  -20.8870   23.2477 N   0  0  0  0  0  0  0  0  0  0  0  0
    7.2203  -18.6769   23.3164 C   0  0  0  0  0  0  0  0  0  0  0  0
    8.3616  -19.1090   23.0118 O   0  0  0  0  0  0  0  0  0  0  0  0
    8.6101  -14.4699   16.4667 N   0  0  0  0  0  0  0  0  0  0  0  0
    8.1968  -13.7695   17.6378 C   0  0  0  0  0  0  0  0  0  0  0  0
    7.9757  -12.5028   17.5729 N   0  0  0  0  0  0  0  0  0  0  0  0
    8.0486  -14.5158   18.8301 N   0  0  0  0  0  0  0  0  0  0  0  0
    7.3754  -13.7895   19.9599 C   0  0  0  0  0  0  0  0  0  0  0  0
    7.9877  -14.2721   21.2081 C   0  0  0  0  0  0  0  0  0  0  0  0
    7.3537  -15.3854   21.9145 C   0  0  0  0  0  0  0  0  0  0  0  0
    8.0755  -16.3475   22.7806 C   0  0  2  0  0  0  0  0  0  0  0  0
    6.9814  -17.3084   23.1800 N   0  0  0  0  0  0  0  0  0  0  0  0
    8.4527  -15.7460   24.0792 C   0  0  0  0  0  0  0  0  0  0  0  0
    8.0506  -14.5963   24.4763 O   0  0  0  0  0  0  0  0  0  0  0  0
    7.7487  -11.9600   18.4138 O   0  0  0  0  0  0  0  0  0  0  0  0
    5.8049  -10.8986   26.1712 C   0  0  0  0  0  0  0  0  0  0  0  0
    6.4810  -12.0992   26.3677 C   0  0  0  0  0  0  0  0  0  0  0  0
    6.9696  -12.3672   27.6282 C   0  0  0  0  0  0  0  0  0  0  0  0
    7.6389  -13.5569   27.8242 C   0  0  0  0  0  0  0  0  0  0  0  0
    7.8448  -14.4936   26.8216 C   0  0  0  0  0  0  0  0  0  0  0  0
    8.5879  -15.7241   27.1147 C   0  0  2  0  0  0  0  0  0  0  0  0
    9.7720  -15.8397   26.1954 N   0  0  0  0  0  0  0  0  0  0  0  0
    9.3161  -16.4781   24.9540 C   0  0  0  0  0  0  0  0  0  0  0  0
   10.7753  -16.7372   26.8046 O   0  0  0  0  0  0  0  0  0  0  0  0
   11.1025  -17.9311   26.1692 C   0  0  0  0  0  0  0  0  0  0  0  0
    7.3509  -14.1997   25.5874 C   0  0  0  0  0  0  0  0  0  0  0  0
    6.6711  -13.0110   25.3519 O   0  0  0  0  0  0  0  0  0  0  0  0
  2  3  1  0
  2  1  1  1
  4  2  1  0
  5  4  2  0
  7  6  1  0
  7  9  1  0
  8  7  2  0
 10  9  1  0
 10 11  1  0
 12 11  1  0
 13 12  1  6
 13 14  1  0
 14  4  1  0
 15 24  1  0
 15 13  1  0
 16 15  2  0
 18 17  1  0
 18 28  2  0
 19 18  1  0
 20 19  2  0
 20 21  1  0
 21 27  2  0
 22 21  1  0
 23 22  1  6
 23 24  1  0
 25 23  1  0
 25 26  1  0
 27 28  1  0
 29 25  2  0
M  END
$$$$
