ARY.pdb
     RDKit          3D

 29 29  0  0  1  0  0  0  0  0999 V2000
    8.7622  -12.2361   19.2219 C   0  0  0  0  0  0  0  0  0  0  0  0
    8.7125  -13.5770   18.5288 C   0  0  2  0  0  0  0  0  0  0  0  0
    7.8045  -13.4808   17.4044 N   0  0  0  0  0  0  0  0  0  0  0  0
    8.2656  -14.6676   19.4286 C   0  0  0  0  0  0  0  0  0  0  0  0
    7.0513  -14.9452   19.6035 O   0  0  0  0  0  0  0  0  0  0  0  0
    8.7497  -21.4330   20.6074 N   0  0  0  0  0  0  0  0  0  0  0  0
    9.6203  -21.7777   21.6826 C   0  0  0  0  0  0  0  0  0  0  0  0
    9.2793  -22.7140   22.4979 N   0  0  0  0  0  0  0  0  0  0  0  0
   10.8338  -21.0607   21.7994 N   0  0  0  0  0  0  0  0  0  0  0  0
   10.9456  -19.8453   20.9234 C   0  0  0  0  0  0  0  0  0  0  0  0
    9.9354  -18.8826   21.3910 C   0  0  0  0  0  0  0  0  0  0  0  0
    9.7930  -17.6141   20.6763 C   0  0  0  0  0  0  0  0  0  0  0  0
    8.8157  -16.5578   21.0314 C   0  0  2  0  0  0  0  0  0  0  0  0
    9.2152  -15.4254   20.1159 N   0  0  0  0  0  0  0  0  0  0  0  0
    9.0824  -15.9864   22.3703 C   0  0  0  0  0  0  0  0  0  0  0  0
   10.0771  -15.2237   22.6350 O   0  0  0  0  0  0  0  0  0  0  0  0
    9.8680  -22.9574   23.3026 O   0  0  0  0  0  0  0  0  0  0  0  0
    6.1064  -10.8496   28.5516 C   0  0  0  0  0  0  0  0  0  0  0  0
    6.3588  -11.6929   27.4735 C   0  0  0  0  0  0  0  0  0  0  0  0
    5.3904  -12.6115   27.1307 C   0  0  0  0  0  0  0  0  0  0  0  0
    5.6392  -13.4470   26.0621 C   0  0  0  0  0  0  0  0  0  0  0  0
    6.8096  -13.4103   25.3180 C   0  0  0  0  0  0  0  0  0  0  0  0
    6.9990  -14.3527   24.2097 C   0  0  1  0  0  0  0  0  0  0  0  0
    8.0699  -15.3481   24.5600 N   0  0  0  0  0  0  0  0  0  0  0  0
    8.1868  -16.2938   23.4427 C   0  0  0  0  0  0  0  0  0  0  0  0
    7.6456  -16.1226   25.7447 O   0  0  0  0  0  0  0  0  0  0  0  0
    6.6137  -17.0484   25.6247 C   0  0  0  0  0  0  0  0  0  0  0  0
    7.7471  -12.4926   25.6817 C   0  0  0  0  0  0  0  0  0  0  0  0
    7.5319  -11.6339   26.7527 O   0  0  0  0  0  0  0  0  0  0  0  0
  2  3  1  0
  2  1  1  1
  4  2  1  0
  5  4  2  0
  7  6  1  0
  7  9  1  0
  8  7  2  0
 10  9  1  0
 10 11  1  0
 12 11  1  0
 13 12  1  6
 13 14  1  0
 14  4  1  0
 15 24  1  0
 15 13  1  0
 16 15  2  0
 18 17  1  0
 18 28  2  0
 19 18  1  0
 20 19  2  0
 20 21  1  0
 21 27  2  0
 22 21  1  0
 23 22  1  6
 23 24  1  0
 25 23  1  0
 25 26  1  0
 27 28  1  0
 29 25  2  0
M  END
$$$$
