ARY.pdb
     RDKit          3D

 29 29  0  0  1  0  0  0  0  0999 V2000
    6.9803  -19.7044   24.5216 C   0  0  0  0  0  0  0  0  0  0  0  0
    7.0133  -19.3457   23.0550 C   0  0  2  0  0  0  0  0  0  0  0  0
    7.3543  -20.5327   22.2982 N   0  0  0  0  0  0  0  0  0  0  0  0
    7.9912  -18.2730   22.7523 C   0  0  0  0  0  0  0  0  0  0  0  0
    9.1890  -18.5143   22.4537 O   0  0  0  0  0  0  0  0  0  0  0  0
    9.3246  -14.5431   18.3699 N   0  0  0  0  0  0  0  0  0  0  0  0
    8.3310  -13.6358   17.8983 C   0  0  0  0  0  0  0  0  0  0  0  0
    8.6572  -12.7257   17.0481 N   0  0  0  0  0  0  0  0  0  0  0  0
    7.0162  -13.7858   18.3977 N   0  0  0  0  0  0  0  0  0  0  0  0
    6.8777  -13.6456   19.8870 C   0  0  0  0  0  0  0  0  0  0  0  0
    7.8293  -14.5868   20.4989 C   0  0  0  0  0  0  0  0  0  0  0  0
    7.7932  -14.7756   21.9492 C   0  0  0  0  0  0  0  0  0  0  0  0
    8.5728  -15.8029   22.6797 C   0  0  2  0  0  0  0  0  0  0  0  0
    7.5843  -16.9384   22.7957 N   0  0  0  0  0  0  0  0  0  0  0  0
    8.7877  -15.4297   24.0957 C   0  0  0  0  0  0  0  0  0  0  0  0
    8.3880  -14.3271   24.6111 O   0  0  0  0  0  0  0  0  0  0  0  0
    7.9708  -12.0384   16.7169 O   0  0  0  0  0  0  0  0  0  0  0  0
    6.6909  -10.4548   26.1578 C   0  0  0  0  0  0  0  0  0  0  0  0
    7.0456  -11.7877   26.3442 C   0  0  0  0  0  0  0  0  0  0  0  0
    8.2602  -12.0567   26.9372 C   0  0  0  0  0  0  0  0  0  0  0  0
    8.6122  -13.3771   27.1231 C   0  0  0  0  0  0  0  0  0  0  0  0
    7.8095  -14.4438   26.7451 C   0  0  0  0  0  0  0  0  0  0  0  0
    8.2740  -15.8184   26.9616 C   0  0  2  0  0  0  0  0  0  0  0  0
    9.6447  -15.9960   26.3699 N   0  0  0  0  0  0  0  0  0  0  0  0
    9.4806  -16.3422   24.9523 C   0  0  0  0  0  0  0  0  0  0  0  0
   10.3126  -17.1402   27.0241 O   0  0  0  0  0  0  0  0  0  0  0  0
   10.6845  -17.0435   28.3615 C   0  0  0  0  0  0  0  0  0  0  0  0
    6.6163  -14.1457   26.1615 C   0  0  0  0  0  0  0  0  0  0  0  0
    6.2275  -12.8273   25.9578 O   0  0  0  0  0  0  0  0  0  0  0  0
  2  3  1  0
  2  1  1  1
  4  2  1  0
  5  4  2  0
  7  6  1  0
  7  9  1  0
  8  7  2  0
 10  9  1  0
 10 11  1  0
 12 11  1  0
 13 12  1  6
 13 14  1  0
 14  4  1  0
 15 24  1  0
 15 13  1  0
 16 15  2  0
 18 17  1  0
 18 28  2  0
 19 18  1  0
 20 19  2  0
 20 21  1  0
 21 27  2  0
 22 21  1  0
 23 22  1  6
 23 24  1  0
 25 23  1  0
 25 26  1  0
 27 28  1  0
 29 25  2  0
M  END
$$$$
