ARY.pdb
     RDKit          3D

 29 29  0  0  1  0  0  0  0  0999 V2000
    7.9833  -12.2164   20.0942 C   0  0  0  0  0  0  0  0  0  0  0  0
    8.2053  -13.4681   19.2789 C   0  0  2  0  0  0  0  0  0  0  0  0
    7.1823  -13.5388   18.2559 N   0  0  0  0  0  0  0  0  0  0  0  0
    8.1613  -14.7003   20.1027 C   0  0  0  0  0  0  0  0  0  0  0  0
    7.1502  -15.4470   20.1491 O   0  0  0  0  0  0  0  0  0  0  0  0
   13.0136  -17.2971   18.5439 N   0  0  0  0  0  0  0  0  0  0  0  0
   12.2725  -18.4642   18.1955 C   0  0  0  0  0  0  0  0  0  0  0  0
   12.0267  -18.7114   16.9561 N   0  0  0  0  0  0  0  0  0  0  0  0
   11.8388  -19.3040   19.2477 N   0  0  0  0  0  0  0  0  0  0  0  0
   12.2322  -18.8565   20.6268 C   0  0  0  0  0  0  0  0  0  0  0  0
   11.0108  -18.3671   21.2860 C   0  0  0  0  0  0  0  0  0  0  0  0
   10.5260  -17.0267   20.9562 C   0  0  0  0  0  0  0  0  0  0  0  0
    9.3488  -16.3834   21.5865 C   0  0  2  0  0  0  0  0  0  0  0  0
    9.2757  -15.0605   20.8622 N   0  0  0  0  0  0  0  0  0  0  0  0
    9.6282  -15.9630   22.9778 C   0  0  0  0  0  0  0  0  0  0  0  0
   10.6433  -15.2607   23.3204 O   0  0  0  0  0  0  0  0  0  0  0  0
   11.6139  -19.6048   16.6649 O   0  0  0  0  0  0  0  0  0  0  0  0
    6.2102  -10.2878   26.0875 C   0  0  0  0  0  0  0  0  0  0  0  0
    6.6154  -11.6193   26.0816 C   0  0  0  0  0  0  0  0  0  0  0  0
    5.6450  -12.5909   26.1979 C   0  0  0  0  0  0  0  0  0  0  0  0
    6.0453  -13.9106   26.1914 C   0  0  0  0  0  0  0  0  0  0  0  0
    7.3694  -14.3082   26.0745 C   0  0  0  0  0  0  0  0  0  0  0  0
    7.7069  -15.7357   26.0989 C   0  0  2  0  0  0  0  0  0  0  0  0
    9.0165  -15.9654   25.3971 N   0  0  0  0  0  0  0  0  0  0  0  0
    8.7216  -16.3556   24.0125 C   0  0  0  0  0  0  0  0  0  0  0  0
    9.7157  -17.1022   26.0313 O   0  0  0  0  0  0  0  0  0  0  0  0
    9.8895  -18.2842   25.3179 C   0  0  0  0  0  0  0  0  0  0  0  0
    8.3045  -13.3252   25.9620 C   0  0  0  0  0  0  0  0  0  0  0  0
    7.9391  -11.9847   25.9646 O   0  0  0  0  0  0  0  0  0  0  0  0
  2  3  1  0
  2  1  1  1
  4  2  1  0
  5  4  2  0
  7  6  1  0
  7  9  1  0
  8  7  2  0
 10  9  1  0
 10 11  1  0
 12 11  1  0
 13 12  1  6
 13 14  1  0
 14  4  1  0
 15 24  1  0
 15 13  1  0
 16 15  2  0
 18 17  1  0
 18 28  2  0
 19 18  1  0
 20 19  2  0
 20 21  1  0
 21 27  2  0
 22 21  1  0
 23 22  1  6
 23 24  1  0
 25 23  1  0
 25 26  1  0
 27 28  1  0
 29 25  2  0
M  END
$$$$
