ARY.pdb
     RDKit          3D

 29 29  0  0  1  0  0  0  0  0999 V2000
    8.0291  -11.7824   20.4061 C   0  0  0  0  0  0  0  0  0  0  0  0
    8.2159  -13.0591   19.6212 C   0  0  2  0  0  0  0  0  0  0  0  0
    7.1706  -13.1423   18.6219 N   0  0  0  0  0  0  0  0  0  0  0  0
    8.1716  -14.2676   20.4794 C   0  0  0  0  0  0  0  0  0  0  0  0
    7.1116  -14.9127   20.6849 O   0  0  0  0  0  0  0  0  0  0  0  0
   14.7923  -19.2544   21.2783 N   0  0  0  0  0  0  0  0  0  0  0  0
   13.8312  -20.3074   21.2639 C   0  0  0  0  0  0  0  0  0  0  0  0
   14.2208  -21.5224   21.4356 N   0  0  0  0  0  0  0  0  0  0  0  0
   12.4766  -19.9560   21.0584 N   0  0  0  0  0  0  0  0  0  0  0  0
   12.2428  -18.5376   20.6220 C   0  0  0  0  0  0  0  0  0  0  0  0
   11.0787  -18.0417   21.3735 C   0  0  0  0  0  0  0  0  0  0  0  0
   10.5871  -16.6925   21.0936 C   0  0  0  0  0  0  0  0  0  0  0  0
    9.4162  -16.0731   21.7584 C   0  0  2  0  0  0  0  0  0  0  0  0
    9.3419  -14.7209   21.0905 N   0  0  0  0  0  0  0  0  0  0  0  0
    9.7064  -15.7119   23.1640 C   0  0  0  0  0  0  0  0  0  0  0  0
   10.5860  -14.8477   23.5113 O   0  0  0  0  0  0  0  0  0  0  0  0
   13.5570  -22.3039   21.3904 O   0  0  0  0  0  0  0  0  0  0  0  0
    6.0588  -10.6883   25.9283 C   0  0  0  0  0  0  0  0  0  0  0  0
    6.5129  -12.0004   26.0245 C   0  0  0  0  0  0  0  0  0  0  0  0
    7.6859  -12.2299   26.7106 C   0  0  0  0  0  0  0  0  0  0  0  0
    8.1363  -13.5297   26.8072 C   0  0  0  0  0  0  0  0  0  0  0  0
    7.4718  -14.6134   26.2513 C   0  0  0  0  0  0  0  0  0  0  0  0
    8.0358  -15.9612   26.3846 C   0  0  2  0  0  0  0  0  0  0  0  0
    9.3170  -16.0607   25.6041 N   0  0  0  0  0  0  0  0  0  0  0  0
    8.9707  -16.3563   24.2081 C   0  0  0  0  0  0  0  0  0  0  0  0
   10.1069  -17.2029   26.1090 O   0  0  0  0  0  0  0  0  0  0  0  0
   10.7681  -17.0932   27.3285 C   0  0  0  0  0  0  0  0  0  0  0  0
    6.3165  -14.3543   25.5793 C   0  0  0  0  0  0  0  0  0  0  0  0
    5.8315  -13.0576   25.4612 O   0  0  0  0  0  0  0  0  0  0  0  0
  2  3  1  0
  2  1  1  1
  4  2  1  0
  5  4  2  0
  7  6  1  0
  7  9  1  0
  8  7  2  0
 10  9  1  0
 10 11  1  0
 12 11  1  0
 13 12  1  6
 13 14  1  0
 14  4  1  0
 15 24  1  0
 15 13  1  0
 16 15  2  0
 18 17  1  0
 18 28  2  0
 19 18  1  0
 20 19  2  0
 20 21  1  0
 21 27  2  0
 22 21  1  0
 23 22  1  6
 23 24  1  0
 25 23  1  0
 25 26  1  0
 27 28  1  0
 29 25  2  0
M  END
$$$$
