TSL.pdb
     RDKit          3D

 22 21  0  0  1  0  0  0  0  0999 V2000
    8.9755  -12.3371   20.0641 C   0  0  0  0  0  0  0  0  0  0  0  0
    8.4422  -13.0306   18.8493 C   0  0  1  0  0  0  0  0  0  0  0  0
    8.9696  -12.5117   17.6735 O   0  0  0  0  0  0  0  0  0  0  0  0
    8.6800  -14.5229   18.8791 C   0  0  2  0  0  0  0  0  0  0  0  0
    8.0344  -15.0732   17.7076 N   0  0  0  0  0  0  0  0  0  0  0  0
    8.1357  -15.1743   20.0841 C   0  0  0  0  0  0  0  0  0  0  0  0
    6.8914  -15.2666   20.2160 O   0  0  0  0  0  0  0  0  0  0  0  0
   10.1315  -17.9290   22.2012 O   0  0  0  0  0  0  0  0  0  0  0  0
    8.7684  -17.7937   22.3462 C   0  0  0  0  0  0  0  0  0  0  0  0
    8.3419  -16.3202   22.3182 C   0  0  2  0  0  0  0  0  0  0  0  0
    8.9263  -15.7193   21.1333 N   0  0  0  0  0  0  0  0  0  0  0  0
    8.8159  -15.6821   23.5619 C   0  0  0  0  0  0  0  0  0  0  0  0
   10.0264  -15.3142   23.5835 O   0  0  0  0  0  0  0  0  0  0  0  0
    8.0408  -11.8867   25.9525 C   0  0  0  0  0  0  0  0  0  0  0  0
    6.9762  -12.9429   26.1591 C   0  0  2  0  0  0  0  0  0  0  0  0
    5.7372  -12.3332   26.6745 C   0  0  0  0  0  0  0  0  0  0  0  0
    7.4417  -14.2244   26.6970 C   0  0  0  0  0  0  0  0  0  0  0  0
    8.5241  -14.9317   25.9726 C   0  0  2  0  0  0  0  0  0  0  0  0
    8.0084  -15.4672   24.6989 N   0  0  0  0  0  0  0  0  0  0  0  0
    9.0309  -16.0732   26.7138 C   0  0  0  0  0  0  0  0  0  0  0  0
   10.0178  -15.9833   27.6663 O   0  0  0  0  0  0  0  0  0  0  0  0
    8.5692  -17.2176   26.4937 O   0  0  0  0  0  0  0  0  0  0  0  0
  2  1  1  1
  2  3  1  0
  4  5  1  6
  4  2  1  0
  6  4  1  0
  6  7  2  0
  9  8  1  0
 10  9  1  1
 10 11  1  0
 10 12  1  0
 11  6  1  0
 12 13  2  0
 12 19  1  0
 15 16  1  1
 15 14  1  0
 17 15  1  0
 18 17  1  1
 19 18  1  0
 20 18  1  0
 20 21  1  0
 22 20  2  0
M  END
$$$$
