TSL.pdb
     RDKit          3D

 22 21  0  0  1  0  0  0  0  0999 V2000
    9.6763  -12.3672   19.9889 C   0  0  0  0  0  0  0  0  0  0  0  0
    9.0310  -12.9453   18.7681 C   0  0  1  0  0  0  0  0  0  0  0  0
    9.6197  -12.4883   17.5957 O   0  0  0  0  0  0  0  0  0  0  0  0
    9.0382  -14.4568   18.7659 C   0  0  2  0  0  0  0  0  0  0  0  0
    8.3506  -14.8770   17.5648 N   0  0  0  0  0  0  0  0  0  0  0  0
    8.3665  -15.0429   19.9398 C   0  0  0  0  0  0  0  0  0  0  0  0
    7.1156  -14.9841   20.0169 O   0  0  0  0  0  0  0  0  0  0  0  0
   10.0181  -17.9093   22.3767 O   0  0  0  0  0  0  0  0  0  0  0  0
    8.6607  -17.6906   22.2945 C   0  0  0  0  0  0  0  0  0  0  0  0
    8.3363  -16.1954   22.1798 C   0  0  2  0  0  0  0  0  0  0  0  0
    9.0383  -15.6847   21.0166 N   0  0  0  0  0  0  0  0  0  0  0  0
    8.7666  -15.5359   23.4282 C   0  0  0  0  0  0  0  0  0  0  0  0
    9.9717  -15.1536   23.4800 O   0  0  0  0  0  0  0  0  0  0  0  0
    7.8655  -11.7560   25.6295 C   0  0  0  0  0  0  0  0  0  0  0  0
    6.8118  -12.8061   25.9096 C   0  0  2  0  0  0  0  0  0  0  0  0
    5.5775  -12.1777   26.4134 C   0  0  0  0  0  0  0  0  0  0  0  0
    7.2952  -14.0547   26.5062 C   0  0  0  0  0  0  0  0  0  0  0  0
    8.3989  -14.7709   25.8238 C   0  0  2  0  0  0  0  0  0  0  0  0
    7.9240  -15.3159   24.5384 N   0  0  0  0  0  0  0  0  0  0  0  0
    8.8778  -15.9073   26.5910 C   0  0  0  0  0  0  0  0  0  0  0  0
    9.6992  -15.7923   27.6871 O   0  0  0  0  0  0  0  0  0  0  0  0
    8.5478  -17.0702   26.2595 O   0  0  0  0  0  0  0  0  0  0  0  0
  2  1  1  1
  2  3  1  0
  4  5  1  6
  4  2  1  0
  6  4  1  0
  6  7  2  0
  9  8  1  0
 10  9  1  1
 10 11  1  0
 10 12  1  0
 11  6  1  0
 12 13  2  0
 12 19  1  0
 15 16  1  1
 15 14  1  0
 17 15  1  0
 18 17  1  1
 19 18  1  0
 20 18  1  0
 20 21  1  0
 22 20  2  0
M  END
$$$$
