TSL.pdb
     RDKit          3D

 22 21  0  0  1  0  0  0  0  0999 V2000
    8.9195  -12.4202   20.0038 C   0  0  0  0  0  0  0  0  0  0  0  0
    8.3462  -13.1956   18.8589 C   0  0  1  0  0  0  0  0  0  0  0  0
    8.8114  -12.7419   17.6310 O   0  0  0  0  0  0  0  0  0  0  0  0
    8.6130  -14.6793   18.9687 C   0  0  2  0  0  0  0  0  0  0  0  0
    7.9576  -15.3070   17.8425 N   0  0  0  0  0  0  0  0  0  0  0  0
    8.1024  -15.2707   20.2186 C   0  0  0  0  0  0  0  0  0  0  0  0
    6.8717  -15.4869   20.3307 O   0  0  0  0  0  0  0  0  0  0  0  0
   10.1935  -17.7575   22.4953 O   0  0  0  0  0  0  0  0  0  0  0  0
    8.8259  -17.6554   22.6240 C   0  0  0  0  0  0  0  0  0  0  0  0
    8.3597  -16.1957   22.5478 C   0  0  2  0  0  0  0  0  0  0  0  0
    8.9120  -15.6242   21.3333 N   0  0  0  0  0  0  0  0  0  0  0  0
    8.8329  -15.4994   23.7602 C   0  0  0  0  0  0  0  0  0  0  0  0
   10.0237  -15.0718   23.7389 O   0  0  0  0  0  0  0  0  0  0  0  0
    7.8015  -11.6938   25.5481 C   0  0  0  0  0  0  0  0  0  0  0  0
    6.8498  -12.7677   26.0302 C   0  0  2  0  0  0  0  0  0  0  0  0
    5.5860  -12.1674   26.4938 C   0  0  0  0  0  0  0  0  0  0  0  0
    7.4565  -13.8707   26.7809 C   0  0  0  0  0  0  0  0  0  0  0  0
    8.5483  -14.6360   26.1336 C   0  0  2  0  0  0  0  0  0  0  0  0
    8.0451  -15.2919   24.9123 N   0  0  0  0  0  0  0  0  0  0  0  0
    9.0559  -15.6998   26.9822 C   0  0  0  0  0  0  0  0  0  0  0  0
    9.8614  -15.4816   28.0744 O   0  0  0  0  0  0  0  0  0  0  0  0
    8.7676  -16.8933   26.7299 O   0  0  0  0  0  0  0  0  0  0  0  0
  2  1  1  1
  2  3  1  0
  4  5  1  6
  4  2  1  0
  6  4  1  0
  6  7  2  0
  9  8  1  0
 10  9  1  1
 10 11  1  0
 10 12  1  0
 11  6  1  0
 12 13  2  0
 12 19  1  0
 15 16  1  1
 15 14  1  0
 17 15  1  0
 18 17  1  1
 19 18  1  0
 20 18  1  0
 20 21  1  0
 22 20  2  0
M  END
$$$$
