TSL.pdb
     RDKit          3D

 22 21  0  0  1  0  0  0  0  0999 V2000
    8.6965  -14.3806   15.0638 C   0  0  0  0  0  0  0  0  0  0  0  0
    7.9703  -15.2650   14.0987 C   0  0  1  0  0  0  0  0  0  0  0  0
    8.1464  -14.8620   12.7810 O   0  0  0  0  0  0  0  0  0  0  0  0
    8.3684  -16.7175   14.2267 C   0  0  2  0  0  0  0  0  0  0  0  0
    7.4980  -17.4691   13.3496 N   0  0  0  0  0  0  0  0  0  0  0  0
    8.2390  -17.2368   15.6001 C   0  0  0  0  0  0  0  0  0  0  0  0
    7.1045  -17.5689   16.0203 O   0  0  0  0  0  0  0  0  0  0  0  0
   11.1190  -19.0652   17.6273 O   0  0  0  0  0  0  0  0  0  0  0  0
    9.8471  -19.0712   18.1558 C   0  0  0  0  0  0  0  0  0  0  0  0
    9.1254  -17.7409   17.9038 C   0  0  2  0  0  0  0  0  0  0  0  0
    9.3224  -17.3954   16.5079 N   0  0  0  0  0  0  0  0  0  0  0  0
    9.6948  -16.7304   18.8168 C   0  0  0  0  0  0  0  0  0  0  0  0
   10.7649  -16.1684   18.4425 O   0  0  0  0  0  0  0  0  0  0  0  0
    8.6358  -12.6720   19.7086 C   0  0  0  0  0  0  0  0  0  0  0  0
    7.8219  -13.6508   20.5278 C   0  0  2  0  0  0  0  0  0  0  0  0
    6.5459  -13.0409   20.9428 C   0  0  0  0  0  0  0  0  0  0  0  0
    8.5780  -14.4817   21.4692 C   0  0  0  0  0  0  0  0  0  0  0  0
    9.6750  -15.3208   20.9316 C   0  0  2  0  0  0  0  0  0  0  0  0
    9.1210  -16.3687   20.0541 N   0  0  0  0  0  0  0  0  0  0  0  0
   10.4032  -16.0157   21.9786 C   0  0  0  0  0  0  0  0  0  0  0  0
   11.3975  -15.4330   22.7277 O   0  0  0  0  0  0  0  0  0  0  0  0
   10.1397  -17.2140   22.2350 O   0  0  0  0  0  0  0  0  0  0  0  0
  2  1  1  1
  2  3  1  0
  4  5  1  6
  4  2  1  0
  6  4  1  0
  6  7  2  0
  9  8  1  0
 10  9  1  1
 10 11  1  0
 10 12  1  0
 11  6  1  0
 12 13  2  0
 12 19  1  0
 15 16  1  1
 15 14  1  0
 17 15  1  0
 18 17  1  1
 19 18  1  0
 20 18  1  0
 20 21  1  0
 22 20  2  0
M  END
$$$$
