TSL.pdb
     RDKit          3D

 22 21  0  0  1  0  0  0  0  0999 V2000
    9.0685  -12.3034   20.0190 C   0  0  0  0  0  0  0  0  0  0  0  0
    8.4180  -13.0281   18.8821 C   0  0  1  0  0  0  0  0  0  0  0  0
    8.8181  -12.5351   17.6464 O   0  0  0  0  0  0  0  0  0  0  0  0
    8.6680  -14.5182   18.9220 C   0  0  2  0  0  0  0  0  0  0  0  0
    7.9776  -15.0891   17.7865 N   0  0  0  0  0  0  0  0  0  0  0  0
    8.1800  -15.1565   20.1578 C   0  0  0  0  0  0  0  0  0  0  0  0
    6.9480  -15.3482   20.2975 O   0  0  0  0  0  0  0  0  0  0  0  0
   10.3916  -17.6851   22.3094 O   0  0  0  0  0  0  0  0  0  0  0  0
    9.0226  -17.6534   22.4580 C   0  0  0  0  0  0  0  0  0  0  0  0
    8.4847  -16.2169   22.4226 C   0  0  2  0  0  0  0  0  0  0  0  0
    9.0130  -15.5825   21.2289 N   0  0  0  0  0  0  0  0  0  0  0  0
    8.9175  -15.5349   23.6580 C   0  0  0  0  0  0  0  0  0  0  0  0
   10.0622  -14.9960   23.6357 O   0  0  0  0  0  0  0  0  0  0  0  0
    7.7344  -11.8513   25.7638 C   0  0  0  0  0  0  0  0  0  0  0  0
    6.8292  -13.0181   26.0967 C   0  0  2  0  0  0  0  0  0  0  0  0
    5.5158  -12.5367   26.5610 C   0  0  0  0  0  0  0  0  0  0  0  0
    7.4702  -14.1561   26.7618 C   0  0  0  0  0  0  0  0  0  0  0  0
    8.6073  -14.8137   26.0753 C   0  0  2  0  0  0  0  0  0  0  0  0
    8.1396  -15.4553   24.8325 N   0  0  0  0  0  0  0  0  0  0  0  0
    9.1998  -15.8706   26.8760 C   0  0  0  0  0  0  0  0  0  0  0  0
    9.1662  -17.1992   26.5253 O   0  0  0  0  0  0  0  0  0  0  0  0
    9.7757  -15.5916   27.9538 O   0  0  0  0  0  0  0  0  0  0  0  0
  2  1  1  1
  2  3  1  0
  4  5  1  6
  4  2  1  0
  6  4  1  0
  6  7  2  0
  9  8  1  0
 10  9  1  1
 10 11  1  0
 10 12  1  0
 11  6  1  0
 12 13  2  0
 12 19  1  0
 15 16  1  1
 15 14  1  0
 17 15  1  0
 18 17  1  1
 19 18  1  0
 20 18  1  0
 20 21  1  0
 22 20  2  0
M  END
$$$$
