TSL.pdb
     RDKit          3D

 22 21  0  0  1  0  0  0  0  0999 V2000
    9.2083  -12.4613   19.6049 C   0  0  0  0  0  0  0  0  0  0  0  0
    8.5255  -13.1551   18.4677 C   0  0  1  0  0  0  0  0  0  0  0  0
    8.8865  -12.6252   17.2352 O   0  0  0  0  0  0  0  0  0  0  0  0
    8.7807  -14.6449   18.4568 C   0  0  2  0  0  0  0  0  0  0  0  0
    8.0026  -15.1950   17.3687 N   0  0  0  0  0  0  0  0  0  0  0  0
    8.3943  -15.3100   19.7142 C   0  0  0  0  0  0  0  0  0  0  0  0
    7.1775  -15.5035   19.9508 O   0  0  0  0  0  0  0  0  0  0  0  0
    9.6668  -18.5386   21.0345 O   0  0  0  0  0  0  0  0  0  0  0  0
    9.7797  -17.6684   22.0961 C   0  0  0  0  0  0  0  0  0  0  0  0
    8.8828  -16.4369   21.9137 C   0  0  2  0  0  0  0  0  0  0  0  0
    9.3116  -15.7604   20.7034 N   0  0  0  0  0  0  0  0  0  0  0  0
    9.0239  -15.5858   23.1114 C   0  0  0  0  0  0  0  0  0  0  0  0
   10.0777  -14.8899   23.1902 O   0  0  0  0  0  0  0  0  0  0  0  0
    5.5249  -12.3704   26.9742 C   0  0  0  0  0  0  0  0  0  0  0  0
    6.9003  -12.8938   26.6193 C   0  0  2  0  0  0  0  0  0  0  0  0
    7.9036  -11.8188   26.7198 C   0  0  0  0  0  0  0  0  0  0  0  0
    6.9553  -13.8465   25.5069 C   0  0  0  0  0  0  0  0  0  0  0  0
    8.2036  -14.6223   25.3156 C   0  0  2  0  0  0  0  0  0  0  0  0
    8.0677  -15.5107   24.1463 N   0  0  0  0  0  0  0  0  0  0  0  0
    8.4961  -15.4861   26.4459 C   0  0  0  0  0  0  0  0  0  0  0  0
    9.3088  -15.1194   27.4920 O   0  0  0  0  0  0  0  0  0  0  0  0
    8.0015  -16.6366   26.4991 O   0  0  0  0  0  0  0  0  0  0  0  0
  2  1  1  1
  2  3  1  0
  4  5  1  6
  4  2  1  0
  6  4  1  0
  6  7  2  0
  9  8  1  0
 10  9  1  1
 10 11  1  0
 10 12  1  0
 11  6  1  0
 12 13  2  0
 12 19  1  0
 15 16  1  6
 15 14  1  0
 17 15  1  0
 18 17  1  1
 19 18  1  0
 20 18  1  0
 20 21  1  0
 22 20  2  0
M  END
$$$$
