TSL.pdb
     RDKit          3D

 22 21  0  0  1  0  0  0  0  0999 V2000
    8.5057  -12.3631   19.7272 C   0  0  0  0  0  0  0  0  0  0  0  0
    8.2723  -13.2991   18.5825 C   0  0  1  0  0  0  0  0  0  0  0  0
    8.8482  -12.8423   17.4037 O   0  0  0  0  0  0  0  0  0  0  0  0
    8.7699  -14.6984   18.8636 C   0  0  2  0  0  0  0  0  0  0  0  0
    8.4876  -15.4877   17.6850 N   0  0  0  0  0  0  0  0  0  0  0  0
    8.1223  -15.3219   20.0317 C   0  0  0  0  0  0  0  0  0  0  0  0
    6.8857  -15.5315   20.0016 O   0  0  0  0  0  0  0  0  0  0  0  0
    9.6491  -17.9784   22.5415 O   0  0  0  0  0  0  0  0  0  0  0  0
    8.3118  -17.6492   22.5642 C   0  0  0  0  0  0  0  0  0  0  0  0
    8.1008  -16.1367   22.4155 C   0  0  2  0  0  0  0  0  0  0  0  0
    8.8027  -15.7141   21.2174 N   0  0  0  0  0  0  0  0  0  0  0  0
    8.6208  -15.4797   23.6307 C   0  0  0  0  0  0  0  0  0  0  0  0
    9.8569  -15.2099   23.6433 O   0  0  0  0  0  0  0  0  0  0  0  0
    8.0273  -11.6073   25.7289 C   0  0  0  0  0  0  0  0  0  0  0  0
    6.9245  -12.5672   26.1215 C   0  0  2  0  0  0  0  0  0  0  0  0
    5.7793  -11.8335   26.6896 C   0  0  0  0  0  0  0  0  0  0  0  0
    7.3596  -13.8294   26.7262 C   0  0  0  0  0  0  0  0  0  0  0  0
    8.3863  -14.6257   26.0129 C   0  0  2  0  0  0  0  0  0  0  0  0
    7.8295  -15.1459   24.7503 N   0  0  0  0  0  0  0  0  0  0  0  0
    8.8121  -15.7870   26.7741 C   0  0  0  0  0  0  0  0  0  0  0  0
    9.7621  -15.7386   27.7663 O   0  0  0  0  0  0  0  0  0  0  0  0
    8.3104  -16.9106   26.5351 O   0  0  0  0  0  0  0  0  0  0  0  0
  2  1  1  1
  2  3  1  0
  4  5  1  6
  4  2  1  0
  6  4  1  0
  6  7  2  0
  9  8  1  0
 10  9  1  1
 10 11  1  0
 10 12  1  0
 11  6  1  0
 12 13  2  0
 12 19  1  0
 15 16  1  1
 15 14  1  0
 17 15  1  0
 18 17  1  1
 19 18  1  0
 20 18  1  0
 20 21  1  0
 22 20  2  0
M  END
$$$$
