YFE.pdb
     RDKit          3D

 33 34  0  0  1  0  0  0  0  0999 V2000
    9.0424  -23.4084   18.2983 O   0  0  0  0  0  0  0  0  0  0  0  0
    9.2962  -22.2944   19.0918 C   0  0  0  0  0  0  0  0  0  0  0  0
    8.5758  -22.0898   20.2557 C   0  0  0  0  0  0  0  0  0  0  0  0
    8.8586  -20.9809   21.0054 C   0  0  0  0  0  0  0  0  0  0  0  0
    9.8222  -20.0490   20.6719 C   0  0  0  0  0  0  0  0  0  0  0  0
   10.1102  -18.8633   21.4927 C   0  0  0  0  0  0  0  0  0  0  0  0
    9.0774  -17.7898   21.2224 C   0  0  2  0  0  0  0  0  0  0  0  0
    9.3224  -17.3049   19.8751 N   0  0  0  0  0  0  0  0  0  0  0  0
    9.2008  -16.6494   22.1413 C   0  0  0  0  0  0  0  0  0  0  0  0
   10.2027  -15.8988   22.0489 O   0  0  0  0  0  0  0  0  0  0  0  0
   10.5259  -20.2881   19.4951 C   0  0  0  0  0  0  0  0  0  0  0  0
   10.2717  -21.3972   18.7072 C   0  0  0  0  0  0  0  0  0  0  0  0
    8.2460  -16.3397   23.1390 N   0  0  0  0  0  0  0  0  0  0  0  0
    8.5028  -15.2430   24.0979 C   0  0  1  0  0  0  0  0  0  0  0  0
    7.1688  -14.7457   24.4918 C   0  0  0  0  0  0  0  0  0  0  0  0
    7.0485  -13.7882   25.5652 C   0  0  0  0  0  0  0  0  0  0  0  0
    6.9918  -12.4396   25.3027 C   0  0  0  0  0  0  0  0  0  0  0  0
    6.8752  -11.5015   26.3340 C   0  0  0  0  0  0  0  0  0  0  0  0
    6.8145  -11.9131   27.6432 C   0  0  0  0  0  0  0  0  0  0  0  0
    6.8704  -13.2633   27.9197 C   0  0  0  0  0  0  0  0  0  0  0  0
    6.9857  -14.1725   26.8828 C   0  0  0  0  0  0  0  0  0  0  0  0
    9.3387  -15.8081   25.1788 C   0  0  0  0  0  0  0  0  0  0  0  0
    8.9242  -16.8904   25.7316 O   0  0  0  0  0  0  0  0  0  0  0  0
   10.5480  -15.2669   25.6494 N   0  0  0  0  0  0  0  0  0  0  0  0
   11.2964  -15.9704   26.7070 C   0  0  1  0  0  0  0  0  0  0  0  0
   12.7506  -15.9212   26.3770 C   0  0  0  0  0  0  0  0  0  0  0  0
   13.1519  -16.2194   24.9990 C   0  0  0  0  0  0  0  0  0  0  0  0
   14.5385  -16.5705   24.7331 C   0  0  0  0  0  0  0  0  0  0  0  0
   15.4453  -15.6910   24.8984 O   0  0  0  0  0  0  0  0  0  0  0  0
   10.8590  -15.4609   27.9852 C   0  0  0  0  0  0  0  0  0  0  0  0
   11.0375  -16.1877   29.1581 O   0  0  0  0  0  0  0  0  0  0  0  0
   14.9774  -17.8214   24.3052 O   0  0  0  0  0  0  0  0  0  0  0  0
   10.2861  -14.3439   28.1351 O   0  0  0  0  0  0  0  0  0  0  0  0
  2  1  1  0
  3  2  2  0
  4  3  1  0
  5 11  1  0
  5  4  2  0
  6  5  1  0
  7  6  1  0
  7  8  1  6
  9  7  1  0
  9 10  2  0
 11 12  2  0
 12  2  1  0
 13  9  1  0
 14 13  1  0
 14 15  1  1
 16 15  1  0
 16 17  2  0
 18 17  1  0
 19 18  2  0
 20 21  2  0
 20 19  1  0
 21 16  1  0
 22 14  1  0
 23 22  2  0
 24 22  1  0
 25 24  1  0
 25 26  1  6
 26 27  1  0
 27 28  1  0
 28 32  1  0
 28 29  2  0
 30 31  1  0
 30 25  1  0
 33 30  2  0
M  END
$$$$
