YFE.pdb
     RDKit          3D

 33 34  0  0  1  0  0  0  0  0999 V2000
    7.4589  -21.1821   22.7249 O   0  0  0  0  0  0  0  0  0  0  0  0
    7.8230  -20.1956   21.8143 C   0  0  0  0  0  0  0  0  0  0  0  0
    6.9785  -19.8677   20.7680 C   0  0  0  0  0  0  0  0  0  0  0  0
    7.3769  -18.8915   19.8963 C   0  0  0  0  0  0  0  0  0  0  0  0
    8.5743  -18.2098   19.9957 C   0  0  0  0  0  0  0  0  0  0  0  0
    8.9831  -17.1631   19.0470 C   0  0  0  0  0  0  0  0  0  0  0  0
    8.3656  -15.8398   19.4467 C   0  0  2  0  0  0  0  0  0  0  0  0
    8.8430  -14.8521   18.4942 N   0  0  0  0  0  0  0  0  0  0  0  0
    8.7822  -15.4096   20.7889 C   0  0  0  0  0  0  0  0  0  0  0  0
    9.9709  -15.0498   20.9713 O   0  0  0  0  0  0  0  0  0  0  0  0
    9.3970  -18.5664   21.0601 C   0  0  0  0  0  0  0  0  0  0  0  0
    9.0325  -19.5484   21.9649 C   0  0  0  0  0  0  0  0  0  0  0  0
    7.9137  -15.3751   21.9057 N   0  0  0  0  0  0  0  0  0  0  0  0
    8.3393  -14.7116   23.1574 C   0  0  1  0  0  0  0  0  0  0  0  0
    7.1365  -14.0193   23.6633 C   0  0  0  0  0  0  0  0  0  0  0  0
    7.1604  -13.3996   24.9667 C   0  0  0  0  0  0  0  0  0  0  0  0
    6.0587  -12.7337   25.4501 C   0  0  0  0  0  0  0  0  0  0  0  0
    6.0691  -12.1289   26.7116 C   0  0  0  0  0  0  0  0  0  0  0  0
    7.1919  -12.1887   27.5008 C   0  0  0  0  0  0  0  0  0  0  0  0
    8.3038  -12.8538   27.0272 C   0  0  0  0  0  0  0  0  0  0  0  0
    8.2696  -13.4443   25.7761 C   0  0  0  0  0  0  0  0  0  0  0  0
    8.9056  -15.7646   24.0274 C   0  0  0  0  0  0  0  0  0  0  0  0
    8.1613  -16.7820   24.2722 O   0  0  0  0  0  0  0  0  0  0  0  0
   10.1876  -15.7508   24.6046 N   0  0  0  0  0  0  0  0  0  0  0  0
   10.7343  -16.9884   25.1905 C   0  0  1  0  0  0  0  0  0  0  0  0
   12.1026  -17.2139   24.6403 C   0  0  0  0  0  0  0  0  0  0  0  0
   12.9111  -18.2852   25.2297 C   0  0  0  0  0  0  0  0  0  0  0  0
   14.2595  -18.5027   24.7285 C   0  0  0  0  0  0  0  0  0  0  0  0
   14.8185  -19.6319   24.9175 O   0  0  0  0  0  0  0  0  0  0  0  0
   10.5665  -16.9224   26.6231 C   0  0  0  0  0  0  0  0  0  0  0  0
    9.5892  -16.1212   27.2053 O   0  0  0  0  0  0  0  0  0  0  0  0
   15.0154  -17.5599   24.0356 O   0  0  0  0  0  0  0  0  0  0  0  0
   11.2821  -17.5663   27.4425 O   0  0  0  0  0  0  0  0  0  0  0  0
  2  1  1  0
  3  2  2  0
  4  3  1  0
  5 11  1  0
  5  4  2  0
  6  5  1  0
  7  6  1  0
  7  8  1  6
  9  7  1  0
  9 10  2  0
 11 12  2  0
 12  2  1  0
 13  9  1  0
 14 13  1  0
 14 15  1  1
 16 15  1  0
 16 17  2  0
 18 17  1  0
 19 18  2  0
 20 21  2  0
 20 19  1  0
 21 16  1  0
 22 14  1  0
 23 22  2  0
 24 22  1  0
 25 24  1  0
 25 26  1  1
 26 27  1  0
 27 28  1  0
 28 32  1  0
 28 29  2  0
 30 31  1  0
 30 25  1  0
 33 30  2  0
M  END
$$$$
