YFE.pdb
     RDKit          3D

 33 34  0  0  1  0  0  0  0  0999 V2000
    7.9313  -21.9086   17.1411 O   0  0  0  0  0  0  0  0  0  0  0  0
    8.3339  -21.0732   18.1780 C   0  0  0  0  0  0  0  0  0  0  0  0
    7.5424  -20.9303   19.3043 C   0  0  0  0  0  0  0  0  0  0  0  0
    7.9771  -20.0983   20.2995 C   0  0  0  0  0  0  0  0  0  0  0  0
    9.1616  -19.3891   20.2502 C   0  0  0  0  0  0  0  0  0  0  0  0
    9.6102  -18.4997   21.3320 C   0  0  0  0  0  0  0  0  0  0  0  0
    9.4052  -17.0556   20.9262 C   0  0  2  0  0  0  0  0  0  0  0  0
   10.4432  -16.7426   19.9591 N   0  0  0  0  0  0  0  0  0  0  0  0
    9.5500  -16.1294   22.0582 C   0  0  0  0  0  0  0  0  0  0  0  0
   10.6953  -15.7168   22.3646 O   0  0  0  0  0  0  0  0  0  0  0  0
    9.9307  -19.5580   19.1026 C   0  0  0  0  0  0  0  0  0  0  0  0
    9.5281  -20.3898   18.0721 C   0  0  0  0  0  0  0  0  0  0  0  0
    8.4623  -15.6666   22.8364 N   0  0  0  0  0  0  0  0  0  0  0  0
    8.7020  -14.7737   23.9911 C   0  0  1  0  0  0  0  0  0  0  0  0
    7.4723  -13.9664   24.1250 C   0  0  0  0  0  0  0  0  0  0  0  0
    7.2580  -13.1775   25.3146 C   0  0  0  0  0  0  0  0  0  0  0  0
    8.0551  -12.0919   25.5926 C   0  0  0  0  0  0  0  0  0  0  0  0
    7.8578  -11.3193   26.7421 C   0  0  0  0  0  0  0  0  0  0  0  0
    6.8535  -11.6329   27.6254 C   0  0  0  0  0  0  0  0  0  0  0  0
    6.0471  -12.7196   27.3579 C   0  0  0  0  0  0  0  0  0  0  0  0
    6.2615  -13.4689   26.2143 C   0  0  0  0  0  0  0  0  0  0  0  0
    9.0459  -15.6417   25.1378 C   0  0  0  0  0  0  0  0  0  0  0  0
    8.2746  -16.6433   25.3632 O   0  0  0  0  0  0  0  0  0  0  0  0
   10.1448  -15.4688   25.9976 N   0  0  0  0  0  0  0  0  0  0  0  0
   10.3344  -16.3938   27.1299 C   0  0  1  0  0  0  0  0  0  0  0  0
   11.5511  -17.2187   26.8746 C   0  0  0  0  0  0  0  0  0  0  0  0
   11.8046  -17.6604   25.5001 C   0  0  0  0  0  0  0  0  0  0  0  0
   12.9631  -18.4998   25.2358 C   0  0  0  0  0  0  0  0  0  0  0  0
   14.0381  -17.9611   24.8145 O   0  0  0  0  0  0  0  0  0  0  0  0
   10.2593  -15.6313   28.3537 C   0  0  0  0  0  0  0  0  0  0  0  0
   10.2282  -16.2532   29.5979 O   0  0  0  0  0  0  0  0  0  0  0  0
   13.0051  -19.8810   25.4117 O   0  0  0  0  0  0  0  0  0  0  0  0
   10.2094  -14.3686   28.3902 O   0  0  0  0  0  0  0  0  0  0  0  0
  2  1  1  0
  3  2  2  0
  4  3  1  0
  5 11  1  0
  5  4  2  0
  6  5  1  0
  7  6  1  0
  7  8  1  6
  9  7  1  0
  9 10  2  0
 11 12  2  0
 12  2  1  0
 13  9  1  0
 14 13  1  0
 14 15  1  1
 16 15  1  0
 16 17  2  0
 18 17  1  0
 19 18  2  0
 20 21  2  0
 20 19  1  0
 21 16  1  0
 22 14  1  0
 23 22  2  0
 24 22  1  0
 25 24  1  0
 25 26  1  6
 26 27  1  0
 27 28  1  0
 28 32  1  0
 28 29  2  0
 30 31  1  0
 30 25  1  0
 33 30  2  0
M  END
$$$$
