YFE.pdb
     RDKit          3D

 33 34  0  0  1  0  0  0  0  0999 V2000
    7.5742  -13.6938   15.5146 O   0  0  0  0  0  0  0  0  0  0  0  0
    7.9178  -13.7120   16.8624 C   0  0  0  0  0  0  0  0  0  0  0  0
    7.2172  -12.9368   17.7701 C   0  0  0  0  0  0  0  0  0  0  0  0
    7.5892  -12.9855   19.0857 C   0  0  0  0  0  0  0  0  0  0  0  0
    8.6247  -13.7633   19.5667 C   0  0  0  0  0  0  0  0  0  0  0  0
    9.0081  -13.8008   20.9859 C   0  0  0  0  0  0  0  0  0  0  0  0
    9.0303  -15.2342   21.4730 C   0  0  2  0  0  0  0  0  0  0  0  0
    7.7144  -15.7871   21.2024 N   0  0  0  0  0  0  0  0  0  0  0  0
    9.2709  -15.3307   22.9196 C   0  0  0  0  0  0  0  0  0  0  0  0
   10.3310  -14.8541   23.3937 O   0  0  0  0  0  0  0  0  0  0  0  0
    9.3058  -14.5290   18.6249 C   0  0  0  0  0  0  0  0  0  0  0  0
    8.9621  -14.5093   17.2843 C   0  0  0  0  0  0  0  0  0  0  0  0
    8.3682  -15.9367   23.8257 N   0  0  0  0  0  0  0  0  0  0  0  0
    8.6212  -15.8713   25.2817 C   0  0  1  0  0  0  0  0  0  0  0  0
    7.3301  -15.4867   25.8875 C   0  0  0  0  0  0  0  0  0  0  0  0
    7.1278  -14.1331   26.3461 C   0  0  0  0  0  0  0  0  0  0  0  0
    8.1440  -13.4378   26.9583 C   0  0  0  0  0  0  0  0  0  0  0  0
    7.9606  -12.1256   27.4073 C   0  0  0  0  0  0  0  0  0  0  0  0
    6.7491  -11.4988   27.2441 C   0  0  0  0  0  0  0  0  0  0  0  0
    5.7217  -12.1857   26.6314 C   0  0  0  0  0  0  0  0  0  0  0  0
    5.9269  -13.4830   26.1955 C   0  0  0  0  0  0  0  0  0  0  0  0
    9.1675  -17.1865   25.6795 C   0  0  0  0  0  0  0  0  0  0  0  0
    8.4356  -18.2161   25.4493 O   0  0  0  0  0  0  0  0  0  0  0  0
   10.4184  -17.4073   26.2822 N   0  0  0  0  0  0  0  0  0  0  0  0
   10.8327  -18.7829   26.6138 C   0  0  1  0  0  0  0  0  0  0  0  0
   12.1317  -19.0671   25.9371 C   0  0  0  0  0  0  0  0  0  0  0  0
   12.7635  -20.3667   26.1832 C   0  0  0  0  0  0  0  0  0  0  0  0
   14.0874  -20.6178   25.6346 C   0  0  0  0  0  0  0  0  0  0  0  0
   15.0288  -19.7956   25.8814 O   0  0  0  0  0  0  0  0  0  0  0  0
   10.7476  -18.9475   28.0458 C   0  0  0  0  0  0  0  0  0  0  0  0
   10.7821  -20.2066   28.6369 O   0  0  0  0  0  0  0  0  0  0  0  0
   14.4293  -21.7120   24.8433 O   0  0  0  0  0  0  0  0  0  0  0  0
   10.6302  -17.9840   28.8558 O   0  0  0  0  0  0  0  0  0  0  0  0
  2  1  1  0
  3  2  2  0
  4  3  1  0
  5 11  1  0
  5  4  2  0
  6  5  1  0
  7  6  1  0
  7  8  1  1
  9  7  1  0
  9 10  2  0
 11 12  2  0
 12  2  1  0
 13  9  1  0
 14 13  1  0
 14 15  1  1
 16 15  1  0
 16 17  2  0
 18 17  1  0
 19 18  2  0
 20 21  2  0
 20 19  1  0
 21 16  1  0
 22 14  1  0
 23 22  2  0
 24 22  1  0
 25 24  1  0
 25 26  1  1
 26 27  1  0
 27 28  1  0
 28 32  1  0
 28 29  2  0
 30 31  1  0
 30 25  1  0
 33 30  2  0
M  END
$$$$
