YFE.pdb
     RDKit          3D

 33 34  0  0  1  0  0  0  0  0999 V2000
    6.5069  -19.8167   14.8228 O   0  0  0  0  0  0  0  0  0  0  0  0
    7.0519  -19.3223   16.0033 C   0  0  0  0  0  0  0  0  0  0  0  0
    8.3963  -19.0000   16.0681 C   0  0  0  0  0  0  0  0  0  0  0  0
    8.8899  -18.5170   17.2491 C   0  0  0  0  0  0  0  0  0  0  0  0
    8.1270  -18.3302   18.3856 C   0  0  0  0  0  0  0  0  0  0  0  0
    8.6781  -17.8094   19.6456 C   0  0  0  0  0  0  0  0  0  0  0  0
    8.6700  -16.2956   19.6214 C   0  0  2  0  0  0  0  0  0  0  0  0
    9.7088  -15.8876   18.6915 N   0  0  0  0  0  0  0  0  0  0  0  0
    8.9851  -15.7125   20.9332 C   0  0  0  0  0  0  0  0  0  0  0  0
   10.1878  -15.5545   21.2562 O   0  0  0  0  0  0  0  0  0  0  0  0
    6.7801  -18.6652   18.2825 C   0  0  0  0  0  0  0  0  0  0  0  0
    6.2399  -19.1570   17.1068 C   0  0  0  0  0  0  0  0  0  0  0  0
    8.0024  -15.3119   21.8695 N   0  0  0  0  0  0  0  0  0  0  0  0
    8.4035  -14.6488   23.1295 C   0  0  1  0  0  0  0  0  0  0  0  0
    7.2577  -13.7962   23.5064 C   0  0  0  0  0  0  0  0  0  0  0  0
    7.2086  -13.2002   24.8201 C   0  0  0  0  0  0  0  0  0  0  0  0
    7.9314  -12.0659   25.1062 C   0  0  0  0  0  0  0  0  0  0  0  0
    7.8924  -11.4787   26.3754 C   0  0  0  0  0  0  0  0  0  0  0  0
    7.1233  -12.0291   27.3717 C   0  0  0  0  0  0  0  0  0  0  0  0
    6.3935  -13.1671   27.0973 C   0  0  0  0  0  0  0  0  0  0  0  0
    6.4481  -13.7300   25.8343 C   0  0  0  0  0  0  0  0  0  0  0  0
    8.7645  -15.7220   24.0805 C   0  0  0  0  0  0  0  0  0  0  0  0
    7.9903  -16.7455   24.1263 O   0  0  0  0  0  0  0  0  0  0  0  0
    9.8822  -15.7213   24.9334 N   0  0  0  0  0  0  0  0  0  0  0  0
   10.1703  -16.9110   25.7550 C   0  0  1  0  0  0  0  0  0  0  0  0
   11.5780  -17.3363   25.5033 C   0  0  0  0  0  0  0  0  0  0  0  0
   11.9417  -17.7321   24.1396 C   0  0  0  0  0  0  0  0  0  0  0  0
   13.3294  -18.0609   23.8515 C   0  0  0  0  0  0  0  0  0  0  0  0
   14.1149  -17.1427   23.4475 O   0  0  0  0  0  0  0  0  0  0  0  0
    9.7636  -16.6320   27.1122 C   0  0  0  0  0  0  0  0  0  0  0  0
    9.7001  -17.6356   28.0737 O   0  0  0  0  0  0  0  0  0  0  0  0
   13.8944  -19.3270   23.9860 O   0  0  0  0  0  0  0  0  0  0  0  0
    9.4337  -15.4826   27.5222 O   0  0  0  0  0  0  0  0  0  0  0  0
  2  1  1  0
  3  2  2  0
  4  3  1  0
  5 11  1  0
  5  4  2  0
  6  5  1  0
  7  6  1  0
  7  8  1  6
  9  7  1  0
  9 10  2  0
 11 12  2  0
 12  2  1  0
 13  9  1  0
 14 13  1  0
 14 15  1  1
 16 15  1  0
 16 17  2  0
 18 17  1  0
 19 18  2  0
 20 21  2  0
 20 19  1  0
 21 16  1  0
 22 14  1  0
 23 22  2  0
 24 22  1  0
 25 24  1  0
 25 26  1  1
 26 27  1  0
 27 28  1  0
 28 32  1  0
 28 29  2  0
 30 31  1  0
 30 25  1  0
 33 30  2  0
M  END
$$$$
