YFE.pdb
     RDKit          3D

 33 34  0  0  1  0  0  0  0  0999 V2000
    8.8922  -20.1913   15.2155 O   0  0  0  0  0  0  0  0  0  0  0  0
    9.0892  -19.6402   16.4775 C   0  0  0  0  0  0  0  0  0  0  0  0
    8.0098  -19.4078   17.3121 C   0  0  0  0  0  0  0  0  0  0  0  0
    8.2498  -18.8645   18.5444 C   0  0  0  0  0  0  0  0  0  0  0  0
    9.5074  -18.5320   19.0097 C   0  0  0  0  0  0  0  0  0  0  0  0
    9.7430  -17.9486   20.3389 C   0  0  0  0  0  0  0  0  0  0  0  0
    9.4057  -16.4728   20.3178 C   0  0  2  0  0  0  0  0  0  0  0  0
   10.3579  -15.8400   19.4214 N   0  0  0  0  0  0  0  0  0  0  0  0
    9.5468  -15.8467   21.6400 C   0  0  0  0  0  0  0  0  0  0  0  0
   10.6806  -15.8078   22.1773 O   0  0  0  0  0  0  0  0  0  0  0  0
   10.5678  -18.7800   18.1431 C   0  0  0  0  0  0  0  0  0  0  0  0
   10.3693  -19.3284   16.8878 C   0  0  0  0  0  0  0  0  0  0  0  0
    8.4679  -15.2761   22.3563 N   0  0  0  0  0  0  0  0  0  0  0  0
    8.6953  -14.6779   23.6899 C   0  0  1  0  0  0  0  0  0  0  0  0
    7.5912  -13.7157   23.8821 C   0  0  0  0  0  0  0  0  0  0  0  0
    7.3960  -13.0959   25.1710 C   0  0  0  0  0  0  0  0  0  0  0  0
    8.2461  -12.1101   25.6142 C   0  0  0  0  0  0  0  0  0  0  0  0
    8.0677  -11.5016   26.8612 C   0  0  0  0  0  0  0  0  0  0  0  0
    7.0291  -11.8807   27.6765 C   0  0  0  0  0  0  0  0  0  0  0  0
    6.1693  -12.8686   27.2433 C   0  0  0  0  0  0  0  0  0  0  0  0
    6.3659  -13.4559   26.0057 C   0  0  0  0  0  0  0  0  0  0  0  0
    8.7661  -15.7974   24.6534 C   0  0  0  0  0  0  0  0  0  0  0  0
    8.0641  -16.8397   24.3893 O   0  0  0  0  0  0  0  0  0  0  0  0
    9.5376  -15.8215   25.8285 N   0  0  0  0  0  0  0  0  0  0  0  0
   10.0695  -17.1046   26.3227 C   0  0  1  0  0  0  0  0  0  0  0  0
   11.1062  -17.5922   25.3669 C   0  0  0  0  0  0  0  0  0  0  0  0
   11.8820  -18.7780   25.7423 C   0  0  0  0  0  0  0  0  0  0  0  0
   13.3161  -18.7840   25.4973 C   0  0  0  0  0  0  0  0  0  0  0  0
   14.1132  -18.9613   26.4753 O   0  0  0  0  0  0  0  0  0  0  0  0
   10.4309  -16.9393   27.7108 C   0  0  0  0  0  0  0  0  0  0  0  0
   10.5403  -18.0289   28.5691 O   0  0  0  0  0  0  0  0  0  0  0  0
   13.9138  -18.6124   24.2508 O   0  0  0  0  0  0  0  0  0  0  0  0
   10.6636  -15.8175   28.2452 O   0  0  0  0  0  0  0  0  0  0  0  0
  2  1  1  0
  3  2  2  0
  4  3  1  0
  5 11  1  0
  5  4  2  0
  6  5  1  0
  7  6  1  0
  7  8  1  6
  9  7  1  0
  9 10  2  0
 11 12  2  0
 12  2  1  0
 13  9  1  0
 14 13  1  0
 14 15  1  1
 16 15  1  0
 16 17  2  0
 18 17  1  0
 19 18  2  0
 20 21  2  0
 20 19  1  0
 21 16  1  0
 22 14  1  0
 23 22  2  0
 24 22  1  0
 25 24  1  0
 25 26  1  6
 26 27  1  0
 27 28  1  0
 28 32  1  0
 28 29  2  0
 30 31  1  0
 30 25  1  0
 33 30  2  0
M  END
$$$$
