YFE.pdb
     RDKit          3D

 33 34  0  0  1  0  0  0  0  0999 V2000
    7.5805  -22.3579   17.3563 O   0  0  0  0  0  0  0  0  0  0  0  0
    8.0178  -21.4289   18.2948 C   0  0  0  0  0  0  0  0  0  0  0  0
    8.0045  -20.0776   17.9956 C   0  0  0  0  0  0  0  0  0  0  0  0
    8.4435  -19.1994   18.9483 C   0  0  0  0  0  0  0  0  0  0  0  0
    8.9010  -19.5787   20.1954 C   0  0  0  0  0  0  0  0  0  0  0  0
    9.3686  -18.6174   21.2053 C   0  0  0  0  0  0  0  0  0  0  0  0
    9.1261  -17.2044   20.7187 C   0  0  2  0  0  0  0  0  0  0  0  0
   10.1049  -16.9484   19.6762 N   0  0  0  0  0  0  0  0  0  0  0  0
    9.3242  -16.2052   21.7781 C   0  0  0  0  0  0  0  0  0  0  0  0
   10.4933  -15.8635   22.0818 O   0  0  0  0  0  0  0  0  0  0  0  0
    8.8996  -20.9451   20.4602 C   0  0  0  0  0  0  0  0  0  0  0  0
    8.4641  -21.8676   19.5248 C   0  0  0  0  0  0  0  0  0  0  0  0
    8.2631  -15.5946   22.4882 N   0  0  0  0  0  0  0  0  0  0  0  0
    8.5499  -14.7295   23.6533 C   0  0  1  0  0  0  0  0  0  0  0  0
    7.3107  -13.9598   23.8851 C   0  0  0  0  0  0  0  0  0  0  0  0
    7.1732  -13.1651   25.0822 C   0  0  0  0  0  0  0  0  0  0  0  0
    8.0372  -12.1273   25.3415 C   0  0  0  0  0  0  0  0  0  0  0  0
    7.9147  -11.3497   26.4980 C   0  0  0  0  0  0  0  0  0  0  0  0
    6.9185  -11.6101   27.4073 C   0  0  0  0  0  0  0  0  0  0  0  0
    6.0452  -12.6486   27.1587 C   0  0  0  0  0  0  0  0  0  0  0  0
    6.1863  -13.4039   26.0078 C   0  0  0  0  0  0  0  0  0  0  0  0
    8.9844  -15.6209   24.7502 C   0  0  0  0  0  0  0  0  0  0  0  0
    8.2346  -16.6294   25.0140 O   0  0  0  0  0  0  0  0  0  0  0  0
   10.1474  -15.4630   25.5243 N   0  0  0  0  0  0  0  0  0  0  0  0
   10.5562  -16.5361   26.4489 C   0  0  1  0  0  0  0  0  0  0  0  0
   11.8136  -17.1549   25.9369 C   0  0  0  0  0  0  0  0  0  0  0  0
   13.0746  -16.4483   26.1805 C   0  0  0  0  0  0  0  0  0  0  0  0
   14.0595  -16.3829   25.1116 C   0  0  0  0  0  0  0  0  0  0  0  0
   13.8226  -16.9789   24.0107 O   0  0  0  0  0  0  0  0  0  0  0  0
   10.5430  -16.0050   27.7915 C   0  0  0  0  0  0  0  0  0  0  0  0
   10.4226  -14.6400   28.0330 O   0  0  0  0  0  0  0  0  0  0  0  0
   15.2730  -15.7029   25.1846 O   0  0  0  0  0  0  0  0  0  0  0  0
   10.6450  -16.7204   28.8288 O   0  0  0  0  0  0  0  0  0  0  0  0
  2  1  1  0
  3  2  2  0
  4  3  1  0
  5 11  1  0
  5  4  2  0
  6  5  1  0
  7  6  1  0
  7  8  1  6
  9  7  1  0
  9 10  2  0
 11 12  2  0
 12  2  1  0
 13  9  1  0
 14 13  1  0
 14 15  1  1
 16 15  1  0
 16 17  2  0
 18 17  1  0
 19 18  2  0
 20 21  2  0
 20 19  1  0
 21 16  1  0
 22 14  1  0
 23 22  2  0
 24 22  1  0
 25 24  1  0
 25 26  1  6
 26 27  1  0
 27 28  1  0
 28 32  1  0
 28 29  2  0
 30 31  1  0
 30 25  1  0
 33 30  2  0
M  END
$$$$
