AQT.pdb
     RDKit          3D

 22 21  0  0  1  0  0  0  0  0999 V2000
   16.8578  -12.1863  -17.7889 C   0  0  0  0  0  0  0  0  0  0  0  0
   18.1455  -11.7621  -17.1449 C   0  0  2  0  0  0  0  0  0  0  0  0
   18.5694  -12.7791  -16.1784 N   0  0  0  0  0  0  0  0  0  0  0  0
   18.0336  -10.4556  -16.4524 C   0  0  0  0  0  0  0  0  0  0  0  0
   17.6716   -9.4595  -17.1393 O   0  0  0  0  0  0  0  0  0  0  0  0
   16.7099   -9.2217  -10.4703 N   0  0  0  0  0  0  0  0  0  0  0  0
   15.7721   -9.4164  -11.5204 C   0  0  0  0  0  0  0  0  0  0  0  0
   14.5786   -9.6508  -11.2086 O   0  0  0  0  0  0  0  0  0  0  0  0
   16.2532   -9.3319  -12.9183 C   0  0  0  0  0  0  0  0  0  0  0  0
   17.7172   -9.0711  -13.0209 C   0  0  0  0  0  0  0  0  0  0  0  0
   18.2570   -8.9917  -14.4127 C   0  0  2  0  0  0  0  0  0  0  0  0
   18.3101  -10.2727  -15.0729 N   0  0  0  0  0  0  0  0  0  0  0  0
   19.6344   -8.3901  -14.3006 C   0  0  0  0  0  0  0  0  0  0  0  0
   20.5648   -9.0805  -13.8124 O   0  0  0  0  0  0  0  0  0  0  0  0
   23.0964   -5.4952  -16.0571 C   0  0  0  0  0  0  0  0  0  0  0  0
   21.6679   -5.9273  -16.0024 C   0  0  1  0  0  0  0  0  0  0  0  0
   21.4292   -6.8130  -17.0521 O   0  0  0  0  0  0  0  0  0  0  0  0
   21.2975   -6.6291  -14.7215 C   0  0  2  0  0  0  0  0  0  0  0  0
   19.9234   -7.0825  -14.7216 N   0  0  0  0  0  0  0  0  0  0  0  0
   21.5583   -5.6888  -13.5926 C   0  0  0  0  0  0  0  0  0  0  0  0
   22.7136   -5.7803  -12.8645 O   0  0  0  0  0  0  0  0  0  0  0  0
   20.7178   -4.8016  -13.2987 O   0  0  0  0  0  0  0  0  0  0  0  0
  2  1  1  1
  2  4  1  0
  3  2  1  0
  4  5  2  0
  6  7  1  0
  7  8  2  0
  7  9  1  0
  9 10  1  0
 11 10  1  1
 11 13  1  0
 12 11  1  0
 12  4  1  0
 13 19  1  0
 14 13  2  0
 16 15  1  1
 16 17  1  0
 18 16  1  0
 18 19  1  6
 20 18  1  0
 21 20  1  0
 22 20  2  0
M  END
$$$$
