AQT.pdb
     RDKit          3D

 22 21  0  0  1  0  0  0  0  0999 V2000
   14.8668   -9.2787   -7.8283 C   0  0  0  0  0  0  0  0  0  0  0  0
   14.3258   -7.8944   -8.0371 C   0  0  2  0  0  0  0  0  0  0  0  0
   12.8656   -7.9501   -8.1515 N   0  0  0  0  0  0  0  0  0  0  0  0
   14.8798   -7.2420   -9.2482 C   0  0  0  0  0  0  0  0  0  0  0  0
   14.2556   -7.4010  -10.3346 O   0  0  0  0  0  0  0  0  0  0  0  0
   16.1307   -1.5514  -10.1646 N   0  0  0  0  0  0  0  0  0  0  0  0
   16.6582   -2.0551  -11.3846 C   0  0  0  0  0  0  0  0  0  0  0  0
   16.9681   -1.2290  -12.2781 O   0  0  0  0  0  0  0  0  0  0  0  0
   16.8123   -3.5203  -11.5331 C   0  0  0  0  0  0  0  0  0  0  0  0
   16.3901   -4.2810  -10.3227 C   0  0  0  0  0  0  0  0  0  0  0  0
   16.5603   -5.7638  -10.4073 C   0  0  2  0  0  0  0  0  0  0  0  0
   16.0620   -6.4577   -9.2455 N   0  0  0  0  0  0  0  0  0  0  0  0
   18.0361   -6.0125  -10.5870 C   0  0  0  0  0  0  0  0  0  0  0  0
   18.7826   -6.0163   -9.5755 O   0  0  0  0  0  0  0  0  0  0  0  0
   21.7968   -7.9512  -12.9973 C   0  0  0  0  0  0  0  0  0  0  0  0
   20.3406   -7.6386  -12.8888 C   0  0  1  0  0  0  0  0  0  0  0  0
   19.6726   -8.7758  -12.4373 O   0  0  0  0  0  0  0  0  0  0  0  0
   20.0328   -6.5187  -11.9290 C   0  0  2  0  0  0  0  0  0  0  0  0
   18.6150   -6.2416  -11.8451 N   0  0  0  0  0  0  0  0  0  0  0  0
   20.7955   -5.3146  -12.3710 C   0  0  0  0  0  0  0  0  0  0  0  0
   20.1458   -4.2458  -12.9265 O   0  0  0  0  0  0  0  0  0  0  0  0
   22.0444   -5.2701  -12.2372 O   0  0  0  0  0  0  0  0  0  0  0  0
  2  1  1  6
  2  4  1  0
  3  2  1  0
  4  5  2  0
  6  7  1  0
  7  8  2  0
  7  9  1  0
  9 10  1  0
 11 10  1  1
 11 13  1  0
 12 11  1  0
 12  4  1  0
 13 19  1  0
 14 13  2  0
 16 15  1  1
 16 17  1  0
 18 16  1  0
 18 19  1  6
 20 18  1  0
 21 20  1  0
 22 20  2  0
M  END
$$$$
