AQT.pdb
     RDKit          3D

 22 21  0  0  1  0  0  0  0  0999 V2000
   25.6337  -11.7579  -18.3675 C   0  0  0  0  0  0  0  0  0  0  0  0
   24.2988  -12.2513  -17.8907 C   0  0  2  0  0  0  0  0  0  0  0  0
   23.7968  -13.2756  -18.8110 N   0  0  0  0  0  0  0  0  0  0  0  0
   23.2944  -11.1656  -17.7831 C   0  0  0  0  0  0  0  0  0  0  0  0
   23.0182  -10.5195  -18.8326 O   0  0  0  0  0  0  0  0  0  0  0  0
   18.0281  -10.9583  -14.6626 N   0  0  0  0  0  0  0  0  0  0  0  0
   18.0867   -9.6108  -15.1109 C   0  0  0  0  0  0  0  0  0  0  0  0
   17.0730   -8.8892  -14.9426 O   0  0  0  0  0  0  0  0  0  0  0  0
   19.3355   -9.1349  -15.7488 C   0  0  0  0  0  0  0  0  0  0  0  0
   20.3897  -10.1854  -15.8322 C   0  0  0  0  0  0  0  0  0  0  0  0
   21.6732   -9.7549  -16.4662 C   0  0  2  0  0  0  0  0  0  0  0  0
   22.6372  -10.8220  -16.5737 N   0  0  0  0  0  0  0  0  0  0  0  0
   22.2109   -8.6317  -15.6168 C   0  0  0  0  0  0  0  0  0  0  0  0
   22.8251   -8.9086  -14.5554 O   0  0  0  0  0  0  0  0  0  0  0  0
   24.3160   -5.3972  -16.8025 C   0  0  0  0  0  0  0  0  0  0  0  0
   23.1452   -5.0842  -15.9299 C   0  0  1  0  0  0  0  0  0  0  0  0
   22.0912   -4.6544  -16.7348 O   0  0  0  0  0  0  0  0  0  0  0  0
   22.6554   -6.2633  -15.1298 C   0  0  2  0  0  0  0  0  0  0  0  0
   22.0533   -7.2808  -15.9642 N   0  0  0  0  0  0  0  0  0  0  0  0
   21.6900   -5.7559  -14.1113 C   0  0  0  0  0  0  0  0  0  0  0  0
   22.1213   -4.9750  -13.0734 O   0  0  0  0  0  0  0  0  0  0  0  0
   20.4690   -6.0414  -14.1968 O   0  0  0  0  0  0  0  0  0  0  0  0
  2  1  1  6
  2  4  1  0
  3  2  1  0
  4  5  2  0
  6  7  1  0
  7  8  2  0
  7  9  1  0
  9 10  1  0
 11 10  1  1
 11 13  1  0
 12 11  1  0
 12  4  1  0
 13 19  1  0
 14 13  2  0
 16 15  1  6
 16 17  1  0
 18 16  1  0
 18 19  1  6
 20 18  1  0
 21 20  1  0
 22 20  2  0
M  END
$$$$
