AQT.pdb
     RDKit          3D

 22 21  0  0  1  0  0  0  0  0999 V2000
   23.2565  -10.7781  -21.7694 C   0  0  0  0  0  0  0  0  0  0  0  0
   23.4580  -10.7756  -20.2821 C   0  0  2  0  0  0  0  0  0  0  0  0
   23.4558  -12.1541  -19.7841 N   0  0  0  0  0  0  0  0  0  0  0  0
   22.4143  -10.0027  -19.5662 C   0  0  0  0  0  0  0  0  0  0  0  0
   21.2134  -10.1817  -19.9139 O   0  0  0  0  0  0  0  0  0  0  0  0
   21.7993   -9.1158  -13.6117 N   0  0  0  0  0  0  0  0  0  0  0  0
   20.7687   -8.2466  -14.0618 C   0  0  0  0  0  0  0  0  0  0  0  0
   19.9661   -7.7932  -13.2092 O   0  0  0  0  0  0  0  0  0  0  0  0
   20.6996   -7.9254  -15.5057 C   0  0  0  0  0  0  0  0  0  0  0  0
   21.7132   -8.6555  -16.3190 C   0  0  0  0  0  0  0  0  0  0  0  0
   21.6769   -8.3766  -17.7872 C   0  0  2  0  0  0  0  0  0  0  0  0
   22.6960   -9.0835  -18.5229 N   0  0  0  0  0  0  0  0  0  0  0  0
   21.8427   -6.8863  -17.9409 C   0  0  0  0  0  0  0  0  0  0  0  0
   22.9930   -6.3872  -17.8519 O   0  0  0  0  0  0  0  0  0  0  0  0
   18.5953   -4.0472  -18.7752 C   0  0  0  0  0  0  0  0  0  0  0  0
   19.9998   -3.9677  -19.2766 C   0  0  1  0  0  0  0  0  0  0  0  0
   20.3507   -2.6250  -19.4093 O   0  0  0  0  0  0  0  0  0  0  0  0
   21.0062   -4.6127  -18.3593 C   0  0  2  0  0  0  0  0  0  0  0  0
   20.7588   -6.0272  -18.1808 N   0  0  0  0  0  0  0  0  0  0  0  0
   20.9687   -3.8868  -17.0561 C   0  0  0  0  0  0  0  0  0  0  0  0
   21.3932   -2.5885  -16.9712 O   0  0  0  0  0  0  0  0  0  0  0  0
   20.5461   -4.4619  -16.0214 O   0  0  0  0  0  0  0  0  0  0  0  0
  2  1  1  6
  2  4  1  0
  3  2  1  0
  4  5  2  0
  6  7  1  0
  7  8  2  0
  7  9  1  0
  9 10  1  0
 11 10  1  1
 11 13  1  0
 12 11  1  0
 12  4  1  0
 13 19  1  0
 14 13  2  0
 16 15  1  1
 16 17  1  0
 18 16  1  0
 18 19  1  1
 20 18  1  0
 21 20  1  0
 22 20  2  0
M  END
$$$$
