AQT.pdb
     RDKit          3D

 22 21  0  0  1  0  0  0  0  0999 V2000
   15.8485  -12.3201  -14.4913 C   0  0  0  0  0  0  0  0  0  0  0  0
   16.2185  -12.5159  -15.9327 C   0  0  2  0  0  0  0  0  0  0  0  0
   16.6370  -13.9040  -16.1479 N   0  0  0  0  0  0  0  0  0  0  0  0
   17.3083  -11.6103  -16.3701 C   0  0  0  0  0  0  0  0  0  0  0  0
   18.4969  -11.9985  -16.1922 O   0  0  0  0  0  0  0  0  0  0  0  0
   16.9029   -6.6112  -20.2813 N   0  0  0  0  0  0  0  0  0  0  0  0
   18.3025   -6.6944  -20.0477 C   0  0  0  0  0  0  0  0  0  0  0  0
   19.0570   -5.9465  -20.7171 O   0  0  0  0  0  0  0  0  0  0  0  0
   18.7906   -7.6546  -19.0315 C   0  0  0  0  0  0  0  0  0  0  0  0
   17.7012   -8.4692  -18.4221 C   0  0  0  0  0  0  0  0  0  0  0  0
   18.1435   -9.4671  -17.4006 C   0  0  2  0  0  0  0  0  0  0  0  0
   17.0832  -10.3450  -16.9710 N   0  0  0  0  0  0  0  0  0  0  0  0
   18.6854   -8.6743  -16.2388 C   0  0  0  0  0  0  0  0  0  0  0  0
   17.8935   -8.2815  -15.3449 O   0  0  0  0  0  0  0  0  0  0  0  0
   21.3003   -9.5592  -13.6017 C   0  0  0  0  0  0  0  0  0  0  0  0
   21.6529   -8.2665  -14.2610 C   0  0  1  0  0  0  0  0  0  0  0  0
   22.6356   -8.5082  -15.2199 O   0  0  0  0  0  0  0  0  0  0  0  0
   20.4909   -7.6063  -14.9567 C   0  0  2  0  0  0  0  0  0  0  0  0
   20.0463   -8.3542  -16.1130 N   0  0  0  0  0  0  0  0  0  0  0  0
   20.9081   -6.2238  -15.3326 C   0  0  0  0  0  0  0  0  0  0  0  0
   21.2761   -5.3230  -14.3702 O   0  0  0  0  0  0  0  0  0  0  0  0
   20.9257   -5.8723  -16.5392 O   0  0  0  0  0  0  0  0  0  0  0  0
  2  1  1  1
  2  4  1  0
  3  2  1  0
  4  5  2  0
  6  7  1  0
  7  8  2  0
  7  9  1  0
  9 10  1  0
 11 10  1  6
 11 13  1  0
 12 11  1  0
 12  4  1  0
 13 19  1  0
 14 13  2  0
 16 15  1  6
 16 17  1  0
 18 16  1  0
 18 19  1  6
 20 18  1  0
 21 20  1  0
 22 20  2  0
M  END
$$$$
