AQT.pdb
     RDKit          3D

 22 21  0  0  1  0  0  0  0  0999 V2000
   22.3694  -12.5536  -20.0249 C   0  0  0  0  0  0  0  0  0  0  0  0
   22.9588  -11.8835  -18.8181 C   0  0  2  0  0  0  0  0  0  0  0  0
   23.0560  -12.8486  -17.7192 N   0  0  0  0  0  0  0  0  0  0  0  0
   22.1617  -10.7174  -18.3666 C   0  0  0  0  0  0  0  0  0  0  0  0
   22.0296   -9.7533  -19.1717 O   0  0  0  0  0  0  0  0  0  0  0  0
   17.3803  -10.5359  -14.3569 N   0  0  0  0  0  0  0  0  0  0  0  0
   17.2059   -9.4792  -15.2912 C   0  0  0  0  0  0  0  0  0  0  0  0
   16.0656   -8.9628  -15.3906 O   0  0  0  0  0  0  0  0  0  0  0  0
   18.3743   -9.0477  -16.0921 C   0  0  0  0  0  0  0  0  0  0  0  0
   19.5995   -9.8536  -15.8247 C   0  0  0  0  0  0  0  0  0  0  0  0
   20.7970   -9.4872  -16.6411 C   0  0  2  0  0  0  0  0  0  0  0  0
   21.5479  -10.6335  -17.0902 N   0  0  0  0  0  0  0  0  0  0  0  0
   21.6480   -8.5974  -15.7717 C   0  0  0  0  0  0  0  0  0  0  0  0
   22.5251   -9.1188  -15.0374 O   0  0  0  0  0  0  0  0  0  0  0  0
   22.5653   -4.5619  -16.6703 C   0  0  0  0  0  0  0  0  0  0  0  0
   23.3155   -5.5534  -15.8429 C   0  0  1  0  0  0  0  0  0  0  0  0
   24.1903   -4.8639  -15.0047 O   0  0  0  0  0  0  0  0  0  0  0  0
   22.4300   -6.4076  -14.9732 C   0  0  2  0  0  0  0  0  0  0  0  0
   21.5009   -7.2016  -15.7479 N   0  0  0  0  0  0  0  0  0  0  0  0
   21.7132   -5.5059  -14.0246 C   0  0  0  0  0  0  0  0  0  0  0  0
   22.4019   -4.8269  -13.0562 O   0  0  0  0  0  0  0  0  0  0  0  0
   20.4673   -5.3609  -14.1058 O   0  0  0  0  0  0  0  0  0  0  0  0
  2  1  1  6
  2  4  1  0
  3  2  1  0
  4  5  2  0
  6  7  1  0
  7  8  2  0
  7  9  1  0
  9 10  1  0
 11 10  1  1
 11 13  1  0
 12 11  1  0
 12  4  1  0
 13 19  1  0
 14 13  2  0
 16 15  1  1
 16 17  1  0
 18 16  1  0
 18 19  1  6
 20 18  1  0
 21 20  1  0
 22 20  2  0
M  END
$$$$
