MTY.pdb
     RDKit          3D

 28 28  0  0  1  0  0  0  0  0999 V2000
    8.6638  -11.5457   20.0758 C   0  0  0  0  0  0  0  0  0  0  0  0
    7.6959  -12.1109   18.6989 S   0  0  0  0  0  0  0  0  0  0  0  0
    7.7352  -13.8263   18.3091 C   0  0  0  0  0  0  0  0  0  0  0  0
    9.0210  -14.4883   18.0196 C   0  0  0  0  0  0  0  0  0  0  0  0
    9.0187  -15.9675   17.8184 C   0  0  2  0  0  0  0  0  0  0  0  0
    8.1800  -16.3835   16.7270 N   0  0  0  0  0  0  0  0  0  0  0  0
    8.6473  -16.6632   19.1040 C   0  0  0  0  0  0  0  0  0  0  0  0
    7.4457  -16.8567   19.4424 O   0  0  0  0  0  0  0  0  0  0  0  0
    9.4338  -20.0469   20.3060 C   0  0  0  0  0  0  0  0  0  0  0  0
   10.0782  -19.1112   21.3148 C   0  0  1  0  0  0  0  0  0  0  0  0
   11.4352  -19.1180   21.1153 O   0  0  0  0  0  0  0  0  0  0  0  0
    9.4646  -17.7268   21.2142 C   0  0  2  0  0  0  0  0  0  0  0  0
    9.7046  -17.1088   19.9489 N   0  0  0  0  0  0  0  0  0  0  0  0
   10.0109  -16.9273   22.3503 C   0  0  0  0  0  0  0  0  0  0  0  0
   11.0341  -16.2025   22.2141 O   0  0  0  0  0  0  0  0  0  0  0  0
   10.8384  -14.1727   30.8679 O   0  0  0  0  0  0  0  0  0  0  0  0
   10.3906  -14.6384   29.6317 C   0  0  0  0  0  0  0  0  0  0  0  0
    9.9232  -13.7812   28.6585 C   0  0  0  0  0  0  0  0  0  0  0  0
    9.4930  -14.3154   27.4494 C   0  0  0  0  0  0  0  0  0  0  0  0
    9.5149  -15.6669   27.1855 C   0  0  0  0  0  0  0  0  0  0  0  0
    9.0580  -16.1913   25.9250 C   0  0  0  0  0  0  0  0  0  0  0  0
   10.0313  -16.2502   24.7971 C   0  0  2  0  0  0  0  0  0  0  0  0
    9.4205  -16.9310   23.6439 N   0  0  0  0  0  0  0  0  0  0  0  0
   11.2716  -16.9452   25.2100 C   0  0  0  0  0  0  0  0  0  0  0  0
   11.2693  -18.2137   25.2467 O   0  0  0  0  0  0  0  0  0  0  0  0
    9.9902  -16.4957   28.1854 C   0  0  0  0  0  0  0  0  0  0  0  0
   10.4197  -15.9943   29.3843 C   0  0  0  0  0  0  0  0  0  0  0  0
   12.4277  -16.2654   25.5542 O   0  0  0  0  0  0  0  0  0  0  0  0
  1  2  1  0
  2  3  1  0
  3  4  1  0
  4  5  1  0
  5  6  1  6
  7  5  1  0
  8  7  2  0
 10  9  1  6
 10 12  1  0
 11 10  1  0
 12 14  1  0
 12 13  1  6
 13  7  1  0
 14 23  1  0
 15 14  2  0
 16 17  1  0
 17 18  2  0
 17 27  1  0
 18 19  1  0
 19 20  2  0
 20 21  1  0
 22 21  1  1
 22 24  1  0
 23 22  1  0
 24 25  2  0
 24 28  1  0
 26 20  1  0
 27 26  2  0
M  END
$$$$
