MTY.pdb
     RDKit          3D

 28 28  0  0  1  0  0  0  0  0999 V2000
    7.9826  -11.5902   19.2221 C   0  0  0  0  0  0  0  0  0  0  0  0
    7.4569  -12.6482   17.8968 S   0  0  0  0  0  0  0  0  0  0  0  0
    7.7008  -14.3815   18.0759 C   0  0  0  0  0  0  0  0  0  0  0  0
    7.9776  -14.9545   19.4065 C   0  0  0  0  0  0  0  0  0  0  0  0
    8.1365  -16.4350   19.5133 C   0  0  2  0  0  0  0  0  0  0  0  0
    7.1233  -17.1607   18.7961 N   0  0  0  0  0  0  0  0  0  0  0  0
    8.1954  -16.8449   20.9636 C   0  0  0  0  0  0  0  0  0  0  0  0
    7.1543  -17.0696   21.6428 O   0  0  0  0  0  0  0  0  0  0  0  0
    9.6082  -19.6900   22.7879 C   0  0  0  0  0  0  0  0  0  0  0  0
   10.4051  -18.4868   23.2631 C   0  0  1  0  0  0  0  0  0  0  0  0
   11.6486  -18.5283   22.6859 O   0  0  0  0  0  0  0  0  0  0  0  0
    9.6489  -17.2049   22.9661 C   0  0  2  0  0  0  0  0  0  0  0  0
    9.4798  -16.9772   21.5660 N   0  0  0  0  0  0  0  0  0  0  0  0
   10.3928  -16.0980   23.6364 C   0  0  0  0  0  0  0  0  0  0  0  0
   11.2256  -15.3887   23.0086 O   0  0  0  0  0  0  0  0  0  0  0  0
   10.4919  -17.7696   31.2977 O   0  0  0  0  0  0  0  0  0  0  0  0
   10.3907  -16.9235   30.1935 C   0  0  0  0  0  0  0  0  0  0  0  0
    9.5924  -17.2319   29.1128 C   0  0  0  0  0  0  0  0  0  0  0  0
    9.5394  -16.3416   28.0466 C   0  0  0  0  0  0  0  0  0  0  0  0
   10.2531  -15.1639   28.0271 C   0  0  0  0  0  0  0  0  0  0  0  0
   10.1819  -14.2636   26.9060 C   0  0  0  0  0  0  0  0  0  0  0  0
   10.8990  -14.6443   25.6555 C   0  0  2  0  0  0  0  0  0  0  0  0
   10.2131  -15.7752   25.0096 N   0  0  0  0  0  0  0  0  0  0  0  0
   12.3089  -14.9918   25.9442 C   0  0  0  0  0  0  0  0  0  0  0  0
   12.6281  -16.2186   26.0053 O   0  0  0  0  0  0  0  0  0  0  0  0
   11.0429  -14.8884   29.1284 C   0  0  0  0  0  0  0  0  0  0  0  0
   11.1119  -15.7486   30.1907 C   0  0  0  0  0  0  0  0  0  0  0  0
   13.2865  -14.0326   26.1475 O   0  0  0  0  0  0  0  0  0  0  0  0
  1  2  1  0
  2  3  1  0
  3  4  1  0
  4  5  1  0
  5  6  1  1
  7  5  1  0
  8  7  2  0
 10  9  1  6
 10 12  1  0
 11 10  1  0
 12 14  1  0
 12 13  1  6
 13  7  1  0
 14 23  1  0
 15 14  2  0
 16 17  1  0
 17 18  2  0
 17 27  1  0
 18 19  1  0
 19 20  2  0
 20 21  1  0
 22 21  1  1
 22 24  1  0
 23 22  1  0
 24 25  2  0
 24 28  1  0
 26 20  1  0
 27 26  2  0
M  END
$$$$
