MTY.pdb
     RDKit          3D

 28 28  0  0  1  0  0  0  0  0999 V2000
    6.0134  -11.2031   25.1119 C   0  0  0  0  0  0  0  0  0  0  0  0
    5.8249  -12.5108   26.2980 S   0  0  0  0  0  0  0  0  0  0  0  0
    5.9906  -14.1692   25.7338 C   0  0  0  0  0  0  0  0  0  0  0  0
    6.1011  -14.4503   24.2902 C   0  0  0  0  0  0  0  0  0  0  0  0
    6.0876  -15.8769   23.8504 C   0  0  2  0  0  0  0  0  0  0  0  0
    5.3488  -16.7309   24.7405 N   0  0  0  0  0  0  0  0  0  0  0  0
    7.4991  -16.3687   23.6488 C   0  0  0  0  0  0  0  0  0  0  0  0
    8.1449  -16.9554   24.5622 O   0  0  0  0  0  0  0  0  0  0  0  0
    8.7446  -17.0379   19.7139 C   0  0  0  0  0  0  0  0  0  0  0  0
    9.7892  -16.3970   20.6120 C   0  0  1  0  0  0  0  0  0  0  0  0
    9.9152  -15.0760   20.2652 O   0  0  0  0  0  0  0  0  0  0  0  0
    9.4248  -16.6016   22.0710 C   0  0  2  0  0  0  0  0  0  0  0  0
    8.1034  -16.1532   22.3765 N   0  0  0  0  0  0  0  0  0  0  0  0
   10.4647  -15.8996   22.8796 C   0  0  0  0  0  0  0  0  0  0  0  0
   10.4409  -14.6489   23.0410 O   0  0  0  0  0  0  0  0  0  0  0  0
   11.5819  -15.5636   31.3074 O   0  0  0  0  0  0  0  0  0  0  0  0
   11.3894  -15.8319   29.9523 C   0  0  0  0  0  0  0  0  0  0  0  0
   11.5131  -17.1054   29.4392 C   0  0  0  0  0  0  0  0  0  0  0  0
   11.3069  -17.2996   28.0784 C   0  0  0  0  0  0  0  0  0  0  0  0
   10.9842  -16.2701   27.2224 C   0  0  0  0  0  0  0  0  0  0  0  0
   10.7813  -16.5012   25.8160 C   0  0  0  0  0  0  0  0  0  0  0  0
   11.9436  -16.3154   24.9010 C   0  0  2  0  0  0  0  0  0  0  0  0
   11.5365  -16.5869   23.5128 N   0  0  0  0  0  0  0  0  0  0  0  0
   13.0660  -17.1981   25.2924 C   0  0  0  0  0  0  0  0  0  0  0  0
   13.1154  -18.3665   24.7993 O   0  0  0  0  0  0  0  0  0  0  0  0
   10.8688  -15.0067   27.7729 C   0  0  0  0  0  0  0  0  0  0  0  0
   11.0667  -14.7895   29.1096 C   0  0  0  0  0  0  0  0  0  0  0  0
   14.0585  -16.7972   26.1705 O   0  0  0  0  0  0  0  0  0  0  0  0
  1  2  1  0
  2  3  1  0
  3  4  1  0
  4  5  1  0
  5  6  1  1
  7  5  1  0
  8  7  2  0
 10  9  1  6
 10 12  1  0
 11 10  1  0
 12 14  1  0
 12 13  1  6
 13  7  1  0
 14 23  1  0
 15 14  2  0
 16 17  1  0
 17 18  2  0
 17 27  1  0
 18 19  1  0
 19 20  2  0
 20 21  1  0
 22 21  1  1
 22 24  1  0
 23 22  1  0
 24 25  2  0
 24 28  1  0
 26 20  1  0
 27 26  2  0
M  END
$$$$
