MTY.pdb
     RDKit          3D

 28 28  0  0  1  0  0  0  0  0999 V2000
    8.2475  -11.1331   20.3566 C   0  0  0  0  0  0  0  0  0  0  0  0
    8.3283  -11.8958   18.7553 S   0  0  0  0  0  0  0  0  0  0  0  0
    8.4109  -13.6518   18.6790 C   0  0  0  0  0  0  0  0  0  0  0  0
    8.5990  -14.4363   19.9137 C   0  0  0  0  0  0  0  0  0  0  0  0
    8.5957  -15.9253   19.8059 C   0  0  2  0  0  0  0  0  0  0  0  0
    7.7232  -16.4105   18.7710 N   0  0  0  0  0  0  0  0  0  0  0  0
    8.2695  -16.5395   21.1442 C   0  0  0  0  0  0  0  0  0  0  0  0
    7.0806  -16.7400   21.5214 O   0  0  0  0  0  0  0  0  0  0  0  0
    8.9625  -19.8667   22.2911 C   0  0  0  0  0  0  0  0  0  0  0  0
    9.7423  -18.9738   23.2414 C   0  0  1  0  0  0  0  0  0  0  0  0
   11.0680  -19.0126   22.8918 O   0  0  0  0  0  0  0  0  0  0  0  0
    9.1628  -17.5712   23.2394 C   0  0  2  0  0  0  0  0  0  0  0  0
    9.3553  -16.8977   21.9943 N   0  0  0  0  0  0  0  0  0  0  0  0
    9.7879  -16.8426   24.3825 C   0  0  0  0  0  0  0  0  0  0  0  0
   10.7658  -16.0646   24.2124 O   0  0  0  0  0  0  0  0  0  0  0  0
    5.6184  -11.7359   25.5638 O   0  0  0  0  0  0  0  0  0  0  0  0
    6.4739  -12.6918   26.1113 C   0  0  0  0  0  0  0  0  0  0  0  0
    7.7408  -12.3680   26.5477 C   0  0  0  0  0  0  0  0  0  0  0  0
    8.5391  -13.3721   27.0832 C   0  0  0  0  0  0  0  0  0  0  0  0
    8.1146  -14.6775   27.1947 C   0  0  0  0  0  0  0  0  0  0  0  0
    8.9662  -15.6971   27.7494 C   0  0  0  0  0  0  0  0  0  0  0  0
    9.9883  -16.3168   26.8582 C   0  0  2  0  0  0  0  0  0  0  0  0
    9.3269  -16.9769   25.7209 N   0  0  0  0  0  0  0  0  0  0  0  0
   10.8186  -17.2871   27.6073 C   0  0  0  0  0  0  0  0  0  0  0  0
   10.7109  -18.5195   27.3236 O   0  0  0  0  0  0  0  0  0  0  0  0
    6.8381  -14.9646   26.7466 C   0  0  0  0  0  0  0  0  0  0  0  0
    6.0326  -13.9938   26.2156 C   0  0  0  0  0  0  0  0  0  0  0  0
   11.7040  -16.9012   28.5993 O   0  0  0  0  0  0  0  0  0  0  0  0
  1  2  1  0
  2  3  1  0
  3  4  1  0
  4  5  1  0
  5  6  1  6
  7  5  1  0
  8  7  2  0
 10  9  1  6
 10 12  1  0
 11 10  1  0
 12 14  1  0
 12 13  1  6
 13  7  1  0
 14 23  1  0
 15 14  2  0
 16 17  1  0
 17 18  2  0
 17 27  1  0
 18 19  1  0
 19 20  2  0
 20 21  1  0
 22 21  1  1
 22 24  1  0
 23 22  1  0
 24 25  2  0
 24 28  1  0
 26 20  1  0
 27 26  2  0
M  END
$$$$
