MTY.pdb
     RDKit          3D

 28 28  0  0  1  0  0  0  0  0999 V2000
    9.1636  -11.1388   20.4205 C   0  0  0  0  0  0  0  0  0  0  0  0
    8.4635  -11.9931   19.0304 S   0  0  0  0  0  0  0  0  0  0  0  0
    8.5933  -13.7473   18.9869 C   0  0  0  0  0  0  0  0  0  0  0  0
    8.6150  -14.5174   20.2446 C   0  0  0  0  0  0  0  0  0  0  0  0
    8.7180  -16.0040   20.1551 C   0  0  2  0  0  0  0  0  0  0  0  0
    7.7799  -16.5760   19.2275 N   0  0  0  0  0  0  0  0  0  0  0  0
    8.5880  -16.6146   21.5281 C   0  0  0  0  0  0  0  0  0  0  0  0
    7.4779  -17.0006   21.9911 O   0  0  0  0  0  0  0  0  0  0  0  0
   10.1236  -19.7326   22.5583 C   0  0  0  0  0  0  0  0  0  0  0  0
   10.6987  -18.6859   23.4975 C   0  0  1  0  0  0  0  0  0  0  0  0
   11.9782  -18.3943   23.0990 O   0  0  0  0  0  0  0  0  0  0  0  0
    9.7936  -17.4686   23.5453 C   0  0  2  0  0  0  0  0  0  0  0  0
    9.7709  -16.7506   22.3105 N   0  0  0  0  0  0  0  0  0  0  0  0
   10.2615  -16.6255   24.6847 C   0  0  0  0  0  0  0  0  0  0  0  0
   11.1659  -15.7591   24.5357 O   0  0  0  0  0  0  0  0  0  0  0  0
    5.5048  -11.8074   25.5938 O   0  0  0  0  0  0  0  0  0  0  0  0
    6.3639  -12.7393   26.1758 C   0  0  0  0  0  0  0  0  0  0  0  0
    5.9649  -14.0334   26.4335 C   0  0  0  0  0  0  0  0  0  0  0  0
    6.8744  -14.9088   27.0154 C   0  0  0  0  0  0  0  0  0  0  0  0
    8.1581  -14.5344   27.3449 C   0  0  0  0  0  0  0  0  0  0  0  0
    9.0765  -15.4625   27.9514 C   0  0  0  0  0  0  0  0  0  0  0  0
   10.2226  -15.9500   27.1318 C   0  0  2  0  0  0  0  0  0  0  0  0
    9.7245  -16.7430   25.9962 N   0  0  0  0  0  0  0  0  0  0  0  0
   11.1522  -16.7553   27.9561 C   0  0  0  0  0  0  0  0  0  0  0  0
   11.2447  -17.9990   27.7212 O   0  0  0  0  0  0  0  0  0  0  0  0
    8.5226  -13.2287   27.0717 C   0  0  0  0  0  0  0  0  0  0  0  0
    7.6456  -12.3476   26.4992 C   0  0  0  0  0  0  0  0  0  0  0  0
   11.9208  -16.2037   28.9671 O   0  0  0  0  0  0  0  0  0  0  0  0
  1  2  1  0
  2  3  1  0
  3  4  1  0
  4  5  1  0
  5  6  1  6
  7  5  1  0
  8  7  2  0
 10  9  1  6
 10 12  1  0
 11 10  1  0
 12 14  1  0
 12 13  1  6
 13  7  1  0
 14 23  1  0
 15 14  2  0
 16 17  1  0
 17 18  2  0
 17 27  1  0
 18 19  1  0
 19 20  2  0
 20 21  1  0
 22 21  1  1
 22 24  1  0
 23 22  1  0
 24 25  2  0
 24 28  1  0
 26 20  1  0
 27 26  2  0
M  END
$$$$
