MTY.pdb
     RDKit          3D

 28 28  0  0  1  0  0  0  0  0999 V2000
    6.0960  -10.8190   24.9831 C   0  0  0  0  0  0  0  0  0  0  0  0
    6.9723  -12.3041   24.5604 S   0  0  0  0  0  0  0  0  0  0  0  0
    6.0357  -13.7695   24.2937 C   0  0  0  0  0  0  0  0  0  0  0  0
    6.7132  -15.0150   23.8875 C   0  0  0  0  0  0  0  0  0  0  0  0
    7.6869  -14.9475   22.7580 C   0  0  2  0  0  0  0  0  0  0  0  0
    7.0543  -14.7349   21.4844 N   0  0  0  0  0  0  0  0  0  0  0  0
    8.5558  -16.1803   22.7505 C   0  0  0  0  0  0  0  0  0  0  0  0
    8.0737  -17.3436   22.6495 O   0  0  0  0  0  0  0  0  0  0  0  0
   11.4268  -17.6599   20.8853 C   0  0  0  0  0  0  0  0  0  0  0  0
   11.9777  -17.2596   22.2435 C   0  0  1  0  0  0  0  0  0  0  0  0
   12.7593  -16.1432   22.0883 O   0  0  0  0  0  0  0  0  0  0  0  0
   10.8442  -17.0647   23.2337 C   0  0  2  0  0  0  0  0  0  0  0  0
    9.9650  -16.0019   22.8620 N   0  0  0  0  0  0  0  0  0  0  0  0
   11.4703  -16.8434   24.5706 C   0  0  0  0  0  0  0  0  0  0  0  0
   12.1880  -15.8327   24.8031 O   0  0  0  0  0  0  0  0  0  0  0  0
    8.6074  -12.4361   28.3275 O   0  0  0  0  0  0  0  0  0  0  0  0
    9.2296  -13.6813   28.2403 C   0  0  0  0  0  0  0  0  0  0  0  0
    8.6374  -14.7458   27.5949 C   0  0  0  0  0  0  0  0  0  0  0  0
    9.3157  -15.9581   27.5465 C   0  0  0  0  0  0  0  0  0  0  0  0
   10.5556  -16.1380   28.1182 C   0  0  0  0  0  0  0  0  0  0  0  0
   11.2318  -17.4075   28.0561 C   0  0  0  0  0  0  0  0  0  0  0  0
   12.1108  -17.6758   26.8821 C   0  0  2  0  0  0  0  0  0  0  0  0
   11.3002  -17.7467   25.6555 N   0  0  0  0  0  0  0  0  0  0  0  0
   12.8714  -18.9318   27.0721 C   0  0  0  0  0  0  0  0  0  0  0  0
   13.6657  -19.0132   28.0585 O   0  0  0  0  0  0  0  0  0  0  0  0
   11.1183  -15.0481   28.7569 C   0  0  0  0  0  0  0  0  0  0  0  0
   10.4708  -13.8438   28.8180 C   0  0  0  0  0  0  0  0  0  0  0  0
   12.7473  -20.0148   26.2185 O   0  0  0  0  0  0  0  0  0  0  0  0
  1  2  1  0
  2  3  1  0
  3  4  1  0
  4  5  1  0
  5  6  1  6
  7  5  1  0
  8  7  2  0
 10  9  1  6
 10 12  1  0
 11 10  1  0
 12 14  1  0
 12 13  1  6
 13  7  1  0
 14 23  1  0
 15 14  2  0
 16 17  1  0
 17 18  2  0
 17 27  1  0
 18 19  1  0
 19 20  2  0
 20 21  1  0
 22 21  1  1
 22 24  1  0
 23 22  1  0
 24 25  2  0
 24 28  1  0
 26 20  1  0
 27 26  2  0
M  END
$$$$
