MTY.pdb
     RDKit          3D

 28 28  0  0  1  0  0  0  0  0999 V2000
    6.4280  -18.0940   27.2666 C   0  0  0  0  0  0  0  0  0  0  0  0
    6.8007  -19.7160   26.6482 S   0  0  0  0  0  0  0  0  0  0  0  0
    6.8572  -19.9432   24.9043 C   0  0  0  0  0  0  0  0  0  0  0  0
    5.8114  -19.3523   24.0485 C   0  0  0  0  0  0  0  0  0  0  0  0
    5.9581  -19.4850   22.5688 C   0  0  2  0  0  0  0  0  0  0  0  0
    6.2370  -20.8325   22.1517 N   0  0  0  0  0  0  0  0  0  0  0  0
    6.9995  -18.5179   22.0640 C   0  0  0  0  0  0  0  0  0  0  0  0
    8.2014  -18.8591   21.8774 O   0  0  0  0  0  0  0  0  0  0  0  0
    7.8736  -13.6914   21.1999 C   0  0  0  0  0  0  0  0  0  0  0  0
    6.8331  -14.7574   21.4987 C   0  0  1  0  0  0  0  0  0  0  0  0
    5.9494  -14.8139   20.4513 O   0  0  0  0  0  0  0  0  0  0  0  0
    7.5088  -16.0858   21.7852 C   0  0  2  0  0  0  0  0  0  0  0  0
    6.5903  -17.1798   21.7952 N   0  0  0  0  0  0  0  0  0  0  0  0
    8.2273  -15.9348   23.0849 C   0  0  0  0  0  0  0  0  0  0  0  0
    7.8945  -16.6003   24.1032 O   0  0  0  0  0  0  0  0  0  0  0  0
    5.4400  -11.3473   27.1069 O   0  0  0  0  0  0  0  0  0  0  0  0
    6.4048  -12.2889   26.7492 C   0  0  0  0  0  0  0  0  0  0  0  0
    7.7053  -11.9266   26.4705 C   0  0  0  0  0  0  0  0  0  0  0  0
    8.6141  -12.9185   26.1207 C   0  0  0  0  0  0  0  0  0  0  0  0
    8.2666  -14.2487   26.0412 C   0  0  0  0  0  0  0  0  0  0  0  0
    9.2292  -15.2534   25.6714 C   0  0  0  0  0  0  0  0  0  0  0  0
   10.1088  -14.9821   24.4986 C   0  0  2  0  0  0  0  0  0  0  0  0
    9.3204  -15.0417   23.2570 N   0  0  0  0  0  0  0  0  0  0  0  0
   11.2280  -15.9501   24.4470 C   0  0  0  0  0  0  0  0  0  0  0  0
   12.0061  -16.0272   25.4466 O   0  0  0  0  0  0  0  0  0  0  0  0
    6.9534  -14.5744   26.3276 C   0  0  0  0  0  0  0  0  0  0  0  0
    6.0397  -13.6163   26.6746 C   0  0  0  0  0  0  0  0  0  0  0  0
   11.4544  -16.7703   23.3547 O   0  0  0  0  0  0  0  0  0  0  0  0
  1  2  1  0
  2  3  1  0
  3  4  1  0
  4  5  1  0
  5  6  1  1
  7  5  1  0
  8  7  2  0
 10  9  1  6
 10 12  1  0
 11 10  1  0
 12 14  1  0
 12 13  1  1
 13  7  1  0
 14 23  1  0
 15 14  2  0
 16 17  1  0
 17 18  2  0
 17 27  1  0
 18 19  1  0
 19 20  2  0
 20 21  1  0
 22 21  1  1
 22 24  1  0
 23 22  1  0
 24 25  2  0
 24 28  1  0
 26 20  1  0
 27 26  2  0
M  END
$$$$
