ECP.pdb
     RDKit          3D

 23 23  0  0  1  0  0  0  0  0999 V2000
   17.1633  -11.4066  -15.8721 N   0  0  0  0  0  0  0  0  0  0  0  0
   18.4375  -10.7731  -15.8498 C   0  0  1  0  0  0  0  0  0  0  0  0
   19.0383  -10.4488  -17.1658 C   0  0  0  0  0  0  0  0  0  0  0  0
   19.2771  -11.5535  -18.1186 C   0  0  0  0  0  0  0  0  0  0  0  0
   20.0118  -11.2849  -19.3348 C   0  0  0  0  0  0  0  0  0  0  0  0
   21.1869  -10.8840  -19.3753 O   0  0  0  0  0  0  0  0  0  0  0  0
   18.3830   -9.4850  -15.0691 C   0  0  0  0  0  0  0  0  0  0  0  0
   17.3269   -8.7742  -15.1849 O   0  0  0  0  0  0  0  0  0  0  0  0
   19.4049  -11.4727  -20.5934 O   0  0  0  0  0  0  0  0  0  0  0  0
   19.4164   -9.0238  -14.2294 N   0  0  0  0  0  0  0  0  0  0  0  0
   19.3815   -7.7456  -13.5896 C   0  0  1  0  0  0  0  0  0  0  0  0
   19.5835   -7.8517  -12.0837 C   0  0  0  0  0  0  0  0  0  0  0  0
   18.3172   -8.9065  -11.3279 S   0  0  0  0  0  0  0  0  0  0  0  0
   20.1890   -6.6826  -14.1768 C   0  0  0  0  0  0  0  0  0  0  0  0
   21.2185   -7.0753  -14.8551 O   0  0  0  0  0  0  0  0  0  0  0  0
   20.0067   -5.2818  -14.1087 N   0  0  0  0  0  0  0  0  0  0  0  0
   19.0008   -4.4602  -13.4807 C   0  0  0  0  0  0  0  0  0  0  0  0
   18.6473   -3.5360  -14.6464 C   0  0  0  0  0  0  0  0  0  0  0  0
   19.9641   -3.3148  -15.3545 C   0  0  0  0  0  0  0  0  0  0  0  0
   20.9072   -4.3003  -14.7406 C   0  0  1  0  0  0  0  0  0  0  0  0
   21.7714   -3.6468  -13.7442 C   0  0  0  0  0  0  0  0  0  0  0  0
   22.9054   -2.9152  -14.1058 O   0  0  0  0  0  0  0  0  0  0  0  0
   21.5310   -3.7155  -12.5207 O   0  0  0  0  0  0  0  0  0  0  0  0
  2  1  1  6
  2  7  1  0
  3  4  1  0
  3  2  1  0
  4  5  1  0
  5  6  2  0
  7  8  2  0
  9  5  1  0
 10  7  1  0
 10 11  1  0
 11 14  1  0
 12 13  1  0
 11 12  1  1
 14 16  1  0
 15 14  2  0
 16 17  1  0
 16 20  1  0
 17 18  1  0
 18 19  1  0
 20 19  1  0
 20 21  1  1
 21 22  1  0
 23 21  2  0
M  END
$$$$
