ECP.pdb
     RDKit          3D

 23 23  0  0  1  0  0  0  0  0999 V2000
   20.2859  -13.0736  -16.4135 N   0  0  0  0  0  0  0  0  0  0  0  0
   20.5852  -11.7473  -16.8338 C   0  0  1  0  0  0  0  0  0  0  0  0
   20.1116  -11.3582  -18.1836 C   0  0  0  0  0  0  0  0  0  0  0  0
   18.7009  -11.6255  -18.5355 C   0  0  0  0  0  0  0  0  0  0  0  0
   18.2455  -11.3373  -19.8774 C   0  0  0  0  0  0  0  0  0  0  0  0
   18.2407  -12.1559  -20.8119 O   0  0  0  0  0  0  0  0  0  0  0  0
   20.0194  -10.7376  -15.8684 C   0  0  0  0  0  0  0  0  0  0  0  0
   18.8845  -11.0018  -15.3428 O   0  0  0  0  0  0  0  0  0  0  0  0
   17.7620  -10.0551  -20.2087 O   0  0  0  0  0  0  0  0  0  0  0  0
   20.6606   -9.5333  -15.5158 N   0  0  0  0  0  0  0  0  0  0  0  0
   20.0760   -8.5757  -14.6295 C   0  0  1  0  0  0  0  0  0  0  0  0
   21.0964   -7.9916  -13.6615 C   0  0  0  0  0  0  0  0  0  0  0  0
   22.2980   -6.9485  -14.5305 S   0  0  0  0  0  0  0  0  0  0  0  0
   19.2315   -7.5452  -15.2227 C   0  0  0  0  0  0  0  0  0  0  0  0
   19.4241   -7.3247  -16.4830 O   0  0  0  0  0  0  0  0  0  0  0  0
   18.2316   -6.7512  -14.6145 N   0  0  0  0  0  0  0  0  0  0  0  0
   17.6760   -6.7364  -13.2833 C   0  0  0  0  0  0  0  0  0  0  0  0
   16.1840   -6.7466  -13.6183 C   0  0  0  0  0  0  0  0  0  0  0  0
   16.0797   -5.8970  -14.8638 C   0  0  0  0  0  0  0  0  0  0  0  0
   17.4916   -5.6812  -15.3080 C   0  0  1  0  0  0  0  0  0  0  0  0
   17.9699   -4.3494  -14.9029 C   0  0  0  0  0  0  0  0  0  0  0  0
   17.5315   -3.1782  -15.5256 O   0  0  0  0  0  0  0  0  0  0  0  0
   18.7955   -4.2018  -13.9775 O   0  0  0  0  0  0  0  0  0  0  0  0
  2  1  1  1
  2  7  1  0
  3  4  1  0
  3  2  1  0
  4  5  1  0
  5  6  2  0
  7  8  2  0
  9  5  1  0
 10  7  1  0
 10 11  1  0
 11 14  1  0
 12 13  1  0
 11 12  1  6
 14 16  1  0
 15 14  2  0
 16 17  1  0
 16 20  1  0
 17 18  1  0
 18 19  1  0
 20 19  1  0
 20 21  1  1
 21 22  1  0
 23 21  2  0
M  END
$$$$
