ECP.pdb
     RDKit          3D

 23 23  0  0  1  0  0  0  0  0999 V2000
   29.8566  -23.4492  -17.5668 N   0  0  0  0  0  0  0  0  0  0  0  0
   28.5619  -22.8596  -17.6028 C   0  0  1  0  0  0  0  0  0  0  0  0
   27.4243  -23.7760  -17.8556 C   0  0  0  0  0  0  0  0  0  0  0  0
   27.7171  -25.2012  -18.1170 C   0  0  0  0  0  0  0  0  0  0  0  0
   27.5801  -26.1551  -17.0388 C   0  0  0  0  0  0  0  0  0  0  0  0
   27.8380  -27.3668  -17.1319 O   0  0  0  0  0  0  0  0  0  0  0  0
   28.2623  -22.1430  -16.3111 C   0  0  0  0  0  0  0  0  0  0  0  0
   28.6164  -22.7187  -15.2262 O   0  0  0  0  0  0  0  0  0  0  0  0
   27.1267  -25.7403  -15.7700 O   0  0  0  0  0  0  0  0  0  0  0  0
   27.6217  -20.8904  -16.2306 N   0  0  0  0  0  0  0  0  0  0  0  0
   27.2851  -20.2717  -14.9864 C   0  0  1  0  0  0  0  0  0  0  0  0
   27.1423  -18.7610  -15.1167 C   0  0  0  0  0  0  0  0  0  0  0  0
   25.5937  -18.3211  -15.9508 S   0  0  0  0  0  0  0  0  0  0  0  0
   26.1922  -20.8611  -14.2216 C   0  0  0  0  0  0  0  0  0  0  0  0
   25.4365  -21.6843  -14.8739 O   0  0  0  0  0  0  0  0  0  0  0  0
   25.8403  -20.6593  -12.8667 N   0  0  0  0  0  0  0  0  0  0  0  0
   26.4133  -19.8449  -11.8229 C   0  0  0  0  0  0  0  0  0  0  0  0
   26.5056  -20.8789  -10.7002 C   0  0  0  0  0  0  0  0  0  0  0  0
   25.2689  -21.7291  -10.8789 C   0  0  0  0  0  0  0  0  0  0  0  0
   24.7028  -21.3207  -12.2018 C   0  0  1  0  0  0  0  0  0  0  0  0
   23.5732  -20.3937  -12.0239 C   0  0  0  0  0  0  0  0  0  0  0  0
   23.6599  -19.0398  -12.3572 O   0  0  0  0  0  0  0  0  0  0  0  0
   22.4768  -20.7755  -11.5637 O   0  0  0  0  0  0  0  0  0  0  0  0
  2  1  1  1
  2  7  1  0
  3  4  1  0
  3  2  1  0
  4  5  1  0
  5  6  2  0
  7  8  2  0
  9  5  1  0
 10  7  1  0
 10 11  1  0
 11 14  1  0
 12 13  1  0
 11 12  1  6
 14 16  1  0
 15 14  2  0
 16 17  1  0
 16 20  1  0
 17 18  1  0
 18 19  1  0
 20 19  1  0
 20 21  1  1
 21 22  1  0
 23 21  2  0
M  END
$$$$
