ECP.pdb
     RDKit          3D

 23 23  0  0  1  0  0  0  0  0999 V2000
   24.5584  -16.5520  -16.4433 N   0  0  0  0  0  0  0  0  0  0  0  0
   24.5004  -15.4302  -17.3172 C   0  0  1  0  0  0  0  0  0  0  0  0
   23.2587  -15.2742  -18.1121 C   0  0  0  0  0  0  0  0  0  0  0  0
   22.0735  -16.0678  -17.7236 C   0  0  0  0  0  0  0  0  0  0  0  0
   21.8904  -17.3826  -18.2971 C   0  0  0  0  0  0  0  0  0  0  0  0
   22.2954  -18.4388  -17.7837 O   0  0  0  0  0  0  0  0  0  0  0  0
   24.6905  -14.1446  -16.5538 C   0  0  0  0  0  0  0  0  0  0  0  0
   24.0177  -13.9980  -15.4769 O   0  0  0  0  0  0  0  0  0  0  0  0
   21.2125  -17.5401  -19.5231 O   0  0  0  0  0  0  0  0  0  0  0  0
   25.5561  -13.1070  -16.9535 N   0  0  0  0  0  0  0  0  0  0  0  0
   25.6789  -11.8796  -16.2304 C   0  0  1  0  0  0  0  0  0  0  0  0
   27.0584  -11.2546  -16.3906 C   0  0  0  0  0  0  0  0  0  0  0  0
   27.1259   -9.6151  -15.6195 S   0  0  0  0  0  0  0  0  0  0  0  0
   24.6113  -10.8993  -16.3925 C   0  0  0  0  0  0  0  0  0  0  0  0
   24.1318  -10.7911  -17.5894 O   0  0  0  0  0  0  0  0  0  0  0  0
   24.0263  -10.0486  -15.4261 N   0  0  0  0  0  0  0  0  0  0  0  0
   24.2204   -9.9132  -14.0030 C   0  0  0  0  0  0  0  0  0  0  0  0
   22.7657   -9.9434  -13.5328 C   0  0  0  0  0  0  0  0  0  0  0  0
   22.0124   -9.2060  -14.6157 C   0  0  0  0  0  0  0  0  0  0  0  0
   22.9958   -9.0391  -15.7303 C   0  0  1  0  0  0  0  0  0  0  0  0
   23.5608   -7.6798  -15.7306 C   0  0  0  0  0  0  0  0  0  0  0  0
   22.7994   -6.5558  -16.0601 O   0  0  0  0  0  0  0  0  0  0  0  0
   24.7549   -7.4651  -15.4346 O   0  0  0  0  0  0  0  0  0  0  0  0
  2  1  1  1
  2  7  1  0
  3  4  1  0
  3  2  1  0
  4  5  1  0
  5  6  2  0
  7  8  2  0
  9  5  1  0
 10  7  1  0
 10 11  1  0
 11 14  1  0
 12 13  1  0
 11 12  1  6
 14 16  1  0
 15 14  2  0
 16 17  1  0
 16 20  1  0
 17 18  1  0
 18 19  1  0
 20 19  1  0
 20 21  1  1
 21 22  1  0
 23 21  2  0
M  END
$$$$
