ECP.pdb
     RDKit          3D

 23 23  0  0  1  0  0  0  0  0999 V2000
   19.5552  -15.4390  -18.4081 N   0  0  0  0  0  0  0  0  0  0  0  0
   19.0778  -14.6201  -17.3465 C   0  0  1  0  0  0  0  0  0  0  0  0
   19.1386  -15.2012  -15.9840 C   0  0  0  0  0  0  0  0  0  0  0  0
   18.2436  -16.3336  -15.6644 C   0  0  0  0  0  0  0  0  0  0  0  0
   18.2891  -16.9119  -14.3398 C   0  0  0  0  0  0  0  0  0  0  0  0
   17.4195  -16.7474  -13.4679 O   0  0  0  0  0  0  0  0  0  0  0  0
   19.8302  -13.3152  -17.2950 C   0  0  0  0  0  0  0  0  0  0  0  0
   21.1068  -13.3758  -17.2684 O   0  0  0  0  0  0  0  0  0  0  0  0
   19.3709  -17.7287  -13.9526 O   0  0  0  0  0  0  0  0  0  0  0  0
   19.2159  -12.0472  -17.2743 N   0  0  0  0  0  0  0  0  0  0  0  0
   19.9599  -10.8272  -17.2253 C   0  0  1  0  0  0  0  0  0  0  0  0
   20.0053  -10.1279  -18.5775 C   0  0  0  0  0  0  0  0  0  0  0  0
   18.3343   -9.8282  -19.2139 S   0  0  0  0  0  0  0  0  0  0  0  0
   19.6545   -9.9019  -16.1402 C   0  0  0  0  0  0  0  0  0  0  0  0
   18.4751  -10.0213  -15.6218 O   0  0  0  0  0  0  0  0  0  0  0  0
   20.4655   -8.8907  -15.5745 N   0  0  0  0  0  0  0  0  0  0  0  0
   21.7729   -8.3862  -15.9167 C   0  0  0  0  0  0  0  0  0  0  0  0
   22.4406   -8.4252  -14.5416 C   0  0  0  0  0  0  0  0  0  0  0  0
   21.3333   -8.0522  -13.5830 C   0  0  0  0  0  0  0  0  0  0  0  0
   20.0818   -8.0845  -14.4014 C   0  0  1  0  0  0  0  0  0  0  0  0
   19.6783   -6.7245  -14.7946 C   0  0  0  0  0  0  0  0  0  0  0  0
   19.1136   -5.8230  -13.8889 O   0  0  0  0  0  0  0  0  0  0  0  0
   19.8224   -6.3091  -15.9634 O   0  0  0  0  0  0  0  0  0  0  0  0
  2  1  1  6
  2  7  1  0
  3  4  1  0
  3  2  1  0
  4  5  1  0
  5  6  2  0
  7  8  2  0
  9  5  1  0
 10  7  1  0
 10 11  1  0
 11 14  1  0
 12 13  1  0
 11 12  1  6
 14 16  1  0
 15 14  2  0
 16 17  1  0
 16 20  1  0
 17 18  1  0
 18 19  1  0
 20 19  1  0
 20 21  1  6
 21 22  1  0
 23 21  2  0
M  END
$$$$
