ECP.pdb
     RDKit          3D

 23 23  0  0  1  0  0  0  0  0999 V2000
   19.3998  -15.3717  -17.1686 N   0  0  0  0  0  0  0  0  0  0  0  0
   19.3057  -14.0805  -17.7596 C   0  0  1  0  0  0  0  0  0  0  0  0
   17.9591  -13.4608  -17.7846 C   0  0  0  0  0  0  0  0  0  0  0  0
   16.9027  -14.1119  -18.5879 C   0  0  0  0  0  0  0  0  0  0  0  0
   16.3540  -13.4100  -19.7268 C   0  0  0  0  0  0  0  0  0  0  0  0
   17.0258  -12.9671  -20.6733 O   0  0  0  0  0  0  0  0  0  0  0  0
   20.2192  -13.1039  -17.0642 C   0  0  0  0  0  0  0  0  0  0  0  0
   20.1013  -12.9925  -15.7963 O   0  0  0  0  0  0  0  0  0  0  0  0
   14.9662  -13.1822  -19.8260 O   0  0  0  0  0  0  0  0  0  0  0  0
   21.1840  -12.3156  -17.7226 N   0  0  0  0  0  0  0  0  0  0  0  0
   21.9698  -11.3300  -17.0477 C   0  0  1  0  0  0  0  0  0  0  0  0
   23.3183  -11.1114  -17.7210 C   0  0  0  0  0  0  0  0  0  0  0  0
   24.4596  -12.4714  -17.3533 S   0  0  0  0  0  0  0  0  0  0  0  0
   21.3159  -10.0709  -16.7101 C   0  0  0  0  0  0  0  0  0  0  0  0
   20.3712   -9.7012  -17.5132 O   0  0  0  0  0  0  0  0  0  0  0  0
   21.5691   -9.1954  -15.6287 N   0  0  0  0  0  0  0  0  0  0  0  0
   22.4946   -9.2552  -14.5237 C   0  0  0  0  0  0  0  0  0  0  0  0
   21.5447   -8.9497  -13.3651 C   0  0  0  0  0  0  0  0  0  0  0  0
   20.5779   -7.9388  -13.9373 C   0  0  0  0  0  0  0  0  0  0  0  0
   20.8512   -7.9269  -15.4078 C   0  0  1  0  0  0  0  0  0  0  0  0
   21.6827   -6.7694  -15.7762 C   0  0  0  0  0  0  0  0  0  0  0  0
   23.0103   -6.9061  -16.1891 O   0  0  0  0  0  0  0  0  0  0  0  0
   21.2385   -5.6029  -15.7370 O   0  0  0  0  0  0  0  0  0  0  0  0
  2  1  1  1
  2  7  1  0
  3  4  1  0
  3  2  1  0
  4  5  1  0
  5  6  2  0
  7  8  2  0
  9  5  1  0
 10  7  1  0
 10 11  1  0
 11 14  1  0
 12 13  1  0
 11 12  1  6
 14 16  1  0
 15 14  2  0
 16 17  1  0
 16 20  1  0
 17 18  1  0
 18 19  1  0
 20 19  1  0
 20 21  1  1
 21 22  1  0
 23 21  2  0
M  END
$$$$
