ECP.pdb
     RDKit          3D

 23 23  0  0  1  0  0  0  0  0999 V2000
   19.8983  -13.0019  -16.0217 N   0  0  0  0  0  0  0  0  0  0  0  0
   20.8027  -12.4760  -16.9865 C   0  0  1  0  0  0  0  0  0  0  0  0
   20.7792  -13.1065  -18.3281 C   0  0  0  0  0  0  0  0  0  0  0  0
   19.6365  -13.9787  -18.6727 C   0  0  0  0  0  0  0  0  0  0  0  0
   19.8957  -15.2883  -19.2286 C   0  0  0  0  0  0  0  0  0  0  0  0
   19.0169  -16.0810  -19.6063 O   0  0  0  0  0  0  0  0  0  0  0  0
   20.5669  -11.0022  -17.1962 C   0  0  0  0  0  0  0  0  0  0  0  0
   19.8646  -10.6596  -18.2079 O   0  0  0  0  0  0  0  0  0  0  0  0
   21.2183  -15.7533  -19.3772 O   0  0  0  0  0  0  0  0  0  0  0  0
   21.0698   -9.9920  -16.3524 N   0  0  0  0  0  0  0  0  0  0  0  0
   20.6736   -8.6226  -16.4631 C   0  0  1  0  0  0  0  0  0  0  0  0
   19.1597   -8.4589  -16.4350 C   0  0  0  0  0  0  0  0  0  0  0  0
   18.4794   -8.9522  -14.8284 S   0  0  0  0  0  0  0  0  0  0  0  0
   21.3445   -7.6611  -15.5958 C   0  0  0  0  0  0  0  0  0  0  0  0
   21.7340   -8.1210  -14.4508 O   0  0  0  0  0  0  0  0  0  0  0  0
   21.6289   -6.2954  -15.8287 N   0  0  0  0  0  0  0  0  0  0  0  0
   21.2497   -5.3882  -16.8843 C   0  0  0  0  0  0  0  0  0  0  0  0
   22.6163   -4.7942  -17.2274 C   0  0  0  0  0  0  0  0  0  0  0  0
   23.3220   -4.6981  -15.8945 C   0  0  0  0  0  0  0  0  0  0  0  0
   22.4595   -5.4619  -14.9406 C   0  0  1  0  0  0  0  0  0  0  0  0
   21.6327   -4.5478  -14.1358 C   0  0  0  0  0  0  0  0  0  0  0  0
   20.2559   -4.4173  -14.3343 O   0  0  0  0  0  0  0  0  0  0  0  0
   22.1252   -3.8410  -13.2316 O   0  0  0  0  0  0  0  0  0  0  0  0
  2  1  1  1
  2  7  1  0
  3  4  1  0
  3  2  1  0
  4  5  1  0
  5  6  2  0
  7  8  2  0
  9  5  1  0
 10  7  1  0
 10 11  1  0
 11 14  1  0
 12 13  1  0
 11 12  1  1
 14 16  1  0
 15 14  2  0
 16 17  1  0
 16 20  1  0
 17 18  1  0
 18 19  1  0
 20 19  1  0
 20 21  1  6
 21 22  1  0
 23 21  2  0
M  END
$$$$
