ECP.pdb
     RDKit          3D

 23 23  0  0  1  0  0  0  0  0999 V2000
   19.7283  -11.5657  -15.7971 N   0  0  0  0  0  0  0  0  0  0  0  0
   20.4085  -10.6135  -16.6071 C   0  0  1  0  0  0  0  0  0  0  0  0
   20.0656  -10.6065  -18.0494 C   0  0  0  0  0  0  0  0  0  0  0  0
   20.3062  -11.8368  -18.8330 C   0  0  0  0  0  0  0  0  0  0  0  0
   21.6677  -12.2388  -19.1080 C   0  0  0  0  0  0  0  0  0  0  0  0
   22.1056  -13.3924  -18.9633 O   0  0  0  0  0  0  0  0  0  0  0  0
   20.1762   -9.2135  -16.0998 C   0  0  0  0  0  0  0  0  0  0  0  0
   19.2409   -9.0482  -15.2443 O   0  0  0  0  0  0  0  0  0  0  0  0
   22.6102  -11.3003  -19.5753 O   0  0  0  0  0  0  0  0  0  0  0  0
   20.9209   -8.0893  -16.5088 N   0  0  0  0  0  0  0  0  0  0  0  0
   21.0031   -6.8911  -15.7330 C   0  0  1  0  0  0  0  0  0  0  0  0
   21.3572   -7.1722  -14.2786 C   0  0  0  0  0  0  0  0  0  0  0  0
   21.6793   -5.6332  -13.3759 S   0  0  0  0  0  0  0  0  0  0  0  0
   21.7857   -5.7909  -16.2843 C   0  0  0  0  0  0  0  0  0  0  0  0
   23.0339   -6.0510  -16.5048 O   0  0  0  0  0  0  0  0  0  0  0  0
   21.3734   -4.4782  -16.6113 N   0  0  0  0  0  0  0  0  0  0  0  0
   20.1488   -3.7542  -16.3717 C   0  0  0  0  0  0  0  0  0  0  0  0
   19.8812   -3.2132  -17.7767 C   0  0  0  0  0  0  0  0  0  0  0  0
   21.2564   -2.9002  -18.3197 C   0  0  0  0  0  0  0  0  0  0  0  0
   22.2099   -3.5075  -17.3403 C   0  0  1  0  0  0  0  0  0  0  0  0
   22.7537   -2.4822  -16.4348 C   0  0  0  0  0  0  0  0  0  0  0  0
   22.4727   -2.4710  -15.0663 O   0  0  0  0  0  0  0  0  0  0  0  0
   23.4966   -1.5678  -16.8490 O   0  0  0  0  0  0  0  0  0  0  0  0
  2  1  1  1
  2  7  1  0
  3  4  1  0
  3  2  1  0
  4  5  1  0
  5  6  2  0
  7  8  2  0
  9  5  1  0
 10  7  1  0
 10 11  1  0
 11 14  1  0
 12 13  1  0
 11 12  1  1
 14 16  1  0
 15 14  2  0
 16 17  1  0
 16 20  1  0
 17 18  1  0
 18 19  1  0
 20 19  1  0
 20 21  1  1
 21 22  1  0
 23 21  2  0
M  END
$$$$
