ECP.pdb
     RDKit          3D

 23 23  0  0  1  0  0  0  0  0999 V2000
   15.1261  -12.0121  -14.7329 N   0  0  0  0  0  0  0  0  0  0  0  0
   16.5223  -11.7569  -14.6296 C   0  0  1  0  0  0  0  0  0  0  0  0
   17.3767  -12.3043  -15.7105 C   0  0  0  0  0  0  0  0  0  0  0  0
   17.4709  -13.7726  -15.8537 C   0  0  0  0  0  0  0  0  0  0  0  0
   18.3748  -14.3252  -16.8379 C   0  0  0  0  0  0  0  0  0  0  0  0
   18.0480  -15.1397  -17.7173 O   0  0  0  0  0  0  0  0  0  0  0  0
   16.7944  -10.2756  -14.5704 C   0  0  0  0  0  0  0  0  0  0  0  0
   16.0268   -9.5115  -15.2492 O   0  0  0  0  0  0  0  0  0  0  0  0
   19.7341  -13.9514  -16.8505 O   0  0  0  0  0  0  0  0  0  0  0  0
   17.8337   -9.6909  -13.8197 N   0  0  0  0  0  0  0  0  0  0  0  0
   18.0021   -8.2759  -13.7019 C   0  0  1  0  0  0  0  0  0  0  0  0
   17.2626   -7.7081  -12.4977 C   0  0  0  0  0  0  0  0  0  0  0  0
   17.7322   -8.5738  -10.9754 S   0  0  0  0  0  0  0  0  0  0  0  0
   19.3598   -7.7539  -13.8068 C   0  0  0  0  0  0  0  0  0  0  0  0
   20.2953   -8.5491  -13.3985 O   0  0  0  0  0  0  0  0  0  0  0  0
   19.7991   -6.4998  -14.2911 N   0  0  0  0  0  0  0  0  0  0  0  0
   19.0908   -5.3459  -14.7887 C   0  0  0  0  0  0  0  0  0  0  0  0
   19.8658   -5.0966  -16.0831 C   0  0  0  0  0  0  0  0  0  0  0  0
   21.2939   -5.4437  -15.7307 C   0  0  0  0  0  0  0  0  0  0  0  0
   21.2156   -6.1034  -14.3906 C   0  0  1  0  0  0  0  0  0  0  0  0
   21.5848   -5.1614  -13.3213 C   0  0  0  0  0  0  0  0  0  0  0  0
   22.9139   -4.8342  -13.0418 O   0  0  0  0  0  0  0  0  0  0  0  0
   20.7224   -4.6065  -12.6086 O   0  0  0  0  0  0  0  0  0  0  0  0
  2  1  1  6
  2  7  1  0
  3  4  1  0
  3  2  1  0
  4  5  1  0
  5  6  2  0
  7  8  2  0
  9  5  1  0
 10  7  1  0
 10 11  1  0
 11 14  1  0
 12 13  1  0
 11 12  1  1
 14 16  1  0
 15 14  2  0
 16 17  1  0
 16 20  1  0
 17 18  1  0
 18 19  1  0
 20 19  1  0
 20 21  1  1
 21 22  1  0
 23 21  2  0
M  END
$$$$
