ECP.pdb
     RDKit          3D

 23 23  0  0  1  0  0  0  0  0999 V2000
   18.9335  -13.0061  -17.2373 N   0  0  0  0  0  0  0  0  0  0  0  0
   20.0226  -12.2276  -16.7544 C   0  0  1  0  0  0  0  0  0  0  0  0
   21.2934  -12.3263  -17.5115 C   0  0  0  0  0  0  0  0  0  0  0  0
   21.2559  -12.1167  -18.9744 C   0  0  0  0  0  0  0  0  0  0  0  0
   22.3394  -11.3994  -19.6087 C   0  0  0  0  0  0  0  0  0  0  0  0
   23.4441  -11.8938  -19.8890 O   0  0  0  0  0  0  0  0  0  0  0  0
   19.6585  -10.7658  -16.7076 C   0  0  0  0  0  0  0  0  0  0  0  0
   18.6180  -10.4004  -17.3539 O   0  0  0  0  0  0  0  0  0  0  0  0
   22.1911  -10.0414  -19.9572 O   0  0  0  0  0  0  0  0  0  0  0  0
   20.3898   -9.7899  -16.0016 N   0  0  0  0  0  0  0  0  0  0  0  0
   19.9165   -8.4539  -15.8131 C   0  0  1  0  0  0  0  0  0  0  0  0
   18.5183   -8.4199  -15.2105 C   0  0  0  0  0  0  0  0  0  0  0  0
   18.5003   -9.1698  -13.5599 S   0  0  0  0  0  0  0  0  0  0  0  0
   20.8178   -7.5122  -15.1590 C   0  0  0  0  0  0  0  0  0  0  0  0
   21.7304   -8.0428  -14.4109 O   0  0  0  0  0  0  0  0  0  0  0  0
   20.8347   -6.0996  -15.2258 N   0  0  0  0  0  0  0  0  0  0  0  0
   19.9271   -5.1414  -15.8082 C   0  0  0  0  0  0  0  0  0  0  0  0
   20.9169   -4.2846  -16.5983 C   0  0  0  0  0  0  0  0  0  0  0  0
   22.1489   -4.2429  -15.7240 C   0  0  0  0  0  0  0  0  0  0  0  0
   21.9024   -5.2588  -14.6542 C   0  0  1  0  0  0  0  0  0  0  0  0
   21.4641   -4.6101  -13.4076 C   0  0  0  0  0  0  0  0  0  0  0  0
   22.3552   -3.9533  -12.5554 O   0  0  0  0  0  0  0  0  0  0  0  0
   20.2676   -4.6159  -13.0500 O   0  0  0  0  0  0  0  0  0  0  0  0
  2  1  1  6
  2  7  1  0
  3  4  1  0
  3  2  1  0
  4  5  1  0
  5  6  2  0
  7  8  2  0
  9  5  1  0
 10  7  1  0
 10 11  1  0
 11 14  1  0
 12 13  1  0
 11 12  1  1
 14 16  1  0
 15 14  2  0
 16 17  1  0
 16 20  1  0
 17 18  1  0
 18 19  1  0
 20 19  1  0
 20 21  1  1
 21 22  1  0
 23 21  2  0
M  END
$$$$
