YID.pdb
     RDKit          3D

 29 29  0  0  1  0  0  0  0  0999 V2000
   27.2010  -15.0570  -21.4760 O   0  0  0  0  0  0  0  0  0  0  0  0
   26.8265  -16.0337  -20.5445 C   0  0  0  0  0  0  0  0  0  0  0  0
   26.7190  -17.3489  -20.9788 C   0  0  0  0  0  0  0  0  0  0  0  0
   26.3531  -18.3218  -20.0810 C   0  0  0  0  0  0  0  0  0  0  0  0
   26.1001  -17.9897  -18.7788 C   0  0  0  0  0  0  0  0  0  0  0  0
   25.7070  -19.0176  -17.8031 C   0  0  0  0  0  0  0  0  0  0  0  0
   26.8863  -19.6168  -17.0742 C   0  0  2  0  0  0  0  0  0  0  0  0
   27.7028  -20.4249  -17.9494 N   0  0  0  0  0  0  0  0  0  0  0  0
   26.3384  -20.5100  -16.0141 C   0  0  0  0  0  0  0  0  0  0  0  0
   26.0838  -21.7147  -16.2637 O   0  0  0  0  0  0  0  0  0  0  0  0
   26.2021  -16.6848  -18.3283 C   0  0  0  0  0  0  0  0  0  0  0  0
   26.5676  -15.7164  -19.2274 C   0  0  0  0  0  0  0  0  0  0  0  0
   28.5870  -20.7847  -11.2543 C   0  0  0  0  0  0  0  0  0  0  0  0
   27.8846  -21.2013  -12.5684 C   0  0  0  0  0  0  0  0  0  0  0  0
   26.4572  -20.8374  -12.4472 C   0  0  2  0  0  0  0  0  0  0  0  0
   25.8557  -21.7479  -11.3639 C   0  0  0  0  0  0  0  0  0  0  0  0
   25.6350  -21.0133  -13.7000 C   0  0  2  0  0  0  0  0  0  0  0  0
   26.0881  -20.0387  -14.7030 N   0  0  0  0  0  0  0  0  0  0  0  0
   24.2313  -20.6538  -13.4213 C   0  0  0  0  0  0  0  0  0  0  0  0
   23.9063  -19.4548  -13.0835 O   0  0  0  0  0  0  0  0  0  0  0  0
   23.1150  -21.5391  -13.4941 N   0  0  0  0  0  0  0  0  0  0  0  0
   21.7842  -21.0394  -13.3476 C   0  0  1  0  0  0  0  0  0  0  0  0
   20.7702  -21.7966  -14.1788 C   0  0  0  0  0  0  0  0  0  0  0  0
   19.3940  -21.3251  -14.0176 C   0  0  0  0  0  0  0  0  0  0  0  0
   19.1700  -20.3108  -13.3162 O   0  0  0  0  0  0  0  0  0  0  0  0
   21.3923  -21.1001  -11.9285 C   0  0  0  0  0  0  0  0  0  0  0  0
   20.5985  -20.1648  -11.2997 O   0  0  0  0  0  0  0  0  0  0  0  0
   18.3074  -21.9538  -14.6111 O   0  0  0  0  0  0  0  0  0  0  0  0
   21.8101  -22.0759  -11.2320 O   0  0  0  0  0  0  0  0  0  0  0  0
  2  3  2  0
  2  1  1  0
  4  3  1  0
  5  4  2  0
  6  5  1  0
  7  6  1  0
  7  8  1  6
  9 18  1  0
  9  7  1  0
 10  9  2  0
 11  5  1  0
 11 12  2  0
 12  2  1  0
 13 14  1  0
 14 15  1  0
 15 17  1  0
 15 16  1  1
 17 18  1  6
 19 17  1  0
 20 19  2  0
 21 19  1  0
 22 26  1  0
 22 21  1  0
 23 24  1  0
 22 23  1  6
 24 25  2  0
 26 27  1  0
 28 24  1  0
 29 26  2  0
M  END
$$$$
