YID.pdb
     RDKit          3D

 29 29  0  0  1  0  0  0  0  0999 V2000
   30.1557  -15.7153  -18.8474 O   0  0  0  0  0  0  0  0  0  0  0  0
   29.3283  -16.5764  -18.1155 C   0  0  0  0  0  0  0  0  0  0  0  0
   29.0763  -17.8415  -18.6312 C   0  0  0  0  0  0  0  0  0  0  0  0
   28.2675  -18.7011  -17.9288 C   0  0  0  0  0  0  0  0  0  0  0  0
   27.7222  -18.3071  -16.7383 C   0  0  0  0  0  0  0  0  0  0  0  0
   26.8537  -19.2136  -15.9720 C   0  0  0  0  0  0  0  0  0  0  0  0
   27.6254  -20.1191  -15.0416 C   0  0  2  0  0  0  0  0  0  0  0  0
   28.3679  -21.1241  -15.7656 N   0  0  0  0  0  0  0  0  0  0  0  0
   26.6272  -20.8223  -14.1868 C   0  0  0  0  0  0  0  0  0  0  0  0
   26.1870  -21.9516  -14.5174 O   0  0  0  0  0  0  0  0  0  0  0  0
   27.9622  -17.0507  -16.2091 C   0  0  0  0  0  0  0  0  0  0  0  0
   28.7701  -16.1954  -16.9132 C   0  0  0  0  0  0  0  0  0  0  0  0
   26.6464  -20.4455   -8.6771 C   0  0  0  0  0  0  0  0  0  0  0  0
   26.5883  -21.1032  -10.0763 C   0  0  0  0  0  0  0  0  0  0  0  0
   25.3463  -20.6457  -10.7341 C   0  0  2  0  0  0  0  0  0  0  0  0
   24.1750  -21.2726   -9.9597 C   0  0  0  0  0  0  0  0  0  0  0  0
   25.1979  -21.0382  -12.1833 C   0  0  2  0  0  0  0  0  0  0  0  0
   26.1446  -20.2499  -12.9854 N   0  0  0  0  0  0  0  0  0  0  0  0
   23.8612  -20.6412  -12.6659 C   0  0  0  0  0  0  0  0  0  0  0  0
   23.5243  -19.4013  -12.7458 O   0  0  0  0  0  0  0  0  0  0  0  0
   22.8307  -21.5319  -13.0897 N   0  0  0  0  0  0  0  0  0  0  0  0
   21.5794  -21.0220  -13.5549 C   0  0  1  0  0  0  0  0  0  0  0  0
   20.9880  -21.8382  -14.6848 C   0  0  0  0  0  0  0  0  0  0  0  0
   19.6988  -21.3424  -15.1687 C   0  0  0  0  0  0  0  0  0  0  0  0
   19.5694  -20.1245  -15.4352 O   0  0  0  0  0  0  0  0  0  0  0  0
   20.6228  -20.9770  -12.4352 C   0  0  0  0  0  0  0  0  0  0  0  0
   19.6164  -20.0433  -12.3084 O   0  0  0  0  0  0  0  0  0  0  0  0
   18.5948  -22.1650  -15.3503 O   0  0  0  0  0  0  0  0  0  0  0  0
   20.7262  -21.8531  -11.5221 O   0  0  0  0  0  0  0  0  0  0  0  0
  2  3  2  0
  2  1  1  0
  4  3  1  0
  5  4  2  0
  6  5  1  0
  7  6  1  0
  7  8  1  6
  9 18  1  0
  9  7  1  0
 10  9  2  0
 11  5  1  0
 11 12  2  0
 12  2  1  0
 13 14  1  0
 14 15  1  0
 15 17  1  0
 15 16  1  1
 17 18  1  6
 19 17  1  0
 20 19  2  0
 21 19  1  0
 22 26  1  0
 22 21  1  0
 23 24  1  0
 22 23  1  6
 24 25  2  0
 26 27  1  0
 28 24  1  0
 29 26  2  0
M  END
$$$$
