YID.pdb
     RDKit          3D

 29 29  0  0  1  0  0  0  0  0999 V2000
   17.0012  -13.8565  -22.1573 O   0  0  0  0  0  0  0  0  0  0  0  0
   17.6672  -13.2283  -21.0972 C   0  0  0  0  0  0  0  0  0  0  0  0
   17.0092  -13.1229  -19.8782 C   0  0  0  0  0  0  0  0  0  0  0  0
   17.6450  -12.5104  -18.8260 C   0  0  0  0  0  0  0  0  0  0  0  0
   18.9090  -12.0142  -18.9866 C   0  0  0  0  0  0  0  0  0  0  0  0
   19.6057  -11.3551  -17.8715 C   0  0  0  0  0  0  0  0  0  0  0  0
   20.7092  -12.2033  -17.2851 C   0  0  2  0  0  0  0  0  0  0  0  0
   20.1896  -13.3830  -16.6338 N   0  0  0  0  0  0  0  0  0  0  0  0
   21.3924  -11.3782  -16.2488 C   0  0  0  0  0  0  0  0  0  0  0  0
   21.0627  -11.4709  -15.0400 O   0  0  0  0  0  0  0  0  0  0  0  0
   19.5799  -12.1102  -20.1936 C   0  0  0  0  0  0  0  0  0  0  0  0
   18.9420  -12.7223  -21.2416 C   0  0  0  0  0  0  0  0  0  0  0  0
   26.5958  -11.1590  -15.6345 C   0  0  0  0  0  0  0  0  0  0  0  0
   25.0765  -11.1929  -15.3442 C   0  0  0  0  0  0  0  0  0  0  0  0
   24.5429   -9.8377  -15.5958 C   0  0  2  0  0  0  0  0  0  0  0  0
   25.1663   -8.9102  -14.5395 C   0  0  0  0  0  0  0  0  0  0  0  0
   23.0436   -9.7024  -15.4948 C   0  0  2  0  0  0  0  0  0  0  0  0
   22.4256  -10.4708  -16.5850 N   0  0  0  0  0  0  0  0  0  0  0  0
   22.6584   -8.3003  -15.7461 C   0  0  0  0  0  0  0  0  0  0  0  0
   22.9926   -7.7043  -16.8372 O   0  0  0  0  0  0  0  0  0  0  0  0
   21.9013   -7.4740  -14.8637 N   0  0  0  0  0  0  0  0  0  0  0  0
   21.6344   -6.1107  -15.1991 C   0  0  1  0  0  0  0  0  0  0  0  0
   20.2147   -5.6883  -14.8852 C   0  0  0  0  0  0  0  0  0  0  0  0
   19.1919   -6.4562  -15.5966 C   0  0  0  0  0  0  0  0  0  0  0  0
   19.3336   -6.6818  -16.8214 O   0  0  0  0  0  0  0  0  0  0  0  0
   22.5733   -5.2360  -14.4750 C   0  0  0  0  0  0  0  0  0  0  0  0
   22.8410   -3.9280  -14.8187 O   0  0  0  0  0  0  0  0  0  0  0  0
   18.0552   -6.9553  -14.9745 O   0  0  0  0  0  0  0  0  0  0  0  0
   23.1804   -5.7118  -13.4665 O   0  0  0  0  0  0  0  0  0  0  0  0
  2  3  2  0
  2  1  1  0
  4  3  1  0
  5  4  2  0
  6  5  1  0
  7  6  1  0
  7  8  1  1
  9 18  1  0
  9  7  1  0
 10  9  2  0
 11  5  1  0
 11 12  2  0
 12  2  1  0
 13 14  1  0
 14 15  1  0
 15 17  1  0
 15 16  1  1
 17 18  1  6
 19 17  1  0
 20 19  2  0
 21 19  1  0
 22 26  1  0
 22 21  1  0
 23 24  1  0
 22 23  1  1
 24 25  2  0
 26 27  1  0
 28 24  1  0
 29 26  2  0
M  END
$$$$
