YID.pdb
     RDKit          3D

 29 29  0  0  1  0  0  0  0  0999 V2000
   18.6820  -14.5746  -24.0545 O   0  0  0  0  0  0  0  0  0  0  0  0
   19.0317  -13.9828  -22.8341 C   0  0  0  0  0  0  0  0  0  0  0  0
   18.0476  -13.8497  -21.8626 C   0  0  0  0  0  0  0  0  0  0  0  0
   18.3701  -13.2721  -20.6590 C   0  0  0  0  0  0  0  0  0  0  0  0
   19.6460  -12.8369  -20.4298 C   0  0  0  0  0  0  0  0  0  0  0  0
   20.0101  -12.2158  -19.1473 C   0  0  0  0  0  0  0  0  0  0  0  0
   21.1334  -12.9388  -18.4427 C   0  0  2  0  0  0  0  0  0  0  0  0
   20.7271  -14.2489  -17.9907 N   0  0  0  0  0  0  0  0  0  0  0  0
   21.4854  -12.1339  -17.2387 C   0  0  0  0  0  0  0  0  0  0  0  0
   20.9946  -12.4157  -16.1170 O   0  0  0  0  0  0  0  0  0  0  0  0
   20.6392  -12.9612  -21.3859 C   0  0  0  0  0  0  0  0  0  0  0  0
   20.3136  -13.5384  -22.5862 C   0  0  0  0  0  0  0  0  0  0  0  0
   26.3719  -11.1715  -15.6303 C   0  0  0  0  0  0  0  0  0  0  0  0
   24.8541  -11.4699  -15.6625 C   0  0  0  0  0  0  0  0  0  0  0  0
   24.1521  -10.1916  -15.9027 C   0  0  2  0  0  0  0  0  0  0  0  0
   24.4182   -9.3003  -14.6782 C   0  0  0  0  0  0  0  0  0  0  0  0
   22.6569  -10.2959  -16.0755 C   0  0  2  0  0  0  0  0  0  0  0  0
   22.3751  -11.0354  -17.3143 N   0  0  0  0  0  0  0  0  0  0  0  0
   22.0922   -8.9502  -16.2942 C   0  0  0  0  0  0  0  0  0  0  0  0
   22.3900   -8.2666  -17.3436 O   0  0  0  0  0  0  0  0  0  0  0  0
   21.1875   -8.2753  -15.4219 N   0  0  0  0  0  0  0  0  0  0  0  0
   20.7520   -6.9468  -15.7179 C   0  0  1  0  0  0  0  0  0  0  0  0
   19.3474   -6.8934  -16.2810 C   0  0  0  0  0  0  0  0  0  0  0  0
   18.8366   -5.5370  -16.4843 C   0  0  0  0  0  0  0  0  0  0  0  0
   19.6362   -4.6157  -16.7719 O   0  0  0  0  0  0  0  0  0  0  0  0
   20.8173   -6.1267  -14.4956 C   0  0  0  0  0  0  0  0  0  0  0  0
   20.7706   -4.7490  -14.4793 O   0  0  0  0  0  0  0  0  0  0  0  0
   17.4906   -5.2139  -16.3731 O   0  0  0  0  0  0  0  0  0  0  0  0
   20.9242   -6.7216  -13.3791 O   0  0  0  0  0  0  0  0  0  0  0  0
  2  3  2  0
  2  1  1  0
  4  3  1  0
  5  4  2  0
  6  5  1  0
  7  6  1  0
  7  8  1  1
  9 18  1  0
  9  7  1  0
 10  9  2  0
 11  5  1  0
 11 12  2  0
 12  2  1  0
 13 14  1  0
 14 15  1  0
 15 17  1  0
 15 16  1  1
 17 18  1  6
 19 17  1  0
 20 19  2  0
 21 19  1  0
 22 26  1  0
 22 21  1  0
 23 24  1  0
 22 23  1  1
 24 25  2  0
 26 27  1  0
 28 24  1  0
 29 26  2  0
M  END
$$$$
