YID.pdb
     RDKit          3D

 29 29  0  0  1  0  0  0  0  0999 V2000
   22.3196  -29.8331   -9.7043 O   0  0  0  0  0  0  0  0  0  0  0  0
   23.1917  -30.6735   -9.0007 C   0  0  0  0  0  0  0  0  0  0  0  0
   24.4151  -30.1571   -8.5922 C   0  0  0  0  0  0  0  0  0  0  0  0
   25.2846  -30.9648   -7.9010 C   0  0  0  0  0  0  0  0  0  0  0  0
   24.9412  -32.2590   -7.6234 C   0  0  0  0  0  0  0  0  0  0  0  0
   25.8591  -33.1390   -6.8844 C   0  0  0  0  0  0  0  0  0  0  0  0
   27.0496  -33.5701   -7.7078 C   0  0  2  0  0  0  0  0  0  0  0  0
   26.6667  -34.4618   -8.7774 N   0  0  0  0  0  0  0  0  0  0  0  0
   27.9627  -34.3196   -6.7990 C   0  0  0  0  0  0  0  0  0  0  0  0
   27.8704  -35.5678   -6.6893 O   0  0  0  0  0  0  0  0  0  0  0  0
   23.7269  -32.7905   -8.0224 C   0  0  0  0  0  0  0  0  0  0  0  0
   22.8615  -31.9811   -8.7122 C   0  0  0  0  0  0  0  0  0  0  0  0
   33.2327  -32.9817   -6.5154 C   0  0  0  0  0  0  0  0  0  0  0  0
   31.9664  -33.8627   -6.6340 C   0  0  0  0  0  0  0  0  0  0  0  0
   31.2672  -33.8180   -5.3326 C   0  0  2  0  0  0  0  0  0  0  0  0
   32.1714  -34.5347   -4.3162 C   0  0  0  0  0  0  0  0  0  0  0  0
   29.9177  -34.4920   -5.2985 C   0  0  2  0  0  0  0  0  0  0  0  0
   28.9555  -33.6601   -6.0353 N   0  0  0  0  0  0  0  0  0  0  0  0
   29.4175  -34.5208   -3.9105 C   0  0  0  0  0  0  0  0  0  0  0  0
   29.0863  -33.4366   -3.3004 O   0  0  0  0  0  0  0  0  0  0  0  0
   29.2395  -35.6906   -3.1139 N   0  0  0  0  0  0  0  0  0  0  0  0
   28.7016  -35.5922   -1.7935 C   0  0  1  0  0  0  0  0  0  0  0  0
   27.6328  -36.6262   -1.5086 C   0  0  0  0  0  0  0  0  0  0  0  0
   27.2006  -36.6690   -0.1109 C   0  0  0  0  0  0  0  0  0  0  0  0
   27.6862  -35.8535    0.7078 O   0  0  0  0  0  0  0  0  0  0  0  0
   29.7897  -35.7339   -0.8102 C   0  0  0  0  0  0  0  0  0  0  0  0
   29.8546  -35.0465    0.3830 O   0  0  0  0  0  0  0  0  0  0  0  0
   26.2659  -37.5808    0.3615 O   0  0  0  0  0  0  0  0  0  0  0  0
   30.7342  -36.5407   -1.0726 O   0  0  0  0  0  0  0  0  0  0  0  0
  2  3  2  0
  2  1  1  0
  4  3  1  0
  5  4  2  0
  6  5  1  0
  7  6  1  0
  7  8  1  6
  9 18  1  0
  9  7  1  0
 10  9  2  0
 11  5  1  0
 11 12  2  0
 12  2  1  0
 13 14  1  0
 14 15  1  0
 15 17  1  0
 15 16  1  1
 17 18  1  6
 19 17  1  0
 20 19  2  0
 21 19  1  0
 22 26  1  0
 22 21  1  0
 23 24  1  0
 22 23  1  1
 24 25  2  0
 26 27  1  0
 28 24  1  0
 29 26  2  0
M  END
$$$$
