YID.pdb
     RDKit          3D

 29 29  0  0  1  0  0  0  0  0999 V2000
   19.4929  -22.8317   -8.0491 O   0  0  0  0  0  0  0  0  0  0  0  0
   20.3572  -22.2450   -8.9822 C   0  0  0  0  0  0  0  0  0  0  0  0
   21.1266  -21.1622   -8.5750 C   0  0  0  0  0  0  0  0  0  0  0  0
   21.9805  -20.5727   -9.4749 C   0  0  0  0  0  0  0  0  0  0  0  0
   22.0648  -21.0527  -10.7525 C   0  0  0  0  0  0  0  0  0  0  0  0
   22.9733  -20.4345  -11.7300 C   0  0  0  0  0  0  0  0  0  0  0  0
   24.3511  -21.0530  -11.7242 C   0  0  2  0  0  0  0  0  0  0  0  0
   25.0217  -20.8556  -10.4604 N   0  0  0  0  0  0  0  0  0  0  0  0
   25.1486  -20.3564  -12.7731 C   0  0  0  0  0  0  0  0  0  0  0  0
   25.9674  -19.4566  -12.4596 O   0  0  0  0  0  0  0  0  0  0  0  0
   21.3060  -22.1303  -11.1758 C   0  0  0  0  0  0  0  0  0  0  0  0
   20.4548  -22.7163  -10.2747 C   0  0  0  0  0  0  0  0  0  0  0  0
   28.9389  -22.3387  -15.3678 C   0  0  0  0  0  0  0  0  0  0  0  0
   27.9290  -21.4303  -14.6271 C   0  0  0  0  0  0  0  0  0  0  0  0
   26.9154  -20.9939  -15.6103 C   0  0  2  0  0  0  0  0  0  0  0  0
   27.6764  -20.3284  -16.7691 C   0  0  0  0  0  0  0  0  0  0  0  0
   25.9021  -20.0000  -15.0988 C   0  0  2  0  0  0  0  0  0  0  0  0
   25.0139  -20.6797  -14.1447 N   0  0  0  0  0  0  0  0  0  0  0  0
   25.0245  -19.5778  -16.2074 C   0  0  0  0  0  0  0  0  0  0  0  0
   25.3820  -18.6461  -17.0207 O   0  0  0  0  0  0  0  0  0  0  0  0
   23.7413  -20.1237  -16.5076 N   0  0  0  0  0  0  0  0  0  0  0  0
   22.8751  -19.4684  -17.4363 C   0  0  1  0  0  0  0  0  0  0  0  0
   22.3337  -18.1528  -16.9176 C   0  0  0  0  0  0  0  0  0  0  0  0
   21.3107  -18.2951  -15.8808 C   0  0  0  0  0  0  0  0  0  0  0  0
   20.6705  -17.2847  -15.5062 O   0  0  0  0  0  0  0  0  0  0  0  0
   23.5988  -19.2328  -18.6978 C   0  0  0  0  0  0  0  0  0  0  0  0
   24.6569  -19.9967  -19.1424 O   0  0  0  0  0  0  0  0  0  0  0  0
   21.0084  -19.5109  -15.2818 O   0  0  0  0  0  0  0  0  0  0  0  0
   23.2294  -18.2632  -19.4294 O   0  0  0  0  0  0  0  0  0  0  0  0
  2  3  2  0
  2  1  1  0
  4  3  1  0
  5  4  2  0
  6  5  1  0
  7  6  1  0
  7  8  1  1
  9 18  1  0
  9  7  1  0
 10  9  2  0
 11  5  1  0
 11 12  2  0
 12  2  1  0
 13 14  1  0
 14 15  1  0
 15 17  1  0
 15 16  1  6
 17 18  1  1
 19 17  1  0
 20 19  2  0
 21 19  1  0
 22 26  1  0
 22 21  1  0
 23 24  1  0
 22 23  1  1
 24 25  2  0
 26 27  1  0
 28 24  1  0
 29 26  2  0
M  END
$$$$
