YID.pdb
     RDKit          3D

 29 29  0  0  1  0  0  0  0  0999 V2000
   28.6894  -13.3603  -17.3985 O   0  0  0  0  0  0  0  0  0  0  0  0
   28.0681  -14.4834  -16.8375 C   0  0  0  0  0  0  0  0  0  0  0  0
   27.7543  -15.5472  -17.6741 C   0  0  0  0  0  0  0  0  0  0  0  0
   27.1448  -16.6577  -17.1436 C   0  0  0  0  0  0  0  0  0  0  0  0
   26.8548  -16.7059  -15.8082 C   0  0  0  0  0  0  0  0  0  0  0  0
   26.2023  -17.8866  -15.2221 C   0  0  0  0  0  0  0  0  0  0  0  0
   27.1804  -18.8349  -14.5701 C   0  0  2  0  0  0  0  0  0  0  0  0
   28.0176  -19.4948  -15.5445 N   0  0  0  0  0  0  0  0  0  0  0  0
   26.3788  -19.8837  -13.8781 C   0  0  0  0  0  0  0  0  0  0  0  0
   26.0880  -20.9556  -14.4653 O   0  0  0  0  0  0  0  0  0  0  0  0
   27.1600  -15.6557  -14.9597 C   0  0  0  0  0  0  0  0  0  0  0  0
   27.7685  -14.5487  -15.4928 C   0  0  0  0  0  0  0  0  0  0  0  0
   26.5925  -20.6939   -8.3830 C   0  0  0  0  0  0  0  0  0  0  0  0
   26.5880  -21.0944   -9.8774 C   0  0  0  0  0  0  0  0  0  0  0  0
   25.2764  -20.7094  -10.4395 C   0  0  2  0  0  0  0  0  0  0  0  0
   24.2329  -21.6572   -9.8254 C   0  0  0  0  0  0  0  0  0  0  0  0
   25.1593  -20.8117  -11.9403 C   0  0  2  0  0  0  0  0  0  0  0  0
   25.9212  -19.7120  -12.5495 N   0  0  0  0  0  0  0  0  0  0  0  0
   23.7586  -20.5773  -12.3412 C   0  0  0  0  0  0  0  0  0  0  0  0
   23.1801  -19.4509  -12.1091 O   0  0  0  0  0  0  0  0  0  0  0  0
   22.9155  -21.5152  -13.0077 N   0  0  0  0  0  0  0  0  0  0  0  0
   21.6243  -21.1217  -13.4771 C   0  0  1  0  0  0  0  0  0  0  0  0
   21.2838  -21.6996  -14.8346 C   0  0  0  0  0  0  0  0  0  0  0  0
   19.9382  -21.3674  -15.3047 C   0  0  0  0  0  0  0  0  0  0  0  0
   19.2146  -20.6124  -14.6138 O   0  0  0  0  0  0  0  0  0  0  0  0
   20.6015  -21.5372  -12.5013 C   0  0  0  0  0  0  0  0  0  0  0  0
   20.6811  -22.6754  -11.7274 O   0  0  0  0  0  0  0  0  0  0  0  0
   19.4143  -21.8534  -16.4954 O   0  0  0  0  0  0  0  0  0  0  0  0
   19.5753  -20.8034  -12.3585 O   0  0  0  0  0  0  0  0  0  0  0  0
  2  3  2  0
  2  1  1  0
  4  3  1  0
  5  4  2  0
  6  5  1  0
  7  6  1  0
  7  8  1  6
  9 18  1  0
  9  7  1  0
 10  9  2  0
 11  5  1  0
 11 12  2  0
 12  2  1  0
 13 14  1  0
 14 15  1  0
 15 17  1  0
 15 16  1  1
 17 18  1  6
 19 17  1  0
 20 19  2  0
 21 19  1  0
 22 26  1  0
 22 21  1  0
 23 24  1  0
 22 23  1  6
 24 25  2  0
 26 27  1  0
 28 24  1  0
 29 26  2  0
M  END
$$$$
