YID.pdb
     RDKit          3D

 29 29  0  0  1  0  0  0  0  0999 V2000
   22.1831  -13.1879  -18.9894 O   0  0  0  0  0  0  0  0  0  0  0  0
   22.1236  -14.3851  -18.2649 C   0  0  0  0  0  0  0  0  0  0  0  0
   22.2640  -14.3251  -16.8840 C   0  0  0  0  0  0  0  0  0  0  0  0
   22.2087  -15.4879  -16.1552 C   0  0  0  0  0  0  0  0  0  0  0  0
   22.0174  -16.6839  -16.7899 C   0  0  0  0  0  0  0  0  0  0  0  0
   21.9553  -17.9394  -16.0263 C   0  0  0  0  0  0  0  0  0  0  0  0
   23.3191  -18.5265  -15.7498 C   0  0  2  0  0  0  0  0  0  0  0  0
   23.9677  -18.9693  -16.9619 N   0  0  0  0  0  0  0  0  0  0  0  0
   23.1141  -19.7220  -14.8837 C   0  0  0  0  0  0  0  0  0  0  0  0
   23.0732  -20.8734  -15.3847 O   0  0  0  0  0  0  0  0  0  0  0  0
   21.8754  -16.7628  -18.1646 C   0  0  0  0  0  0  0  0  0  0  0  0
   21.9313  -15.6000  -18.8888 C   0  0  0  0  0  0  0  0  0  0  0  0
   25.5278  -20.3419  -10.0263 C   0  0  0  0  0  0  0  0  0  0  0  0
   24.9969  -20.5729  -11.4611 C   0  0  0  0  0  0  0  0  0  0  0  0
   23.5242  -20.6716  -11.3823 C   0  0  2  0  0  0  0  0  0  0  0  0
   23.2058  -21.9036  -10.5190 C   0  0  0  0  0  0  0  0  0  0  0  0
   22.8147  -20.8433  -12.7027 C   0  0  2  0  0  0  0  0  0  0  0  0
   22.9599  -19.6049  -13.4814 N   0  0  0  0  0  0  0  0  0  0  0  0
   21.3646  -20.9817  -12.4673 C   0  0  0  0  0  0  0  0  0  0  0  0
   20.6944  -20.0521  -11.8806 O   0  0  0  0  0  0  0  0  0  0  0  0
   20.5626  -22.0989  -12.8461 N   0  0  0  0  0  0  0  0  0  0  0  0
   19.1529  -22.0906  -12.6117 C   0  0  1  0  0  0  0  0  0  0  0  0
   18.3477  -22.5329  -13.8153 C   0  0  0  0  0  0  0  0  0  0  0  0
   18.5959  -21.7439  -15.0227 C   0  0  0  0  0  0  0  0  0  0  0  0
   18.5121  -20.4945  -14.9686 O   0  0  0  0  0  0  0  0  0  0  0  0
   18.8417  -22.9677  -11.4695 C   0  0  0  0  0  0  0  0  0  0  0  0
   17.6999  -22.8717  -10.7029 O   0  0  0  0  0  0  0  0  0  0  0  0
   18.9246  -22.3178  -16.2438 O   0  0  0  0  0  0  0  0  0  0  0  0
   19.6763  -23.8747  -11.1647 O   0  0  0  0  0  0  0  0  0  0  0  0
  2  3  2  0
  2  1  1  0
  4  3  1  0
  5  4  2  0
  6  5  1  0
  7  6  1  0
  7  8  1  6
  9 18  1  0
  9  7  1  0
 10  9  2  0
 11  5  1  0
 11 12  2  0
 12  2  1  0
 13 14  1  0
 14 15  1  0
 15 17  1  0
 15 16  1  1
 17 18  1  6
 19 17  1  0
 20 19  2  0
 21 19  1  0
 22 26  1  0
 22 21  1  0
 23 24  1  0
 22 23  1  6
 24 25  2  0
 26 27  1  0
 28 24  1  0
 29 26  2  0
M  END
$$$$
