YID.pdb
     RDKit          3D

 29 29  0  0  1  0  0  0  0  0999 V2000
   26.9372  -11.5568  -17.2436 O   0  0  0  0  0  0  0  0  0  0  0  0
   26.5716  -12.8435  -16.8282 C   0  0  0  0  0  0  0  0  0  0  0  0
   25.8783  -13.6503  -17.7217 C   0  0  0  0  0  0  0  0  0  0  0  0
   25.5106  -14.9154  -17.3336 C   0  0  0  0  0  0  0  0  0  0  0  0
   25.8276  -15.3655  -16.0819 C   0  0  0  0  0  0  0  0  0  0  0  0
   25.4424  -16.7172  -15.6485 C   0  0  0  0  0  0  0  0  0  0  0  0
   26.6313  -17.6102  -15.3839 C   0  0  2  0  0  0  0  0  0  0  0  0
   27.4096  -17.8346  -16.5796 N   0  0  0  0  0  0  0  0  0  0  0  0
   26.0983  -18.9284  -14.9370 C   0  0  0  0  0  0  0  0  0  0  0  0
   25.7703  -19.8023  -15.7780 O   0  0  0  0  0  0  0  0  0  0  0  0
   26.5179  -14.5758  -15.1786 C   0  0  0  0  0  0  0  0  0  0  0  0
   26.8833  -13.3135  -15.5695 C   0  0  0  0  0  0  0  0  0  0  0  0
   28.0337  -21.5549  -10.5885 C   0  0  0  0  0  0  0  0  0  0  0  0
   27.5271  -21.2623  -12.0208 C   0  0  0  0  0  0  0  0  0  0  0  0
   26.0693  -21.0318  -11.9411 C   0  0  2  0  0  0  0  0  0  0  0  0
   25.4269  -22.3731  -11.5503 C   0  0  0  0  0  0  0  0  0  0  0  0
   25.4157  -20.5676  -13.2193 C   0  0  2  0  0  0  0  0  0  0  0  0
   25.9442  -19.2400  -13.5648 N   0  0  0  0  0  0  0  0  0  0  0  0
   23.9737  -20.3587  -12.9864 C   0  0  0  0  0  0  0  0  0  0  0  0
   23.5568  -19.4838  -12.1390 O   0  0  0  0  0  0  0  0  0  0  0  0
   22.9151  -21.0562  -13.6406 N   0  0  0  0  0  0  0  0  0  0  0  0
   21.5521  -20.7534  -13.3361 C   0  0  1  0  0  0  0  0  0  0  0  0
   20.9291  -19.7744  -14.3088 C   0  0  0  0  0  0  0  0  0  0  0  0
   19.5207  -19.4805  -14.0407 C   0  0  0  0  0  0  0  0  0  0  0  0
   18.6338  -20.0547  -14.7150 O   0  0  0  0  0  0  0  0  0  0  0  0
   20.7644  -21.9986  -13.3281 C   0  0  0  0  0  0  0  0  0  0  0  0
   21.1760  -23.1835  -13.9002 O   0  0  0  0  0  0  0  0  0  0  0  0
   19.1106  -18.5841  -13.0625 O   0  0  0  0  0  0  0  0  0  0  0  0
   19.6298  -21.9871  -12.7585 O   0  0  0  0  0  0  0  0  0  0  0  0
  2  3  2  0
  2  1  1  0
  4  3  1  0
  5  4  2  0
  6  5  1  0
  7  6  1  0
  7  8  1  6
  9 18  1  0
  9  7  1  0
 10  9  2  0
 11  5  1  0
 11 12  2  0
 12  2  1  0
 13 14  1  0
 14 15  1  0
 15 17  1  0
 15 16  1  6
 17 18  1  1
 19 17  1  0
 20 19  2  0
 21 19  1  0
 22 26  1  0
 22 21  1  0
 23 24  1  0
 22 23  1  6
 24 25  2  0
 26 27  1  0
 28 24  1  0
 29 26  2  0
M  END
$$$$
