YID.pdb
     RDKit          3D

 29 29  0  0  1  0  0  0  0  0999 V2000
   17.9182  -23.6330   -9.7675 O   0  0  0  0  0  0  0  0  0  0  0  0
   18.9962  -22.8482  -10.1962 C   0  0  0  0  0  0  0  0  0  0  0  0
   19.2778  -21.6808   -9.4978 C   0  0  0  0  0  0  0  0  0  0  0  0
   20.3307  -20.8971   -9.9022 C   0  0  0  0  0  0  0  0  0  0  0  0
   21.0860  -21.2700  -10.9794 C   0  0  0  0  0  0  0  0  0  0  0  0
   22.2173  -20.4437  -11.4272 C   0  0  0  0  0  0  0  0  0  0  0  0
   23.5562  -21.0093  -11.0167 C   0  0  2  0  0  0  0  0  0  0  0  0
   23.7734  -20.8933   -9.5937 N   0  0  0  0  0  0  0  0  0  0  0  0
   24.6029  -20.1989  -11.7017 C   0  0  0  0  0  0  0  0  0  0  0  0
   24.9724  -19.0979  -11.2225 O   0  0  0  0  0  0  0  0  0  0  0  0
   20.8202  -22.4295  -11.6872 C   0  0  0  0  0  0  0  0  0  0  0  0
   19.7683  -23.2092  -11.2806 C   0  0  0  0  0  0  0  0  0  0  0  0
   29.3075  -21.3661  -11.5562 C   0  0  0  0  0  0  0  0  0  0  0  0
   27.9898  -20.5654  -11.6841 C   0  0  0  0  0  0  0  0  0  0  0  0
   27.6214  -20.5364  -13.1152 C   0  0  2  0  0  0  0  0  0  0  0  0
   28.7475  -19.7906  -13.8502 C   0  0  0  0  0  0  0  0  0  0  0  0
   26.3241  -19.8361  -13.4364 C   0  0  2  0  0  0  0  0  0  0  0  0
   25.2114  -20.6352  -12.9030 N   0  0  0  0  0  0  0  0  0  0  0  0
   26.1216  -19.8223  -14.8979 C   0  0  0  0  0  0  0  0  0  0  0  0
   25.9635  -20.9164  -15.5577 O   0  0  0  0  0  0  0  0  0  0  0  0
   26.0703  -18.6579  -15.7203 N   0  0  0  0  0  0  0  0  0  0  0  0
   25.8043  -18.7713  -17.1198 C   0  0  1  0  0  0  0  0  0  0  0  0
   25.2912  -17.4856  -17.7334 C   0  0  0  0  0  0  0  0  0  0  0  0
   24.0131  -17.0303  -17.1845 C   0  0  0  0  0  0  0  0  0  0  0  0
   23.2293  -17.8665  -16.6769 O   0  0  0  0  0  0  0  0  0  0  0  0
   27.0327  -19.1873  -17.8191 C   0  0  0  0  0  0  0  0  0  0  0  0
   27.0727  -20.1198  -18.8337 O   0  0  0  0  0  0  0  0  0  0  0  0
   23.6185  -15.6990  -17.1976 O   0  0  0  0  0  0  0  0  0  0  0  0
   28.1315  -18.6562  -17.4690 O   0  0  0  0  0  0  0  0  0  0  0  0
  2  3  2  0
  2  1  1  0
  4  3  1  0
  5  4  2  0
  6  5  1  0
  7  6  1  0
  7  8  1  1
  9 18  1  0
  9  7  1  0
 10  9  2  0
 11  5  1  0
 11 12  2  0
 12  2  1  0
 13 14  1  0
 14 15  1  0
 15 17  1  0
 15 16  1  6
 17 18  1  1
 19 17  1  0
 20 19  2  0
 21 19  1  0
 22 26  1  0
 22 21  1  0
 23 24  1  0
 22 23  1  6
 24 25  2  0
 26 27  1  0
 28 24  1  0
 29 26  2  0
M  END
$$$$
