YID.pdb
     RDKit          3D

 29 29  0  0  1  0  0  0  0  0999 V2000
   29.9526  -15.1677  -18.5819 O   0  0  0  0  0  0  0  0  0  0  0  0
   29.1502  -16.0980  -17.9093 C   0  0  0  0  0  0  0  0  0  0  0  0
   28.4041  -15.6583  -16.8229 C   0  0  0  0  0  0  0  0  0  0  0  0
   27.6108  -16.5549  -16.1498 C   0  0  0  0  0  0  0  0  0  0  0  0
   27.5629  -17.8610  -16.5515 C   0  0  0  0  0  0  0  0  0  0  0  0
   26.7193  -18.8356  -15.8431 C   0  0  0  0  0  0  0  0  0  0  0  0
   27.5023  -19.7059  -14.8889 C   0  0  2  0  0  0  0  0  0  0  0  0
   28.3974  -20.5976  -15.5885 N   0  0  0  0  0  0  0  0  0  0  0  0
   26.5156  -20.5436  -14.1498 C   0  0  0  0  0  0  0  0  0  0  0  0
   26.4077  -21.7705  -14.3977 O   0  0  0  0  0  0  0  0  0  0  0  0
   28.2992  -18.3170  -17.6314 C   0  0  0  0  0  0  0  0  0  0  0  0
   29.0899  -17.4191  -18.3010 C   0  0  0  0  0  0  0  0  0  0  0  0
   26.4114  -20.4121   -8.8830 C   0  0  0  0  0  0  0  0  0  0  0  0
   26.3719  -20.9326  -10.3395 C   0  0  0  0  0  0  0  0  0  0  0  0
   25.0432  -20.6027  -10.8964 C   0  0  2  0  0  0  0  0  0  0  0  0
   24.0120  -21.4243  -10.1051 C   0  0  0  0  0  0  0  0  0  0  0  0
   24.8561  -20.9216  -12.3591 C   0  0  2  0  0  0  0  0  0  0  0  0
   25.6740  -19.9935  -13.1532 N   0  0  0  0  0  0  0  0  0  0  0  0
   23.4621  -20.6366  -12.7501 C   0  0  0  0  0  0  0  0  0  0  0  0
   22.9855  -19.4422  -12.6900 O   0  0  0  0  0  0  0  0  0  0  0  0
   22.5184  -21.5947  -13.2259 N   0  0  0  0  0  0  0  0  0  0  0  0
   21.2192  -21.1805  -13.6533 C   0  0  1  0  0  0  0  0  0  0  0  0
   20.6454  -22.0574  -14.7462 C   0  0  0  0  0  0  0  0  0  0  0  0
   21.4356  -22.0705  -15.9780 C   0  0  0  0  0  0  0  0  0  0  0  0
   22.3752  -21.2522  -16.1143 O   0  0  0  0  0  0  0  0  0  0  0  0
   20.3024  -21.1787  -12.4999 C   0  0  0  0  0  0  0  0  0  0  0  0
   19.2533  -20.2985  -12.3411 O   0  0  0  0  0  0  0  0  0  0  0  0
   21.1938  -22.9569  -17.0193 O   0  0  0  0  0  0  0  0  0  0  0  0
   20.4847  -22.0421  -11.5871 O   0  0  0  0  0  0  0  0  0  0  0  0
  2  3  2  0
  2  1  1  0
  4  3  1  0
  5  4  2  0
  6  5  1  0
  7  6  1  0
  7  8  1  6
  9 18  1  0
  9  7  1  0
 10  9  2  0
 11  5  1  0
 11 12  2  0
 12  2  1  0
 13 14  1  0
 14 15  1  0
 15 17  1  0
 15 16  1  1
 17 18  1  6
 19 17  1  0
 20 19  2  0
 21 19  1  0
 22 26  1  0
 22 21  1  0
 23 24  1  0
 22 23  1  6
 24 25  2  0
 26 27  1  0
 28 24  1  0
 29 26  2  0
M  END
$$$$
