YID.pdb
     RDKit          3D

 29 29  0  0  1  0  0  0  0  0999 V2000
   29.3794  -16.2058  -20.1840 O   0  0  0  0  0  0  0  0  0  0  0  0
   28.6559  -17.0157  -19.2996 C   0  0  0  0  0  0  0  0  0  0  0  0
   28.1353  -18.2110  -19.7796 C   0  0  0  0  0  0  0  0  0  0  0  0
   27.4226  -19.0196  -18.9283 C   0  0  0  0  0  0  0  0  0  0  0  0
   27.2337  -18.6441  -17.6272 C   0  0  0  0  0  0  0  0  0  0  0  0
   26.4734  -19.4968  -16.7008 C   0  0  0  0  0  0  0  0  0  0  0  0
   27.3597  -20.2777  -15.7598 C   0  0  2  0  0  0  0  0  0  0  0  0
   28.1079  -21.3002  -16.4531 N   0  0  0  0  0  0  0  0  0  0  0  0
   26.4665  -20.9573  -14.7791 C   0  0  0  0  0  0  0  0  0  0  0  0
   26.0372  -22.1164  -15.0037 O   0  0  0  0  0  0  0  0  0  0  0  0
   27.7449  -17.4570  -17.1315 C   0  0  0  0  0  0  0  0  0  0  0  0
   28.4557  -16.6524  -17.9842 C   0  0  0  0  0  0  0  0  0  0  0  0
   25.5023  -21.1542   -8.8262 C   0  0  0  0  0  0  0  0  0  0  0  0
   24.8464  -21.4768  -10.1899 C   0  0  0  0  0  0  0  0  0  0  0  0
   25.6718  -20.8484  -11.2427 C   0  0  2  0  0  0  0  0  0  0  0  0
   25.6400  -19.3323  -10.9881 C   0  0  0  0  0  0  0  0  0  0  0  0
   25.2058  -21.0838  -12.6583 C   0  0  2  0  0  0  0  0  0  0  0  0
   26.0740  -20.3286  -13.5730 N   0  0  0  0  0  0  0  0  0  0  0  0
   23.8613  -20.5023  -12.8364 C   0  0  0  0  0  0  0  0  0  0  0  0
   23.6846  -19.4388  -13.5400 O   0  0  0  0  0  0  0  0  0  0  0  0
   22.6508  -21.0207  -12.2880 N   0  0  0  0  0  0  0  0  0  0  0  0
   21.3959  -20.7436  -12.9132 C   0  0  1  0  0  0  0  0  0  0  0  0
   21.3453  -21.1781  -14.3627 C   0  0  0  0  0  0  0  0  0  0  0  0
   20.0668  -20.9097  -15.0225 C   0  0  0  0  0  0  0  0  0  0  0  0
   19.1007  -21.6844  -14.8291 O   0  0  0  0  0  0  0  0  0  0  0  0
   20.3183  -21.4157  -12.1662 C   0  0  0  0  0  0  0  0  0  0  0  0
   19.1011  -20.8404  -11.8697 O   0  0  0  0  0  0  0  0  0  0  0  0
   19.8665  -19.8239  -15.8647 O   0  0  0  0  0  0  0  0  0  0  0  0
   20.5169  -22.6039  -11.7654 O   0  0  0  0  0  0  0  0  0  0  0  0
  2  3  2  0
  2  1  1  0
  4  3  1  0
  5  4  2  0
  6  5  1  0
  7  6  1  0
  7  8  1  6
  9 18  1  0
  9  7  1  0
 10  9  2  0
 11  5  1  0
 11 12  2  0
 12  2  1  0
 13 14  1  0
 14 15  1  0
 15 17  1  0
 15 16  1  1
 17 18  1  6
 19 17  1  0
 20 19  2  0
 21 19  1  0
 22 26  1  0
 22 21  1  0
 23 24  1  0
 22 23  1  6
 24 25  2  0
 26 27  1  0
 28 24  1  0
 29 26  2  0
M  END
$$$$
