RCL.pdb
     RDKit          3D

 26 25  0  0  1  0  0  0  0  0999 V2000
    8.4225  -14.5028   15.7509 N   0  0  0  0  0  0  0  0  0  0  0  0
    8.7133  -13.8742   16.9818 C   0  0  0  0  0  0  0  0  0  0  0  0
    8.5951  -12.5953   17.0905 N   0  0  0  0  0  0  0  0  0  0  0  0
    9.1423  -14.6046   18.1406 N   0  0  0  0  0  0  0  0  0  0  0  0
    8.4424  -14.5707   19.3858 C   0  0  0  0  0  0  0  0  0  0  0  0
    7.1533  -15.3981   19.3325 C   0  0  0  0  0  0  0  0  0  0  0  0
    7.4735  -16.8451   19.0246 C   0  0  0  0  0  0  0  0  0  0  0  0
    8.3157  -17.4037   20.1516 C   0  0  2  0  0  0  0  0  0  0  0  0
    8.5213  -18.8220   19.9252 N   0  0  0  0  0  0  0  0  0  0  0  0
    7.6787  -17.2239   21.4666 C   0  0  0  0  0  0  0  0  0  0  0  0
    6.5090  -17.6518   21.6357 O   0  0  0  0  0  0  0  0  0  0  0  0
    8.7007  -12.1161   17.9968 N   0  0  0  0  0  0  0  0  0  0  0  0
    8.3062  -16.5914   22.5706 C   0  0  2  0  0  0  0  0  0  0  0  0
    7.7070  -16.5782   23.8794 C   0  0  0  0  0  0  0  0  0  0  0  0
    7.7377  -18.0263   24.3903 S   0  0  0  0  0  0  0  0  0  0  0  0
    9.4775  -18.4180   24.7221 C   0  0  0  0  0  0  0  0  0  0  0  0
    8.4997  -15.7934   24.8554 O   0  0  0  0  0  0  0  0  0  0  0  0
    9.7542  -15.7040   24.6684 C   0  0  0  0  0  0  0  0  0  0  0  0
    7.3377  -11.7220   25.0888 C   0  0  1  0  0  0  0  0  0  0  0  0
    6.7975  -12.4821   26.2586 C   0  0  0  0  0  0  0  0  0  0  0  0
    5.7687  -11.5782   26.9572 C   0  0  0  0  0  0  0  0  0  0  0  0
    7.7239  -13.0943   27.2133 C   0  0  2  0  0  0  0  0  0  0  0  0
    8.6890  -14.0805   26.7230 N   0  0  0  0  0  0  0  0  0  0  0  0
    7.9583  -15.1436   25.9710 C   0  0  0  0  0  0  0  0  0  0  0  0
    9.4684  -14.7810   27.7166 O   0  0  0  0  0  0  0  0  0  0  0  0
   10.3466  -14.2926   28.4505 O   0  0  0  0  0  0  0  0  0  0  0  0
  2  1  1  0
  2  3  2  0
  4  2  1  0
  5  4  1  0
  6  5  1  0
  7  6  1  0
  8  7  1  0
  8  9  1  6
 10  8  1  0
 10 12  1  0
 11 10  2  0
 13 12  1  0
 13 16  1  0
 13 14  1  6
 15 14  1  0
 16 23  1  0
 16 17  2  0
 19 18  1  6
 19 21  1  0
 20 19  1  0
 22 21  1  6
 22 24  1  0
 23 22  1  0
 24 26  1  0
 25 24  2  0
M  END
$$$$
