RCL.pdb
     RDKit          3D

 26 25  0  0  1  0  0  0  0  0999 V2000
    9.3339  -12.7412   17.6150 N   0  0  0  0  0  0  0  0  0  0  0  0
    8.7260  -13.7301   16.8104 C   0  0  0  0  0  0  0  0  0  0  0  0
    9.2892  -14.0942   15.7097 N   0  0  0  0  0  0  0  0  0  0  0  0
    7.4872  -14.3620   17.1659 N   0  0  0  0  0  0  0  0  0  0  0  0
    6.7996  -14.0947   18.3895 C   0  0  0  0  0  0  0  0  0  0  0  0
    7.7129  -14.2877   19.6051 C   0  0  0  0  0  0  0  0  0  0  0  0
    6.9903  -15.0667   20.6831 C   0  0  0  0  0  0  0  0  0  0  0  0
    7.5496  -16.4728   20.7199 C   0  0  2  0  0  0  0  0  0  0  0  0
    6.5855  -17.3771   20.1216 N   0  0  0  0  0  0  0  0  0  0  0  0
    7.8320  -16.9256   22.0919 C   0  0  0  0  0  0  0  0  0  0  0  0
    6.9130  -17.4779   22.7479 O   0  0  0  0  0  0  0  0  0  0  0  0
    8.8929  -14.8397   15.1186 N   0  0  0  0  0  0  0  0  0  0  0  0
    9.0898  -16.7782   22.7314 C   0  0  2  0  0  0  0  0  0  0  0  0
    9.2753  -17.0929   24.1238 C   0  0  0  0  0  0  0  0  0  0  0  0
   10.6305  -17.8069   24.2352 S   0  0  0  0  0  0  0  0  0  0  0  0
   10.9007  -18.1254   26.0004 C   0  0  0  0  0  0  0  0  0  0  0  0
    9.3929  -15.8790   24.9661 O   0  0  0  0  0  0  0  0  0  0  0  0
   10.2798  -15.0226   24.6554 C   0  0  0  0  0  0  0  0  0  0  0  0
    5.6644  -12.1854   27.5344 C   0  0  1  0  0  0  0  0  0  0  0  0
    7.0370  -12.6221   27.1302 C   0  0  0  0  0  0  0  0  0  0  0  0
    7.1922  -12.3172   25.6314 C   0  0  0  0  0  0  0  0  0  0  0  0
    7.4930  -13.9734   27.4626 C   0  0  2  0  0  0  0  0  0  0  0  0
    8.7934  -14.4205   26.9589 N   0  0  0  0  0  0  0  0  0  0  0  0
    8.5915  -15.6126   26.0828 C   0  0  0  0  0  0  0  0  0  0  0  0
    9.7690  -14.8285   27.9422 O   0  0  0  0  0  0  0  0  0  0  0  0
   10.5858  -14.0937   28.5264 O   0  0  0  0  0  0  0  0  0  0  0  0
  2  1  1  0
  2  3  2  0
  4  2  1  0
  5  4  1  0
  6  5  1  0
  7  6  1  0
  8  7  1  0
  8  9  1  1
 10  8  1  0
 10 12  1  0
 11 10  2  0
 13 12  1  0
 13 16  1  0
 13 14  1  6
 15 14  1  0
 16 23  1  0
 16 17  2  0
 19 18  1  1
 19 21  1  0
 20 19  1  0
 22 21  1  6
 22 24  1  0
 23 22  1  0
 24 26  1  0
 25 24  2  0
M  END
$$$$
