RCL.pdb
     RDKit          3D

 26 25  0  0  1  0  0  0  0  0999 V2000
   10.1045  -18.5487   16.3051 N   0  0  0  0  0  0  0  0  0  0  0  0
   10.5608  -19.8572   16.0322 C   0  0  0  0  0  0  0  0  0  0  0  0
   10.3509  -20.3788   14.8723 N   0  0  0  0  0  0  0  0  0  0  0  0
   11.2606  -20.6501   17.0026 N   0  0  0  0  0  0  0  0  0  0  0  0
   11.4164  -20.2534   18.3664 C   0  0  0  0  0  0  0  0  0  0  0  0
   10.5645  -19.0231   18.6980 C   0  0  0  0  0  0  0  0  0  0  0  0
    9.3710  -19.4250   19.5378 C   0  0  0  0  0  0  0  0  0  0  0  0
    9.5392  -18.8437   20.9254 C   0  0  2  0  0  0  0  0  0  0  0  0
    8.4220  -19.2658   21.7495 N   0  0  0  0  0  0  0  0  0  0  0  0
    9.5858  -17.3724   20.9125 C   0  0  0  0  0  0  0  0  0  0  0  0
   10.6746  -16.8039   20.6459 O   0  0  0  0  0  0  0  0  0  0  0  0
   10.6552  -21.3370   14.6456 N   0  0  0  0  0  0  0  0  0  0  0  0
    8.4678  -16.5423   21.1845 C   0  0  1  0  0  0  0  0  0  0  0  0
    8.5739  -15.1068   21.2004 C   0  0  0  0  0  0  0  0  0  0  0  0
    7.2163  -14.5617   20.7328 S   0  0  0  0  0  0  0  0  0  0  0  0
    5.9626  -15.3131   21.8070 C   0  0  0  0  0  0  0  0  0  0  0  0
    8.7702  -14.5703   22.5680 O   0  0  0  0  0  0  0  0  0  0  0  0
    8.9050  -13.3129   22.7005 C   0  0  0  0  0  0  0  0  0  0  0  0
    5.9068  -12.7307   26.7487 C   0  0  1  0  0  0  0  0  0  0  0  0
    7.2815  -13.2483   26.4646 C   0  0  0  0  0  0  0  0  0  0  0  0
    8.2644  -12.0887   26.6943 C   0  0  0  0  0  0  0  0  0  0  0  0
    7.5452  -13.9463   25.2046 C   0  0  2  0  0  0  0  0  0  0  0  0
    8.7444  -14.7803   25.1005 N   0  0  0  0  0  0  0  0  0  0  0  0
    8.8174  -15.3571   23.7251 C   0  0  0  0  0  0  0  0  0  0  0  0
    8.8331  -15.9105   25.9950 O   0  0  0  0  0  0  0  0  0  0  0  0
    8.0430  -16.8697   26.0593 O   0  0  0  0  0  0  0  0  0  0  0  0
  2  1  1  0
  2  3  2  0
  4  2  1  0
  5  4  1  0
  6  5  1  0
  7  6  1  0
  8  7  1  0
  8  9  1  1
 10  8  1  0
 10 12  1  0
 11 10  2  0
 13 12  1  0
 13 16  1  0
 13 14  1  6
 15 14  1  0
 16 23  1  0
 16 17  2  0
 19 18  1  1
 19 21  1  0
 20 19  1  0
 22 21  1  6
 22 24  1  0
 23 22  1  0
 24 26  1  0
 25 24  2  0
M  END
$$$$
