RCL.pdb
     RDKit          3D

 26 25  0  0  1  0  0  0  0  0999 V2000
    7.5222  -15.2276   14.9353 N   0  0  0  0  0  0  0  0  0  0  0  0
    7.7087  -14.2604   15.9476 C   0  0  0  0  0  0  0  0  0  0  0  0
    8.3098  -13.1540   15.6722 N   0  0  0  0  0  0  0  0  0  0  0  0
    7.2523  -14.4534   17.2947 N   0  0  0  0  0  0  0  0  0  0  0  0
    8.1371  -14.7017   18.3888 C   0  0  0  0  0  0  0  0  0  0  0  0
    9.1770  -15.7732   18.0429 C   0  0  0  0  0  0  0  0  0  0  0  0
   10.2193  -15.8621   19.1369 C   0  0  0  0  0  0  0  0  0  0  0  0
    9.6126  -16.5777   20.3249 C   0  0  2  0  0  0  0  0  0  0  0  0
    8.2517  -16.9599   19.9975 N   0  0  0  0  0  0  0  0  0  0  0  0
    9.5880  -15.7348   21.5315 C   0  0  0  0  0  0  0  0  0  0  0  0
   10.6442  -15.1514   21.8836 O   0  0  0  0  0  0  0  0  0  0  0  0
    8.5794  -12.4855   16.4087 N   0  0  0  0  0  0  0  0  0  0  0  0
    8.4355  -15.5343   22.3341 C   0  0  1  0  0  0  0  0  0  0  0  0
    8.4850  -14.7798   23.5591 C   0  0  0  0  0  0  0  0  0  0  0  0
    7.1618  -15.0463   24.2919 S   0  0  0  0  0  0  0  0  0  0  0  0
    7.0315  -13.7884   25.5923 C   0  0  0  0  0  0  0  0  0  0  0  0
    9.5506  -15.2559   24.4727 O   0  0  0  0  0  0  0  0  0  0  0  0
   10.6613  -14.6373   24.4653 C   0  0  0  0  0  0  0  0  0  0  0  0
   11.2151  -15.3502   29.4542 C   0  0  2  0  0  0  0  0  0  0  0  0
   10.4689  -14.5935   28.4012 C   0  0  0  0  0  0  0  0  0  0  0  0
    9.7905  -13.3980   29.0896 C   0  0  0  0  0  0  0  0  0  0  0  0
    9.5483  -15.3070   27.5136 C   0  0  2  0  0  0  0  0  0  0  0  0
   10.0721  -16.3942   26.6841 N   0  0  0  0  0  0  0  0  0  0  0  0
    9.4151  -16.3432   25.3442 C   0  0  0  0  0  0  0  0  0  0  0  0
    9.8615  -17.7402   27.1630 O   0  0  0  0  0  0  0  0  0  0  0  0
    8.8036  -18.3926   27.1015 O   0  0  0  0  0  0  0  0  0  0  0  0
  2  1  1  0
  2  3  2  0
  4  2  1  0
  5  4  1  0
  6  5  1  0
  7  6  1  0
  8  7  1  0
  8  9  1  6
 10  8  1  0
 10 12  1  0
 11 10  2  0
 13 12  1  0
 13 16  1  0
 13 14  1  1
 15 14  1  0
 16 23  1  0
 16 17  2  0
 19 18  1  6
 19 21  1  0
 20 19  1  0
 22 21  1  6
 22 24  1  0
 23 22  1  0
 24 26  1  0
 25 24  2  0
M  END
$$$$
