RCL.pdb
     RDKit          3D

 26 25  0  0  1  0  0  0  0  0999 V2000
    9.6226  -14.5956   16.1223 N   0  0  0  0  0  0  0  0  0  0  0  0
    8.4263  -13.9266   15.7812 C   0  0  0  0  0  0  0  0  0  0  0  0
    8.2359  -13.5356   14.5678 N   0  0  0  0  0  0  0  0  0  0  0  0
    7.3919  -13.6558   16.7386 N   0  0  0  0  0  0  0  0  0  0  0  0
    7.5121  -13.9746   18.1262 C   0  0  0  0  0  0  0  0  0  0  0  0
    8.5012  -15.1221   18.3590 C   0  0  0  0  0  0  0  0  0  0  0  0
    8.6477  -15.3931   19.8410 C   0  0  0  0  0  0  0  0  0  0  0  0
    8.0914  -16.7693   20.1376 C   0  0  2  0  0  0  0  0  0  0  0  0
    7.0422  -17.0674   19.1807 N   0  0  0  0  0  0  0  0  0  0  0  0
    7.5313  -16.8643   21.4957 C   0  0  0  0  0  0  0  0  0  0  0  0
    6.3096  -16.6220   21.6646 O   0  0  0  0  0  0  0  0  0  0  0  0
    7.3682  -13.0589   14.2816 N   0  0  0  0  0  0  0  0  0  0  0  0
    8.2894  -17.2162   22.6421 C   0  0  1  0  0  0  0  0  0  0  0  0
    7.7232  -17.1872   23.9652 C   0  0  0  0  0  0  0  0  0  0  0  0
    7.9488  -18.5811   24.5693 S   0  0  0  0  0  0  0  0  0  0  0  0
    7.2824  -18.5252   26.2554 C   0  0  0  0  0  0  0  0  0  0  0  0
    8.4319  -16.2437   24.8621 O   0  0  0  0  0  0  0  0  0  0  0  0
    9.7014  -16.3016   24.9035 C   0  0  0  0  0  0  0  0  0  0  0  0
    5.9473  -11.6034   26.7028 C   0  0  1  0  0  0  0  0  0  0  0  0
    7.2586  -12.2851   26.4708 C   0  0  0  0  0  0  0  0  0  0  0  0
    7.3900  -12.5231   24.9577 C   0  0  0  0  0  0  0  0  0  0  0  0
    7.5981  -13.4818   27.2434 C   0  0  2  0  0  0  0  0  0  0  0  0
    8.5276  -14.4532   26.6630 N   0  0  0  0  0  0  0  0  0  0  0  0
    7.7955  -15.2920   25.6679 C   0  0  0  0  0  0  0  0  0  0  0  0
    9.1454  -15.3894   27.5724 O   0  0  0  0  0  0  0  0  0  0  0  0
    8.7429  -16.5349   27.8449 O   0  0  0  0  0  0  0  0  0  0  0  0
  2  1  1  0
  2  3  2  0
  4  2  1  0
  5  4  1  0
  6  5  1  0
  7  6  1  0
  8  7  1  0
  8  9  1  6
 10  8  1  0
 10 12  1  0
 11 10  2  0
 13 12  1  0
 13 16  1  0
 13 14  1  1
 15 14  1  0
 16 23  1  0
 16 17  2  0
 19 18  1  6
 19 21  1  0
 20 19  1  0
 22 21  1  6
 22 24  1  0
 23 22  1  0
 24 26  1  0
 25 24  2  0
M  END
$$$$
