RCL.pdb
     RDKit          3D

 26 25  0  0  1  0  0  0  0  0999 V2000
    9.8371  -14.0501   15.1666 N   0  0  0  0  0  0  0  0  0  0  0  0
    8.5125  -13.5914   15.3403 C   0  0  0  0  0  0  0  0  0  0  0  0
    7.6995  -13.5908   14.3401 N   0  0  0  0  0  0  0  0  0  0  0  0
    8.0179  -13.1167   16.6014 N   0  0  0  0  0  0  0  0  0  0  0  0
    8.2414  -13.8037   17.8341 C   0  0  0  0  0  0  0  0  0  0  0  0
    7.1052  -14.7829   18.1496 C   0  0  0  0  0  0  0  0  0  0  0  0
    6.7759  -14.7427   19.6265 C   0  0  0  0  0  0  0  0  0  0  0  0
    8.0707  -14.7548   20.4105 C   0  0  2  0  0  0  0  0  0  0  0  0
    8.8287  -15.9372   20.0461 N   0  0  0  0  0  0  0  0  0  0  0  0
    7.8428  -14.7710   21.8647 C   0  0  0  0  0  0  0  0  0  0  0  0
    7.1452  -13.8600   22.3779 O   0  0  0  0  0  0  0  0  0  0  0  0
    6.7581  -13.1769   14.4069 N   0  0  0  0  0  0  0  0  0  0  0  0
    8.3652  -15.7601   22.7373 C   0  0  1  0  0  0  0  0  0  0  0  0
    8.1427  -15.7129   24.1587 C   0  0  0  0  0  0  0  0  0  0  0  0
    7.0558  -16.7534   24.4671 S   0  0  0  0  0  0  0  0  0  0  0  0
    6.5907  -16.5124   26.2037 C   0  0  0  0  0  0  0  0  0  0  0  0
    9.3339  -16.1387   24.9311 O   0  0  0  0  0  0  0  0  0  0  0  0
   10.1910  -16.8736   24.3464 C   0  0  0  0  0  0  0  0  0  0  0  0
   10.6708  -13.0681   27.1608 C   0  0  1  0  0  0  0  0  0  0  0  0
   10.3249  -14.0634   28.2227 C   0  0  0  0  0  0  0  0  0  0  0  0
   10.5039  -13.3656   29.5808 C   0  0  0  0  0  0  0  0  0  0  0  0
   10.9487  -15.3881   28.2030 C   0  0  2  0  0  0  0  0  0  0  0  0
   10.7994  -16.2179   27.0058 N   0  0  0  0  0  0  0  0  0  0  0  0
    9.5781  -15.7851   26.2636 C   0  0  0  0  0  0  0  0  0  0  0  0
   10.6392  -17.6382   27.2118 O   0  0  0  0  0  0  0  0  0  0  0  0
    9.6016  -18.3015   27.0334 O   0  0  0  0  0  0  0  0  0  0  0  0
  2  1  1  0
  2  3  2  0
  4  2  1  0
  5  4  1  0
  6  5  1  0
  7  6  1  0
  8  7  1  0
  8  9  1  6
 10  8  1  0
 10 12  1  0
 11 10  2  0
 13 12  1  0
 13 16  1  0
 13 14  1  1
 15 14  1  0
 16 23  1  0
 16 17  2  0
 19 18  1  6
 19 21  1  0
 20 19  1  0
 22 21  1  6
 22 24  1  0
 23 22  1  0
 24 26  1  0
 25 24  2  0
M  END
$$$$
