RCL.pdb
     RDKit          3D

 26 25  0  0  1  0  0  0  0  0999 V2000
    9.7994  -13.9722   16.1850 N   0  0  0  0  0  0  0  0  0  0  0  0
    8.4371  -13.6356   16.0248 C   0  0  0  0  0  0  0  0  0  0  0  0
    7.9391  -13.5308   14.8405 N   0  0  0  0  0  0  0  0  0  0  0  0
    7.5628  -13.4001   17.1385 N   0  0  0  0  0  0  0  0  0  0  0  0
    7.9930  -13.4864   18.4983 C   0  0  0  0  0  0  0  0  0  0  0  0
    9.0702  -14.5611   18.6833 C   0  0  0  0  0  0  0  0  0  0  0  0
    8.4271  -15.9178   18.8757 C   0  0  0  0  0  0  0  0  0  0  0  0
    9.0951  -16.6073   20.0460 C   0  0  2  0  0  0  0  0  0  0  0  0
    8.8264  -18.0310   19.9675 N   0  0  0  0  0  0  0  0  0  0  0  0
    8.6075  -16.1065   21.3416 C   0  0  0  0  0  0  0  0  0  0  0  0
    8.8704  -14.9221   21.6701 O   0  0  0  0  0  0  0  0  0  0  0  0
    6.9579  -13.2553   14.6874 N   0  0  0  0  0  0  0  0  0  0  0  0
    7.8499  -16.8825   22.2562 C   0  0  1  0  0  0  0  0  0  0  0  0
    7.4274  -16.3585   23.5287 C   0  0  0  0  0  0  0  0  0  0  0  0
    6.3076  -17.2810   24.0326 S   0  0  0  0  0  0  0  0  0  0  0  0
    7.0959  -18.8543   24.4727 C   0  0  0  0  0  0  0  0  0  0  0  0
    8.4965  -16.4320   24.5526 O   0  0  0  0  0  0  0  0  0  0  0  0
    9.5758  -17.0294   24.2444 C   0  0  0  0  0  0  0  0  0  0  0  0
   10.6919  -15.4190   29.6900 C   0  0  1  0  0  0  0  0  0  0  0  0
   10.2912  -14.3465   28.7270 C   0  0  0  0  0  0  0  0  0  0  0  0
    9.9062  -13.1088   29.5535 C   0  0  0  0  0  0  0  0  0  0  0  0
    9.3006  -14.6399   27.6891 C   0  0  2  0  0  0  0  0  0  0  0  0
    9.5737  -15.7232   26.7425 N   0  0  0  0  0  0  0  0  0  0  0  0
    8.3967  -15.8869   25.8383 C   0  0  0  0  0  0  0  0  0  0  0  0
    9.8128  -17.0332   27.3009 O   0  0  0  0  0  0  0  0  0  0  0  0
   10.9199  -17.5714   27.4831 O   0  0  0  0  0  0  0  0  0  0  0  0
  2  1  1  0
  2  3  2  0
  4  2  1  0
  5  4  1  0
  6  5  1  0
  7  6  1  0
  8  7  1  0
  8  9  1  6
 10  8  1  0
 10 12  1  0
 11 10  2  0
 13 12  1  0
 13 16  1  0
 13 14  1  1
 15 14  1  0
 16 23  1  0
 16 17  2  0
 19 18  1  6
 19 21  1  0
 20 19  1  0
 22 21  1  6
 22 24  1  0
 23 22  1  0
 24 26  1  0
 25 24  2  0
M  END
$$$$
