RCL.pdb
     RDKit          3D

 26 25  0  0  1  0  0  0  0  0999 V2000
   14.0550  -19.2769   20.0607 N   0  0  0  0  0  0  0  0  0  0  0  0
   12.9065  -19.3936   19.2469 C   0  0  0  0  0  0  0  0  0  0  0  0
   12.5867  -20.5403   18.7527 N   0  0  0  0  0  0  0  0  0  0  0  0
   12.0612  -18.2755   18.9375 N   0  0  0  0  0  0  0  0  0  0  0  0
   10.6408  -18.3078   19.0883 C   0  0  0  0  0  0  0  0  0  0  0  0
   10.1968  -17.6563   20.4027 C   0  0  0  0  0  0  0  0  0  0  0  0
    8.7081  -17.8437   20.6020 C   0  0  0  0  0  0  0  0  0  0  0  0
    8.0234  -16.5071   20.4122 C   0  0  2  0  0  0  0  0  0  0  0  0
    8.5131  -15.8986   19.1894 N   0  0  0  0  0  0  0  0  0  0  0  0
    8.2776  -15.5856   21.5317 C   0  0  0  0  0  0  0  0  0  0  0  0
    9.2124  -14.7516   21.4285 O   0  0  0  0  0  0  0  0  0  0  0  0
   11.7084  -20.6804   18.2320 N   0  0  0  0  0  0  0  0  0  0  0  0
    7.5271  -15.5760   22.7356 C   0  0  2  0  0  0  0  0  0  0  0  0
    7.8429  -14.6838   23.8202 C   0  0  0  0  0  0  0  0  0  0  0  0
    6.5261  -14.4136   24.5632 S   0  0  0  0  0  0  0  0  0  0  0  0
    6.8963  -13.1699   25.8307 C   0  0  0  0  0  0  0  0  0  0  0  0
    8.7445  -15.3058   24.8187 O   0  0  0  0  0  0  0  0  0  0  0  0
    8.5806  -16.5389   25.0821 C   0  0  0  0  0  0  0  0  0  0  0  0
   10.3731  -13.9225   30.3660 C   0  0  1  0  0  0  0  0  0  0  0  0
   10.7375  -14.7100   29.1473 C   0  0  0  0  0  0  0  0  0  0  0  0
   12.2724  -14.7519   29.0706 C   0  0  0  0  0  0  0  0  0  0  0  0
   10.1355  -14.3661   27.8574 C   0  0  2  0  0  0  0  0  0  0  0  0
   10.4614  -15.1858   26.6885 N   0  0  0  0  0  0  0  0  0  0  0  0
    9.7656  -14.6249   25.4922 C   0  0  0  0  0  0  0  0  0  0  0  0
   10.0761  -16.5766   26.7386 O   0  0  0  0  0  0  0  0  0  0  0  0
    8.9208  -17.0225   26.8608 O   0  0  0  0  0  0  0  0  0  0  0  0
  2  1  1  0
  2  3  2  0
  4  2  1  0
  5  4  1  0
  6  5  1  0
  7  6  1  0
  8  7  1  0
  8  9  1  6
 10  8  1  0
 10 12  1  0
 11 10  2  0
 13 12  1  0
 13 16  1  0
 13 14  1  1
 15 14  1  0
 16 23  1  0
 16 17  2  0
 19 18  1  1
 19 21  1  0
 20 19  1  0
 22 21  1  6
 22 24  1  0
 23 22  1  0
 24 26  1  0
 25 24  2  0
M  END
$$$$
