RCL.pdb
     RDKit          3D

 26 25  0  0  1  0  0  0  0  0999 V2000
    8.5674  -15.6763   16.2186 N   0  0  0  0  0  0  0  0  0  0  0  0
    8.3684  -14.2995   15.9743 C   0  0  0  0  0  0  0  0  0  0  0  0
    8.1174  -13.8921   14.7774 N   0  0  0  0  0  0  0  0  0  0  0  0
    8.4331  -13.3124   17.0144 N   0  0  0  0  0  0  0  0  0  0  0  0
    8.4251  -13.6439   18.4042 C   0  0  0  0  0  0  0  0  0  0  0  0
    7.0293  -14.0651   18.8770 C   0  0  0  0  0  0  0  0  0  0  0  0
    7.0688  -14.4566   20.3386 C   0  0  0  0  0  0  0  0  0  0  0  0
    7.8206  -15.7641   20.4681 C   0  0  2  0  0  0  0  0  0  0  0  0
    7.1545  -16.7701   19.6622 N   0  0  0  0  0  0  0  0  0  0  0  0
    7.8794  -16.2388   21.8604 C   0  0  0  0  0  0  0  0  0  0  0  0
    6.8383  -16.7108   22.3831 O   0  0  0  0  0  0  0  0  0  0  0  0
    8.1442  -12.8924   14.5282 N   0  0  0  0  0  0  0  0  0  0  0  0
    9.0491  -16.1985   22.6621 C   0  0  2  0  0  0  0  0  0  0  0  0
    9.0496  -16.6527   24.0281 C   0  0  0  0  0  0  0  0  0  0  0  0
   10.1216  -17.7482   24.1255 S   0  0  0  0  0  0  0  0  0  0  0  0
   11.6445  -17.0401   23.4402 C   0  0  0  0  0  0  0  0  0  0  0  0
    9.4731  -15.5939   24.9749 O   0  0  0  0  0  0  0  0  0  0  0  0
   10.4108  -14.8141   24.6153 C   0  0  0  0  0  0  0  0  0  0  0  0
    8.0219  -11.7858   25.6646 C   0  0  2  0  0  0  0  0  0  0  0  0
    7.4330  -12.8800   26.4977 C   0  0  0  0  0  0  0  0  0  0  0  0
    6.0787  -12.3773   27.0238 C   0  0  0  0  0  0  0  0  0  0  0  0
    8.2361  -13.4946   27.5568 C   0  0  2  0  0  0  0  0  0  0  0  0
    9.3765  -14.3317   27.1785 N   0  0  0  0  0  0  0  0  0  0  0  0
    8.9089  -15.3954   26.2407 C   0  0  0  0  0  0  0  0  0  0  0  0
   10.0545  -15.0315   28.2442 O   0  0  0  0  0  0  0  0  0  0  0  0
   10.0363  -16.2576   28.4561 O   0  0  0  0  0  0  0  0  0  0  0  0
  2  1  1  0
  2  3  2  0
  4  2  1  0
  5  4  1  0
  6  5  1  0
  7  6  1  0
  8  7  1  0
  8  9  1  6
 10  8  1  0
 10 12  1  0
 11 10  2  0
 13 12  1  0
 13 16  1  0
 13 14  1  6
 15 14  1  0
 16 23  1  0
 16 17  2  0
 19 18  1  6
 19 21  1  0
 20 19  1  0
 22 21  1  6
 22 24  1  0
 23 22  1  0
 24 26  1  0
 25 24  2  0
M  END
$$$$
