RCL.pdb
     RDKit          3D

 26 25  0  0  1  0  0  0  0  0999 V2000
    9.7173  -14.6435   17.3656 N   0  0  0  0  0  0  0  0  0  0  0  0
    8.6634  -13.7941   16.9624 C   0  0  0  0  0  0  0  0  0  0  0  0
    8.4594  -13.5793   15.7079 N   0  0  0  0  0  0  0  0  0  0  0  0
    7.7911  -13.1458   17.8999 N   0  0  0  0  0  0  0  0  0  0  0  0
    7.8487  -13.3806   19.3081 C   0  0  0  0  0  0  0  0  0  0  0  0
    8.0798  -14.8622   19.6253 C   0  0  0  0  0  0  0  0  0  0  0  0
    7.0581  -15.3467   20.6316 C   0  0  0  0  0  0  0  0  0  0  0  0
    7.3312  -16.8047   20.9333 C   0  0  2  0  0  0  0  0  0  0  0  0
    6.2520  -17.6068   20.3879 N   0  0  0  0  0  0  0  0  0  0  0  0
    7.4293  -17.0669   22.3785 C   0  0  0  0  0  0  0  0  0  0  0  0
    6.3744  -17.0935   23.0615 O   0  0  0  0  0  0  0  0  0  0  0  0
    7.7583  -12.8980   15.3815 N   0  0  0  0  0  0  0  0  0  0  0  0
    8.6521  -17.2951   23.0608 C   0  0  2  0  0  0  0  0  0  0  0  0
    8.7127  -17.4031   24.4950 C   0  0  0  0  0  0  0  0  0  0  0  0
    9.8158  -18.4238   24.8115 S   0  0  0  0  0  0  0  0  0  0  0  0
    9.8997  -18.5468   26.6193 C   0  0  0  0  0  0  0  0  0  0  0  0
    9.1418  -16.1388   25.1387 O   0  0  0  0  0  0  0  0  0  0  0  0
   10.2702  -15.6554   24.8076 C   0  0  0  0  0  0  0  0  0  0  0  0
    6.0304  -11.5756   26.6586 C   0  0  1  0  0  0  0  0  0  0  0  0
    7.3318  -12.2599   26.3826 C   0  0  0  0  0  0  0  0  0  0  0  0
    7.3693  -12.5849   24.8804 C   0  0  0  0  0  0  0  0  0  0  0  0
    7.7332  -13.4070   27.1996 C   0  0  2  0  0  0  0  0  0  0  0  0
    8.8814  -14.2083   26.7708 N   0  0  0  0  0  0  0  0  0  0  0  0
    8.3863  -15.4409   26.0885 C   0  0  0  0  0  0  0  0  0  0  0  0
    9.7741  -14.6755   27.8052 O   0  0  0  0  0  0  0  0  0  0  0  0
    9.6723  -15.7345   28.4506 O   0  0  0  0  0  0  0  0  0  0  0  0
  2  1  1  0
  2  3  2  0
  4  2  1  0
  5  4  1  0
  6  5  1  0
  7  6  1  0
  8  7  1  0
  8  9  1  1
 10  8  1  0
 10 12  1  0
 11 10  2  0
 13 12  1  0
 13 16  1  0
 13 14  1  6
 15 14  1  0
 16 23  1  0
 16 17  2  0
 19 18  1  6
 19 21  1  0
 20 19  1  0
 22 21  1  6
 22 24  1  0
 23 22  1  0
 24 26  1  0
 25 24  2  0
M  END
$$$$
