HEH.pdb
     RDKit          3D

 30 31  0  0  1  0  0  0  0  0999 V2000
   23.4988  -11.3210  -20.2928 N   0  0  0  0  0  0  0  0  0  0  0  0
   24.0604  -11.2319  -18.9800 C   0  0  1  0  0  0  0  0  0  0  0  0
   25.5076  -11.6080  -19.0198 C   0  0  0  0  0  0  0  0  0  0  0  0
   25.5891  -12.9813  -19.6090 C   0  0  0  0  0  0  0  0  0  0  0  0
   26.1609  -13.3610  -20.8080 C   0  0  0  0  0  0  0  0  0  0  0  0
   26.0199  -14.6916  -20.9588 N   0  0  0  0  0  0  0  0  0  0  0  0
   25.3773  -15.1629  -19.8930 C   0  0  0  0  0  0  0  0  0  0  0  0
   25.1121  -14.1410  -19.0719 N   0  0  0  0  0  0  0  0  0  0  0  0
   23.8088   -9.9388  -18.3198 C   0  0  0  0  0  0  0  0  0  0  0  0
   24.2385   -9.7147  -17.1613 O   0  0  0  0  0  0  0  0  0  0  0  0
   23.0692   -8.8610  -18.9392 N   0  0  0  0  0  0  0  0  0  0  0  0
   22.8137   -7.6171  -18.3085 C   0  0  1  0  0  0  0  0  0  0  0  0
   22.6058   -6.4135  -19.1379 C   0  0  0  0  0  0  0  0  0  0  0  0
   23.7549   -5.9536  -19.9719 C   0  0  0  0  0  0  0  0  0  0  0  0
   23.5903   -4.7223  -20.7258 C   0  0  0  0  0  0  0  0  0  0  0  0
   24.3981   -4.2275  -21.5402 O   0  0  0  0  0  0  0  0  0  0  0  0
   21.6643   -7.7136  -17.3318 C   0  0  0  0  0  0  0  0  0  0  0  0
   20.5489   -8.0629  -17.7969 O   0  0  0  0  0  0  0  0  0  0  0  0
   22.3895   -3.9966  -20.5234 O   0  0  0  0  0  0  0  0  0  0  0  0
   21.7684   -7.4428  -15.9624 N   0  0  0  0  0  0  0  0  0  0  0  0
   20.6092   -7.4619  -15.0532 C   0  0  1  0  0  0  0  0  0  0  0  0
   20.6779   -8.7065  -14.1976 C   0  0  0  0  0  0  0  0  0  0  0  0
   19.5775   -8.8072  -13.2030 C   0  0  0  0  0  0  0  0  0  0  0  0
   18.5847   -7.8857  -12.9470 C   0  0  0  0  0  0  0  0  0  0  0  0
   17.8086   -8.3646  -11.9602 N   0  0  0  0  0  0  0  0  0  0  0  0
   18.3078   -9.5501  -11.6146 C   0  0  0  0  0  0  0  0  0  0  0  0
   19.3756   -9.8287  -12.3572 N   0  0  0  0  0  0  0  0  0  0  0  0
   20.7325   -6.2861  -14.1685 C   0  0  0  0  0  0  0  0  0  0  0  0
   20.6158   -6.4473  -12.9238 O   0  0  0  0  0  0  0  0  0  0  0  0
   20.9743   -5.0032  -14.6446 O   0  0  0  0  0  0  0  0  0  0  0  0
  2  1  1  6
  2  3  1  0
  3  4  1  0
  4  8  1  0
  5  4  2  0
  5  6  1  0
  6  7  1  0
  8  7  2  0
  9 11  1  0
  9  2  1  0
 10  9  2  0
 12 11  1  0
 13 14  1  0
 12 13  1  6
 14 15  1  0
 15 16  2  0
 15 19  1  0
 17 12  1  0
 17 20  1  0
 18 17  2  0
 21 20  1  0
 21 28  1  0
 21 22  1  1
 23 22  1  0
 23 24  2  0
 25 24  1  0
 26 25  1  0
 27 26  2  0
 27 23  1  0
 28 29  2  0
 28 30  1  0
M  END
$$$$
