HEH.pdb
     RDKit          3D

 30 31  0  0  1  0  0  0  0  0999 V2000
   18.7185  -13.7847  -18.2459 N   0  0  0  0  0  0  0  0  0  0  0  0
   18.1610  -12.7453  -17.4361 C   0  0  1  0  0  0  0  0  0  0  0  0
   18.0724  -13.2013  -16.0143 C   0  0  0  0  0  0  0  0  0  0  0  0
   17.1197  -14.3551  -15.9810 C   0  0  0  0  0  0  0  0  0  0  0  0
   15.8384  -14.4166  -16.4939 C   0  0  0  0  0  0  0  0  0  0  0  0
   15.3280  -15.6391  -16.2527 N   0  0  0  0  0  0  0  0  0  0  0  0
   16.2469  -16.3503  -15.6040 C   0  0  0  0  0  0  0  0  0  0  0  0
   17.3318  -15.5868  -15.4342 N   0  0  0  0  0  0  0  0  0  0  0  0
   18.8418  -11.4481  -17.5942 C   0  0  0  0  0  0  0  0  0  0  0  0
   20.0648  -11.3287  -17.3355 O   0  0  0  0  0  0  0  0  0  0  0  0
   18.1714  -10.2489  -18.0467 N   0  0  0  0  0  0  0  0  0  0  0  0
   18.8219   -9.0011  -18.2208 C   0  0  1  0  0  0  0  0  0  0  0  0
   18.1630   -7.9452  -19.0149 C   0  0  0  0  0  0  0  0  0  0  0  0
   18.9492   -6.7062  -19.2870 C   0  0  0  0  0  0  0  0  0  0  0  0
   18.3001   -5.6484  -20.0427 C   0  0  0  0  0  0  0  0  0  0  0  0
   17.1356   -5.6553  -20.4950 O   0  0  0  0  0  0  0  0  0  0  0  0
   19.2350   -8.3990  -16.8974 C   0  0  0  0  0  0  0  0  0  0  0  0
   18.4249   -8.5130  -15.9418 O   0  0  0  0  0  0  0  0  0  0  0  0
   19.0594   -4.4794  -20.3007 O   0  0  0  0  0  0  0  0  0  0  0  0
   20.4473   -7.7347  -16.6776 N   0  0  0  0  0  0  0  0  0  0  0  0
   20.7938   -7.1086  -15.3896 C   0  0  1  0  0  0  0  0  0  0  0  0
   22.2857   -7.2257  -15.1736 C   0  0  0  0  0  0  0  0  0  0  0  0
   22.7379   -8.6107  -14.8774 C   0  0  0  0  0  0  0  0  0  0  0  0
   21.9560   -9.7233  -14.6516 C   0  0  0  0  0  0  0  0  0  0  0  0
   22.7669  -10.7659  -14.4047 N   0  0  0  0  0  0  0  0  0  0  0  0
   24.0166  -10.3107  -14.4755 C   0  0  0  0  0  0  0  0  0  0  0  0
   24.0127   -9.0114  -14.7602 N   0  0  0  0  0  0  0  0  0  0  0  0
   20.4542   -5.6758  -15.4986 C   0  0  0  0  0  0  0  0  0  0  0  0
   20.6499   -4.9275  -14.5034 O   0  0  0  0  0  0  0  0  0  0  0  0
   19.9279   -5.1088  -16.6529 O   0  0  0  0  0  0  0  0  0  0  0  0
  2  1  1  6
  2  3  1  0
  3  4  1  0
  4  8  1  0
  5  4  2  0
  5  6  1  0
  6  7  1  0
  8  7  2  0
  9 11  1  0
  9  2  1  0
 10  9  2  0
 12 11  1  0
 13 14  1  0
 12 13  1  1
 14 15  1  0
 15 16  2  0
 15 19  1  0
 17 12  1  0
 17 20  1  0
 18 17  2  0
 21 20  1  0
 21 28  1  0
 21 22  1  6
 23 22  1  0
 23 24  2  0
 25 24  1  0
 26 25  1  0
 27 26  2  0
 27 23  1  0
 28 29  2  0
 28 30  1  0
M  END
$$$$
