HEH.pdb
     RDKit          3D

 30 31  0  0  1  0  0  0  0  0999 V2000
   24.9289  -11.3276  -18.6472 N   0  0  0  0  0  0  0  0  0  0  0  0
   23.7708  -10.5137  -18.8553 C   0  0  1  0  0  0  0  0  0  0  0  0
   22.8317  -11.1977  -19.7975 C   0  0  0  0  0  0  0  0  0  0  0  0
   23.5057  -11.2457  -21.1329 C   0  0  0  0  0  0  0  0  0  0  0  0
   24.5374  -10.4516  -21.5951 C   0  0  0  0  0  0  0  0  0  0  0  0
   24.8501  -10.8261  -22.8501 N   0  0  0  0  0  0  0  0  0  0  0  0
   24.0483  -11.8310  -23.1939 C   0  0  0  0  0  0  0  0  0  0  0  0
   23.2330  -12.0932  -22.1665 N   0  0  0  0  0  0  0  0  0  0  0  0
   23.1289  -10.0742  -17.6040 C   0  0  0  0  0  0  0  0  0  0  0  0
   22.7159  -10.9123  -16.7650 O   0  0  0  0  0  0  0  0  0  0  0  0
   22.9321   -8.6836  -17.2578 N   0  0  0  0  0  0  0  0  0  0  0  0
   22.2257   -8.2510  -16.1070 C   0  0  1  0  0  0  0  0  0  0  0  0
   22.3805   -6.8580  -15.6431 C   0  0  0  0  0  0  0  0  0  0  0  0
   21.7130   -6.4886  -14.3603 C   0  0  0  0  0  0  0  0  0  0  0  0
   21.7842   -5.0997  -13.9391 C   0  0  0  0  0  0  0  0  0  0  0  0
   20.8295   -4.3684  -13.6007 O   0  0  0  0  0  0  0  0  0  0  0  0
   20.7469   -8.5428  -16.2189 C   0  0  0  0  0  0  0  0  0  0  0  0
   20.1718   -8.1754  -17.2757 O   0  0  0  0  0  0  0  0  0  0  0  0
   23.0682   -4.5000  -13.9051 O   0  0  0  0  0  0  0  0  0  0  0  0
   19.9938   -9.1889  -15.2316 N   0  0  0  0  0  0  0  0  0  0  0  0
   18.5535   -9.4636  -15.3764 C   0  0  1  0  0  0  0  0  0  0  0  0
   18.2786  -10.8833  -14.9348 C   0  0  0  0  0  0  0  0  0  0  0  0
   16.8370  -11.2459  -14.9584 C   0  0  0  0  0  0  0  0  0  0  0  0
   15.7901  -10.5097  -15.4705 C   0  0  0  0  0  0  0  0  0  0  0  0
   14.6529  -11.1968  -15.2697 N   0  0  0  0  0  0  0  0  0  0  0  0
   14.9871  -12.3274  -14.6499 C   0  0  0  0  0  0  0  0  0  0  0  0
   16.3024  -12.3691  -14.4562 N   0  0  0  0  0  0  0  0  0  0  0  0
   17.8433   -8.5494  -14.4598 C   0  0  0  0  0  0  0  0  0  0  0  0
   18.4999   -7.9612  -13.5588 O   0  0  0  0  0  0  0  0  0  0  0  0
   16.4783   -8.3033  -14.5442 O   0  0  0  0  0  0  0  0  0  0  0  0
  2  1  1  1
  2  3  1  0
  3  4  1  0
  4  8  1  0
  5  4  2  0
  5  6  1  0
  6  7  1  0
  8  7  2  0
  9 11  1  0
  9  2  1  0
 10  9  2  0
 12 11  1  0
 13 14  1  0
 12 13  1  6
 14 15  1  0
 15 16  2  0
 15 19  1  0
 17 12  1  0
 17 20  1  0
 18 17  2  0
 21 20  1  0
 21 28  1  0
 21 22  1  1
 23 22  1  0
 23 24  2  0
 25 24  1  0
 26 25  1  0
 27 26  2  0
 27 23  1  0
 28 29  2  0
 28 30  1  0
M  END
$$$$
