HEH.pdb
     RDKit          3D

 30 31  0  0  1  0  0  0  0  0999 V2000
   24.9343  -20.7135  -18.1577 N   0  0  0  0  0  0  0  0  0  0  0  0
   23.5936  -20.4101  -18.5543 C   0  0  1  0  0  0  0  0  0  0  0  0
   23.1071  -21.4366  -19.5275 C   0  0  0  0  0  0  0  0  0  0  0  0
   23.9824  -21.3448  -20.7379 C   0  0  0  0  0  0  0  0  0  0  0  0
   23.6477  -20.8883  -21.9983 C   0  0  0  0  0  0  0  0  0  0  0  0
   24.7294  -20.9714  -22.7959 N   0  0  0  0  0  0  0  0  0  0  0  0
   25.7354  -21.4657  -22.0785 C   0  0  0  0  0  0  0  0  0  0  0  0
   25.2972  -21.6950  -20.8358 N   0  0  0  0  0  0  0  0  0  0  0  0
   22.6785  -20.1988  -17.4189 C   0  0  0  0  0  0  0  0  0  0  0  0
   22.5388  -21.0787  -16.5340 O   0  0  0  0  0  0  0  0  0  0  0  0
   21.8947  -18.9957  -17.2434 N   0  0  0  0  0  0  0  0  0  0  0  0
   21.0318  -18.7720  -16.1408 C   0  0  1  0  0  0  0  0  0  0  0  0
   20.7419  -17.3878  -15.7169 C   0  0  0  0  0  0  0  0  0  0  0  0
   19.8629  -17.2101  -14.5240 C   0  0  0  0  0  0  0  0  0  0  0  0
   19.4095  -15.8646  -14.2153 C   0  0  0  0  0  0  0  0  0  0  0  0
   19.8031  -14.8013  -14.7398 O   0  0  0  0  0  0  0  0  0  0  0  0
   19.7141  -19.4929  -16.3097 C   0  0  0  0  0  0  0  0  0  0  0  0
   19.1216  -19.3471  -17.4098 O   0  0  0  0  0  0  0  0  0  0  0  0
   18.4152  -15.7319  -13.2135 O   0  0  0  0  0  0  0  0  0  0  0  0
   19.1260  -20.3007  -15.3294 N   0  0  0  0  0  0  0  0  0  0  0  0
   17.8095  -20.9390  -15.5035 C   0  0  1  0  0  0  0  0  0  0  0  0
   17.7454  -22.1748  -14.6349 C   0  0  0  0  0  0  0  0  0  0  0  0
   16.4742  -22.9337  -14.7715 C   0  0  0  0  0  0  0  0  0  0  0  0
   15.3803  -22.6145  -15.5472 C   0  0  0  0  0  0  0  0  0  0  0  0
   14.4425  -23.5591  -15.3633 N   0  0  0  0  0  0  0  0  0  0  0  0
   14.9424  -24.4387  -14.4971 C   0  0  0  0  0  0  0  0  0  0  0  0
   16.1680  -24.0726  -14.1323 N   0  0  0  0  0  0  0  0  0  0  0  0
   16.7957  -19.9810  -15.0189 C   0  0  0  0  0  0  0  0  0  0  0  0
   17.1236  -19.1444  -14.1350 O   0  0  0  0  0  0  0  0  0  0  0  0
   15.4902  -19.9561  -15.4945 O   0  0  0  0  0  0  0  0  0  0  0  0
  2  1  1  1
  2  3  1  0
  3  4  1  0
  4  8  1  0
  5  4  2  0
  5  6  1  0
  6  7  1  0
  8  7  2  0
  9 11  1  0
  9  2  1  0
 10  9  2  0
 12 11  1  0
 13 14  1  0
 12 13  1  6
 14 15  1  0
 15 16  2  0
 15 19  1  0
 17 12  1  0
 17 20  1  0
 18 17  2  0
 21 20  1  0
 21 28  1  0
 21 22  1  1
 23 22  1  0
 23 24  2  0
 25 24  1  0
 26 25  1  0
 27 26  2  0
 27 23  1  0
 28 29  2  0
 28 30  1  0
M  END
$$$$
