HEH.pdb
     RDKit          3D

 30 31  0  0  1  0  0  0  0  0999 V2000
   15.4206  -18.1659    3.6545 N   0  0  0  0  0  0  0  0  0  0  0  0
   16.4653  -18.6810    4.4852 C   0  0  1  0  0  0  0  0  0  0  0  0
   17.6953  -18.9166    3.6672 C   0  0  0  0  0  0  0  0  0  0  0  0
   17.3603  -19.9753    2.6639 C   0  0  0  0  0  0  0  0  0  0  0  0
   17.0569  -21.3031    2.8960 C   0  0  0  0  0  0  0  0  0  0  0  0
   16.8153  -21.9096    1.7183 N   0  0  0  0  0  0  0  0  0  0  0  0
   16.9567  -21.0066    0.7511 C   0  0  0  0  0  0  0  0  0  0  0  0
   17.2854  -19.8362    1.3089 N   0  0  0  0  0  0  0  0  0  0  0  0
   16.7100  -17.8715    5.6917 C   0  0  0  0  0  0  0  0  0  0  0  0
   17.0322  -16.6613    5.5989 O   0  0  0  0  0  0  0  0  0  0  0  0
   16.6001  -18.3950    7.0356 N   0  0  0  0  0  0  0  0  0  0  0  0
   16.7840  -17.6119    8.2033 C   0  0  1  0  0  0  0  0  0  0  0  0
   15.7600  -17.6449    9.2663 C   0  0  0  0  0  0  0  0  0  0  0  0
   14.4050  -17.1210    8.9241 C   0  0  0  0  0  0  0  0  0  0  0  0
   13.3791  -17.1831    9.9512 C   0  0  0  0  0  0  0  0  0  0  0  0
   13.5027  -17.6366   11.1087 O   0  0  0  0  0  0  0  0  0  0  0  0
   18.1280  -17.8735    8.8433 C   0  0  0  0  0  0  0  0  0  0  0  0
   18.5390  -19.0624    8.8403 O   0  0  0  0  0  0  0  0  0  0  0  0
   12.0975  -16.6788    9.6154 O   0  0  0  0  0  0  0  0  0  0  0  0
   18.9287  -16.8852    9.4278 N   0  0  0  0  0  0  0  0  0  0  0  0
   20.1873  -17.1885   10.1311 C   0  0  1  0  0  0  0  0  0  0  0  0
   21.3493  -16.7784    9.2550 C   0  0  0  0  0  0  0  0  0  0  0  0
   21.7401  -17.8128    8.2612 C   0  0  0  0  0  0  0  0  0  0  0  0
   21.1722  -19.0539    8.0675 C   0  0  0  0  0  0  0  0  0  0  0  0
   21.8408  -19.6746    7.0809 N   0  0  0  0  0  0  0  0  0  0  0  0
   22.7967  -18.8404    6.6754 C   0  0  0  0  0  0  0  0  0  0  0  0
   22.7466  -17.7133    7.3799 N   0  0  0  0  0  0  0  0  0  0  0  0
   20.2134  -16.3573   11.3513 C   0  0  0  0  0  0  0  0  0  0  0  0
   21.1881  -16.4699   12.1425 O   0  0  0  0  0  0  0  0  0  0  0  0
   19.2102  -15.4502   11.6703 O   0  0  0  0  0  0  0  0  0  0  0  0
  2  1  1  6
  2  3  1  0
  3  4  1  0
  4  8  1  0
  5  4  2  0
  5  6  1  0
  6  7  1  0
  8  7  2  0
  9 11  1  0
  9  2  1  0
 10  9  2  0
 12 11  1  0
 13 14  1  0
 12 13  1  1
 14 15  1  0
 15 16  2  0
 15 19  1  0
 17 12  1  0
 17 20  1  0
 18 17  2  0
 21 20  1  0
 21 28  1  0
 21 22  1  6
 23 22  1  0
 23 24  2  0
 25 24  1  0
 26 25  1  0
 27 26  2  0
 27 23  1  0
 28 29  2  0
 28 30  1  0
M  END
$$$$
