HEH.pdb
     RDKit          3D

 30 31  0  0  1  0  0  0  0  0999 V2000
   18.4439  -11.0363  -16.7758 N   0  0  0  0  0  0  0  0  0  0  0  0
   18.2121  -10.4105  -15.5102 C   0  0  1  0  0  0  0  0  0  0  0  0
   18.1303  -11.4494  -14.4372 C   0  0  0  0  0  0  0  0  0  0  0  0
   17.0448  -12.4023  -14.8293 C   0  0  0  0  0  0  0  0  0  0  0  0
   15.8043  -12.1077  -15.3615 C   0  0  0  0  0  0  0  0  0  0  0  0
   15.1340  -13.2564  -15.5722 N   0  0  0  0  0  0  0  0  0  0  0  0
   15.9125  -14.2658  -15.1898 C   0  0  0  0  0  0  0  0  0  0  0  0
   17.0675  -13.7633  -14.7399 N   0  0  0  0  0  0  0  0  0  0  0  0
   19.1646   -9.3281  -15.2066 C   0  0  0  0  0  0  0  0  0  0  0  0
   19.0872   -8.6878  -14.1292 O   0  0  0  0  0  0  0  0  0  0  0  0
   20.2302   -8.9332  -16.1015 N   0  0  0  0  0  0  0  0  0  0  0  0
   21.1259   -7.8664  -15.8369 C   0  0  1  0  0  0  0  0  0  0  0  0
   22.5178   -7.9519  -16.3218 C   0  0  0  0  0  0  0  0  0  0  0  0
   23.4520   -6.8643  -15.9074 C   0  0  0  0  0  0  0  0  0  0  0  0
   24.8406   -6.9745  -16.3212 C   0  0  0  0  0  0  0  0  0  0  0  0
   25.5222   -6.1027  -16.9008 O   0  0  0  0  0  0  0  0  0  0  0  0
   20.5581   -6.5387  -16.2836 C   0  0  0  0  0  0  0  0  0  0  0  0
   20.2307   -6.4370  -17.4939 O   0  0  0  0  0  0  0  0  0  0  0  0
   25.5023   -8.1971  -16.0435 O   0  0  0  0  0  0  0  0  0  0  0  0
   20.3774   -5.4351  -15.4416 N   0  0  0  0  0  0  0  0  0  0  0  0
   19.8951   -4.1301  -15.9264 C   0  0  1  0  0  0  0  0  0  0  0  0
   18.7403   -3.6816  -15.0597 C   0  0  0  0  0  0  0  0  0  0  0  0
   17.4719   -4.4065  -15.3356 C   0  0  0  0  0  0  0  0  0  0  0  0
   17.1522   -5.1539  -16.4489 C   0  0  0  0  0  0  0  0  0  0  0  0
   15.9003   -5.6188  -16.2999 N   0  0  0  0  0  0  0  0  0  0  0  0
   15.4573   -5.1709  -15.1263 C   0  0  0  0  0  0  0  0  0  0  0  0
   16.3963   -4.4380  -14.5345 N   0  0  0  0  0  0  0  0  0  0  0  0
   21.0019   -3.1678  -15.7550 C   0  0  0  0  0  0  0  0  0  0  0  0
   22.1054   -3.5838  -15.3101 O   0  0  0  0  0  0  0  0  0  0  0  0
   20.8854   -1.8180  -16.0639 O   0  0  0  0  0  0  0  0  0  0  0  0
  2  1  1  6
  2  3  1  0
  3  4  1  0
  4  8  1  0
  5  4  2  0
  5  6  1  0
  6  7  1  0
  8  7  2  0
  9 11  1  0
  9  2  1  0
 10  9  2  0
 12 11  1  0
 13 14  1  0
 12 13  1  6
 14 15  1  0
 15 16  2  0
 15 19  1  0
 17 12  1  0
 17 20  1  0
 18 17  2  0
 21 20  1  0
 21 28  1  0
 21 22  1  1
 23 22  1  0
 23 24  2  0
 25 24  1  0
 26 25  1  0
 27 26  2  0
 27 23  1  0
 28 29  2  0
 28 30  1  0
M  END
$$$$
