HEH.pdb
     RDKit          3D

 30 31  0  0  1  0  0  0  0  0999 V2000
   18.6509  -15.0731  -16.7793 N   0  0  0  0  0  0  0  0  0  0  0  0
   19.2626  -14.1349  -15.8892 C   0  0  1  0  0  0  0  0  0  0  0  0
   20.6231  -14.6182  -15.4980 C   0  0  0  0  0  0  0  0  0  0  0  0
   20.4374  -15.9115  -14.7682 C   0  0  0  0  0  0  0  0  0  0  0  0
   20.8401  -17.1744  -15.1576 C   0  0  0  0  0  0  0  0  0  0  0  0
   20.4789  -18.0609  -14.2106 N   0  0  0  0  0  0  0  0  0  0  0  0
   19.8613  -17.3970  -13.2365 C   0  0  0  0  0  0  0  0  0  0  0  0
   19.8300  -16.0999  -13.5614 N   0  0  0  0  0  0  0  0  0  0  0  0
   19.2556  -12.7519  -16.3976 C   0  0  0  0  0  0  0  0  0  0  0  0
   19.4939  -12.5108  -17.6067 O   0  0  0  0  0  0  0  0  0  0  0  0
   18.9812  -11.6009  -15.5656 N   0  0  0  0  0  0  0  0  0  0  0  0
   18.7424  -10.2996  -16.0756 C   0  0  1  0  0  0  0  0  0  0  0  0
   17.4551   -9.6350  -15.7911 C   0  0  0  0  0  0  0  0  0  0  0  0
   17.2229   -8.3014  -16.4197 C   0  0  0  0  0  0  0  0  0  0  0  0
   15.9816   -7.6149  -16.1050 C   0  0  0  0  0  0  0  0  0  0  0  0
   15.6301   -6.4822  -16.4976 O   0  0  0  0  0  0  0  0  0  0  0  0
   19.8523   -9.3434  -15.7036 C   0  0  0  0  0  0  0  0  0  0  0  0
   20.3060   -9.4244  -14.5331 O   0  0  0  0  0  0  0  0  0  0  0  0
   15.0641   -8.2927  -15.2632 O   0  0  0  0  0  0  0  0  0  0  0  0
   20.3960   -8.3901  -16.5726 N   0  0  0  0  0  0  0  0  0  0  0  0
   21.5145   -7.5090  -16.1941 C   0  0  1  0  0  0  0  0  0  0  0  0
   21.9071   -6.6736  -17.3916 C   0  0  0  0  0  0  0  0  0  0  0  0
   23.0523   -5.7617  -17.1321 C   0  0  0  0  0  0  0  0  0  0  0  0
   24.3834   -5.9761  -17.4193 C   0  0  0  0  0  0  0  0  0  0  0  0
   25.0825   -4.9066  -17.0035 N   0  0  0  0  0  0  0  0  0  0  0  0
   24.2077   -4.0537  -16.4730 C   0  0  0  0  0  0  0  0  0  0  0  0
   22.9790   -4.5580  -16.5445 N   0  0  0  0  0  0  0  0  0  0  0  0
   21.0148   -6.6015  -15.1420 C   0  0  0  0  0  0  0  0  0  0  0  0
   19.8518   -6.1276  -15.2502 O   0  0  0  0  0  0  0  0  0  0  0  0
   21.7687   -6.2439  -14.0307 O   0  0  0  0  0  0  0  0  0  0  0  0
  2  1  1  6
  2  3  1  0
  3  4  1  0
  4  8  1  0
  5  4  2  0
  5  6  1  0
  6  7  1  0
  8  7  2  0
  9 11  1  0
  9  2  1  0
 10  9  2  0
 12 11  1  0
 13 14  1  0
 12 13  1  1
 14 15  1  0
 15 16  2  0
 15 19  1  0
 17 12  1  0
 17 20  1  0
 18 17  2  0
 21 20  1  0
 21 28  1  0
 21 22  1  6
 23 22  1  0
 23 24  2  0
 25 24  1  0
 26 25  1  0
 27 26  2  0
 27 23  1  0
 28 29  2  0
 28 30  1  0
M  END
$$$$
