HEH.pdb
     RDKit          3D

 30 31  0  0  1  0  0  0  0  0999 V2000
   18.2000  -11.6020  -15.4385 N   0  0  0  0  0  0  0  0  0  0  0  0
   18.5060  -10.3651  -16.0892 C   0  0  1  0  0  0  0  0  0  0  0  0
   17.2568   -9.5614  -16.2659 C   0  0  0  0  0  0  0  0  0  0  0  0
   16.3543  -10.3438  -17.1677 C   0  0  0  0  0  0  0  0  0  0  0  0
   15.5382  -11.4093  -16.8399 C   0  0  0  0  0  0  0  0  0  0  0  0
   14.8912  -11.8223  -17.9463 N   0  0  0  0  0  0  0  0  0  0  0  0
   15.2735  -11.0511  -18.9612 C   0  0  0  0  0  0  0  0  0  0  0  0
   16.1558  -10.1557  -18.5042 N   0  0  0  0  0  0  0  0  0  0  0  0
   19.5984   -9.6161  -15.4437 C   0  0  0  0  0  0  0  0  0  0  0  0
   19.4904   -9.2166  -14.2581 O   0  0  0  0  0  0  0  0  0  0  0  0
   20.8421   -9.2940  -16.1084 N   0  0  0  0  0  0  0  0  0  0  0  0
   21.8698   -8.5137  -15.5209 C   0  0  1  0  0  0  0  0  0  0  0  0
   23.2786   -8.7991  -15.8579 C   0  0  0  0  0  0  0  0  0  0  0  0
   23.7873  -10.1695  -15.5566 C   0  0  0  0  0  0  0  0  0  0  0  0
   25.2020  -10.4249  -15.7683 C   0  0  0  0  0  0  0  0  0  0  0  0
   26.0419   -9.6385  -16.2550 O   0  0  0  0  0  0  0  0  0  0  0  0
   21.6325   -7.0351  -15.7259 C   0  0  0  0  0  0  0  0  0  0  0  0
   21.3725   -6.6565  -16.8970 O   0  0  0  0  0  0  0  0  0  0  0  0
   25.6926  -11.6989  -15.3863 O   0  0  0  0  0  0  0  0  0  0  0  0
   21.6832   -6.0794  -14.7044 N   0  0  0  0  0  0  0  0  0  0  0  0
   21.3286   -4.6648  -14.9146 C   0  0  1  0  0  0  0  0  0  0  0  0
   19.9916   -4.3928  -14.2633 C   0  0  0  0  0  0  0  0  0  0  0  0
   18.8317   -4.8675  -15.0631 C   0  0  0  0  0  0  0  0  0  0  0  0
   18.8408   -5.3673  -16.3478 C   0  0  0  0  0  0  0  0  0  0  0  0
   17.5764   -5.6603  -16.6956 N   0  0  0  0  0  0  0  0  0  0  0  0
   16.8058   -5.3499  -15.6544 C   0  0  0  0  0  0  0  0  0  0  0  0
   17.5514   -4.8704  -14.6628 N   0  0  0  0  0  0  0  0  0  0  0  0
   22.3517   -3.8541  -14.2245 C   0  0  0  0  0  0  0  0  0  0  0  0
   23.2366   -4.4417  -13.5458 O   0  0  0  0  0  0  0  0  0  0  0  0
   22.3874   -2.4665  -14.2890 O   0  0  0  0  0  0  0  0  0  0  0  0
  2  1  1  1
  2  3  1  0
  3  4  1  0
  4  8  1  0
  5  4  2  0
  5  6  1  0
  6  7  1  0
  8  7  2  0
  9 11  1  0
  9  2  1  0
 10  9  2  0
 12 11  1  0
 13 14  1  0
 12 13  1  6
 14 15  1  0
 15 16  2  0
 15 19  1  0
 17 12  1  0
 17 20  1  0
 18 17  2  0
 21 20  1  0
 21 28  1  0
 21 22  1  1
 23 22  1  0
 23 24  2  0
 25 24  1  0
 26 25  1  0
 27 26  2  0
 27 23  1  0
 28 29  2  0
 28 30  1  0
M  END
$$$$
