EWN.pdb
     RDKit          3D

 32 33  0  0  1  0  0  0  0  0999 V2000
   27.9479  -22.6205  -16.0615 N   0  0  0  0  0  0  0  0  0  0  0  0
   27.4185  -21.3777  -15.6070 C   0  0  1  0  0  0  0  0  0  0  0  0
   26.6695  -20.6489  -16.6580 C   0  0  0  0  0  0  0  0  0  0  0  0
   27.4341  -20.2352  -17.8682 C   0  0  0  0  0  0  0  0  0  0  0  0
   28.5595  -19.3382  -17.6615 C   0  0  0  0  0  0  0  0  0  0  0  0
   28.5641  -18.1202  -17.4249 O   0  0  0  0  0  0  0  0  0  0  0  0
   26.6491  -21.5724  -14.3559 C   0  0  0  0  0  0  0  0  0  0  0  0
   25.4740  -21.9851  -14.4509 O   0  0  0  0  0  0  0  0  0  0  0  0
   29.8443  -19.9390  -17.7408 O   0  0  0  0  0  0  0  0  0  0  0  0
   27.2050  -21.3052  -13.0993 N   0  0  0  0  0  0  0  0  0  0  0  0
   26.5302  -21.3014  -11.8305 C   0  0  1  0  0  0  0  0  0  0  0  0
   27.4337  -21.0891  -10.6295 C   0  0  0  0  0  0  0  0  0  0  0  0
   26.7402  -20.7657   -9.3904 C   0  0  0  0  0  0  0  0  0  0  0  0
   25.4008  -20.7354   -9.1454 C   0  0  0  0  0  0  0  0  0  0  0  0
   25.2049  -20.3959   -7.8440 N   0  0  0  0  0  0  0  0  0  0  0  0
   26.3714  -20.2024   -7.2258 C   0  0  0  0  0  0  0  0  0  0  0  0
   26.7008  -19.8537   -5.9317 C   0  0  0  0  0  0  0  0  0  0  0  0
   28.0245  -19.7253   -5.5649 C   0  0  0  0  0  0  0  0  0  0  0  0
   28.9927  -19.9541   -6.5214 C   0  0  0  0  0  0  0  0  0  0  0  0
   28.6651  -20.3064   -7.8293 C   0  0  0  0  0  0  0  0  0  0  0  0
   27.3428  -20.4314   -8.1847 C   0  0  0  0  0  0  0  0  0  0  0  0
   25.3912  -20.3905  -11.7345 C   0  0  0  0  0  0  0  0  0  0  0  0
   25.5017  -19.1268  -11.7863 O   0  0  0  0  0  0  0  0  0  0  0  0
   20.6927  -18.9748  -13.1720 N   0  0  0  0  0  0  0  0  0  0  0  0
   21.6169  -19.6042  -14.0486 C   0  0  0  0  0  0  0  0  0  0  0  0
   21.3756  -19.5533  -15.2753 O   0  0  0  0  0  0  0  0  0  0  0  0
   22.7996  -20.2792  -13.4973 C   0  0  0  0  0  0  0  0  0  0  0  0
   22.8998  -20.1614  -11.9940 C   0  0  2  0  0  0  0  0  0  0  0  0
   24.0837  -20.9090  -11.5769 N   0  0  0  0  0  0  0  0  0  0  0  0
   21.7380  -20.8855  -11.4020 C   0  0  0  0  0  0  0  0  0  0  0  0
   20.5215  -20.2280  -11.2579 O   0  0  0  0  0  0  0  0  0  0  0  0
   21.7841  -22.0813  -11.0137 O   0  0  0  0  0  0  0  0  0  0  0  0
  2  1  1  6
  2  3  1  0
  3  4  1  0
  4  5  1  0
  5  9  1  0
  6  5  2  0
  7  2  1  0
  8  7  2  0
 10  7  1  0
 11 10  1  0
 11 12  1  1
 12 13  1  0
 13 14  2  0
 14 15  1  0
 16 15  1  0
 17 16  2  0
 18 17  1  0
 19 20  1  0
 19 18  2  0
 20 21  2  0
 21 13  1  0
 21 16  1  0
 22 11  1  0
 23 22  2  0
 25 24  1  0
 26 25  2  0
 28 27  1  6
 27 25  1  0
 28 29  1  0
 29 22  1  0
 30 28  1  0
 30 31  1  0
 32 30  2  0
M  END
$$$$
