EWN.pdb
     RDKit          3D

 32 33  0  0  1  0  0  0  0  0999 V2000
   27.1976  -17.3430  -18.8958 N   0  0  0  0  0  0  0  0  0  0  0  0
   26.6924  -18.1620  -17.8445 C   0  0  1  0  0  0  0  0  0  0  0  0
   27.7217  -18.5096  -16.8363 C   0  0  0  0  0  0  0  0  0  0  0  0
   28.8819  -19.3176  -17.3069 C   0  0  0  0  0  0  0  0  0  0  0  0
   28.5880  -20.4560  -18.1622 C   0  0  0  0  0  0  0  0  0  0  0  0
   29.0799  -20.7669  -19.2580 O   0  0  0  0  0  0  0  0  0  0  0  0
   25.4711  -17.5579  -17.2627 C   0  0  0  0  0  0  0  0  0  0  0  0
   25.5877  -16.4706  -16.6590 O   0  0  0  0  0  0  0  0  0  0  0  0
   27.5928  -21.3460  -17.6770 O   0  0  0  0  0  0  0  0  0  0  0  0
   24.2188  -18.1734  -17.3746 N   0  0  0  0  0  0  0  0  0  0  0  0
   22.9471  -17.6426  -16.9672 C   0  0  1  0  0  0  0  0  0  0  0  0
   22.0284  -17.2443  -18.1079 C   0  0  0  0  0  0  0  0  0  0  0  0
   22.5226  -16.1574  -18.9418 C   0  0  0  0  0  0  0  0  0  0  0  0
   23.1628  -15.0161  -18.5644 C   0  0  0  0  0  0  0  0  0  0  0  0
   23.4538  -14.2929  -19.6778 N   0  0  0  0  0  0  0  0  0  0  0  0
   23.0261  -14.9216  -20.7743 C   0  0  0  0  0  0  0  0  0  0  0  0
   23.0819  -14.6084  -22.1173 C   0  0  0  0  0  0  0  0  0  0  0  0
   22.5464  -15.4703  -23.0520 C   0  0  0  0  0  0  0  0  0  0  0  0
   21.9625  -16.6381  -22.6050 C   0  0  0  0  0  0  0  0  0  0  0  0
   21.9038  -16.9587  -21.2500 C   0  0  0  0  0  0  0  0  0  0  0  0
   22.4401  -16.0928  -20.3266 C   0  0  0  0  0  0  0  0  0  0  0  0
   22.2000  -18.4723  -16.0239 C   0  0  0  0  0  0  0  0  0  0  0  0
   22.3911  -19.7201  -15.8885 O   0  0  0  0  0  0  0  0  0  0  0  0
   18.8771  -19.7365  -12.2132 N   0  0  0  0  0  0  0  0  0  0  0  0
   18.9292  -18.3185  -12.2845 C   0  0  0  0  0  0  0  0  0  0  0  0
   18.2307  -17.6735  -11.4710 O   0  0  0  0  0  0  0  0  0  0  0  0
   19.7830  -17.6707  -13.2894 C   0  0  0  0  0  0  0  0  0  0  0  0
   20.4893  -18.6582  -14.1892 C   0  0  2  0  0  0  0  0  0  0  0  0
   21.2067  -17.8879  -15.2023 N   0  0  0  0  0  0  0  0  0  0  0  0
   19.4469  -19.4251  -14.9308 C   0  0  0  0  0  0  0  0  0  0  0  0
   18.9974  -20.6387  -14.4228 O   0  0  0  0  0  0  0  0  0  0  0  0
   18.9332  -19.0396  -16.0126 O   0  0  0  0  0  0  0  0  0  0  0  0
  2  1  1  6
  2  3  1  0
  3  4  1  0
  4  5  1  0
  5  9  1  0
  6  5  2  0
  7  2  1  0
  8  7  2  0
 10  7  1  0
 11 10  1  0
 11 12  1  6
 12 13  1  0
 13 14  2  0
 14 15  1  0
 16 15  1  0
 17 16  2  0
 18 17  1  0
 19 20  1  0
 19 18  2  0
 20 21  2  0
 21 13  1  0
 21 16  1  0
 22 11  1  0
 23 22  2  0
 25 24  1  0
 26 25  2  0
 28 27  1  1
 27 25  1  0
 28 29  1  0
 29 22  1  0
 30 28  1  0
 30 31  1  0
 32 30  2  0
M  END
$$$$
