EWN.pdb
     RDKit          3D

 32 33  0  0  1  0  0  0  0  0999 V2000
   28.4049  -20.7047  -16.1118 N   0  0  0  0  0  0  0  0  0  0  0  0
   27.7121  -21.9484  -16.1806 C   0  0  1  0  0  0  0  0  0  0  0  0
   28.6214  -23.1102  -16.3221 C   0  0  0  0  0  0  0  0  0  0  0  0
   29.4407  -23.1789  -17.5648 C   0  0  0  0  0  0  0  0  0  0  0  0
   29.0385  -22.3204  -18.6671 C   0  0  0  0  0  0  0  0  0  0  0  0
   27.9000  -22.0319  -19.0672 O   0  0  0  0  0  0  0  0  0  0  0  0
   26.7619  -22.0717  -15.0505 C   0  0  0  0  0  0  0  0  0  0  0  0
   26.1873  -23.1687  -14.8873 O   0  0  0  0  0  0  0  0  0  0  0  0
   30.1005  -21.7215  -19.3962 O   0  0  0  0  0  0  0  0  0  0  0  0
   26.5029  -21.0025  -14.1849 N   0  0  0  0  0  0  0  0  0  0  0  0
   25.6380  -20.9998  -13.0373 C   0  0  1  0  0  0  0  0  0  0  0  0
   26.0379  -20.0292  -11.9410 C   0  0  0  0  0  0  0  0  0  0  0  0
   27.2499  -20.3875  -11.2174 C   0  0  0  0  0  0  0  0  0  0  0  0
   28.4278  -20.8628  -11.7089 C   0  0  0  0  0  0  0  0  0  0  0  0
   29.2882  -21.0461  -10.6728 N   0  0  0  0  0  0  0  0  0  0  0  0
   28.7147  -20.7066   -9.5170 C   0  0  0  0  0  0  0  0  0  0  0  0
   29.1620  -20.7091   -8.2113 C   0  0  0  0  0  0  0  0  0  0  0  0
   28.3297  -20.2914   -7.1935 C   0  0  0  0  0  0  0  0  0  0  0  0
   27.0545  -19.8772   -7.5207 C   0  0  0  0  0  0  0  0  0  0  0  0
   26.5983  -19.8728   -8.8375 C   0  0  0  0  0  0  0  0  0  0  0  0
   27.4357  -20.2914   -9.8444 C   0  0  0  0  0  0  0  0  0  0  0  0
   24.2166  -20.8257  -13.3300 C   0  0  0  0  0  0  0  0  0  0  0  0
   23.7623  -19.8833  -14.0491 O   0  0  0  0  0  0  0  0  0  0  0  0
   19.0902  -21.7470  -13.3763 N   0  0  0  0  0  0  0  0  0  0  0  0
   19.7221  -22.8801  -12.7972 C   0  0  0  0  0  0  0  0  0  0  0  0
   19.0001  -23.8620  -12.5141 O   0  0  0  0  0  0  0  0  0  0  0  0
   21.1710  -22.8615  -12.5551 C   0  0  0  0  0  0  0  0  0  0  0  0
   21.8403  -21.6093  -13.0729 C   0  0  2  0  0  0  0  0  0  0  0  0
   23.2704  -21.7368  -12.8028 N   0  0  0  0  0  0  0  0  0  0  0  0
   21.3739  -20.4649  -12.2377 C   0  0  0  0  0  0  0  0  0  0  0  0
   20.2902  -19.7039  -12.6612 O   0  0  0  0  0  0  0  0  0  0  0  0
   21.9074  -20.1321  -11.1480 O   0  0  0  0  0  0  0  0  0  0  0  0
  2  1  1  1
  2  3  1  0
  3  4  1  0
  4  5  1  0
  5  9  1  0
  6  5  2  0
  7  2  1  0
  8  7  2  0
 10  7  1  0
 11 10  1  0
 11 12  1  1
 12 13  1  0
 13 14  2  0
 14 15  1  0
 16 15  1  0
 17 16  2  0
 18 17  1  0
 19 20  1  0
 19 18  2  0
 20 21  2  0
 21 13  1  0
 21 16  1  0
 22 11  1  0
 23 22  2  0
 25 24  1  0
 26 25  2  0
 28 27  1  1
 27 25  1  0
 28 29  1  0
 29 22  1  0
 30 28  1  0
 30 31  1  0
 32 30  2  0
M  END
$$$$
