EWN.pdb
     RDKit          3D

 32 33  0  0  1  0  0  0  0  0999 V2000
   27.7229  -18.5957  -13.7825 N   0  0  0  0  0  0  0  0  0  0  0  0
   27.2596  -19.7541  -14.4716 C   0  0  1  0  0  0  0  0  0  0  0  0
   28.3349  -20.4550  -15.2128 C   0  0  0  0  0  0  0  0  0  0  0  0
   29.2910  -19.6064  -15.9782 C   0  0  0  0  0  0  0  0  0  0  0  0
   28.7865  -18.9684  -17.1833 C   0  0  0  0  0  0  0  0  0  0  0  0
   27.6475  -18.9999  -17.6746 O   0  0  0  0  0  0  0  0  0  0  0  0
   26.5029  -20.6333  -13.5499 C   0  0  0  0  0  0  0  0  0  0  0  0
   26.2686  -21.8033  -13.9192 O   0  0  0  0  0  0  0  0  0  0  0  0
   29.7316  -18.1945  -17.9084 O   0  0  0  0  0  0  0  0  0  0  0  0
   26.0553  -20.1828  -12.3024 N   0  0  0  0  0  0  0  0  0  0  0  0
   25.0524  -20.7840  -11.4670 C   0  0  1  0  0  0  0  0  0  0  0  0
   25.3451  -20.7260   -9.9788 C   0  0  0  0  0  0  0  0  0  0  0  0
   26.7435  -20.9201   -9.6212 C   0  0  0  0  0  0  0  0  0  0  0  0
   27.7500  -21.4497  -10.3704 C   0  0  0  0  0  0  0  0  0  0  0  0
   28.8956  -21.4232   -9.6396 N   0  0  0  0  0  0  0  0  0  0  0  0
   28.6751  -20.8933   -8.4350 C   0  0  0  0  0  0  0  0  0  0  0  0
   29.4961  -20.6497   -7.3527 C   0  0  0  0  0  0  0  0  0  0  0  0
   28.9819  -20.0737   -6.2095 C   0  0  0  0  0  0  0  0  0  0  0  0
   27.6395  -19.7545   -6.1857 C   0  0  0  0  0  0  0  0  0  0  0  0
   26.8064  -19.9986   -7.2760 C   0  0  0  0  0  0  0  0  0  0  0  0
   27.3288  -20.5732   -8.4105 C   0  0  0  0  0  0  0  0  0  0  0  0
   23.6870  -20.3178  -11.7006 C   0  0  0  0  0  0  0  0  0  0  0  0
   23.3242  -19.1117  -11.5407 O   0  0  0  0  0  0  0  0  0  0  0  0
   19.8717  -19.9749  -15.6579 N   0  0  0  0  0  0  0  0  0  0  0  0
   20.2788  -19.5003  -14.3821 C   0  0  0  0  0  0  0  0  0  0  0  0
   19.5196  -18.6970  -13.7956 O   0  0  0  0  0  0  0  0  0  0  0  0
   21.5504  -19.9586  -13.8063 C   0  0  0  0  0  0  0  0  0  0  0  0
   21.3678  -20.7857  -12.5547 C   0  0  2  0  0  0  0  0  0  0  0  0
   22.6931  -21.2297  -12.1294 N   0  0  0  0  0  0  0  0  0  0  0  0
   20.6303  -22.0261  -12.9319 C   0  0  0  0  0  0  0  0  0  0  0  0
   19.2418  -22.0457  -12.8634 O   0  0  0  0  0  0  0  0  0  0  0  0
   21.1926  -23.0833  -13.3178 O   0  0  0  0  0  0  0  0  0  0  0  0
  2  1  1  1
  2  3  1  0
  3  4  1  0
  4  5  1  0
  5  9  1  0
  6  5  2  0
  7  2  1  0
  8  7  2  0
 10  7  1  0
 11 10  1  0
 11 12  1  1
 12 13  1  0
 13 14  2  0
 14 15  1  0
 16 15  1  0
 17 16  2  0
 18 17  1  0
 19 20  1  0
 19 18  2  0
 20 21  2  0
 21 13  1  0
 21 16  1  0
 22 11  1  0
 23 22  2  0
 25 24  1  0
 26 25  2  0
 28 27  1  6
 27 25  1  0
 28 29  1  0
 29 22  1  0
 30 28  1  0
 30 31  1  0
 32 30  2  0
M  END
$$$$
