VSA.pdb
     RDKit          3D

 19 18  0  0  1  0  0  0  0  0999 V2000
   18.2606  -10.8422  -20.6164 C   0  0  0  0  0  0  0  0  0  0  0  0
   18.5953  -10.2754  -19.2676 C   0  0  2  0  0  0  0  0  0  0  0  0
   19.3126   -8.9605  -19.4480 C   0  0  0  0  0  0  0  0  0  0  0  0
   19.5067  -11.2129  -18.4853 C   0  0  2  0  0  0  0  0  0  0  0  0
   18.9260  -12.5061  -18.3059 N   0  0  0  0  0  0  0  0  0  0  0  0
   19.8752  -10.6167  -17.1737 C   0  0  0  0  0  0  0  0  0  0  0  0
   19.0388  -10.5168  -16.2410 O   0  0  0  0  0  0  0  0  0  0  0  0
   23.2708   -9.5119  -14.0622 O   0  0  0  0  0  0  0  0  0  0  0  0
   22.9730  -10.0117  -15.3237 C   0  0  0  0  0  0  0  0  0  0  0  0
   21.5961   -9.5344  -15.6972 C   0  0  2  0  0  0  0  0  0  0  0  0
   21.1893  -10.1440  -16.9448 N   0  0  0  0  0  0  0  0  0  0  0  0
   21.6273   -8.0546  -15.8133 C   0  0  0  0  0  0  0  0  0  0  0  0
   22.1949   -7.5277  -16.7872 O   0  0  0  0  0  0  0  0  0  0  0  0
   19.6129   -5.3271  -14.4532 C   0  0  0  0  0  0  0  0  0  0  0  0
   20.9742   -5.8279  -14.8730 C   0  0  2  0  0  0  0  0  0  0  0  0
   21.0086   -7.2694  -14.8102 N   0  0  0  0  0  0  0  0  0  0  0  0
   22.0143   -5.2363  -14.0003 C   0  0  0  0  0  0  0  0  0  0  0  0
   22.5323   -5.9977  -12.9628 O   0  0  0  0  0  0  0  0  0  0  0  0
   22.4372   -4.0730  -14.1725 O   0  0  0  0  0  0  0  0  0  0  0  0
  2  3  1  6
  2  1  1  0
  4  2  1  0
  4  5  1  1
  6  4  1  0
  6 11  1  0
  7  6  2  0
  9  8  1  0
 10 11  1  0
 10  9  1  6
 12 10  1  0
 12 16  1  0
 13 12  2  0
 15 16  1  0
 15 14  1  1
 17 15  1  0
 18 17  1  0
 19 17  2  0
M  END
$$$$
