VSA.pdb
     RDKit          3D

 19 18  0  0  1  0  0  0  0  0999 V2000
   19.8952  -12.0564  -17.9379 C   0  0  0  0  0  0  0  0  0  0  0  0
   19.8661  -12.1529  -16.4405 C   0  0  2  0  0  0  0  0  0  0  0  0
   19.9127  -13.6061  -16.0378 C   0  0  0  0  0  0  0  0  0  0  0  0
   18.5918  -11.5409  -15.8722 C   0  0  2  0  0  0  0  0  0  0  0  0
   17.4158  -12.1830  -16.3687 N   0  0  0  0  0  0  0  0  0  0  0  0
   18.5442  -10.0789  -16.1404 C   0  0  0  0  0  0  0  0  0  0  0  0
   17.8600   -9.6074  -17.0833 O   0  0  0  0  0  0  0  0  0  0  0  0
   17.9795   -5.8094  -15.5049 O   0  0  0  0  0  0  0  0  0  0  0  0
   17.9528   -7.1630  -15.1937 C   0  0  0  0  0  0  0  0  0  0  0  0
   19.2879   -7.7492  -15.5639 C   0  0  2  0  0  0  0  0  0  0  0  0
   19.2759   -9.1774  -15.3314 N   0  0  0  0  0  0  0  0  0  0  0  0
   20.3351   -7.0859  -14.7466 C   0  0  0  0  0  0  0  0  0  0  0  0
   20.4615   -7.3909  -13.5470 O   0  0  0  0  0  0  0  0  0  0  0  0
   23.1314   -4.7308  -15.6492 C   0  0  0  0  0  0  0  0  0  0  0  0
   22.3457   -5.5948  -14.6920 C   0  0  2  0  0  0  0  0  0  0  0  0
   21.1719   -6.1161  -15.3505 N   0  0  0  0  0  0  0  0  0  0  0  0
   21.9730   -4.8038  -13.4967 C   0  0  0  0  0  0  0  0  0  0  0  0
   22.9010   -4.6513  -12.4769 O   0  0  0  0  0  0  0  0  0  0  0  0
   20.8483   -4.2712  -13.3819 O   0  0  0  0  0  0  0  0  0  0  0  0
  2  3  1  6
  2  1  1  0
  4  2  1  0
  4  5  1  6
  6  4  1  0
  6 11  1  0
  7  6  2  0
  9  8  1  0
 10 11  1  0
 10  9  1  1
 12 10  1  0
 12 16  1  0
 13 12  2  0
 15 16  1  0
 15 14  1  6
 17 15  1  0
 18 17  1  0
 19 17  2  0
M  END
$$$$
