VSA.pdb
     RDKit          3D

 19 18  0  0  1  0  0  0  0  0999 V2000
   38.2604   -1.1598   -3.9700 C   0  0  0  0  0  0  0  0  0  0  0  0
   38.1893   -2.4397   -4.7504 C   0  0  2  0  0  0  0  0  0  0  0  0
   39.3319   -3.3344   -4.3379 C   0  0  0  0  0  0  0  0  0  0  0  0
   38.3025   -2.1808   -6.2476 C   0  0  2  0  0  0  0  0  0  0  0  0
   37.3268   -1.2445   -6.7093 N   0  0  0  0  0  0  0  0  0  0  0  0
   38.2106   -3.4536   -7.0111 C   0  0  0  0  0  0  0  0  0  0  0  0
   37.1037   -4.0048   -7.2357 O   0  0  0  0  0  0  0  0  0  0  0  0
   40.5370   -4.5967  -10.1034 O   0  0  0  0  0  0  0  0  0  0  0  0
   40.6100   -5.4832   -9.0363 C   0  0  0  0  0  0  0  0  0  0  0  0
   39.3521   -5.3344   -8.2245 C   0  0  2  0  0  0  0  0  0  0  0  0
   39.3797   -4.0785   -7.5064 N   0  0  0  0  0  0  0  0  0  0  0  0
   39.2600   -6.4817   -7.2865 C   0  0  0  0  0  0  0  0  0  0  0  0
   39.8845   -6.4462   -6.2109 O   0  0  0  0  0  0  0  0  0  0  0  0
   37.3765   -9.7454   -7.3938 C   0  0  0  0  0  0  0  0  0  0  0  0
   38.3166   -8.7424   -6.7689 C   0  0  2  0  0  0  0  0  0  0  0  0
   38.4606   -7.5973   -7.6356 N   0  0  0  0  0  0  0  0  0  0  0  0
   39.6288   -9.3800   -6.5139 C   0  0  0  0  0  0  0  0  0  0  0  0
   39.8711   -9.9420   -5.2690 O   0  0  0  0  0  0  0  0  0  0  0  0
   40.5215   -9.4254   -7.3874 O   0  0  0  0  0  0  0  0  0  0  0  0
  2  3  1  1
  2  1  1  0
  4  2  1  0
  4  5  1  6
  6  4  1  0
  6 11  1  0
  7  6  2  0
  9  8  1  0
 10 11  1  0
 10  9  1  1
 12 10  1  0
 12 16  1  0
 13 12  2  0
 15 16  1  0
 15 14  1  6
 17 15  1  0
 18 17  1  0
 19 17  2  0
M  END
$$$$
