VSA.pdb
     RDKit          3D

 19 18  0  0  1  0  0  0  0  0999 V2000
   27.8506  -12.9295  -15.9653 C   0  0  0  0  0  0  0  0  0  0  0  0
   27.1965  -11.6668  -16.4449 C   0  0  2  0  0  0  0  0  0  0  0  0
   27.1139  -10.6873  -15.3005 C   0  0  0  0  0  0  0  0  0  0  0  0
   25.7832  -11.9335  -16.9478 C   0  0  2  0  0  0  0  0  0  0  0  0
   25.7519  -12.9363  -17.9653 N   0  0  0  0  0  0  0  0  0  0  0  0
   25.1493  -10.6774  -17.4295 C   0  0  0  0  0  0  0  0  0  0  0  0
   25.5557  -10.0937  -18.4657 O   0  0  0  0  0  0  0  0  0  0  0  0
   21.4036   -9.9662  -16.5645 O   0  0  0  0  0  0  0  0  0  0  0  0
   21.9885   -9.2118  -17.5738 C   0  0  0  0  0  0  0  0  0  0  0  0
   23.3990   -8.8956  -17.1567 C   0  0  2  0  0  0  0  0  0  0  0  0
   24.0636  -10.1061  -16.7243 N   0  0  0  0  0  0  0  0  0  0  0  0
   23.3518   -7.8942  -16.0616 C   0  0  0  0  0  0  0  0  0  0  0  0
   23.2492   -8.2790  -14.8828 O   0  0  0  0  0  0  0  0  0  0  0  0
   23.5900   -4.1360  -15.9891 C   0  0  0  0  0  0  0  0  0  0  0  0
   23.2980   -5.4859  -15.3787 C   0  0  2  0  0  0  0  0  0  0  0  0
   23.4246   -6.5165  -16.3813 N   0  0  0  0  0  0  0  0  0  0  0  0
   21.9382   -5.4845  -14.7918 C   0  0  0  0  0  0  0  0  0  0  0  0
   21.7436   -4.8955  -13.5510 O   0  0  0  0  0  0  0  0  0  0  0  0
   20.9638   -5.9981  -15.3822 O   0  0  0  0  0  0  0  0  0  0  0  0
  2  3  1  1
  2  1  1  0
  4  2  1  0
  4  5  1  6
  6  4  1  0
  6 11  1  0
  7  6  2  0
  9  8  1  0
 10 11  1  0
 10  9  1  1
 12 10  1  0
 12 16  1  0
 13 12  2  0
 15 16  1  0
 15 14  1  6
 17 15  1  0
 18 17  1  0
 19 17  2  0
M  END
$$$$
