VSA.pdb
     RDKit          3D

 19 18  0  0  1  0  0  0  0  0999 V2000
   17.1850  -11.6947  -19.0701 C   0  0  0  0  0  0  0  0  0  0  0  0
   16.6266  -10.6489  -18.1499 C   0  0  2  0  0  0  0  0  0  0  0  0
   17.1949   -9.3034  -18.5279 C   0  0  0  0  0  0  0  0  0  0  0  0
   16.9981  -10.9336  -16.6999 C   0  0  2  0  0  0  0  0  0  0  0  0
   16.5694  -12.2293  -16.2767 N   0  0  0  0  0  0  0  0  0  0  0  0
   16.4551   -9.8814  -15.8003 C   0  0  0  0  0  0  0  0  0  0  0  0
   15.2206   -9.7702  -15.5920 O   0  0  0  0  0  0  0  0  0  0  0  0
   16.8148   -8.6692  -12.1551 O   0  0  0  0  0  0  0  0  0  0  0  0
   17.5445   -7.8632  -13.0198 C   0  0  0  0  0  0  0  0  0  0  0  0
   16.8476   -7.8654  -14.3531 C   0  0  2  0  0  0  0  0  0  0  0  0
   17.3254   -8.9730  -15.1523 N   0  0  0  0  0  0  0  0  0  0  0  0
   17.1160   -6.5692  -15.0255 C   0  0  0  0  0  0  0  0  0  0  0  0
   18.1642   -6.4232  -15.6799 O   0  0  0  0  0  0  0  0  0  0  0  0
   15.1067   -3.4084  -15.4107 C   0  0  0  0  0  0  0  0  0  0  0  0
   16.3612   -4.2385  -15.5425 C   0  0  2  0  0  0  0  0  0  0  0  0
   16.1708   -5.5211  -14.9085 N   0  0  0  0  0  0  0  0  0  0  0  0
   17.5037   -3.5153  -14.9384 C   0  0  0  0  0  0  0  0  0  0  0  0
   18.0069   -2.3960  -15.5852 O   0  0  0  0  0  0  0  0  0  0  0  0
   18.0256   -3.8849  -13.8647 O   0  0  0  0  0  0  0  0  0  0  0  0
  2  3  1  6
  2  1  1  0
  4  2  1  0
  4  5  1  1
  6  4  1  0
  6 11  1  0
  7  6  2  0
  9  8  1  0
 10 11  1  0
 10  9  1  1
 12 10  1  0
 12 16  1  0
 13 12  2  0
 15 16  1  0
 15 14  1  1
 17 15  1  0
 18 17  1  0
 19 17  2  0
M  END
$$$$
