VSA.pdb
     RDKit          3D

 19 18  0  0  1  0  0  0  0  0999 V2000
   14.1538  -11.0347  -15.8339 C   0  0  0  0  0  0  0  0  0  0  0  0
   14.5989  -10.4190  -14.5395 C   0  0  2  0  0  0  0  0  0  0  0  0
   14.2104   -8.9613  -14.5261 C   0  0  0  0  0  0  0  0  0  0  0  0
   16.1107  -10.5116  -14.3750 C   0  0  2  0  0  0  0  0  0  0  0  0
   16.5759  -11.8623  -14.4049 N   0  0  0  0  0  0  0  0  0  0  0  0
   16.5474   -9.8339  -13.1254 C   0  0  0  0  0  0  0  0  0  0  0  0
   16.3451  -10.3473  -11.9962 O   0  0  0  0  0  0  0  0  0  0  0  0
   19.9697   -7.6985  -12.5434 O   0  0  0  0  0  0  0  0  0  0  0  0
   18.8051   -6.9576  -12.3864 C   0  0  0  0  0  0  0  0  0  0  0  0
   17.7020   -7.9057  -12.0021 C   0  0  2  0  0  0  0  0  0  0  0  0
   17.2070   -8.5831  -13.1810 N   0  0  0  0  0  0  0  0  0  0  0  0
   16.6228   -7.1281  -11.3426 C   0  0  0  0  0  0  0  0  0  0  0  0
   15.8131   -6.4900  -12.0394 O   0  0  0  0  0  0  0  0  0  0  0  0
   15.4863   -6.8155   -7.7730 C   0  0  0  0  0  0  0  0  0  0  0  0
   15.5203   -6.3866   -9.2204 C   0  0  2  0  0  0  0  0  0  0  0  0
   16.5358   -7.1279   -9.9291 N   0  0  0  0  0  0  0  0  0  0  0  0
   15.7752   -4.9300   -9.3034 C   0  0  0  0  0  0  0  0  0  0  0  0
   14.7849   -4.0509   -8.8901 O   0  0  0  0  0  0  0  0  0  0  0  0
   16.8554   -4.4725   -9.7344 O   0  0  0  0  0  0  0  0  0  0  0  0
  2  3  1  6
  2  1  1  0
  4  2  1  0
  4  5  1  1
  6  4  1  0
  6 11  1  0
  7  6  2  0
  9  8  1  0
 10 11  1  0
 10  9  1  6
 12 10  1  0
 12 16  1  0
 13 12  2  0
 15 16  1  0
 15 14  1  1
 17 15  1  0
 18 17  1  0
 19 17  2  0
M  END
$$$$
