VSA.pdb
     RDKit          3D

 19 18  0  0  1  0  0  0  0  0999 V2000
   15.1479  -13.1216  -18.1084 C   0  0  0  0  0  0  0  0  0  0  0  0
   15.4777  -12.0807  -17.0787 C   0  0  2  0  0  0  0  0  0  0  0  0
   15.2406  -10.7115  -17.6662 C   0  0  0  0  0  0  0  0  0  0  0  0
   16.9373  -12.1702  -16.6507 C   0  0  2  0  0  0  0  0  0  0  0  0
   17.2739  -13.4637  -16.1453 N   0  0  0  0  0  0  0  0  0  0  0  0
   17.2592  -11.1165  -15.6520 C   0  0  0  0  0  0  0  0  0  0  0  0
   16.8594  -11.1962  -14.4631 O   0  0  0  0  0  0  0  0  0  0  0  0
   20.0205   -7.8649  -13.8810 O   0  0  0  0  0  0  0  0  0  0  0  0
   19.7930   -8.8828  -14.7986 C   0  0  0  0  0  0  0  0  0  0  0  0
   18.3211   -8.9050  -15.1092 C   0  0  2  0  0  0  0  0  0  0  0  0
   18.0307   -9.9895  -16.0222 N   0  0  0  0  0  0  0  0  0  0  0  0
   17.9461   -7.5961  -15.7013 C   0  0  0  0  0  0  0  0  0  0  0  0
   18.2566   -7.3445  -16.8796 O   0  0  0  0  0  0  0  0  0  0  0  0
   15.8720   -4.7054  -14.5009 C   0  0  0  0  0  0  0  0  0  0  0  0
   16.9163   -5.3351  -15.3915 C   0  0  2  0  0  0  0  0  0  0  0  0
   17.2401   -6.6569  -14.9107 N   0  0  0  0  0  0  0  0  0  0  0  0
   18.1227   -4.4768  -15.4295 C   0  0  0  0  0  0  0  0  0  0  0  0
   18.0441   -3.2358  -16.0444 O   0  0  0  0  0  0  0  0  0  0  0  0
   19.2068   -4.8391  -14.9243 O   0  0  0  0  0  0  0  0  0  0  0  0
  2  3  1  6
  2  1  1  0
  4  2  1  0
  4  5  1  1
  6  4  1  0
  6 11  1  0
  7  6  2  0
  9  8  1  0
 10 11  1  0
 10  9  1  6
 12 10  1  0
 12 16  1  0
 13 12  2  0
 15 16  1  0
 15 14  1  1
 17 15  1  0
 18 17  1  0
 19 17  2  0
M  END
$$$$
