EIL.pdb
     RDKit          3D

 26 25  0  0  1  0  0  0  0  0999 V2000
    9.4497  -16.0777   19.6713 N   0  0  0  0  0  0  0  0  0  0  0  0
    9.5377  -16.9364   20.8160 C   0  0  1  0  0  0  0  0  0  0  0  0
   10.6570  -17.9023   20.6994 C   0  0  0  0  0  0  0  0  0  0  0  0
   10.2999  -19.2970   20.3674 C   0  0  0  0  0  0  0  0  0  0  0  0
   11.3176  -20.3314   20.4494 C   0  0  0  0  0  0  0  0  0  0  0  0
   11.3254  -21.3879   21.0880 O   0  0  0  0  0  0  0  0  0  0  0  0
    9.6991  -16.1337   22.0747 C   0  0  0  0  0  0  0  0  0  0  0  0
   10.7525  -15.4257   22.1544 O   0  0  0  0  0  0  0  0  0  0  0  0
   12.4926  -20.1073   19.6806 O   0  0  0  0  0  0  0  0  0  0  0  0
    6.3011  -13.0293   25.8215 C   0  0  0  0  0  0  0  0  0  0  0  0
    7.7148  -13.6046   25.6166 C   0  0  0  0  0  0  0  0  0  0  0  0
    7.6913  -14.7358   24.6495 C   0  0  2  0  0  0  0  0  0  0  0  0
    6.6186  -15.7610   24.9678 C   0  0  0  0  0  0  0  0  0  0  0  0
    8.9914  -15.3590   24.3028 C   0  0  2  0  0  0  0  0  0  0  0  0
    8.7314  -16.1709   23.1004 N   0  0  0  0  0  0  0  0  0  0  0  0
    9.6424  -16.1599   25.3473 C   0  0  0  0  0  0  0  0  0  0  0  0
   10.0322  -17.3255   25.0072 O   0  0  0  0  0  0  0  0  0  0  0  0
   10.1865  -13.8708   30.2406 C   0  0  0  0  0  0  0  0  0  0  0  0
   10.5781  -14.3986   28.9159 C   0  0  1  0  0  0  0  0  0  0  0  0
   11.6115  -13.4385   28.3120 C   0  0  0  0  0  0  0  0  0  0  0  0
   10.9449  -15.7935   28.8032 C   0  0  0  0  0  0  0  0  0  0  0  0
   10.7547  -16.5334   27.5501 C   0  0  2  0  0  0  0  0  0  0  0  0
    9.8705  -15.7629   26.6531 N   0  0  0  0  0  0  0  0  0  0  0  0
   10.1497  -17.8472   27.6664 C   0  0  0  0  0  0  0  0  0  0  0  0
   10.7632  -18.8518   28.0705 O   0  0  0  0  0  0  0  0  0  0  0  0
    8.8174  -18.0475   27.3221 O   0  0  0  0  0  0  0  0  0  0  0  0
  2  1  1  6
  3  2  1  0
  4  3  1  0
  5  4  1  0
  6  5  2  0
  7  2  1  0
  7  8  2  0
  9  5  1  0
 11 10  1  0
 12 13  1  1
 12 14  1  0
 12 11  1  0
 14 15  1  6
 15  7  1  0
 16 14  1  0
 17 16  2  0
 19 18  1  1
 19 21  1  0
 20 19  1  0
 22 21  1  1
 22 24  1  0
 22 23  1  0
 23 16  1  0
 24 26  1  0
 25 24  2  0
M  END
$$$$
