EIL.pdb
     RDKit          3D

 26 25  0  0  1  0  0  0  0  0999 V2000
    9.3686  -18.3929   16.7381 N   0  0  0  0  0  0  0  0  0  0  0  0
    8.4189  -18.1801   17.7908 C   0  0  1  0  0  0  0  0  0  0  0  0
    8.0168  -19.4516   18.4397 C   0  0  0  0  0  0  0  0  0  0  0  0
    7.3745  -20.4644   17.5768 C   0  0  0  0  0  0  0  0  0  0  0  0
    6.8067  -21.6580   18.1811 C   0  0  0  0  0  0  0  0  0  0  0  0
    6.2360  -22.6185   17.6560 O   0  0  0  0  0  0  0  0  0  0  0  0
    8.9705  -17.2429   18.8264 C   0  0  0  0  0  0  0  0  0  0  0  0
   10.2366  -17.2234   18.9443 O   0  0  0  0  0  0  0  0  0  0  0  0
    6.9177  -21.7494   19.5958 O   0  0  0  0  0  0  0  0  0  0  0  0
    6.4798  -12.5155   19.6696 C   0  0  0  0  0  0  0  0  0  0  0  0
    7.5806  -13.5658   19.4313 C   0  0  0  0  0  0  0  0  0  0  0  0
    7.8407  -14.3508   20.6689 C   0  0  2  0  0  0  0  0  0  0  0  0
    8.1410  -13.4740   21.8706 C   0  0  0  0  0  0  0  0  0  0  0  0
    8.7657  -15.5044   20.5588 C   0  0  2  0  0  0  0  0  0  0  0  0
    8.1232  -16.4364   19.6148 N   0  0  0  0  0  0  0  0  0  0  0  0
    9.1266  -16.1867   21.8079 C   0  0  0  0  0  0  0  0  0  0  0  0
    8.3181  -17.0841   22.2173 O   0  0  0  0  0  0  0  0  0  0  0  0
   11.0497  -20.1253   24.0178 C   0  0  0  0  0  0  0  0  0  0  0  0
   11.9869  -19.2136   23.3270 C   0  0  1  0  0  0  0  0  0  0  0  0
   12.8745  -20.0596   22.4045 C   0  0  0  0  0  0  0  0  0  0  0  0
   11.4613  -18.0225   22.6961 C   0  0  0  0  0  0  0  0  0  0  0  0
   10.8051  -16.9700   23.4806 C   0  0  2  0  0  0  0  0  0  0  0  0
   10.2568  -15.9461   22.5691 N   0  0  0  0  0  0  0  0  0  0  0  0
   11.6460  -16.2515   24.4200 C   0  0  0  0  0  0  0  0  0  0  0  0
   12.4469  -15.3609   24.0819 O   0  0  0  0  0  0  0  0  0  0  0  0
   11.5916  -16.5342   25.7804 O   0  0  0  0  0  0  0  0  0  0  0  0
  2  1  1  6
  3  2  1  0
  4  3  1  0
  5  4  1  0
  6  5  2  0
  7  2  1  0
  7  8  2  0
  9  5  1  0
 11 10  1  0
 12 13  1  1
 12 14  1  0
 12 11  1  0
 14 15  1  6
 15  7  1  0
 16 14  1  0
 17 16  2  0
 19 18  1  6
 19 21  1  0
 20 19  1  0
 22 21  1  6
 22 24  1  0
 22 23  1  0
 23 16  1  0
 24 26  1  0
 25 24  2  0
M  END
$$$$
