EIL.pdb
     RDKit          3D

 26 25  0  0  1  0  0  0  0  0999 V2000
    9.5919  -19.2752   19.6813 N   0  0  0  0  0  0  0  0  0  0  0  0
    8.7640  -18.6222   20.6527 C   0  0  1  0  0  0  0  0  0  0  0  0
    8.6845  -19.3902   21.9189 C   0  0  0  0  0  0  0  0  0  0  0  0
    9.7233  -20.4173   22.1401 C   0  0  0  0  0  0  0  0  0  0  0  0
    9.6961  -21.2064   23.3603 C   0  0  0  0  0  0  0  0  0  0  0  0
    8.9284  -21.1491   24.3253 O   0  0  0  0  0  0  0  0  0  0  0  0
    9.2677  -17.2368   20.9391 C   0  0  0  0  0  0  0  0  0  0  0  0
   10.5306  -17.0882   20.9269 O   0  0  0  0  0  0  0  0  0  0  0  0
   10.7032  -22.2036   23.4762 O   0  0  0  0  0  0  0  0  0  0  0  0
    6.8351  -12.9866   18.8450 C   0  0  0  0  0  0  0  0  0  0  0  0
    7.9565  -13.9184   19.3408 C   0  0  0  0  0  0  0  0  0  0  0  0
    8.0686  -13.8697   20.8242 C   0  0  2  0  0  0  0  0  0  0  0  0
    8.2587  -12.4607   21.3548 C   0  0  0  0  0  0  0  0  0  0  0  0
    8.9763  -14.8494   21.4685 C   0  0  2  0  0  0  0  0  0  0  0  0
    8.3815  -16.1717   21.2035 N   0  0  0  0  0  0  0  0  0  0  0  0
    9.2377  -14.6682   22.9020 C   0  0  0  0  0  0  0  0  0  0  0  0
   10.1132  -13.7944   23.2123 O   0  0  0  0  0  0  0  0  0  0  0  0
    8.1791  -12.3458   27.3005 C   0  0  0  0  0  0  0  0  0  0  0  0
    7.2162  -13.3582   26.8164 C   0  0  1  0  0  0  0  0  0  0  0  0
    5.8049  -12.7723   26.9571 C   0  0  0  0  0  0  0  0  0  0  0  0
    7.4573  -13.9933   25.5391 C   0  0  0  0  0  0  0  0  0  0  0  0
    8.6363  -14.8389   25.3183 C   0  0  2  0  0  0  0  0  0  0  0  0
    8.6210  -15.3530   23.9342 N   0  0  0  0  0  0  0  0  0  0  0  0
    8.7568  -16.0069   26.1710 C   0  0  0  0  0  0  0  0  0  0  0  0
    8.7605  -15.9513   27.4143 O   0  0  0  0  0  0  0  0  0  0  0  0
    8.8761  -17.2779   25.6200 O   0  0  0  0  0  0  0  0  0  0  0  0
  2  1  1  6
  3  2  1  0
  4  3  1  0
  5  4  1  0
  6  5  2  0
  7  2  1  0
  7  8  2  0
  9  5  1  0
 11 10  1  0
 12 13  1  6
 12 14  1  0
 12 11  1  0
 14 15  1  1
 15  7  1  0
 16 14  1  0
 17 16  2  0
 19 18  1  6
 19 21  1  0
 20 19  1  0
 22 21  1  1
 22 24  1  0
 22 23  1  0
 23 16  1  0
 24 26  1  0
 25 24  2  0
M  END
$$$$
