EIL.pdb
     RDKit          3D

 26 25  0  0  1  0  0  0  0  0999 V2000
   10.9023  -18.4993   19.3856 N   0  0  0  0  0  0  0  0  0  0  0  0
   10.1070  -18.5886   20.5752 C   0  0  1  0  0  0  0  0  0  0  0  0
   10.5750  -19.6708   21.4747 C   0  0  0  0  0  0  0  0  0  0  0  0
   10.9773  -20.9402   20.8345 C   0  0  0  0  0  0  0  0  0  0  0  0
   11.4243  -22.0461   21.6648 C   0  0  0  0  0  0  0  0  0  0  0  0
   10.8779  -22.5828   22.6330 O   0  0  0  0  0  0  0  0  0  0  0  0
   10.1100  -17.2840   21.3189 C   0  0  0  0  0  0  0  0  0  0  0  0
   11.2260  -16.6773   21.3777 O   0  0  0  0  0  0  0  0  0  0  0  0
   12.6846  -22.6086   21.3222 O   0  0  0  0  0  0  0  0  0  0  0  0
    8.5215  -12.2429   21.6068 C   0  0  0  0  0  0  0  0  0  0  0  0
    7.8595  -13.2409   22.5750 C   0  0  0  0  0  0  0  0  0  0  0  0
    7.9674  -14.6322   22.0572 C   0  0  2  0  0  0  0  0  0  0  0  0
    6.6292  -15.3457   22.0017 C   0  0  0  0  0  0  0  0  0  0  0  0
    9.0449  -15.4830   22.6177 C   0  0  2  0  0  0  0  0  0  0  0  0
    8.9368  -16.7723   21.9119 N   0  0  0  0  0  0  0  0  0  0  0  0
    9.0460  -15.6787   24.0730 C   0  0  0  0  0  0  0  0  0  0  0  0
    7.9774  -16.1541   24.5816 O   0  0  0  0  0  0  0  0  0  0  0  0
    7.8969  -12.4830   27.3454 C   0  0  0  0  0  0  0  0  0  0  0  0
    9.0537  -13.3047   26.9289 C   0  0  1  0  0  0  0  0  0  0  0  0
   10.2869  -12.8053   27.6935 C   0  0  0  0  0  0  0  0  0  0  0  0
    8.9178  -14.7450   26.9218 C   0  0  0  0  0  0  0  0  0  0  0  0
    9.9774  -15.6084   26.3874 C   0  0  2  0  0  0  0  0  0  0  0  0
   10.0951  -15.3988   24.9307 N   0  0  0  0  0  0  0  0  0  0  0  0
    9.7923  -17.0365   26.5663 C   0  0  0  0  0  0  0  0  0  0  0  0
   10.1231  -17.6473   27.5989 O   0  0  0  0  0  0  0  0  0  0  0  0
    9.2191  -17.8086   25.5619 O   0  0  0  0  0  0  0  0  0  0  0  0
  2  1  1  6
  3  2  1  0
  4  3  1  0
  5  4  1  0
  6  5  2  0
  7  2  1  0
  7  8  2  0
  9  5  1  0
 11 10  1  0
 12 13  1  1
 12 14  1  0
 12 11  1  0
 14 15  1  6
 15  7  1  0
 16 14  1  0
 17 16  2  0
 19 18  1  1
 19 21  1  0
 20 19  1  0
 22 21  1  6
 22 24  1  0
 22 23  1  0
 23 16  1  0
 24 26  1  0
 25 24  2  0
M  END
$$$$
