EIL.pdb
     RDKit          3D

 26 25  0  0  1  0  0  0  0  0999 V2000
   12.5788  -16.9424   19.6098 N   0  0  0  0  0  0  0  0  0  0  0  0
   11.3995  -17.4409   20.2549 C   0  0  1  0  0  0  0  0  0  0  0  0
   11.6396  -18.7464   20.9163 C   0  0  0  0  0  0  0  0  0  0  0  0
   12.0928  -19.8561   20.0525 C   0  0  0  0  0  0  0  0  0  0  0  0
   12.2773  -21.1775   20.6287 C   0  0  0  0  0  0  0  0  0  0  0  0
   11.6071  -22.2048   20.4886 O   0  0  0  0  0  0  0  0  0  0  0  0
   10.8863  -16.4556   21.2653 C   0  0  0  0  0  0  0  0  0  0  0  0
   11.7674  -15.7689   21.8731 O   0  0  0  0  0  0  0  0  0  0  0  0
   13.3991  -21.3274   21.4895 O   0  0  0  0  0  0  0  0  0  0  0  0
    6.8820  -13.2113   20.0316 C   0  0  0  0  0  0  0  0  0  0  0  0
    8.1810  -13.8533   20.5531 C   0  0  0  0  0  0  0  0  0  0  0  0
    7.9370  -14.5825   21.8276 C   0  0  2  0  0  0  0  0  0  0  0  0
    7.1173  -13.7776   22.8193 C   0  0  0  0  0  0  0  0  0  0  0  0
    9.0993  -15.2528   22.4590 C   0  0  2  0  0  0  0  0  0  0  0  0
    9.5057  -16.3094   21.5151 N   0  0  0  0  0  0  0  0  0  0  0  0
    8.8976  -15.8005   23.8063 C   0  0  0  0  0  0  0  0  0  0  0  0
    8.4588  -16.9961   23.8721 O   0  0  0  0  0  0  0  0  0  0  0  0
    9.5874  -12.6113   28.4085 C   0  0  0  0  0  0  0  0  0  0  0  0
    9.8397  -13.7994   27.5651 C   0  0  1  0  0  0  0  0  0  0  0  0
   11.1316  -14.4635   28.0597 C   0  0  0  0  0  0  0  0  0  0  0  0
    8.7578  -14.7320   27.3350 C   0  0  0  0  0  0  0  0  0  0  0  0
    8.8522  -15.7697   26.3016 C   0  0  2  0  0  0  0  0  0  0  0  0
    9.1429  -15.1408   24.9977 N   0  0  0  0  0  0  0  0  0  0  0  0
    7.6649  -16.5776   26.0933 C   0  0  0  0  0  0  0  0  0  0  0  0
    7.5157  -17.7152   26.5754 O   0  0  0  0  0  0  0  0  0  0  0  0
    6.6092  -16.1014   25.3237 O   0  0  0  0  0  0  0  0  0  0  0  0
  2  1  1  1
  3  2  1  0
  4  3  1  0
  5  4  1  0
  6  5  2  0
  7  2  1  0
  7  8  2  0
  9  5  1  0
 11 10  1  0
 12 13  1  1
 12 14  1  0
 12 11  1  0
 14 15  1  6
 15  7  1  0
 16 14  1  0
 17 16  2  0
 19 18  1  1
 19 21  1  0
 20 19  1  0
 22 21  1  1
 22 24  1  0
 22 23  1  0
 23 16  1  0
 24 26  1  0
 25 24  2  0
M  END
$$$$
