EIL.pdb
     RDKit          3D

 26 25  0  0  1  0  0  0  0  0999 V2000
   10.2985  -18.9722   19.2347 N   0  0  0  0  0  0  0  0  0  0  0  0
   10.3543  -19.0513   20.6651 C   0  0  1  0  0  0  0  0  0  0  0  0
   11.4908  -19.8826   21.1302 C   0  0  0  0  0  0  0  0  0  0  0  0
   11.7702  -21.1151   20.3647 C   0  0  0  0  0  0  0  0  0  0  0  0
   12.7970  -22.0291   20.8366 C   0  0  0  0  0  0  0  0  0  0  0  0
   12.7335  -22.9243   21.6843 O   0  0  0  0  0  0  0  0  0  0  0  0
   10.4554  -17.6815   21.2722 C   0  0  0  0  0  0  0  0  0  0  0  0
   11.4736  -16.9965   20.9384 O   0  0  0  0  0  0  0  0  0  0  0  0
   14.0791  -21.8830   20.2394 O   0  0  0  0  0  0  0  0  0  0  0  0
    6.2579  -14.5962   21.2547 C   0  0  0  0  0  0  0  0  0  0  0  0
    7.6984  -15.1366   21.1889 C   0  0  0  0  0  0  0  0  0  0  0  0
    8.3084  -15.1856   22.5457 C   0  0  2  0  0  0  0  0  0  0  0  0
    8.2258  -13.8584   23.2771 C   0  0  0  0  0  0  0  0  0  0  0  0
    9.6421  -15.8222   22.6674 C   0  0  2  0  0  0  0  0  0  0  0  0
    9.4717  -17.1949   22.1584 N   0  0  0  0  0  0  0  0  0  0  0  0
   10.2546  -15.8285   24.0019 C   0  0  0  0  0  0  0  0  0  0  0  0
   11.2776  -15.0834   24.1593 O   0  0  0  0  0  0  0  0  0  0  0  0
   11.0622  -13.9373   28.5244 C   0  0  0  0  0  0  0  0  0  0  0  0
    9.6903  -14.2121   28.0457 C   0  0  1  0  0  0  0  0  0  0  0  0
    8.8699  -12.9246   28.2002 C   0  0  0  0  0  0  0  0  0  0  0  0
    9.5172  -14.8617   26.7647 C   0  0  0  0  0  0  0  0  0  0  0  0
   10.1471  -16.1550   26.4739 C   0  0  2  0  0  0  0  0  0  0  0  0
    9.8212  -16.5616   25.0925 N   0  0  0  0  0  0  0  0  0  0  0  0
    9.7477  -17.2669   27.3165 C   0  0  0  0  0  0  0  0  0  0  0  0
    8.6506  -17.8456   27.2147 O   0  0  0  0  0  0  0  0  0  0  0  0
   10.5993  -17.7501   28.3038 O   0  0  0  0  0  0  0  0  0  0  0  0
  2  1  1  6
  3  2  1  0
  4  3  1  0
  5  4  1  0
  6  5  2  0
  7  2  1  0
  7  8  2  0
  9  5  1  0
 11 10  1  0
 12 13  1  6
 12 14  1  0
 12 11  1  0
 14 15  1  1
 15  7  1  0
 16 14  1  0
 17 16  2  0
 19 18  1  6
 19 21  1  0
 20 19  1  0
 22 21  1  1
 22 24  1  0
 22 23  1  0
 23 16  1  0
 24 26  1  0
 25 24  2  0
M  END
$$$$
