EIL.pdb
     RDKit          3D

 26 25  0  0  1  0  0  0  0  0999 V2000
    8.1957  -19.7752   20.1826 N   0  0  0  0  0  0  0  0  0  0  0  0
    7.4270  -18.7230   20.7805 C   0  0  1  0  0  0  0  0  0  0  0  0
    6.7888  -19.1543   22.0477 C   0  0  0  0  0  0  0  0  0  0  0  0
    7.6741  -19.3030   23.2212 C   0  0  0  0  0  0  0  0  0  0  0  0
    7.1132  -19.7540   24.4839 C   0  0  0  0  0  0  0  0  0  0  0  0
    6.2409  -19.2428   25.1922 O   0  0  0  0  0  0  0  0  0  0  0  0
    8.2827  -17.5160   21.0372 C   0  0  0  0  0  0  0  0  0  0  0  0
    9.5325  -17.7286   21.1380 O   0  0  0  0  0  0  0  0  0  0  0  0
    7.6399  -20.9713   24.9965 O   0  0  0  0  0  0  0  0  0  0  0  0
    7.1423  -12.8783   18.5578 C   0  0  0  0  0  0  0  0  0  0  0  0
    7.9810  -14.0334   19.1357 C   0  0  0  0  0  0  0  0  0  0  0  0
    8.0354  -13.9570   20.6212 C   0  0  2  0  0  0  0  0  0  0  0  0
    8.5338  -12.6148   21.1242 C   0  0  0  0  0  0  0  0  0  0  0  0
    8.6524  -15.0996   21.3371 C   0  0  2  0  0  0  0  0  0  0  0  0
    7.7209  -16.2275   21.1564 N   0  0  0  0  0  0  0  0  0  0  0  0
    8.9675  -14.9003   22.7573 C   0  0  0  0  0  0  0  0  0  0  0  0
    9.9874  -14.1796   23.0157 O   0  0  0  0  0  0  0  0  0  0  0  0
    8.2702  -12.2473   27.0230 C   0  0  0  0  0  0  0  0  0  0  0  0
    7.1717  -13.1673   26.6579 C   0  0  1  0  0  0  0  0  0  0  0  0
    5.8480  -12.4064   26.8119 C   0  0  0  0  0  0  0  0  0  0  0  0
    7.2719  -13.9159   25.4239 C   0  0  0  0  0  0  0  0  0  0  0  0
    8.3827  -14.8442   25.1830 C   0  0  2  0  0  0  0  0  0  0  0  0
    8.2598  -15.4176   23.8279 N   0  0  0  0  0  0  0  0  0  0  0  0
    8.4778  -15.9782   26.0835 C   0  0  0  0  0  0  0  0  0  0  0  0
    7.8139  -17.0217   25.9454 O   0  0  0  0  0  0  0  0  0  0  0  0
    9.3419  -15.9483   27.1725 O   0  0  0  0  0  0  0  0  0  0  0  0
  2  1  1  1
  3  2  1  0
  4  3  1  0
  5  4  1  0
  6  5  2  0
  7  2  1  0
  7  8  2  0
  9  5  1  0
 11 10  1  0
 12 13  1  6
 12 14  1  0
 12 11  1  0
 14 15  1  1
 15  7  1  0
 16 14  1  0
 17 16  2  0
 19 18  1  6
 19 21  1  0
 20 19  1  0
 22 21  1  1
 22 24  1  0
 22 23  1  0
 23 16  1  0
 24 26  1  0
 25 24  2  0
M  END
$$$$
