EIL.pdb
     RDKit          3D

 26 25  0  0  1  0  0  0  0  0999 V2000
    9.1801  -19.2379   19.6025 N   0  0  0  0  0  0  0  0  0  0  0  0
    8.3825  -18.5259   20.5577 C   0  0  1  0  0  0  0  0  0  0  0  0
    8.2281  -19.2822   21.8240 C   0  0  0  0  0  0  0  0  0  0  0  0
    9.2367  -20.3252   22.1029 C   0  0  0  0  0  0  0  0  0  0  0  0
    9.8113  -20.4223   23.4344 C   0  0  0  0  0  0  0  0  0  0  0  0
   10.9906  -20.5284   23.7838 O   0  0  0  0  0  0  0  0  0  0  0  0
    8.9758  -17.1777   20.8498 C   0  0  0  0  0  0  0  0  0  0  0  0
   10.2449  -17.1056   20.8108 O   0  0  0  0  0  0  0  0  0  0  0  0
    8.8852  -20.3916   24.5130 O   0  0  0  0  0  0  0  0  0  0  0  0
    6.9220  -12.7373   18.7326 C   0  0  0  0  0  0  0  0  0  0  0  0
    7.9598  -13.7491   19.2529 C   0  0  0  0  0  0  0  0  0  0  0  0
    7.9972  -13.7519   20.7409 C   0  0  2  0  0  0  0  0  0  0  0  0
    8.2021  -12.3674   21.3277 C   0  0  0  0  0  0  0  0  0  0  0  0
    8.8409  -14.7801   21.3964 C   0  0  2  0  0  0  0  0  0  0  0  0
    8.1621  -16.0645   21.1475 N   0  0  0  0  0  0  0  0  0  0  0  0
    9.1152  -14.5991   22.8275 C   0  0  0  0  0  0  0  0  0  0  0  0
    9.9346  -13.6713   23.1345 O   0  0  0  0  0  0  0  0  0  0  0  0
    8.4791  -12.4981   27.3477 C   0  0  0  0  0  0  0  0  0  0  0  0
    7.3905  -13.3750   26.8656 C   0  0  1  0  0  0  0  0  0  0  0  0
    6.0638  -12.6270   27.0532 C   0  0  0  0  0  0  0  0  0  0  0  0
    7.5253  -14.0036   25.5695 C   0  0  0  0  0  0  0  0  0  0  0  0
    8.6570  -14.8865   25.2641 C   0  0  2  0  0  0  0  0  0  0  0  0
    8.5652  -15.3369   23.8609 N   0  0  0  0  0  0  0  0  0  0  0  0
    8.7604  -16.0956   26.0599 C   0  0  0  0  0  0  0  0  0  0  0  0
    8.7768  -16.0987   27.3043 O   0  0  0  0  0  0  0  0  0  0  0  0
    8.8471  -17.3415   25.4487 O   0  0  0  0  0  0  0  0  0  0  0  0
  2  1  1  6
  3  2  1  0
  4  3  1  0
  5  4  1  0
  6  5  2  0
  7  2  1  0
  7  8  2  0
  9  5  1  0
 11 10  1  0
 12 13  1  6
 12 14  1  0
 12 11  1  0
 14 15  1  1
 15  7  1  0
 16 14  1  0
 17 16  2  0
 19 18  1  6
 19 21  1  0
 20 19  1  0
 22 21  1  1
 22 24  1  0
 22 23  1  0
 23 16  1  0
 24 26  1  0
 25 24  2  0
M  END
$$$$
