PAI.pdb
     RDKit          3D

 21 21  0  0  1  0  0  0  0  0999 V2000
   16.9827  -14.3443  -17.6324 N   0  0  0  0  0  0  0  0  0  0  0  0
   15.9214  -15.2903  -17.2768 C   0  0  0  0  0  0  0  0  0  0  0  0
   15.5626  -14.7764  -15.8790 C   0  0  0  0  0  0  0  0  0  0  0  0
   15.7694  -13.2739  -15.9838 C   0  0  0  0  0  0  0  0  0  0  0  0
   16.3518  -13.0775  -17.3375 C   0  0  1  0  0  0  0  0  0  0  0  0
   17.3033  -11.9647  -17.4441 C   0  0  0  0  0  0  0  0  0  0  0  0
   18.5245  -12.2076  -17.2608 O   0  0  0  0  0  0  0  0  0  0  0  0
   17.2177   -8.3514  -18.4127 C   0  0  0  0  0  0  0  0  0  0  0  0
   17.9146   -9.5438  -17.8394 C   0  0  2  0  0  0  0  0  0  0  0  0
   16.9575  -10.6273  -17.7391 N   0  0  0  0  0  0  0  0  0  0  0  0
   18.5865   -9.2670  -16.5532 C   0  0  0  0  0  0  0  0  0  0  0  0
   17.9244   -9.3972  -15.4982 O   0  0  0  0  0  0  0  0  0  0  0  0
   23.3571  -10.4473  -13.1994 C   0  0  0  0  0  0  0  0  0  0  0  0
   22.3398   -9.3949  -13.5631 C   0  0  0  0  0  0  0  0  0  0  0  0
   21.7445   -9.6585  -14.9536 C   0  0  2  0  0  0  0  0  0  0  0  0
   22.8557   -9.3076  -15.9239 C   0  0  0  0  0  0  0  0  0  0  0  0
   20.6299   -8.6861  -15.1834 C   0  0  2  0  0  0  0  0  0  0  0  0
   19.9372   -8.8619  -16.4332 N   0  0  0  0  0  0  0  0  0  0  0  0
   21.1617   -7.3069  -15.0307 C   0  0  0  0  0  0  0  0  0  0  0  0
   21.3083   -6.6696  -13.8149 O   0  0  0  0  0  0  0  0  0  0  0  0
   21.4959   -6.6887  -16.0708 O   0  0  0  0  0  0  0  0  0  0  0  0
  1  5  1  0
  2  1  1  0
  3  2  1  0
  3  4  1  0
  4  5  1  0
  5  6  1  1
  6 10  1  0
  7  6  2  0
  9  8  1  1
 10  9  1  0
 11 12  2  0
 11  9  1  0
 14 15  1  0
 14 13  1  0
 15 16  1  6
 17 18  1  6
 17 15  1  0
 18 11  1  0
 19 17  1  0
 20 19  1  0
 21 19  2  0
M  END
$$$$
