PAI.pdb
     RDKit          3D

 21 21  0  0  1  0  0  0  0  0999 V2000
   16.8315  -10.2766  -15.1989 N   0  0  0  0  0  0  0  0  0  0  0  0
   16.3883  -11.3263  -16.1205 C   0  0  0  0  0  0  0  0  0  0  0  0
   16.6240  -12.5641  -15.2492 C   0  0  0  0  0  0  0  0  0  0  0  0
   16.3247  -12.0753  -13.8411 C   0  0  0  0  0  0  0  0  0  0  0  0
   16.0971  -10.6149  -14.0005 C   0  0  1  0  0  0  0  0  0  0  0  0
   16.5233   -9.7959  -12.8592 C   0  0  0  0  0  0  0  0  0  0  0  0
   15.9461   -9.9701  -11.7545 O   0  0  0  0  0  0  0  0  0  0  0  0
   19.3070   -7.4727  -12.0185 C   0  0  0  0  0  0  0  0  0  0  0  0
   17.9345   -8.0083  -11.7621 C   0  0  2  0  0  0  0  0  0  0  0  0
   17.5403   -8.8163  -12.8986 N   0  0  0  0  0  0  0  0  0  0  0  0
   16.9447   -6.9570  -11.4500 C   0  0  0  0  0  0  0  0  0  0  0  0
   16.3618   -6.3896  -12.4022 O   0  0  0  0  0  0  0  0  0  0  0  0
   14.2020   -7.0320   -6.6424 C   0  0  0  0  0  0  0  0  0  0  0  0
   14.6386   -6.9339   -8.0827 C   0  0  0  0  0  0  0  0  0  0  0  0
   15.1764   -5.5319   -8.4033 C   0  0  2  0  0  0  0  0  0  0  0  0
   13.9642   -4.6244   -8.3245 C   0  0  0  0  0  0  0  0  0  0  0  0
   15.6496   -5.5197   -9.8233 C   0  0  2  0  0  0  0  0  0  0  0  0
   16.6091   -6.5458  -10.1380 N   0  0  0  0  0  0  0  0  0  0  0  0
   16.1616   -4.1617  -10.1432 C   0  0  0  0  0  0  0  0  0  0  0  0
   17.5027   -3.8452  -10.2252 O   0  0  0  0  0  0  0  0  0  0  0  0
   15.3216   -3.2520  -10.3501 O   0  0  0  0  0  0  0  0  0  0  0  0
  1  5  1  0
  2  1  1  0
  3  2  1  0
  3  4  1  0
  4  5  1  0
  5  6  1  1
  6 10  1  0
  7  6  2  0
  9  8  1  6
 10  9  1  0
 11 12  2  0
 11  9  1  0
 14 15  1  0
 14 13  1  0
 15 16  1  6
 17 18  1  1
 17 15  1  0
 18 11  1  0
 19 17  1  0
 20 19  1  0
 21 19  2  0
M  END
$$$$
