PAI.pdb
     RDKit          3D

 21 21  0  0  1  0  0  0  0  0999 V2000
   26.9227  -21.9301  -15.7499 N   0  0  0  0  0  0  0  0  0  0  0  0
   27.7616  -22.2223  -16.9156 C   0  0  0  0  0  0  0  0  0  0  0  0
   28.4670  -20.8727  -17.0823 C   0  0  0  0  0  0  0  0  0  0  0  0
   28.6234  -20.3697  -15.6562 C   0  0  0  0  0  0  0  0  0  0  0  0
   27.8877  -21.3656  -14.8334 C   0  0  1  0  0  0  0  0  0  0  0  0
   27.2369  -20.8174  -13.6372 C   0  0  0  0  0  0  0  0  0  0  0  0
   27.9593  -20.2601  -12.7704 O   0  0  0  0  0  0  0  0  0  0  0  0
   23.7422  -20.0729  -12.5790 C   0  0  0  0  0  0  0  0  0  0  0  0
   25.2050  -20.1639  -12.2824 C   0  0  2  0  0  0  0  0  0  0  0  0
   25.8496  -20.8642  -13.3752 N   0  0  0  0  0  0  0  0  0  0  0  0
   25.4995  -20.7771  -10.9710 C   0  0  0  0  0  0  0  0  0  0  0  0
   25.6070  -22.0232  -10.9097 O   0  0  0  0  0  0  0  0  0  0  0  0
   28.9931  -19.0583   -6.9122 C   0  0  0  0  0  0  0  0  0  0  0  0
   28.1576  -20.0843   -7.6361 C   0  0  0  0  0  0  0  0  0  0  0  0
   26.6620  -19.7531   -7.5313 C   0  0  2  0  0  0  0  0  0  0  0  0
   26.2701  -20.1693   -6.1269 C   0  0  0  0  0  0  0  0  0  0  0  0
   25.9141  -20.6353   -8.4816 C   0  0  2  0  0  0  0  0  0  0  0  0
   25.6692  -20.0451   -9.7717 N   0  0  0  0  0  0  0  0  0  0  0  0
   24.6577  -21.0839   -7.8268 C   0  0  0  0  0  0  0  0  0  0  0  0
   23.4059  -20.6028   -8.1544 O   0  0  0  0  0  0  0  0  0  0  0  0
   24.7444  -21.9511   -6.9234 O   0  0  0  0  0  0  0  0  0  0  0  0
  1  5  1  0
  2  1  1  0
  3  2  1  0
  3  4  1  0
  4  5  1  0
  5  6  1  1
  6 10  1  0
  7  6  2  0
  9  8  1  6
 10  9  1  0
 11 12  2  0
 11  9  1  0
 14 15  1  0
 14 13  1  0
 15 16  1  1
 17 18  1  6
 17 15  1  0
 18 11  1  0
 19 17  1  0
 20 19  1  0
 21 19  2  0
M  END
$$$$
