PAI.pdb
     RDKit          3D

 21 21  0  0  1  0  0  0  0  0999 V2000
   25.2853  -18.0744  -17.9099 N   0  0  0  0  0  0  0  0  0  0  0  0
   24.7966  -17.3620  -19.0937 C   0  0  0  0  0  0  0  0  0  0  0  0
   23.9755  -18.4737  -19.7546 C   0  0  0  0  0  0  0  0  0  0  0  0
   23.4166  -19.2567  -18.5775 C   0  0  0  0  0  0  0  0  0  0  0  0
   24.0622  -18.6414  -17.3881 C   0  0  1  0  0  0  0  0  0  0  0  0
   24.3283  -19.5689  -16.2817 C   0  0  0  0  0  0  0  0  0  0  0  0
   23.3456  -20.0426  -15.6541 O   0  0  0  0  0  0  0  0  0  0  0  0
   27.1616  -21.5930  -15.0249 C   0  0  0  0  0  0  0  0  0  0  0  0
   25.8503  -20.9174  -14.7797 C   0  0  2  0  0  0  0  0  0  0  0  0
   25.6119  -19.9787  -15.8578 N   0  0  0  0  0  0  0  0  0  0  0  0
   25.7595  -20.2803  -13.4500 C   0  0  0  0  0  0  0  0  0  0  0  0
   25.5122  -19.0539  -13.3955 O   0  0  0  0  0  0  0  0  0  0  0  0
   22.1376  -19.9917  -10.2517 C   0  0  0  0  0  0  0  0  0  0  0  0
   23.4749  -19.7849  -10.9177 C   0  0  0  0  0  0  0  0  0  0  0  0
   24.5778  -20.5777  -10.2016 C   0  0  2  0  0  0  0  0  0  0  0  0
   24.7049  -19.9222   -8.8402 C   0  0  0  0  0  0  0  0  0  0  0  0
   25.8685  -20.3531  -10.9257 C   0  0  2  0  0  0  0  0  0  0  0  0
   25.9346  -20.9683  -12.2256 N   0  0  0  0  0  0  0  0  0  0  0  0
   26.9881  -20.7834  -10.0483 C   0  0  0  0  0  0  0  0  0  0  0  0
   27.6775  -21.9689  -10.2073 O   0  0  0  0  0  0  0  0  0  0  0  0
   27.3232  -20.0214   -9.1088 O   0  0  0  0  0  0  0  0  0  0  0  0
  1  5  1  0
  2  1  1  0
  3  2  1  0
  3  4  1  0
  4  5  1  0
  5  6  1  1
  6 10  1  0
  7  6  2  0
  9  8  1  6
 10  9  1  0
 11 12  2  0
 11  9  1  0
 14 15  1  0
 14 13  1  0
 15 16  1  1
 17 18  1  6
 17 15  1  0
 18 11  1  0
 19 17  1  0
 20 19  1  0
 21 19  2  0
M  END
$$$$
