PAI.pdb
     RDKit          3D

 21 21  0  0  1  0  0  0  0  0999 V2000
   26.6609  -21.5695  -16.5020 N   0  0  0  0  0  0  0  0  0  0  0  0
   27.4404  -21.9036  -17.6972 C   0  0  0  0  0  0  0  0  0  0  0  0
   28.4322  -20.7361  -17.7045 C   0  0  0  0  0  0  0  0  0  0  0  0
   28.6635  -20.4511  -16.2293 C   0  0  0  0  0  0  0  0  0  0  0  0
   27.7058  -21.3464  -15.5283 C   0  0  1  0  0  0  0  0  0  0  0  0
   27.1658  -20.8101  -14.2729 C   0  0  0  0  0  0  0  0  0  0  0  0
   27.9629  -20.6142  -13.3189 O   0  0  0  0  0  0  0  0  0  0  0  0
   23.9101  -19.3970  -13.0966 C   0  0  0  0  0  0  0  0  0  0  0  0
   25.3186  -19.8345  -12.8493 C   0  0  2  0  0  0  0  0  0  0  0  0
   25.8087  -20.4918  -14.0442 N   0  0  0  0  0  0  0  0  0  0  0  0
   25.4673  -20.6759  -11.6442 C   0  0  0  0  0  0  0  0  0  0  0  0
   25.2246  -21.9005  -11.7423 O   0  0  0  0  0  0  0  0  0  0  0  0
   27.7441  -18.6529   -6.7768 C   0  0  0  0  0  0  0  0  0  0  0  0
   26.6925  -19.1283   -7.7478 C   0  0  0  0  0  0  0  0  0  0  0  0
   26.9711  -20.5679   -8.2035 C   0  0  2  0  0  0  0  0  0  0  0  0
   28.2732  -20.4849   -8.9761 C   0  0  0  0  0  0  0  0  0  0  0  0
   25.9042  -20.9725   -9.1723 C   0  0  2  0  0  0  0  0  0  0  0  0
   25.8684  -20.1869  -10.3782 N   0  0  0  0  0  0  0  0  0  0  0  0
   24.5956  -20.9714   -8.4679 C   0  0  0  0  0  0  0  0  0  0  0  0
   24.2975  -21.7917   -7.3984 O   0  0  0  0  0  0  0  0  0  0  0  0
   23.7125  -20.1764   -8.8725 O   0  0  0  0  0  0  0  0  0  0  0  0
  1  5  1  0
  2  1  1  0
  3  2  1  0
  3  4  1  0
  4  5  1  0
  5  6  1  1
  6 10  1  0
  7  6  2  0
  9  8  1  6
 10  9  1  0
 11 12  2  0
 11  9  1  0
 14 15  1  0
 14 13  1  0
 15 16  1  6
 17 18  1  6
 17 15  1  0
 18 11  1  0
 19 17  1  0
 20 19  1  0
 21 19  2  0
M  END
$$$$
