RNA.pdb
     RDKit          3D

 25 24  0  0  1  0  0  0  0  0999 V2000
   30.7870  -23.7500  -10.6451 N   0  0  0  0  0  0  0  0  0  0  0  0
   31.6162  -22.6052  -10.3707 C   0  0  0  0  0  0  0  0  0  0  0  0
   32.8757  -22.6676  -10.6192 N   0  0  0  0  0  0  0  0  0  0  0  0
   31.0388  -21.4227   -9.8347 N   0  0  0  0  0  0  0  0  0  0  0  0
   29.6046  -21.1968  -10.0400 C   0  0  0  0  0  0  0  0  0  0  0  0
   29.3019  -21.1416  -11.5050 C   0  0  0  0  0  0  0  0  0  0  0  0
   27.9053  -20.7878  -11.8872 C   0  0  0  0  0  0  0  0  0  0  0  0
   27.6622  -20.6995  -13.3586 C   0  0  2  0  0  0  0  0  0  0  0  0
   28.7362  -20.1656  -14.1187 N   0  0  0  0  0  0  0  0  0  0  0  0
   26.3884  -19.9083  -13.6258 C   0  0  0  0  0  0  0  0  0  0  0  0
   25.7233  -19.4217  -12.6925 O   0  0  0  0  0  0  0  0  0  0  0  0
   33.5125  -21.8833  -10.3772 N   0  0  0  0  0  0  0  0  0  0  0  0
   27.0161  -17.5009  -17.6340 C   0  0  0  0  0  0  0  0  0  0  0  0
   25.9638  -17.3130  -16.7126 O   0  0  0  0  0  0  0  0  0  0  0  0
   26.0076  -16.3106  -15.9636 C   0  0  0  0  0  0  0  0  0  0  0  0
   24.8684  -18.2708  -16.6502 C   0  0  2  0  0  0  0  0  0  0  0  0
   24.7546  -19.0358  -15.3807 N   0  0  0  0  0  0  0  0  0  0  0  0
   25.9490  -19.7166  -14.9538 C   0  0  0  0  0  0  0  0  0  0  0  0
   23.5199  -19.8481  -15.2400 O   0  0  0  0  0  0  0  0  0  0  0  0
   23.4418  -20.9565  -15.8113 C   0  0  0  0  0  0  0  0  0  0  0  0
   20.6172  -20.1800  -12.9648 C   0  0  2  0  0  0  0  0  0  0  0  0
   21.2632  -20.2624  -14.2993 N   0  0  0  0  0  0  0  0  0  0  0  0
   22.4125  -19.4070  -14.4737 C   0  0  0  0  0  0  0  0  0  0  0  0
   20.2495  -19.9239  -15.4136 O   0  0  0  0  0  0  0  0  0  0  0  0
   19.1420  -20.7362  -15.5494 O   0  0  0  0  0  0  0  0  0  0  0  0
  2  1  1  0
  3  2  2  0
  4  2  1  0
  5  4  1  0
  6  5  1  0
  7  6  1  0
  8 10  1  0
  8  9  1  6
  8  7  1  0
 10 17  1  0
 11 10  2  0
 13 12  1  0
 14 13  2  0
 15 13  1  0
 16 15  1  1
 17 16  1  0
 18 16  1  0
 19 18  2  0
 21 20  1  1
 21 23  1  0
 21 22  1  0
 22 18  1  0
 23 24  1  0
 25 23  2  0
M  END
$$$$
