RNA.pdb
     RDKit          3D

 25 24  0  0  1  0  0  0  0  0999 V2000
   14.8386  -16.0719  -18.7272 N   0  0  0  0  0  0  0  0  0  0  0  0
   13.5742  -15.4129  -18.9289 C   0  0  0  0  0  0  0  0  0  0  0  0
   12.4925  -16.1064  -18.8990 N   0  0  0  0  0  0  0  0  0  0  0  0
   13.5326  -14.0105  -19.1539 N   0  0  0  0  0  0  0  0  0  0  0  0
   14.7287  -13.2222  -18.8408 C   0  0  0  0  0  0  0  0  0  0  0  0
   14.9183  -13.1511  -17.3576 C   0  0  0  0  0  0  0  0  0  0  0  0
   16.1044  -12.3914  -16.8700 C   0  0  0  0  0  0  0  0  0  0  0  0
   17.4188  -13.0583  -17.1145 C   0  0  2  0  0  0  0  0  0  0  0  0
   17.5586  -14.3495  -16.5403 N   0  0  0  0  0  0  0  0  0  0  0  0
   18.5522  -12.1535  -16.6491 C   0  0  0  0  0  0  0  0  0  0  0  0
   18.8088  -12.0110  -15.4392 O   0  0  0  0  0  0  0  0  0  0  0  0
   11.5593  -15.6519  -18.9412 N   0  0  0  0  0  0  0  0  0  0  0  0
   22.7213   -8.9926  -16.9232 C   0  0  0  0  0  0  0  0  0  0  0  0
   22.5016   -9.4913  -18.2251 O   0  0  0  0  0  0  0  0  0  0  0  0
   23.3372   -9.2089  -19.1137 C   0  0  0  0  0  0  0  0  0  0  0  0
   21.3289  -10.3081  -18.5056 C   0  0  2  0  0  0  0  0  0  0  0  0
   20.4535  -10.5984  -17.3397 N   0  0  0  0  0  0  0  0  0  0  0  0
   19.3324  -11.4625  -17.6017 C   0  0  0  0  0  0  0  0  0  0  0  0
   20.1205   -9.4264  -16.4913 O   0  0  0  0  0  0  0  0  0  0  0  0
   19.2779   -8.5948  -16.8906 C   0  0  0  0  0  0  0  0  0  0  0  0
   20.2346   -8.4753  -12.9269 C   0  0  2  0  0  0  0  0  0  0  0  0
   20.2743   -8.1446  -14.3741 N   0  0  0  0  0  0  0  0  0  0  0  0
   20.7314   -9.2125  -15.2306 C   0  0  0  0  0  0  0  0  0  0  0  0
   21.1785   -6.9185  -14.6249 O   0  0  0  0  0  0  0  0  0  0  0  0
   20.8787   -5.7467  -13.9603 O   0  0  0  0  0  0  0  0  0  0  0  0
  2  1  1  0
  3  2  2  0
  4  2  1  0
  5  4  1  0
  6  5  1  0
  7  6  1  0
  8 10  1  0
  8  9  1  1
  8  7  1  0
 10 17  1  0
 11 10  2  0
 13 12  1  0
 14 13  2  0
 15 13  1  0
 16 15  1  1
 17 16  1  0
 18 16  1  0
 19 18  2  0
 21 20  1  6
 21 23  1  0
 21 22  1  0
 22 18  1  0
 23 24  1  0
 25 23  2  0
M  END
$$$$
