RNA.pdb
     RDKit          3D

 25 24  0  0  1  0  0  0  0  0999 V2000
   18.5162  -25.8547   -4.7619 N   0  0  0  0  0  0  0  0  0  0  0  0
   17.0847  -25.8296   -4.9160 C   0  0  0  0  0  0  0  0  0  0  0  0
   16.3395  -25.8584   -3.8693 N   0  0  0  0  0  0  0  0  0  0  0  0
   16.5116  -25.7696   -6.2149 N   0  0  0  0  0  0  0  0  0  0  0  0
   17.4142  -25.7144   -7.3691 C   0  0  0  0  0  0  0  0  0  0  0  0
   17.9506  -24.3263   -7.5308 C   0  0  0  0  0  0  0  0  0  0  0  0
   18.7318  -24.0506   -8.7700 C   0  0  0  0  0  0  0  0  0  0  0  0
   18.5826  -25.0768   -9.8455 C   0  0  2  0  0  0  0  0  0  0  0  0
   19.2999  -26.2839   -9.6342 N   0  0  0  0  0  0  0  0  0  0  0  0
   18.9597  -24.4732  -11.1921 C   0  0  0  0  0  0  0  0  0  0  0  0
   19.9980  -24.8186  -11.7860 O   0  0  0  0  0  0  0  0  0  0  0  0
   15.3033  -25.8578   -3.9449 N   0  0  0  0  0  0  0  0  0  0  0  0
   18.6184  -21.8464  -15.6634 C   0  0  0  0  0  0  0  0  0  0  0  0
   17.4486  -22.5888  -15.3951 O   0  0  0  0  0  0  0  0  0  0  0  0
   16.6057  -22.7135  -16.3125 C   0  0  0  0  0  0  0  0  0  0  0  0
   17.2466  -23.1833  -14.0809 C   0  0  1  0  0  0  0  0  0  0  0  0
   18.2933  -22.8795  -13.0700 N   0  0  0  0  0  0  0  0  0  0  0  0
   18.1198  -23.5057  -11.7854 C   0  0  0  0  0  0  0  0  0  0  0  0
   18.7019  -21.4544  -12.9908 O   0  0  0  0  0  0  0  0  0  0  0  0
   17.9960  -20.6444  -12.3532 C   0  0  0  0  0  0  0  0  0  0  0  0
   21.6516  -19.2767  -13.8852 C   0  0  2  0  0  0  0  0  0  0  0  0
   20.2545  -19.5859  -13.4883 N   0  0  0  0  0  0  0  0  0  0  0  0
   19.8764  -20.9725  -13.6206 C   0  0  0  0  0  0  0  0  0  0  0  0
   19.2579  -18.7442  -14.3142 O   0  0  0  0  0  0  0  0  0  0  0  0
   19.0038  -17.4523  -13.9003 O   0  0  0  0  0  0  0  0  0  0  0  0
  2  1  1  0
  3  2  2  0
  4  2  1  0
  5  4  1  0
  6  5  1  0
  7  6  1  0
  8 10  1  0
  8  9  1  1
  8  7  1  0
 10 17  1  0
 11 10  2  0
 13 12  1  0
 14 13  2  0
 15 13  1  0
 16 15  1  6
 17 16  1  0
 18 16  1  0
 19 18  2  0
 21 20  1  1
 21 23  1  0
 21 22  1  0
 22 18  1  0
 23 24  1  0
 25 23  2  0
M  END
$$$$
