RNA.pdb
     RDKit          3D

 25 24  0  0  1  0  0  0  0  0999 V2000
   18.6114  -25.2834  -11.5294 N   0  0  0  0  0  0  0  0  0  0  0  0
   17.5734  -24.3535  -11.8919 C   0  0  0  0  0  0  0  0  0  0  0  0
   16.4529  -24.8031  -12.3327 N   0  0  0  0  0  0  0  0  0  0  0  0
   17.7931  -22.9562  -11.7565 N   0  0  0  0  0  0  0  0  0  0  0  0
   18.6219  -22.2840  -12.7623 C   0  0  0  0  0  0  0  0  0  0  0  0
   19.7980  -23.1423  -13.1098 C   0  0  0  0  0  0  0  0  0  0  0  0
   20.7665  -22.5837  -14.0956 C   0  0  0  0  0  0  0  0  0  0  0  0
   21.4990  -21.3666  -13.6329 C   0  0  2  0  0  0  0  0  0  0  0  0
   20.7016  -20.3942  -12.9734 N   0  0  0  0  0  0  0  0  0  0  0  0
   22.2371  -20.7309  -14.8038 C   0  0  0  0  0  0  0  0  0  0  0  0
   22.5559  -21.3989  -15.8049 O   0  0  0  0  0  0  0  0  0  0  0  0
   15.6844  -24.1602  -12.6072 N   0  0  0  0  0  0  0  0  0  0  0  0
   22.2616  -20.6438  -18.2183 C   0  0  0  0  0  0  0  0  0  0  0  0
   22.1543  -19.2371  -18.1798 O   0  0  0  0  0  0  0  0  0  0  0  0
   22.4332  -18.5956  -19.2182 C   0  0  0  0  0  0  0  0  0  0  0  0
   21.7308  -18.5706  -16.9560 C   0  0  2  0  0  0  0  0  0  0  0  0
   22.7577  -18.4792  -15.8851 N   0  0  0  0  0  0  0  0  0  0  0  0
   22.5667  -19.3586  -14.7615 C   0  0  0  0  0  0  0  0  0  0  0  0
   23.1545  -17.0999  -15.5050 O   0  0  0  0  0  0  0  0  0  0  0  0
   22.3076  -16.3299  -15.0042 C   0  0  0  0  0  0  0  0  0  0  0  0
   26.2693  -14.9887  -15.2249 C   0  0  2  0  0  0  0  0  0  0  0  0
   24.8135  -15.2665  -15.3173 N   0  0  0  0  0  0  0  0  0  0  0  0
   24.4738  -16.6181  -15.6927 C   0  0  0  0  0  0  0  0  0  0  0  0
   24.1434  -14.3129  -16.3301 O   0  0  0  0  0  0  0  0  0  0  0  0
   24.0944  -12.9692  -16.0187 O   0  0  0  0  0  0  0  0  0  0  0  0
  2  1  1  0
  3  2  2  0
  4  2  1  0
  5  4  1  0
  6  5  1  0
  7  6  1  0
  8 10  1  0
  8  9  1  6
  8  7  1  0
 10 17  1  0
 11 10  2  0
 13 12  1  0
 14 13  2  0
 15 13  1  0
 16 15  1  6
 17 16  1  0
 18 16  1  0
 19 18  2  0
 21 20  1  1
 21 23  1  0
 21 22  1  0
 22 18  1  0
 23 24  1  0
 25 23  2  0
M  END
$$$$
