RNA.pdb
     RDKit          3D

 25 24  0  0  1  0  0  0  0  0999 V2000
   15.1068  -25.0537   -6.3324 N   0  0  0  0  0  0  0  0  0  0  0  0
   14.9816  -25.9363   -5.2015 C   0  0  0  0  0  0  0  0  0  0  0  0
   14.6782  -27.1698   -5.3977 N   0  0  0  0  0  0  0  0  0  0  0  0
   15.1968  -25.4409   -3.8872 N   0  0  0  0  0  0  0  0  0  0  0  0
   14.3651  -24.3267   -3.4214 C   0  0  0  0  0  0  0  0  0  0  0  0
   14.7816  -23.0604   -4.1024 C   0  0  0  0  0  0  0  0  0  0  0  0
   14.0485  -21.8209   -3.7175 C   0  0  0  0  0  0  0  0  0  0  0  0
   12.5637  -21.9689   -3.6442 C   0  0  2  0  0  0  0  0  0  0  0  0
   11.8490  -21.4623   -4.7617 N   0  0  0  0  0  0  0  0  0  0  0  0
   12.0437  -21.3360   -2.3601 C   0  0  0  0  0  0  0  0  0  0  0  0
   11.9122  -20.1023   -2.2560 O   0  0  0  0  0  0  0  0  0  0  0  0
   14.6051  -27.8395   -4.6068 N   0  0  0  0  0  0  0  0  0  0  0  0
    8.4161  -21.1987    1.9133 C   0  0  0  0  0  0  0  0  0  0  0  0
    9.5662  -22.0147    1.8580 O   0  0  0  0  0  0  0  0  0  0  0  0
   10.1273  -22.3170    2.9357 C   0  0  0  0  0  0  0  0  0  0  0  0
   10.0702  -22.4798    0.5732 C   0  0  1  0  0  0  0  0  0  0  0  0
   11.2292  -21.7265    0.0262 N   0  0  0  0  0  0  0  0  0  0  0  0
   11.6997  -22.1572   -1.2643 C   0  0  0  0  0  0  0  0  0  0  0  0
   12.3170  -21.4466    0.9970 O   0  0  0  0  0  0  0  0  0  0  0  0
   13.3554  -22.1410    0.9777 C   0  0  0  0  0  0  0  0  0  0  0  0
   13.8164  -21.4953    3.4962 C   0  0  1  0  0  0  0  0  0  0  0  0
   13.2567  -20.2348    2.9458 N   0  0  0  0  0  0  0  0  0  0  0  0
   12.2194  -20.4092    1.9575 C   0  0  0  0  0  0  0  0  0  0  0  0
   14.3735  -19.3778    2.3115 O   0  0  0  0  0  0  0  0  0  0  0  0
   15.4409  -19.0143    3.1073 O   0  0  0  0  0  0  0  0  0  0  0  0
  2  1  1  0
  3  2  2  0
  4  2  1  0
  5  4  1  0
  6  5  1  0
  7  6  1  0
  8 10  1  0
  8  9  1  6
  8  7  1  0
 10 17  1  0
 11 10  2  0
 13 12  1  0
 14 13  2  0
 15 13  1  0
 16 15  1  6
 17 16  1  0
 18 16  1  0
 19 18  2  0
 21 20  1  1
 21 23  1  0
 21 22  1  0
 22 18  1  0
 23 24  1  0
 25 23  2  0
M  END
$$$$
