RNA.pdb
     RDKit          3D

 25 24  0  0  1  0  0  0  0  0999 V2000
   32.1112  -36.8449  -23.3195 N   0  0  0  0  0  0  0  0  0  0  0  0
   31.1978  -37.7783  -22.7130 C   0  0  0  0  0  0  0  0  0  0  0  0
   30.6761  -38.7056  -23.4341 N   0  0  0  0  0  0  0  0  0  0  0  0
   30.8855  -37.6698  -21.3311 N   0  0  0  0  0  0  0  0  0  0  0  0
   31.4984  -36.5798  -20.5653 C   0  0  0  0  0  0  0  0  0  0  0  0
   31.0716  -36.6607  -19.1328 C   0  0  0  0  0  0  0  0  0  0  0  0
   31.5734  -35.5915  -18.2234 C   0  0  0  0  0  0  0  0  0  0  0  0
   31.0477  -34.2239  -18.5150 C   0  0  2  0  0  0  0  0  0  0  0  0
   32.0182  -33.2817  -18.9471 N   0  0  0  0  0  0  0  0  0  0  0  0
   30.3017  -33.6867  -17.3006 C   0  0  0  0  0  0  0  0  0  0  0  0
   30.8239  -33.6870  -16.1704 O   0  0  0  0  0  0  0  0  0  0  0  0
   29.9471  -39.3397  -23.0524 N   0  0  0  0  0  0  0  0  0  0  0  0
   29.0940  -30.1689  -15.4527 C   0  0  0  0  0  0  0  0  0  0  0  0
   27.9546  -30.1549  -16.2855 O   0  0  0  0  0  0  0  0  0  0  0  0
   27.4506  -29.0465  -16.5769 C   0  0  0  0  0  0  0  0  0  0  0  0
   27.3962  -31.4061  -16.7794 C   0  0  2  0  0  0  0  0  0  0  0  0
   28.1513  -32.6344  -16.4179 N   0  0  0  0  0  0  0  0  0  0  0  0
   28.9946  -33.1748  -17.4520 C   0  0  0  0  0  0  0  0  0  0  0  0
   27.3725  -33.6626  -15.6826 O   0  0  0  0  0  0  0  0  0  0  0  0
   26.9224  -34.6527  -16.2974 C   0  0  0  0  0  0  0  0  0  0  0  0
   26.2082  -34.3925  -12.1524 C   0  0  2  0  0  0  0  0  0  0  0  0
   26.3526  -34.5826  -13.6181 N   0  0  0  0  0  0  0  0  0  0  0  0
   27.1164  -33.5605  -14.2926 C   0  0  0  0  0  0  0  0  0  0  0  0
   24.9663  -34.6588  -14.2935 O   0  0  0  0  0  0  0  0  0  0  0  0
   24.2858  -35.8584  -14.2403 O   0  0  0  0  0  0  0  0  0  0  0  0
  2  1  1  0
  3  2  2  0
  4  2  1  0
  5  4  1  0
  6  5  1  0
  7  6  1  0
  8 10  1  0
  8  9  1  1
  8  7  1  0
 10 17  1  0
 11 10  2  0
 13 12  1  0
 14 13  2  0
 15 13  1  0
 16 15  1  1
 17 16  1  0
 18 16  1  0
 19 18  2  0
 21 20  1  1
 21 23  1  0
 21 22  1  0
 22 18  1  0
 23 24  1  0
 25 23  2  0
M  END
$$$$
