RNA.pdb
     RDKit          3D

 25 24  0  0  1  0  0  0  0  0999 V2000
   21.7473  -16.9899  -14.8592 N   0  0  0  0  0  0  0  0  0  0  0  0
   22.7892  -16.7995  -15.8346 C   0  0  0  0  0  0  0  0  0  0  0  0
   22.5746  -17.1345  -17.0568 N   0  0  0  0  0  0  0  0  0  0  0  0
   24.0362  -16.2430  -15.4418 N   0  0  0  0  0  0  0  0  0  0  0  0
   24.0578  -14.8556  -14.9676 C   0  0  0  0  0  0  0  0  0  0  0  0
   23.6366  -13.9338  -16.0694 C   0  0  0  0  0  0  0  0  0  0  0  0
   23.7255  -12.4723  -15.7902 C   0  0  0  0  0  0  0  0  0  0  0  0
   22.4383  -11.8337  -15.3814 C   0  0  2  0  0  0  0  0  0  0  0  0
   21.2654  -12.4732  -15.8628 N   0  0  0  0  0  0  0  0  0  0  0  0
   22.4375  -10.3656  -15.7873 C   0  0  0  0  0  0  0  0  0  0  0  0
   23.3982   -9.6210  -15.5175 O   0  0  0  0  0  0  0  0  0  0  0  0
   23.3268  -17.0790  -17.7712 N   0  0  0  0  0  0  0  0  0  0  0  0
   20.9237   -6.2830  -19.4756 C   0  0  0  0  0  0  0  0  0  0  0  0
   20.0943   -6.8789  -18.5014 O   0  0  0  0  0  0  0  0  0  0  0  0
   19.1834   -6.1836  -17.9970 C   0  0  0  0  0  0  0  0  0  0  0  0
   20.3103   -8.2643  -18.1075 C   0  0  1  0  0  0  0  0  0  0  0  0
   21.1421   -8.4651  -16.8919 N   0  0  0  0  0  0  0  0  0  0  0  0
   21.3317   -9.8329  -16.4852 C   0  0  0  0  0  0  0  0  0  0  0  0
   20.8518   -7.5408  -15.7669 O   0  0  0  0  0  0  0  0  0  0  0  0
   20.0406   -7.8830  -14.8805 C   0  0  0  0  0  0  0  0  0  0  0  0
   22.3897   -4.6399  -14.0503 C   0  0  2  0  0  0  0  0  0  0  0  0
   21.2235   -5.4385  -14.5054 N   0  0  0  0  0  0  0  0  0  0  0  0
   21.4671   -6.2687  -15.6606 C   0  0  0  0  0  0  0  0  0  0  0  0
   20.0289   -4.5159  -14.8307 O   0  0  0  0  0  0  0  0  0  0  0  0
   19.4944   -3.7635  -13.8046 O   0  0  0  0  0  0  0  0  0  0  0  0
  2  1  1  0
  3  2  2  0
  4  2  1  0
  5  4  1  0
  6  5  1  0
  7  6  1  0
  8 10  1  0
  8  9  1  6
  8  7  1  0
 10 17  1  0
 11 10  2  0
 13 12  1  0
 14 13  2  0
 15 13  1  0
 16 15  1  6
 17 16  1  0
 18 16  1  0
 19 18  2  0
 21 20  1  1
 21 23  1  0
 21 22  1  0
 22 18  1  0
 23 24  1  0
 25 23  2  0
M  END
$$$$
