RNA.pdb
     RDKit          3D

 25 24  0  0  1  0  0  0  0  0999 V2000
   26.5994  -21.7940  -11.0489 N   0  0  0  0  0  0  0  0  0  0  0  0
   25.6379  -20.7251  -11.1300 C   0  0  0  0  0  0  0  0  0  0  0  0
   24.4957  -20.8626  -10.5569 N   0  0  0  0  0  0  0  0  0  0  0  0
   25.9588  -19.5337  -11.8347 N   0  0  0  0  0  0  0  0  0  0  0  0
   27.1295  -19.5443  -12.7176 C   0  0  0  0  0  0  0  0  0  0  0  0
   26.9131  -20.5114  -13.8394 C   0  0  0  0  0  0  0  0  0  0  0  0
   28.0167  -20.6424  -14.8327 C   0  0  0  0  0  0  0  0  0  0  0  0
   27.7400  -21.5892  -15.9547 C   0  0  2  0  0  0  0  0  0  0  0  0
   28.8014  -21.7540  -16.8835 N   0  0  0  0  0  0  0  0  0  0  0  0
   26.4687  -21.1717  -16.6821 C   0  0  0  0  0  0  0  0  0  0  0  0
   26.4823  -20.2679  -17.5383 O   0  0  0  0  0  0  0  0  0  0  0  0
   23.7672  -20.1249  -10.6225 N   0  0  0  0  0  0  0  0  0  0  0  0
   20.8531  -23.1633  -18.0130 C   0  0  0  0  0  0  0  0  0  0  0  0
   22.0093  -22.3906  -18.2539 O   0  0  0  0  0  0  0  0  0  0  0  0
   21.9286  -21.4483  -19.0743 C   0  0  0  0  0  0  0  0  0  0  0  0
   23.2512  -22.6987  -17.5582 C   0  0  2  0  0  0  0  0  0  0  0  0
   23.9586  -21.5362  -16.9599 N   0  0  0  0  0  0  0  0  0  0  0  0
   25.2489  -21.8189  -16.3874 C   0  0  0  0  0  0  0  0  0  0  0  0
   23.1156  -20.6440  -16.1246 O   0  0  0  0  0  0  0  0  0  0  0  0
   22.9279  -20.9212  -14.9209 C   0  0  0  0  0  0  0  0  0  0  0  0
   21.4831  -17.2520  -16.3321 C   0  0  2  0  0  0  0  0  0  0  0  0
   21.7371  -18.6104  -15.7886 N   0  0  0  0  0  0  0  0  0  0  0  0
   22.5075  -19.4764  -16.6487 C   0  0  0  0  0  0  0  0  0  0  0  0
   20.4055  -19.3243  -15.4705 O   0  0  0  0  0  0  0  0  0  0  0  0
   19.7473  -19.9569  -16.5055 O   0  0  0  0  0  0  0  0  0  0  0  0
  2  1  1  0
  3  2  2  0
  4  2  1  0
  5  4  1  0
  6  5  1  0
  7  6  1  0
  8 10  1  0
  8  9  1  6
  8  7  1  0
 10 17  1  0
 11 10  2  0
 13 12  1  0
 14 13  2  0
 15 13  1  0
 16 15  1  6
 17 16  1  0
 18 16  1  0
 19 18  2  0
 21 20  1  1
 21 23  1  0
 21 22  1  0
 22 18  1  0
 23 24  1  0
 25 23  2  0
M  END
$$$$
