RNA.pdb
     RDKit          3D

 25 24  0  0  1  0  0  0  0  0999 V2000
   24.3518  -17.3553  -20.5842 N   0  0  0  0  0  0  0  0  0  0  0  0
   24.2422  -18.5544  -19.7945 C   0  0  0  0  0  0  0  0  0  0  0  0
   23.8968  -19.6531  -20.3651 N   0  0  0  0  0  0  0  0  0  0  0  0
   24.5185  -18.5145  -18.4013 N   0  0  0  0  0  0  0  0  0  0  0  0
   24.5886  -17.2049  -17.7455 C   0  0  0  0  0  0  0  0  0  0  0  0
   26.0090  -16.8838  -17.3988 C   0  0  0  0  0  0  0  0  0  0  0  0
   26.2708  -15.5285  -16.8362 C   0  0  0  0  0  0  0  0  0  0  0  0
   26.0089  -14.3986  -17.7778 C   0  0  2  0  0  0  0  0  0  0  0  0
   26.5611  -14.5526  -19.0769 N   0  0  0  0  0  0  0  0  0  0  0  0
   26.4834  -13.0898  -17.1597 C   0  0  0  0  0  0  0  0  0  0  0  0
   26.1559  -12.7665  -16.0029 O   0  0  0  0  0  0  0  0  0  0  0  0
   23.9116  -20.5556  -19.8508 N   0  0  0  0  0  0  0  0  0  0  0  0
   28.8247   -8.5063  -16.5240 C   0  0  0  0  0  0  0  0  0  0  0  0
   29.7365   -9.4560  -17.0326 O   0  0  0  0  0  0  0  0  0  0  0  0
   30.9570   -9.1792  -16.9982 C   0  0  0  0  0  0  0  0  0  0  0  0
   29.2499  -10.7154  -17.5787 C   0  0  2  0  0  0  0  0  0  0  0  0
   27.7790  -10.9200  -17.5112 N   0  0  0  0  0  0  0  0  0  0  0  0
   27.3123  -12.2236  -17.9054 C   0  0  0  0  0  0  0  0  0  0  0  0
   26.9597   -9.8037  -18.0467 O   0  0  0  0  0  0  0  0  0  0  0  0
   26.8241   -9.6748  -19.2820 C   0  0  0  0  0  0  0  0  0  0  0  0
   24.5499   -8.5085  -18.8832 C   0  0  2  0  0  0  0  0  0  0  0  0
   25.3156   -7.9748  -17.7282 N   0  0  0  0  0  0  0  0  0  0  0  0
   26.3191   -8.8666  -17.1983 C   0  0  0  0  0  0  0  0  0  0  0  0
   24.3621   -7.5979  -16.5738 O   0  0  0  0  0  0  0  0  0  0  0  0
   24.4706   -8.2993  -15.3901 O   0  0  0  0  0  0  0  0  0  0  0  0
  2  1  1  0
  3  2  2  0
  4  2  1  0
  5  4  1  0
  6  5  1  0
  7  6  1  0
  8 10  1  0
  8  9  1  6
  8  7  1  0
 10 17  1  0
 11 10  2  0
 13 12  1  0
 14 13  2  0
 15 13  1  0
 16 15  1  1
 17 16  1  0
 18 16  1  0
 19 18  2  0
 21 20  1  6
 21 23  1  0
 21 22  1  0
 22 18  1  0
 23 24  1  0
 25 23  2  0
M  END
$$$$
