RNA.pdb
     RDKit          3D

 25 24  0  0  1  0  0  0  0  0999 V2000
   22.6227  -20.9769  -11.2087 N   0  0  0  0  0  0  0  0  0  0  0  0
   22.9310  -21.1770   -9.8164 C   0  0  0  0  0  0  0  0  0  0  0  0
   21.9726  -21.2262   -8.9614 N   0  0  0  0  0  0  0  0  0  0  0  0
   24.2826  -21.3213   -9.4023 N   0  0  0  0  0  0  0  0  0  0  0  0
   25.3075  -21.5094  -10.4340 C   0  0  0  0  0  0  0  0  0  0  0  0
   26.2072  -20.3140  -10.4825 C   0  0  0  0  0  0  0  0  0  0  0  0
   26.5734  -19.8062  -11.8352 C   0  0  0  0  0  0  0  0  0  0  0  0
   26.6440  -20.8528  -12.8989 C   0  0  2  0  0  0  0  0  0  0  0  0
   27.8125  -21.6595  -12.8779 N   0  0  0  0  0  0  0  0  0  0  0  0
   26.4773  -20.2095  -14.2694 C   0  0  0  0  0  0  0  0  0  0  0  0
   27.4565  -20.0099  -15.0120 O   0  0  0  0  0  0  0  0  0  0  0  0
   22.1588  -21.3796   -7.9509 N   0  0  0  0  0  0  0  0  0  0  0  0
   21.7587  -19.1669  -18.1848 C   0  0  0  0  0  0  0  0  0  0  0  0
   23.0443  -18.8818  -17.6770 O   0  0  0  0  0  0  0  0  0  0  0  0
   23.8625  -18.3079  -18.4312 C   0  0  0  0  0  0  0  0  0  0  0  0
   23.3891  -19.2547  -16.3120 C   0  0  1  0  0  0  0  0  0  0  0  0
   24.8431  -19.3021  -16.0061 N   0  0  0  0  0  0  0  0  0  0  0  0
   25.1914  -19.8324  -14.7139 C   0  0  0  0  0  0  0  0  0  0  0  0
   25.6083  -18.0859  -16.3800 O   0  0  0  0  0  0  0  0  0  0  0  0
   25.2324  -16.9686  -15.9662 C   0  0  0  0  0  0  0  0  0  0  0  0
   28.9740  -17.0477  -17.1991 C   0  0  2  0  0  0  0  0  0  0  0  0
   27.5188  -16.9486  -17.4780 N   0  0  0  0  0  0  0  0  0  0  0  0
   26.7624  -18.1460  -17.2001 C   0  0  0  0  0  0  0  0  0  0  0  0
   27.2750  -16.5683  -18.9544 O   0  0  0  0  0  0  0  0  0  0  0  0
   27.3880  -15.2387  -19.3071 O   0  0  0  0  0  0  0  0  0  0  0  0
  2  1  1  0
  3  2  2  0
  4  2  1  0
  5  4  1  0
  6  5  1  0
  7  6  1  0
  8 10  1  0
  8  9  1  6
  8  7  1  0
 10 17  1  0
 11 10  2  0
 13 12  1  0
 14 13  2  0
 15 13  1  0
 16 15  1  6
 17 16  1  0
 18 16  1  0
 19 18  2  0
 21 20  1  1
 21 23  1  0
 21 22  1  0
 22 18  1  0
 23 24  1  0
 25 23  2  0
M  END
$$$$
