RNA.pdb
     RDKit          3D

 25 24  0  0  1  0  0  0  0  0999 V2000
   11.3810  -13.3511  -18.1217 N   0  0  0  0  0  0  0  0  0  0  0  0
   11.7754  -14.3563  -17.1690 C   0  0  0  0  0  0  0  0  0  0  0  0
   10.9439  -15.2845  -16.8544 N   0  0  0  0  0  0  0  0  0  0  0  0
   13.0729  -14.3164  -16.5912 N   0  0  0  0  0  0  0  0  0  0  0  0
   13.9703  -13.2227  -16.9768 C   0  0  0  0  0  0  0  0  0  0  0  0
   15.3017  -13.3986  -16.3155 C   0  0  0  0  0  0  0  0  0  0  0  0
   16.3486  -12.3881  -16.6389 C   0  0  0  0  0  0  0  0  0  0  0  0
   17.6468  -12.5812  -15.9253 C   0  0  2  0  0  0  0  0  0  0  0  0
   17.6119  -13.4996  -14.8429 N   0  0  0  0  0  0  0  0  0  0  0  0
   18.1823  -11.2359  -15.4526 C   0  0  0  0  0  0  0  0  0  0  0  0
   17.5563  -10.5466  -14.6261 O   0  0  0  0  0  0  0  0  0  0  0  0
   11.1940  -16.0224  -16.1672 N   0  0  0  0  0  0  0  0  0  0  0  0
   21.4375   -7.2030  -14.8135 C   0  0  0  0  0  0  0  0  0  0  0  0
   22.1821   -8.2338  -15.4258 O   0  0  0  0  0  0  0  0  0  0  0  0
   23.4060   -8.0466  -15.6120 C   0  0  0  0  0  0  0  0  0  0  0  0
   21.5254   -9.4714  -15.8233 C   0  0  2  0  0  0  0  0  0  0  0  0
   20.0521   -9.5088  -15.6291 N   0  0  0  0  0  0  0  0  0  0  0  0
   19.4118  -10.7565  -15.9543 C   0  0  0  0  0  0  0  0  0  0  0  0
   19.3188   -8.3143  -16.1187 O   0  0  0  0  0  0  0  0  0  0  0  0
   19.1205   -8.1711  -17.3439 C   0  0  0  0  0  0  0  0  0  0  0  0
   16.5962   -6.2678  -15.2731 C   0  0  2  0  0  0  0  0  0  0  0  0
   18.0059   -6.2451  -15.7395 N   0  0  0  0  0  0  0  0  0  0  0  0
   18.8310   -7.3177  -15.2374 C   0  0  0  0  0  0  0  0  0  0  0  0
   18.6818   -4.9108  -15.3564 O   0  0  0  0  0  0  0  0  0  0  0  0
   18.0740   -3.7388  -15.7588 O   0  0  0  0  0  0  0  0  0  0  0  0
  2  1  1  0
  3  2  2  0
  4  2  1  0
  5  4  1  0
  6  5  1  0
  7  6  1  0
  8 10  1  0
  8  9  1  1
  8  7  1  0
 10 17  1  0
 11 10  2  0
 13 12  1  0
 14 13  2  0
 15 13  1  0
 16 15  1  1
 17 16  1  0
 18 16  1  0
 19 18  2  0
 21 20  1  6
 21 23  1  0
 21 22  1  0
 22 18  1  0
 23 24  1  0
 25 23  2  0
M  END
$$$$
