LTA.pdb
     RDKit          3D

 21 20  0  0  1  0  0  0  0  0999 V2000
    6.9605  -11.7123   25.0758 C   0  0  0  0  0  0  0  0  0  0  0  0
    6.5486  -12.5354   26.2883 C   0  0  2  0  0  0  0  0  0  0  0  0
    6.8601  -11.7029   27.5084 C   0  0  0  0  0  0  0  0  0  0  0  0
    7.2320  -13.8793   26.2947 C   0  0  0  0  0  0  0  0  0  0  0  0
    6.6047  -14.8067   25.2783 C   0  0  2  0  0  0  0  0  0  0  0  0
    5.2672  -15.1538   25.6461 N   0  0  0  0  0  0  0  0  0  0  0  0
    7.4798  -15.9819   25.0744 C   0  0  0  0  0  0  0  0  0  0  0  0
    7.3534  -16.9524   25.8647 O   0  0  0  0  0  0  0  0  0  0  0  0
   10.6904  -15.9782   22.2439 C   0  0  0  0  0  0  0  0  0  0  0  0
    9.9838  -17.2629   22.5314 C   0  0  1  0  0  0  0  0  0  0  0  0
   10.7875  -18.3798   22.3906 O   0  0  0  0  0  0  0  0  0  0  0  0
    9.3087  -17.2300   23.9086 C   0  0  2  0  0  0  0  0  0  0  0  0
    8.4540  -16.0960   24.0507 N   0  0  0  0  0  0  0  0  0  0  0  0
   10.3342  -17.3178   24.9841 C   0  0  0  0  0  0  0  0  0  0  0  0
   10.9166  -16.2779   25.4002 O   0  0  0  0  0  0  0  0  0  0  0  0
   11.1648  -19.4502   27.8306 C   0  0  0  0  0  0  0  0  0  0  0  0
   11.6536  -18.6389   26.6710 C   0  0  2  0  0  0  0  0  0  0  0  0
   10.7043  -18.5506   25.5871 N   0  0  0  0  0  0  0  0  0  0  0  0
   12.9919  -19.1017   26.1885 C   0  0  0  0  0  0  0  0  0  0  0  0
   14.1305  -19.0712   26.9815 O   0  0  0  0  0  0  0  0  0  0  0  0
   13.1256  -19.5429   25.0196 O   0  0  0  0  0  0  0  0  0  0  0  0
  2  1  1  6
  3  2  1  0
  4  2  1  0
  5  7  1  0
  5  4  1  0
  5  6  1  1
  7 13  1  0
  8  7  2  0
 10  9  1  1
 10 11  1  0
 12 10  1  0
 12 13  1  1
 14 15  2  0
 14 12  1  0
 17 16  1  1
 17 19  1  0
 17 18  1  0
 18 14  1  0
 19 20  1  0
 21 19  2  0
M  END
$$$$
