LTA.pdb
     RDKit          3D

 21 20  0  0  1  0  0  0  0  0999 V2000
    3.7425  -17.6698   19.5693 C   0  0  0  0  0  0  0  0  0  0  0  0
    3.0331  -18.3469   20.7336 C   0  0  2  0  0  0  0  0  0  0  0  0
    2.0885  -17.3275   21.3230 C   0  0  0  0  0  0  0  0  0  0  0  0
    4.0211  -18.8910   21.7341 C   0  0  0  0  0  0  0  0  0  0  0  0
    4.9326  -19.9111   21.0900 C   0  0  2  0  0  0  0  0  0  0  0  0
    4.2151  -21.0926   20.7238 N   0  0  0  0  0  0  0  0  0  0  0  0
    6.0842  -20.1773   21.9796 C   0  0  0  0  0  0  0  0  0  0  0  0
    5.9024  -20.9402   22.9632 O   0  0  0  0  0  0  0  0  0  0  0  0
   10.9399  -20.1849   22.8952 C   0  0  0  0  0  0  0  0  0  0  0  0
    9.8228  -19.7678   21.9951 C   0  0  1  0  0  0  0  0  0  0  0  0
    9.8233  -20.4189   20.7747 O   0  0  0  0  0  0  0  0  0  0  0  0
    8.4650  -19.8972   22.6972 C   0  0  2  0  0  0  0  0  0  0  0  0
    7.3823  -19.6344   21.8054 N   0  0  0  0  0  0  0  0  0  0  0  0
    8.4327  -19.0381   23.9126 C   0  0  0  0  0  0  0  0  0  0  0  0
    8.7499  -17.8181   23.8431 O   0  0  0  0  0  0  0  0  0  0  0  0
    6.7119  -18.4549   26.9477 C   0  0  0  0  0  0  0  0  0  0  0  0
    8.0722  -18.7245   26.3831 C   0  0  2  0  0  0  0  0  0  0  0  0
    8.0513  -19.5347   25.1885 N   0  0  0  0  0  0  0  0  0  0  0  0
    9.0026  -19.2889   27.4096 C   0  0  0  0  0  0  0  0  0  0  0  0
    9.7113  -20.4665   27.2176 O   0  0  0  0  0  0  0  0  0  0  0  0
    9.1727  -18.6957   28.5042 O   0  0  0  0  0  0  0  0  0  0  0  0
  2  1  1  6
  3  2  1  0
  4  2  1  0
  5  7  1  0
  5  4  1  0
  5  6  1  1
  7 13  1  0
  8  7  2  0
 10  9  1  1
 10 11  1  0
 12 10  1  0
 12 13  1  6
 14 15  2  0
 14 12  1  0
 17 16  1  1
 17 19  1  0
 17 18  1  0
 18 14  1  0
 19 20  1  0
 21 19  2  0
M  END
$$$$
