LTA.pdb
     RDKit          3D

 21 20  0  0  1  0  0  0  0  0999 V2000
    9.5382  -13.5052   19.6257 C   0  0  0  0  0  0  0  0  0  0  0  0
    8.0328  -13.5071   19.4000 C   0  0  2  0  0  0  0  0  0  0  0  0
    7.6528  -12.1102   18.9721 C   0  0  0  0  0  0  0  0  0  0  0  0
    7.2960  -13.9737   20.6299 C   0  0  0  0  0  0  0  0  0  0  0  0
    7.7360  -15.3654   21.0250 C   0  0  2  0  0  0  0  0  0  0  0  0
    7.1507  -16.3567   20.1769 N   0  0  0  0  0  0  0  0  0  0  0  0
    7.4559  -15.5838   22.4611 C   0  0  0  0  0  0  0  0  0  0  0  0
    6.2967  -15.3303   22.8786 O   0  0  0  0  0  0  0  0  0  0  0  0
    6.7074  -18.2360   24.4915 C   0  0  0  0  0  0  0  0  0  0  0  0
    7.8935  -17.6585   25.1929 C   0  0  1  0  0  0  0  0  0  0  0  0
    9.0478  -18.4036   25.0326 O   0  0  0  0  0  0  0  0  0  0  0  0
    8.1145  -16.1930   24.7971 C   0  0  2  0  0  0  0  0  0  0  0  0
    8.4006  -16.0595   23.4053 N   0  0  0  0  0  0  0  0  0  0  0  0
    9.1599  -15.5806   25.6622 C   0  0  0  0  0  0  0  0  0  0  0  0
   10.3777  -15.6406   25.3352 O   0  0  0  0  0  0  0  0  0  0  0  0
    9.5929  -13.0018   28.2402 C   0  0  0  0  0  0  0  0  0  0  0  0
    9.8610  -14.3977   27.7695 C   0  0  2  0  0  0  0  0  0  0  0  0
    8.8493  -14.9102   26.8763 N   0  0  0  0  0  0  0  0  0  0  0  0
   10.1090  -15.3348   28.9090 C   0  0  0  0  0  0  0  0  0  0  0  0
   11.1597  -15.1743   29.8013 O   0  0  0  0  0  0  0  0  0  0  0  0
    9.3519  -16.3203   29.0945 O   0  0  0  0  0  0  0  0  0  0  0  0
  2  1  1  1
  3  2  1  0
  4  2  1  0
  5  7  1  0
  5  4  1  0
  5  6  1  6
  7 13  1  0
  8  7  2  0
 10  9  1  6
 10 11  1  0
 12 10  1  0
 12 13  1  6
 14 15  2  0
 14 12  1  0
 17 16  1  1
 17 19  1  0
 17 18  1  0
 18 14  1  0
 19 20  1  0
 21 19  2  0
M  END
$$$$
