LTA.pdb
     RDKit          3D

 21 20  0  0  1  0  0  0  0  0999 V2000
    9.4636  -20.8020   16.6189 C   0  0  0  0  0  0  0  0  0  0  0  0
    9.1743  -19.3139   16.7575 C   0  0  2  0  0  0  0  0  0  0  0  0
    9.4415  -18.6889   15.4097 C   0  0  0  0  0  0  0  0  0  0  0  0
    9.9866  -18.7002   17.8696 C   0  0  0  0  0  0  0  0  0  0  0  0
    9.6079  -19.2984   19.2058 C   0  0  2  0  0  0  0  0  0  0  0  0
    8.1882  -19.3873   19.3526 N   0  0  0  0  0  0  0  0  0  0  0  0
   10.2625  -18.5369   20.2922 C   0  0  0  0  0  0  0  0  0  0  0  0
   11.4008  -18.0515   20.0658 O   0  0  0  0  0  0  0  0  0  0  0  0
    9.3274  -15.3415   21.8758 C   0  0  0  0  0  0  0  0  0  0  0  0
    9.4624  -16.3265   22.9911 C   0  0  1  0  0  0  0  0  0  0  0  0
    8.2500  -16.7438   23.5103 O   0  0  0  0  0  0  0  0  0  0  0  0
   10.3336  -17.5194   22.5771 C   0  0  2  0  0  0  0  0  0  0  0  0
    9.7001  -18.3128   21.5742 N   0  0  0  0  0  0  0  0  0  0  0  0
   10.7238  -18.3097   23.7768 C   0  0  0  0  0  0  0  0  0  0  0  0
    9.9743  -19.2286   24.2099 O   0  0  0  0  0  0  0  0  0  0  0  0
   13.8352  -18.8370   25.8494 C   0  0  0  0  0  0  0  0  0  0  0  0
   12.3600  -18.8891   25.5986 C   0  0  2  0  0  0  0  0  0  0  0  0
   11.9348  -18.0769   24.4834 N   0  0  0  0  0  0  0  0  0  0  0  0
   11.5713  -18.5797   26.8316 C   0  0  0  0  0  0  0  0  0  0  0  0
   10.7076  -17.4972   26.9215 O   0  0  0  0  0  0  0  0  0  0  0  0
   11.6719  -19.3119   27.8478 O   0  0  0  0  0  0  0  0  0  0  0  0
  2  1  1  6
  3  2  1  0
  4  2  1  0
  5  7  1  0
  5  4  1  0
  5  6  1  1
  7 13  1  0
  8  7  2  0
 10  9  1  6
 10 11  1  0
 12 10  1  0
 12 13  1  6
 14 15  2  0
 14 12  1  0
 17 16  1  1
 17 19  1  0
 17 18  1  0
 18 14  1  0
 19 20  1  0
 21 19  2  0
M  END
$$$$
