LTA.pdb
     RDKit          3D

 21 20  0  0  1  0  0  0  0  0999 V2000
    9.8619  -12.9009   19.4256 C   0  0  0  0  0  0  0  0  0  0  0  0
    8.4452  -13.0381   18.8861 C   0  0  2  0  0  0  0  0  0  0  0  0
    7.6570  -11.8684   19.4240 C   0  0  0  0  0  0  0  0  0  0  0  0
    7.8489  -14.3746   19.2489 C   0  0  0  0  0  0  0  0  0  0  0  0
    8.7261  -15.5054   18.7607 C   0  0  2  0  0  0  0  0  0  0  0  0
    8.3123  -15.9658   17.4717 N   0  0  0  0  0  0  0  0  0  0  0  0
    8.7658  -16.5765   19.7803 C   0  0  0  0  0  0  0  0  0  0  0  0
    7.6779  -17.1177   20.1061 O   0  0  0  0  0  0  0  0  0  0  0  0
    9.5096  -19.9604   19.8142 C   0  0  0  0  0  0  0  0  0  0  0  0
   10.4591  -19.4023   20.8237 C   0  0  1  0  0  0  0  0  0  0  0  0
   11.7545  -19.2774   20.3550 O   0  0  0  0  0  0  0  0  0  0  0  0
    9.9429  -18.0775   21.3998 C   0  0  2  0  0  0  0  0  0  0  0  0
    9.9431  -17.0400   20.4199 N   0  0  0  0  0  0  0  0  0  0  0  0
   10.7116  -17.7164   22.6225 C   0  0  0  0  0  0  0  0  0  0  0  0
   11.8305  -17.1394   22.5284 O   0  0  0  0  0  0  0  0  0  0  0  0
   10.2787  -17.9982   26.3930 C   0  0  0  0  0  0  0  0  0  0  0  0
   11.0301  -17.7719   25.1179 C   0  0  2  0  0  0  0  0  0  0  0  0
   10.2369  -17.9957   23.9328 N   0  0  0  0  0  0  0  0  0  0  0  0
   12.3074  -18.5495   25.0752 C   0  0  0  0  0  0  0  0  0  0  0  0
   12.3656  -19.8821   24.6919 O   0  0  0  0  0  0  0  0  0  0  0  0
   13.3927  -18.0023   25.3939 O   0  0  0  0  0  0  0  0  0  0  0  0
  2  1  1  1
  3  2  1  0
  4  2  1  0
  5  7  1  0
  5  4  1  0
  5  6  1  6
  7 13  1  0
  8  7  2  0
 10  9  1  6
 10 11  1  0
 12 10  1  0
 12 13  1  6
 14 15  2  0
 14 12  1  0
 17 16  1  1
 17 19  1  0
 17 18  1  0
 18 14  1  0
 19 20  1  0
 21 19  2  0
M  END
$$$$
