LTA.pdb
     RDKit          3D

 21 20  0  0  1  0  0  0  0  0999 V2000
    9.6353  -12.3293   19.7978 C   0  0  0  0  0  0  0  0  0  0  0  0
    8.3880  -13.1156   19.4195 C   0  0  2  0  0  0  0  0  0  0  0  0
    7.2255  -12.4559   20.1212 C   0  0  0  0  0  0  0  0  0  0  0  0
    8.5378  -14.5764   19.7612 C   0  0  0  0  0  0  0  0  0  0  0  0
    9.6780  -15.1963   18.9851 C   0  0  2  0  0  0  0  0  0  0  0  0
    9.3576  -15.3167   17.5967 N   0  0  0  0  0  0  0  0  0  0  0  0
   10.0622  -16.4804   19.6111 C   0  0  0  0  0  0  0  0  0  0  0  0
    9.2879  -17.4608   19.4633 O   0  0  0  0  0  0  0  0  0  0  0  0
   12.4548  -19.0648   18.9322 C   0  0  0  0  0  0  0  0  0  0  0  0
   12.7831  -18.5953   20.3122 C   0  0  1  0  0  0  0  0  0  0  0  0
   13.8951  -17.7745   20.3673 O   0  0  0  0  0  0  0  0  0  0  0  0
   11.5685  -17.9369   20.9791 C   0  0  2  0  0  0  0  0  0  0  0  0
   11.2427  -16.6889   20.3681 N   0  0  0  0  0  0  0  0  0  0  0  0
   11.7904  -17.8202   22.4465 C   0  0  0  0  0  0  0  0  0  0  0  0
   12.4141  -16.8315   22.9233 O   0  0  0  0  0  0  0  0  0  0  0  0
   10.6413  -19.5399   25.6133 C   0  0  0  0  0  0  0  0  0  0  0  0
   11.5840  -18.7212   24.7869 C   0  0  2  0  0  0  0  0  0  0  0  0
   11.3220  -18.7946   23.3692 N   0  0  0  0  0  0  0  0  0  0  0  0
   13.0143  -19.0333   25.0949 C   0  0  0  0  0  0  0  0  0  0  0  0
   13.7135  -18.4221   26.1262 O   0  0  0  0  0  0  0  0  0  0  0  0
   13.6391  -19.8808   24.4092 O   0  0  0  0  0  0  0  0  0  0  0  0
  2  1  1  1
  3  2  1  0
  4  2  1  0
  5  7  1  0
  5  4  1  0
  5  6  1  6
  7 13  1  0
  8  7  2  0
 10  9  1  6
 10 11  1  0
 12 10  1  0
 12 13  1  6
 14 15  2  0
 14 12  1  0
 17 16  1  1
 17 19  1  0
 17 18  1  0
 18 14  1  0
 19 20  1  0
 21 19  2  0
M  END
$$$$
