LTA.pdb
     RDKit          3D

 21 20  0  0  1  0  0  0  0  0999 V2000
   10.0079  -12.8210   19.9598 C   0  0  0  0  0  0  0  0  0  0  0  0
    8.6836  -13.2392   19.3363 C   0  0  2  0  0  0  0  0  0  0  0  0
    7.8542  -11.9866   19.1897 C   0  0  0  0  0  0  0  0  0  0  0  0
    8.0068  -14.3084   20.1561 C   0  0  0  0  0  0  0  0  0  0  0  0
    8.9651  -15.4364   20.4656 C   0  0  2  0  0  0  0  0  0  0  0  0
    8.8733  -16.4793   19.4915 N   0  0  0  0  0  0  0  0  0  0  0  0
    8.7442  -15.9074   21.8504 C   0  0  0  0  0  0  0  0  0  0  0  0
    7.6090  -16.3649   22.1411 O   0  0  0  0  0  0  0  0  0  0  0  0
    9.4983  -18.8343   23.3589 C   0  0  0  0  0  0  0  0  0  0  0  0
   10.1694  -17.8530   24.2639 C   0  0  1  0  0  0  0  0  0  0  0  0
   11.5388  -17.7802   24.0827 O   0  0  0  0  0  0  0  0  0  0  0  0
    9.5178  -16.4678   24.1633 C   0  0  2  0  0  0  0  0  0  0  0  0
    9.7205  -15.8812   22.8782 N   0  0  0  0  0  0  0  0  0  0  0  0
    9.9892  -15.5978   25.2754 C   0  0  0  0  0  0  0  0  0  0  0  0
   11.0701  -14.9541   25.1710 O   0  0  0  0  0  0  0  0  0  0  0  0
    8.5733  -13.7977   28.1775 C   0  0  0  0  0  0  0  0  0  0  0  0
    9.6910  -14.5759   27.5555 C   0  0  2  0  0  0  0  0  0  0  0  0
    9.2630  -15.4485   26.4881 N   0  0  0  0  0  0  0  0  0  0  0  0
   10.4941  -15.3165   28.5775 C   0  0  0  0  0  0  0  0  0  0  0  0
   11.2369  -14.6770   29.5599 O   0  0  0  0  0  0  0  0  0  0  0  0
   10.5188  -16.5728   28.5743 O   0  0  0  0  0  0  0  0  0  0  0  0
  2  1  1  1
  3  2  1  0
  4  2  1  0
  5  7  1  0
  5  4  1  0
  5  6  1  6
  7 13  1  0
  8  7  2  0
 10  9  1  6
 10 11  1  0
 12 10  1  0
 12 13  1  6
 14 15  2  0
 14 12  1  0
 17 16  1  1
 17 19  1  0
 17 18  1  0
 18 14  1  0
 19 20  1  0
 21 19  2  0
M  END
$$$$
