WVN.pdb
     RDKit          3D

 30 31  0  0  1  0  0  0  0  0999 V2000
   24.1699  -19.6627  -11.8926 N   0  0  0  0  0  0  0  0  0  0  0  0
   25.4506  -20.1796  -12.2337 C   0  0  1  0  0  0  0  0  0  0  0  0
   25.7010  -21.4234  -11.3873 C   0  0  0  0  0  0  0  0  0  0  0  0
   25.7879  -21.1042   -9.9389 C   0  0  0  0  0  0  0  0  0  0  0  0
   24.7366  -20.9357   -9.0618 C   0  0  0  0  0  0  0  0  0  0  0  0
   25.2113  -20.6151   -7.8378 N   0  0  0  0  0  0  0  0  0  0  0  0
   26.5638  -20.5707   -7.8979 C   0  0  0  0  0  0  0  0  0  0  0  0
   27.4759  -20.2948   -6.9060 C   0  0  0  0  0  0  0  0  0  0  0  0
   28.8285  -20.3164   -7.2007 C   0  0  0  0  0  0  0  0  0  0  0  0
   29.2132  -20.6155   -8.4838 C   0  0  0  0  0  0  0  0  0  0  0  0
   28.2886  -20.8958   -9.4929 C   0  0  0  0  0  0  0  0  0  0  0  0
   26.9382  -20.8768   -9.2129 C   0  0  0  0  0  0  0  0  0  0  0  0
   25.5440  -20.4956  -13.6802 C   0  0  0  0  0  0  0  0  0  0  0  0
   24.4765  -20.5463  -14.3453 O   0  0  0  0  0  0  0  0  0  0  0  0
   28.0449  -17.9844  -14.7611 C   0  0  0  0  0  0  0  0  0  0  0  0
   28.3168  -19.2787  -15.4413 C   0  0  1  0  0  0  0  0  0  0  0  0
   29.4020  -20.1065  -14.8140 C   0  0  0  0  0  0  0  0  0  0  0  0
   27.0601  -20.1332  -15.6093 C   0  0  2  0  0  0  0  0  0  0  0  0
   26.7810  -20.7392  -14.3367 N   0  0  0  0  0  0  0  0  0  0  0  0
   27.1680  -21.0504  -16.7397 C   0  0  0  0  0  0  0  0  0  0  0  0
   28.1074  -20.9321  -17.5905 O   0  0  0  0  0  0  0  0  0  0  0  0
   27.7801  -26.5733  -16.1476 N   0  0  0  0  0  0  0  0  0  0  0  0
   28.1898  -25.2921  -16.5855 C   0  0  0  0  0  0  0  0  0  0  0  0
   29.1684  -25.3084  -17.4229 O   0  0  0  0  0  0  0  0  0  0  0  0
   27.6045  -24.0028  -16.1761 C   0  0  0  0  0  0  0  0  0  0  0  0
   26.7715  -23.4494  -17.2958 C   0  0  2  0  0  0  0  0  0  0  0  0
   26.2689  -22.1206  -16.9813 N   0  0  0  0  0  0  0  0  0  0  0  0
   25.6019  -24.3264  -17.4874 C   0  0  0  0  0  0  0  0  0  0  0  0
   25.6033  -25.2856  -18.4731 O   0  0  0  0  0  0  0  0  0  0  0  0
   24.5773  -24.2440  -16.7830 O   0  0  0  0  0  0  0  0  0  0  0  0
  2  1  1  6
  2  3  1  0
  3  4  1  0
  4 12  1  0
  4  5  2  0
  5  6  1  0
  7  8  2  0
  7  6  1  0
  9  8  1  0
 10  9  2  0
 11 10  1  0
 11 12  2  0
 12  7  1  0
 13  2  1  0
 13 14  2  0
 16 15  1  1
 16 17  1  0
 16 18  1  0
 18 19  1  1
 19 13  1  0
 20 18  1  0
 21 20  2  0
 23 24  2  0
 23 22  1  0
 25 23  1  0
 26 27  1  0
 26 25  1  1
 27 20  1  0
 28 26  1  0
 29 28  1  0
 30 28  2  0
M  END
$$$$
