WVN.pdb
     RDKit          3D

 30 31  0  0  1  0  0  0  0  0999 V2000
   28.1425  -22.0769  -10.2370 N   0  0  0  0  0  0  0  0  0  0  0  0
   27.2083  -21.0274  -10.0142 C   0  0  1  0  0  0  0  0  0  0  0  0
   27.9763  -19.8053   -9.5214 C   0  0  0  0  0  0  0  0  0  0  0  0
   28.7359  -20.0887   -8.2763 C   0  0  0  0  0  0  0  0  0  0  0  0
   29.9909  -20.6529   -8.1802 C   0  0  0  0  0  0  0  0  0  0  0  0
   30.3312  -20.7884   -6.8794 N   0  0  0  0  0  0  0  0  0  0  0  0
   29.3146  -20.3195   -6.1167 C   0  0  0  0  0  0  0  0  0  0  0  0
   29.2092  -20.2457   -4.7472 C   0  0  0  0  0  0  0  0  0  0  0  0
   28.0638  -19.7123   -4.1811 C   0  0  0  0  0  0  0  0  0  0  0  0
   27.0665  -19.2723   -5.0151 C   0  0  0  0  0  0  0  0  0  0  0  0
   27.1713  -19.3465   -6.4062 C   0  0  0  0  0  0  0  0  0  0  0  0
   28.3065  -19.8765   -6.9830 C   0  0  0  0  0  0  0  0  0  0  0  0
   26.4404  -20.7102  -11.2433 C   0  0  0  0  0  0  0  0  0  0  0  0
   27.0844  -20.4402  -12.2907 O   0  0  0  0  0  0  0  0  0  0  0  0
   26.2437  -21.5035  -13.8434 C   0  0  0  0  0  0  0  0  0  0  0  0
   24.8139  -21.6562  -13.4638 C   0  0  1  0  0  0  0  0  0  0  0  0
   24.4551  -22.9914  -12.8764 C   0  0  0  0  0  0  0  0  0  0  0  0
   24.3280  -20.5453  -12.5325 C   0  0  2  0  0  0  0  0  0  0  0  0
   25.0196  -20.7013  -11.2826 N   0  0  0  0  0  0  0  0  0  0  0  0
   22.8714  -20.4965  -12.4507 C   0  0  0  0  0  0  0  0  0  0  0  0
   22.2451  -21.1408  -11.5491 O   0  0  0  0  0  0  0  0  0  0  0  0
   18.3562  -17.0235  -12.4609 N   0  0  0  0  0  0  0  0  0  0  0  0
   18.7740  -17.9714  -13.4243 C   0  0  0  0  0  0  0  0  0  0  0  0
   17.8084  -18.6059  -13.9938 O   0  0  0  0  0  0  0  0  0  0  0  0
   20.1657  -18.2687  -13.8078 C   0  0  0  0  0  0  0  0  0  0  0  0
   20.6967  -19.3832  -12.9536 C   0  0  2  0  0  0  0  0  0  0  0  0
   22.0520  -19.7499  -13.3357 N   0  0  0  0  0  0  0  0  0  0  0  0
   19.8481  -20.5721  -13.1538 C   0  0  0  0  0  0  0  0  0  0  0  0
   18.8139  -20.8447  -12.2889 O   0  0  0  0  0  0  0  0  0  0  0  0
   20.0215  -21.3713  -14.0940 O   0  0  0  0  0  0  0  0  0  0  0  0
  2  1  1  6
  2  3  1  0
  3  4  1  0
  4 12  1  0
  4  5  2  0
  5  6  1  0
  7  8  2  0
  7  6  1  0
  9  8  1  0
 10  9  2  0
 11 10  1  0
 11 12  2  0
 12  7  1  0
 13  2  1  0
 13 14  2  0
 16 15  1  1
 16 17  1  0
 16 18  1  0
 18 19  1  1
 19 13  1  0
 20 18  1  0
 21 20  2  0
 23 24  2  0
 23 22  1  0
 25 23  1  0
 26 27  1  0
 26 25  1  6
 27 20  1  0
 28 26  1  0
 29 28  1  0
 30 28  2  0
M  END
$$$$
