WVN.pdb
     RDKit          3D

 30 31  0  0  1  0  0  0  0  0999 V2000
   27.0492  -22.0582   -9.7440 N   0  0  0  0  0  0  0  0  0  0  0  0
   26.5632  -20.7386   -9.5290 C   0  0  1  0  0  0  0  0  0  0  0  0
   27.7566  -19.7889   -9.5209 C   0  0  0  0  0  0  0  0  0  0  0  0
   28.7360  -20.1329   -8.4580 C   0  0  0  0  0  0  0  0  0  0  0  0
   29.9370  -20.7921   -8.6182 C   0  0  0  0  0  0  0  0  0  0  0  0
   30.5305  -20.9566   -7.4153 N   0  0  0  0  0  0  0  0  0  0  0  0
   29.7343  -20.4128   -6.4637 C   0  0  0  0  0  0  0  0  0  0  0  0
   29.9234  -20.3345   -5.1035 C   0  0  0  0  0  0  0  0  0  0  0  0
   28.9655  -19.7160   -4.3183 C   0  0  0  0  0  0  0  0  0  0  0  0
   27.8521  -19.1986   -4.9317 C   0  0  0  0  0  0  0  0  0  0  0  0
   27.6578  -19.2772   -6.3129 C   0  0  0  0  0  0  0  0  0  0  0  0
   28.6039  -19.8915   -7.1066 C   0  0  0  0  0  0  0  0  0  0  0  0
   25.5790  -20.3438  -10.5664 C   0  0  0  0  0  0  0  0  0  0  0  0
   25.1152  -19.1742  -10.5280 O   0  0  0  0  0  0  0  0  0  0  0  0
   25.6789  -21.7072  -14.3711 C   0  0  0  0  0  0  0  0  0  0  0  0
   24.9523  -20.5125  -13.8648 C   0  0  1  0  0  0  0  0  0  0  0  0
   24.0305  -19.8652  -14.8588 C   0  0  0  0  0  0  0  0  0  0  0  0
   24.1877  -20.7906  -12.5704 C   0  0  2  0  0  0  0  0  0  0  0  0
   25.1457  -21.2270  -11.5924 N   0  0  0  0  0  0  0  0  0  0  0  0
   23.0500  -21.6794  -12.7859 C   0  0  0  0  0  0  0  0  0  0  0  0
   23.1617  -22.9365  -12.6201 O   0  0  0  0  0  0  0  0  0  0  0  0
   19.1069  -23.8186  -10.1152 N   0  0  0  0  0  0  0  0  0  0  0  0
   19.1673  -22.6427  -10.8993 C   0  0  0  0  0  0  0  0  0  0  0  0
   18.0194  -22.2127  -11.2952 O   0  0  0  0  0  0  0  0  0  0  0  0
   20.3882  -21.9074  -11.2747 C   0  0  0  0  0  0  0  0  0  0  0  0
   20.5718  -21.9623  -12.7636 C   0  0  2  0  0  0  0  0  0  0  0  0
   21.7618  -21.2371  -13.1822 N   0  0  0  0  0  0  0  0  0  0  0  0
   19.4140  -21.3108  -13.4029 C   0  0  0  0  0  0  0  0  0  0  0  0
   19.2738  -19.9431  -13.3638 O   0  0  0  0  0  0  0  0  0  0  0  0
   18.5249  -21.9514  -13.9961 O   0  0  0  0  0  0  0  0  0  0  0  0
  2  1  1  6
  2  3  1  0
  3  4  1  0
  4 12  1  0
  4  5  2  0
  5  6  1  0
  7  8  2  0
  7  6  1  0
  9  8  1  0
 10  9  2  0
 11 10  1  0
 11 12  2  0
 12  7  1  0
 13  2  1  0
 13 14  2  0
 16 15  1  6
 16 17  1  0
 16 18  1  0
 18 19  1  1
 19 13  1  0
 20 18  1  0
 21 20  2  0
 23 24  2  0
 23 22  1  0
 25 23  1  0
 26 27  1  0
 26 25  1  1
 27 20  1  0
 28 26  1  0
 29 28  1  0
 30 28  2  0
M  END
$$$$
