WVN.pdb
     RDKit          3D

 30 31  0  0  1  0  0  0  0  0999 V2000
   27.7094  -22.5027  -13.8167 N   0  0  0  0  0  0  0  0  0  0  0  0
   26.5746  -21.9535  -13.1576 C   0  0  1  0  0  0  0  0  0  0  0  0
   26.9237  -20.5371  -12.7127 C   0  0  0  0  0  0  0  0  0  0  0  0
   27.8085  -20.5295  -11.5192 C   0  0  0  0  0  0  0  0  0  0  0  0
   29.1837  -20.6355  -11.5049 C   0  0  0  0  0  0  0  0  0  0  0  0
   29.6280  -20.6295  -10.2287 N   0  0  0  0  0  0  0  0  0  0  0  0
   28.5611  -20.5201   -9.4012 C   0  0  0  0  0  0  0  0  0  0  0  0
   28.5202  -20.4664   -8.0274 C   0  0  0  0  0  0  0  0  0  0  0  0
   27.2986  -20.3426   -7.3877 C   0  0  0  0  0  0  0  0  0  0  0  0
   26.1626  -20.2771   -8.1551 C   0  0  0  0  0  0  0  0  0  0  0  0
   26.2017  -20.3318   -9.5506 C   0  0  0  0  0  0  0  0  0  0  0  0
   27.4120  -20.4559  -10.2003 C   0  0  0  0  0  0  0  0  0  0  0  0
   25.3798  -21.9532  -14.0370 C   0  0  0  0  0  0  0  0  0  0  0  0
   25.4996  -21.4828  -15.1985 O   0  0  0  0  0  0  0  0  0  0  0  0
   21.7374  -24.6345  -15.4907 C   0  0  0  0  0  0  0  0  0  0  0  0
   22.9229  -24.2351  -14.6866 C   0  0  1  0  0  0  0  0  0  0  0  0
   24.2215  -24.8476  -15.1282 C   0  0  0  0  0  0  0  0  0  0  0  0
   23.0856  -22.7181  -14.5874 C   0  0  2  0  0  0  0  0  0  0  0  0
   24.1185  -22.4603  -13.6222 N   0  0  0  0  0  0  0  0  0  0  0  0
   21.8125  -22.0445  -14.3506 C   0  0  0  0  0  0  0  0  0  0  0  0
   21.2751  -22.0487  -13.1967 O   0  0  0  0  0  0  0  0  0  0  0  0
   17.2741  -19.5242  -14.6858 N   0  0  0  0  0  0  0  0  0  0  0  0
   18.1319  -19.1029  -15.7287 C   0  0  0  0  0  0  0  0  0  0  0  0
   17.6520  -18.1545  -16.4563 O   0  0  0  0  0  0  0  0  0  0  0  0
   19.4712  -19.6414  -16.0267 C   0  0  0  0  0  0  0  0  0  0  0  0
   19.8182  -20.7091  -15.0299 C   0  0  2  0  0  0  0  0  0  0  0  0
   21.0868  -21.3462  -15.3495 N   0  0  0  0  0  0  0  0  0  0  0  0
   18.7784  -21.7531  -15.0804 C   0  0  0  0  0  0  0  0  0  0  0  0
   17.7863  -21.7961  -14.1288 O   0  0  0  0  0  0  0  0  0  0  0  0
   18.7474  -22.6288  -15.9665 O   0  0  0  0  0  0  0  0  0  0  0  0
  2  1  1  6
  2  3  1  0
  3  4  1  0
  4 12  1  0
  4  5  2  0
  5  6  1  0
  7  8  2  0
  7  6  1  0
  9  8  1  0
 10  9  2  0
 11 10  1  0
 11 12  2  0
 12  7  1  0
 13  2  1  0
 13 14  2  0
 16 15  1  6
 16 17  1  0
 16 18  1  0
 18 19  1  1
 19 13  1  0
 20 18  1  0
 21 20  2  0
 23 24  2  0
 23 22  1  0
 25 23  1  0
 26 27  1  0
 26 25  1  6
 27 20  1  0
 28 26  1  0
 29 28  1  0
 30 28  2  0
M  END
$$$$
