WDH.pdb
     RDKit          3D

 33 35  0  0  1  0  0  0  0  0999 V2000
    7.5877  -18.1816   21.7608 N   0  0  0  0  0  0  0  0  0  0  0  0
    8.7876  -17.3409   21.7725 C   0  0  1  0  0  0  0  0  0  0  0  0
    8.4927  -16.0566   22.5593 C   0  0  0  0  0  0  0  0  0  0  0  0
    7.6530  -15.1336   21.7702 C   0  0  0  0  0  0  0  0  0  0  0  0
    6.2773  -15.0311   21.6925 C   0  0  0  0  0  0  0  0  0  0  0  0
    5.9678  -14.0453   20.8424 N   0  0  0  0  0  0  0  0  0  0  0  0
    7.0937  -13.4766   20.3416 C   0  0  0  0  0  0  0  0  0  0  0  0
    7.2951  -12.4493   19.4524 C   0  0  0  0  0  0  0  0  0  0  0  0
    8.5821  -12.0902   19.1327 C   0  0  0  0  0  0  0  0  0  0  0  0
    9.6662  -12.7359   19.6828 C   0  0  0  0  0  0  0  0  0  0  0  0
    9.4259  -13.7609   20.5702 C   0  0  0  0  0  0  0  0  0  0  0  0
    8.1503  -14.1618   20.9258 C   0  0  0  0  0  0  0  0  0  0  0  0
    9.8625  -18.0320   22.5319 C   0  0  0  0  0  0  0  0  0  0  0  0
    9.5548  -18.8150   23.4647 O   0  0  0  0  0  0  0  0  0  0  0  0
   11.2510  -17.8577   22.2614 N   0  0  0  0  0  0  0  0  0  0  0  0
   12.2946  -18.2463   23.1613 C   0  0  1  0  0  0  0  0  0  0  0  0
   13.6074  -18.2663   22.4060 C   0  0  0  0  0  0  0  0  0  0  0  0
   13.6042  -19.1617   21.2415 C   0  0  0  0  0  0  0  0  0  0  0  0
   13.1437  -20.3320   21.2267 O   0  0  0  0  0  0  0  0  0  0  0  0
   12.3569  -17.3395   24.3281 C   0  0  0  0  0  0  0  0  0  0  0  0
   12.8187  -16.1737   24.2790 O   0  0  0  0  0  0  0  0  0  0  0  0
   14.1416  -18.7553   20.0008 O   0  0  0  0  0  0  0  0  0  0  0  0
   11.8705  -17.8057   25.5724 N   0  0  0  0  0  0  0  0  0  0  0  0
   11.4603  -16.8383   26.5830 C   0  0  1  0  0  0  0  0  0  0  0  0
   10.2195  -16.0976   26.1587 C   0  0  0  0  0  0  0  0  0  0  0  0
    9.8530  -15.0932   27.1845 C   0  0  0  0  0  0  0  0  0  0  0  0
   10.5849  -14.8361   28.3519 C   0  0  0  0  0  0  0  0  0  0  0  0
    9.9540  -13.8692   29.0381 N   0  0  0  0  0  0  0  0  0  0  0  0
    8.8544  -13.4996   28.3609 C   0  0  0  0  0  0  0  0  0  0  0  0
    8.8166  -14.2515   27.2490 N   0  0  0  0  0  0  0  0  0  0  0  0
   11.1635  -17.5885   27.8193 C   0  0  0  0  0  0  0  0  0  0  0  0
   11.3281  -16.9553   29.0425 O   0  0  0  0  0  0  0  0  0  0  0  0
   10.7626  -18.7891   27.8411 O   0  0  0  0  0  0  0  0  0  0  0  0
  2  1  1  1
  3  2  1  0
  4  3  1  0
  4  5  2  0
  6  5  1  0
  7  6  1  0
  8  7  2  0
  9  8  1  0
 10  9  2  0
 10 11  1  0
 11 12  2  0
 12  7  1  0
 12  4  1  0
 13  2  1  0
 13 14  2  0
 15 13  1  0
 16 15  1  0
 16 17  1  6
 18 17  1  0
 18 22  1  0
 19 18  2  0
 20 16  1  0
 21 20  2  0
 23 20  1  0
 24 23  1  0
 25 26  1  0
 24 25  1  6
 26 27  2  0
 27 28  1  0
 29 28  1  0
 30 26  1  0
 30 29  2  0
 31 32  1  0
 31 24  1  0
 33 31  2  0
M  END
$$$$
