WDH.pdb
     RDKit          3D

 33 35  0  0  1  0  0  0  0  0999 V2000
    7.2322  -17.4280   24.3377 N   0  0  0  0  0  0  0  0  0  0  0  0
    8.2535  -16.4687   23.9093 C   0  0  1  0  0  0  0  0  0  0  0  0
    8.5738  -15.5229   25.0748 C   0  0  0  0  0  0  0  0  0  0  0  0
    7.3718  -14.7762   25.4960 C   0  0  0  0  0  0  0  0  0  0  0  0
    6.2012  -15.2300   26.0728 C   0  0  0  0  0  0  0  0  0  0  0  0
    5.3908  -14.1853   26.2782 N   0  0  0  0  0  0  0  0  0  0  0  0
    5.9782  -13.0365   25.8574 C   0  0  0  0  0  0  0  0  0  0  0  0
    5.5579  -11.7288   25.8552 C   0  0  0  0  0  0  0  0  0  0  0  0
    6.3952  -10.7628   25.3521 C   0  0  0  0  0  0  0  0  0  0  0  0
    7.6389  -11.0782   24.8534 C   0  0  0  0  0  0  0  0  0  0  0  0
    8.0263  -12.3994   24.8716 C   0  0  0  0  0  0  0  0  0  0  0  0
    7.2219  -13.4103   25.3668 C   0  0  0  0  0  0  0  0  0  0  0  0
    9.5203  -17.1944   23.6292 C   0  0  0  0  0  0  0  0  0  0  0  0
    9.7695  -18.2620   24.2423 O   0  0  0  0  0  0  0  0  0  0  0  0
   10.4908  -16.7442   22.6874 N   0  0  0  0  0  0  0  0  0  0  0  0
   11.8246  -17.2586   22.6079 C   0  0  1  0  0  0  0  0  0  0  0  0
   12.4810  -16.7198   21.3537 C   0  0  0  0  0  0  0  0  0  0  0  0
   11.7704  -17.0733   20.1176 C   0  0  0  0  0  0  0  0  0  0  0  0
   11.3372  -18.2188   19.8315 O   0  0  0  0  0  0  0  0  0  0  0  0
   12.6028  -16.9106   23.8166 C   0  0  0  0  0  0  0  0  0  0  0  0
   13.2966  -15.8702   23.9213 O   0  0  0  0  0  0  0  0  0  0  0  0
   11.5117  -16.1106   19.1179 O   0  0  0  0  0  0  0  0  0  0  0  0
   12.5675  -17.7954   24.9203 N   0  0  0  0  0  0  0  0  0  0  0  0
   13.5345  -17.6262   25.9982 C   0  0  1  0  0  0  0  0  0  0  0  0
   12.9487  -18.0283   27.3261 C   0  0  0  0  0  0  0  0  0  0  0  0
   11.9853  -17.0012   27.7870 C   0  0  0  0  0  0  0  0  0  0  0  0
   11.7383  -15.7846   27.1362 C   0  0  0  0  0  0  0  0  0  0  0  0
   10.8111  -15.1137   27.8390 N   0  0  0  0  0  0  0  0  0  0  0  0
   10.4570  -15.8475   28.9069 C   0  0  0  0  0  0  0  0  0  0  0  0
   11.1784  -16.9788   28.8524 N   0  0  0  0  0  0  0  0  0  0  0  0
   14.6842  -18.5040   25.7033 C   0  0  0  0  0  0  0  0  0  0  0  0
   15.7850  -18.4715   26.5467 O   0  0  0  0  0  0  0  0  0  0  0  0
   14.7360  -19.2975   24.7182 O   0  0  0  0  0  0  0  0  0  0  0  0
  2  1  1  1
  3  2  1  0
  4  3  1  0
  4  5  2  0
  6  5  1  0
  7  6  1  0
  8  7  2  0
  9  8  1  0
 10  9  2  0
 10 11  1  0
 11 12  2  0
 12  7  1  0
 12  4  1  0
 13  2  1  0
 13 14  2  0
 15 13  1  0
 16 15  1  0
 16 17  1  6
 18 17  1  0
 18 22  1  0
 19 18  2  0
 20 16  1  0
 21 20  2  0
 23 20  1  0
 24 23  1  0
 25 26  1  0
 24 25  1  1
 26 27  2  0
 27 28  1  0
 29 28  1  0
 30 26  1  0
 30 29  2  0
 31 32  1  0
 31 24  1  0
 33 31  2  0
M  END
$$$$
