WDH.pdb
     RDKit          3D

 33 35  0  0  1  0  0  0  0  0999 V2000
    6.5521  -15.8406   25.4561 N   0  0  0  0  0  0  0  0  0  0  0  0
    6.8384  -16.7413   24.3366 C   0  0  1  0  0  0  0  0  0  0  0  0
    7.3800  -15.9205   23.1582 C   0  0  0  0  0  0  0  0  0  0  0  0
    7.6418  -14.5246   23.5615 C   0  0  0  0  0  0  0  0  0  0  0  0
    8.3981  -13.5482   22.9421 C   0  0  0  0  0  0  0  0  0  0  0  0
    8.3460  -12.4329   23.6795 N   0  0  0  0  0  0  0  0  0  0  0  0
    7.5764  -12.6250   24.7807 C   0  0  0  0  0  0  0  0  0  0  0  0
    7.2247  -11.7986   25.8199 C   0  0  0  0  0  0  0  0  0  0  0  0
    6.4116  -12.2889   26.8127 C   0  0  0  0  0  0  0  0  0  0  0  0
    5.9458  -13.5841   26.7861 C   0  0  0  0  0  0  0  0  0  0  0  0
    6.3192  -14.3835   25.7290 C   0  0  0  0  0  0  0  0  0  0  0  0
    7.1355  -13.9391   24.7041 C   0  0  0  0  0  0  0  0  0  0  0  0
    7.9419  -17.6613   24.7180 C   0  0  0  0  0  0  0  0  0  0  0  0
    8.3776  -17.6490   25.8961 O   0  0  0  0  0  0  0  0  0  0  0  0
    8.5496  -18.5768   23.8102 N   0  0  0  0  0  0  0  0  0  0  0  0
    9.5718  -19.5085   24.1805 C   0  0  1  0  0  0  0  0  0  0  0  0
    9.7282  -20.5273   23.0706 C   0  0  0  0  0  0  0  0  0  0  0  0
    9.2940  -21.8795   23.4458 C   0  0  0  0  0  0  0  0  0  0  0  0
    9.7411  -22.5424   24.4166 O   0  0  0  0  0  0  0  0  0  0  0  0
   10.8479  -18.8154   24.4609 C   0  0  0  0  0  0  0  0  0  0  0  0
   11.3971  -18.0191   23.6616 O   0  0  0  0  0  0  0  0  0  0  0  0
    8.3003  -22.5623   22.7113 O   0  0  0  0  0  0  0  0  0  0  0  0
   11.4911  -19.0591   25.6975 N   0  0  0  0  0  0  0  0  0  0  0  0
   11.5719  -17.9855   26.6805 C   0  0  1  0  0  0  0  0  0  0  0  0
   10.3469  -17.1105   26.6361 C   0  0  0  0  0  0  0  0  0  0  0  0
   10.5188  -15.9513   27.5428 C   0  0  0  0  0  0  0  0  0  0  0  0
   11.6621  -15.6993   28.3136 C   0  0  0  0  0  0  0  0  0  0  0  0
   11.4587  -14.5679   29.0082 N   0  0  0  0  0  0  0  0  0  0  0  0
   10.2386  -14.0888   28.7147 C   0  0  0  0  0  0  0  0  0  0  0  0
    9.6936  -14.9399   27.8305 N   0  0  0  0  0  0  0  0  0  0  0  0
   11.6572  -18.6121   28.0145 C   0  0  0  0  0  0  0  0  0  0  0  0
   10.6614  -19.4956   28.4041 O   0  0  0  0  0  0  0  0  0  0  0  0
   12.5915  -18.3957   28.8409 O   0  0  0  0  0  0  0  0  0  0  0  0
  2  1  1  1
  3  2  1  0
  4  3  1  0
  4  5  2  0
  6  5  1  0
  7  6  1  0
  8  7  2  0
  9  8  1  0
 10  9  2  0
 10 11  1  0
 11 12  2  0
 12  7  1  0
 12  4  1  0
 13  2  1  0
 13 14  2  0
 15 13  1  0
 16 15  1  0
 16 17  1  6
 18 17  1  0
 18 22  1  0
 19 18  2  0
 20 16  1  0
 21 20  2  0
 23 20  1  0
 24 23  1  0
 25 26  1  0
 24 25  1  1
 26 27  2  0
 27 28  1  0
 29 28  1  0
 30 26  1  0
 30 29  2  0
 31 32  1  0
 31 24  1  0
 33 31  2  0
M  END
$$$$
