WDH.pdb
     RDKit          3D

 33 35  0  0  1  0  0  0  0  0999 V2000
    6.4833  -17.8800   24.2057 N   0  0  0  0  0  0  0  0  0  0  0  0
    7.3682  -16.8891   23.5878 C   0  0  1  0  0  0  0  0  0  0  0  0
    8.0976  -16.1107   24.6913 C   0  0  0  0  0  0  0  0  0  0  0  0
    7.1829  -15.1702   25.3685 C   0  0  0  0  0  0  0  0  0  0  0  0
    5.9987  -15.4102   26.0385 C   0  0  0  0  0  0  0  0  0  0  0  0
    5.5163  -14.2459   26.4881 N   0  0  0  0  0  0  0  0  0  0  0  0
    6.3393  -13.2237   26.1422 C   0  0  0  0  0  0  0  0  0  0  0  0
    6.2794  -11.8701   26.3679 C   0  0  0  0  0  0  0  0  0  0  0  0
    7.2858  -11.0706   25.8829 C   0  0  0  0  0  0  0  0  0  0  0  0
    8.3460  -11.5965   25.1797 C   0  0  0  0  0  0  0  0  0  0  0  0
    8.3724  -12.9575   24.9726 C   0  0  0  0  0  0  0  0  0  0  0  0
    7.3849  -13.8067   25.4394 C   0  0  0  0  0  0  0  0  0  0  0  0
    8.4352  -17.5916   22.8279 C   0  0  0  0  0  0  0  0  0  0  0  0
    8.8444  -18.7100   23.2274 O   0  0  0  0  0  0  0  0  0  0  0  0
    9.0361  -17.0635   21.6483 N   0  0  0  0  0  0  0  0  0  0  0  0
   10.2843  -17.5194   21.1153 C   0  0  1  0  0  0  0  0  0  0  0  0
   10.5690  -16.7694   19.8306 C   0  0  0  0  0  0  0  0  0  0  0  0
   11.5721  -17.4203   18.9775 C   0  0  0  0  0  0  0  0  0  0  0  0
   11.9634  -16.9929   17.8613 O   0  0  0  0  0  0  0  0  0  0  0  0
   11.3777  -17.3449   22.0959 C   0  0  0  0  0  0  0  0  0  0  0  0
   11.7849  -16.2258   22.4916 O   0  0  0  0  0  0  0  0  0  0  0  0
   12.1963  -18.6256   19.3660 O   0  0  0  0  0  0  0  0  0  0  0  0
   12.0042  -18.4997   22.6213 N   0  0  0  0  0  0  0  0  0  0  0  0
   13.0554  -18.3463   23.6198 C   0  0  1  0  0  0  0  0  0  0  0  0
   12.7700  -19.1739   24.8454 C   0  0  0  0  0  0  0  0  0  0  0  0
   11.7980  -18.4721   25.7160 C   0  0  0  0  0  0  0  0  0  0  0  0
   11.4069  -17.1345   25.5650 C   0  0  0  0  0  0  0  0  0  0  0  0
   10.5189  -16.8457   26.5304 N   0  0  0  0  0  0  0  0  0  0  0  0
   10.3272  -17.9380   27.2883 C   0  0  0  0  0  0  0  0  0  0  0  0
   11.1088  -18.9029   26.7771 N   0  0  0  0  0  0  0  0  0  0  0  0
   14.3151  -18.8192   23.0127 C   0  0  0  0  0  0  0  0  0  0  0  0
   14.3001  -19.2618   21.6982 O   0  0  0  0  0  0  0  0  0  0  0  0
   15.4265  -18.8492   23.6183 O   0  0  0  0  0  0  0  0  0  0  0  0
  2  1  1  1
  3  2  1  0
  4  3  1  0
  4  5  2  0
  6  5  1  0
  7  6  1  0
  8  7  2  0
  9  8  1  0
 10  9  2  0
 10 11  1  0
 11 12  2  0
 12  7  1  0
 12  4  1  0
 13  2  1  0
 13 14  2  0
 15 13  1  0
 16 15  1  0
 16 17  1  6
 18 17  1  0
 18 22  1  0
 19 18  2  0
 20 16  1  0
 21 20  2  0
 23 20  1  0
 24 23  1  0
 25 26  1  0
 24 25  1  1
 26 27  2  0
 27 28  1  0
 29 28  1  0
 30 26  1  0
 30 29  2  0
 31 32  1  0
 31 24  1  0
 33 31  2  0
M  END
$$$$
