WDH.pdb
     RDKit          3D

 33 35  0  0  1  0  0  0  0  0999 V2000
    6.5005  -17.4459   23.7379 N   0  0  0  0  0  0  0  0  0  0  0  0
    7.6922  -16.5954   23.7938 C   0  0  1  0  0  0  0  0  0  0  0  0
    7.9857  -16.2386   25.2574 C   0  0  0  0  0  0  0  0  0  0  0  0
    7.0278  -15.2335   25.7594 C   0  0  0  0  0  0  0  0  0  0  0  0
    5.7420  -15.3939   26.2390 C   0  0  0  0  0  0  0  0  0  0  0  0
    5.2581  -14.1938   26.5794 N   0  0  0  0  0  0  0  0  0  0  0  0
    6.1785  -13.2246   26.3444 C   0  0  0  0  0  0  0  0  0  0  0  0
    6.1564  -11.8633   26.5263 C   0  0  0  0  0  0  0  0  0  0  0  0
    7.2676  -11.1298   26.1882 C   0  0  0  0  0  0  0  0  0  0  0  0
    8.3953  -11.7290   25.6740 C   0  0  0  0  0  0  0  0  0  0  0  0
    8.3811  -13.0954   25.5053 C   0  0  0  0  0  0  0  0  0  0  0  0
    7.2887  -13.8801   25.8296 C   0  0  0  0  0  0  0  0  0  0  0  0
    8.8715  -17.3738   23.3323 C   0  0  0  0  0  0  0  0  0  0  0  0
    8.9790  -18.5829   23.6554 O   0  0  0  0  0  0  0  0  0  0  0  0
    9.9107  -16.8213   22.5283 N   0  0  0  0  0  0  0  0  0  0  0  0
   11.2060  -17.4132   22.3804 C   0  0  1  0  0  0  0  0  0  0  0  0
   11.9705  -16.6536   21.3161 C   0  0  0  0  0  0  0  0  0  0  0  0
   13.2722  -17.2493   20.9867 C   0  0  0  0  0  0  0  0  0  0  0  0
   13.5433  -18.4763   21.0390 O   0  0  0  0  0  0  0  0  0  0  0  0
   11.9368  -17.4235   23.6662 C   0  0  0  0  0  0  0  0  0  0  0  0
   12.3409  -16.3859   24.2448 O   0  0  0  0  0  0  0  0  0  0  0  0
   14.3604  -16.4524   20.5695 O   0  0  0  0  0  0  0  0  0  0  0  0
   12.1985  -18.6693   24.2842 N   0  0  0  0  0  0  0  0  0  0  0  0
   12.9891  -18.7034   25.5086 C   0  0  1  0  0  0  0  0  0  0  0  0
   12.3473  -19.5826   26.5494 C   0  0  0  0  0  0  0  0  0  0  0  0
   11.2016  -18.8783   27.1713 C   0  0  0  0  0  0  0  0  0  0  0  0
   10.9977  -17.4920   27.1352 C   0  0  0  0  0  0  0  0  0  0  0  0
    9.8644  -17.2173   27.8014 N   0  0  0  0  0  0  0  0  0  0  0  0
    9.3381  -18.3651   28.2597 C   0  0  0  0  0  0  0  0  0  0  0  0
   10.1622  -19.3499   27.8669 N   0  0  0  0  0  0  0  0  0  0  0  0
   14.3113  -19.2639   25.1663 C   0  0  0  0  0  0  0  0  0  0  0  0
   15.2647  -19.3887   26.1660 O   0  0  0  0  0  0  0  0  0  0  0  0
   14.6407  -19.6448   24.0048 O   0  0  0  0  0  0  0  0  0  0  0  0
  2  1  1  1
  3  2  1  0
  4  3  1  0
  4  5  2  0
  6  5  1  0
  7  6  1  0
  8  7  2  0
  9  8  1  0
 10  9  2  0
 10 11  1  0
 11 12  2  0
 12  7  1  0
 12  4  1  0
 13  2  1  0
 13 14  2  0
 15 13  1  0
 16 15  1  0
 16 17  1  6
 18 17  1  0
 18 22  1  0
 19 18  2  0
 20 16  1  0
 21 20  2  0
 23 20  1  0
 24 23  1  0
 25 26  1  0
 24 25  1  1
 26 27  2  0
 27 28  1  0
 29 28  1  0
 30 26  1  0
 30 29  2  0
 31 32  1  0
 31 24  1  0
 33 31  2  0
M  END
$$$$
