WDH.pdb
     RDKit          3D

 33 35  0  0  1  0  0  0  0  0999 V2000
    6.9951  -16.7137   23.0487 N   0  0  0  0  0  0  0  0  0  0  0  0
    8.2800  -16.2085   22.5582 C   0  0  1  0  0  0  0  0  0  0  0  0
    8.6196  -14.9042   23.2923 C   0  0  0  0  0  0  0  0  0  0  0  0
    7.5739  -14.5637   24.2774 C   0  0  0  0  0  0  0  0  0  0  0  0
    6.7126  -15.3858   24.9784 C   0  0  0  0  0  0  0  0  0  0  0  0
    5.9349  -14.6267   25.7589 N   0  0  0  0  0  0  0  0  0  0  0  0
    6.2440  -13.3140   25.6073 C   0  0  0  0  0  0  0  0  0  0  0  0
    5.7386  -12.1719   26.1791 C   0  0  0  0  0  0  0  0  0  0  0  0
    6.2692  -10.9573   25.8181 C   0  0  0  0  0  0  0  0  0  0  0  0
    7.2910  -10.8635   24.9003 C   0  0  0  0  0  0  0  0  0  0  0  0
    7.7722  -12.0293   24.3478 C   0  0  0  0  0  0  0  0  0  0  0  0
    7.2734  -13.2772   24.6767 C   0  0  0  0  0  0  0  0  0  0  0  0
    9.3563  -17.1638   22.9306 C   0  0  0  0  0  0  0  0  0  0  0  0
    9.3010  -18.3488   22.5177 O   0  0  0  0  0  0  0  0  0  0  0  0
   10.4716  -16.8109   23.7450 N   0  0  0  0  0  0  0  0  0  0  0  0
   11.8160  -17.2266   23.4812 C   0  0  1  0  0  0  0  0  0  0  0  0
   12.2043  -16.7679   22.0909 C   0  0  0  0  0  0  0  0  0  0  0  0
   12.1594  -17.8360   21.0834 C   0  0  0  0  0  0  0  0  0  0  0  0
   12.3577  -17.6806   19.8512 O   0  0  0  0  0  0  0  0  0  0  0  0
   12.7467  -16.6998   24.5030 C   0  0  0  0  0  0  0  0  0  0  0  0
   13.9959  -16.7355   24.3901 O   0  0  0  0  0  0  0  0  0  0  0  0
   11.8777  -19.1723   21.4415 O   0  0  0  0  0  0  0  0  0  0  0  0
   12.2052  -16.1220   25.6757 N   0  0  0  0  0  0  0  0  0  0  0  0
   12.4509  -16.7622   26.9623 C   0  0  1  0  0  0  0  0  0  0  0  0
   11.1666  -17.2328   27.5927 C   0  0  0  0  0  0  0  0  0  0  0  0
   10.2657  -16.0804   27.8289 C   0  0  0  0  0  0  0  0  0  0  0  0
   10.6119  -14.7375   27.6246 C   0  0  0  0  0  0  0  0  0  0  0  0
    9.5508  -13.9779   27.9425 N   0  0  0  0  0  0  0  0  0  0  0  0
    8.5459  -14.7759   28.3397 C   0  0  0  0  0  0  0  0  0  0  0  0
    9.0020  -16.0365   28.2622 N   0  0  0  0  0  0  0  0  0  0  0  0
   13.3140  -17.9342   26.7160 C   0  0  0  0  0  0  0  0  0  0  0  0
   12.7235  -19.1370   26.3571 O   0  0  0  0  0  0  0  0  0  0  0  0
   14.5763  -17.9176   26.8110 O   0  0  0  0  0  0  0  0  0  0  0  0
  2  1  1  1
  3  2  1  0
  4  3  1  0
  4  5  2  0
  6  5  1  0
  7  6  1  0
  8  7  2  0
  9  8  1  0
 10  9  2  0
 10 11  1  0
 11 12  2  0
 12  7  1  0
 12  4  1  0
 13  2  1  0
 13 14  2  0
 15 13  1  0
 16 15  1  0
 16 17  1  6
 18 17  1  0
 18 22  1  0
 19 18  2  0
 20 16  1  0
 21 20  2  0
 23 20  1  0
 24 23  1  0
 25 26  1  0
 24 25  1  6
 26 27  2  0
 27 28  1  0
 29 28  1  0
 30 26  1  0
 30 29  2  0
 31 32  1  0
 31 24  1  0
 33 31  2  0
M  END
$$$$
