WDH.pdb
     RDKit          3D

 33 35  0  0  1  0  0  0  0  0999 V2000
    6.1607  -18.0617   24.7335 N   0  0  0  0  0  0  0  0  0  0  0  0
    7.5288  -17.6510   24.4072 C   0  0  1  0  0  0  0  0  0  0  0  0
    8.0886  -16.8087   25.5616 C   0  0  0  0  0  0  0  0  0  0  0  0
    7.1966  -15.6731   25.8692 C   0  0  0  0  0  0  0  0  0  0  0  0
    5.8627  -15.6637   26.2291 C   0  0  0  0  0  0  0  0  0  0  0  0
    5.4749  -14.3955   26.4065 N   0  0  0  0  0  0  0  0  0  0  0  0
    6.5073  -13.5449   26.1774 C   0  0  0  0  0  0  0  0  0  0  0  0
    6.6080  -12.1761   26.2296 C   0  0  0  0  0  0  0  0  0  0  0  0
    7.8148  -11.5872   25.9394 C   0  0  0  0  0  0  0  0  0  0  0  0
    8.9175  -12.3377   25.5994 C   0  0  0  0  0  0  0  0  0  0  0  0
    8.7791  -13.7070   25.5570 C   0  0  0  0  0  0  0  0  0  0  0  0
    7.5871  -14.3497   25.8402 C   0  0  0  0  0  0  0  0  0  0  0  0
    8.3982  -18.8547   24.3380 C   0  0  0  0  0  0  0  0  0  0  0  0
    8.2714  -19.7591   25.2004 O   0  0  0  0  0  0  0  0  0  0  0  0
    9.3884  -19.0508   23.3317 N   0  0  0  0  0  0  0  0  0  0  0  0
   10.4122  -20.0492   23.4028 C   0  0  1  0  0  0  0  0  0  0  0  0
   10.7435  -20.5087   21.9981 C   0  0  0  0  0  0  0  0  0  0  0  0
   10.2719  -21.8665   21.6951 C   0  0  0  0  0  0  0  0  0  0  0  0
   10.8444  -22.9295   22.0475 O   0  0  0  0  0  0  0  0  0  0  0  0
   11.6111  -19.5342   24.0992 C   0  0  0  0  0  0  0  0  0  0  0  0
   12.6226  -20.2328   24.3512 O   0  0  0  0  0  0  0  0  0  0  0  0
    9.0905  -22.0856   20.9537 O   0  0  0  0  0  0  0  0  0  0  0  0
   11.6253  -18.1793   24.5069 N   0  0  0  0  0  0  0  0  0  0  0  0
   12.7839  -17.6659   25.2277 C   0  0  1  0  0  0  0  0  0  0  0  0
   13.0628  -16.2315   24.8634 C   0  0  0  0  0  0  0  0  0  0  0  0
   13.1871  -16.0968   23.3930 C   0  0  0  0  0  0  0  0  0  0  0  0
   12.1796  -15.6182   22.5441 C   0  0  0  0  0  0  0  0  0  0  0  0
   12.6472  -15.6389   21.2852 N   0  0  0  0  0  0  0  0  0  0  0  0
   13.9056  -16.1087   21.2944 C   0  0  0  0  0  0  0  0  0  0  0  0
   14.2066  -16.3770   22.5753 N   0  0  0  0  0  0  0  0  0  0  0  0
   12.4749  -17.7360   26.6696 C   0  0  0  0  0  0  0  0  0  0  0  0
   13.4771  -17.4468   27.5839 O   0  0  0  0  0  0  0  0  0  0  0  0
   11.3403  -18.0467   27.1372 O   0  0  0  0  0  0  0  0  0  0  0  0
  2  1  1  1
  3  2  1  0
  4  3  1  0
  4  5  2  0
  6  5  1  0
  7  6  1  0
  8  7  2  0
  9  8  1  0
 10  9  2  0
 10 11  1  0
 11 12  2  0
 12  7  1  0
 12  4  1  0
 13  2  1  0
 13 14  2  0
 15 13  1  0
 16 15  1  0
 16 17  1  6
 18 17  1  0
 18 22  1  0
 19 18  2  0
 20 16  1  0
 21 20  2  0
 23 20  1  0
 24 23  1  0
 25 26  1  0
 24 25  1  6
 26 27  2  0
 27 28  1  0
 29 28  1  0
 30 26  1  0
 30 29  2  0
 31 32  1  0
 31 24  1  0
 33 31  2  0
M  END
$$$$
