PCR.pdb
     RDKit          3D

 25 25  0  0  1  0  0  0  0  0999 V2000
    7.3000  -14.7685   21.3012 N   0  0  0  0  0  0  0  0  0  0  0  0
    7.2093  -14.8116   19.8379 C   0  0  0  0  0  0  0  0  0  0  0  0
    7.6029  -13.4101   19.4351 C   0  0  0  0  0  0  0  0  0  0  0  0
    8.3843  -12.8539   20.6149 C   0  0  0  0  0  0  0  0  0  0  0  0
    8.5707  -14.0742   21.4712 C   0  0  1  0  0  0  0  0  0  0  0  0
    8.8155  -13.7549   22.9009 C   0  0  0  0  0  0  0  0  0  0  0  0
    9.9239  -13.2645   23.2301 O   0  0  0  0  0  0  0  0  0  0  0  0
    7.8605  -13.9742   23.9203 N   0  0  0  0  0  0  0  0  0  0  0  0
    8.0797  -13.6687   25.3082 C   0  0  1  0  0  0  0  0  0  0  0  0
    7.0619  -12.6908   25.8489 C   0  0  0  0  0  0  0  0  0  0  0  0
    5.3674  -13.3148   25.7037 S   0  0  0  0  0  0  0  0  0  0  0  0
    7.9714  -14.8863   26.1671 C   0  0  0  0  0  0  0  0  0  0  0  0
    8.2376  -14.7986   27.3969 O   0  0  0  0  0  0  0  0  0  0  0  0
   12.5546  -18.2306   21.0597 N   0  0  0  0  0  0  0  0  0  0  0  0
   12.5052  -19.4810   21.7650 C   0  0  0  0  0  0  0  0  0  0  0  0
   13.4416  -20.3529   21.6685 N   0  0  0  0  0  0  0  0  0  0  0  0
   11.3914  -19.7841   22.6053 N   0  0  0  0  0  0  0  0  0  0  0  0
   10.2490  -18.9338   22.7502 C   0  0  0  0  0  0  0  0  0  0  0  0
   10.3747  -17.8503   23.7649 C   0  0  0  0  0  0  0  0  0  0  0  0
    9.1810  -17.0498   24.0860 C   0  0  0  0  0  0  0  0  0  0  0  0
    8.5211  -17.2354   25.4006 C   0  0  2  0  0  0  0  0  0  0  0  0
    7.5794  -16.1404   25.6519 N   0  0  0  0  0  0  0  0  0  0  0  0
    9.4474  -17.3531   26.5217 C   0  0  0  0  0  0  0  0  0  0  0  0
    9.4831  -18.3271   27.3121 O   0  0  0  0  0  0  0  0  0  0  0  0
   10.3920  -16.3428   26.7972 O   0  0  0  0  0  0  0  0  0  0  0  0
  2  1  1  0
  3  2  1  0
  4  3  1  0
  4  5  1  0
  5  1  1  0
  5  6  1  1
  7  6  2  0
  8  6  1  0
  9 12  1  0
  9  8  1  0
  9 10  1  1
 11 10  1  0
 12 22  1  0
 13 12  2  0
 14 15  1  0
 15 17  1  0
 15 16  2  0
 17 18  1  0
 18 19  1  0
 20 19  1  0
 21 20  1  6
 22 21  1  0
 23 25  1  0
 23 21  1  0
 24 23  2  0
M  END
$$$$
