PCR.pdb
     RDKit          3D

 25 25  0  0  1  0  0  0  0  0999 V2000
    6.9191  -14.5603   21.0470 N   0  0  0  0  0  0  0  0  0  0  0  0
    6.6632  -14.3307   19.6211 C   0  0  0  0  0  0  0  0  0  0  0  0
    7.2081  -12.9392   19.4014 C   0  0  0  0  0  0  0  0  0  0  0  0
    8.1862  -12.7025   20.5412 C   0  0  0  0  0  0  0  0  0  0  0  0
    8.2876  -14.0693   21.1567 C   0  0  1  0  0  0  0  0  0  0  0  0
    8.7313  -14.0423   22.5739 C   0  0  0  0  0  0  0  0  0  0  0  0
    9.9501  -14.2047   22.8294 O   0  0  0  0  0  0  0  0  0  0  0  0
    7.8489  -13.8413   23.6602 N   0  0  0  0  0  0  0  0  0  0  0  0
    8.2470  -13.8925   25.0410 C   0  0  1  0  0  0  0  0  0  0  0  0
    7.3543  -13.0551   25.9278 C   0  0  0  0  0  0  0  0  0  0  0  0
    5.6123  -13.5341   25.7947 S   0  0  0  0  0  0  0  0  0  0  0  0
    8.1761  -15.2816   25.5867 C   0  0  0  0  0  0  0  0  0  0  0  0
    7.2110  -16.0242   25.2581 O   0  0  0  0  0  0  0  0  0  0  0  0
   10.7943  -20.6428   21.4456 N   0  0  0  0  0  0  0  0  0  0  0  0
   11.1288  -19.2505   21.5598 C   0  0  0  0  0  0  0  0  0  0  0  0
   11.3084  -18.5080   20.5287 N   0  0  0  0  0  0  0  0  0  0  0  0
   11.2697  -18.6527   22.8487 N   0  0  0  0  0  0  0  0  0  0  0  0
   11.5627  -19.3898   24.0403 C   0  0  0  0  0  0  0  0  0  0  0  0
   10.7793  -19.0043   25.2473 C   0  0  0  0  0  0  0  0  0  0  0  0
   10.2446  -17.6344   25.3270 C   0  0  0  0  0  0  0  0  0  0  0  0
    9.4929  -17.2234   26.5370 C   0  0  2  0  0  0  0  0  0  0  0  0
    9.1549  -15.7990   26.4618 N   0  0  0  0  0  0  0  0  0  0  0  0
   10.1856  -17.4979   27.7914 C   0  0  0  0  0  0  0  0  0  0  0  0
   10.6585  -16.6152   28.5476 O   0  0  0  0  0  0  0  0  0  0  0  0
   10.3747  -18.8193   28.2468 O   0  0  0  0  0  0  0  0  0  0  0  0
  2  1  1  0
  3  2  1  0
  4  3  1  0
  4  5  1  0
  5  1  1  0
  5  6  1  1
  7  6  2  0
  8  6  1  0
  9 12  1  0
  9  8  1  0
  9 10  1  1
 11 10  1  0
 12 22  1  0
 13 12  2  0
 14 15  1  0
 15 17  1  0
 15 16  2  0
 17 18  1  0
 18 19  1  0
 20 19  1  0
 21 20  1  6
 22 21  1  0
 23 25  1  0
 23 21  1  0
 24 23  2  0
M  END
$$$$
