PCR.pdb
     RDKit          3D

 25 25  0  0  1  0  0  0  0  0999 V2000
    8.7675  -14.4718   17.7651 N   0  0  0  0  0  0  0  0  0  0  0  0
    8.6109  -13.3089   16.8852 C   0  0  0  0  0  0  0  0  0  0  0  0
    7.4092  -12.6045   17.4694 C   0  0  0  0  0  0  0  0  0  0  0  0
    7.3073  -13.0992   18.9036 C   0  0  0  0  0  0  0  0  0  0  0  0
    8.6007  -13.8451   19.0709 C   0  0  1  0  0  0  0  0  0  0  0  0
    8.5532  -14.8657   20.1490 C   0  0  0  0  0  0  0  0  0  0  0  0
    8.3372  -14.4908   21.3279 O   0  0  0  0  0  0  0  0  0  0  0  0
    8.7388  -16.2483   19.9182 N   0  0  0  0  0  0  0  0  0  0  0  0
    8.5814  -17.2612   20.9267 C   0  0  1  0  0  0  0  0  0  0  0  0
    8.8074  -18.6533   20.3830 C   0  0  0  0  0  0  0  0  0  0  0  0
    7.7106  -19.0321   18.9919 S   0  0  0  0  0  0  0  0  0  0  0  0
    9.5650  -17.0932   22.0386 C   0  0  0  0  0  0  0  0  0  0  0  0
   10.7533  -16.7694   21.7665 O   0  0  0  0  0  0  0  0  0  0  0  0
   11.8785  -15.6349   29.3231 N   0  0  0  0  0  0  0  0  0  0  0  0
   10.8068  -14.7445   29.6723 C   0  0  0  0  0  0  0  0  0  0  0  0
   10.5465  -14.4396   30.8913 N   0  0  0  0  0  0  0  0  0  0  0  0
    9.9943  -14.1682   28.6494 N   0  0  0  0  0  0  0  0  0  0  0  0
    9.1902  -14.9338   27.7459 C   0  0  0  0  0  0  0  0  0  0  0  0
    9.9371  -15.8066   26.7973 C   0  0  0  0  0  0  0  0  0  0  0  0
    9.3593  -16.0475   25.4643 C   0  0  0  0  0  0  0  0  0  0  0  0
   10.0884  -16.9156   24.5089 C   0  0  2  0  0  0  0  0  0  0  0  0
    9.2132  -17.2838   23.3920 N   0  0  0  0  0  0  0  0  0  0  0  0
   10.6523  -18.1204   25.1084 C   0  0  0  0  0  0  0  0  0  0  0  0
   11.7986  -18.1905   25.6140 O   0  0  0  0  0  0  0  0  0  0  0  0
    9.9185  -19.3239   25.1563 O   0  0  0  0  0  0  0  0  0  0  0  0
  2  1  1  0
  3  2  1  0
  4  3  1  0
  4  5  1  0
  5  1  1  0
  5  6  1  1
  7  6  2  0
  8  6  1  0
  9 12  1  0
  9  8  1  0
  9 10  1  6
 11 10  1  0
 12 22  1  0
 13 12  2  0
 14 15  1  0
 15 17  1  0
 15 16  2  0
 17 18  1  0
 18 19  1  0
 20 19  1  0
 21 20  1  1
 22 21  1  0
 23 25  1  0
 23 21  1  0
 24 23  2  0
M  END
$$$$
