PCR.pdb
     RDKit          3D

 25 25  0  0  1  0  0  0  0  0999 V2000
    7.4375  -14.8784   18.9394 N   0  0  0  0  0  0  0  0  0  0  0  0
    6.9758  -14.7750   17.5511 C   0  0  0  0  0  0  0  0  0  0  0  0
    7.2614  -13.3319   17.2082 C   0  0  0  0  0  0  0  0  0  0  0  0
    8.3213  -12.8818   18.2012 C   0  0  0  0  0  0  0  0  0  0  0  0
    8.7134  -14.1784   18.8510 C   0  0  1  0  0  0  0  0  0  0  0  0
    9.3171  -14.0005   20.1963 C   0  0  0  0  0  0  0  0  0  0  0  0
   10.4980  -13.5812   20.2789 O   0  0  0  0  0  0  0  0  0  0  0  0
    8.6288  -14.2792   21.3995 N   0  0  0  0  0  0  0  0  0  0  0  0
    9.2080  -14.1435   22.7086 C   0  0  1  0  0  0  0  0  0  0  0  0
    8.1739  -13.8272   23.7646 C   0  0  0  0  0  0  0  0  0  0  0  0
    6.8726  -15.0848   23.8478 S   0  0  0  0  0  0  0  0  0  0  0  0
    9.8725  -15.4054   23.1538 C   0  0  0  0  0  0  0  0  0  0  0  0
    9.4968  -16.5054   22.6642 O   0  0  0  0  0  0  0  0  0  0  0  0
   11.5948  -22.6705   26.8409 N   0  0  0  0  0  0  0  0  0  0  0  0
   12.6571  -21.7310   27.0693 C   0  0  0  0  0  0  0  0  0  0  0  0
   13.5954  -21.9585   27.9146 N   0  0  0  0  0  0  0  0  0  0  0  0
   12.6917  -20.5012   26.3448 N   0  0  0  0  0  0  0  0  0  0  0  0
   11.6439  -19.5266   26.3806 C   0  0  0  0  0  0  0  0  0  0  0  0
   11.1439  -19.0667   25.0547 C   0  0  0  0  0  0  0  0  0  0  0  0
   10.6752  -17.6764   24.9269 C   0  0  0  0  0  0  0  0  0  0  0  0
   11.6334  -16.6294   24.4987 C   0  0  2  0  0  0  0  0  0  0  0  0
   10.9123  -15.4144   24.1078 N   0  0  0  0  0  0  0  0  0  0  0  0
   12.5233  -17.0410   23.4181 C   0  0  0  0  0  0  0  0  0  0  0  0
   13.7634  -16.8493   23.4096 O   0  0  0  0  0  0  0  0  0  0  0  0
   12.0267  -17.7013   22.2752 O   0  0  0  0  0  0  0  0  0  0  0  0
  2  1  1  0
  3  2  1  0
  4  3  1  0
  4  5  1  0
  5  1  1  0
  5  6  1  1
  7  6  2  0
  8  6  1  0
  9 12  1  0
  9  8  1  0
  9 10  1  1
 11 10  1  0
 12 22  1  0
 13 12  2  0
 14 15  1  0
 15 17  1  0
 15 16  2  0
 17 18  1  0
 18 19  1  0
 20 19  1  0
 21 20  1  6
 22 21  1  0
 23 25  1  0
 23 21  1  0
 24 23  2  0
M  END
$$$$
