PCR.pdb
     RDKit          3D

 25 25  0  0  1  0  0  0  0  0999 V2000
    6.7841  -14.5367   20.5777 N   0  0  0  0  0  0  0  0  0  0  0  0
    6.5791  -14.3450   19.1381 C   0  0  0  0  0  0  0  0  0  0  0  0
    7.1492  -12.9671   18.8977 C   0  0  0  0  0  0  0  0  0  0  0  0
    8.0916  -12.7097   20.0629 C   0  0  0  0  0  0  0  0  0  0  0  0
    8.1544  -14.0594   20.7199 C   0  0  1  0  0  0  0  0  0  0  0  0
    8.5506  -13.9971   22.1499 C   0  0  0  0  0  0  0  0  0  0  0  0
    9.7640  -13.8444   22.4354 O   0  0  0  0  0  0  0  0  0  0  0  0
    7.6283  -14.1006   23.2166 N   0  0  0  0  0  0  0  0  0  0  0  0
    7.9963  -14.0597   24.6061 C   0  0  1  0  0  0  0  0  0  0  0  0
    6.9115  -13.4588   25.4703 C   0  0  0  0  0  0  0  0  0  0  0  0
    5.5153  -14.5895   25.7025 S   0  0  0  0  0  0  0  0  0  0  0  0
    8.2432  -15.4275   25.1541 C   0  0  0  0  0  0  0  0  0  0  0  0
    7.3197  -16.2854   25.1089 O   0  0  0  0  0  0  0  0  0  0  0  0
   14.4393  -20.4378   22.1732 N   0  0  0  0  0  0  0  0  0  0  0  0
   13.9710  -21.2017   23.2959 C   0  0  0  0  0  0  0  0  0  0  0  0
   14.3377  -22.4156   23.4922 N   0  0  0  0  0  0  0  0  0  0  0  0
   13.0713  -20.6133   24.2354 N   0  0  0  0  0  0  0  0  0  0  0  0
   12.5409  -19.2898   24.1083 C   0  0  0  0  0  0  0  0  0  0  0  0
   11.7879  -18.7796   25.2881 C   0  0  0  0  0  0  0  0  0  0  0  0
   11.1720  -17.4446   25.2018 C   0  0  0  0  0  0  0  0  0  0  0  0
    9.8921  -17.1944   25.9069 C   0  0  2  0  0  0  0  0  0  0  0  0
    9.4793  -15.7997   25.7243 N   0  0  0  0  0  0  0  0  0  0  0  0
    9.9225  -17.5150   27.3300 C   0  0  0  0  0  0  0  0  0  0  0  0
   10.1054  -18.6668   27.7932 O   0  0  0  0  0  0  0  0  0  0  0  0
    9.7397  -16.5149   28.3075 O   0  0  0  0  0  0  0  0  0  0  0  0
  2  1  1  0
  3  2  1  0
  4  3  1  0
  4  5  1  0
  5  1  1  0
  5  6  1  1
  7  6  2  0
  8  6  1  0
  9 12  1  0
  9  8  1  0
  9 10  1  1
 11 10  1  0
 12 22  1  0
 13 12  2  0
 14 15  1  0
 15 17  1  0
 15 16  2  0
 17 18  1  0
 18 19  1  0
 20 19  1  0
 21 20  1  1
 22 21  1  0
 23 25  1  0
 23 21  1  0
 24 23  2  0
M  END
$$$$
