PCR.pdb
     RDKit          3D

 25 25  0  0  1  0  0  0  0  0999 V2000
    7.2332  -14.9380   20.6112 N   0  0  0  0  0  0  0  0  0  0  0  0
    7.1537  -14.7659   19.1568 C   0  0  0  0  0  0  0  0  0  0  0  0
    7.1519  -13.2640   18.9954 C   0  0  0  0  0  0  0  0  0  0  0  0
    7.7565  -12.7180   20.2793 C   0  0  0  0  0  0  0  0  0  0  0  0
    8.2687  -13.9660   20.9406 C   0  0  1  0  0  0  0  0  0  0  0  0
    8.4217  -13.8291   22.4116 C   0  0  0  0  0  0  0  0  0  0  0  0
    9.5785  -13.8014   22.8996 O   0  0  0  0  0  0  0  0  0  0  0  0
    7.3265  -13.7267   23.3000 N   0  0  0  0  0  0  0  0  0  0  0  0
    7.4560  -13.6021   24.7267 C   0  0  1  0  0  0  0  0  0  0  0  0
    6.2133  -13.0293   25.3686 C   0  0  0  0  0  0  0  0  0  0  0  0
    6.3888  -12.8505   27.1627 S   0  0  0  0  0  0  0  0  0  0  0  0
    7.6788  -14.9269   25.3804 C   0  0  0  0  0  0  0  0  0  0  0  0
    6.9755  -15.9133   25.0295 O   0  0  0  0  0  0  0  0  0  0  0  0
   14.9537  -18.6554   23.6417 N   0  0  0  0  0  0  0  0  0  0  0  0
   14.5500  -17.3250   24.0030 C   0  0  0  0  0  0  0  0  0  0  0  0
   15.3422  -16.5144   24.6047 N   0  0  0  0  0  0  0  0  0  0  0  0
   13.2334  -16.8684   23.6924 N   0  0  0  0  0  0  0  0  0  0  0  0
   12.0573  -17.6712   23.8388 C   0  0  0  0  0  0  0  0  0  0  0  0
   11.3173  -17.5049   25.1210 C   0  0  0  0  0  0  0  0  0  0  0  0
   10.2925  -16.4507   25.2063 C   0  0  0  0  0  0  0  0  0  0  0  0
    9.5072  -16.3084   26.4557 C   0  0  2  0  0  0  0  0  0  0  0  0
    8.6535  -15.1190   26.3828 N   0  0  0  0  0  0  0  0  0  0  0  0
   10.3183  -16.2568   27.6674 C   0  0  0  0  0  0  0  0  0  0  0  0
   11.0780  -17.1788   28.0515 O   0  0  0  0  0  0  0  0  0  0  0  0
   10.2963  -15.1282   28.5130 O   0  0  0  0  0  0  0  0  0  0  0  0
  2  1  1  0
  3  2  1  0
  4  3  1  0
  4  5  1  0
  5  1  1  0
  5  6  1  1
  7  6  2  0
  8  6  1  0
  9 12  1  0
  9  8  1  0
  9 10  1  1
 11 10  1  0
 12 22  1  0
 13 12  2  0
 14 15  1  0
 15 17  1  0
 15 16  2  0
 17 18  1  0
 18 19  1  0
 20 19  1  0
 21 20  1  6
 22 21  1  0
 23 25  1  0
 23 21  1  0
 24 23  2  0
M  END
$$$$
