PCR.pdb
     RDKit          3D

 25 25  0  0  1  0  0  0  0  0999 V2000
    6.3238  -21.4238   24.7792 N   0  0  0  0  0  0  0  0  0  0  0  0
    5.5808  -22.6777   24.6154 C   0  0  0  0  0  0  0  0  0  0  0  0
    4.2027  -22.2028   24.2193 C   0  0  0  0  0  0  0  0  0  0  0  0
    4.3995  -20.7961   23.6767 C   0  0  0  0  0  0  0  0  0  0  0  0
    5.8962  -20.7006   23.5877 C   0  0  1  0  0  0  0  0  0  0  0  0
    6.3962  -19.3021   23.6059 C   0  0  0  0  0  0  0  0  0  0  0  0
    6.1501  -18.5588   22.6239 O   0  0  0  0  0  0  0  0  0  0  0  0
    7.1399  -18.7571   24.6778 N   0  0  0  0  0  0  0  0  0  0  0  0
    7.7154  -17.4393   24.6707 C   0  0  1  0  0  0  0  0  0  0  0  0
    7.7320  -16.8122   26.0458 C   0  0  0  0  0  0  0  0  0  0  0  0
    8.5659  -17.8591   27.2665 S   0  0  0  0  0  0  0  0  0  0  0  0
    9.1379  -17.4587   24.2142 C   0  0  0  0  0  0  0  0  0  0  0  0
    9.8895  -18.4034   24.5797 O   0  0  0  0  0  0  0  0  0  0  0  0
    8.2619  -14.4220   17.6694 N   0  0  0  0  0  0  0  0  0  0  0  0
    8.1085  -13.3667   18.6318 C   0  0  0  0  0  0  0  0  0  0  0  0
    7.0894  -12.5869   18.6284 N   0  0  0  0  0  0  0  0  0  0  0  0
    9.1061  -13.1612   19.6323 N   0  0  0  0  0  0  0  0  0  0  0  0
   10.1622  -14.0880   19.9056 C   0  0  0  0  0  0  0  0  0  0  0  0
   10.0993  -14.7667   21.2302 C   0  0  0  0  0  0  0  0  0  0  0  0
   11.0881  -15.8172   21.5264 C   0  0  0  0  0  0  0  0  0  0  0  0
   11.0370  -16.5059   22.8383 C   0  0  2  0  0  0  0  0  0  0  0  0
    9.6772  -16.4535   23.3834 N   0  0  0  0  0  0  0  0  0  0  0  0
   11.9805  -15.9857   23.8222 C   0  0  0  0  0  0  0  0  0  0  0  0
   11.6493  -15.3885   24.8749 O   0  0  0  0  0  0  0  0  0  0  0  0
   13.3725  -16.1254   23.6435 O   0  0  0  0  0  0  0  0  0  0  0  0
  2  1  1  0
  3  2  1  0
  4  3  1  0
  4  5  1  0
  5  1  1  0
  5  6  1  1
  7  6  2  0
  8  6  1  0
  9 12  1  0
  9  8  1  0
  9 10  1  1
 11 10  1  0
 12 22  1  0
 13 12  2  0
 14 15  1  0
 15 17  1  0
 15 16  2  0
 17 18  1  0
 18 19  1  0
 20 19  1  0
 21 20  1  6
 22 21  1  0
 23 25  1  0
 23 21  1  0
 24 23  2  0
M  END
$$$$
