TCY.pdb
     RDKit          3D

 26 26  0  0  1  0  0  0  0  0999 V2000
    6.8152  -15.1556   17.5320 C   0  0  0  0  0  0  0  0  0  0  0  0
    7.4813  -15.0789   18.8966 C   0  0  1  0  0  0  0  0  0  0  0  0
    8.8469  -15.2643   18.6913 O   0  0  0  0  0  0  0  0  0  0  0  0
    7.2860  -13.6886   19.4594 C   0  0  2  0  0  0  0  0  0  0  0  0
    7.9755  -12.7675   18.5877 N   0  0  0  0  0  0  0  0  0  0  0  0
    7.8725  -13.5735   20.8189 C   0  0  0  0  0  0  0  0  0  0  0  0
    9.1325  -13.4257   20.9656 O   0  0  0  0  0  0  0  0  0  0  0  0
    7.0929  -13.6194   22.0013 N   0  0  0  0  0  0  0  0  0  0  0  0
    7.7122  -13.5113   23.3471 C   0  0  1  0  0  0  0  0  0  0  0  0
    6.5875  -13.1641   24.2875 C   0  0  0  0  0  0  0  0  0  0  0  0
    7.0890  -13.0644   25.9989 S   0  0  0  0  0  0  0  0  0  0  0  0
    8.3099  -14.7923   23.7205 C   0  0  0  0  0  0  0  0  0  0  0  0
    7.5807  -15.8034   23.9265 O   0  0  0  0  0  0  0  0  0  0  0  0
   11.2444  -15.8617   31.4811 O   0  0  0  0  0  0  0  0  0  0  0  0
   10.7793  -15.6690   30.1864 C   0  0  0  0  0  0  0  0  0  0  0  0
   10.3390  -16.6969   29.3844 C   0  0  0  0  0  0  0  0  0  0  0  0
    9.8869  -16.4353   28.1000 C   0  0  0  0  0  0  0  0  0  0  0  0
    9.8592  -15.1518   27.5780 C   0  0  0  0  0  0  0  0  0  0  0  0
    9.3777  -14.8970   26.2153 C   0  0  0  0  0  0  0  0  0  0  0  0
   10.3016  -15.3857   25.1315 C   0  0  2  0  0  0  0  0  0  0  0  0
    9.6871  -14.9615   23.8620 N   0  0  0  0  0  0  0  0  0  0  0  0
   10.4162  -16.8534   25.1067 C   0  0  0  0  0  0  0  0  0  0  0  0
   11.4252  -17.4815   25.7987 O   0  0  0  0  0  0  0  0  0  0  0  0
   10.3087  -14.1453   28.4115 C   0  0  0  0  0  0  0  0  0  0  0  0
   10.7639  -14.3854   29.6967 C   0  0  0  0  0  0  0  0  0  0  0  0
    9.6199  -17.5965   24.4689 O   0  0  0  0  0  0  0  0  0  0  0  0
  2  1  1  6
  3  2  1  0
  4  2  1  0
  4  6  1  0
  4  5  1  6
  6  7  2  0
  8  6  1  0
  8  9  1  0
  9 10  1  1
 11 10  1  0
 12  9  1  0
 12 21  1  0
 13 12  2  0
 15 14  1  0
 16 15  2  0
 17 16  1  0
 18 24  1  0
 18 17  2  0
 19 18  1  0
 20 22  1  0
 20 21  1  0
 20 19  1  1
 22 23  1  0
 24 25  2  0
 25 15  1  0
 26 22  2  0
M  END
$$$$
