TCY.pdb
     RDKit          3D

 26 26  0  0  1  0  0  0  0  0999 V2000
   15.8538  -17.7862   20.2753 C   0  0  0  0  0  0  0  0  0  0  0  0
   15.2129  -17.2013   19.0267 C   0  0  1  0  0  0  0  0  0  0  0  0
   15.8480  -17.7871   17.9335 O   0  0  0  0  0  0  0  0  0  0  0  0
   13.7573  -17.6106   18.9858 C   0  0  2  0  0  0  0  0  0  0  0  0
   13.2233  -17.1856   17.7139 N   0  0  0  0  0  0  0  0  0  0  0  0
   12.9830  -16.9446   20.0640 C   0  0  0  0  0  0  0  0  0  0  0  0
   12.6936  -15.7037   19.9758 O   0  0  0  0  0  0  0  0  0  0  0  0
   12.5312  -17.6250   21.2219 N   0  0  0  0  0  0  0  0  0  0  0  0
   11.8298  -16.9122   22.3201 C   0  0  1  0  0  0  0  0  0  0  0  0
   10.4293  -17.4673   22.3383 C   0  0  0  0  0  0  0  0  0  0  0  0
    9.4188  -16.8204   23.6615 S   0  0  0  0  0  0  0  0  0  0  0  0
   12.4999  -17.1815   23.5914 C   0  0  0  0  0  0  0  0  0  0  0  0
   13.0034  -18.3172   23.8219 O   0  0  0  0  0  0  0  0  0  0  0  0
   18.9705  -15.4739   23.0707 O   0  0  0  0  0  0  0  0  0  0  0  0
   17.8220  -15.4643   23.8520 C   0  0  0  0  0  0  0  0  0  0  0  0
   17.7430  -16.0782   25.0810 C   0  0  0  0  0  0  0  0  0  0  0  0
   16.5648  -16.0306   25.8104 C   0  0  0  0  0  0  0  0  0  0  0  0
   15.4370  -15.3752   25.3424 C   0  0  0  0  0  0  0  0  0  0  0  0
   14.1994  -15.3378   26.1302 C   0  0  0  0  0  0  0  0  0  0  0  0
   13.2730  -16.4984   25.8818 C   0  0  2  0  0  0  0  0  0  0  0  0
   12.6184  -16.2177   24.5926 N   0  0  0  0  0  0  0  0  0  0  0  0
   12.2203  -16.6097   26.9052 C   0  0  0  0  0  0  0  0  0  0  0  0
   10.9041  -16.3905   26.5721 O   0  0  0  0  0  0  0  0  0  0  0  0
   15.5531  -14.7705   24.1051 C   0  0  0  0  0  0  0  0  0  0  0  0
   16.7201  -14.8064   23.3613 C   0  0  0  0  0  0  0  0  0  0  0  0
   12.4578  -16.9034   28.1096 O   0  0  0  0  0  0  0  0  0  0  0  0
  2  1  1  1
  3  2  1  0
  4  2  1  0
  4  6  1  0
  4  5  1  6
  6  7  2  0
  8  6  1  0
  8  9  1  0
  9 10  1  1
 11 10  1  0
 12  9  1  0
 12 21  1  0
 13 12  2  0
 15 14  1  0
 16 15  2  0
 17 16  1  0
 18 24  1  0
 18 17  2  0
 19 18  1  0
 20 22  1  0
 20 21  1  0
 20 19  1  1
 22 23  1  0
 24 25  2  0
 25 15  1  0
 26 22  2  0
M  END
$$$$
