TCY.pdb
     RDKit          3D

 26 26  0  0  1  0  0  0  0  0999 V2000
   12.7378  -17.4332   16.4043 C   0  0  0  0  0  0  0  0  0  0  0  0
   11.5194  -16.9741   15.6190 C   0  0  1  0  0  0  0  0  0  0  0  0
   11.8503  -17.0656   14.2686 O   0  0  0  0  0  0  0  0  0  0  0  0
   10.3794  -17.9337   15.8786 C   0  0  2  0  0  0  0  0  0  0  0  0
    9.2819  -17.5434   15.0261 N   0  0  0  0  0  0  0  0  0  0  0  0
    9.9250  -17.8565   17.2904 C   0  0  0  0  0  0  0  0  0  0  0  0
    9.0967  -16.9539   17.6512 O   0  0  0  0  0  0  0  0  0  0  0  0
   10.3696  -18.7531   18.2935 N   0  0  0  0  0  0  0  0  0  0  0  0
    9.8197  -18.7134   19.6728 C   0  0  1  0  0  0  0  0  0  0  0  0
   10.0209  -20.0975   20.2327 C   0  0  0  0  0  0  0  0  0  0  0  0
    9.4494  -20.2804   21.9151 S   0  0  0  0  0  0  0  0  0  0  0  0
   10.5535  -17.7312   20.4693 C   0  0  0  0  0  0  0  0  0  0  0  0
   11.7981  -17.5804   20.3122 O   0  0  0  0  0  0  0  0  0  0  0  0
    7.1924  -12.8139   17.6090 O   0  0  0  0  0  0  0  0  0  0  0  0
    7.8245  -13.2720   18.7580 C   0  0  0  0  0  0  0  0  0  0  0  0
    9.1487  -13.0236   19.0380 C   0  0  0  0  0  0  0  0  0  0  0  0
    9.7187  -13.5107   20.2043 C   0  0  0  0  0  0  0  0  0  0  0  0
    8.9934  -14.2547   21.1214 C   0  0  0  0  0  0  0  0  0  0  0  0
    9.6165  -14.7618   22.3495 C   0  0  0  0  0  0  0  0  0  0  0  0
   10.6405  -15.8421   22.1228 C   0  0  2  0  0  0  0  0  0  0  0  0
    9.9298  -16.9246   21.4210 N   0  0  0  0  0  0  0  0  0  0  0  0
   11.1677  -16.3935   23.3821 C   0  0  0  0  0  0  0  0  0  0  0  0
   10.8183  -17.6618   23.7832 O   0  0  0  0  0  0  0  0  0  0  0  0
    7.6673  -14.4842   20.8072 C   0  0  0  0  0  0  0  0  0  0  0  0
    7.0795  -14.0069   19.6483 C   0  0  0  0  0  0  0  0  0  0  0  0
   11.9464  -15.7540   24.1423 O   0  0  0  0  0  0  0  0  0  0  0  0
  2  1  1  1
  3  2  1  0
  4  2  1  0
  4  6  1  0
  4  5  1  6
  6  7  2  0
  8  6  1  0
  8  9  1  0
  9 10  1  1
 11 10  1  0
 12  9  1  0
 12 21  1  0
 13 12  2  0
 15 14  1  0
 16 15  2  0
 17 16  1  0
 18 24  1  0
 18 17  2  0
 19 18  1  0
 20 22  1  0
 20 21  1  0
 20 19  1  1
 22 23  1  0
 24 25  2  0
 25 15  1  0
 26 22  2  0
M  END
$$$$
