TCY.pdb
     RDKit          3D

 26 26  0  0  1  0  0  0  0  0999 V2000
    8.6054  -12.5059   20.6480 C   0  0  0  0  0  0  0  0  0  0  0  0
    7.9457  -12.9976   19.3693 C   0  0  1  0  0  0  0  0  0  0  0  0
    8.5018  -12.2678   18.3206 O   0  0  0  0  0  0  0  0  0  0  0  0
    8.3071  -14.4512   19.1597 C   0  0  2  0  0  0  0  0  0  0  0  0
    7.6826  -14.8801   17.9309 N   0  0  0  0  0  0  0  0  0  0  0  0
    7.7910  -15.2967   20.2661 C   0  0  0  0  0  0  0  0  0  0  0  0
    6.5392  -15.5281   20.3689 O   0  0  0  0  0  0  0  0  0  0  0  0
    8.6310  -15.8810   21.2463 N   0  0  0  0  0  0  0  0  0  0  0  0
    8.0775  -16.6732   22.3743 C   0  0  1  0  0  0  0  0  0  0  0  0
    8.2885  -18.1176   22.0012 C   0  0  0  0  0  0  0  0  0  0  0  0
    7.7483  -19.2684   23.2559 S   0  0  0  0  0  0  0  0  0  0  0  0
    8.8014  -16.3548   23.6040 C   0  0  0  0  0  0  0  0  0  0  0  0
   10.0380  -16.0977   23.5708 O   0  0  0  0  0  0  0  0  0  0  0  0
    6.1790  -10.3146   26.1349 O   0  0  0  0  0  0  0  0  0  0  0  0
    6.6490  -11.5980   26.3838 C   0  0  0  0  0  0  0  0  0  0  0  0
    7.9382  -11.8622   26.7859 C   0  0  0  0  0  0  0  0  0  0  0  0
    8.3431  -13.1678   27.0175 C   0  0  0  0  0  0  0  0  0  0  0  0
    7.4837  -14.2431   26.8572 C   0  0  0  0  0  0  0  0  0  0  0  0
    7.9331  -15.6177   27.1067 C   0  0  0  0  0  0  0  0  0  0  0  0
    8.9295  -16.1342   26.1031 C   0  0  2  0  0  0  0  0  0  0  0  0
    8.1765  -16.3159   24.8504 N   0  0  0  0  0  0  0  0  0  0  0  0
    9.4890  -17.4416   26.4844 C   0  0  0  0  0  0  0  0  0  0  0  0
   10.3896  -17.5346   27.5197 O   0  0  0  0  0  0  0  0  0  0  0  0
    6.1974  -13.9399   26.4526 C   0  0  0  0  0  0  0  0  0  0  0  0
    5.7735  -12.6435   26.2161 C   0  0  0  0  0  0  0  0  0  0  0  0
    9.1839  -18.5187   25.9015 O   0  0  0  0  0  0  0  0  0  0  0  0
  2  1  1  1
  3  2  1  0
  4  2  1  0
  4  6  1  0
  4  5  1  6
  6  7  2  0
  8  6  1  0
  8  9  1  0
  9 10  1  6
 11 10  1  0
 12  9  1  0
 12 21  1  0
 13 12  2  0
 15 14  1  0
 16 15  2  0
 17 16  1  0
 18 24  1  0
 18 17  2  0
 19 18  1  0
 20 22  1  0
 20 21  1  0
 20 19  1  1
 22 23  1  0
 24 25  2  0
 25 15  1  0
 26 22  2  0
M  END
$$$$
