TCY.pdb
     RDKit          3D

 26 26  0  0  1  0  0  0  0  0999 V2000
    5.6758  -18.3654   19.8105 C   0  0  0  0  0  0  0  0  0  0  0  0
    4.1861  -18.2804   20.1026 C   0  0  1  0  0  0  0  0  0  0  0  0
    3.5311  -18.9292   19.0578 O   0  0  0  0  0  0  0  0  0  0  0  0
    3.8920  -19.0448   21.3742 C   0  0  2  0  0  0  0  0  0  0  0  0
    2.4650  -18.9993   21.5870 N   0  0  0  0  0  0  0  0  0  0  0  0
    4.5592  -18.4171   22.5432 C   0  0  0  0  0  0  0  0  0  0  0  0
    4.1261  -17.3118   23.0142 O   0  0  0  0  0  0  0  0  0  0  0  0
    5.6837  -18.9893   23.1882 N   0  0  0  0  0  0  0  0  0  0  0  0
    6.3869  -18.2897   24.2937 C   0  0  1  0  0  0  0  0  0  0  0  0
    6.6882  -19.3494   25.3214 C   0  0  0  0  0  0  0  0  0  0  0  0
    7.7454  -18.7840   26.6454 S   0  0  0  0  0  0  0  0  0  0  0  0
    7.6274  -17.6983   23.7945 C   0  0  0  0  0  0  0  0  0  0  0  0
    8.3461  -18.3235   22.9644 O   0  0  0  0  0  0  0  0  0  0  0  0
    6.9527  -13.4967   18.2914 O   0  0  0  0  0  0  0  0  0  0  0  0
    7.4370  -13.7260   19.5730 C   0  0  0  0  0  0  0  0  0  0  0  0
    6.6217  -13.8473   20.6748 C   0  0  0  0  0  0  0  0  0  0  0  0
    7.1706  -14.0761   21.9273 C   0  0  0  0  0  0  0  0  0  0  0  0
    8.5382  -14.1904   22.1204 C   0  0  0  0  0  0  0  0  0  0  0  0
    9.0986  -14.4316   23.4551 C   0  0  0  0  0  0  0  0  0  0  0  0
    9.3622  -15.8818   23.7623 C   0  0  2  0  0  0  0  0  0  0  0  0
    8.0700  -16.4386   24.1977 N   0  0  0  0  0  0  0  0  0  0  0  0
   10.3223  -16.0601   24.8642 C   0  0  0  0  0  0  0  0  0  0  0  0
   11.6619  -15.8244   24.6609 O   0  0  0  0  0  0  0  0  0  0  0  0
    9.3256  -14.0631   20.9918 C   0  0  0  0  0  0  0  0  0  0  0  0
    8.7973  -13.8346   19.7327 C   0  0  0  0  0  0  0  0  0  0  0  0
    9.9819  -16.4279   26.0226 O   0  0  0  0  0  0  0  0  0  0  0  0
  2  1  1  6
  3  2  1  0
  4  2  1  0
  4  6  1  0
  4  5  1  1
  6  7  2  0
  8  6  1  0
  8  9  1  0
  9 10  1  1
 11 10  1  0
 12  9  1  0
 12 21  1  0
 13 12  2  0
 15 14  1  0
 16 15  2  0
 17 16  1  0
 18 24  1  0
 18 17  2  0
 19 18  1  0
 20 22  1  0
 20 21  1  0
 20 19  1  1
 22 23  1  0
 24 25  2  0
 25 15  1  0
 26 22  2  0
M  END
$$$$
