TCY.pdb
     RDKit          3D

 26 26  0  0  1  0  0  0  0  0999 V2000
    8.2049  -16.4973   19.3893 C   0  0  0  0  0  0  0  0  0  0  0  0
    8.4470  -15.1450   18.7379 C   0  0  1  0  0  0  0  0  0  0  0  0
    8.1010  -15.2752   17.3944 O   0  0  0  0  0  0  0  0  0  0  0  0
    7.5126  -14.1291   19.3565 C   0  0  2  0  0  0  0  0  0  0  0  0
    7.5831  -12.9309   18.5547 N   0  0  0  0  0  0  0  0  0  0  0  0
    7.9300  -13.7904   20.7410 C   0  0  0  0  0  0  0  0  0  0  0  0
    8.9816  -13.0946   20.9438 O   0  0  0  0  0  0  0  0  0  0  0  0
    7.2084  -14.2063   21.8873 N   0  0  0  0  0  0  0  0  0  0  0  0
    7.6944  -13.9169   23.2608 C   0  0  1  0  0  0  0  0  0  0  0  0
    6.4690  -13.9224   24.1372 C   0  0  0  0  0  0  0  0  0  0  0  0
    6.8365  -13.8564   25.8839 S   0  0  0  0  0  0  0  0  0  0  0  0
    8.6274  -14.9596   23.6849 C   0  0  0  0  0  0  0  0  0  0  0  0
    8.3913  -16.1738   23.4268 O   0  0  0  0  0  0  0  0  0  0  0  0
   10.0567  -16.4447   31.2647 O   0  0  0  0  0  0  0  0  0  0  0  0
   10.4244  -16.1521   29.9574 C   0  0  0  0  0  0  0  0  0  0  0  0
   10.8257  -17.1114   29.0562 C   0  0  0  0  0  0  0  0  0  0  0  0
   11.1798  -16.7512   27.7650 C   0  0  0  0  0  0  0  0  0  0  0  0
   11.1455  -15.4345   27.3339 C   0  0  0  0  0  0  0  0  0  0  0  0
   11.5255  -15.0747   25.9629 C   0  0  0  0  0  0  0  0  0  0  0  0
   10.6883  -15.7303   24.8969 C   0  0  2  0  0  0  0  0  0  0  0  0
    9.8032  -14.6734   24.3784 N   0  0  0  0  0  0  0  0  0  0  0  0
    9.8375  -16.8072   25.4300 C   0  0  0  0  0  0  0  0  0  0  0  0
   10.2987  -18.1025   25.4635 O   0  0  0  0  0  0  0  0  0  0  0  0
   10.7377  -14.4988   28.2657 C   0  0  0  0  0  0  0  0  0  0  0  0
   10.3802  -14.8378   29.5594 C   0  0  0  0  0  0  0  0  0  0  0  0
    8.6722  -16.6099   25.8732 O   0  0  0  0  0  0  0  0  0  0  0  0
  2  1  1  1
  3  2  1  0
  4  2  1  0
  4  6  1  0
  4  5  1  6
  6  7  2  0
  8  6  1  0
  8  9  1  0
  9 10  1  1
 11 10  1  0
 12  9  1  0
 12 21  1  0
 13 12  2  0
 15 14  1  0
 16 15  2  0
 17 16  1  0
 18 24  1  0
 18 17  2  0
 19 18  1  0
 20 22  1  0
 20 21  1  0
 20 19  1  1
 22 23  1  0
 24 25  2  0
 25 15  1  0
 26 22  2  0
M  END
$$$$
