TCY.pdb
     RDKit          3D

 26 26  0  0  1  0  0  0  0  0999 V2000
    8.8025  -12.5709   20.3138 C   0  0  0  0  0  0  0  0  0  0  0  0
    8.2564  -13.0888   18.9926 C   0  0  1  0  0  0  0  0  0  0  0  0
    8.8695  -12.3490   17.9835 O   0  0  0  0  0  0  0  0  0  0  0  0
    8.6743  -14.5325   18.8224 C   0  0  2  0  0  0  0  0  0  0  0  0
    8.1390  -14.9929   17.5633 N   0  0  0  0  0  0  0  0  0  0  0  0
    8.1183  -15.3827   19.9056 C   0  0  0  0  0  0  0  0  0  0  0  0
    7.1130  -16.1372   19.6794 O   0  0  0  0  0  0  0  0  0  0  0  0
    8.6533  -15.4080   21.2174 N   0  0  0  0  0  0  0  0  0  0  0  0
    8.3349  -16.5045   22.1674 C   0  0  1  0  0  0  0  0  0  0  0  0
    8.8034  -17.7716   21.5004 C   0  0  0  0  0  0  0  0  0  0  0  0
    8.6118  -19.2290   22.5151 S   0  0  0  0  0  0  0  0  0  0  0  0
    9.0541  -16.2951   23.4231 C   0  0  0  0  0  0  0  0  0  0  0  0
   10.2994  -16.0816   23.4198 O   0  0  0  0  0  0  0  0  0  0  0  0
    5.8336  -10.5894   26.2436 O   0  0  0  0  0  0  0  0  0  0  0  0
    6.3464  -11.8699   26.4075 C   0  0  0  0  0  0  0  0  0  0  0  0
    5.5783  -13.0069   26.3039 C   0  0  0  0  0  0  0  0  0  0  0  0
    6.1536  -14.2561   26.4791 C   0  0  0  0  0  0  0  0  0  0  0  0
    7.5017  -14.4112   26.7609 C   0  0  0  0  0  0  0  0  0  0  0  0
    8.0904  -15.7429   26.9439 C   0  0  0  0  0  0  0  0  0  0  0  0
    9.1409  -16.0997   25.9259 C   0  0  2  0  0  0  0  0  0  0  0  0
    8.4152  -16.3162   24.6627 N   0  0  0  0  0  0  0  0  0  0  0  0
    9.8475  -17.3482   26.2576 C   0  0  0  0  0  0  0  0  0  0  0  0
   10.7789  -17.3695   27.2693 O   0  0  0  0  0  0  0  0  0  0  0  0
    8.2416  -13.2480   26.8576 C   0  0  0  0  0  0  0  0  0  0  0  0
    7.6863  -11.9915   26.6861 C   0  0  0  0  0  0  0  0  0  0  0  0
    9.6454  -18.4367   25.6516 O   0  0  0  0  0  0  0  0  0  0  0  0
  2  1  1  1
  3  2  1  0
  4  2  1  0
  4  6  1  0
  4  5  1  6
  6  7  2  0
  8  6  1  0
  8  9  1  0
  9 10  1  6
 11 10  1  0
 12  9  1  0
 12 21  1  0
 13 12  2  0
 15 14  1  0
 16 15  2  0
 17 16  1  0
 18 24  1  0
 18 17  2  0
 19 18  1  0
 20 22  1  0
 20 21  1  0
 20 19  1  1
 22 23  1  0
 24 25  2  0
 25 15  1  0
 26 22  2  0
M  END
$$$$
