TCY.pdb
     RDKit          3D

 26 26  0  0  1  0  0  0  0  0999 V2000
   10.4805  -15.5448   18.8585 C   0  0  0  0  0  0  0  0  0  0  0  0
    9.8693  -14.2861   18.2635 C   0  0  1  0  0  0  0  0  0  0  0  0
   10.0577  -14.3575   16.8848 O   0  0  0  0  0  0  0  0  0  0  0  0
    8.3795  -14.2946   18.5246 C   0  0  2  0  0  0  0  0  0  0  0  0
    7.8336  -13.0839   17.9591 N   0  0  0  0  0  0  0  0  0  0  0  0
    8.0908  -14.3017   19.9814 C   0  0  0  0  0  0  0  0  0  0  0  0
    8.3058  -13.2577   20.6849 O   0  0  0  0  0  0  0  0  0  0  0  0
    7.5745  -15.4336   20.6596 N   0  0  0  0  0  0  0  0  0  0  0  0
    7.2800  -15.4021   22.1151 C   0  0  1  0  0  0  0  0  0  0  0  0
    6.3601  -16.5675   22.3710 C   0  0  0  0  0  0  0  0  0  0  0  0
    6.1329  -16.9344   24.1042 S   0  0  0  0  0  0  0  0  0  0  0  0
    8.5202  -15.5573   22.8738 C   0  0  0  0  0  0  0  0  0  0  0  0
    9.2620  -16.5634   22.6895 O   0  0  0  0  0  0  0  0  0  0  0  0
   11.1938  -15.8772   31.2093 O   0  0  0  0  0  0  0  0  0  0  0  0
   10.6681  -15.5058   29.9782 C   0  0  0  0  0  0  0  0  0  0  0  0
   11.0610  -14.3728   29.3034 C   0  0  0  0  0  0  0  0  0  0  0  0
   10.4955  -14.0598   28.0767 C   0  0  0  0  0  0  0  0  0  0  0  0
    9.5284  -14.8591   27.4882 C   0  0  0  0  0  0  0  0  0  0  0  0
    8.9419  -14.5088   26.1894 C   0  0  0  0  0  0  0  0  0  0  0  0
    9.7298  -14.9975   25.0030 C   0  0  2  0  0  0  0  0  0  0  0  0
    8.9411  -14.6206   23.8176 N   0  0  0  0  0  0  0  0  0  0  0  0
    9.8846  -16.4617   24.9926 C   0  0  0  0  0  0  0  0  0  0  0  0
    8.7941  -17.2724   24.7807 O   0  0  0  0  0  0  0  0  0  0  0  0
    9.1587  -15.9881   28.1943 C   0  0  0  0  0  0  0  0  0  0  0  0
    9.7110  -16.3183   29.4200 C   0  0  0  0  0  0  0  0  0  0  0  0
   10.9926  -17.0391   25.1718 O   0  0  0  0  0  0  0  0  0  0  0  0
  2  1  1  1
  3  2  1  0
  4  2  1  0
  4  6  1  0
  4  5  1  1
  6  7  2  0
  8  6  1  0
  8  9  1  0
  9 10  1  6
 11 10  1  0
 12  9  1  0
 12 21  1  0
 13 12  2  0
 15 14  1  0
 16 15  2  0
 17 16  1  0
 18 24  1  0
 18 17  2  0
 19 18  1  0
 20 22  1  0
 20 21  1  0
 20 19  1  1
 22 23  1  0
 24 25  2  0
 25 15  1  0
 26 22  2  0
M  END
$$$$
