TCY.pdb
     RDKit          3D

 26 26  0  0  1  0  0  0  0  0999 V2000
    8.9921  -19.5468   20.3573 C   0  0  0  0  0  0  0  0  0  0  0  0
   10.1508  -19.2159   19.4301 C   0  0  1  0  0  0  0  0  0  0  0  0
   10.2146  -20.2354   18.4824 O   0  0  0  0  0  0  0  0  0  0  0  0
    9.8408  -17.9283   18.6994 C   0  0  2  0  0  0  0  0  0  0  0  0
   10.9309  -17.6741   17.7880 N   0  0  0  0  0  0  0  0  0  0  0  0
    9.7450  -16.7860   19.6437 C   0  0  0  0  0  0  0  0  0  0  0  0
   10.8045  -16.2351   20.0966 O   0  0  0  0  0  0  0  0  0  0  0  0
    8.5089  -16.2535   20.0866 N   0  0  0  0  0  0  0  0  0  0  0  0
    8.4469  -15.1560   21.0855 C   0  0  1  0  0  0  0  0  0  0  0  0
    7.1042  -14.5012   20.8903 C   0  0  0  0  0  0  0  0  0  0  0  0
    5.7251  -15.5500   21.3246 S   0  0  0  0  0  0  0  0  0  0  0  0
    8.5513  -15.7093   22.4349 C   0  0  0  0  0  0  0  0  0  0  0  0
    8.2208  -16.9073   22.6630 O   0  0  0  0  0  0  0  0  0  0  0  0
   10.6376  -16.0774   31.0957 O   0  0  0  0  0  0  0  0  0  0  0  0
   10.4874  -15.7562   29.7526 C   0  0  0  0  0  0  0  0  0  0  0  0
   10.8002  -16.6245   28.7319 C   0  0  0  0  0  0  0  0  0  0  0  0
   10.6263  -16.2405   27.4111 C   0  0  0  0  0  0  0  0  0  0  0  0
   10.1391  -14.9893   27.0678 C   0  0  0  0  0  0  0  0  0  0  0  0
    9.9637  -14.6025   25.6631 C   0  0  0  0  0  0  0  0  0  0  0  0
    9.0148  -15.4823   24.8933 C   0  0  2  0  0  0  0  0  0  0  0  0
    9.0146  -14.9600   23.5162 N   0  0  0  0  0  0  0  0  0  0  0  0
    7.6354  -15.4065   25.4027 C   0  0  0  0  0  0  0  0  0  0  0  0
    7.1837  -16.3270   26.3193 O   0  0  0  0  0  0  0  0  0  0  0  0
    9.8358  -14.1442   28.1185 C   0  0  0  0  0  0  0  0  0  0  0  0
   10.0022  -14.5085   29.4436 C   0  0  0  0  0  0  0  0  0  0  0  0
    6.8138  -14.5201   25.0388 O   0  0  0  0  0  0  0  0  0  0  0  0
  2  1  1  1
  3  2  1  0
  4  2  1  0
  4  6  1  0
  4  5  1  6
  6  7  2  0
  8  6  1  0
  8  9  1  0
  9 10  1  1
 11 10  1  0
 12  9  1  0
 12 21  1  0
 13 12  2  0
 15 14  1  0
 16 15  2  0
 17 16  1  0
 18 24  1  0
 18 17  2  0
 19 18  1  0
 20 22  1  0
 20 21  1  0
 20 19  1  1
 22 23  1  0
 24 25  2  0
 25 15  1  0
 26 22  2  0
M  END
$$$$
