PFV.pdb
     RDKit          3D

 26 27  0  0  1  0  0  0  0  0999 V2000
    9.6432  -16.9083   19.4231 N   0  0  0  0  0  0  0  0  0  0  0  0
   10.4901  -17.5059   18.3985 C   0  0  0  0  0  0  0  0  0  0  0  0
   11.7852  -17.8917   19.0195 C   0  0  0  0  0  0  0  0  0  0  0  0
   11.7111  -17.3515   20.4171 C   0  0  0  0  0  0  0  0  0  0  0  0
   10.2286  -17.2557   20.6757 C   0  0  1  0  0  0  0  0  0  0  0  0
    9.9489  -16.3392   21.7924 C   0  0  0  0  0  0  0  0  0  0  0  0
   10.6099  -15.2512   21.9403 O   0  0  0  0  0  0  0  0  0  0  0  0
    8.9572  -16.5567   22.7831 N   0  0  0  0  0  0  0  0  0  0  0  0
    8.7078  -15.5994   23.8523 C   0  0  1  0  0  0  0  0  0  0  0  0
    7.2837  -15.1358   23.8469 C   0  0  0  0  0  0  0  0  0  0  0  0
    7.0342  -14.0531   24.8174 C   0  0  0  0  0  0  0  0  0  0  0  0
    6.2564  -14.3632   25.9339 C   0  0  0  0  0  0  0  0  0  0  0  0
    5.9866  -13.4278   26.8995 C   0  0  0  0  0  0  0  0  0  0  0  0
    6.5107  -12.1652   26.7314 C   0  0  0  0  0  0  0  0  0  0  0  0
    7.2872  -11.8350   25.6282 C   0  0  0  0  0  0  0  0  0  0  0  0
    7.5465  -12.7802   24.6747 C   0  0  0  0  0  0  0  0  0  0  0  0
    9.1351  -16.1108   25.1588 C   0  0  0  0  0  0  0  0  0  0  0  0
    9.0300  -17.3321   25.4018 O   0  0  0  0  0  0  0  0  0  0  0  0
   11.6170  -13.6650   27.5738 C   0  0  0  0  0  0  0  0  0  0  0  0
   10.7620  -14.6823   28.2733 C   0  0  1  0  0  0  0  0  0  0  0  0
    9.5679  -14.0775   28.9467 C   0  0  0  0  0  0  0  0  0  0  0  0
   10.3088  -15.7974   27.3338 C   0  0  2  0  0  0  0  0  0  0  0  0
    9.6657  -15.2647   26.1612 N   0  0  0  0  0  0  0  0  0  0  0  0
    9.4476  -16.7790   28.0284 C   0  0  0  0  0  0  0  0  0  0  0  0
    9.8885  -17.6081   29.0447 O   0  0  0  0  0  0  0  0  0  0  0  0
    8.2405  -16.8792   27.6878 O   0  0  0  0  0  0  0  0  0  0  0  0
  1  2  1  0
  3  2  1  0
  4  5  1  0
  4  3  1  0
  5  6  1  1
  5  1  1  0
  6  7  2  0
  8  9  1  0
  8  6  1  0
 10 11  1  0
  9 10  1  1
 11 12  2  0
 12 13  1  0
 14 13  2  0
 15 14  1  0
 16 15  2  0
 16 11  1  0
 17  9  1  0
 17 18  2  0
 20 19  1  6
 20 22  1  0
 21 20  1  0
 22 23  1  6
 22 24  1  0
 23 17  1  0
 24 26  2  0
 24 25  1  0
M  END
$$$$
