PFV.pdb
     RDKit          3D

 26 27  0  0  1  0  0  0  0  0999 V2000
    9.0461  -17.8481   20.2907 N   0  0  0  0  0  0  0  0  0  0  0  0
    8.9464  -17.9769   18.8424 C   0  0  0  0  0  0  0  0  0  0  0  0
    9.5385  -16.7647   18.2167 C   0  0  0  0  0  0  0  0  0  0  0  0
    9.8480  -15.8559   19.3695 C   0  0  0  0  0  0  0  0  0  0  0  0
    9.9862  -16.8043   20.5337 C   0  0  1  0  0  0  0  0  0  0  0  0
    9.8387  -16.0908   21.8120 C   0  0  0  0  0  0  0  0  0  0  0  0
   10.7441  -15.2870   22.2326 O   0  0  0  0  0  0  0  0  0  0  0  0
    8.7222  -16.2141   22.6784 N   0  0  0  0  0  0  0  0  0  0  0  0
    8.5542  -15.3657   23.8506 C   0  0  1  0  0  0  0  0  0  0  0  0
    7.1677  -14.8041   23.9223 C   0  0  0  0  0  0  0  0  0  0  0  0
    7.0006  -13.8405   25.0267 C   0  0  0  0  0  0  0  0  0  0  0  0
    7.4015  -12.5245   24.7919 C   0  0  0  0  0  0  0  0  0  0  0  0
    7.2675  -11.5542   25.7514 C   0  0  0  0  0  0  0  0  0  0  0  0
    6.7213  -11.9219   26.9613 C   0  0  0  0  0  0  0  0  0  0  0  0
    6.3157  -13.2256   27.2162 C   0  0  0  0  0  0  0  0  0  0  0  0
    6.4566  -14.1808   26.2479 C   0  0  0  0  0  0  0  0  0  0  0  0
    8.9567  -16.0478   25.0850 C   0  0  0  0  0  0  0  0  0  0  0  0
    8.7879  -17.2820   25.1849 O   0  0  0  0  0  0  0  0  0  0  0  0
   12.0471  -14.2474   27.2369 C   0  0  0  0  0  0  0  0  0  0  0  0
   11.0808  -15.0591   28.0511 C   0  0  1  0  0  0  0  0  0  0  0  0
   10.1372  -14.2135   28.8509 C   0  0  0  0  0  0  0  0  0  0  0  0
   10.2858  -16.0397   27.1922 C   0  0  2  0  0  0  0  0  0  0  0  0
    9.5333  -15.3533   26.1748 N   0  0  0  0  0  0  0  0  0  0  0  0
    9.4189  -16.9084   28.0175 C   0  0  0  0  0  0  0  0  0  0  0  0
    8.0467  -16.9979   27.8633 O   0  0  0  0  0  0  0  0  0  0  0  0
    9.9433  -17.6144   28.9175 O   0  0  0  0  0  0  0  0  0  0  0  0
  1  2  1  0
  3  2  1  0
  4  5  1  0
  4  3  1  0
  5  6  1  1
  5  1  1  0
  6  7  2  0
  8  9  1  0
  8  6  1  0
 10 11  1  0
  9 10  1  1
 11 12  2  0
 12 13  1  0
 14 13  2  0
 15 14  1  0
 16 15  2  0
 16 11  1  0
 17  9  1  0
 17 18  2  0
 20 19  1  6
 20 22  1  0
 21 20  1  0
 22 23  1  6
 22 24  1  0
 23 17  1  0
 24 26  2  0
 24 25  1  0
M  END
$$$$
