PFV.pdb
     RDKit          3D

 26 27  0  0  1  0  0  0  0  0999 V2000
    8.1649  -17.1548   19.7738 N   0  0  0  0  0  0  0  0  0  0  0  0
    7.7351  -17.0175   18.3880 C   0  0  0  0  0  0  0  0  0  0  0  0
    8.0968  -15.6558   17.9120 C   0  0  0  0  0  0  0  0  0  0  0  0
    8.6184  -14.9544   19.1313 C   0  0  0  0  0  0  0  0  0  0  0  0
    9.0775  -16.0865   20.0152 C   0  0  1  0  0  0  0  0  0  0  0  0
    9.1956  -15.6454   21.4139 C   0  0  0  0  0  0  0  0  0  0  0  0
   10.3295  -15.3185   21.9139 O   0  0  0  0  0  0  0  0  0  0  0  0
    8.1086  -15.5407   22.3194 N   0  0  0  0  0  0  0  0  0  0  0  0
    8.2450  -14.9047   23.6228 C   0  0  1  0  0  0  0  0  0  0  0  0
    7.0354  -14.0886   23.9598 C   0  0  0  0  0  0  0  0  0  0  0  0
    7.1682  -13.3790   25.2463 C   0  0  0  0  0  0  0  0  0  0  0  0
    6.5549  -13.9552   26.3596 C   0  0  0  0  0  0  0  0  0  0  0  0
    6.6396  -13.3788   27.6009 C   0  0  0  0  0  0  0  0  0  0  0  0
    7.3535  -12.2063   27.7146 C   0  0  0  0  0  0  0  0  0  0  0  0
    7.9716  -11.6158   26.6200 C   0  0  0  0  0  0  0  0  0  0  0  0
    7.8770  -12.2041   25.3892 C   0  0  0  0  0  0  0  0  0  0  0  0
    8.5911  -15.8697   24.6717 C   0  0  0  0  0  0  0  0  0  0  0  0
    7.8595  -16.8668   24.8511 O   0  0  0  0  0  0  0  0  0  0  0  0
   11.8116  -17.6575   24.7300 C   0  0  0  0  0  0  0  0  0  0  0  0
   11.6118  -17.1478   26.1284 C   0  0  1  0  0  0  0  0  0  0  0  0
   12.5176  -16.0034   26.4677 C   0  0  0  0  0  0  0  0  0  0  0  0
   10.1621  -16.7484   26.3940 C   0  0  2  0  0  0  0  0  0  0  0  0
    9.7319  -15.7107   25.4937 N   0  0  0  0  0  0  0  0  0  0  0  0
    9.9527  -16.3645   27.8069 C   0  0  0  0  0  0  0  0  0  0  0  0
   10.1899  -17.2079   28.8780 O   0  0  0  0  0  0  0  0  0  0  0  0
    9.5345  -15.2070   28.0685 O   0  0  0  0  0  0  0  0  0  0  0  0
  1  2  1  0
  3  2  1  0
  4  5  1  0
  4  3  1  0
  5  6  1  1
  5  1  1  0
  6  7  2  0
  8  9  1  0
  8  6  1  0
 10 11  1  0
  9 10  1  1
 11 12  2  0
 12 13  1  0
 14 13  2  0
 15 14  1  0
 16 15  2  0
 16 11  1  0
 17  9  1  0
 17 18  2  0
 20 19  1  6
 20 22  1  0
 21 20  1  0
 22 23  1  6
 22 24  1  0
 23 17  1  0
 24 26  2  0
 24 25  1  0
M  END
$$$$
