PFV.pdb
     RDKit          3D

 26 27  0  0  1  0  0  0  0  0999 V2000
    7.0668  -14.9068   20.3655 N   0  0  0  0  0  0  0  0  0  0  0  0
    6.6017  -14.0035   19.3206 C   0  0  0  0  0  0  0  0  0  0  0  0
    7.4353  -12.7724   19.3523 C   0  0  0  0  0  0  0  0  0  0  0  0
    8.3065  -12.9358   20.5627 C   0  0  0  0  0  0  0  0  0  0  0  0
    8.3507  -14.4299   20.7613 C   0  0  1  0  0  0  0  0  0  0  0  0
    8.7664  -14.7648   22.1324 C   0  0  0  0  0  0  0  0  0  0  0  0
    9.9698  -14.5704   22.5280 O   0  0  0  0  0  0  0  0  0  0  0  0
    7.9112  -15.3168   23.1206 N   0  0  0  0  0  0  0  0  0  0  0  0
    8.3447  -15.5142   24.4972 C   0  0  1  0  0  0  0  0  0  0  0  0
    7.2452  -15.2013   25.4646 C   0  0  0  0  0  0  0  0  0  0  0  0
    7.1745  -13.7667   25.8011 C   0  0  0  0  0  0  0  0  0  0  0  0
    5.9509  -13.1246   25.6059 C   0  0  0  0  0  0  0  0  0  0  0  0
    5.7835  -11.7976   25.9079 C   0  0  0  0  0  0  0  0  0  0  0  0
    6.8677  -11.1147   26.4130 C   0  0  0  0  0  0  0  0  0  0  0  0
    8.0944  -11.7339   26.6152 C   0  0  0  0  0  0  0  0  0  0  0  0
    8.2438  -13.0581   26.3086 C   0  0  0  0  0  0  0  0  0  0  0  0
    8.9245  -16.8452   24.7054 C   0  0  0  0  0  0  0  0  0  0  0  0
    8.2188  -17.8575   24.5082 O   0  0  0  0  0  0  0  0  0  0  0  0
   12.1641  -18.1453   23.1542 C   0  0  0  0  0  0  0  0  0  0  0  0
   12.2145  -18.4224   24.6293 C   0  0  1  0  0  0  0  0  0  0  0  0
   13.1684  -17.5265   25.3593 C   0  0  0  0  0  0  0  0  0  0  0  0
   10.8351  -18.3377   25.2786 C   0  0  2  0  0  0  0  0  0  0  0  0
   10.2639  -17.0252   25.1247 N   0  0  0  0  0  0  0  0  0  0  0  0
   10.8746  -18.7512   26.6981 C   0  0  0  0  0  0  0  0  0  0  0  0
   11.2755  -20.0049   27.1249 O   0  0  0  0  0  0  0  0  0  0  0  0
   10.5265  -17.9270   27.5829 O   0  0  0  0  0  0  0  0  0  0  0  0
  1  2  1  0
  3  2  1  0
  4  5  1  0
  4  3  1  0
  5  6  1  1
  5  1  1  0
  6  7  2  0
  8  9  1  0
  8  6  1  0
 10 11  1  0
  9 10  1  1
 11 12  2  0
 12 13  1  0
 14 13  2  0
 15 14  1  0
 16 15  2  0
 16 11  1  0
 17  9  1  0
 17 18  2  0
 20 19  1  6
 20 22  1  0
 21 20  1  0
 22 23  1  1
 22 24  1  0
 23 17  1  0
 24 26  2  0
 24 25  1  0
M  END
$$$$
