PFV.pdb
     RDKit          3D

 26 27  0  0  1  0  0  0  0  0999 V2000
    7.6371  -17.3508   19.5699 N   0  0  0  0  0  0  0  0  0  0  0  0
    7.3143  -17.3611   18.1487 C   0  0  0  0  0  0  0  0  0  0  0  0
    8.0210  -16.2284   17.4936 C   0  0  0  0  0  0  0  0  0  0  0  0
    8.6468  -15.4672   18.6248 C   0  0  0  0  0  0  0  0  0  0  0  0
    8.7740  -16.5027   19.7136 C   0  0  1  0  0  0  0  0  0  0  0  0
    8.9373  -15.8637   21.0289 C   0  0  0  0  0  0  0  0  0  0  0  0
   10.0273  -15.2702   21.3484 O   0  0  0  0  0  0  0  0  0  0  0  0
    7.9435  -15.8395   22.0409 N   0  0  0  0  0  0  0  0  0  0  0  0
    8.1504  -15.1611   23.3133 C   0  0  1  0  0  0  0  0  0  0  0  0
    6.9098  -14.4511   23.7601 C   0  0  0  0  0  0  0  0  0  0  0  0
    7.0915  -13.7380   25.0387 C   0  0  0  0  0  0  0  0  0  0  0  0
    7.5789  -12.4318   24.9775 C   0  0  0  0  0  0  0  0  0  0  0  0
    7.7626  -11.6832   26.1116 C   0  0  0  0  0  0  0  0  0  0  0  0
    7.4489  -12.2651   27.3200 C   0  0  0  0  0  0  0  0  0  0  0  0
    6.9626  -13.5634   27.4038 C   0  0  0  0  0  0  0  0  0  0  0  0
    6.7854  -14.2957   26.2627 C   0  0  0  0  0  0  0  0  0  0  0  0
    8.6895  -16.0636   24.3361 C   0  0  0  0  0  0  0  0  0  0  0  0
    8.0614  -17.1045   24.6259 O   0  0  0  0  0  0  0  0  0  0  0  0
   12.8552  -17.8337   26.2116 C   0  0  0  0  0  0  0  0  0  0  0  0
   12.0918  -16.8280   25.3983 C   0  0  1  0  0  0  0  0  0  0  0  0
   12.2682  -17.0160   23.9223 C   0  0  0  0  0  0  0  0  0  0  0  0
   10.6034  -16.8226   25.7388 C   0  0  2  0  0  0  0  0  0  0  0  0
    9.9039  -15.7960   25.0113 N   0  0  0  0  0  0  0  0  0  0  0  0
   10.3780  -16.7069   27.1959 C   0  0  0  0  0  0  0  0  0  0  0  0
    9.7024  -15.6557   27.7903 O   0  0  0  0  0  0  0  0  0  0  0  0
   10.8198  -17.6084   27.9545 O   0  0  0  0  0  0  0  0  0  0  0  0
  1  2  1  0
  3  2  1  0
  4  5  1  0
  4  3  1  0
  5  6  1  1
  5  1  1  0
  6  7  2  0
  8  9  1  0
  8  6  1  0
 10 11  1  0
  9 10  1  1
 11 12  2  0
 12 13  1  0
 14 13  2  0
 15 14  1  0
 16 15  2  0
 16 11  1  0
 17  9  1  0
 17 18  2  0
 20 19  1  1
 20 22  1  0
 21 20  1  0
 22 23  1  6
 22 24  1  0
 23 17  1  0
 24 26  2  0
 24 25  1  0
M  END
$$$$
