PFV.pdb
     RDKit          3D

 26 27  0  0  1  0  0  0  0  0999 V2000
    9.4046  -17.8795   20.4007 N   0  0  0  0  0  0  0  0  0  0  0  0
    9.5556  -18.0669   18.9633 C   0  0  0  0  0  0  0  0  0  0  0  0
   10.4226  -16.9817   18.4321 C   0  0  0  0  0  0  0  0  0  0  0  0
   10.6434  -16.0669   19.6004 C   0  0  0  0  0  0  0  0  0  0  0  0
   10.4256  -16.9647   20.7922 C   0  0  1  0  0  0  0  0  0  0  0  0
   10.1506  -16.1735   22.0019 C   0  0  0  0  0  0  0  0  0  0  0  0
   11.0534  -15.4336   22.5312 O   0  0  0  0  0  0  0  0  0  0  0  0
    8.9058  -16.1487   22.6818 N   0  0  0  0  0  0  0  0  0  0  0  0
    8.6499  -15.2460   23.7960 C   0  0  1  0  0  0  0  0  0  0  0  0
    7.2330  -14.7610   23.7896 C   0  0  0  0  0  0  0  0  0  0  0  0
    6.9634  -13.7777   24.8558 C   0  0  0  0  0  0  0  0  0  0  0  0
    6.1743  -14.1980   25.9273 C   0  0  0  0  0  0  0  0  0  0  0  0
    5.8855  -13.3609   26.9743 C   0  0  0  0  0  0  0  0  0  0  0  0
    6.4022  -12.0847   26.9344 C   0  0  0  0  0  0  0  0  0  0  0  0
    7.1897  -11.6457   25.8779 C   0  0  0  0  0  0  0  0  0  0  0  0
    7.4678  -12.4938   24.8419 C   0  0  0  0  0  0  0  0  0  0  0  0
    9.0450  -15.8327   25.0808 C   0  0  0  0  0  0  0  0  0  0  0  0
    9.0517  -17.0757   25.2094 O   0  0  0  0  0  0  0  0  0  0  0  0
   11.1496  -15.0960   29.5519 C   0  0  0  0  0  0  0  0  0  0  0  0
   10.4124  -14.5323   28.3711 C   0  0  1  0  0  0  0  0  0  0  0  0
   11.1477  -13.4090   27.7058 C   0  0  0  0  0  0  0  0  0  0  0  0
   10.0741  -15.6047   27.3381 C   0  0  2  0  0  0  0  0  0  0  0  0
    9.4216  -15.0358   26.1878 N   0  0  0  0  0  0  0  0  0  0  0  0
    9.2758  -16.6997   27.9307 C   0  0  0  0  0  0  0  0  0  0  0  0
    9.8003  -17.6723   28.7636 O   0  0  0  0  0  0  0  0  0  0  0  0
    8.0461  -16.7660   27.6728 O   0  0  0  0  0  0  0  0  0  0  0  0
  1  2  1  0
  3  2  1  0
  4  5  1  0
  4  3  1  0
  5  6  1  1
  5  1  1  0
  6  7  2  0
  8  9  1  0
  8  6  1  0
 10 11  1  0
  9 10  1  1
 11 12  2  0
 12 13  1  0
 14 13  2  0
 15 14  1  0
 16 15  2  0
 16 11  1  0
 17  9  1  0
 17 18  2  0
 20 19  1  1
 20 22  1  0
 21 20  1  0
 22 23  1  6
 22 24  1  0
 23 17  1  0
 24 26  2  0
 24 25  1  0
M  END
$$$$
