PFV.pdb
     RDKit          3D

 26 27  0  0  1  0  0  0  0  0999 V2000
    8.8933  -17.8181   20.1219 N   0  0  0  0  0  0  0  0  0  0  0  0
    8.7287  -18.0196   18.6879 C   0  0  0  0  0  0  0  0  0  0  0  0
    9.2231  -16.8094   17.9791 C   0  0  0  0  0  0  0  0  0  0  0  0
    9.5404  -15.8328   19.0728 C   0  0  0  0  0  0  0  0  0  0  0  0
    9.7871  -16.7172   20.2690 C   0  0  1  0  0  0  0  0  0  0  0  0
    9.6654  -15.9529   21.5205 C   0  0  0  0  0  0  0  0  0  0  0  0
   10.5353  -15.0703   21.8472 O   0  0  0  0  0  0  0  0  0  0  0  0
    8.6133  -16.1082   22.4593 N   0  0  0  0  0  0  0  0  0  0  0  0
    8.4558  -15.2166   23.6004 C   0  0  1  0  0  0  0  0  0  0  0  0
    7.0345  -14.7692   23.7499 C   0  0  0  0  0  0  0  0  0  0  0  0
    6.8650  -13.7574   24.8101 C   0  0  0  0  0  0  0  0  0  0  0  0
    6.2327  -14.1642   25.9857 C   0  0  0  0  0  0  0  0  0  0  0  0
    6.0472  -13.2998   27.0339 C   0  0  0  0  0  0  0  0  0  0  0  0
    6.5076  -12.0098   26.8885 C   0  0  0  0  0  0  0  0  0  0  0  0
    7.1396  -11.5838   25.7274 C   0  0  0  0  0  0  0  0  0  0  0  0
    7.3163  -12.4591   24.6918 C   0  0  0  0  0  0  0  0  0  0  0  0
    9.0023  -15.7974   24.8313 C   0  0  0  0  0  0  0  0  0  0  0  0
    9.0019  -17.0388   24.9747 O   0  0  0  0  0  0  0  0  0  0  0  0
    9.8589  -13.5503   28.3642 C   0  0  0  0  0  0  0  0  0  0  0  0
   10.9097  -14.4809   27.8302 C   0  0  1  0  0  0  0  0  0  0  0  0
   11.7315  -15.1151   28.9108 C   0  0  0  0  0  0  0  0  0  0  0  0
   10.3164  -15.5665   26.9353 C   0  0  2  0  0  0  0  0  0  0  0  0
    9.5338  -14.9965   25.8698 N   0  0  0  0  0  0  0  0  0  0  0  0
    9.5369  -16.5511   27.7165 C   0  0  0  0  0  0  0  0  0  0  0  0
   10.1070  -17.5569   28.4769 O   0  0  0  0  0  0  0  0  0  0  0  0
    8.2805  -16.4850   27.7002 O   0  0  0  0  0  0  0  0  0  0  0  0
  1  2  1  0
  3  2  1  0
  4  5  1  0
  4  3  1  0
  5  6  1  1
  5  1  1  0
  6  7  2  0
  8  9  1  0
  8  6  1  0
 10 11  1  0
  9 10  1  1
 11 12  2  0
 12 13  1  0
 14 13  2  0
 15 14  1  0
 16 15  2  0
 16 11  1  0
 17  9  1  0
 17 18  2  0
 20 19  1  1
 20 22  1  0
 21 20  1  0
 22 23  1  6
 22 24  1  0
 23 17  1  0
 24 26  2  0
 24 25  1  0
M  END
$$$$
