PFV.pdb
     RDKit          3D

 26 27  0  0  1  0  0  0  0  0999 V2000
    7.5196  -15.2780   19.1597 N   0  0  0  0  0  0  0  0  0  0  0  0
    7.1446  -14.6979   17.8764 C   0  0  0  0  0  0  0  0  0  0  0  0
    7.7893  -13.3634   17.7527 C   0  0  0  0  0  0  0  0  0  0  0  0
    8.4318  -13.1278   19.0877 C   0  0  0  0  0  0  0  0  0  0  0  0
    8.6330  -14.5210   19.6286 C   0  0  1  0  0  0  0  0  0  0  0  0
    8.8243  -14.4949   21.0873 C   0  0  0  0  0  0  0  0  0  0  0  0
    9.9603  -14.2018   21.6032 O   0  0  0  0  0  0  0  0  0  0  0  0
    7.8103  -14.7809   22.0373 N   0  0  0  0  0  0  0  0  0  0  0  0
    7.9884  -14.5259   23.4603 C   0  0  1  0  0  0  0  0  0  0  0  0
    6.7252  -14.0188   24.0850 C   0  0  0  0  0  0  0  0  0  0  0  0
    6.9246  -13.5453   25.4678 C   0  0  0  0  0  0  0  0  0  0  0  0
    7.3646  -12.2316   25.6356 C   0  0  0  0  0  0  0  0  0  0  0  0
    7.5600  -11.6967   26.8830 C   0  0  0  0  0  0  0  0  0  0  0  0
    7.3066  -12.5020   27.9713 C   0  0  0  0  0  0  0  0  0  0  0  0
    6.8682  -13.8120   27.8273 C   0  0  0  0  0  0  0  0  0  0  0  0
    6.6786  -14.3294   26.5758 C   0  0  0  0  0  0  0  0  0  0  0  0
    8.5437  -15.6881   24.1618 C   0  0  0  0  0  0  0  0  0  0  0  0
    7.9483  -16.7849   24.0950 O   0  0  0  0  0  0  0  0  0  0  0  0
   12.4874  -17.9694   26.0046 C   0  0  0  0  0  0  0  0  0  0  0  0
   11.8413  -16.8035   25.3127 C   0  0  1  0  0  0  0  0  0  0  0  0
   12.1533  -16.7478   23.8482 C   0  0  0  0  0  0  0  0  0  0  0  0
   10.3279  -16.7809   25.5142 C   0  0  2  0  0  0  0  0  0  0  0  0
    9.7379  -15.6114   24.9169 N   0  0  0  0  0  0  0  0  0  0  0  0
    9.9664  -16.9035   26.9431 C   0  0  0  0  0  0  0  0  0  0  0  0
    9.8023  -18.1127   27.5956 O   0  0  0  0  0  0  0  0  0  0  0  0
    9.7942  -15.8570   27.6202 O   0  0  0  0  0  0  0  0  0  0  0  0
  1  2  1  0
  3  2  1  0
  4  5  1  0
  4  3  1  0
  5  6  1  1
  5  1  1  0
  6  7  2  0
  8  9  1  0
  8  6  1  0
 10 11  1  0
  9 10  1  1
 11 12  2  0
 12 13  1  0
 14 13  2  0
 15 14  1  0
 16 15  2  0
 16 11  1  0
 17  9  1  0
 17 18  2  0
 20 19  1  6
 20 22  1  0
 21 20  1  0
 22 23  1  1
 22 24  1  0
 23 17  1  0
 24 26  2  0
 24 25  1  0
M  END
$$$$
