NSL.pdb
     RDKit          3D

 23 22  0  0  1  0  0  0  0  0999 V2000
    7.6912  -15.0759   15.7763 N   0  0  0  0  0  0  0  0  0  0  0  0
    8.0719  -14.1887   16.8150 C   0  0  0  0  0  0  0  0  0  0  0  0
    8.8327  -13.2014   16.6067 O   0  0  0  0  0  0  0  0  0  0  0  0
    7.5921  -14.3812   18.1830 C   0  0  0  0  0  0  0  0  0  0  0  0
    8.6451  -14.3428   19.2570 C   0  0  2  0  0  0  0  0  0  0  0  0
    9.6606  -15.3183   18.8459 N   0  0  0  0  0  0  0  0  0  0  0  0
    8.0241  -14.7851   20.5347 C   0  0  0  0  0  0  0  0  0  0  0  0
    7.0411  -14.1842   21.0085 O   0  0  0  0  0  0  0  0  0  0  0  0
    9.4289  -18.0946   22.6969 O   0  0  0  0  0  0  0  0  0  0  0  0
    8.0946  -17.7589   22.7129 C   0  0  0  0  0  0  0  0  0  0  0  0
    7.8946  -16.2650   22.5224 C   0  0  2  0  0  0  0  0  0  0  0  0
    8.5030  -15.8950   21.2774 N   0  0  0  0  0  0  0  0  0  0  0  0
    8.4802  -15.5554   23.6837 C   0  0  0  0  0  0  0  0  0  0  0  0
    9.6639  -15.1530   23.5814 O   0  0  0  0  0  0  0  0  0  0  0  0
    5.6929  -11.9001   26.6239 C   0  0  0  0  0  0  0  0  0  0  0  0
    6.8243  -12.6125   25.9440 C   0  0  1  0  0  0  0  0  0  0  0  0
    7.8445  -11.5309   25.5805 C   0  0  0  0  0  0  0  0  0  0  0  0
    7.4257  -13.7499   26.6383 C   0  0  0  0  0  0  0  0  0  0  0  0
    8.4654  -14.5965   26.0312 C   0  0  2  0  0  0  0  0  0  0  0  0
    7.7893  -15.3091   24.8889 N   0  0  0  0  0  0  0  0  0  0  0  0
    9.0097  -15.6678   26.8628 C   0  0  0  0  0  0  0  0  0  0  0  0
    9.7672  -15.4044   27.8594 O   0  0  0  0  0  0  0  0  0  0  0  0
    8.7616  -17.0091   26.6658 O   0  0  0  0  0  0  0  0  0  0  0  0
  1  2  1  0
  2  3  2  0
  4  5  1  0
  4  2  1  0
  5  6  1  6
  7 12  1  0
  7  5  1  0
  8  7  2  0
 11 10  1  1
 10  9  1  0
 11 13  1  0
 11 12  1  0
 13 20  1  0
 14 13  2  0
 16 17  1  1
 16 15  1  0
 18 16  1  0
 19 21  1  0
 19 18  1  1
 20 19  1  0
 21 23  1  0
 22 21  2  0
M  END
$$$$
