NSL.pdb
     RDKit          3D

 23 22  0  0  1  0  0  0  0  0999 V2000
    8.8023  -12.8927   16.0441 N   0  0  0  0  0  0  0  0  0  0  0  0
    8.0072  -14.0544   16.2150 C   0  0  0  0  0  0  0  0  0  0  0  0
    7.6477  -14.7693   15.2369 O   0  0  0  0  0  0  0  0  0  0  0  0
    7.5689  -14.4778   17.5444 C   0  0  0  0  0  0  0  0  0  0  0  0
    8.5905  -14.3497   18.6416 C   0  0  2  0  0  0  0  0  0  0  0  0
    9.7000  -15.2253   18.2489 N   0  0  0  0  0  0  0  0  0  0  0  0
    7.9853  -14.8551   19.9033 C   0  0  0  0  0  0  0  0  0  0  0  0
    7.0450  -14.2468   20.4490 O   0  0  0  0  0  0  0  0  0  0  0  0
    9.7262  -17.9377   22.1731 O   0  0  0  0  0  0  0  0  0  0  0  0
    8.3551  -17.8423   22.1101 C   0  0  0  0  0  0  0  0  0  0  0  0
    7.9090  -16.4172   21.8300 C   0  0  2  0  0  0  0  0  0  0  0  0
    8.4322  -16.0362   20.5501 N   0  0  0  0  0  0  0  0  0  0  0  0
    8.3842  -15.5458   22.9299 C   0  0  0  0  0  0  0  0  0  0  0  0
    9.4907  -14.9740   22.7805 O   0  0  0  0  0  0  0  0  0  0  0  0
    8.1538  -11.3279   26.3430 C   0  0  0  0  0  0  0  0  0  0  0  0
    7.1946  -12.4623   26.5501 C   0  0  1  0  0  0  0  0  0  0  0  0
    5.8438  -11.8178   26.8706 C   0  0  0  0  0  0  0  0  0  0  0  0
    7.1051  -13.4761   25.5005 C   0  0  0  0  0  0  0  0  0  0  0  0
    8.2096  -14.3958   25.1832 C   0  0  2  0  0  0  0  0  0  0  0  0
    7.6704  -15.3245   24.1265 N   0  0  0  0  0  0  0  0  0  0  0  0
    8.6579  -15.2803   26.2567 C   0  0  0  0  0  0  0  0  0  0  0  0
    9.5611  -14.9057   27.0814 O   0  0  0  0  0  0  0  0  0  0  0  0
    8.1639  -16.5477   26.4789 O   0  0  0  0  0  0  0  0  0  0  0  0
  1  2  1  0
  2  3  2  0
  4  5  1  0
  4  2  1  0
  5  6  1  6
  7 12  1  0
  7  5  1  0
  8  7  2  0
 11 10  1  1
 10  9  1  0
 11 13  1  0
 11 12  1  0
 13 20  1  0
 14 13  2  0
 16 17  1  6
 16 15  1  0
 18 16  1  0
 19 21  1  0
 19 18  1  1
 20 19  1  0
 21 23  1  0
 22 21  2  0
M  END
$$$$
