NSL.pdb
     RDKit          3D

 23 22  0  0  1  0  0  0  0  0999 V2000
   14.4178  -17.4046   19.5955 N   0  0  0  0  0  0  0  0  0  0  0  0
   13.1252  -17.7236   19.1072 C   0  0  0  0  0  0  0  0  0  0  0  0
   12.9552  -18.3582   18.0277 O   0  0  0  0  0  0  0  0  0  0  0  0
   11.9242  -17.3290   19.8425 C   0  0  0  0  0  0  0  0  0  0  0  0
   10.9963  -18.4487   20.2288 C   0  0  2  0  0  0  0  0  0  0  0  0
   10.3491  -18.8700   18.9816 N   0  0  0  0  0  0  0  0  0  0  0  0
    9.9700  -17.9039   21.1581 C   0  0  0  0  0  0  0  0  0  0  0  0
    9.1788  -17.0163   20.7863 O   0  0  0  0  0  0  0  0  0  0  0  0
    9.4970  -19.3753   25.0471 O   0  0  0  0  0  0  0  0  0  0  0  0
    8.4033  -19.0431   24.2813 C   0  0  0  0  0  0  0  0  0  0  0  0
    8.7266  -17.9244   23.3055 C   0  0  2  0  0  0  0  0  0  0  0  0
    9.8317  -18.3516   22.4973 N   0  0  0  0  0  0  0  0  0  0  0  0
    9.0172  -16.6922   24.0749 C   0  0  0  0  0  0  0  0  0  0  0  0
   10.2213  -16.3819   24.2407 O   0  0  0  0  0  0  0  0  0  0  0  0
    5.8270  -11.7127   25.9662 C   0  0  0  0  0  0  0  0  0  0  0  0
    7.1606  -12.3942   25.8843 C   0  0  1  0  0  0  0  0  0  0  0  0
    7.7493  -12.3377   27.2960 C   0  0  0  0  0  0  0  0  0  0  0  0
    7.2031  -13.7358   25.3047 C   0  0  0  0  0  0  0  0  0  0  0  0
    8.4044  -14.5852   25.3462 C   0  0  2  0  0  0  0  0  0  0  0  0
    8.0259  -15.8547   24.6285 N   0  0  0  0  0  0  0  0  0  0  0  0
    8.8519  -15.0275   26.6651 C   0  0  0  0  0  0  0  0  0  0  0  0
    8.2545  -15.9800   27.2754 O   0  0  0  0  0  0  0  0  0  0  0  0
    9.9221  -14.4882   27.3458 O   0  0  0  0  0  0  0  0  0  0  0  0
  1  2  1  0
  2  3  2  0
  4  5  1  0
  4  2  1  0
  5  6  1  6
  7 12  1  0
  7  5  1  0
  8  7  2  0
 11 10  1  1
 10  9  1  0
 11 13  1  0
 11 12  1  0
 13 20  1  0
 14 13  2  0
 16 17  1  1
 16 15  1  0
 18 16  1  0
 19 21  1  0
 19 18  1  1
 20 19  1  0
 21 23  1  0
 22 21  2  0
M  END
$$$$
