NSL.pdb
     RDKit          3D

 23 22  0  0  1  0  0  0  0  0999 V2000
   15.1566  -14.4040   19.9916 N   0  0  0  0  0  0  0  0  0  0  0  0
   14.1363  -14.2010   19.0279 C   0  0  0  0  0  0  0  0  0  0  0  0
   14.3973  -13.8702   17.8364 O   0  0  0  0  0  0  0  0  0  0  0  0
   12.7264  -14.3707   19.3770 C   0  0  0  0  0  0  0  0  0  0  0  0
   12.2713  -15.7889   19.5900 C   0  0  2  0  0  0  0  0  0  0  0  0
   12.0360  -16.3312   18.2474 N   0  0  0  0  0  0  0  0  0  0  0  0
   10.9880  -15.7587   20.3423 C   0  0  0  0  0  0  0  0  0  0  0  0
   10.0593  -15.0065   19.9906 O   0  0  0  0  0  0  0  0  0  0  0  0
   10.0552  -18.5699   23.2985 O   0  0  0  0  0  0  0  0  0  0  0  0
    9.1145  -18.0029   22.4699 C   0  0  0  0  0  0  0  0  0  0  0  0
    9.4673  -16.5648   22.1298 C   0  0  2  0  0  0  0  0  0  0  0  0
   10.7474  -16.5672   21.4830 N   0  0  0  0  0  0  0  0  0  0  0  0
    9.4526  -15.7646   23.3766 C   0  0  0  0  0  0  0  0  0  0  0  0
   10.5509  -15.5570   23.9459 O   0  0  0  0  0  0  0  0  0  0  0  0
    7.5669  -11.6638   26.7793 C   0  0  0  0  0  0  0  0  0  0  0  0
    6.7424  -12.8829   26.4899 C   0  0  1  0  0  0  0  0  0  0  0  0
    5.2882  -12.4072   26.4487 C   0  0  0  0  0  0  0  0  0  0  0  0
    7.1088  -13.6902   25.3274 C   0  0  0  0  0  0  0  0  0  0  0  0
    8.3463  -14.4846   25.2656 C   0  0  2  0  0  0  0  0  0  0  0  0
    8.2839  -15.2276   23.9564 N   0  0  0  0  0  0  0  0  0  0  0  0
    8.5081  -15.5295   26.2744 C   0  0  0  0  0  0  0  0  0  0  0  0
    7.8870  -16.6430   26.1713 O   0  0  0  0  0  0  0  0  0  0  0  0
    9.3193  -15.4223   27.3835 O   0  0  0  0  0  0  0  0  0  0  0  0
  1  2  1  0
  2  3  2  0
  4  5  1  0
  4  2  1  0
  5  6  1  6
  7 12  1  0
  7  5  1  0
  8  7  2  0
 11 10  1  1
 10  9  1  0
 11 13  1  0
 11 12  1  0
 13 20  1  0
 14 13  2  0
 16 17  1  6
 16 15  1  0
 18 16  1  0
 19 21  1  0
 19 18  1  1
 20 19  1  0
 21 23  1  0
 22 21  2  0
M  END
$$$$
