NSL.pdb
     RDKit          3D

 23 22  0  0  1  0  0  0  0  0999 V2000
   12.2273  -20.8479   21.2487 N   0  0  0  0  0  0  0  0  0  0  0  0
   12.6297  -19.5954   20.7193 C   0  0  0  0  0  0  0  0  0  0  0  0
   13.6790  -19.4674   20.0266 O   0  0  0  0  0  0  0  0  0  0  0  0
   11.8368  -18.3892   20.9538 C   0  0  0  0  0  0  0  0  0  0  0  0
   10.8126  -18.0646   19.9004 C   0  0  2  0  0  0  0  0  0  0  0  0
   11.5738  -17.5385   18.7620 N   0  0  0  0  0  0  0  0  0  0  0  0
    9.9192  -16.9999   20.4314 C   0  0  0  0  0  0  0  0  0  0  0  0
   10.2055  -15.7960   20.2883 O   0  0  0  0  0  0  0  0  0  0  0  0
    6.2503  -17.8946   22.1654 O   0  0  0  0  0  0  0  0  0  0  0  0
    6.4270  -16.7026   21.5012 C   0  0  0  0  0  0  0  0  0  0  0  0
    7.8663  -16.2244   21.5899 C   0  0  2  0  0  0  0  0  0  0  0  0
    8.7114  -17.2836   21.1195 N   0  0  0  0  0  0  0  0  0  0  0  0
    8.1527  -15.8372   22.9910 C   0  0  0  0  0  0  0  0  0  0  0  0
    8.9590  -16.5491   23.6366 O   0  0  0  0  0  0  0  0  0  0  0  0
    8.1729  -12.2743   27.4420 C   0  0  0  0  0  0  0  0  0  0  0  0
    6.9077  -12.7538   26.7943 C   0  0  1  0  0  0  0  0  0  0  0  0
    5.9130  -11.5959   26.9062 C   0  0  0  0  0  0  0  0  0  0  0  0
    7.0011  -13.2932   25.4386 C   0  0  0  0  0  0  0  0  0  0  0  0
    7.7929  -14.4891   25.1085 C   0  0  2  0  0  0  0  0  0  0  0  0
    7.5748  -14.7237   23.6363 N   0  0  0  0  0  0  0  0  0  0  0  0
    7.3891  -15.7414   25.7444 C   0  0  0  0  0  0  0  0  0  0  0  0
    8.0866  -16.2537   26.6864 O   0  0  0  0  0  0  0  0  0  0  0  0
    6.2593  -16.4562   25.4093 O   0  0  0  0  0  0  0  0  0  0  0  0
  1  2  1  0
  2  3  2  0
  4  5  1  0
  4  2  1  0
  5  6  1  6
  7 12  1  0
  7  5  1  0
  8  7  2  0
 11 10  1  1
 10  9  1  0
 11 13  1  0
 11 12  1  0
 13 20  1  0
 14 13  2  0
 16 17  1  6
 16 15  1  0
 18 16  1  0
 19 21  1  0
 19 18  1  1
 20 19  1  0
 21 23  1  0
 22 21  2  0
M  END
$$$$
