NSL.pdb
     RDKit          3D

 23 22  0  0  1  0  0  0  0  0999 V2000
    8.0242  -14.9666   15.8068 N   0  0  0  0  0  0  0  0  0  0  0  0
    8.1320  -13.9204   16.7580 C   0  0  0  0  0  0  0  0  0  0  0  0
    8.6127  -12.7906   16.4588 O   0  0  0  0  0  0  0  0  0  0  0  0
    7.6840  -14.1080   18.1374 C   0  0  0  0  0  0  0  0  0  0  0  0
    8.7734  -14.2425   19.1665 C   0  0  2  0  0  0  0  0  0  0  0  0
    9.6368  -15.3262   18.6846 N   0  0  0  0  0  0  0  0  0  0  0  0
    8.1496  -14.6444   20.4560 C   0  0  0  0  0  0  0  0  0  0  0  0
    7.3785  -13.8743   21.0597 O   0  0  0  0  0  0  0  0  0  0  0  0
    9.1922  -18.1622   22.5316 O   0  0  0  0  0  0  0  0  0  0  0  0
    7.8808  -17.7476   22.4940 C   0  0  0  0  0  0  0  0  0  0  0  0
    7.7782  -16.2420   22.3182 C   0  0  2  0  0  0  0  0  0  0  0  0
    8.3893  -15.9029   21.0657 N   0  0  0  0  0  0  0  0  0  0  0  0
    8.4293  -15.5833   23.4745 C   0  0  0  0  0  0  0  0  0  0  0  0
    9.6369  -15.2649   23.3568 O   0  0  0  0  0  0  0  0  0  0  0  0
    5.7124  -12.0236   26.6507 C   0  0  0  0  0  0  0  0  0  0  0  0
    6.8530  -12.6550   25.9090 C   0  0  1  0  0  0  0  0  0  0  0  0
    7.8314  -11.5201   25.5968 C   0  0  0  0  0  0  0  0  0  0  0  0
    7.5030  -13.8128   26.5210 C   0  0  0  0  0  0  0  0  0  0  0  0
    8.5115  -14.6244   25.8207 C   0  0  2  0  0  0  0  0  0  0  0  0
    7.7751  -15.2966   24.6912 N   0  0  0  0  0  0  0  0  0  0  0  0
    9.1107  -15.7234   26.5749 C   0  0  0  0  0  0  0  0  0  0  0  0
    8.7150  -16.9280   26.4055 O   0  0  0  0  0  0  0  0  0  0  0  0
   10.1241  -15.5737   27.4970 O   0  0  0  0  0  0  0  0  0  0  0  0
  1  2  1  0
  2  3  2  0
  4  5  1  0
  4  2  1  0
  5  6  1  6
  7 12  1  0
  7  5  1  0
  8  7  2  0
 11 10  1  1
 10  9  1  0
 11 13  1  0
 11 12  1  0
 13 20  1  0
 14 13  2  0
 16 17  1  1
 16 15  1  0
 18 16  1  0
 19 21  1  0
 19 18  1  1
 20 19  1  0
 21 23  1  0
 22 21  2  0
M  END
$$$$
