NSL.pdb
     RDKit          3D

 23 22  0  0  1  0  0  0  0  0999 V2000
   15.0922  -14.0198   18.5219 N   0  0  0  0  0  0  0  0  0  0  0  0
   14.5778  -14.7457   19.6261 C   0  0  0  0  0  0  0  0  0  0  0  0
   15.3171  -15.4622   20.3590 O   0  0  0  0  0  0  0  0  0  0  0  0
   13.1566  -14.6916   19.9663 C   0  0  0  0  0  0  0  0  0  0  0  0
   12.3706  -15.9455   19.6945 C   0  0  2  0  0  0  0  0  0  0  0  0
   12.1314  -15.9526   18.2471 N   0  0  0  0  0  0  0  0  0  0  0  0
   11.0698  -15.8445   20.4094 C   0  0  0  0  0  0  0  0  0  0  0  0
   10.2196  -14.9988   20.0719 O   0  0  0  0  0  0  0  0  0  0  0  0
    9.9079  -18.5766   23.3772 O   0  0  0  0  0  0  0  0  0  0  0  0
    9.0074  -18.0022   22.5098 C   0  0  0  0  0  0  0  0  0  0  0  0
    9.4329  -16.5980   22.1156 C   0  0  2  0  0  0  0  0  0  0  0  0
   10.7241  -16.6870   21.4974 N   0  0  0  0  0  0  0  0  0  0  0  0
    9.4308  -15.7436   23.3260 C   0  0  0  0  0  0  0  0  0  0  0  0
   10.5378  -15.4877   23.8576 O   0  0  0  0  0  0  0  0  0  0  0  0
    7.5270  -11.7132   26.8120 C   0  0  0  0  0  0  0  0  0  0  0  0
    6.6898  -12.9081   26.4641 C   0  0  1  0  0  0  0  0  0  0  0  0
    5.2455  -12.4054   26.3994 C   0  0  0  0  0  0  0  0  0  0  0  0
    7.0732  -13.6866   25.2874 C   0  0  0  0  0  0  0  0  0  0  0  0
    8.3384  -14.4338   25.2026 C   0  0  2  0  0  0  0  0  0  0  0  0
    8.2650  -15.2063   23.9112 N   0  0  0  0  0  0  0  0  0  0  0  0
    8.5720  -15.4499   26.2265 C   0  0  0  0  0  0  0  0  0  0  0  0
    9.3484  -15.2177   27.2163 O   0  0  0  0  0  0  0  0  0  0  0  0
    7.9947  -16.7014   26.2279 O   0  0  0  0  0  0  0  0  0  0  0  0
  1  2  1  0
  2  3  2  0
  4  5  1  0
  4  2  1  0
  5  6  1  6
  7 12  1  0
  7  5  1  0
  8  7  2  0
 11 10  1  1
 10  9  1  0
 11 13  1  0
 11 12  1  0
 13 20  1  0
 14 13  2  0
 16 17  1  6
 16 15  1  0
 18 16  1  0
 19 21  1  0
 19 18  1  1
 20 19  1  0
 21 23  1  0
 22 21  2  0
M  END
$$$$
