NSL.pdb
     RDKit          3D

 23 22  0  0  1  0  0  0  0  0999 V2000
    8.6895  -12.7198   15.7490 N   0  0  0  0  0  0  0  0  0  0  0  0
    8.3708  -14.0237   16.2064 C   0  0  0  0  0  0  0  0  0  0  0  0
    8.5506  -15.0477   15.4880 O   0  0  0  0  0  0  0  0  0  0  0  0
    7.8177  -14.2382   17.5431 C   0  0  0  0  0  0  0  0  0  0  0  0
    8.8190  -14.2893   18.6650 C   0  0  2  0  0  0  0  0  0  0  0  0
    9.8337  -15.2604   18.2413 N   0  0  0  0  0  0  0  0  0  0  0  0
    8.1295  -14.7950   19.8825 C   0  0  0  0  0  0  0  0  0  0  0  0
    7.1880  -14.1592   20.3937 O   0  0  0  0  0  0  0  0  0  0  0  0
    9.6016  -18.0117   22.1882 O   0  0  0  0  0  0  0  0  0  0  0  0
    8.2454  -17.8470   22.0252 C   0  0  0  0  0  0  0  0  0  0  0  0
    7.8889  -16.3931   21.7656 C   0  0  2  0  0  0  0  0  0  0  0  0
    8.4940  -16.0069   20.5239 N   0  0  0  0  0  0  0  0  0  0  0  0
    8.3542  -15.5780   22.9120 C   0  0  0  0  0  0  0  0  0  0  0  0
    9.4719  -15.0177   22.8099 O   0  0  0  0  0  0  0  0  0  0  0  0
    7.7916  -11.4478   26.4008 C   0  0  0  0  0  0  0  0  0  0  0  0
    6.9920  -12.6889   26.6656 C   0  0  1  0  0  0  0  0  0  0  0  0
    5.6057  -12.2106   27.1037 C   0  0  0  0  0  0  0  0  0  0  0  0
    6.9368  -13.6992   25.6103 C   0  0  0  0  0  0  0  0  0  0  0  0
    8.1154  -14.4685   25.1797 C   0  0  2  0  0  0  0  0  0  0  0  0
    7.6192  -15.3978   24.1027 N   0  0  0  0  0  0  0  0  0  0  0  0
    8.7249  -15.3493   26.1738 C   0  0  0  0  0  0  0  0  0  0  0  0
    8.2426  -16.5114   26.4045 O   0  0  0  0  0  0  0  0  0  0  0  0
    9.8377  -15.0282   26.9209 O   0  0  0  0  0  0  0  0  0  0  0  0
  1  2  1  0
  2  3  2  0
  4  5  1  0
  4  2  1  0
  5  6  1  6
  7 12  1  0
  7  5  1  0
  8  7  2  0
 11 10  1  1
 10  9  1  0
 11 13  1  0
 11 12  1  0
 13 20  1  0
 14 13  2  0
 16 17  1  6
 16 15  1  0
 18 16  1  0
 19 21  1  0
 19 18  1  1
 20 19  1  0
 21 23  1  0
 22 21  2  0
M  END
$$$$
