TTH.pdb
     RDKit          3D

 25 25  0  0  1  0  0  0  0  0999 V2000
   21.4821  -10.2612  -19.8479 C   0  0  0  0  0  0  0  0  0  0  0  0
   22.4866  -11.3691  -19.8906 C   0  0  1  0  0  0  0  0  0  0  0  0
   22.2314  -12.2613  -20.9217 O   0  0  0  0  0  0  0  0  0  0  0  0
   23.9074  -10.8851  -19.9922 C   0  0  2  0  0  0  0  0  0  0  0  0
   24.8590  -11.9485  -20.1003 N   0  0  0  0  0  0  0  0  0  0  0  0
   24.2957   -9.9798  -18.9078 C   0  0  0  0  0  0  0  0  0  0  0  0
   24.9038  -10.3547  -17.8611 O   0  0  0  0  0  0  0  0  0  0  0  0
   26.6162   -7.1857  -19.0324 C   0  0  0  0  0  0  0  0  0  0  0  0
   25.3364   -6.5868  -18.4894 C   0  0  1  0  0  0  0  0  0  0  0  0
   24.7661   -5.8805  -19.5501 O   0  0  0  0  0  0  0  0  0  0  0  0
   24.4038   -7.6483  -17.9578 C   0  0  2  0  0  0  0  0  0  0  0  0
   23.9982   -8.5842  -18.9791 N   0  0  0  0  0  0  0  0  0  0  0  0
   23.2622   -6.9914  -17.2980 C   0  0  0  0  0  0  0  0  0  0  0  0
   22.2616   -6.6966  -18.0058 O   0  0  0  0  0  0  0  0  0  0  0  0
   23.2789   -6.6957  -15.9112 N   0  0  0  0  0  0  0  0  0  0  0  0
   22.0870   -6.0629  -15.3284 C   0  0  1  0  0  0  0  0  0  0  0  0
   21.5464   -6.9334  -14.2358 C   0  0  0  0  0  0  0  0  0  0  0  0
   20.7797   -8.0980  -14.6698 C   0  0  0  0  0  0  0  0  0  0  0  0
   20.5670   -8.6242  -15.9027 C   0  0  0  0  0  0  0  0  0  0  0  0
   19.8262   -9.7664  -15.7828 N   0  0  0  0  0  0  0  0  0  0  0  0
   19.5928   -9.9313  -14.4821 C   0  0  0  0  0  0  0  0  0  0  0  0
   20.1538   -8.9452  -13.7950 N   0  0  0  0  0  0  0  0  0  0  0  0
   22.5921   -4.8172  -14.6449 C   0  0  0  0  0  0  0  0  0  0  0  0
   23.7838   -4.5287  -14.5209 O   0  0  0  0  0  0  0  0  0  0  0  0
   21.6801   -3.8885  -14.0940 O   0  0  0  0  0  0  0  0  0  0  0  0
  2  1  1  6
  2  3  1  0
  4  2  1  0
  4  5  1  1
  6  4  1  0
  6  7  2  0
  9  8  1  6
  9 11  1  0
 10  9  1  0
 11 12  1  6
 11 13  1  0
 12  6  1  0
 13 14  2  0
 13 15  1  0
 15 16  1  0
 16 17  1  1
 17 18  1  0
 18 22  1  0
 19 18  2  0
 19 20  1  0
 20 21  1  0
 22 21  2  0
 23 25  1  0
 23 16  1  0
 24 23  2  0
M  END
$$$$
