TTH.pdb
     RDKit          3D

 25 25  0  0  1  0  0  0  0  0999 V2000
   19.6501  -22.4701  -13.7306 C   0  0  0  0  0  0  0  0  0  0  0  0
   20.3608  -21.1716  -13.9473 C   0  0  1  0  0  0  0  0  0  0  0  0
   21.5361  -21.3369  -14.6653 O   0  0  0  0  0  0  0  0  0  0  0  0
   19.5099  -20.1287  -14.6196 C   0  0  2  0  0  0  0  0  0  0  0  0
   19.1002  -20.5005  -15.9394 N   0  0  0  0  0  0  0  0  0  0  0  0
   20.1263  -18.8000  -14.6470 C   0  0  0  0  0  0  0  0  0  0  0  0
   20.5148  -18.1823  -13.6110 O   0  0  0  0  0  0  0  0  0  0  0  0
   23.1806  -17.7833  -16.8104 C   0  0  0  0  0  0  0  0  0  0  0  0
   22.0394  -16.8258  -17.0794 C   0  0  1  0  0  0  0  0  0  0  0  0
   21.4877  -17.2233  -18.2987 O   0  0  0  0  0  0  0  0  0  0  0  0
   21.0173  -16.8480  -15.9685 C   0  0  2  0  0  0  0  0  0  0  0  0
   20.3264  -18.1125  -15.8834 N   0  0  0  0  0  0  0  0  0  0  0  0
   20.1020  -15.7067  -16.1415 C   0  0  0  0  0  0  0  0  0  0  0  0
   18.9314  -15.9450  -16.5440 O   0  0  0  0  0  0  0  0  0  0  0  0
   20.5155  -14.3784  -15.8665 N   0  0  0  0  0  0  0  0  0  0  0  0
   19.5495  -13.2952  -16.0998 C   0  0  1  0  0  0  0  0  0  0  0  0
   19.4510  -12.4444  -14.8709 C   0  0  0  0  0  0  0  0  0  0  0  0
   18.5721  -11.2824  -14.9693 C   0  0  0  0  0  0  0  0  0  0  0  0
   17.7637  -10.8505  -15.9704 C   0  0  0  0  0  0  0  0  0  0  0  0
   17.0885   -9.7373  -15.5551 N   0  0  0  0  0  0  0  0  0  0  0  0
   17.4859   -9.4973  -14.3069 C   0  0  0  0  0  0  0  0  0  0  0  0
   18.3740  -10.4090  -13.9335 N   0  0  0  0  0  0  0  0  0  0  0  0
   20.1808  -12.4192  -17.1526 C   0  0  0  0  0  0  0  0  0  0  0  0
   21.3734  -12.4552  -17.4610 O   0  0  0  0  0  0  0  0  0  0  0  0
   19.3968  -11.4798  -17.8600 O   0  0  0  0  0  0  0  0  0  0  0  0
  2  1  1  6
  2  3  1  0
  4  2  1  0
  4  5  1  6
  6  4  1  0
  6  7  2  0
  9  8  1  1
  9 11  1  0
 10  9  1  0
 11 12  1  6
 11 13  1  0
 12  6  1  0
 13 14  2  0
 13 15  1  0
 15 16  1  0
 16 17  1  1
 17 18  1  0
 18 22  1  0
 19 18  2  0
 19 20  1  0
 20 21  1  0
 22 21  2  0
 23 25  1  0
 23 16  1  0
 24 23  2  0
M  END
$$$$
