TTH.pdb
     RDKit          3D

 25 25  0  0  1  0  0  0  0  0999 V2000
   17.6035  -13.0538  -16.5878 C   0  0  0  0  0  0  0  0  0  0  0  0
   17.6714  -11.5780  -16.3522 C   0  0  1  0  0  0  0  0  0  0  0  0
   17.2089  -10.8566  -17.4431 O   0  0  0  0  0  0  0  0  0  0  0  0
   16.9373  -11.1350  -15.1159 C   0  0  2  0  0  0  0  0  0  0  0  0
   15.5590  -11.5202  -15.1102 N   0  0  0  0  0  0  0  0  0  0  0  0
   17.0525   -9.6989  -14.8504 C   0  0  0  0  0  0  0  0  0  0  0  0
   16.0671   -8.9022  -14.8461 O   0  0  0  0  0  0  0  0  0  0  0  0
   16.3513   -7.8761  -12.8023 C   0  0  0  0  0  0  0  0  0  0  0  0
   17.8166   -7.4966  -12.7930 C   0  0  1  0  0  0  0  0  0  0  0  0
   18.4035   -8.2667  -11.7873 O   0  0  0  0  0  0  0  0  0  0  0  0
   18.4655   -7.7390  -14.1345 C   0  0  2  0  0  0  0  0  0  0  0  0
   18.3229   -9.1064  -14.5742 N   0  0  0  0  0  0  0  0  0  0  0  0
   19.8711   -7.3030  -14.0687 C   0  0  0  0  0  0  0  0  0  0  0  0
   20.7454   -8.1694  -13.7968 O   0  0  0  0  0  0  0  0  0  0  0  0
   20.2389   -5.9535  -14.3022 N   0  0  0  0  0  0  0  0  0  0  0  0
   21.6719   -5.6334  -14.3722 C   0  0  1  0  0  0  0  0  0  0  0  0
   21.9001   -4.6075  -15.4396 C   0  0  0  0  0  0  0  0  0  0  0  0
   21.6920   -5.0596  -16.8125 C   0  0  0  0  0  0  0  0  0  0  0  0
   21.8720   -6.2721  -17.3954 C   0  0  0  0  0  0  0  0  0  0  0  0
   21.4737   -6.2072  -18.7011 N   0  0  0  0  0  0  0  0  0  0  0  0
   21.0531   -4.9606  -18.9070 C   0  0  0  0  0  0  0  0  0  0  0  0
   21.1736   -4.2541  -17.7909 N   0  0  0  0  0  0  0  0  0  0  0  0
   21.9893   -4.9435  -13.0693 C   0  0  0  0  0  0  0  0  0  0  0  0
   21.1415   -4.5813  -12.2516 O   0  0  0  0  0  0  0  0  0  0  0  0
   23.3308   -4.6720  -12.7166 O   0  0  0  0  0  0  0  0  0  0  0  0
  2  1  1  6
  2  3  1  0
  4  2  1  0
  4  5  1  6
  6  4  1  0
  6  7  2  0
  9  8  1  6
  9 11  1  0
 10  9  1  0
 11 12  1  1
 11 13  1  0
 12  6  1  0
 13 14  2  0
 13 15  1  0
 15 16  1  0
 16 17  1  6
 17 18  1  0
 18 22  1  0
 19 18  2  0
 19 20  1  0
 20 21  1  0
 22 21  2  0
 23 25  1  0
 23 16  1  0
 24 23  2  0
M  END
$$$$
