TTH.pdb
     RDKit          3D

 25 25  0  0  1  0  0  0  0  0999 V2000
   14.7708   -6.0753   -8.5651 C   0  0  0  0  0  0  0  0  0  0  0  0
   14.0532   -7.2406   -7.9606 C   0  0  1  0  0  0  0  0  0  0  0  0
   12.7597   -6.9133   -7.5811 O   0  0  0  0  0  0  0  0  0  0  0  0
   14.0182   -8.4507   -8.8538 C   0  0  2  0  0  0  0  0  0  0  0  0
   13.4079   -9.5889   -8.2375 N   0  0  0  0  0  0  0  0  0  0  0  0
   15.3308   -8.8203   -9.3894 C   0  0  0  0  0  0  0  0  0  0  0  0
   16.2513   -9.3472   -8.6959 O   0  0  0  0  0  0  0  0  0  0  0  0
   16.5595  -11.3772  -11.5486 C   0  0  0  0  0  0  0  0  0  0  0  0
   16.8818  -10.0881  -12.2736 C   0  0  1  0  0  0  0  0  0  0  0  0
   15.8809   -9.9304  -13.2340 O   0  0  0  0  0  0  0  0  0  0  0  0
   16.9395   -8.9136  -11.3268 C   0  0  2  0  0  0  0  0  0  0  0  0
   15.6481   -8.5978  -10.7645 N   0  0  0  0  0  0  0  0  0  0  0  0
   17.5548   -7.7708  -12.0236 C   0  0  0  0  0  0  0  0  0  0  0  0
   16.7947   -6.8567  -12.4429 O   0  0  0  0  0  0  0  0  0  0  0  0
   18.9568   -7.6924  -12.2213 N   0  0  0  0  0  0  0  0  0  0  0  0
   19.4726   -6.6058  -13.0664 C   0  0  1  0  0  0  0  0  0  0  0  0
   20.9654   -6.7030  -13.1442 C   0  0  0  0  0  0  0  0  0  0  0  0
   21.6199   -5.7514  -14.0378 C   0  0  0  0  0  0  0  0  0  0  0  0
   21.1442   -4.6627  -14.6940 C   0  0  0  0  0  0  0  0  0  0  0  0
   22.1705   -4.0557  -15.3617 N   0  0  0  0  0  0  0  0  0  0  0  0
   23.2633   -4.7737  -15.1094 C   0  0  0  0  0  0  0  0  0  0  0  0
   22.9594   -5.7943  -14.3187 N   0  0  0  0  0  0  0  0  0  0  0  0
   18.9713   -6.9104  -14.4557 C   0  0  0  0  0  0  0  0  0  0  0  0
   18.5401   -6.0623  -15.2390 O   0  0  0  0  0  0  0  0  0  0  0  0
   18.9753   -8.2389  -14.9380 O   0  0  0  0  0  0  0  0  0  0  0  0
  2  1  1  6
  2  3  1  0
  4  2  1  0
  4  5  1  1
  6  4  1  0
  6  7  2  0
  9  8  1  1
  9 11  1  0
 10  9  1  0
 11 12  1  6
 11 13  1  0
 12  6  1  0
 13 14  2  0
 13 15  1  0
 15 16  1  0
 16 17  1  6
 17 18  1  0
 18 22  1  0
 19 18  2  0
 19 20  1  0
 20 21  1  0
 22 21  2  0
 23 25  1  0
 23 16  1  0
 24 23  2  0
M  END
$$$$
