TTH.pdb
     RDKit          3D

 25 25  0  0  1  0  0  0  0  0999 V2000
   29.4431  -29.4403  -25.0196 C   0  0  0  0  0  0  0  0  0  0  0  0
   29.6074  -29.7803  -23.5720 C   0  0  1  0  0  0  0  0  0  0  0  0
   29.2413  -31.0907  -23.3020 O   0  0  0  0  0  0  0  0  0  0  0  0
   30.9987  -29.5359  -23.0541 C   0  0  2  0  0  0  0  0  0  0  0  0
   32.0118  -30.1772  -23.8354 N   0  0  0  0  0  0  0  0  0  0  0  0
   31.1663  -29.8847  -21.6412 C   0  0  0  0  0  0  0  0  0  0  0  0
   31.9851  -30.7570  -21.2234 O   0  0  0  0  0  0  0  0  0  0  0  0
   32.5102  -27.8254  -19.0232 C   0  0  0  0  0  0  0  0  0  0  0  0
   31.1308  -28.2080  -18.5312 C   0  0  1  0  0  0  0  0  0  0  0  0
   30.3171  -27.1010  -18.7790 O   0  0  0  0  0  0  0  0  0  0  0  0
   30.6150  -29.4477  -19.2214 C   0  0  2  0  0  0  0  0  0  0  0  0
   30.3897  -29.2375  -20.6316 N   0  0  0  0  0  0  0  0  0  0  0  0
   29.4121  -29.9201  -18.5142 C   0  0  0  0  0  0  0  0  0  0  0  0
   28.2901  -29.6926  -19.0418 O   0  0  0  0  0  0  0  0  0  0  0  0
   29.5032  -30.6099  -17.2785 N   0  0  0  0  0  0  0  0  0  0  0  0
   28.2582  -31.1056  -16.6741 C   0  0  1  0  0  0  0  0  0  0  0  0
   28.5795  -31.8481  -15.4134 C   0  0  0  0  0  0  0  0  0  0  0  0
   27.4481  -32.4800  -14.7404 C   0  0  0  0  0  0  0  0  0  0  0  0
   26.1505  -32.6259  -15.1110 C   0  0  0  0  0  0  0  0  0  0  0  0
   25.4902  -33.3531  -14.1607 N   0  0  0  0  0  0  0  0  0  0  0  0
   26.3853  -33.6471  -13.2195 C   0  0  0  0  0  0  0  0  0  0  0  0
   27.5652  -33.1355  -13.5440 N   0  0  0  0  0  0  0  0  0  0  0  0
   27.5078  -29.8715  -16.2404 C   0  0  0  0  0  0  0  0  0  0  0  0
   28.0434  -28.8538  -15.7976 O   0  0  0  0  0  0  0  0  0  0  0  0
   26.0977  -29.8290  -16.3275 O   0  0  0  0  0  0  0  0  0  0  0  0
  2  1  1  6
  2  3  1  0
  4  2  1  0
  4  5  1  6
  6  4  1  0
  6  7  2  0
  9  8  1  6
  9 11  1  0
 10  9  1  0
 11 12  1  6
 11 13  1  0
 12  6  1  0
 13 14  2  0
 13 15  1  0
 15 16  1  0
 16 17  1  1
 17 18  1  0
 18 22  1  0
 19 18  2  0
 19 20  1  0
 20 21  1  0
 22 21  2  0
 23 25  1  0
 23 16  1  0
 24 23  2  0
M  END
$$$$
