TTH.pdb
     RDKit          3D

 25 25  0  0  1  0  0  0  0  0999 V2000
   34.4267  -37.5993   -6.3890 C   0  0  0  0  0  0  0  0  0  0  0  0
   33.9212  -36.6747   -5.3271 C   0  0  1  0  0  0  0  0  0  0  0  0
   34.8349  -35.6731   -5.0332 O   0  0  0  0  0  0  0  0  0  0  0  0
   32.5916  -36.0532   -5.6581 C   0  0  2  0  0  0  0  0  0  0  0  0
   32.5935  -35.3474   -6.9030 N   0  0  0  0  0  0  0  0  0  0  0  0
   32.0705  -35.1874   -4.5974 C   0  0  0  0  0  0  0  0  0  0  0  0
   32.0960  -33.9214   -4.6456 O   0  0  0  0  0  0  0  0  0  0  0  0
   28.5963  -35.0189   -3.0742 C   0  0  0  0  0  0  0  0  0  0  0  0
   29.5731  -35.2978   -1.9520 C   0  0  1  0  0  0  0  0  0  0  0  0
   29.4496  -36.6592   -1.6687 O   0  0  0  0  0  0  0  0  0  0  0  0
   30.9863  -34.9319   -2.3370 C   0  0  2  0  0  0  0  0  0  0  0  0
   31.4890  -35.7459   -3.4179 N   0  0  0  0  0  0  0  0  0  0  0  0
   31.8364  -34.9885   -1.1352 C   0  0  0  0  0  0  0  0  0  0  0  0
   32.5866  -35.9911   -0.9899 O   0  0  0  0  0  0  0  0  0  0  0  0
   31.8186  -33.9528   -0.1668 N   0  0  0  0  0  0  0  0  0  0  0  0
   32.7612  -34.0458    0.9573 C   0  0  1  0  0  0  0  0  0  0  0  0
   33.4720  -32.7372    1.1191 C   0  0  0  0  0  0  0  0  0  0  0  0
   34.5580  -32.4814    0.1771 C   0  0  0  0  0  0  0  0  0  0  0  0
   35.0656  -33.2323   -0.8332 C   0  0  0  0  0  0  0  0  0  0  0  0
   36.0438  -32.5240   -1.4728 N   0  0  0  0  0  0  0  0  0  0  0  0
   36.1268  -31.3484   -0.8527 C   0  0  0  0  0  0  0  0  0  0  0  0
   35.2470  -31.2987    0.1387 N   0  0  0  0  0  0  0  0  0  0  0  0
   31.9008  -34.1971    2.1865 C   0  0  0  0  0  0  0  0  0  0  0  0
   30.6688  -34.2244    2.1718 O   0  0  0  0  0  0  0  0  0  0  0  0
   32.4975  -34.3192    3.4619 O   0  0  0  0  0  0  0  0  0  0  0  0
  2  1  1  6
  2  3  1  0
  4  2  1  0
  4  5  1  6
  6  4  1  0
  6  7  2  0
  9  8  1  6
  9 11  1  0
 10  9  1  0
 11 12  1  6
 11 13  1  0
 12  6  1  0
 13 14  2  0
 13 15  1  0
 15 16  1  0
 16 17  1  1
 17 18  1  0
 18 22  1  0
 19 18  2  0
 19 20  1  0
 20 21  1  0
 22 21  2  0
 23 25  1  0
 23 16  1  0
 24 23  2  0
M  END
$$$$
