TTH.pdb
     RDKit          3D

 25 25  0  0  1  0  0  0  0  0999 V2000
   15.6209  -14.5050  -15.6710 C   0  0  0  0  0  0  0  0  0  0  0  0
   15.8330  -13.1047  -16.1531 C   0  0  1  0  0  0  0  0  0  0  0  0
   14.6696  -12.3519  -16.0883 O   0  0  0  0  0  0  0  0  0  0  0  0
   16.9342  -12.3819  -15.4262 C   0  0  2  0  0  0  0  0  0  0  0  0
   16.6578  -12.1856  -14.0359 N   0  0  0  0  0  0  0  0  0  0  0  0
   17.3031  -11.1058  -16.0440 C   0  0  0  0  0  0  0  0  0  0  0  0
   17.7068  -10.9930  -17.2399 O   0  0  0  0  0  0  0  0  0  0  0  0
   15.1733   -8.2124  -16.8620 C   0  0  0  0  0  0  0  0  0  0  0  0
   16.2218   -7.7228  -15.8861 C   0  0  1  0  0  0  0  0  0  0  0  0
   15.6066   -7.7247  -14.6329 O   0  0  0  0  0  0  0  0  0  0  0  0
   17.4545   -8.5941  -15.9061 C   0  0  2  0  0  0  0  0  0  0  0  0
   17.2235   -9.8859  -15.3046 N   0  0  0  0  0  0  0  0  0  0  0  0
   18.5658   -7.8605  -15.2761 C   0  0  0  0  0  0  0  0  0  0  0  0
   18.7338   -7.9966  -14.0342 O   0  0  0  0  0  0  0  0  0  0  0  0
   19.4250   -7.0250  -16.0344 N   0  0  0  0  0  0  0  0  0  0  0  0
   20.5214   -6.3454  -15.3296 C   0  0  1  0  0  0  0  0  0  0  0  0
   21.8120   -6.6162  -16.0403 C   0  0  0  0  0  0  0  0  0  0  0  0
   22.3454   -7.9683  -15.8990 C   0  0  0  0  0  0  0  0  0  0  0  0
   21.9188   -9.0299  -15.1688 C   0  0  0  0  0  0  0  0  0  0  0  0
   22.7250  -10.1038  -15.4228 N   0  0  0  0  0  0  0  0  0  0  0  0
   23.6350   -9.6938  -16.3044 C   0  0  0  0  0  0  0  0  0  0  0  0
   23.4285   -8.4187  -16.6053 N   0  0  0  0  0  0  0  0  0  0  0  0
   20.2577   -4.8717  -15.5110 C   0  0  0  0  0  0  0  0  0  0  0  0
   20.9426   -3.9778  -15.0105 O   0  0  0  0  0  0  0  0  0  0  0  0
   19.1666   -4.4357  -16.2965 O   0  0  0  0  0  0  0  0  0  0  0  0
  2  1  1  1
  2  3  1  0
  4  2  1  0
  4  5  1  1
  6  4  1  0
  6  7  2  0
  9  8  1  6
  9 11  1  0
 10  9  1  0
 11 12  1  1
 11 13  1  0
 12  6  1  0
 13 14  2  0
 13 15  1  0
 15 16  1  0
 16 17  1  6
 17 18  1  0
 18 22  1  0
 19 18  2  0
 19 20  1  0
 20 21  1  0
 22 21  2  0
 23 25  1  0
 23 16  1  0
 24 23  2  0
M  END
$$$$
