TTH.pdb
     RDKit          3D

 25 25  0  0  1  0  0  0  0  0999 V2000
   18.2506  -10.5681  -17.0688 C   0  0  0  0  0  0  0  0  0  0  0  0
   19.0969  -11.6776  -17.6083 C   0  0  1  0  0  0  0  0  0  0  0  0
   18.3458  -12.6087  -18.3105 O   0  0  0  0  0  0  0  0  0  0  0  0
   20.2307  -11.1988  -18.4736 C   0  0  2  0  0  0  0  0  0  0  0  0
   20.9620  -12.2657  -19.0860 N   0  0  0  0  0  0  0  0  0  0  0  0
   21.1545  -10.2973  -17.7809 C   0  0  0  0  0  0  0  0  0  0  0  0
   22.0716  -10.6922  -17.0006 O   0  0  0  0  0  0  0  0  0  0  0  0
   23.1417   -7.3551  -19.3601 C   0  0  0  0  0  0  0  0  0  0  0  0
   22.3992   -6.8326  -18.1489 C   0  0  1  0  0  0  0  0  0  0  0  0
   21.3349   -6.0804  -18.6495 O   0  0  0  0  0  0  0  0  0  0  0  0
   21.9220   -7.9545  -17.2585 C   0  0  2  0  0  0  0  0  0  0  0  0
   21.0643   -8.8823  -17.9565 N   0  0  0  0  0  0  0  0  0  0  0  0
   21.2852   -7.3751  -16.0632 C   0  0  0  0  0  0  0  0  0  0  0  0
   20.0257   -7.3380  -16.0251 O   0  0  0  0  0  0  0  0  0  0  0  0
   22.0560   -6.8723  -14.9843 N   0  0  0  0  0  0  0  0  0  0  0  0
   21.3437   -6.2270  -13.8721 C   0  0  1  0  0  0  0  0  0  0  0  0
   21.7312   -6.8872  -12.5845 C   0  0  0  0  0  0  0  0  0  0  0  0
   21.2655   -6.2300  -11.3664 C   0  0  0  0  0  0  0  0  0  0  0  0
   20.2274   -5.3847  -11.1431 C   0  0  0  0  0  0  0  0  0  0  0  0
   20.1652   -5.0907   -9.8098 N   0  0  0  0  0  0  0  0  0  0  0  0
   21.1612   -5.7567   -9.2286 C   0  0  0  0  0  0  0  0  0  0  0  0
   21.8343   -6.4466  -10.1398 N   0  0  0  0  0  0  0  0  0  0  0  0
   21.9045   -4.8291  -13.7984 C   0  0  0  0  0  0  0  0  0  0  0  0
   21.2412   -3.8296  -13.5159 O   0  0  0  0  0  0  0  0  0  0  0  0
   23.2736   -4.5971  -14.0618 O   0  0  0  0  0  0  0  0  0  0  0  0
  2  1  1  6
  2  3  1  0
  4  2  1  0
  4  5  1  1
  6  4  1  0
  6  7  2  0
  9  8  1  6
  9 11  1  0
 10  9  1  0
 11 12  1  6
 11 13  1  0
 12  6  1  0
 13 14  2  0
 13 15  1  0
 15 16  1  0
 16 17  1  1
 17 18  1  0
 18 22  1  0
 19 18  2  0
 19 20  1  0
 20 21  1  0
 22 21  2  0
 23 25  1  0
 23 16  1  0
 24 23  2  0
M  END
$$$$
