ELR.pdb
     RDKit          3D

 29 28  0  0  1  0  0  0  0  0999 V2000
    7.5467  -15.9913   20.9225 N   0  0  0  0  0  0  0  0  0  0  0  0
    8.5902  -15.0314   20.9594 C   0  0  1  0  0  0  0  0  0  0  0  0
    8.6124  -14.0013   19.8906 C   0  0  0  0  0  0  0  0  0  0  0  0
    7.6053  -14.2646   18.8271 C   0  0  0  0  0  0  0  0  0  0  0  0
    8.0108  -14.0121   17.4467 C   0  0  0  0  0  0  0  0  0  0  0  0
    8.8481  -14.6423   16.7780 O   0  0  0  0  0  0  0  0  0  0  0  0
    8.6843  -14.4400   22.3224 C   0  0  0  0  0  0  0  0  0  0  0  0
    9.0860  -13.2459   22.3800 O   0  0  0  0  0  0  0  0  0  0  0  0
    7.3802  -12.9310   16.8002 O   0  0  0  0  0  0  0  0  0  0  0  0
    7.9732  -11.5438   26.2132 C   0  0  0  0  0  0  0  0  0  0  0  0
    7.1163  -12.8005   26.1502 C   0  0  1  0  0  0  0  0  0  0  0  0
    5.6892  -12.3816   26.4137 C   0  0  0  0  0  0  0  0  0  0  0  0
    7.3123  -13.4185   24.8055 C   0  0  0  0  0  0  0  0  0  0  0  0
    8.2803  -14.5618   24.7722 C   0  0  2  0  0  0  0  0  0  0  0  0
    8.3431  -15.1809   23.4672 N   0  0  0  0  0  0  0  0  0  0  0  0
    7.7927  -15.5505   25.7993 C   0  0  0  0  0  0  0  0  0  0  0  0
    7.3806  -15.1593   26.9302 O   0  0  0  0  0  0  0  0  0  0  0  0
   12.9075  -20.4948   22.0674 N   0  0  0  0  0  0  0  0  0  0  0  0
   13.3059  -19.9539   23.3070 C   0  0  0  0  0  0  0  0  0  0  0  0
   14.5056  -19.4809   23.4134 N   0  0  0  0  0  0  0  0  0  0  0  0
   12.4428  -19.9125   24.4283 N   0  0  0  0  0  0  0  0  0  0  0  0
   11.1662  -19.2454   24.3941 C   0  0  0  0  0  0  0  0  0  0  0  0
   11.3046  -17.7333   24.5735 C   0  0  0  0  0  0  0  0  0  0  0  0
    9.9133  -17.1625   24.5385 C   0  0  0  0  0  0  0  0  0  0  0  0
    9.0189  -17.7417   25.6072 C   0  0  2  0  0  0  0  0  0  0  0  0
    7.7752  -16.9359   25.5459 N   0  0  0  0  0  0  0  0  0  0  0  0
    9.6590  -17.5577   26.9298 C   0  0  0  0  0  0  0  0  0  0  0  0
   10.2391  -16.3213   27.2405 O   0  0  0  0  0  0  0  0  0  0  0  0
    9.7249  -18.4328   27.8080 O   0  0  0  0  0  0  0  0  0  0  0  0
  2  1  1  1
  2  7  1  0
  2  3  1  0
  4  5  1  0
  4  3  1  0
  5  6  2  0
  7  8  2  0
  9  5  1  0
 11 13  1  0
 11 10  1  6
 12 11  1  0
 14 13  1  6
 15 14  1  0
 15  7  1  0
 16 14  1  0
 17 16  2  0
 18 19  1  0
 19 21  1  0
 20 19  2  0
 21 22  1  0
 22 23  1  0
 23 24  1  0
 25 24  1  6
 25 26  1  0
 25 27  1  0
 26 16  1  0
 27 28  1  0
 29 27  2  0
M  END
$$$$
