ELR.pdb
     RDKit          3D

 29 28  0  0  1  0  0  0  0  0999 V2000
    8.9529  -15.3841   19.9345 N   0  0  0  0  0  0  0  0  0  0  0  0
    8.0232  -15.7122   20.9540 C   0  0  1  0  0  0  0  0  0  0  0  0
    7.6313  -17.1375   21.0919 C   0  0  0  0  0  0  0  0  0  0  0  0
    7.0455  -17.6890   19.8399 C   0  0  0  0  0  0  0  0  0  0  0  0
    6.6478  -19.0944   19.8517 C   0  0  0  0  0  0  0  0  0  0  0  0
    6.1474  -19.7457   18.9185 O   0  0  0  0  0  0  0  0  0  0  0  0
    8.4582  -15.1137   22.2459 C   0  0  0  0  0  0  0  0  0  0  0  0
    9.6997  -15.1208   22.4678 O   0  0  0  0  0  0  0  0  0  0  0  0
    6.8553  -19.7904   21.0587 O   0  0  0  0  0  0  0  0  0  0  0  0
    8.2498  -12.0285   26.5923 C   0  0  0  0  0  0  0  0  0  0  0  0
    7.1418  -13.0724   26.6124 C   0  0  1  0  0  0  0  0  0  0  0  0
    5.9677  -12.4636   27.3420 C   0  0  0  0  0  0  0  0  0  0  0  0
    6.8341  -13.4371   25.1978 C   0  0  0  0  0  0  0  0  0  0  0  0
    7.9236  -14.1810   24.4873 C   0  0  2  0  0  0  0  0  0  0  0  0
    7.5289  -14.5773   23.1540 N   0  0  0  0  0  0  0  0  0  0  0  0
    8.2174  -15.3949   25.3303 C   0  0  0  0  0  0  0  0  0  0  0  0
    7.3155  -16.2492   25.5719 O   0  0  0  0  0  0  0  0  0  0  0  0
   10.5431  -19.4212   21.7536 N   0  0  0  0  0  0  0  0  0  0  0  0
   11.6132  -18.5091   21.6493 C   0  0  0  0  0  0  0  0  0  0  0  0
   11.9304  -18.0663   20.4755 N   0  0  0  0  0  0  0  0  0  0  0  0
   12.3446  -18.0666   22.7777 N   0  0  0  0  0  0  0  0  0  0  0  0
   11.9942  -18.4493   24.1218 C   0  0  0  0  0  0  0  0  0  0  0  0
   10.7491  -17.7154   24.6207 C   0  0  0  0  0  0  0  0  0  0  0  0
   10.9331  -17.5024   26.0983 C   0  0  0  0  0  0  0  0  0  0  0  0
    9.7565  -16.8065   26.7376 C   0  0  2  0  0  0  0  0  0  0  0  0
    9.4942  -15.6266   25.8779 N   0  0  0  0  0  0  0  0  0  0  0  0
   10.1385  -16.3511   28.0939 C   0  0  0  0  0  0  0  0  0  0  0  0
   10.2665  -17.2963   29.1196 O   0  0  0  0  0  0  0  0  0  0  0  0
   10.3603  -15.1695   28.4034 O   0  0  0  0  0  0  0  0  0  0  0  0
  2  1  1  6
  2  7  1  0
  2  3  1  0
  4  5  1  0
  4  3  1  0
  5  6  2  0
  7  8  2  0
  9  5  1  0
 11 13  1  0
 11 10  1  6
 12 11  1  0
 14 13  1  1
 15 14  1  0
 15  7  1  0
 16 14  1  0
 17 16  2  0
 18 19  1  0
 19 21  1  0
 20 19  2  0
 21 22  1  0
 22 23  1  0
 23 24  1  0
 25 24  1  6
 25 26  1  0
 25 27  1  0
 26 16  1  0
 27 28  1  0
 29 27  2  0
M  END
$$$$
