ELR.pdb
     RDKit          3D

 29 28  0  0  1  0  0  0  0  0999 V2000
   10.8347  -17.6493   26.8942 N   0  0  0  0  0  0  0  0  0  0  0  0
    9.5897  -18.3221   26.9882 C   0  0  1  0  0  0  0  0  0  0  0  0
    9.2629  -18.9828   28.2769 C   0  0  0  0  0  0  0  0  0  0  0  0
   10.4172  -19.7368   28.8371 C   0  0  0  0  0  0  0  0  0  0  0  0
   10.2044  -20.4432   30.0979 C   0  0  0  0  0  0  0  0  0  0  0  0
   10.7061  -20.1810   31.2046 O   0  0  0  0  0  0  0  0  0  0  0  0
    8.4967  -17.4305   26.5122 C   0  0  0  0  0  0  0  0  0  0  0  0
    7.3720  -17.9761   26.3447 O   0  0  0  0  0  0  0  0  0  0  0  0
    9.3307  -21.5473   30.0535 O   0  0  0  0  0  0  0  0  0  0  0  0
    5.6913  -12.8759   26.1429 C   0  0  0  0  0  0  0  0  0  0  0  0
    6.9579  -12.8497   25.2988 C   0  0  1  0  0  0  0  0  0  0  0  0
    7.4297  -11.4158   25.2459 C   0  0  0  0  0  0  0  0  0  0  0  0
    7.9454  -13.7740   25.9305 C   0  0  0  0  0  0  0  0  0  0  0  0
    7.6991  -15.2298   25.6751 C   0  0  2  0  0  0  0  0  0  0  0  0
    8.7203  -16.0644   26.2678 N   0  0  0  0  0  0  0  0  0  0  0  0
    7.6908  -15.3944   24.1774 C   0  0  0  0  0  0  0  0  0  0  0  0
    6.6259  -15.2287   23.5137 O   0  0  0  0  0  0  0  0  0  0  0  0
    8.5154  -15.0090   17.3355 N   0  0  0  0  0  0  0  0  0  0  0  0
    8.1943  -13.6472   17.1609 C   0  0  0  0  0  0  0  0  0  0  0  0
    8.3088  -13.1362   15.9776 N   0  0  0  0  0  0  0  0  0  0  0  0
    7.7549  -12.8291   18.2293 N   0  0  0  0  0  0  0  0  0  0  0  0
    8.2405  -12.9933   19.5759 C   0  0  0  0  0  0  0  0  0  0  0  0
    8.1848  -14.4517   20.0315 C   0  0  0  0  0  0  0  0  0  0  0  0
    8.6738  -14.4815   21.4537 C   0  0  0  0  0  0  0  0  0  0  0  0
    8.8313  -15.8848   21.9864 C   0  0  2  0  0  0  0  0  0  0  0  0
    8.8550  -15.7354   23.4619 N   0  0  0  0  0  0  0  0  0  0  0  0
   10.1263  -16.4371   21.5274 C   0  0  0  0  0  0  0  0  0  0  0  0
   10.2678  -16.8203   20.1876 O   0  0  0  0  0  0  0  0  0  0  0  0
   11.1222  -16.5919   22.2523 O   0  0  0  0  0  0  0  0  0  0  0  0
  2  1  1  1
  2  7  1  0
  2  3  1  0
  4  5  1  0
  4  3  1  0
  5  6  2  0
  7  8  2  0
  9  5  1  0
 11 13  1  0
 11 10  1  1
 12 11  1  0
 14 13  1  6
 15 14  1  0
 15  7  1  0
 16 14  1  0
 17 16  2  0
 18 19  1  0
 19 21  1  0
 20 19  2  0
 21 22  1  0
 22 23  1  0
 23 24  1  0
 25 24  1  6
 25 26  1  0
 25 27  1  0
 26 16  1  0
 27 28  1  0
 29 27  2  0
M  END
$$$$
