ELR.pdb
     RDKit          3D

 29 28  0  0  1  0  0  0  0  0999 V2000
    7.9826  -17.6448   16.1385 N   0  0  0  0  0  0  0  0  0  0  0  0
    9.0731  -16.9562   15.5485 C   0  0  1  0  0  0  0  0  0  0  0  0
    8.8308  -16.2675   14.2559 C   0  0  0  0  0  0  0  0  0  0  0  0
    7.5879  -16.7380   13.5861 C   0  0  0  0  0  0  0  0  0  0  0  0
    7.2392  -16.1143   12.3120 C   0  0  0  0  0  0  0  0  0  0  0  0
    7.2420  -16.6426   11.1867 O   0  0  0  0  0  0  0  0  0  0  0  0
    9.7136  -16.0670   16.5562 C   0  0  0  0  0  0  0  0  0  0  0  0
   10.8177  -15.5577   16.2213 O   0  0  0  0  0  0  0  0  0  0  0  0
    6.8560  -14.7599   12.3659 O   0  0  0  0  0  0  0  0  0  0  0  0
    6.7524  -13.7402   20.8544 C   0  0  0  0  0  0  0  0  0  0  0  0
    7.6327  -13.7929   19.6136 C   0  0  1  0  0  0  0  0  0  0  0  0
    8.0077  -12.3703   19.2712 C   0  0  0  0  0  0  0  0  0  0  0  0
    8.8103  -14.6554   19.9267 C   0  0  0  0  0  0  0  0  0  0  0  0
    9.7179  -14.9288   18.7662 C   0  0  2  0  0  0  0  0  0  0  0  0
    9.1119  -15.8199   17.8023 N   0  0  0  0  0  0  0  0  0  0  0  0
   10.9611  -15.5512   19.3473 C   0  0  0  0  0  0  0  0  0  0  0  0
   11.0161  -16.7947   19.5768 O   0  0  0  0  0  0  0  0  0  0  0  0
   18.5648  -12.3815   16.6639 N   0  0  0  0  0  0  0  0  0  0  0  0
   18.9354  -13.5122   17.4204 C   0  0  0  0  0  0  0  0  0  0  0  0
   20.1714  -13.8939   17.3887 N   0  0  0  0  0  0  0  0  0  0  0  0
   18.0066  -14.2361   18.2059 N   0  0  0  0  0  0  0  0  0  0  0  0
   16.6009  -13.9204   18.2236 C   0  0  0  0  0  0  0  0  0  0  0  0
   15.8161  -14.8504   19.1494 C   0  0  0  0  0  0  0  0  0  0  0  0
   14.3734  -14.4334   19.0629 C   0  0  0  0  0  0  0  0  0  0  0  0
   13.4436  -15.4072   19.7446 C   0  0  2  0  0  0  0  0  0  0  0  0
   12.1009  -14.7834   19.6553 N   0  0  0  0  0  0  0  0  0  0  0  0
   13.8320  -15.5359   21.1678 C   0  0  0  0  0  0  0  0  0  0  0  0
   14.9746  -16.2755   21.4986 O   0  0  0  0  0  0  0  0  0  0  0  0
   13.2113  -15.0286   22.1157 O   0  0  0  0  0  0  0  0  0  0  0  0
  2  1  1  1
  2  7  1  0
  2  3  1  0
  4  5  1  0
  4  3  1  0
  5  6  2  0
  7  8  2  0
  9  5  1  0
 11 13  1  0
 11 10  1  1
 12 11  1  0
 14 13  1  1
 15 14  1  0
 15  7  1  0
 16 14  1  0
 17 16  2  0
 18 19  1  0
 19 21  1  0
 20 19  2  0
 21 22  1  0
 22 23  1  0
 23 24  1  0
 25 24  1  6
 25 26  1  0
 25 27  1  0
 26 16  1  0
 27 28  1  0
 29 27  2  0
M  END
$$$$
