ELR.pdb
     RDKit          3D

 29 28  0  0  1  0  0  0  0  0999 V2000
    6.7604  -16.5130   21.9127 N   0  0  0  0  0  0  0  0  0  0  0  0
    8.1271  -16.2197   21.6722 C   0  0  1  0  0  0  0  0  0  0  0  0
    8.4458  -15.3228   20.5329 C   0  0  0  0  0  0  0  0  0  0  0  0
    7.9281  -15.8433   19.2384 C   0  0  0  0  0  0  0  0  0  0  0  0
    8.1185  -15.0046   18.0577 C   0  0  0  0  0  0  0  0  0  0  0  0
    8.6994  -13.9072   17.9964 O   0  0  0  0  0  0  0  0  0  0  0  0
    8.7810  -15.7871   22.9377 C   0  0  0  0  0  0  0  0  0  0  0  0
   10.0296  -15.6174   22.8845 O   0  0  0  0  0  0  0  0  0  0  0  0
    7.5825  -15.4963   16.8514 O   0  0  0  0  0  0  0  0  0  0  0  0
    6.2782  -12.4106   26.4117 C   0  0  0  0  0  0  0  0  0  0  0  0
    7.3081  -13.0675   25.5033 C   0  0  1  0  0  0  0  0  0  0  0  0
    8.4043  -12.0557   25.2661 C   0  0  0  0  0  0  0  0  0  0  0  0
    7.7863  -14.3092   26.1801 C   0  0  0  0  0  0  0  0  0  0  0  0
    8.6767  -15.1789   25.3458 C   0  0  2  0  0  0  0  0  0  0  0  0
    8.0381  -15.5847   24.1137 N   0  0  0  0  0  0  0  0  0  0  0  0
    8.9953  -16.3835   26.1932 C   0  0  0  0  0  0  0  0  0  0  0  0
    8.0701  -17.0647   26.7240 O   0  0  0  0  0  0  0  0  0  0  0  0
   14.4916  -18.2898   23.5426 N   0  0  0  0  0  0  0  0  0  0  0  0
   13.8331  -19.4222   23.0209 C   0  0  0  0  0  0  0  0  0  0  0  0
   13.9067  -19.6431   21.7480 N   0  0  0  0  0  0  0  0  0  0  0  0
   13.1009  -20.3165   23.8381 N   0  0  0  0  0  0  0  0  0  0  0  0
   12.7821  -20.0204   25.2117 C   0  0  0  0  0  0  0  0  0  0  0  0
   12.2150  -18.6101   25.3773 C   0  0  0  0  0  0  0  0  0  0  0  0
   12.0334  -18.3855   26.8535 C   0  0  0  0  0  0  0  0  0  0  0  0
   10.6157  -18.0171   27.2167 C   0  0  2  0  0  0  0  0  0  0  0  0
   10.3213  -16.7966   26.4269 N   0  0  0  0  0  0  0  0  0  0  0  0
   10.5511  -17.6955   28.6607 C   0  0  0  0  0  0  0  0  0  0  0  0
   10.5627  -16.3535   29.0616 O   0  0  0  0  0  0  0  0  0  0  0  0
   10.4858  -18.5404   29.5679 O   0  0  0  0  0  0  0  0  0  0  0  0
  2  1  1  1
  2  7  1  0
  2  3  1  0
  4  5  1  0
  4  3  1  0
  5  6  2  0
  7  8  2  0
  9  5  1  0
 11 13  1  0
 11 10  1  1
 12 11  1  0
 14 13  1  1
 15 14  1  0
 15  7  1  0
 16 14  1  0
 17 16  2  0
 18 19  1  0
 19 21  1  0
 20 19  2  0
 21 22  1  0
 22 23  1  0
 23 24  1  0
 25 24  1  6
 25 26  1  0
 25 27  1  0
 26 16  1  0
 27 28  1  0
 29 27  2  0
M  END
$$$$
