ELR.pdb
     RDKit          3D

 29 28  0  0  1  0  0  0  0  0999 V2000
   10.0026  -17.9268   18.3812 N   0  0  0  0  0  0  0  0  0  0  0  0
   11.1785  -17.2840   18.8455 C   0  0  1  0  0  0  0  0  0  0  0  0
   12.1323  -16.7792   17.8259 C   0  0  0  0  0  0  0  0  0  0  0  0
   12.0925  -17.5740   16.5684 C   0  0  0  0  0  0  0  0  0  0  0  0
   13.0883  -17.2582   15.5474 C   0  0  0  0  0  0  0  0  0  0  0  0
   12.9046  -16.6631   14.4716 O   0  0  0  0  0  0  0  0  0  0  0  0
   10.8233  -16.2490   19.8549 C   0  0  0  0  0  0  0  0  0  0  0  0
   11.7923  -15.6806   20.4280 O   0  0  0  0  0  0  0  0  0  0  0  0
   14.4070  -17.6760   15.8133 O   0  0  0  0  0  0  0  0  0  0  0  0
    6.3138  -12.9477   19.2992 C   0  0  0  0  0  0  0  0  0  0  0  0
    7.7450  -13.4363   19.4738 C   0  0  1  0  0  0  0  0  0  0  0  0
    8.6296  -12.2137   19.5383 C   0  0  0  0  0  0  0  0  0  0  0  0
    7.7945  -14.2677   20.7128 C   0  0  0  0  0  0  0  0  0  0  0  0
    9.1394  -14.8475   21.0296 C   0  0  2  0  0  0  0  0  0  0  0  0
    9.4833  -15.9355   20.1416 N   0  0  0  0  0  0  0  0  0  0  0  0
    9.0573  -15.3372   22.4522 C   0  0  0  0  0  0  0  0  0  0  0  0
    8.8822  -14.5254   23.4073 O   0  0  0  0  0  0  0  0  0  0  0  0
   10.3745  -16.7465   29.4912 N   0  0  0  0  0  0  0  0  0  0  0  0
   10.4485  -15.3854   29.1305 C   0  0  0  0  0  0  0  0  0  0  0  0
    9.9610  -14.5068   29.9458 N   0  0  0  0  0  0  0  0  0  0  0  0
   11.0337  -14.9540   27.9158 N   0  0  0  0  0  0  0  0  0  0  0  0
   11.4771  -15.8780   26.9030 C   0  0  0  0  0  0  0  0  0  0  0  0
   10.3242  -16.7123   26.3440 C   0  0  0  0  0  0  0  0  0  0  0  0
   10.2329  -16.3986   24.8757 C   0  0  0  0  0  0  0  0  0  0  0  0
    9.1318  -17.1642   24.1837 C   0  0  2  0  0  0  0  0  0  0  0  0
    9.1704  -16.7036   22.7743 N   0  0  0  0  0  0  0  0  0  0  0  0
    7.8301  -16.7956   24.7858 C   0  0  0  0  0  0  0  0  0  0  0  0
    7.1455  -17.7401   25.5611 O   0  0  0  0  0  0  0  0  0  0  0  0
    7.2825  -15.6890   24.6558 O   0  0  0  0  0  0  0  0  0  0  0  0
  2  1  1  6
  2  7  1  0
  2  3  1  0
  4  5  1  0
  4  3  1  0
  5  6  2  0
  7  8  2  0
  9  5  1  0
 11 13  1  0
 11 10  1  1
 12 11  1  0
 14 13  1  6
 15 14  1  0
 15  7  1  0
 16 14  1  0
 17 16  2  0
 18 19  1  0
 19 21  1  0
 20 19  2  0
 21 22  1  0
 22 23  1  0
 23 24  1  0
 25 24  1  1
 25 26  1  0
 25 27  1  0
 26 16  1  0
 27 28  1  0
 29 27  2  0
M  END
$$$$
