ELR.pdb
     RDKit          3D

 29 28  0  0  1  0  0  0  0  0999 V2000
    7.8510  -20.3741   27.3448 N   0  0  0  0  0  0  0  0  0  0  0  0
    8.2457  -19.1033   27.8355 C   0  0  1  0  0  0  0  0  0  0  0  0
    9.6834  -18.9050   28.1476 C   0  0  0  0  0  0  0  0  0  0  0  0
   10.5506  -19.0521   26.9472 C   0  0  0  0  0  0  0  0  0  0  0  0
   11.9520  -18.6634   27.0844 C   0  0  0  0  0  0  0  0  0  0  0  0
   12.5233  -18.2455   28.1064 O   0  0  0  0  0  0  0  0  0  0  0  0
    7.7003  -18.0315   26.9579 C   0  0  0  0  0  0  0  0  0  0  0  0
    6.9549  -18.4149   26.0156 O   0  0  0  0  0  0  0  0  0  0  0  0
   12.7457  -18.7754   25.9261 O   0  0  0  0  0  0  0  0  0  0  0  0
    6.0096  -12.9278   26.6029 C   0  0  0  0  0  0  0  0  0  0  0  0
    7.3688  -13.1476   25.9535 C   0  0  1  0  0  0  0  0  0  0  0  0
    8.1380  -11.8537   26.0784 C   0  0  0  0  0  0  0  0  0  0  0  0
    8.0251  -14.2948   26.6477 C   0  0  0  0  0  0  0  0  0  0  0  0
    7.3953  -15.6302   26.3920 C   0  0  2  0  0  0  0  0  0  0  0  0
    8.0074  -16.6776   27.1785 N   0  0  0  0  0  0  0  0  0  0  0  0
    7.5789  -15.9026   24.9215 C   0  0  0  0  0  0  0  0  0  0  0  0
    6.5838  -15.9378   24.1402 O   0  0  0  0  0  0  0  0  0  0  0  0
    7.6339  -13.9510   17.1937 N   0  0  0  0  0  0  0  0  0  0  0  0
    7.9383  -12.9317   18.1191 C   0  0  0  0  0  0  0  0  0  0  0  0
    7.9940  -11.7115   17.6921 N   0  0  0  0  0  0  0  0  0  0  0  0
    8.1826  -13.1987   19.4876 N   0  0  0  0  0  0  0  0  0  0  0  0
    8.4911  -14.5202   19.9719 C   0  0  0  0  0  0  0  0  0  0  0  0
    7.7132  -14.8609   21.2433 C   0  0  0  0  0  0  0  0  0  0  0  0
    8.7003  -14.8306   22.3779 C   0  0  0  0  0  0  0  0  0  0  0  0
    9.0389  -16.2083   22.8925 C   0  0  2  0  0  0  0  0  0  0  0  0
    8.8517  -16.1267   24.3616 N   0  0  0  0  0  0  0  0  0  0  0  0
   10.4588  -16.5041   22.5937 C   0  0  0  0  0  0  0  0  0  0  0  0
   10.8196  -16.8693   21.2905 O   0  0  0  0  0  0  0  0  0  0  0  0
   11.3788  -16.4533   23.4257 O   0  0  0  0  0  0  0  0  0  0  0  0
  2  1  1  6
  2  7  1  0
  2  3  1  0
  4  5  1  0
  4  3  1  0
  5  6  2  0
  7  8  2  0
  9  5  1  0
 11 13  1  0
 11 10  1  1
 12 11  1  0
 14 13  1  1
 15 14  1  0
 15  7  1  0
 16 14  1  0
 17 16  2  0
 18 19  1  0
 19 21  1  0
 20 19  2  0
 21 22  1  0
 22 23  1  0
 23 24  1  0
 25 24  1  6
 25 26  1  0
 25 27  1  0
 26 16  1  0
 27 28  1  0
 29 27  2  0
M  END
$$$$
