HDE.pdb
     RDKit          3D

 28 28  0  0  1  0  0  0  0  0999 V2000
    9.6473  -16.1714   18.1715 N   0  0  0  0  0  0  0  0  0  0  0  0
   10.5253  -15.0584   18.3936 C   0  0  1  0  0  0  0  0  0  0  0  0
   10.0102  -14.2270   19.5559 C   0  0  0  0  0  0  0  0  0  0  0  0
    8.6715  -13.7017   19.1769 C   0  0  0  0  0  0  0  0  0  0  0  0
    8.0555  -13.8597   17.9414 C   0  0  0  0  0  0  0  0  0  0  0  0
    6.8576  -13.2500   17.9654 N   0  0  0  0  0  0  0  0  0  0  0  0
    6.6975  -12.7112   19.1784 C   0  0  0  0  0  0  0  0  0  0  0  0
    7.8007  -12.9829   19.9224 N   0  0  0  0  0  0  0  0  0  0  0  0
   11.9626  -15.4811   18.6277 C   0  0  0  0  0  0  0  0  0  0  0  0
   12.1448  -16.5687   19.1504 O   0  0  0  0  0  0  0  0  0  0  0  0
   13.0162  -14.6296   18.2453 N   0  0  0  0  0  0  0  0  0  0  0  0
   14.3965  -14.6798   18.5165 C   0  0  1  0  0  0  0  0  0  0  0  0
   15.3060  -13.7806   17.6775 C   0  0  0  0  0  0  0  0  0  0  0  0
   16.7388  -14.1153   17.7867 C   0  0  0  0  0  0  0  0  0  0  0  0
   17.1487  -15.1199   18.4162 O   0  0  0  0  0  0  0  0  0  0  0  0
   14.7980  -14.5609   19.9260 C   0  0  0  0  0  0  0  0  0  0  0  0
   14.9482  -13.3979   20.4265 O   0  0  0  0  0  0  0  0  0  0  0  0
   17.7295  -13.3174   17.1786 O   0  0  0  0  0  0  0  0  0  0  0  0
   15.0353  -15.6553   20.7865 N   0  0  0  0  0  0  0  0  0  0  0  0
   15.2689  -15.5451   22.2191 C   0  0  1  0  0  0  0  0  0  0  0  0
   14.2970  -16.3105   23.0270 C   0  0  0  0  0  0  0  0  0  0  0  0
   12.8676  -15.9878   22.9710 C   0  0  0  0  0  0  0  0  0  0  0  0
   11.9035  -16.8518   23.6448 C   0  0  0  0  0  0  0  0  0  0  0  0
   12.1591  -17.9052   24.2683 O   0  0  0  0  0  0  0  0  0  0  0  0
   16.6782  -15.7045   22.5262 C   0  0  0  0  0  0  0  0  0  0  0  0
   17.1145  -15.5509   23.7013 O   0  0  0  0  0  0  0  0  0  0  0  0
   10.5281  -16.5283   23.6326 O   0  0  0  0  0  0  0  0  0  0  0  0
   17.5971  -16.0308   21.5386 O   0  0  0  0  0  0  0  0  0  0  0  0
  2  1  1  1
  2  9  1  0
  2  3  1  0
  3  4  1  0
  4  5  2  0
  5  6  1  0
  7  6  1  0
  8  4  1  0
  8  7  2  0
  9 11  1  0
 10  9  2  0
 11 12  1  0
 12 16  1  0
 13 14  1  0
 12 13  1  6
 14 18  1  0
 15 14  2  0
 16 17  2  0
 19 16  1  0
 19 20  1  0
 20 25  1  0
 20 21  1  1
 22 21  1  0
 23 24  2  0
 23 22  1  0
 25 26  2  0
 25 28  1  0
 27 23  1  0
M  END
$$$$
