HDE.pdb
     RDKit          3D

 28 28  0  0  1  0  0  0  0  0999 V2000
    8.8007  -16.3220   19.0373 N   0  0  0  0  0  0  0  0  0  0  0  0
    8.7116  -15.2340   19.9687 C   0  0  1  0  0  0  0  0  0  0  0  0
    7.3770  -14.5281   19.8016 C   0  0  0  0  0  0  0  0  0  0  0  0
    7.2657  -14.1035   18.3806 C   0  0  0  0  0  0  0  0  0  0  0  0
    7.7389  -12.9102   17.8486 C   0  0  0  0  0  0  0  0  0  0  0  0
    7.4571  -12.8714   16.5348 N   0  0  0  0  0  0  0  0  0  0  0  0
    6.8199  -14.0037   16.2198 C   0  0  0  0  0  0  0  0  0  0  0  0
    6.6996  -14.7598   17.3415 N   0  0  0  0  0  0  0  0  0  0  0  0
    8.9138  -15.6727   21.4060 C   0  0  0  0  0  0  0  0  0  0  0  0
    8.8181  -14.8147   22.2685 O   0  0  0  0  0  0  0  0  0  0  0  0
    9.1981  -17.0205   21.6955 N   0  0  0  0  0  0  0  0  0  0  0  0
    9.8492  -17.6181   22.7911 C   0  0  1  0  0  0  0  0  0  0  0  0
    9.3109  -18.9667   23.2723 C   0  0  0  0  0  0  0  0  0  0  0  0
    9.9787  -19.4754   24.4856 C   0  0  0  0  0  0  0  0  0  0  0  0
   10.4165  -18.7144   25.3816 O   0  0  0  0  0  0  0  0  0  0  0  0
   11.3157  -17.7007   22.7238 C   0  0  0  0  0  0  0  0  0  0  0  0
   11.8533  -18.7923   22.3430 O   0  0  0  0  0  0  0  0  0  0  0  0
   10.1559  -20.8571   24.7039 O   0  0  0  0  0  0  0  0  0  0  0  0
   12.1936  -16.6449   23.0546 N   0  0  0  0  0  0  0  0  0  0  0  0
   13.6214  -16.6376   22.7716 C   0  0  1  0  0  0  0  0  0  0  0  0
   13.9928  -15.7140   21.6798 C   0  0  0  0  0  0  0  0  0  0  0  0
   15.3935  -15.5758   21.2683 C   0  0  0  0  0  0  0  0  0  0  0  0
   15.7391  -14.6869   20.1636 C   0  0  0  0  0  0  0  0  0  0  0  0
   14.9486  -13.9693   19.5125 O   0  0  0  0  0  0  0  0  0  0  0  0
   14.3910  -16.5769   24.0003 C   0  0  0  0  0  0  0  0  0  0  0  0
   13.8721  -16.1767   25.0798 O   0  0  0  0  0  0  0  0  0  0  0  0
   17.0803  -14.5757   19.7328 O   0  0  0  0  0  0  0  0  0  0  0  0
   15.7257  -16.9562   24.0325 O   0  0  0  0  0  0  0  0  0  0  0  0
  2  1  1  6
  2  9  1  0
  2  3  1  0
  3  4  1  0
  4  5  2  0
  5  6  1  0
  7  6  1  0
  8  4  1  0
  8  7  2  0
  9 11  1  0
 10  9  2  0
 11 12  1  0
 12 16  1  0
 13 14  1  0
 12 13  1  6
 14 18  1  0
 15 14  2  0
 16 17  2  0
 19 16  1  0
 19 20  1  0
 20 25  1  0
 20 21  1  6
 22 21  1  0
 23 24  2  0
 23 22  1  0
 25 26  2  0
 25 28  1  0
 27 23  1  0
M  END
$$$$
