HDE.pdb
     RDKit          3D

 28 28  0  0  1  0  0  0  0  0999 V2000
   13.4713  -14.8670   13.1614 N   0  0  0  0  0  0  0  0  0  0  0  0
   13.0223  -16.2043   13.4245 C   0  0  1  0  0  0  0  0  0  0  0  0
   14.0658  -17.1966   12.9412 C   0  0  0  0  0  0  0  0  0  0  0  0
   14.3381  -16.9038   11.5088 C   0  0  0  0  0  0  0  0  0  0  0  0
   13.4564  -17.1092   10.4546 C   0  0  0  0  0  0  0  0  0  0  0  0
   14.0467  -16.7324    9.3071 N   0  0  0  0  0  0  0  0  0  0  0  0
   15.2748  -16.2952    9.6035 C   0  0  0  0  0  0  0  0  0  0  0  0
   15.4591  -16.3973   10.9452 N   0  0  0  0  0  0  0  0  0  0  0  0
   12.6927  -16.4367   14.8862 C   0  0  0  0  0  0  0  0  0  0  0  0
   13.4462  -15.9464   15.7115 O   0  0  0  0  0  0  0  0  0  0  0  0
   11.5576  -17.1906   15.2389 N   0  0  0  0  0  0  0  0  0  0  0  0
   11.0403  -17.5588   16.4952 C   0  0  1  0  0  0  0  0  0  0  0  0
    9.5807  -18.0139   16.5430 C   0  0  0  0  0  0  0  0  0  0  0  0
    9.0737  -18.2450   17.9092 C   0  0  0  0  0  0  0  0  0  0  0  0
    9.8033  -18.1391   18.9242 O   0  0  0  0  0  0  0  0  0  0  0  0
   11.8453  -18.4957   17.2927 C   0  0  0  0  0  0  0  0  0  0  0  0
   12.3856  -19.4927   16.7098 O   0  0  0  0  0  0  0  0  0  0  0  0
    7.7286  -18.5951   18.1458 O   0  0  0  0  0  0  0  0  0  0  0  0
   12.0718  -18.3762   18.6816 N   0  0  0  0  0  0  0  0  0  0  0  0
   13.2067  -18.9535   19.3870 C   0  0  1  0  0  0  0  0  0  0  0  0
   14.4795  -18.8185   18.6488 C   0  0  0  0  0  0  0  0  0  0  0  0
   15.7325  -19.3061   19.2340 C   0  0  0  0  0  0  0  0  0  0  0  0
   16.9914  -19.0989   18.5253 C   0  0  0  0  0  0  0  0  0  0  0  0
   17.5506  -18.0012   18.3103 O   0  0  0  0  0  0  0  0  0  0  0  0
   13.1928  -18.5724   20.7871 C   0  0  0  0  0  0  0  0  0  0  0  0
   12.4106  -17.6783   21.2154 O   0  0  0  0  0  0  0  0  0  0  0  0
   17.7037  -20.2017   18.0028 O   0  0  0  0  0  0  0  0  0  0  0  0
   14.0397  -19.1770   21.7055 O   0  0  0  0  0  0  0  0  0  0  0  0
  2  1  1  1
  2  9  1  0
  2  3  1  0
  3  4  1  0
  4  5  2  0
  5  6  1  0
  7  6  1  0
  8  4  1  0
  8  7  2  0
  9 11  1  0
 10  9  2  0
 11 12  1  0
 12 16  1  0
 13 14  1  0
 12 13  1  6
 14 18  1  0
 15 14  2  0
 16 17  2  0
 19 16  1  0
 19 20  1  0
 20 25  1  0
 20 21  1  6
 22 21  1  0
 23 24  2  0
 23 22  1  0
 25 26  2  0
 25 28  1  0
 27 23  1  0
M  END
$$$$
