HDE.pdb
     RDKit          3D

 28 28  0  0  1  0  0  0  0  0999 V2000
    8.7501  -16.3828   18.4025 N   0  0  0  0  0  0  0  0  0  0  0  0
    9.1265  -15.0755   18.8592 C   0  0  1  0  0  0  0  0  0  0  0  0
    7.9560  -14.1216   18.6942 C   0  0  0  0  0  0  0  0  0  0  0  0
    7.6156  -14.0707   17.2474 C   0  0  0  0  0  0  0  0  0  0  0  0
    7.8671  -13.0070   16.3893 C   0  0  0  0  0  0  0  0  0  0  0  0
    7.4200  -13.3177   15.1602 N   0  0  0  0  0  0  0  0  0  0  0  0
    6.8932  -14.5451   15.2149 C   0  0  0  0  0  0  0  0  0  0  0  0
    7.0091  -15.0102   16.4856 N   0  0  0  0  0  0  0  0  0  0  0  0
    9.6259  -15.0743   20.2909 C   0  0  0  0  0  0  0  0  0  0  0  0
   10.0202  -14.0111   20.7420 O   0  0  0  0  0  0  0  0  0  0  0  0
    9.6202  -16.2674   21.0377 N   0  0  0  0  0  0  0  0  0  0  0  0
   10.2454  -16.6062   22.2525 C   0  0  1  0  0  0  0  0  0  0  0  0
    9.5295  -17.6193   23.1474 C   0  0  0  0  0  0  0  0  0  0  0  0
   10.1905  -17.8358   24.4486 C   0  0  0  0  0  0  0  0  0  0  0  0
   11.2471  -17.2427   24.7731 O   0  0  0  0  0  0  0  0  0  0  0  0
   11.6683  -16.9705   22.1845 C   0  0  0  0  0  0  0  0  0  0  0  0
   11.9961  -18.0675   21.6235 O   0  0  0  0  0  0  0  0  0  0  0  0
    9.6598  -18.7257   25.4048 O   0  0  0  0  0  0  0  0  0  0  0  0
   12.7220  -16.1853   22.7021 N   0  0  0  0  0  0  0  0  0  0  0  0
   14.1348  -16.4269   22.4484 C   0  0  1  0  0  0  0  0  0  0  0  0
   14.5587  -16.0247   21.0913 C   0  0  0  0  0  0  0  0  0  0  0  0
   14.5716  -14.6099   20.7062 C   0  0  0  0  0  0  0  0  0  0  0  0
   15.0035  -14.2284   19.3654 C   0  0  0  0  0  0  0  0  0  0  0  0
   15.7021  -13.2359   19.0644 O   0  0  0  0  0  0  0  0  0  0  0  0
   14.9438  -15.9843   23.5688 C   0  0  0  0  0  0  0  0  0  0  0  0
   14.4244  -15.4078   24.5651 O   0  0  0  0  0  0  0  0  0  0  0  0
   14.6328  -15.0112   18.2489 O   0  0  0  0  0  0  0  0  0  0  0  0
   16.3179  -16.1784   23.5849 O   0  0  0  0  0  0  0  0  0  0  0  0
  2  1  1  1
  2  9  1  0
  2  3  1  0
  3  4  1  0
  4  5  2  0
  5  6  1  0
  7  6  1  0
  8  4  1  0
  8  7  2  0
  9 11  1  0
 10  9  2  0
 11 12  1  0
 12 16  1  0
 13 14  1  0
 12 13  1  6
 14 18  1  0
 15 14  2  0
 16 17  2  0
 19 16  1  0
 19 20  1  0
 20 25  1  0
 20 21  1  6
 22 21  1  0
 23 24  2  0
 23 22  1  0
 25 26  2  0
 25 28  1  0
 27 23  1  0
M  END
$$$$
