HDE.pdb
     RDKit          3D

 28 28  0  0  1  0  0  0  0  0999 V2000
   14.8231  -13.1935   17.6970 N   0  0  0  0  0  0  0  0  0  0  0  0
   14.5301  -14.5791   17.9282 C   0  0  1  0  0  0  0  0  0  0  0  0
   15.8262  -15.3665   18.0145 C   0  0  0  0  0  0  0  0  0  0  0  0
   16.3602  -15.5097   16.6339 C   0  0  0  0  0  0  0  0  0  0  0  0
   15.6359  -15.3420   15.4599 C   0  0  0  0  0  0  0  0  0  0  0  0
   16.4465  -15.5527   14.4084 N   0  0  0  0  0  0  0  0  0  0  0  0
   17.6612  -15.8489   14.8817 C   0  0  0  0  0  0  0  0  0  0  0  0
   17.6154  -15.8247   16.2387 N   0  0  0  0  0  0  0  0  0  0  0  0
   13.6801  -14.8019   19.1639 C   0  0  0  0  0  0  0  0  0  0  0  0
   14.0103  -14.2127   20.1803 O   0  0  0  0  0  0  0  0  0  0  0  0
   12.5648  -15.6585   19.1039 N   0  0  0  0  0  0  0  0  0  0  0  0
   11.7391  -16.1812   20.1171 C   0  0  1  0  0  0  0  0  0  0  0  0
   10.5521  -17.0397   19.6768 C   0  0  0  0  0  0  0  0  0  0  0  0
    9.7951  -16.4728   18.5444 C   0  0  0  0  0  0  0  0  0  0  0  0
    9.6795  -15.2368   18.3641 O   0  0  0  0  0  0  0  0  0  0  0  0
   12.4126  -16.8581   21.2351 C   0  0  0  0  0  0  0  0  0  0  0  0
   12.8266  -18.0529   21.0710 O   0  0  0  0  0  0  0  0  0  0  0  0
    9.1610  -17.3002   17.5951 O   0  0  0  0  0  0  0  0  0  0  0  0
   12.6418  -16.2778   22.5021 N   0  0  0  0  0  0  0  0  0  0  0  0
   13.3115  -16.9459   23.6085 C   0  0  1  0  0  0  0  0  0  0  0  0
   14.6442  -16.3819   23.9070 C   0  0  0  0  0  0  0  0  0  0  0  0
   15.6273  -16.1926   22.8356 C   0  0  0  0  0  0  0  0  0  0  0  0
   16.9348  -15.6229   23.1451 C   0  0  0  0  0  0  0  0  0  0  0  0
   17.3468  -15.2800   24.2749 O   0  0  0  0  0  0  0  0  0  0  0  0
   12.3986  -17.1485   24.7182 C   0  0  0  0  0  0  0  0  0  0  0  0
   11.2401  -16.6459   24.7142 O   0  0  0  0  0  0  0  0  0  0  0  0
   17.8795  -15.4094   22.1163 O   0  0  0  0  0  0  0  0  0  0  0  0
   12.7669  -17.9018   25.8241 O   0  0  0  0  0  0  0  0  0  0  0  0
  2  1  1  1
  2  9  1  0
  2  3  1  0
  3  4  1  0
  4  5  2  0
  5  6  1  0
  7  6  1  0
  8  4  1  0
  8  7  2  0
  9 11  1  0
 10  9  2  0
 11 12  1  0
 12 16  1  0
 13 14  1  0
 12 13  1  6
 14 18  1  0
 15 14  2  0
 16 17  2  0
 19 16  1  0
 19 20  1  0
 20 25  1  0
 20 21  1  1
 22 21  1  0
 23 24  2  0
 23 22  1  0
 25 26  2  0
 25 28  1  0
 27 23  1  0
M  END
$$$$
