HDE.pdb
     RDKit          3D

 28 28  0  0  1  0  0  0  0  0999 V2000
    7.7857  -16.9480   20.0658 N   0  0  0  0  0  0  0  0  0  0  0  0
    9.0755  -16.3732   19.8107 C   0  0  1  0  0  0  0  0  0  0  0  0
    9.1047  -14.9416   20.3174 C   0  0  0  0  0  0  0  0  0  0  0  0
    8.0781  -14.1745   19.5627 C   0  0  0  0  0  0  0  0  0  0  0  0
    7.2443  -14.6848   18.5751 C   0  0  0  0  0  0  0  0  0  0  0  0
    6.4507  -13.7010   18.1174 N   0  0  0  0  0  0  0  0  0  0  0  0
    6.7574  -12.5843   18.7853 C   0  0  0  0  0  0  0  0  0  0  0  0
    7.7498  -12.8662   19.6685 N   0  0  0  0  0  0  0  0  0  0  0  0
   10.2086  -17.1817   20.4121 C   0  0  0  0  0  0  0  0  0  0  0  0
    9.9383  -17.8972   21.3630 O   0  0  0  0  0  0  0  0  0  0  0  0
   11.5042  -17.0861   19.8703 N   0  0  0  0  0  0  0  0  0  0  0  0
   12.7274  -17.6478   20.2822 C   0  0  1  0  0  0  0  0  0  0  0  0
   13.7353  -18.0048   19.1883 C   0  0  0  0  0  0  0  0  0  0  0  0
   14.9161  -18.7380   19.6833 C   0  0  0  0  0  0  0  0  0  0  0  0
   14.8232  -19.7059   20.4758 O   0  0  0  0  0  0  0  0  0  0  0  0
   13.4421  -16.9543   21.3639 C   0  0  0  0  0  0  0  0  0  0  0  0
   13.9608  -15.8141   21.1260 O   0  0  0  0  0  0  0  0  0  0  0  0
   16.2215  -18.3874   19.2824 O   0  0  0  0  0  0  0  0  0  0  0  0
   13.6029  -17.4617   22.6721 N   0  0  0  0  0  0  0  0  0  0  0  0
   14.2037  -16.7271   23.7758 C   0  0  1  0  0  0  0  0  0  0  0  0
   13.7291  -17.1777   25.1005 C   0  0  0  0  0  0  0  0  0  0  0  0
   12.2932  -17.2575   25.3871 C   0  0  0  0  0  0  0  0  0  0  0  0
   11.8400  -17.7555   26.6820 C   0  0  0  0  0  0  0  0  0  0  0  0
   12.5609  -18.2151   27.5945 O   0  0  0  0  0  0  0  0  0  0  0  0
   15.6347  -16.5839   23.5826 C   0  0  0  0  0  0  0  0  0  0  0  0
   16.2935  -17.4279   22.9128 O   0  0  0  0  0  0  0  0  0  0  0  0
   10.4645  -17.7483   27.0052 O   0  0  0  0  0  0  0  0  0  0  0  0
   16.3306  -15.5141   24.1280 O   0  0  0  0  0  0  0  0  0  0  0  0
  2  1  1  1
  2  9  1  0
  2  3  1  0
  3  4  1  0
  4  5  2  0
  5  6  1  0
  7  6  1  0
  8  4  1  0
  8  7  2  0
  9 11  1  0
 10  9  2  0
 11 12  1  0
 12 16  1  0
 13 14  1  0
 12 13  1  6
 14 18  1  0
 15 14  2  0
 16 17  2  0
 19 16  1  0
 19 20  1  0
 20 25  1  0
 20 21  1  1
 22 21  1  0
 23 24  2  0
 23 22  1  0
 25 26  2  0
 25 28  1  0
 27 23  1  0
M  END
$$$$
