TFV.pdb
     RDKit          3D

 26 26  0  0  1  0  0  0  0  0999 V2000
    7.4508  -16.3419   19.2003 C   0  0  0  0  0  0  0  0  0  0  0  0
    8.1641  -15.1922   18.4834 C   0  0  1  0  0  0  0  0  0  0  0  0
    7.8452  -15.1516   17.1515 O   0  0  0  0  0  0  0  0  0  0  0  0
    7.7200  -13.9214   19.1553 C   0  0  2  0  0  0  0  0  0  0  0  0
    8.2783  -12.8164   18.3967 N   0  0  0  0  0  0  0  0  0  0  0  0
    8.0918  -13.8476   20.5831 C   0  0  0  0  0  0  0  0  0  0  0  0
    9.3146  -13.6433   20.8983 O   0  0  0  0  0  0  0  0  0  0  0  0
    7.1851  -13.9873   21.6613 N   0  0  0  0  0  0  0  0  0  0  0  0
    7.6251  -13.9060   23.0660 C   0  0  1  0  0  0  0  0  0  0  0  0
    6.6195  -13.1128   23.8702 C   0  0  0  0  0  0  0  0  0  0  0  0
    7.0196  -12.9385   25.2743 C   0  0  0  0  0  0  0  0  0  0  0  0
    6.2656  -13.4823   26.3011 C   0  0  0  0  0  0  0  0  0  0  0  0
    6.6050  -13.3595   27.6198 C   0  0  0  0  0  0  0  0  0  0  0  0
    7.7444  -12.6669   27.9521 C   0  0  0  0  0  0  0  0  0  0  0  0
    8.5225  -12.1112   26.9725 C   0  0  0  0  0  0  0  0  0  0  0  0
    8.1509  -12.2527   25.6309 C   0  0  0  0  0  0  0  0  0  0  0  0
    7.8425  -15.2314   23.6364 C   0  0  0  0  0  0  0  0  0  0  0  0
    6.9648  -16.1289   23.6254 O   0  0  0  0  0  0  0  0  0  0  0  0
   11.7478  -16.9131   24.0175 C   0  0  0  0  0  0  0  0  0  0  0  0
   10.4515  -17.6397   23.9172 C   0  0  2  0  0  0  0  0  0  0  0  0
   10.0624  -17.8409   22.4473 C   0  0  0  0  0  0  0  0  0  0  0  0
    9.3342  -16.9889   24.6884 C   0  0  2  0  0  0  0  0  0  0  0  0
    9.0831  -15.6293   24.2632 N   0  0  0  0  0  0  0  0  0  0  0  0
    9.7316  -16.9600   26.1092 C   0  0  0  0  0  0  0  0  0  0  0  0
    9.7620  -18.0898   26.9132 O   0  0  0  0  0  0  0  0  0  0  0  0
   10.0593  -15.8691   26.6252 O   0  0  0  0  0  0  0  0  0  0  0  0
  2  1  1  1
  3  2  1  0
  4  2  1  0
  4  5  1  6
  6  4  1  0
  6  7  2  0
  8  6  1  0
  9  8  1  0
  9 10  1  1
 11 10  1  0
 11 16  2  0
 12 11  1  0
 13 12  2  0
 13 14  1  0
 14 15  2  0
 15 16  1  0
 17  9  1  0
 17 23  1  0
 18 17  2  0
 20 21  1  6
 20 19  1  0
 20 22  1  0
 22 23  1  6
 22 24  1  0
 24 26  2  0
 24 25  1  0
M  END
$$$$
