TFV.pdb
     RDKit          3D

 26 26  0  0  1  0  0  0  0  0999 V2000
   11.3403  -19.0794   22.4496 C   0  0  0  0  0  0  0  0  0  0  0  0
   12.1695  -18.2336   21.4791 C   0  0  1  0  0  0  0  0  0  0  0  0
   12.6366  -18.9804   20.4296 O   0  0  0  0  0  0  0  0  0  0  0  0
   11.2632  -17.1457   20.9702 C   0  0  2  0  0  0  0  0  0  0  0  0
   11.9925  -16.4246   19.9423 N   0  0  0  0  0  0  0  0  0  0  0  0
   10.7741  -16.2408   22.0305 C   0  0  0  0  0  0  0  0  0  0  0  0
   11.5812  -15.3934   22.5470 O   0  0  0  0  0  0  0  0  0  0  0  0
    9.4521  -16.2315   22.5369 N   0  0  0  0  0  0  0  0  0  0  0  0
    9.0544  -15.3673   23.6631 C   0  0  1  0  0  0  0  0  0  0  0  0
    7.5735  -15.0719   23.5809 C   0  0  0  0  0  0  0  0  0  0  0  0
    7.1321  -14.0800   24.5725 C   0  0  0  0  0  0  0  0  0  0  0  0
    6.3481  -14.4537   25.6515 C   0  0  0  0  0  0  0  0  0  0  0  0
    5.9259  -13.5708   26.6063 C   0  0  0  0  0  0  0  0  0  0  0  0
    6.2907  -12.2502   26.4996 C   0  0  0  0  0  0  0  0  0  0  0  0
    7.0650  -11.8326   25.4508 C   0  0  0  0  0  0  0  0  0  0  0  0
    7.4827  -12.7582   24.4882 C   0  0  0  0  0  0  0  0  0  0  0  0
    9.4124  -15.9620   24.9467 C   0  0  0  0  0  0  0  0  0  0  0  0
    9.4306  -17.2023   25.1401 O   0  0  0  0  0  0  0  0  0  0  0  0
    9.2955  -14.1671   28.9418 C   0  0  0  0  0  0  0  0  0  0  0  0
   10.5445  -14.7756   28.4050 C   0  0  2  0  0  0  0  0  0  0  0  0
   11.5171  -13.6834   27.9432 C   0  0  0  0  0  0  0  0  0  0  0  0
   10.3032  -15.7826   27.3121 C   0  0  2  0  0  0  0  0  0  0  0  0
    9.7769  -15.1801   26.1069 N   0  0  0  0  0  0  0  0  0  0  0  0
    9.3104  -16.7532   27.8119 C   0  0  0  0  0  0  0  0  0  0  0  0
    9.6041  -17.7199   28.7622 O   0  0  0  0  0  0  0  0  0  0  0  0
    8.1435  -16.7121   27.3643 O   0  0  0  0  0  0  0  0  0  0  0  0
  2  1  1  1
  3  2  1  0
  4  2  1  0
  4  5  1  6
  6  4  1  0
  6  7  2  0
  8  6  1  0
  9  8  1  0
  9 10  1  1
 11 10  1  0
 11 16  2  0
 12 11  1  0
 13 12  2  0
 13 14  1  0
 14 15  2  0
 15 16  1  0
 17  9  1  0
 17 23  1  0
 18 17  2  0
 20 21  1  6
 20 19  1  0
 20 22  1  0
 22 23  1  6
 22 24  1  0
 24 26  2  0
 24 25  1  0
M  END
$$$$
