TFV.pdb
     RDKit          3D

 26 26  0  0  1  0  0  0  0  0999 V2000
   11.7703  -19.5487   20.0877 C   0  0  0  0  0  0  0  0  0  0  0  0
   11.4482  -18.6776   21.3050 C   0  0  1  0  0  0  0  0  0  0  0  0
   12.5437  -18.5095   22.1105 O   0  0  0  0  0  0  0  0  0  0  0  0
   10.9928  -17.3450   20.7753 C   0  0  2  0  0  0  0  0  0  0  0  0
   12.0934  -16.7883   20.0091 N   0  0  0  0  0  0  0  0  0  0  0  0
   10.5350  -16.4162   21.8289 C   0  0  0  0  0  0  0  0  0  0  0  0
   11.2813  -15.4305   22.1571 O   0  0  0  0  0  0  0  0  0  0  0  0
    9.3071  -16.5272   22.5246 N   0  0  0  0  0  0  0  0  0  0  0  0
    8.9284  -15.5853   23.5935 C   0  0  1  0  0  0  0  0  0  0  0  0
    7.4334  -15.3583   23.5670 C   0  0  0  0  0  0  0  0  0  0  0  0
    6.9989  -14.3008   24.4916 C   0  0  0  0  0  0  0  0  0  0  0  0
    7.3080  -12.9727   24.2485 C   0  0  0  0  0  0  0  0  0  0  0  0
    6.9137  -11.9539   25.0705 C   0  0  0  0  0  0  0  0  0  0  0  0
    6.1766  -12.2506   26.1917 C   0  0  0  0  0  0  0  0  0  0  0  0
    5.8460  -13.5485   26.4746 C   0  0  0  0  0  0  0  0  0  0  0  0
    6.2631  -14.5712   25.6154 C   0  0  0  0  0  0  0  0  0  0  0  0
    9.3771  -16.0514   24.9016 C   0  0  0  0  0  0  0  0  0  0  0  0
    9.6570  -17.2524   25.1362 O   0  0  0  0  0  0  0  0  0  0  0  0
   10.5442  -13.2225   27.9876 C   0  0  0  0  0  0  0  0  0  0  0  0
   10.0875  -14.5898   28.3622 C   0  0  2  0  0  0  0  0  0  0  0  0
   10.8139  -15.0702   29.6247 C   0  0  0  0  0  0  0  0  0  0  0  0
   10.2160  -15.5947   27.2485 C   0  0  2  0  0  0  0  0  0  0  0  0
    9.5391  -15.1759   26.0406 N   0  0  0  0  0  0  0  0  0  0  0  0
    9.5971  -16.8523   27.7097 C   0  0  0  0  0  0  0  0  0  0  0  0
   10.2902  -17.8286   28.4099 O   0  0  0  0  0  0  0  0  0  0  0  0
    8.3888  -17.0597   27.4631 O   0  0  0  0  0  0  0  0  0  0  0  0
  2  1  1  6
  3  2  1  0
  4  2  1  0
  4  5  1  1
  6  4  1  0
  6  7  2  0
  8  6  1  0
  9  8  1  0
  9 10  1  1
 11 10  1  0
 11 16  2  0
 12 11  1  0
 13 12  2  0
 13 14  1  0
 14 15  2  0
 15 16  1  0
 17  9  1  0
 17 23  1  0
 18 17  2  0
 20 21  1  1
 20 19  1  0
 20 22  1  0
 22 23  1  6
 22 24  1  0
 24 26  2  0
 24 25  1  0
M  END
$$$$
