TFV.pdb
     RDKit          3D

 26 26  0  0  1  0  0  0  0  0999 V2000
   10.2416  -18.0429   18.4657 C   0  0  0  0  0  0  0  0  0  0  0  0
   10.1582  -16.9087   19.4911 C   0  0  1  0  0  0  0  0  0  0  0  0
    9.1686  -16.0148   19.1767 O   0  0  0  0  0  0  0  0  0  0  0  0
    9.8668  -17.5484   20.8213 C   0  0  2  0  0  0  0  0  0  0  0  0
    8.6308  -18.2966   20.6767 N   0  0  0  0  0  0  0  0  0  0  0  0
    9.7944  -16.5832   21.9372 C   0  0  0  0  0  0  0  0  0  0  0  0
   10.8622  -15.9907   22.3181 O   0  0  0  0  0  0  0  0  0  0  0  0
    8.6116  -16.2490   22.6396 N   0  0  0  0  0  0  0  0  0  0  0  0
    8.6159  -15.2989   23.7668 C   0  0  1  0  0  0  0  0  0  0  0  0
    7.2573  -14.6459   23.8885 C   0  0  0  0  0  0  0  0  0  0  0  0
    7.1580  -13.7428   25.0445 C   0  0  0  0  0  0  0  0  0  0  0  0
    7.6950  -12.4669   24.9980 C   0  0  0  0  0  0  0  0  0  0  0  0
    7.6148  -11.5868   26.0412 C   0  0  0  0  0  0  0  0  0  0  0  0
    6.9742  -11.9762   27.1928 C   0  0  0  0  0  0  0  0  0  0  0  0
    6.4272  -13.2276   27.2867 C   0  0  0  0  0  0  0  0  0  0  0  0
    6.5243  -14.1077   26.2032 C   0  0  0  0  0  0  0  0  0  0  0  0
    9.0127  -15.9477   25.0123 C   0  0  0  0  0  0  0  0  0  0  0  0
    8.5370  -17.0470   25.3880 O   0  0  0  0  0  0  0  0  0  0  0  0
   12.6976  -16.4956   25.5523 C   0  0  0  0  0  0  0  0  0  0  0  0
   12.1388  -16.0891   26.8718 C   0  0  2  0  0  0  0  0  0  0  0  0
   12.7920  -16.8948   28.0015 C   0  0  0  0  0  0  0  0  0  0  0  0
   10.6375  -16.1760   26.9433 C   0  0  2  0  0  0  0  0  0  0  0  0
    9.9853  -15.3855   25.9223 N   0  0  0  0  0  0  0  0  0  0  0  0
   10.2235  -15.6565   28.2609 C   0  0  0  0  0  0  0  0  0  0  0  0
   10.2850  -16.4054   29.4268 O   0  0  0  0  0  0  0  0  0  0  0  0
    9.7943  -14.4849   28.3434 O   0  0  0  0  0  0  0  0  0  0  0  0
  2  1  1  6
  3  2  1  0
  4  2  1  0
  4  5  1  6
  6  4  1  0
  6  7  2  0
  8  6  1  0
  9  8  1  0
  9 10  1  1
 11 10  1  0
 11 16  2  0
 12 11  1  0
 13 12  2  0
 13 14  1  0
 14 15  2  0
 15 16  1  0
 17  9  1  0
 17 23  1  0
 18 17  2  0
 20 21  1  1
 20 19  1  0
 20 22  1  0
 22 23  1  6
 22 24  1  0
 24 26  2  0
 24 25  1  0
M  END
$$$$
