TFV.pdb
     RDKit          3D

 26 26  0  0  1  0  0  0  0  0999 V2000
    7.8436  -16.3966   18.8936 C   0  0  0  0  0  0  0  0  0  0  0  0
    8.4636  -15.1683   18.2216 C   0  0  1  0  0  0  0  0  0  0  0  0
    8.2397  -15.1646   16.8699 O   0  0  0  0  0  0  0  0  0  0  0  0
    7.8222  -13.9612   18.8503 C   0  0  2  0  0  0  0  0  0  0  0  0
    8.2210  -12.8056   18.0668 N   0  0  0  0  0  0  0  0  0  0  0  0
    8.1542  -13.7936   20.2800 C   0  0  0  0  0  0  0  0  0  0  0  0
    9.3680  -13.5685   20.6150 O   0  0  0  0  0  0  0  0  0  0  0  0
    7.2177  -13.8625   21.3393 N   0  0  0  0  0  0  0  0  0  0  0  0
    7.6326  -13.7994   22.7525 C   0  0  1  0  0  0  0  0  0  0  0  0
    6.5157  -13.2122   23.5861 C   0  0  0  0  0  0  0  0  0  0  0  0
    6.8730  -13.0744   25.0057 C   0  0  0  0  0  0  0  0  0  0  0  0
    6.2979  -13.8904   25.9659 C   0  0  0  0  0  0  0  0  0  0  0  0
    6.6090  -13.8098   27.2948 C   0  0  0  0  0  0  0  0  0  0  0  0
    7.5333  -12.8801   27.7069 C   0  0  0  0  0  0  0  0  0  0  0  0
    8.1292  -12.0509   26.7950 C   0  0  0  0  0  0  0  0  0  0  0  0
    7.7915  -12.1557   25.4411 C   0  0  0  0  0  0  0  0  0  0  0  0
    8.0413  -15.1091   23.2496 C   0  0  0  0  0  0  0  0  0  0  0  0
    7.3427  -16.1415   23.1001 O   0  0  0  0  0  0  0  0  0  0  0  0
   11.1755  -16.9244   22.3215 C   0  0  0  0  0  0  0  0  0  0  0  0
   11.0857  -16.9965   23.8065 C   0  0  2  0  0  0  0  0  0  0  0  0
   11.5496  -18.3706   24.3052 C   0  0  0  0  0  0  0  0  0  0  0  0
    9.7213  -16.6576   24.3452 C   0  0  2  0  0  0  0  0  0  0  0  0
    9.2822  -15.3354   23.9560 N   0  0  0  0  0  0  0  0  0  0  0  0
    9.8006  -16.7005   25.8180 C   0  0  0  0  0  0  0  0  0  0  0  0
    9.5804  -17.8527   26.5580 O   0  0  0  0  0  0  0  0  0  0  0  0
   10.0794  -15.6527   26.4411 O   0  0  0  0  0  0  0  0  0  0  0  0
  2  1  1  1
  3  2  1  0
  4  2  1  0
  4  5  1  6
  6  4  1  0
  6  7  2  0
  8  6  1  0
  9  8  1  0
  9 10  1  1
 11 10  1  0
 11 16  2  0
 12 11  1  0
 13 12  2  0
 13 14  1  0
 14 15  2  0
 15 16  1  0
 17  9  1  0
 17 23  1  0
 18 17  2  0
 20 21  1  6
 20 19  1  0
 20 22  1  0
 22 23  1  1
 22 24  1  0
 24 26  2  0
 24 25  1  0
M  END
$$$$
