TFV.pdb
     RDKit          3D

 26 26  0  0  1  0  0  0  0  0999 V2000
    8.2557  -18.6407   20.9209 C   0  0  0  0  0  0  0  0  0  0  0  0
    9.3483  -18.1494   19.9672 C   0  0  1  0  0  0  0  0  0  0  0  0
    9.2516  -18.7459   18.7375 O   0  0  0  0  0  0  0  0  0  0  0  0
    9.1667  -16.6621   19.8306 C   0  0  2  0  0  0  0  0  0  0  0  0
   10.1265  -16.2008   18.8436 N   0  0  0  0  0  0  0  0  0  0  0  0
    9.3012  -15.9313   21.1075 C   0  0  0  0  0  0  0  0  0  0  0  0
   10.4607  -15.8031   21.6323 O   0  0  0  0  0  0  0  0  0  0  0  0
    8.2268  -15.3447   21.8185 N   0  0  0  0  0  0  0  0  0  0  0  0
    8.4067  -14.7574   23.1587 C   0  0  1  0  0  0  0  0  0  0  0  0
    7.2514  -13.8324   23.4692 C   0  0  0  0  0  0  0  0  0  0  0  0
    7.3296  -13.2522   24.8180 C   0  0  0  0  0  0  0  0  0  0  0  0
    6.4830  -13.6815   25.8268 C   0  0  0  0  0  0  0  0  0  0  0  0
    6.5280  -13.1830   27.0991 C   0  0  0  0  0  0  0  0  0  0  0  0
    7.4517  -12.2114   27.4010 C   0  0  0  0  0  0  0  0  0  0  0  0
    8.3102  -11.7547   26.4375 C   0  0  0  0  0  0  0  0  0  0  0  0
    8.2417  -12.2830   25.1436 C   0  0  0  0  0  0  0  0  0  0  0  0
    8.5571  -15.7893   24.1795 C   0  0  0  0  0  0  0  0  0  0  0  0
    7.7124  -16.7015   24.3540 O   0  0  0  0  0  0  0  0  0  0  0  0
   11.5407  -18.0476   24.2489 C   0  0  0  0  0  0  0  0  0  0  0  0
   11.3297  -17.5892   25.6502 C   0  0  2  0  0  0  0  0  0  0  0  0
   11.6387  -18.7220   26.6368 C   0  0  0  0  0  0  0  0  0  0  0  0
    9.9599  -17.0153   25.8970 C   0  0  2  0  0  0  0  0  0  0  0  0
    9.6875  -15.8541   25.0785 N   0  0  0  0  0  0  0  0  0  0  0  0
    9.8976  -16.6043   27.3129 C   0  0  0  0  0  0  0  0  0  0  0  0
    9.5178  -17.4594   28.3367 O   0  0  0  0  0  0  0  0  0  0  0  0
   10.1998  -15.4296   27.6172 O   0  0  0  0  0  0  0  0  0  0  0  0
  2  1  1  1
  3  2  1  0
  4  2  1  0
  4  5  1  6
  6  4  1  0
  6  7  2  0
  8  6  1  0
  9  8  1  0
  9 10  1  1
 11 10  1  0
 11 16  2  0
 12 11  1  0
 13 12  2  0
 13 14  1  0
 14 15  2  0
 15 16  1  0
 17  9  1  0
 17 23  1  0
 18 17  2  0
 20 21  1  1
 20 19  1  0
 20 22  1  0
 22 23  1  6
 22 24  1  0
 24 26  2  0
 24 25  1  0
M  END
$$$$
