TFV.pdb
     RDKit          3D

 26 26  0  0  1  0  0  0  0  0999 V2000
   10.8142  -19.1743   22.2786 C   0  0  0  0  0  0  0  0  0  0  0  0
   11.7144  -18.3409   21.3622 C   0  0  1  0  0  0  0  0  0  0  0  0
   12.0974  -19.0467   20.2520 O   0  0  0  0  0  0  0  0  0  0  0  0
   10.9150  -17.1343   20.9514 C   0  0  2  0  0  0  0  0  0  0  0  0
   11.7160  -16.3943   19.9927 N   0  0  0  0  0  0  0  0  0  0  0  0
   10.5002  -16.2863   22.0876 C   0  0  0  0  0  0  0  0  0  0  0  0
   11.3627  -15.5201   22.6401 O   0  0  0  0  0  0  0  0  0  0  0  0
    9.1936  -16.2484   22.6314 N   0  0  0  0  0  0  0  0  0  0  0  0
    8.8449  -15.3700   23.7628 C   0  0  1  0  0  0  0  0  0  0  0  0
    7.3860  -14.9813   23.6757 C   0  0  0  0  0  0  0  0  0  0  0  0
    6.9981  -13.9850   24.6851 C   0  0  0  0  0  0  0  0  0  0  0  0
    6.2735  -14.3540   25.8064 C   0  0  0  0  0  0  0  0  0  0  0  0
    5.9029  -13.4669   26.7785 C   0  0  0  0  0  0  0  0  0  0  0  0
    6.2608  -12.1468   26.6465 C   0  0  0  0  0  0  0  0  0  0  0  0
    6.9774  -11.7337   25.5557 C   0  0  0  0  0  0  0  0  0  0  0  0
    7.3431  -12.6635   24.5761 C   0  0  0  0  0  0  0  0  0  0  0  0
    9.1576  -15.9965   25.0431 C   0  0  0  0  0  0  0  0  0  0  0  0
    9.0820  -17.2356   25.2303 O   0  0  0  0  0  0  0  0  0  0  0  0
    9.3759  -14.2717   29.0615 C   0  0  0  0  0  0  0  0  0  0  0  0
   10.5684  -14.9009   28.4286 C   0  0  2  0  0  0  0  0  0  0  0  0
   11.5351  -13.8247   27.9193 C   0  0  0  0  0  0  0  0  0  0  0  0
   10.2258  -15.8805   27.3379 C   0  0  2  0  0  0  0  0  0  0  0  0
    9.5808  -15.2503   26.2067 N   0  0  0  0  0  0  0  0  0  0  0  0
    9.2915  -16.8712   27.9063 C   0  0  0  0  0  0  0  0  0  0  0  0
    9.6561  -17.7877   28.8814 O   0  0  0  0  0  0  0  0  0  0  0  0
    8.1103  -16.8955   27.4967 O   0  0  0  0  0  0  0  0  0  0  0  0
  2  1  1  1
  3  2  1  0
  4  2  1  0
  4  5  1  6
  6  4  1  0
  6  7  2  0
  8  6  1  0
  9  8  1  0
  9 10  1  1
 11 10  1  0
 11 16  2  0
 12 11  1  0
 13 12  2  0
 13 14  1  0
 14 15  2  0
 15 16  1  0
 17  9  1  0
 17 23  1  0
 18 17  2  0
 20 21  1  6
 20 19  1  0
 20 22  1  0
 22 23  1  6
 22 24  1  0
 24 26  2  0
 24 25  1  0
M  END
$$$$
