TFV.pdb
     RDKit          3D

 26 26  0  0  1  0  0  0  0  0999 V2000
    8.0565  -18.5275   18.3434 C   0  0  0  0  0  0  0  0  0  0  0  0
    8.3688  -18.0080   19.7495 C   0  0  1  0  0  0  0  0  0  0  0  0
    9.4549  -18.6421   20.2931 O   0  0  0  0  0  0  0  0  0  0  0  0
    8.6497  -16.5361   19.6146 C   0  0  2  0  0  0  0  0  0  0  0  0
    9.8046  -16.3969   18.7455 N   0  0  0  0  0  0  0  0  0  0  0  0
    8.8535  -15.8530   20.9085 C   0  0  0  0  0  0  0  0  0  0  0  0
   10.0405  -15.7367   21.3710 O   0  0  0  0  0  0  0  0  0  0  0  0
    7.8187  -15.3009   21.7013 N   0  0  0  0  0  0  0  0  0  0  0  0
    8.0763  -14.7416   23.0407 C   0  0  1  0  0  0  0  0  0  0  0  0
    6.8774  -13.9415   23.4984 C   0  0  0  0  0  0  0  0  0  0  0  0
    7.0524  -13.3650   24.8396 C   0  0  0  0  0  0  0  0  0  0  0  0
    7.8289  -12.2342   25.0315 C   0  0  0  0  0  0  0  0  0  0  0  0
    8.0090  -11.6537   26.2562 C   0  0  0  0  0  0  0  0  0  0  0  0
    7.3960  -12.2099   27.3531 C   0  0  0  0  0  0  0  0  0  0  0  0
    6.6184  -13.3279   27.2139 C   0  0  0  0  0  0  0  0  0  0  0  0
    6.4516  -13.9009   25.9483 C   0  0  0  0  0  0  0  0  0  0  0  0
    8.4220  -15.7859   23.9996 C   0  0  0  0  0  0  0  0  0  0  0  0
    7.7171  -16.8101   24.1732 O   0  0  0  0  0  0  0  0  0  0  0  0
   11.7748  -17.5017   23.8114 C   0  0  0  0  0  0  0  0  0  0  0  0
   11.5252  -17.2067   25.2498 C   0  0  2  0  0  0  0  0  0  0  0  0
   12.0380  -18.3541   26.1289 C   0  0  0  0  0  0  0  0  0  0  0  0
   10.0865  -16.8892   25.5594 C   0  0  2  0  0  0  0  0  0  0  0  0
    9.6025  -15.7359   24.8326 N   0  0  0  0  0  0  0  0  0  0  0  0
    9.9959  -16.5943   27.0024 C   0  0  0  0  0  0  0  0  0  0  0  0
    9.9319  -15.3061   27.5124 O   0  0  0  0  0  0  0  0  0  0  0  0
    9.9749  -17.5442   27.8154 O   0  0  0  0  0  0  0  0  0  0  0  0
  2  1  1  6
  3  2  1  0
  4  2  1  0
  4  5  1  6
  6  4  1  0
  6  7  2  0
  8  6  1  0
  9  8  1  0
  9 10  1  1
 11 10  1  0
 11 16  2  0
 12 11  1  0
 13 12  2  0
 13 14  1  0
 14 15  2  0
 15 16  1  0
 17  9  1  0
 17 23  1  0
 18 17  2  0
 20 21  1  1
 20 19  1  0
 20 22  1  0
 22 23  1  6
 22 24  1  0
 24 26  2  0
 24 25  1  0
M  END
$$$$
