CPT.pdb
     RDKit          3D

 21 21  0  0  1  0  0  0  0  0999 V2000
   24.5937  -19.5466   -9.4740 N   0  0  0  0  0  0  0  0  0  0  0  0
   25.2336  -20.5973  -10.2159 C   0  0  1  0  0  0  0  0  0  0  0  0
   24.2389  -21.6749  -10.6333 C   0  0  0  0  0  0  0  0  0  0  0  0
   23.5497  -22.4196   -9.1133 S   0  0  0  0  0  0  0  0  0  0  0  0
   25.8675  -20.0214  -11.4228 C   0  0  0  0  0  0  0  0  0  0  0  0
   25.2240  -19.1752  -12.1158 O   0  0  0  0  0  0  0  0  0  0  0  0
   27.1790  -20.3684  -11.8567 N   0  0  0  0  0  0  0  0  0  0  0  0
   28.1023  -21.2832  -11.2435 C   0  0  0  0  0  0  0  0  0  0  0  0
   29.3183  -21.3036  -12.0962 C   0  0  0  0  0  0  0  0  0  0  0  0
   29.2735  -20.0058  -12.8582 C   0  0  0  0  0  0  0  0  0  0  0  0
   27.7884  -19.8048  -13.0320 C   0  0  1  0  0  0  0  0  0  0  0  0
   27.2466  -20.3565  -14.2850 C   0  0  0  0  0  0  0  0  0  0  0  0
   26.6866  -21.4860  -14.2609 O   0  0  0  0  0  0  0  0  0  0  0  0
   24.8176  -18.2172  -15.5562 C   0  0  0  0  0  0  0  0  0  0  0  0
   24.9276  -19.6379  -16.0443 C   0  0  1  0  0  0  0  0  0  0  0  0
   23.9782  -19.8675  -17.0319 O   0  0  0  0  0  0  0  0  0  0  0  0
   26.3217  -19.9562  -16.5449 C   0  0  2  0  0  0  0  0  0  0  0  0
   27.3142  -19.6925  -15.5332 N   0  0  0  0  0  0  0  0  0  0  0  0
   26.6212  -19.2465  -17.8176 C   0  0  0  0  0  0  0  0  0  0  0  0
   26.0310  -19.5896  -18.8717 O   0  0  0  0  0  0  0  0  0  0  0  0
   27.5305  -18.2190  -17.8779 O   0  0  0  0  0  0  0  0  0  0  0  0
  2  1  1  6
  3  2  1  0
  4  3  1  0
  5  7  1  0
  5  2  1  0
  6  5  2  0
  7  8  1  0
  9  8  1  0
 10  9  1  0
 11 10  1  0
 11 12  1  6
 11  7  1  0
 12 18  1  0
 13 12  2  0
 15 14  1  6
 15 16  1  0
 17 15  1  0
 17 18  1  1
 19 17  1  0
 19 21  1  0
 20 19  2  0
M  END
$$$$
