CPT.pdb
     RDKit          3D

 21 21  0  0  1  0  0  0  0  0999 V2000
   20.0457  -12.9976  -16.8318 N   0  0  0  0  0  0  0  0  0  0  0  0
   21.0650  -12.1004  -17.3008 C   0  0  1  0  0  0  0  0  0  0  0  0
   20.6167  -11.3447  -18.5468 C   0  0  0  0  0  0  0  0  0  0  0  0
   20.5185  -12.5430  -19.9232 S   0  0  0  0  0  0  0  0  0  0  0  0
   21.3877  -11.1316  -16.2295 C   0  0  0  0  0  0  0  0  0  0  0  0
   20.4447  -10.6289  -15.5451 O   0  0  0  0  0  0  0  0  0  0  0  0
   22.7171  -10.7258  -15.9187 N   0  0  0  0  0  0  0  0  0  0  0  0
   23.9415  -11.1506  -16.5398 C   0  0  0  0  0  0  0  0  0  0  0  0
   25.0434  -10.4188  -15.8640 C   0  0  0  0  0  0  0  0  0  0  0  0
   24.4746  -10.0183  -14.5287 C   0  0  0  0  0  0  0  0  0  0  0  0
   23.0236   -9.7878  -14.8714 C   0  0  1  0  0  0  0  0  0  0  0  0
   22.7010   -8.3965  -15.2291 C   0  0  0  0  0  0  0  0  0  0  0  0
   23.0108   -7.9753  -16.3766 O   0  0  0  0  0  0  0  0  0  0  0  0
   19.7123   -6.9808  -16.1153 C   0  0  0  0  0  0  0  0  0  0  0  0
   20.2019   -6.0520  -15.0354 C   0  0  1  0  0  0  0  0  0  0  0  0
   19.5095   -6.2995  -13.8569 O   0  0  0  0  0  0  0  0  0  0  0  0
   21.6972   -6.1714  -14.8235 C   0  0  2  0  0  0  0  0  0  0  0  0
   22.0565   -7.4871  -14.3567 N   0  0  0  0  0  0  0  0  0  0  0  0
   22.2095   -5.1022  -13.9248 C   0  0  0  0  0  0  0  0  0  0  0  0
   22.2499   -3.9157  -14.3344 O   0  0  0  0  0  0  0  0  0  0  0  0
   22.6435   -5.3729  -12.6503 O   0  0  0  0  0  0  0  0  0  0  0  0
  2  1  1  1
  3  2  1  0
  4  3  1  0
  5  7  1  0
  5  2  1  0
  6  5  2  0
  7  8  1  0
  9  8  1  0
 10  9  1  0
 11 10  1  0
 11 12  1  6
 11  7  1  0
 12 18  1  0
 13 12  2  0
 15 14  1  6
 15 16  1  0
 17 15  1  0
 17 18  1  1
 19 17  1  0
 19 21  1  0
 20 19  2  0
M  END
$$$$
