CPT.pdb
     RDKit          3D

 21 21  0  0  1  0  0  0  0  0999 V2000
   28.4846  -21.7767  -14.8699 N   0  0  0  0  0  0  0  0  0  0  0  0
   27.9094  -20.7060  -14.1040 C   0  0  1  0  0  0  0  0  0  0  0  0
   27.8016  -19.4251  -14.9239 C   0  0  0  0  0  0  0  0  0  0  0  0
   27.1596  -18.1112  -13.8278 S   0  0  0  0  0  0  0  0  0  0  0  0
   26.5615  -21.1089  -13.6447 C   0  0  0  0  0  0  0  0  0  0  0  0
   25.8005  -21.7418  -14.4390 O   0  0  0  0  0  0  0  0  0  0  0  0
   26.0627  -20.8221  -12.3417 N   0  0  0  0  0  0  0  0  0  0  0  0
   26.6797  -20.0343  -11.3102 C   0  0  0  0  0  0  0  0  0  0  0  0
   25.7449  -20.0285  -10.1559 C   0  0  0  0  0  0  0  0  0  0  0  0
   24.8843  -21.2480  -10.3539 C   0  0  0  0  0  0  0  0  0  0  0  0
   24.8037  -21.3240  -11.8585 C   0  0  1  0  0  0  0  0  0  0  0  0
   23.6432  -20.6268  -12.4373 C   0  0  0  0  0  0  0  0  0  0  0  0
   23.7170  -19.3840  -12.6371 O   0  0  0  0  0  0  0  0  0  0  0  0
   22.4643  -20.7060  -15.6914 C   0  0  0  0  0  0  0  0  0  0  0  0
   21.2179  -20.9567  -14.8839 C   0  0  1  0  0  0  0  0  0  0  0  0
   20.8697  -22.2989  -14.9664 O   0  0  0  0  0  0  0  0  0  0  0  0
   21.3838  -20.5251  -13.4412 C   0  0  2  0  0  0  0  0  0  0  0  0
   22.4322  -21.2695  -12.7893 N   0  0  0  0  0  0  0  0  0  0  0  0
   20.0988  -20.6031  -12.6956 C   0  0  0  0  0  0  0  0  0  0  0  0
   19.9854  -21.4096  -11.7397 O   0  0  0  0  0  0  0  0  0  0  0  0
   19.0227  -19.8144  -13.0216 O   0  0  0  0  0  0  0  0  0  0  0  0
  2  1  1  6
  3  2  1  0
  4  3  1  0
  5  7  1  0
  5  2  1  0
  6  5  2  0
  7  8  1  0
  9  8  1  0
 10  9  1  0
 11 10  1  0
 11 12  1  6
 11  7  1  0
 12 18  1  0
 13 12  2  0
 15 14  1  6
 15 16  1  0
 17 15  1  0
 17 18  1  1
 19 17  1  0
 19 21  1  0
 20 19  2  0
M  END
$$$$
