CPT.pdb
     RDKit          3D

 21 21  0  0  1  0  0  0  0  0999 V2000
   20.8658  -19.6977  -13.2097 N   0  0  0  0  0  0  0  0  0  0  0  0
   21.8391  -20.7463  -13.0787 C   0  0  1  0  0  0  0  0  0  0  0  0
   21.4622  -21.9679  -13.9096 C   0  0  0  0  0  0  0  0  0  0  0  0
   20.3423  -23.0048  -12.9043 S   0  0  0  0  0  0  0  0  0  0  0  0
   23.1580  -20.2409  -13.5205 C   0  0  0  0  0  0  0  0  0  0  0  0
   23.2103  -19.2077  -14.2556 O   0  0  0  0  0  0  0  0  0  0  0  0
   24.3905  -20.8579  -13.1615 N   0  0  0  0  0  0  0  0  0  0  0  0
   24.5942  -22.0163  -12.3358 C   0  0  0  0  0  0  0  0  0  0  0  0
   26.0587  -22.2600  -12.2898 C   0  0  0  0  0  0  0  0  0  0  0  0
   26.6789  -20.9316  -12.6328 C   0  0  0  0  0  0  0  0  0  0  0  0
   25.6690  -20.3634  -13.5990 C   0  0  1  0  0  0  0  0  0  0  0  0
   25.9512  -20.6622  -15.0129 C   0  0  0  0  0  0  0  0  0  0  0  0
   25.7393  -21.8286  -15.4427 O   0  0  0  0  0  0  0  0  0  0  0  0
   24.1850  -19.6720  -17.9142 C   0  0  0  0  0  0  0  0  0  0  0  0
   25.6134  -19.2794  -18.1863 C   0  0  1  0  0  0  0  0  0  0  0  0
   25.7663  -17.9119  -17.9965 O   0  0  0  0  0  0  0  0  0  0  0  0
   26.5868  -20.0603  -17.3273 C   0  0  2  0  0  0  0  0  0  0  0  0
   26.4521  -19.7123  -15.9348 N   0  0  0  0  0  0  0  0  0  0  0  0
   27.9863  -19.9053  -17.8075 C   0  0  0  0  0  0  0  0  0  0  0  0
   28.3251  -20.4166  -18.9034 O   0  0  0  0  0  0  0  0  0  0  0  0
   28.9283  -19.2151  -17.0848 O   0  0  0  0  0  0  0  0  0  0  0  0
  2  1  1  6
  3  2  1  0
  4  3  1  0
  5  7  1  0
  5  2  1  0
  6  5  2  0
  7  8  1  0
  9  8  1  0
 10  9  1  0
 11 10  1  0
 11 12  1  6
 11  7  1  0
 12 18  1  0
 13 12  2  0
 15 14  1  1
 15 16  1  0
 17 15  1  0
 17 18  1  1
 19 17  1  0
 19 21  1  0
 20 19  2  0
M  END
$$$$
