CPT.pdb
     RDKit          3D

 21 21  0  0  1  0  0  0  0  0999 V2000
   21.6415  -21.4713  -13.6262 N   0  0  0  0  0  0  0  0  0  0  0  0
   21.2897  -20.7223  -12.4519 C   0  0  1  0  0  0  0  0  0  0  0  0
   19.9757  -19.9719  -12.6385 C   0  0  0  0  0  0  0  0  0  0  0  0
   20.3709  -18.2924  -13.2411 S   0  0  0  0  0  0  0  0  0  0  0  0
   21.1661  -21.6494  -11.3051 C   0  0  0  0  0  0  0  0  0  0  0  0
   20.6736  -22.8038  -11.4928 O   0  0  0  0  0  0  0  0  0  0  0  0
   21.5751  -21.3140   -9.9826 N   0  0  0  0  0  0  0  0  0  0  0  0
   22.0949  -20.0616   -9.5065 C   0  0  0  0  0  0  0  0  0  0  0  0
   22.3473  -20.2255   -8.0520 C   0  0  0  0  0  0  0  0  0  0  0  0
   22.4821  -21.7116   -7.8517 C   0  0  0  0  0  0  0  0  0  0  0  0
   21.5263  -22.2475   -8.8887 C   0  0  1  0  0  0  0  0  0  0  0  0
   20.1612  -22.4810   -8.3887 C   0  0  0  0  0  0  0  0  0  0  0  0
   19.3231  -21.5405   -8.4448 O   0  0  0  0  0  0  0  0  0  0  0  0
   17.5792  -24.3942   -9.7606 C   0  0  0  0  0  0  0  0  0  0  0  0
   17.6220  -24.8567   -8.3279 C   0  0  1  0  0  0  0  0  0  0  0  0
   18.2095  -26.1136   -8.2600 O   0  0  0  0  0  0  0  0  0  0  0  0
   18.3467  -23.8684   -7.4372 C   0  0  2  0  0  0  0  0  0  0  0  0
   19.7214  -23.7098   -7.8410 N   0  0  0  0  0  0  0  0  0  0  0  0
   18.2268  -24.2365   -6.0007 C   0  0  0  0  0  0  0  0  0  0  0  0
   19.2471  -24.6074   -5.3693 O   0  0  0  0  0  0  0  0  0  0  0  0
   17.0258  -24.1834   -5.3367 O   0  0  0  0  0  0  0  0  0  0  0  0
  2  1  1  6
  3  2  1  0
  4  3  1  0
  5  7  1  0
  5  2  1  0
  6  5  2  0
  7  8  1  0
  9  8  1  0
 10  9  1  0
 11 10  1  0
 11 12  1  1
 11  7  1  0
 12 18  1  0
 13 12  2  0
 15 14  1  6
 15 16  1  0
 17 15  1  0
 17 18  1  6
 19 17  1  0
 19 21  1  0
 20 19  2  0
M  END
$$$$
