CPT.pdb
     RDKit          3D

 21 21  0  0  1  0  0  0  0  0999 V2000
   27.0411  -18.6845   -7.0108 N   0  0  0  0  0  0  0  0  0  0  0  0
   27.2428  -19.9657   -7.6286 C   0  0  1  0  0  0  0  0  0  0  0  0
   26.4113  -21.0508   -6.9535 C   0  0  0  0  0  0  0  0  0  0  0  0
   27.0103  -21.2278   -5.2360 S   0  0  0  0  0  0  0  0  0  0  0  0
   26.8677  -19.8787   -9.0576 C   0  0  0  0  0  0  0  0  0  0  0  0
   25.8481  -19.2001   -9.3896 O   0  0  0  0  0  0  0  0  0  0  0  0
   27.5979  -20.5232  -10.0969 N   0  0  0  0  0  0  0  0  0  0  0  0
   28.7779  -21.3350   -9.9789 C   0  0  0  0  0  0  0  0  0  0  0  0
   29.1310  -21.7830  -11.3504 C   0  0  0  0  0  0  0  0  0  0  0  0
   28.4751  -20.7798  -12.2617 C   0  0  0  0  0  0  0  0  0  0  0  0
   27.2300  -20.4298  -11.4848 C   0  0  1  0  0  0  0  0  0  0  0  0
   26.0544  -21.2474  -11.8274 C   0  0  0  0  0  0  0  0  0  0  0  0
   25.5355  -21.9716  -10.9350 O   0  0  0  0  0  0  0  0  0  0  0  0
   21.7667  -20.5581  -12.8211 C   0  0  0  0  0  0  0  0  0  0  0  0
   23.2402  -20.4384  -12.5327 C   0  0  1  0  0  0  0  0  0  0  0  0
   23.4532  -20.4859  -11.1609 O   0  0  0  0  0  0  0  0  0  0  0  0
   24.0434  -21.5071  -13.2455 C   0  0  2  0  0  0  0  0  0  0  0  0
   25.4597  -21.2744  -13.1115 N   0  0  0  0  0  0  0  0  0  0  0  0
   23.6331  -21.6414  -14.6693 C   0  0  0  0  0  0  0  0  0  0  0  0
   22.9424  -22.6283  -15.0242 O   0  0  0  0  0  0  0  0  0  0  0  0
   23.9883  -20.7126  -15.6166 O   0  0  0  0  0  0  0  0  0  0  0  0
  2  1  1  1
  3  2  1  0
  4  3  1  0
  5  7  1  0
  5  2  1  0
  6  5  2  0
  7  8  1  0
  9  8  1  0
 10  9  1  0
 11 10  1  0
 11 12  1  1
 11  7  1  0
 12 18  1  0
 13 12  2  0
 15 14  1  1
 15 16  1  0
 17 15  1  0
 17 18  1  6
 19 17  1  0
 19 21  1  0
 20 19  2  0
M  END
$$$$
