CPT.pdb
     RDKit          3D

 21 21  0  0  1  0  0  0  0  0999 V2000
   18.6921  -12.6577  -15.8326 N   0  0  0  0  0  0  0  0  0  0  0  0
   18.9102  -11.5659  -16.7405 C   0  0  1  0  0  0  0  0  0  0  0  0
   17.6327  -10.7668  -16.9733 C   0  0  0  0  0  0  0  0  0  0  0  0
   16.5164  -11.7834  -18.0031 S   0  0  0  0  0  0  0  0  0  0  0  0
   19.9517  -10.6739  -16.1840 C   0  0  0  0  0  0  0  0  0  0  0  0
   19.9252  -10.3872  -14.9480 O   0  0  0  0  0  0  0  0  0  0  0  0
   20.9981  -10.1107  -16.9693 N   0  0  0  0  0  0  0  0  0  0  0  0
   21.2495  -10.2931  -18.3724 C   0  0  0  0  0  0  0  0  0  0  0  0
   22.4446   -9.4763  -18.7053 C   0  0  0  0  0  0  0  0  0  0  0  0
   23.1588   -9.2902  -17.3929 C   0  0  0  0  0  0  0  0  0  0  0  0
   22.0054   -9.2412  -16.4218 C   0  0  1  0  0  0  0  0  0  0  0  0
   21.5076   -7.8838  -16.1429 C   0  0  0  0  0  0  0  0  0  0  0  0
   20.5233   -7.4494  -16.8005 O   0  0  0  0  0  0  0  0  0  0  0  0
   20.2187   -7.2639  -12.9308 C   0  0  0  0  0  0  0  0  0  0  0  0
   20.0111   -6.3039  -14.0727 C   0  0  1  0  0  0  0  0  0  0  0  0
   19.2917   -5.2009  -13.6308 O   0  0  0  0  0  0  0  0  0  0  0  0
   21.3236   -5.8817  -14.7006 C   0  0  2  0  0  0  0  0  0  0  0  0
   22.0697   -7.0219  -15.1711 N   0  0  0  0  0  0  0  0  0  0  0  0
   22.1247   -5.0345  -13.7765 C   0  0  0  0  0  0  0  0  0  0  0  0
   21.7567   -3.8573  -13.5398 O   0  0  0  0  0  0  0  0  0  0  0  0
   23.2638   -5.5021  -13.1684 O   0  0  0  0  0  0  0  0  0  0  0  0
  2  1  1  1
  3  2  1  0
  4  3  1  0
  5  7  1  0
  5  2  1  0
  6  5  2  0
  7  8  1  0
  9  8  1  0
 10  9  1  0
 11 10  1  0
 11 12  1  6
 11  7  1  0
 12 18  1  0
 13 12  2  0
 15 14  1  1
 15 16  1  0
 17 15  1  0
 17 18  1  1
 19 17  1  0
 19 21  1  0
 20 19  2  0
M  END
$$$$
