APT.pdb
     RDKit          3D

 20 20  0  0  1  0  0  0  0  0999 V2000
    6.5457  -17.1058   17.7694 C   0  0  0  0  0  0  0  0  0  0  0  0
    7.7007  -16.2064   17.3123 C   0  0  2  0  0  0  0  0  0  0  0  0
    8.4090  -16.9107   16.3123 N   0  0  0  0  0  0  0  0  0  0  0  0
    8.4216  -15.8004   18.5074 C   0  0  0  0  0  0  0  0  0  0  0  0
    9.4826  -16.4821   18.7613 O   0  0  0  0  0  0  0  0  0  0  0  0
    8.1079  -14.7651   19.4141 N   0  0  0  0  0  0  0  0  0  0  0  0
    6.8734  -14.0320   19.4771 C   0  0  0  0  0  0  0  0  0  0  0  0
    7.2752  -12.6134   19.9074 C   0  0  0  0  0  0  0  0  0  0  0  0
    8.4488  -12.8709   20.8196 C   0  0  0  0  0  0  0  0  0  0  0  0
    8.9531  -14.2395   20.4643 C   0  0  1  0  0  0  0  0  0  0  0  0
    8.9230  -15.1745   21.6359 C   0  0  0  0  0  0  0  0  0  0  0  0
    7.8049  -15.5479   22.1099 O   0  0  0  0  0  0  0  0  0  0  0  0
   10.0780  -18.4852   21.7119 C   0  0  0  0  0  0  0  0  0  0  0  0
   10.8753  -17.8355   22.8461 C   0  0  1  0  0  0  0  0  0  0  0  0
   12.1413  -17.4795   22.4352 O   0  0  0  0  0  0  0  0  0  0  0  0
   10.0591  -16.6576   23.3171 C   0  0  2  0  0  0  0  0  0  0  0  0
   10.0942  -15.6600   22.2375 N   0  0  0  0  0  0  0  0  0  0  0  0
   10.7458  -16.0796   24.4991 C   0  0  0  0  0  0  0  0  0  0  0  0
   10.7313  -16.7163   25.7243 O   0  0  0  0  0  0  0  0  0  0  0  0
   11.3604  -14.9899   24.4115 O   0  0  0  0  0  0  0  0  0  0  0  0
  2  1  1  1
  2  4  1  0
  2  3  1  0
  4  5  2  0
  6  4  1  0
  7  6  1  0
  8  9  1  0
  8  7  1  0
  9 10  1  0
 10  6  1  0
 10 11  1  1
 11 12  2  0
 11 17  1  0
 14 13  1  6
 14 16  1  0
 15 14  1  0
 16 18  1  0
 16 17  1  6
 18 20  2  0
 18 19  1  0
M  END
$$$$
