APT.pdb
     RDKit          3D

 20 20  0  0  1  0  0  0  0  0999 V2000
    6.3362  -17.7108   18.5839 C   0  0  0  0  0  0  0  0  0  0  0  0
    7.3066  -16.8027   17.8187 C   0  0  2  0  0  0  0  0  0  0  0  0
    7.8461  -17.5661   16.7585 N   0  0  0  0  0  0  0  0  0  0  0  0
    8.2238  -16.2415   18.7967 C   0  0  0  0  0  0  0  0  0  0  0  0
    9.3197  -16.8964   18.9541 O   0  0  0  0  0  0  0  0  0  0  0  0
    8.0654  -15.0824   19.5866 N   0  0  0  0  0  0  0  0  0  0  0  0
    6.8848  -14.2679   19.6781 C   0  0  0  0  0  0  0  0  0  0  0  0
    7.4043  -12.8360   19.8748 C   0  0  0  0  0  0  0  0  0  0  0  0
    8.6559  -13.0534   20.6884 C   0  0  0  0  0  0  0  0  0  0  0  0
    9.0466  -14.4858   20.4667 C   0  0  1  0  0  0  0  0  0  0  0  0
    9.0968  -15.2627   21.7480 C   0  0  0  0  0  0  0  0  0  0  0  0
    8.0158  -15.5329   22.3586 O   0  0  0  0  0  0  0  0  0  0  0  0
    9.9692  -18.9088   23.1876 C   0  0  0  0  0  0  0  0  0  0  0  0
   11.0405  -17.8154   23.1637 C   0  0  1  0  0  0  0  0  0  0  0  0
   11.6735  -17.7539   21.9415 O   0  0  0  0  0  0  0  0  0  0  0  0
   10.3412  -16.5291   23.5269 C   0  0  2  0  0  0  0  0  0  0  0  0
   10.3042  -15.7089   22.3071 N   0  0  0  0  0  0  0  0  0  0  0  0
   11.1837  -15.8270   24.5270 C   0  0  0  0  0  0  0  0  0  0  0  0
   11.2630  -16.2616   25.8353 O   0  0  0  0  0  0  0  0  0  0  0  0
   11.8487  -14.8140   24.2040 O   0  0  0  0  0  0  0  0  0  0  0  0
  2  1  1  1
  2  4  1  0
  2  3  1  0
  4  5  2  0
  6  4  1  0
  7  6  1  0
  8  9  1  0
  8  7  1  0
  9 10  1  0
 10  6  1  0
 10 11  1  1
 11 12  2  0
 11 17  1  0
 14 13  1  6
 14 16  1  0
 15 14  1  0
 16 18  1  0
 16 17  1  6
 18 20  2  0
 18 19  1  0
M  END
$$$$
