APT.pdb
     RDKit          3D

 20 20  0  0  1  0  0  0  0  0999 V2000
    7.3981  -11.9518   26.6101 C   0  0  0  0  0  0  0  0  0  0  0  0
    6.2633  -12.5590   25.7762 C   0  0  2  0  0  0  0  0  0  0  0  0
    5.1655  -12.7563   26.6443 N   0  0  0  0  0  0  0  0  0  0  0  0
    6.8128  -13.7166   25.0901 C   0  0  0  0  0  0  0  0  0  0  0  0
    6.6061  -14.8443   25.6735 O   0  0  0  0  0  0  0  0  0  0  0  0
    7.5367  -13.7589   23.8790 N   0  0  0  0  0  0  0  0  0  0  0  0
    7.9676  -12.6284   23.1034 C   0  0  0  0  0  0  0  0  0  0  0  0
    7.8897  -13.0959   21.6425 C   0  0  0  0  0  0  0  0  0  0  0  0
    8.2490  -14.5572   21.7495 C   0  0  0  0  0  0  0  0  0  0  0  0
    7.9985  -14.9384   23.1797 C   0  0  1  0  0  0  0  0  0  0  0  0
    9.2346  -15.4572   23.8510 C   0  0  0  0  0  0  0  0  0  0  0  0
   10.0700  -14.6368   24.3443 O   0  0  0  0  0  0  0  0  0  0  0  0
    9.5726  -18.1817   26.6017 C   0  0  0  0  0  0  0  0  0  0  0  0
   10.3223  -18.6052   25.3358 C   0  0  1  0  0  0  0  0  0  0  0  0
    9.5565  -19.4375   24.5489 O   0  0  0  0  0  0  0  0  0  0  0  0
   10.7168  -17.3313   24.6308 C   0  0  2  0  0  0  0  0  0  0  0  0
    9.5097  -16.8293   23.9578 N   0  0  0  0  0  0  0  0  0  0  0  0
   11.7109  -17.6852   23.5871 C   0  0  0  0  0  0  0  0  0  0  0  0
   11.3726  -17.7119   22.2485 O   0  0  0  0  0  0  0  0  0  0  0  0
   12.8914  -17.9705   23.8996 O   0  0  0  0  0  0  0  0  0  0  0  0
  2  1  1  1
  2  4  1  0
  2  3  1  0
  4  5  2  0
  6  4  1  0
  7  6  1  0
  8  9  1  0
  8  7  1  0
  9 10  1  0
 10  6  1  0
 10 11  1  1
 11 12  2  0
 11 17  1  0
 14 13  1  1
 14 16  1  0
 15 14  1  0
 16 18  1  0
 16 17  1  6
 18 20  2  0
 18 19  1  0
M  END
$$$$
