APT.pdb
     RDKit          3D

 20 20  0  0  1  0  0  0  0  0999 V2000
    6.2607  -14.0505   21.4536 C   0  0  0  0  0  0  0  0  0  0  0  0
    7.3587  -13.0595   21.8586 C   0  0  2  0  0  0  0  0  0  0  0  0
    8.2774  -12.9917   20.7866 N   0  0  0  0  0  0  0  0  0  0  0  0
    7.8518  -13.4801   23.1598 C   0  0  0  0  0  0  0  0  0  0  0  0
    8.9628  -14.1280   23.1377 O   0  0  0  0  0  0  0  0  0  0  0  0
    7.2717  -13.2702   24.4294 N   0  0  0  0  0  0  0  0  0  0  0  0
    5.9716  -12.7170   24.6918 C   0  0  0  0  0  0  0  0  0  0  0  0
    6.1322  -11.9276   25.9995 C   0  0  0  0  0  0  0  0  0  0  0  0
    7.1499  -12.7487   26.7516 C   0  0  0  0  0  0  0  0  0  0  0  0
    7.8572  -13.5750   25.7170 C   0  0  1  0  0  0  0  0  0  0  0  0
    7.7272  -15.0449   25.9822 C   0  0  0  0  0  0  0  0  0  0  0  0
    6.5811  -15.5909   25.9317 O   0  0  0  0  0  0  0  0  0  0  0  0
    8.6013  -17.7915   24.1582 C   0  0  0  0  0  0  0  0  0  0  0  0
    9.4368  -17.9979   25.4245 C   0  0  1  0  0  0  0  0  0  0  0  0
   10.7252  -17.5378   25.2611 O   0  0  0  0  0  0  0  0  0  0  0  0
    8.7001  -17.2948   26.5374 C   0  0  2  0  0  0  0  0  0  0  0  0
    8.8339  -15.8520   26.2877 N   0  0  0  0  0  0  0  0  0  0  0  0
    9.4009  -17.6080   27.8076 C   0  0  0  0  0  0  0  0  0  0  0  0
    9.3722  -18.8762   28.3532 O   0  0  0  0  0  0  0  0  0  0  0  0
   10.0410  -16.7203   28.4200 O   0  0  0  0  0  0  0  0  0  0  0  0
  2  1  1  6
  2  4  1  0
  2  3  1  0
  4  5  2  0
  6  4  1  0
  7  6  1  0
  8  9  1  0
  8  7  1  0
  9 10  1  0
 10  6  1  0
 10 11  1  1
 11 12  2  0
 11 17  1  0
 14 13  1  6
 14 16  1  0
 15 14  1  0
 16 18  1  0
 16 17  1  6
 18 20  2  0
 18 19  1  0
M  END
$$$$
