APT.pdb
     RDKit          3D

 20 20  0  0  1  0  0  0  0  0999 V2000
    7.7502  -16.8079   16.4948 C   0  0  0  0  0  0  0  0  0  0  0  0
    8.5146  -15.5335   16.1163 C   0  0  2  0  0  0  0  0  0  0  0  0
    9.2446  -15.8173   14.9397 N   0  0  0  0  0  0  0  0  0  0  0  0
    9.2513  -15.1136   17.2969 C   0  0  0  0  0  0  0  0  0  0  0  0
   10.4925  -15.4509   17.3128 O   0  0  0  0  0  0  0  0  0  0  0  0
    8.7819  -14.3913   18.4152 N   0  0  0  0  0  0  0  0  0  0  0  0
    7.4362  -13.9362   18.6325 C   0  0  0  0  0  0  0  0  0  0  0  0
    7.5836  -12.6047   19.3839 C   0  0  0  0  0  0  0  0  0  0  0  0
    8.8137  -12.8407   20.2246 C   0  0  0  0  0  0  0  0  0  0  0  0
    9.5497  -13.9722   19.5677 C   0  0  1  0  0  0  0  0  0  0  0  0
    9.7308  -15.1399   20.4906 C   0  0  0  0  0  0  0  0  0  0  0  0
    8.7980  -15.9944   20.6091 O   0  0  0  0  0  0  0  0  0  0  0  0
   12.8849  -18.0156   22.8856 C   0  0  0  0  0  0  0  0  0  0  0  0
   12.6426  -16.7189   22.1084 C   0  0  1  0  0  0  0  0  0  0  0  0
   13.2627  -16.7430   20.8783 O   0  0  0  0  0  0  0  0  0  0  0  0
   11.1461  -16.5589   22.0073 C   0  0  2  0  0  0  0  0  0  0  0  0
   10.9033  -15.3295   21.2381 N   0  0  0  0  0  0  0  0  0  0  0  0
   10.6228  -16.3522   23.3807 C   0  0  0  0  0  0  0  0  0  0  0  0
   10.2853  -17.4178   24.1916 O   0  0  0  0  0  0  0  0  0  0  0  0
   10.4739  -15.1950   23.8404 O   0  0  0  0  0  0  0  0  0  0  0  0
  2  1  1  1
  2  4  1  0
  2  3  1  0
  4  5  2  0
  6  4  1  0
  7  6  1  0
  8  9  1  0
  8  7  1  0
  9 10  1  0
 10  6  1  0
 10 11  1  1
 11 12  2  0
 11 17  1  0
 14 13  1  6
 14 16  1  0
 15 14  1  0
 16 18  1  0
 16 17  1  6
 18 20  2  0
 18 19  1  0
M  END
$$$$
