APT.pdb
     RDKit          3D

 20 20  0  0  1  0  0  0  0  0999 V2000
    7.0567  -17.1097   17.2463 C   0  0  0  0  0  0  0  0  0  0  0  0
    8.2069  -16.1813   16.8376 C   0  0  2  0  0  0  0  0  0  0  0  0
    8.9729  -16.8665   15.8672 N   0  0  0  0  0  0  0  0  0  0  0  0
    8.8678  -15.7597   18.0616 C   0  0  0  0  0  0  0  0  0  0  0  0
    9.9496  -16.3962   18.3435 O   0  0  0  0  0  0  0  0  0  0  0  0
    8.4768  -14.7521   18.9696 N   0  0  0  0  0  0  0  0  0  0  0  0
    7.2047  -14.0845   19.0061 C   0  0  0  0  0  0  0  0  0  0  0  0
    7.5207  -12.6519   19.4610 C   0  0  0  0  0  0  0  0  0  0  0  0
    8.6814  -12.8585   20.4021 C   0  0  0  0  0  0  0  0  0  0  0  0
    9.2653  -14.1952   20.0473 C   0  0  1  0  0  0  0  0  0  0  0  0
    9.2527  -15.1436   21.2085 C   0  0  0  0  0  0  0  0  0  0  0  0
    8.1421  -15.5573   21.6664 O   0  0  0  0  0  0  0  0  0  0  0  0
   10.3709  -18.4440   21.3890 C   0  0  0  0  0  0  0  0  0  0  0  0
   11.2067  -17.7619   22.4753 C   0  0  1  0  0  0  0  0  0  0  0  0
   12.4624  -17.4313   22.0145 O   0  0  0  0  0  0  0  0  0  0  0  0
   10.4139  -16.5613   22.9285 C   0  0  2  0  0  0  0  0  0  0  0  0
   10.4324  -15.5983   21.8176 N   0  0  0  0  0  0  0  0  0  0  0  0
   11.1349  -15.9539   24.0749 C   0  0  0  0  0  0  0  0  0  0  0  0
   11.1516  -16.5566   25.3172 O   0  0  0  0  0  0  0  0  0  0  0  0
   11.7509  -14.8698   23.9404 O   0  0  0  0  0  0  0  0  0  0  0  0
  2  1  1  1
  2  4  1  0
  2  3  1  0
  4  5  2  0
  6  4  1  0
  7  6  1  0
  8  9  1  0
  8  7  1  0
  9 10  1  0
 10  6  1  0
 10 11  1  1
 11 12  2  0
 11 17  1  0
 14 13  1  6
 14 16  1  0
 15 14  1  0
 16 18  1  0
 16 17  1  6
 18 20  2  0
 18 19  1  0
M  END
$$$$
