APT.pdb
     RDKit          3D

 20 20  0  0  1  0  0  0  0  0999 V2000
    6.3865  -15.2534   22.5190 C   0  0  0  0  0  0  0  0  0  0  0  0
    7.3938  -14.0993   22.4456 C   0  0  2  0  0  0  0  0  0  0  0  0
    8.1318  -14.2634   21.2514 N   0  0  0  0  0  0  0  0  0  0  0  0
    8.1193  -14.0879   23.7051 C   0  0  0  0  0  0  0  0  0  0  0  0
    9.2879  -14.6242   23.6652 O   0  0  0  0  0  0  0  0  0  0  0  0
    7.7080  -13.5692   24.9518 N   0  0  0  0  0  0  0  0  0  0  0  0
    6.3995  -13.0733   25.2791 C   0  0  0  0  0  0  0  0  0  0  0  0
    6.6455  -11.9296   26.2743 C   0  0  0  0  0  0  0  0  0  0  0  0
    7.8592  -12.4115   27.0294 C   0  0  0  0  0  0  0  0  0  0  0  0
    8.5091  -13.4399   26.1498 C   0  0  1  0  0  0  0  0  0  0  0  0
    8.6100  -14.7761   26.8222 C   0  0  0  0  0  0  0  0  0  0  0  0
    7.5674  -15.4900   26.9550 O   0  0  0  0  0  0  0  0  0  0  0  0
   10.4435  -17.5510   25.7011 C   0  0  0  0  0  0  0  0  0  0  0  0
   11.0052  -17.3443   27.1103 C   0  0  1  0  0  0  0  0  0  0  0  0
   12.1999  -16.6584   27.0831 O   0  0  0  0  0  0  0  0  0  0  0  0
    9.9342  -16.6251   27.8921 C   0  0  2  0  0  0  0  0  0  0  0  0
    9.8243  -15.2764   27.3168 N   0  0  0  0  0  0  0  0  0  0  0  0
   10.4131  -16.4903   29.2904 C   0  0  0  0  0  0  0  0  0  0  0  0
   10.6196  -17.5959   30.0915 O   0  0  0  0  0  0  0  0  0  0  0  0
   10.6432  -15.3592   29.7808 O   0  0  0  0  0  0  0  0  0  0  0  0
  2  1  1  1
  2  4  1  0
  2  3  1  0
  4  5  2  0
  6  4  1  0
  7  6  1  0
  8  9  1  0
  8  7  1  0
  9 10  1  0
 10  6  1  0
 10 11  1  1
 11 12  2  0
 11 17  1  0
 14 13  1  6
 14 16  1  0
 15 14  1  0
 16 18  1  0
 16 17  1  6
 18 20  2  0
 18 19  1  0
M  END
$$$$
