APT.pdb
     RDKit          3D

 20 20  0  0  1  0  0  0  0  0999 V2000
    7.3147  -17.3130   17.6309 C   0  0  0  0  0  0  0  0  0  0  0  0
    7.6451  -16.1471   16.6911 C   0  0  2  0  0  0  0  0  0  0  0  0
    7.8222  -16.6893   15.3979 N   0  0  0  0  0  0  0  0  0  0  0  0
    8.7533  -15.4206   17.2887 C   0  0  0  0  0  0  0  0  0  0  0  0
    9.9193  -15.7620   16.8659 O   0  0  0  0  0  0  0  0  0  0  0  0
    8.7119  -14.4003   18.2632 N   0  0  0  0  0  0  0  0  0  0  0  0
    7.5366  -13.8903   18.9142 C   0  0  0  0  0  0  0  0  0  0  0  0
    7.8248  -12.3992   19.1433 C   0  0  0  0  0  0  0  0  0  0  0  0
    9.3122  -12.3908   19.3950 C   0  0  0  0  0  0  0  0  0  0  0  0
    9.8352  -13.6707   18.8103 C   0  0  1  0  0  0  0  0  0  0  0  0
   10.5231  -14.5208   19.8359 C   0  0  0  0  0  0  0  0  0  0  0  0
    9.8589  -14.9762   20.8186 O   0  0  0  0  0  0  0  0  0  0  0  0
   11.9291  -17.7578   19.4614 C   0  0  0  0  0  0  0  0  0  0  0  0
   13.1123  -16.8860   19.8903 C   0  0  1  0  0  0  0  0  0  0  0  0
   13.8371  -16.4469   18.8040 O   0  0  0  0  0  0  0  0  0  0  0  0
   12.5328  -15.7556   20.7039 C   0  0  2  0  0  0  0  0  0  0  0  0
   11.8878  -14.8378   19.7533 N   0  0  0  0  0  0  0  0  0  0  0  0
   13.6633  -15.0362   21.3418 C   0  0  0  0  0  0  0  0  0  0  0  0
   14.3439  -15.5719   22.4173 O   0  0  0  0  0  0  0  0  0  0  0  0
   14.0297  -13.9152   20.9151 O   0  0  0  0  0  0  0  0  0  0  0  0
  2  1  1  1
  2  4  1  0
  2  3  1  0
  4  5  2  0
  6  4  1  0
  7  6  1  0
  8  9  1  0
  8  7  1  0
  9 10  1  0
 10  6  1  0
 10 11  1  1
 11 12  2  0
 11 17  1  0
 14 13  1  6
 14 16  1  0
 15 14  1  0
 16 18  1  0
 16 17  1  6
 18 20  2  0
 18 19  1  0
M  END
$$$$
