APT.pdb
     RDKit          3D

 20 20  0  0  1  0  0  0  0  0999 V2000
    6.9899  -17.6240   18.0757 C   0  0  0  0  0  0  0  0  0  0  0  0
    7.8499  -16.5454   17.4057 C   0  0  2  0  0  0  0  0  0  0  0  0
    8.5041  -17.1528   16.3099 N   0  0  0  0  0  0  0  0  0  0  0  0
    8.6677  -15.9464   18.4475 C   0  0  0  0  0  0  0  0  0  0  0  0
    9.8718  -16.3933   18.5191 O   0  0  0  0  0  0  0  0  0  0  0  0
    8.3113  -14.9483   19.3799 N   0  0  0  0  0  0  0  0  0  0  0  0
    7.0345  -14.2974   19.4857 C   0  0  0  0  0  0  0  0  0  0  0  0
    7.3554  -12.8631   19.9316 C   0  0  0  0  0  0  0  0  0  0  0  0
    8.5657  -13.0593   20.8104 C   0  0  0  0  0  0  0  0  0  0  0  0
    9.1474  -14.3866   20.4186 C   0  0  1  0  0  0  0  0  0  0  0  0
    9.2067  -15.3406   21.5737 C   0  0  0  0  0  0  0  0  0  0  0  0
    8.1269  -15.7867   22.0730 O   0  0  0  0  0  0  0  0  0  0  0  0
   10.6671  -18.6022   21.6201 C   0  0  0  0  0  0  0  0  0  0  0  0
   11.4058  -17.8590   22.7364 C   0  0  1  0  0  0  0  0  0  0  0  0
   12.6216  -17.3761   22.3042 O   0  0  0  0  0  0  0  0  0  0  0  0
   10.4758  -16.7685   23.2069 C   0  0  2  0  0  0  0  0  0  0  0  0
   10.4217  -15.7662   22.1326 N   0  0  0  0  0  0  0  0  0  0  0  0
   11.0946  -16.1333   24.3970 C   0  0  0  0  0  0  0  0  0  0  0  0
   11.1190  -16.7688   25.6227 O   0  0  0  0  0  0  0  0  0  0  0  0
   11.6142  -14.9948   24.3160 O   0  0  0  0  0  0  0  0  0  0  0  0
  2  1  1  1
  2  4  1  0
  2  3  1  0
  4  5  2  0
  6  4  1  0
  7  6  1  0
  8  9  1  0
  8  7  1  0
  9 10  1  0
 10  6  1  0
 10 11  1  1
 11 12  2  0
 11 17  1  0
 14 13  1  6
 14 16  1  0
 15 14  1  0
 16 18  1  0
 16 17  1  6
 18 20  2  0
 18 19  1  0
M  END
$$$$
