APT.pdb
     RDKit          3D

 20 20  0  0  1  0  0  0  0  0999 V2000
    7.2053  -17.1476   17.2397 C   0  0  0  0  0  0  0  0  0  0  0  0
    8.2639  -16.1092   16.8483 C   0  0  2  0  0  0  0  0  0  0  0  0
    9.0661  -16.6893   15.8395 N   0  0  0  0  0  0  0  0  0  0  0  0
    8.9105  -15.6781   18.0767 C   0  0  0  0  0  0  0  0  0  0  0  0
   10.0367  -16.2467   18.3278 O   0  0  0  0  0  0  0  0  0  0  0  0
    8.4637  -14.7257   19.0178 N   0  0  0  0  0  0  0  0  0  0  0  0
    7.1788  -14.0823   19.0353 C   0  0  0  0  0  0  0  0  0  0  0  0
    7.4488  -12.6702   19.5757 C   0  0  0  0  0  0  0  0  0  0  0  0
    8.5738  -12.9060   20.5528 C   0  0  0  0  0  0  0  0  0  0  0  0
    9.1968  -14.2125   20.1547 C   0  0  1  0  0  0  0  0  0  0  0  0
    9.1546  -15.2199   21.2643 C   0  0  0  0  0  0  0  0  0  0  0  0
    8.0393  -15.7153   21.6176 O   0  0  0  0  0  0  0  0  0  0  0  0
   11.0741  -18.3096   21.2762 C   0  0  0  0  0  0  0  0  0  0  0  0
   11.4241  -17.6479   22.6118 C   0  0  1  0  0  0  0  0  0  0  0  0
   12.6388  -17.0004   22.5526 O   0  0  0  0  0  0  0  0  0  0  0  0
   10.2805  -16.7198   22.9375 C   0  0  2  0  0  0  0  0  0  0  0  0
   10.3115  -15.6431   21.9367 N   0  0  0  0  0  0  0  0  0  0  0  0
   10.5542  -16.1193   24.2668 C   0  0  0  0  0  0  0  0  0  0  0  0
   10.9388  -14.7994   24.3964 O   0  0  0  0  0  0  0  0  0  0  0  0
   10.4417  -16.8028   25.3122 O   0  0  0  0  0  0  0  0  0  0  0  0
  2  1  1  1
  2  4  1  0
  2  3  1  0
  4  5  2  0
  6  4  1  0
  7  6  1  0
  8  9  1  0
  8  7  1  0
  9 10  1  0
 10  6  1  0
 10 11  1  1
 11 12  2  0
 11 17  1  0
 14 13  1  6
 14 16  1  0
 15 14  1  0
 16 18  1  0
 16 17  1  6
 18 20  2  0
 18 19  1  0
M  END
$$$$
