DNS.pdb
     RDKit          3D

 23 22  0  0  1  0  0  0  0  0999 V2000
   16.9900   -9.8173  -13.8013 N   0  0  0  0  0  0  0  0  0  0  0  0
   17.3553   -8.8674  -14.8279 C   0  0  1  0  0  0  0  0  0  0  0  0
   16.3763   -7.6897  -14.8469 C   0  0  0  0  0  0  0  0  0  0  0  0
   15.1107   -8.1293  -15.4788 C   0  0  0  0  0  0  0  0  0  0  0  0
   15.0982   -8.7805  -16.5628 O   0  0  0  0  0  0  0  0  0  0  0  0
   18.6852   -8.2884  -14.4960 C   0  0  0  0  0  0  0  0  0  0  0  0
   18.9160   -7.9685  -13.3117 O   0  0  0  0  0  0  0  0  0  0  0  0
   13.8924   -7.8438  -14.9067 O   0  0  0  0  0  0  0  0  0  0  0  0
   22.0910   -9.8874  -14.6331 N   0  0  0  0  0  0  0  0  0  0  0  0
   22.4566   -9.3311  -15.8857 C   0  0  0  0  0  0  0  0  0  0  0  0
   23.3080   -9.9288  -16.6158 O   0  0  0  0  0  0  0  0  0  0  0  0
   21.8736   -8.0755  -16.3635 C   0  0  0  0  0  0  0  0  0  0  0  0
   20.8797   -7.5206  -15.3359 C   0  0  2  0  0  0  0  0  0  0  0  0
   19.6057   -8.1378  -15.5509 N   0  0  0  0  0  0  0  0  0  0  0  0
   20.8456   -6.0479  -15.3823 C   0  0  0  0  0  0  0  0  0  0  0  0
   20.2083   -5.5124  -16.3277 O   0  0  0  0  0  0  0  0  0  0  0  0
   21.5267   -1.6870  -13.4372 O   0  0  0  0  0  0  0  0  0  0  0  0
   21.7477   -3.0352  -13.3070 C   0  0  0  0  0  0  0  0  0  0  0  0
   21.3271   -3.7778  -14.5538 C   0  0  2  0  0  0  0  0  0  0  0  0
   21.4689   -5.1914  -14.4540 N   0  0  0  0  0  0  0  0  0  0  0  0
   22.0778   -3.1831  -15.6905 C   0  0  0  0  0  0  0  0  0  0  0  0
   21.5111   -2.1046  -16.3356 O   0  0  0  0  0  0  0  0  0  0  0  0
   23.1880   -3.6149  -16.0810 O   0  0  0  0  0  0  0  0  0  0  0  0
  2  1  1  1
  2  3  1  0
  3  4  1  0
  4  8  1  0
  5  4  2  0
  6  2  1  0
  7  6  2  0
 10  9  1  0
 11 10  2  0
 12 10  1  0
 13 12  1  6
 13 14  1  0
 13 15  1  0
 14  6  1  0
 15 20  1  0
 16 15  2  0
 18 17  1  0
 19 18  1  1
 19 21  1  0
 20 19  1  0
 21 23  2  0
 21 22  1  0
M  END
$$$$
