DNS.pdb
     RDKit          3D

 23 22  0  0  1  0  0  0  0  0999 V2000
   22.2475  -11.1642  -17.8520 N   0  0  0  0  0  0  0  0  0  0  0  0
   23.0293  -10.2314  -17.0722 C   0  0  1  0  0  0  0  0  0  0  0  0
   24.2247   -9.7199  -17.8818 C   0  0  0  0  0  0  0  0  0  0  0  0
   25.1773  -10.8357  -18.0860 C   0  0  0  0  0  0  0  0  0  0  0  0
   26.2848  -10.6675  -18.6729 O   0  0  0  0  0  0  0  0  0  0  0  0
   22.1952   -9.0357  -16.7747 C   0  0  0  0  0  0  0  0  0  0  0  0
   21.7714   -8.3533  -17.7302 O   0  0  0  0  0  0  0  0  0  0  0  0
   24.8916  -12.1062  -17.6419 O   0  0  0  0  0  0  0  0  0  0  0  0
   18.4256   -8.8854  -15.5487 N   0  0  0  0  0  0  0  0  0  0  0  0
   19.1749   -9.1223  -14.3678 C   0  0  0  0  0  0  0  0  0  0  0  0
   18.9841  -10.1896  -13.7045 O   0  0  0  0  0  0  0  0  0  0  0  0
   20.1707   -8.1613  -13.8890 C   0  0  0  0  0  0  0  0  0  0  0  0
   21.0554   -7.6840  -15.0472 C   0  0  2  0  0  0  0  0  0  0  0  0
   21.9359   -8.7495  -15.4205 N   0  0  0  0  0  0  0  0  0  0  0  0
   21.7483   -6.4317  -14.6954 C   0  0  0  0  0  0  0  0  0  0  0  0
   22.6241   -6.4879  -13.7918 O   0  0  0  0  0  0  0  0  0  0  0  0
   23.1447   -1.9193  -15.4354 O   0  0  0  0  0  0  0  0  0  0  0  0
   22.3839   -2.9625  -15.9007 C   0  0  0  0  0  0  0  0  0  0  0  0
   22.1860   -4.0105  -14.8305 C   0  0  2  0  0  0  0  0  0  0  0  0
   21.5094   -5.1768  -15.2890 N   0  0  0  0  0  0  0  0  0  0  0  0
   21.5133   -3.3436  -13.6851 C   0  0  0  0  0  0  0  0  0  0  0  0
   22.3129   -2.8179  -12.6928 O   0  0  0  0  0  0  0  0  0  0  0  0
   20.2680   -3.2409  -13.5854 O   0  0  0  0  0  0  0  0  0  0  0  0
  2  1  1  6
  2  3  1  0
  3  4  1  0
  4  8  1  0
  5  4  2  0
  6  2  1  0
  7  6  2  0
 10  9  1  0
 11 10  2  0
 12 10  1  0
 13 12  1  1
 13 14  1  0
 13 15  1  0
 14  6  1  0
 15 20  1  0
 16 15  2  0
 18 17  1  0
 19 18  1  6
 19 21  1  0
 20 19  1  0
 21 23  2  0
 21 22  1  0
M  END
$$$$
