DNS.pdb
     RDKit          3D

 23 22  0  0  1  0  0  0  0  0999 V2000
   18.0920  -10.9037  -15.3551 N   0  0  0  0  0  0  0  0  0  0  0  0
   18.0236   -9.8582  -16.3510 C   0  0  1  0  0  0  0  0  0  0  0  0
   16.6131   -9.2646  -16.4148 C   0  0  0  0  0  0  0  0  0  0  0  0
   15.7547  -10.1564  -17.2285 C   0  0  0  0  0  0  0  0  0  0  0  0
   16.2157  -11.1866  -17.7990 O   0  0  0  0  0  0  0  0  0  0  0  0
   18.9185   -8.7428  -15.9397 C   0  0  0  0  0  0  0  0  0  0  0  0
   18.6906   -8.1659  -14.8564 O   0  0  0  0  0  0  0  0  0  0  0  0
   14.4140   -9.8963  -17.3956 O   0  0  0  0  0  0  0  0  0  0  0  0
   23.5514   -9.8892  -15.7341 N   0  0  0  0  0  0  0  0  0  0  0  0
   22.7295   -8.7476  -15.5515 C   0  0  0  0  0  0  0  0  0  0  0  0
   22.3278   -8.4409  -14.3853 O   0  0  0  0  0  0  0  0  0  0  0  0
   22.3283   -7.9063  -16.6810 C   0  0  0  0  0  0  0  0  0  0  0  0
   20.9056   -7.3728  -16.4736 C   0  0  2  0  0  0  0  0  0  0  0  0
   19.9747   -8.4079  -16.8086 N   0  0  0  0  0  0  0  0  0  0  0  0
   20.7014   -6.1202  -17.2227 C   0  0  0  0  0  0  0  0  0  0  0  0
   20.8035   -6.1718  -18.4772 O   0  0  0  0  0  0  0  0  0  0  0  0
   19.7387   -2.3370  -15.5814 O   0  0  0  0  0  0  0  0  0  0  0  0
   19.2341   -2.7119  -16.8014 C   0  0  0  0  0  0  0  0  0  0  0  0
   20.1231   -3.7372  -17.4655 C   0  0  2  0  0  0  0  0  0  0  0  0
   20.4012   -4.8698  -16.6480 N   0  0  0  0  0  0  0  0  0  0  0  0
   21.3420   -3.0239  -17.9288 C   0  0  0  0  0  0  0  0  0  0  0  0
   21.1743   -1.9840  -18.8181 O   0  0  0  0  0  0  0  0  0  0  0  0
   22.4987   -3.3241  -17.5503 O   0  0  0  0  0  0  0  0  0  0  0  0
  2  1  1  1
  2  3  1  0
  3  4  1  0
  4  8  1  0
  5  4  2  0
  6  2  1  0
  7  6  2  0
 10  9  1  0
 11 10  2  0
 12 10  1  0
 13 12  1  6
 13 14  1  0
 13 15  1  0
 14  6  1  0
 15 20  1  0
 16 15  2  0
 18 17  1  0
 19 18  1  1
 19 21  1  0
 20 19  1  0
 21 23  2  0
 21 22  1  0
M  END
$$$$
