DNS.pdb
     RDKit          3D

 23 22  0  0  1  0  0  0  0  0999 V2000
   14.9146  -12.6595  -17.2098 N   0  0  0  0  0  0  0  0  0  0  0  0
   15.1131  -11.8389  -16.0365 C   0  0  1  0  0  0  0  0  0  0  0  0
   15.7353  -12.6594  -14.9027 C   0  0  0  0  0  0  0  0  0  0  0  0
   14.6883  -13.5188  -14.3032 C   0  0  0  0  0  0  0  0  0  0  0  0
   13.4654  -13.3811  -14.5947 O   0  0  0  0  0  0  0  0  0  0  0  0
   16.0986  -10.7713  -16.3573 C   0  0  0  0  0  0  0  0  0  0  0  0
   17.0913  -11.0679  -17.0536 O   0  0  0  0  0  0  0  0  0  0  0  0
   15.0084  -14.5064  -13.4003 O   0  0  0  0  0  0  0  0  0  0  0  0
   17.9687   -6.0879  -17.0258 N   0  0  0  0  0  0  0  0  0  0  0  0
   16.5995   -5.9564  -16.6791 C   0  0  0  0  0  0  0  0  0  0  0  0
   16.0279   -4.8266  -16.7886 O   0  0  0  0  0  0  0  0  0  0  0  0
   15.8211   -7.0981  -16.1942 C   0  0  0  0  0  0  0  0  0  0  0  0
   16.6746   -8.3722  -16.2046 C   0  0  2  0  0  0  0  0  0  0  0  0
   15.8441   -9.4830  -15.8490 N   0  0  0  0  0  0  0  0  0  0  0  0
   17.8618   -8.2146  -15.3457 C   0  0  0  0  0  0  0  0  0  0  0  0
   17.6792   -8.2118  -14.0994 O   0  0  0  0  0  0  0  0  0  0  0  0
   22.2837   -9.1681  -14.2268 O   0  0  0  0  0  0  0  0  0  0  0  0
   21.2929   -9.1616  -15.1765 C   0  0  0  0  0  0  0  0  0  0  0  0
   20.2809   -8.0746  -14.8985 C   0  0  2  0  0  0  0  0  0  0  0  0
   19.1843   -8.0668  -15.8072 N   0  0  0  0  0  0  0  0  0  0  0  0
   21.0237   -6.7881  -14.8508 C   0  0  0  0  0  0  0  0  0  0  0  0
   21.4033   -6.2249  -16.0504 O   0  0  0  0  0  0  0  0  0  0  0  0
   21.3148   -6.2027  -13.7812 O   0  0  0  0  0  0  0  0  0  0  0  0
  2  1  1  6
  2  3  1  0
  3  4  1  0
  4  8  1  0
  5  4  2  0
  6  2  1  0
  7  6  2  0
 10  9  1  0
 11 10  2  0
 12 10  1  0
 13 12  1  1
 13 14  1  0
 13 15  1  0
 14  6  1  0
 15 20  1  0
 16 15  2  0
 18 17  1  0
 19 18  1  6
 19 21  1  0
 20 19  1  0
 21 23  2  0
 21 22  1  0
M  END
$$$$
