DNS.pdb
     RDKit          3D

 23 22  0  0  1  0  0  0  0  0999 V2000
   16.1782  -10.8428  -16.2059 N   0  0  0  0  0  0  0  0  0  0  0  0
   17.2633  -10.8857  -15.2519 C   0  0  1  0  0  0  0  0  0  0  0  0
   18.5703  -11.2932  -15.9386 C   0  0  0  0  0  0  0  0  0  0  0  0
   18.7195  -12.7643  -15.8496 C   0  0  0  0  0  0  0  0  0  0  0  0
   17.8232  -13.5517  -16.2691 O   0  0  0  0  0  0  0  0  0  0  0  0
   17.4909   -9.5147  -14.7203 C   0  0  0  0  0  0  0  0  0  0  0  0
   17.1713   -8.5401  -15.4318 O   0  0  0  0  0  0  0  0  0  0  0  0
   19.8465  -13.3340  -15.3033 O   0  0  0  0  0  0  0  0  0  0  0  0
   18.8427   -5.8611  -11.3692 N   0  0  0  0  0  0  0  0  0  0  0  0
   18.3142   -6.9694  -10.6589 C   0  0  0  0  0  0  0  0  0  0  0  0
   18.0495   -6.8558   -9.4210 O   0  0  0  0  0  0  0  0  0  0  0  0
   18.0637   -8.2517  -11.3203 C   0  0  0  0  0  0  0  0  0  0  0  0
   18.2788   -8.1257  -12.8334 C   0  0  2  0  0  0  0  0  0  0  0  0
   18.0577   -9.4056  -13.4359 N   0  0  0  0  0  0  0  0  0  0  0  0
   19.6019   -7.5471  -13.1280 C   0  0  0  0  0  0  0  0  0  0  0  0
   20.6149   -8.2083  -12.7769 O   0  0  0  0  0  0  0  0  0  0  0  0
   20.3041   -4.4662  -15.8597 O   0  0  0  0  0  0  0  0  0  0  0  0
   21.2155   -5.4614  -15.6094 C   0  0  0  0  0  0  0  0  0  0  0  0
   21.1336   -5.9247  -14.1736 C   0  0  2  0  0  0  0  0  0  0  0  0
   19.8242   -6.3137  -13.7709 N   0  0  0  0  0  0  0  0  0  0  0  0
   21.7196   -4.8479  -13.3331 C   0  0  0  0  0  0  0  0  0  0  0  0
   20.8978   -4.2419  -12.4070 O   0  0  0  0  0  0  0  0  0  0  0  0
   22.9121   -4.4736  -13.4300 O   0  0  0  0  0  0  0  0  0  0  0  0
  2  1  1  6
  2  3  1  0
  3  4  1  0
  4  8  1  0
  5  4  2  0
  6  2  1  0
  7  6  2  0
 10  9  1  0
 11 10  2  0
 12 10  1  0
 13 12  1  1
 13 14  1  0
 13 15  1  0
 14  6  1  0
 15 20  1  0
 16 15  2  0
 18 17  1  0
 19 18  1  6
 19 21  1  0
 20 19  1  0
 21 23  2  0
 21 22  1  0
M  END
$$$$
