DNS.pdb
     RDKit          3D

 23 22  0  0  1  0  0  0  0  0999 V2000
   19.1339  -13.1065  -16.4414 N   0  0  0  0  0  0  0  0  0  0  0  0
   18.7329  -11.7270  -16.6018 C   0  0  1  0  0  0  0  0  0  0  0  0
   17.6915  -11.3412  -15.5470 C   0  0  0  0  0  0  0  0  0  0  0  0
   16.4257  -12.0520  -15.8416 C   0  0  0  0  0  0  0  0  0  0  0  0
   16.1097  -12.3904  -17.0184 O   0  0  0  0  0  0  0  0  0  0  0  0
   19.9104  -10.8519  -16.3532 C   0  0  0  0  0  0  0  0  0  0  0  0
   20.6344  -11.0951  -15.3659 O   0  0  0  0  0  0  0  0  0  0  0  0
   15.5396  -12.3734  -14.8393 O   0  0  0  0  0  0  0  0  0  0  0  0
   22.7169  -10.6525  -18.6255 N   0  0  0  0  0  0  0  0  0  0  0  0
   22.3927   -9.4033  -19.2143 C   0  0  0  0  0  0  0  0  0  0  0  0
   22.7458   -9.1605  -20.4107 O   0  0  0  0  0  0  0  0  0  0  0  0
   21.6557   -8.3776  -18.4731 C   0  0  0  0  0  0  0  0  0  0  0  0
   21.2423   -8.9057  -17.0939 C   0  0  2  0  0  0  0  0  0  0  0  0
   20.1329   -9.7958  -17.2577 N   0  0  0  0  0  0  0  0  0  0  0  0
   20.9833   -7.7929  -16.1630 C   0  0  0  0  0  0  0  0  0  0  0  0
   20.0028   -7.0431  -16.4145 O   0  0  0  0  0  0  0  0  0  0  0  0
   21.2787   -5.7212  -11.8618 O   0  0  0  0  0  0  0  0  0  0  0  0
   21.6861   -6.7492  -12.6747 C   0  0  0  0  0  0  0  0  0  0  0  0
   21.3504   -6.4648  -14.1201 C   0  0  2  0  0  0  0  0  0  0  0  0
   21.7445   -7.5007  -15.0144 N   0  0  0  0  0  0  0  0  0  0  0  0
   21.9341   -5.1386  -14.4513 C   0  0  0  0  0  0  0  0  0  0  0  0
   21.3611   -4.0261  -13.8730 O   0  0  0  0  0  0  0  0  0  0  0  0
   22.9110   -4.9918  -15.2231 O   0  0  0  0  0  0  0  0  0  0  0  0
  2  1  1  1
  2  3  1  0
  3  4  1  0
  4  8  1  0
  5  4  2  0
  6  2  1  0
  7  6  2  0
 10  9  1  0
 11 10  2  0
 12 10  1  0
 13 12  1  6
 13 14  1  0
 13 15  1  0
 14  6  1  0
 15 20  1  0
 16 15  2  0
 18 17  1  0
 19 18  1  1
 19 21  1  0
 20 19  1  0
 21 23  2  0
 21 22  1  0
M  END
$$$$
