DNS.pdb
     RDKit          3D

 23 22  0  0  1  0  0  0  0  0999 V2000
   16.1677  -13.5312  -14.6649 N   0  0  0  0  0  0  0  0  0  0  0  0
   15.9165  -12.1283  -14.9065 C   0  0  1  0  0  0  0  0  0  0  0  0
   14.4131  -11.8368  -14.8816 C   0  0  0  0  0  0  0  0  0  0  0  0
   13.7759  -12.5091  -16.0376 C   0  0  0  0  0  0  0  0  0  0  0  0
   14.1233  -12.2602  -17.2278 O   0  0  0  0  0  0  0  0  0  0  0  0
   16.5053  -11.3356  -13.7934 C   0  0  0  0  0  0  0  0  0  0  0  0
   16.3051  -11.7159  -12.6214 O   0  0  0  0  0  0  0  0  0  0  0  0
   12.7750  -13.4362  -15.8592 O   0  0  0  0  0  0  0  0  0  0  0  0
   18.3093   -8.1408  -15.5409 N   0  0  0  0  0  0  0  0  0  0  0  0
   19.4731   -8.5806  -14.8596 C   0  0  0  0  0  0  0  0  0  0  0  0
   20.6161   -8.4021  -15.3858 O   0  0  0  0  0  0  0  0  0  0  0  0
   19.3912   -9.2406  -13.5549 C   0  0  0  0  0  0  0  0  0  0  0  0
   17.9269   -9.4228  -13.1371 C   0  0  2  0  0  0  0  0  0  0  0  0
   17.2575  -10.1964  -14.1388 N   0  0  0  0  0  0  0  0  0  0  0  0
   17.2935   -8.1200  -12.8659 C   0  0  0  0  0  0  0  0  0  0  0  0
   16.5320   -7.6500  -13.7524 O   0  0  0  0  0  0  0  0  0  0  0  0
   15.9268   -4.5819   -9.8998 O   0  0  0  0  0  0  0  0  0  0  0  0
   16.7051   -5.7027  -10.0472 C   0  0  0  0  0  0  0  0  0  0  0  0
   16.7440   -6.1514  -11.4894 C   0  0  2  0  0  0  0  0  0  0  0  0
   17.4717   -7.3583  -11.6945 N   0  0  0  0  0  0  0  0  0  0  0  0
   17.2523   -5.0066  -12.2896 C   0  0  0  0  0  0  0  0  0  0  0  0
   16.3539   -4.0198  -12.6350 O   0  0  0  0  0  0  0  0  0  0  0  0
   18.4461   -4.9027  -12.6578 O   0  0  0  0  0  0  0  0  0  0  0  0
  2  1  1  1
  2  3  1  0
  3  4  1  0
  4  8  1  0
  5  4  2  0
  6  2  1  0
  7  6  2  0
 10  9  1  0
 11 10  2  0
 12 10  1  0
 13 12  1  6
 13 14  1  0
 13 15  1  0
 14  6  1  0
 15 20  1  0
 16 15  2  0
 18 17  1  0
 19 18  1  1
 19 21  1  0
 20 19  1  0
 21 23  2  0
 21 22  1  0
M  END
$$$$
