DNS.pdb
     RDKit          3D

 23 22  0  0  1  0  0  0  0  0999 V2000
   17.0562   -9.6706  -15.0208 N   0  0  0  0  0  0  0  0  0  0  0  0
   17.6179   -9.3076  -13.7393 C   0  0  1  0  0  0  0  0  0  0  0  0
   18.5191   -8.0765  -13.8739 C   0  0  0  0  0  0  0  0  0  0  0  0
   19.7525   -8.4630  -14.5976 C   0  0  0  0  0  0  0  0  0  0  0  0
   19.9729   -9.6580  -14.9479 O   0  0  0  0  0  0  0  0  0  0  0  0
   16.5133   -8.9078  -12.8259 C   0  0  0  0  0  0  0  0  0  0  0  0
   15.6292   -8.1416  -13.2613 O   0  0  0  0  0  0  0  0  0  0  0  0
   20.7118   -7.5303  -14.9183 O   0  0  0  0  0  0  0  0  0  0  0  0
   13.9942  -11.1309  -11.8707 N   0  0  0  0  0  0  0  0  0  0  0  0
   14.4088  -11.4048  -10.5421 C   0  0  0  0  0  0  0  0  0  0  0  0
   14.0771  -12.5016   -9.9924 O   0  0  0  0  0  0  0  0  0  0  0  0
   15.2159  -10.4487   -9.7811 C   0  0  0  0  0  0  0  0  0  0  0  0
   15.4618   -9.1790  -10.6052 C   0  0  2  0  0  0  0  0  0  0  0  0
   16.5382   -9.4256  -11.5166 N   0  0  0  0  0  0  0  0  0  0  0  0
   15.6785   -8.0169   -9.7250 C   0  0  0  0  0  0  0  0  0  0  0  0
   16.6817   -8.0454   -8.9638 O   0  0  0  0  0  0  0  0  0  0  0  0
   16.1212   -4.6051  -10.5935 O   0  0  0  0  0  0  0  0  0  0  0  0
   15.3341   -4.4738   -9.4769 C   0  0  0  0  0  0  0  0  0  0  0  0
   15.1519   -5.8025   -8.7811 C   0  0  2  0  0  0  0  0  0  0  0  0
   14.8532   -6.8769   -9.6669 N   0  0  0  0  0  0  0  0  0  0  0  0
   14.1297   -5.6038   -7.7205 C   0  0  0  0  0  0  0  0  0  0  0  0
   14.4077   -4.6870   -6.7292 O   0  0  0  0  0  0  0  0  0  0  0  0
   13.0417   -6.2257   -7.6905 O   0  0  0  0  0  0  0  0  0  0  0  0
  2  1  1  6
  2  3  1  0
  3  4  1  0
  4  8  1  0
  5  4  2  0
  6  2  1  0
  7  6  2  0
 10  9  1  0
 11 10  2  0
 12 10  1  0
 13 12  1  1
 13 14  1  0
 13 15  1  0
 14  6  1  0
 15 20  1  0
 16 15  2  0
 18 17  1  0
 19 18  1  6
 19 21  1  0
 20 19  1  0
 21 23  2  0
 21 22  1  0
M  END
$$$$
