DNS.pdb
     RDKit          3D

 23 22  0  0  1  0  0  0  0  0999 V2000
   18.1675  -12.1103  -15.5816 N   0  0  0  0  0  0  0  0  0  0  0  0
   18.0491  -10.8222  -16.2269 C   0  0  1  0  0  0  0  0  0  0  0  0
   16.8778  -10.0294  -15.6392 C   0  0  0  0  0  0  0  0  0  0  0  0
   15.6094  -10.6808  -16.0406 C   0  0  0  0  0  0  0  0  0  0  0  0
   14.5053  -10.3772  -15.5038 O   0  0  0  0  0  0  0  0  0  0  0  0
   19.2706  -10.0241  -15.9352 C   0  0  0  0  0  0  0  0  0  0  0  0
   19.7391  -10.0549  -14.7786 O   0  0  0  0  0  0  0  0  0  0  0  0
   15.5839  -11.6474  -17.0193 O   0  0  0  0  0  0  0  0  0  0  0  0
   21.8666  -10.2658  -20.0365 N   0  0  0  0  0  0  0  0  0  0  0  0
   22.1727   -9.8178  -18.7259 C   0  0  0  0  0  0  0  0  0  0  0  0
   22.8425  -10.5646  -17.9455 O   0  0  0  0  0  0  0  0  0  0  0  0
   21.7333   -8.5064  -18.2446 C   0  0  0  0  0  0  0  0  0  0  0  0
   21.0932   -8.6315  -16.8566 C   0  0  2  0  0  0  0  0  0  0  0  0
   19.8235   -9.2786  -16.9942 N   0  0  0  0  0  0  0  0  0  0  0  0
   21.0256   -7.3185  -16.1906 C   0  0  0  0  0  0  0  0  0  0  0  0
   20.0563   -6.5692  -16.4835 O   0  0  0  0  0  0  0  0  0  0  0  0
   21.8682   -4.3623  -12.5699 O   0  0  0  0  0  0  0  0  0  0  0  0
   22.1415   -5.5762  -13.1490 C   0  0  0  0  0  0  0  0  0  0  0  0
   21.7662   -5.5769  -14.6126 C   0  0  2  0  0  0  0  0  0  0  0  0
   21.9585   -6.8344  -15.2528 N   0  0  0  0  0  0  0  0  0  0  0  0
   22.5104   -4.4620  -15.2549 C   0  0  0  0  0  0  0  0  0  0  0  0
   22.1308   -3.1750  -14.9389 O   0  0  0  0  0  0  0  0  0  0  0  0
   23.4545   -4.6407  -16.0599 O   0  0  0  0  0  0  0  0  0  0  0  0
  2  1  1  1
  2  3  1  0
  3  4  1  0
  4  8  1  0
  5  4  2  0
  6  2  1  0
  7  6  2  0
 10  9  1  0
 11 10  2  0
 12 10  1  0
 13 12  1  6
 13 14  1  0
 13 15  1  0
 14  6  1  0
 15 20  1  0
 16 15  2  0
 18 17  1  0
 19 18  1  1
 19 21  1  0
 20 19  1  0
 21 23  2  0
 21 22  1  0
M  END
$$$$
