DNS.pdb
     RDKit          3D

 23 22  0  0  1  0  0  0  0  0999 V2000
   16.1102  -11.6982  -16.5270 N   0  0  0  0  0  0  0  0  0  0  0  0
   16.6642  -11.0419  -15.3643 C   0  0  1  0  0  0  0  0  0  0  0  0
   17.6305  -11.9741  -14.6272 C   0  0  0  0  0  0  0  0  0  0  0  0
   16.8626  -13.1038  -14.0542 C   0  0  0  0  0  0  0  0  0  0  0  0
   17.1823  -14.3072  -14.2755 O   0  0  0  0  0  0  0  0  0  0  0  0
   17.4781   -9.8790  -15.8105 C   0  0  0  0  0  0  0  0  0  0  0  0
   18.5247  -10.0975  -16.4547 O   0  0  0  0  0  0  0  0  0  0  0  0
   15.7648  -12.8854  -13.2541 O   0  0  0  0  0  0  0  0  0  0  0  0
   14.5488   -6.3720  -17.2840 N   0  0  0  0  0  0  0  0  0  0  0  0
   15.9596   -6.5191  -17.2811 C   0  0  0  0  0  0  0  0  0  0  0  0
   16.5584   -6.8700  -18.3458 O   0  0  0  0  0  0  0  0  0  0  0  0
   16.7507   -6.2751  -16.0731 C   0  0  0  0  0  0  0  0  0  0  0  0
   17.7427   -7.4214  -15.8412 C   0  0  2  0  0  0  0  0  0  0  0  0
   17.0092   -8.5947  -15.4733 N   0  0  0  0  0  0  0  0  0  0  0  0
   18.7750   -7.0313  -14.8644 C   0  0  0  0  0  0  0  0  0  0  0  0
   18.4259   -6.9392  -13.6576 O   0  0  0  0  0  0  0  0  0  0  0  0
   22.0204   -8.6828  -14.2651 O   0  0  0  0  0  0  0  0  0  0  0  0
   22.3227   -7.3441  -14.2530 C   0  0  0  0  0  0  0  0  0  0  0  0
   21.0711   -6.5053  -14.1408 C   0  0  2  0  0  0  0  0  0  0  0  0
   20.1211   -6.7531  -15.1725 N   0  0  0  0  0  0  0  0  0  0  0  0
   21.5027   -5.0855  -14.0576 C   0  0  0  0  0  0  0  0  0  0  0  0
   22.3032   -4.7225  -12.9956 O   0  0  0  0  0  0  0  0  0  0  0  0
   21.1741   -4.2175  -14.9002 O   0  0  0  0  0  0  0  0  0  0  0  0
  2  1  1  6
  2  3  1  0
  3  4  1  0
  4  8  1  0
  5  4  2  0
  6  2  1  0
  7  6  2  0
 10  9  1  0
 11 10  2  0
 12 10  1  0
 13 12  1  1
 13 14  1  0
 13 15  1  0
 14  6  1  0
 15 20  1  0
 16 15  2  0
 18 17  1  0
 19 18  1  6
 19 21  1  0
 20 19  1  0
 21 23  2  0
 21 22  1  0
M  END
$$$$
