DNS.pdb
     RDKit          3D

 23 22  0  0  1  0  0  0  0  0999 V2000
   16.5746   -9.5802  -10.5790 N   0  0  0  0  0  0  0  0  0  0  0  0
   16.8064   -9.2129  -11.9577 C   0  0  1  0  0  0  0  0  0  0  0  0
   15.6020   -8.4551  -12.5244 C   0  0  0  0  0  0  0  0  0  0  0  0
   14.4468   -9.3794  -12.5994 C   0  0  0  0  0  0  0  0  0  0  0  0
   14.5245  -10.4970  -13.1861 O   0  0  0  0  0  0  0  0  0  0  0  0
   17.9512   -8.2642  -12.0168 C   0  0  0  0  0  0  0  0  0  0  0  0
   18.0343   -7.3771  -11.1426 O   0  0  0  0  0  0  0  0  0  0  0  0
   13.2372   -9.0550  -12.0297 O   0  0  0  0  0  0  0  0  0  0  0  0
   22.1705   -5.9538  -13.7636 N   0  0  0  0  0  0  0  0  0  0  0  0
   22.3186   -7.3577  -13.9022 C   0  0  0  0  0  0  0  0  0  0  0  0
   23.4630   -7.8480  -14.1576 O   0  0  0  0  0  0  0  0  0  0  0  0
   21.1778   -8.2644  -13.7574 C   0  0  0  0  0  0  0  0  0  0  0  0
   19.9440   -7.4992  -13.2633 C   0  0  2  0  0  0  0  0  0  0  0  0
   18.8752   -8.4313  -13.0661 N   0  0  0  0  0  0  0  0  0  0  0  0
   19.6114   -6.3938  -14.1797 C   0  0  0  0  0  0  0  0  0  0  0  0
   19.3335   -6.6926  -15.3714 O   0  0  0  0  0  0  0  0  0  0  0  0
   16.8932   -4.1365  -14.1375 O   0  0  0  0  0  0  0  0  0  0  0  0
   17.9402   -3.2812  -14.3740 C   0  0  0  0  0  0  0  0  0  0  0  0
   19.1830   -4.0413  -14.7746 C   0  0  2  0  0  0  0  0  0  0  0  0
   19.5796   -5.0299  -13.8293 N   0  0  0  0  0  0  0  0  0  0  0  0
   20.2379   -3.0341  -15.0606 C   0  0  0  0  0  0  0  0  0  0  0  0
   21.4439   -3.1690  -14.4066 O   0  0  0  0  0  0  0  0  0  0  0  0
   20.0790   -2.0814  -15.8597 O   0  0  0  0  0  0  0  0  0  0  0  0
  2  1  1  1
  2  3  1  0
  3  4  1  0
  4  8  1  0
  5  4  2  0
  6  2  1  0
  7  6  2  0
 10  9  1  0
 11 10  2  0
 12 10  1  0
 13 12  1  6
 13 14  1  0
 13 15  1  0
 14  6  1  0
 15 20  1  0
 16 15  2  0
 18 17  1  0
 19 18  1  1
 19 21  1  0
 20 19  1  0
 21 23  2  0
 21 22  1  0
M  END
$$$$
