LAG.pdb
     RDKit          3D

 18 17  0  0  1  0  0  0  0  0999 V2000
   24.7418  -35.2577   -8.9092 C   0  0  0  0  0  0  0  0  0  0  0  0
   26.1840  -34.7399   -8.9273 C   0  0  1  0  0  0  0  0  0  0  0  0
   26.9542  -35.6067   -9.8701 C   0  0  0  0  0  0  0  0  0  0  0  0
   26.2095  -33.2816   -9.2633 C   0  0  0  0  0  0  0  0  0  0  0  0
   25.4632  -32.4833   -8.2341 C   0  0  2  0  0  0  0  0  0  0  0  0
   25.3026  -31.1368   -8.7293 N   0  0  0  0  0  0  0  0  0  0  0  0
   26.1240  -32.5141   -6.9057 C   0  0  0  0  0  0  0  0  0  0  0  0
   27.2823  -32.0346   -6.7456 O   0  0  0  0  0  0  0  0  0  0  0  0
   25.1247  -32.8427   -3.3434 C   0  0  0  0  0  0  0  0  0  0  0  0
   26.1051  -33.0645   -4.4480 C   0  0  2  0  0  0  0  0  0  0  0  0
   25.5080  -33.0734   -5.7540 N   0  0  0  0  0  0  0  0  0  0  0  0
   26.8920  -34.2852   -4.1684 C   0  0  0  0  0  0  0  0  0  0  0  0
   26.5538  -35.3742   -4.6993 O   0  0  0  0  0  0  0  0  0  0  0  0
   28.0226  -34.2465   -3.3102 N   0  0  0  0  0  0  0  0  0  0  0  0
   28.8390  -35.3839   -3.0094 C   0  0  0  0  0  0  0  0  0  0  0  0
   28.2202  -36.2568   -1.9597 C   0  0  0  0  0  0  0  0  0  0  0  0
   28.9851  -37.3221   -1.5020 O   0  0  0  0  0  0  0  0  0  0  0  0
   27.0840  -36.0526   -1.5114 O   0  0  0  0  0  0  0  0  0  0  0  0
  2  3  1  6
  2  1  1  0
  4  2  1  0
  5  7  1  0
  5  6  1  6
  5  4  1  0
  7  8  2  0
 10  9  1  1
 10 12  1  0
 11  7  1  0
 11 10  1  0
 12 13  2  0
 12 14  1  0
 14 15  1  0
 15 16  1  0
 16 18  2  0
 16 17  1  0
M  END
$$$$
