LAG.pdb
     RDKit          3D

 18 17  0  0  1  0  0  0  0  0999 V2000
   24.3097  -13.2081  -17.8361 C   0  0  0  0  0  0  0  0  0  0  0  0
   23.8955  -12.7249  -16.4420 C   0  0  1  0  0  0  0  0  0  0  0  0
   25.0531  -12.9647  -15.5278 C   0  0  0  0  0  0  0  0  0  0  0  0
   23.4345  -11.3021  -16.4997 C   0  0  0  0  0  0  0  0  0  0  0  0
   22.9653  -10.8375  -15.1516 C   0  0  2  0  0  0  0  0  0  0  0  0
   21.9915  -11.7816  -14.6571 N   0  0  0  0  0  0  0  0  0  0  0  0
   22.4334   -9.4525  -15.1839 C   0  0  0  0  0  0  0  0  0  0  0  0
   23.1082   -8.5095  -15.6865 O   0  0  0  0  0  0  0  0  0  0  0  0
   19.0736   -7.8163  -14.6903 C   0  0  0  0  0  0  0  0  0  0  0  0
   20.5623   -7.8087  -14.8092 C   0  0  2  0  0  0  0  0  0  0  0  0
   21.1578   -9.1071  -14.6621 N   0  0  0  0  0  0  0  0  0  0  0  0
   21.1245   -6.8101  -13.8741 C   0  0  0  0  0  0  0  0  0  0  0  0
   21.4422   -7.1635  -12.7096 O   0  0  0  0  0  0  0  0  0  0  0  0
   21.3108   -5.4595  -14.2709 N   0  0  0  0  0  0  0  0  0  0  0  0
   21.9581   -4.4697  -13.4635 C   0  0  0  0  0  0  0  0  0  0  0  0
   22.0071   -3.1350  -14.1438 C   0  0  0  0  0  0  0  0  0  0  0  0
   22.5828   -2.0909  -13.4312 O   0  0  0  0  0  0  0  0  0  0  0  0
   21.5608   -2.9545  -15.2848 O   0  0  0  0  0  0  0  0  0  0  0  0
  2  3  1  1
  2  1  1  0
  4  2  1  0
  5  7  1  0
  5  6  1  6
  5  4  1  0
  7  8  2  0
 10  9  1  1
 10 12  1  0
 11  7  1  0
 11 10  1  0
 12 13  2  0
 12 14  1  0
 14 15  1  0
 15 16  1  0
 16 18  2  0
 16 17  1  0
M  END
$$$$
