LAG.pdb
     RDKit          3D

 18 17  0  0  1  0  0  0  0  0999 V2000
   20.3557  -21.2388  -15.7792 C   0  0  0  0  0  0  0  0  0  0  0  0
   19.8932  -20.0993  -14.8647 C   0  0  1  0  0  0  0  0  0  0  0  0
   18.7453  -20.6157  -14.0593 C   0  0  0  0  0  0  0  0  0  0  0  0
   21.0404  -19.5856  -14.0522 C   0  0  0  0  0  0  0  0  0  0  0  0
   21.8565  -20.7198  -13.5035 C   0  0  2  0  0  0  0  0  0  0  0  0
   21.1027  -21.3561  -12.4494 N   0  0  0  0  0  0  0  0  0  0  0  0
   23.1977  -20.2814  -13.0440 C   0  0  0  0  0  0  0  0  0  0  0  0
   23.7329  -19.2348  -13.5081 O   0  0  0  0  0  0  0  0  0  0  0  0
   25.6738  -21.2193  -10.3450 C   0  0  0  0  0  0  0  0  0  0  0  0
   25.2691  -20.6203  -11.6519 C   0  0  2  0  0  0  0  0  0  0  0  0
   23.9489  -20.9967  -12.0730 N   0  0  0  0  0  0  0  0  0  0  0  0
   26.3020  -20.9158  -12.6684 C   0  0  0  0  0  0  0  0  0  0  0  0
   26.3206  -22.0456  -13.2208 O   0  0  0  0  0  0  0  0  0  0  0  0
   27.2723  -19.9442  -13.0298 N   0  0  0  0  0  0  0  0  0  0  0  0
   28.2743  -20.1474  -14.0324 C   0  0  0  0  0  0  0  0  0  0  0  0
   27.7308  -19.9553  -15.4160 C   0  0  0  0  0  0  0  0  0  0  0  0
   28.5303  -20.3860  -16.4671 O   0  0  0  0  0  0  0  0  0  0  0  0
   26.6253  -19.4397  -15.6295 O   0  0  0  0  0  0  0  0  0  0  0  0
  2  3  1  1
  2  1  1  0
  4  2  1  0
  5  7  1  0
  5  6  1  1
  5  4  1  0
  7  8  2  0
 10  9  1  1
 10 12  1  0
 11  7  1  0
 11 10  1  0
 12 13  2  0
 12 14  1  0
 14 15  1  0
 15 16  1  0
 16 18  2  0
 16 17  1  0
M  END
$$$$
