LAG.pdb
     RDKit          3D

 18 17  0  0  1  0  0  0  0  0999 V2000
   19.3917  -13.4740  -19.5413 C   0  0  0  0  0  0  0  0  0  0  0  0
   18.8778  -12.3851  -18.5933 C   0  0  1  0  0  0  0  0  0  0  0  0
   17.7230  -12.9620  -17.8404 C   0  0  0  0  0  0  0  0  0  0  0  0
   19.9907  -11.8785  -17.7302 C   0  0  0  0  0  0  0  0  0  0  0  0
   21.0587  -11.2297  -18.5621 C   0  0  2  0  0  0  0  0  0  0  0  0
   22.1875  -12.1267  -18.6360 N   0  0  0  0  0  0  0  0  0  0  0  0
   21.4422   -9.8916  -18.0475 C   0  0  0  0  0  0  0  0  0  0  0  0
   22.3392   -9.7679  -17.1658 O   0  0  0  0  0  0  0  0  0  0  0  0
   20.6574   -6.2736  -18.8765 C   0  0  0  0  0  0  0  0  0  0  0  0
   21.2180   -7.3831  -18.0486 C   0  0  2  0  0  0  0  0  0  0  0  0
   20.8369   -8.6903  -18.5047 N   0  0  0  0  0  0  0  0  0  0  0  0
   20.8844   -7.1514  -16.6264 C   0  0  0  0  0  0  0  0  0  0  0  0
   19.8331   -7.6497  -16.1487 O   0  0  0  0  0  0  0  0  0  0  0  0
   21.7325   -6.3754  -15.7928 N   0  0  0  0  0  0  0  0  0  0  0  0
   21.4877   -6.1363  -14.4023 C   0  0  0  0  0  0  0  0  0  0  0  0
   22.6003   -5.3630  -13.7616 C   0  0  0  0  0  0  0  0  0  0  0  0
   22.4317   -5.0139  -12.4277 O   0  0  0  0  0  0  0  0  0  0  0  0
   23.6265   -5.0427  -14.3765 O   0  0  0  0  0  0  0  0  0  0  0  0
  2  3  1  1
  2  1  1  0
  4  2  1  0
  5  7  1  0
  5  6  1  1
  5  4  1  0
  7  8  2  0
 10  9  1  6
 10 12  1  0
 11  7  1  0
 11 10  1  0
 12 13  2  0
 12 14  1  0
 14 15  1  0
 15 16  1  0
 16 18  2  0
 16 17  1  0
M  END
$$$$
