LAG.pdb
     RDKit          3D

 18 17  0  0  1  0  0  0  0  0999 V2000
   28.6493  -19.8058   -5.7830 C   0  0  0  0  0  0  0  0  0  0  0  0
   27.2576  -19.6912   -6.4145 C   0  0  1  0  0  0  0  0  0  0  0  0
   26.9603  -18.2350   -6.5702 C   0  0  0  0  0  0  0  0  0  0  0  0
   27.1971  -20.4767   -7.6871 C   0  0  0  0  0  0  0  0  0  0  0  0
   25.8159  -20.4371   -8.2740 C   0  0  2  0  0  0  0  0  0  0  0  0
   24.9231  -21.1454   -7.3877 N   0  0  0  0  0  0  0  0  0  0  0  0
   25.7728  -20.9752   -9.6563 C   0  0  0  0  0  0  0  0  0  0  0  0
   26.3566  -22.0568   -9.9504 O   0  0  0  0  0  0  0  0  0  0  0  0
   23.7942  -20.5372  -12.7868 C   0  0  0  0  0  0  0  0  0  0  0  0
   25.0799  -20.7921  -12.0708 C   0  0  2  0  0  0  0  0  0  0  0  0
   25.0862  -20.3210  -10.7143 N   0  0  0  0  0  0  0  0  0  0  0  0
   26.2021  -20.2545  -12.8704 C   0  0  0  0  0  0  0  0  0  0  0  0
   26.5645  -19.0617  -12.7036 O   0  0  0  0  0  0  0  0  0  0  0  0
   26.8759  -21.0640  -13.8227 N   0  0  0  0  0  0  0  0  0  0  0  0
   28.0311  -20.6433  -14.5570 C   0  0  0  0  0  0  0  0  0  0  0  0
   27.6765  -20.1542  -15.9287 C   0  0  0  0  0  0  0  0  0  0  0  0
   28.4209  -20.6627  -16.9855 O   0  0  0  0  0  0  0  0  0  0  0  0
   26.7676  -19.3370  -16.1280 O   0  0  0  0  0  0  0  0  0  0  0  0
  2  3  1  6
  2  1  1  0
  4  2  1  0
  5  7  1  0
  5  6  1  1
  5  4  1  0
  7  8  2  0
 10  9  1  6
 10 12  1  0
 11  7  1  0
 11 10  1  0
 12 13  2  0
 12 14  1  0
 14 15  1  0
 15 16  1  0
 16 18  2  0
 16 17  1  0
M  END
$$$$
