LAG.pdb
     RDKit          3D

 18 17  0  0  1  0  0  0  0  0999 V2000
   28.3981  -18.7761   -5.8225 C   0  0  0  0  0  0  0  0  0  0  0  0
   28.0722  -19.9942   -6.6934 C   0  0  1  0  0  0  0  0  0  0  0  0
   27.1671  -20.8782   -5.8981 C   0  0  0  0  0  0  0  0  0  0  0  0
   27.5127  -19.5574   -8.0112 C   0  0  0  0  0  0  0  0  0  0  0  0
   27.2115  -20.7421   -8.8826 C   0  0  2  0  0  0  0  0  0  0  0  0
   28.4576  -21.3866   -9.2231 N   0  0  0  0  0  0  0  0  0  0  0  0
   26.4266  -20.3737  -10.0870 C   0  0  0  0  0  0  0  0  0  0  0  0
   26.7388  -19.3653  -10.7818 O   0  0  0  0  0  0  0  0  0  0  0  0
   24.6153  -21.9306  -12.7350 C   0  0  0  0  0  0  0  0  0  0  0  0
   24.5722  -20.8267  -11.7300 C   0  0  2  0  0  0  0  0  0  0  0  0
   25.2977  -21.1168  -10.5252 N   0  0  0  0  0  0  0  0  0  0  0  0
   23.1651  -20.4487  -11.4758 C   0  0  0  0  0  0  0  0  0  0  0  0
   22.5671  -20.9262  -10.4776 O   0  0  0  0  0  0  0  0  0  0  0  0
   22.4794  -19.5556  -12.3409 N   0  0  0  0  0  0  0  0  0  0  0  0
   21.7113  -19.9713  -13.4757 C   0  0  0  0  0  0  0  0  0  0  0  0
   20.3852  -20.5442  -13.0763 C   0  0  0  0  0  0  0  0  0  0  0  0
   19.2908  -19.6911  -13.1402 O   0  0  0  0  0  0  0  0  0  0  0  0
   20.2536  -21.7183  -12.7050 O   0  0  0  0  0  0  0  0  0  0  0  0
  2  3  1  1
  2  1  1  0
  4  2  1  0
  5  7  1  0
  5  6  1  6
  5  4  1  0
  7  8  2  0
 10  9  1  6
 10 12  1  0
 11  7  1  0
 11 10  1  0
 12 13  2  0
 12 14  1  0
 14 15  1  0
 15 16  1  0
 16 18  2  0
 16 17  1  0
M  END
$$$$
