LAG.pdb
     RDKit          3D

 18 17  0  0  1  0  0  0  0  0999 V2000
   16.8908  -13.8875  -17.8256 C   0  0  0  0  0  0  0  0  0  0  0  0
   18.2928  -13.3824  -18.1831 C   0  0  1  0  0  0  0  0  0  0  0  0
   18.1934  -12.7009  -19.5093 C   0  0  0  0  0  0  0  0  0  0  0  0
   18.8331  -12.5235  -17.0828 C   0  0  0  0  0  0  0  0  0  0  0  0
   20.1901  -11.9898  -17.4392 C   0  0  2  0  0  0  0  0  0  0  0  0
   21.0899  -13.1062  -17.6069 N   0  0  0  0  0  0  0  0  0  0  0  0
   20.6935  -11.0124  -16.4424 C   0  0  0  0  0  0  0  0  0  0  0  0
   19.9282  -10.1362  -15.9486 O   0  0  0  0  0  0  0  0  0  0  0  0
   23.8862  -10.4391  -14.4774 C   0  0  0  0  0  0  0  0  0  0  0  0
   22.5488  -10.0651  -15.0268 C   0  0  2  0  0  0  0  0  0  0  0  0
   22.0403  -11.0009  -15.9899 N   0  0  0  0  0  0  0  0  0  0  0  0
   22.6002   -8.6802  -15.5437 C   0  0  0  0  0  0  0  0  0  0  0  0
   22.9042   -8.4804  -16.7477 O   0  0  0  0  0  0  0  0  0  0  0  0
   22.3116   -7.5737  -14.7020 N   0  0  0  0  0  0  0  0  0  0  0  0
   22.2590   -6.2159  -15.1540 C   0  0  0  0  0  0  0  0  0  0  0  0
   21.9972   -5.2600  -14.0297 C   0  0  0  0  0  0  0  0  0  0  0  0
   22.0196   -3.9066  -14.3418 O   0  0  0  0  0  0  0  0  0  0  0  0
   21.7703   -5.6408  -12.8734 O   0  0  0  0  0  0  0  0  0  0  0  0
  2  3  1  6
  2  1  1  0
  4  2  1  0
  5  7  1  0
  5  6  1  1
  5  4  1  0
  7  8  2  0
 10  9  1  6
 10 12  1  0
 11  7  1  0
 11 10  1  0
 12 13  2  0
 12 14  1  0
 14 15  1  0
 15 16  1  0
 16 18  2  0
 16 17  1  0
M  END
$$$$
