LAG.pdb
     RDKit          3D

 18 17  0  0  1  0  0  0  0  0999 V2000
   31.9201  -21.7737    3.9918 C   0  0  0  0  0  0  0  0  0  0  0  0
   33.2231  -21.8117    4.7975 C   0  0  1  0  0  0  0  0  0  0  0  0
   33.1956  -20.6520    5.7395 C   0  0  0  0  0  0  0  0  0  0  0  0
   33.3880  -23.1445    5.4583 C   0  0  0  0  0  0  0  0  0  0  0  0
   34.6572  -23.1906    6.2584 C   0  0  2  0  0  0  0  0  0  0  0  0
   35.6974  -23.7556    5.4320 N   0  0  0  0  0  0  0  0  0  0  0  0
   34.4951  -23.9302    7.5348 C   0  0  0  0  0  0  0  0  0  0  0  0
   34.3206  -25.1819    7.5420 O   0  0  0  0  0  0  0  0  0  0  0  0
   34.9022  -23.2577   11.2252 C   0  0  0  0  0  0  0  0  0  0  0  0
   34.3344  -23.9799   10.0477 C   0  0  2  0  0  0  0  0  0  0  0  0
   34.5253  -23.2901    8.8028 N   0  0  0  0  0  0  0  0  0  0  0  0
   32.9164  -24.3086   10.3103 C   0  0  0  0  0  0  0  0  0  0  0  0
   32.0122  -23.6061    9.7899 O   0  0  0  0  0  0  0  0  0  0  0  0
   32.5607  -25.4044   11.1403 N   0  0  0  0  0  0  0  0  0  0  0  0
   31.2206  -25.8806   11.3072 C   0  0  0  0  0  0  0  0  0  0  0  0
   30.3941  -24.9496   12.1418 C   0  0  0  0  0  0  0  0  0  0  0  0
   29.0170  -25.0124   11.9708 O   0  0  0  0  0  0  0  0  0  0  0  0
   30.8978  -24.1571   12.9492 O   0  0  0  0  0  0  0  0  0  0  0  0
  2  3  1  1
  2  1  1  0
  4  2  1  0
  5  7  1  0
  5  6  1  6
  5  4  1  0
  7  8  2  0
 10  9  1  1
 10 12  1  0
 11  7  1  0
 11 10  1  0
 12 13  2  0
 12 14  1  0
 14 15  1  0
 15 16  1  0
 16 18  2  0
 16 17  1  0
M  END
$$$$
