LAG.pdb
     RDKit          3D

 18 17  0  0  1  0  0  0  0  0999 V2000
   21.6571  -15.1808  -14.3020 C   0  0  0  0  0  0  0  0  0  0  0  0
   22.6539  -14.5882  -15.3040 C   0  0  1  0  0  0  0  0  0  0  0  0
   22.2114  -15.0060  -16.6688 C   0  0  0  0  0  0  0  0  0  0  0  0
   22.7656  -13.1079  -15.1136 C   0  0  0  0  0  0  0  0  0  0  0  0
   23.8667  -12.5419  -15.9625 C   0  0  2  0  0  0  0  0  0  0  0  0
   25.1270  -13.0465  -15.4712 N   0  0  0  0  0  0  0  0  0  0  0  0
   23.8398  -11.0588  -16.0094 C   0  0  0  0  0  0  0  0  0  0  0  0
   24.2958  -10.3707  -15.0524 O   0  0  0  0  0  0  0  0  0  0  0  0
   22.7956   -8.3622  -18.4735 C   0  0  0  0  0  0  0  0  0  0  0  0
   23.1848   -8.9043  -17.1374 C   0  0  2  0  0  0  0  0  0  0  0  0
   23.3103  -10.3345  -17.1111 N   0  0  0  0  0  0  0  0  0  0  0  0
   22.2541   -8.3907  -16.1090 C   0  0  0  0  0  0  0  0  0  0  0  0
   21.2607   -9.0846  -15.7720 O   0  0  0  0  0  0  0  0  0  0  0  0
   22.4648   -7.1269  -15.4969 N   0  0  0  0  0  0  0  0  0  0  0  0
   21.6120   -6.5734  -14.4884 C   0  0  0  0  0  0  0  0  0  0  0  0
   22.0736   -5.2180  -14.0452 C   0  0  0  0  0  0  0  0  0  0  0  0
   21.2833   -4.5638  -13.1087 O   0  0  0  0  0  0  0  0  0  0  0  0
   23.1063   -4.6924  -14.4821 O   0  0  0  0  0  0  0  0  0  0  0  0
  2  3  1  6
  2  1  1  0
  4  2  1  0
  5  7  1  0
  5  6  1  1
  5  4  1  0
  7  8  2  0
 10  9  1  6
 10 12  1  0
 11  7  1  0
 11 10  1  0
 12 13  2  0
 12 14  1  0
 14 15  1  0
 15 16  1  0
 16 18  2  0
 16 17  1  0
M  END
$$$$
