LAG.pdb
     RDKit          3D

 18 17  0  0  1  0  0  0  0  0999 V2000
   26.2354  -14.3987  -15.4249 C   0  0  0  0  0  0  0  0  0  0  0  0
   24.7600  -14.2937  -15.8259 C   0  0  1  0  0  0  0  0  0  0  0  0
   23.9816  -15.1493  -14.8797 C   0  0  0  0  0  0  0  0  0  0  0  0
   24.3312  -12.8601  -15.8627 C   0  0  0  0  0  0  0  0  0  0  0  0
   22.9171  -12.7380  -16.3511 C   0  0  2  0  0  0  0  0  0  0  0  0
   22.8396  -13.3131  -17.6730 N   0  0  0  0  0  0  0  0  0  0  0  0
   22.4274  -11.3373  -16.3225 C   0  0  0  0  0  0  0  0  0  0  0  0
   23.0881  -10.4075  -16.8667 O   0  0  0  0  0  0  0  0  0  0  0  0
   19.2474   -9.5260  -15.3800 C   0  0  0  0  0  0  0  0  0  0  0  0
   20.7107   -9.6157  -15.6653 C   0  0  2  0  0  0  0  0  0  0  0  0
   21.2098  -10.9618  -15.6941 N   0  0  0  0  0  0  0  0  0  0  0  0
   21.4491   -8.7498  -14.7205 C   0  0  0  0  0  0  0  0  0  0  0  0
   22.0022   -9.2630  -13.7143 O   0  0  0  0  0  0  0  0  0  0  0  0
   21.5429   -7.3488  -14.9322 N   0  0  0  0  0  0  0  0  0  0  0  0
   22.2800   -6.4588  -14.0865 C   0  0  0  0  0  0  0  0  0  0  0  0
   22.2458   -5.0480  -14.5914 C   0  0  0  0  0  0  0  0  0  0  0  0
   21.5459   -4.8225  -15.7699 O   0  0  0  0  0  0  0  0  0  0  0  0
   22.8085   -4.1170  -13.9996 O   0  0  0  0  0  0  0  0  0  0  0  0
  2  3  1  1
  2  1  1  0
  4  2  1  0
  5  7  1  0
  5  6  1  6
  5  4  1  0
  7  8  2  0
 10  9  1  1
 10 12  1  0
 11  7  1  0
 11 10  1  0
 12 13  2  0
 12 14  1  0
 14 15  1  0
 15 16  1  0
 16 18  2  0
 16 17  1  0
M  END
$$$$
