LAG.pdb
     RDKit          3D

 18 17  0  0  1  0  0  0  0  0999 V2000
   16.6703  -12.0023  -18.9982 C   0  0  0  0  0  0  0  0  0  0  0  0
   17.7847  -12.0268  -17.9465 C   0  0  1  0  0  0  0  0  0  0  0  0
   19.0749  -12.2294  -18.6728 C   0  0  0  0  0  0  0  0  0  0  0  0
   17.7336  -10.7902  -17.1049 C   0  0  0  0  0  0  0  0  0  0  0  0
   18.8323  -10.7945  -16.0821 C   0  0  2  0  0  0  0  0  0  0  0  0
   18.6170  -11.9057  -15.1859 N   0  0  0  0  0  0  0  0  0  0  0  0
   18.9348   -9.5041  -15.3562 C   0  0  0  0  0  0  0  0  0  0  0  0
   19.0446   -8.4130  -15.9844 O   0  0  0  0  0  0  0  0  0  0  0  0
   18.5223   -8.2850  -11.7993 C   0  0  0  0  0  0  0  0  0  0  0  0
   18.9828   -8.1773  -13.2160 C   0  0  2  0  0  0  0  0  0  0  0  0
   18.9163   -9.4167  -13.9383 N   0  0  0  0  0  0  0  0  0  0  0  0
   20.3286   -7.5648  -13.2497 C   0  0  0  0  0  0  0  0  0  0  0  0
   21.3454   -8.3019  -13.1822 O   0  0  0  0  0  0  0  0  0  0  0  0
   20.4899   -6.1581  -13.3569 N   0  0  0  0  0  0  0  0  0  0  0  0
   21.7412   -5.5133  -13.6199 C   0  0  0  0  0  0  0  0  0  0  0  0
   21.6007   -4.0227  -13.6890 C   0  0  0  0  0  0  0  0  0  0  0  0
   20.3126   -3.5111  -13.5955 O   0  0  0  0  0  0  0  0  0  0  0  0
   22.5745   -3.2693  -13.8227 O   0  0  0  0  0  0  0  0  0  0  0  0
  2  3  1  6
  2  1  1  0
  4  2  1  0
  5  7  1  0
  5  6  1  1
  5  4  1  0
  7  8  2  0
 10  9  1  1
 10 12  1  0
 11  7  1  0
 11 10  1  0
 12 13  2  0
 12 14  1  0
 14 15  1  0
 15 16  1  0
 16 18  2  0
 16 17  1  0
M  END
$$$$
