LAG.pdb
     RDKit          3D

 18 17  0  0  1  0  0  0  0  0999 V2000
   25.5200  -14.8573  -15.2394 C   0  0  0  0  0  0  0  0  0  0  0  0
   24.2747  -14.5188  -16.0660 C   0  0  1  0  0  0  0  0  0  0  0  0
   23.1121  -15.1921  -15.4116 C   0  0  0  0  0  0  0  0  0  0  0  0
   24.1327  -13.0358  -16.2101 C   0  0  0  0  0  0  0  0  0  0  0  0
   22.9171  -12.6920  -17.0209 C   0  0  2  0  0  0  0  0  0  0  0  0
   23.0883  -13.2288  -18.3501 N   0  0  0  0  0  0  0  0  0  0  0  0
   22.6430  -11.2336  -17.0393 C   0  0  0  0  0  0  0  0  0  0  0  0
   23.4874  -10.4203  -17.5112 O   0  0  0  0  0  0  0  0  0  0  0  0
   19.6425   -9.0059  -16.6403 C   0  0  0  0  0  0  0  0  0  0  0  0
   21.1112   -9.2768  -16.6298 C   0  0  2  0  0  0  0  0  0  0  0  0
   21.4382  -10.6720  -16.5376 N   0  0  0  0  0  0  0  0  0  0  0  0
   21.7525   -8.4657  -15.5722 C   0  0  0  0  0  0  0  0  0  0  0  0
   21.9858   -8.9849  -14.4506 O   0  0  0  0  0  0  0  0  0  0  0  0
   22.1086   -7.1108  -15.8038 N   0  0  0  0  0  0  0  0  0  0  0  0
   22.7638   -6.2790  -14.8397 C   0  0  0  0  0  0  0  0  0  0  0  0
   21.7863   -5.4855  -14.0265 C   0  0  0  0  0  0  0  0  0  0  0  0
   22.3182   -4.6240  -13.0754 O   0  0  0  0  0  0  0  0  0  0  0  0
   20.5614   -5.5809  -14.1819 O   0  0  0  0  0  0  0  0  0  0  0  0
  2  3  1  1
  2  1  1  0
  4  2  1  0
  5  7  1  0
  5  6  1  6
  5  4  1  0
  7  8  2  0
 10  9  1  1
 10 12  1  0
 11  7  1  0
 11 10  1  0
 12 13  2  0
 12 14  1  0
 14 15  1  0
 15 16  1  0
 16 18  2  0
 16 17  1  0
M  END
$$$$
