WTN.pdb
     RDKit          3D

 30 31  0  0  1  0  0  0  0  0999 V2000
    6.1865  -17.1744   24.7588 N   0  0  0  0  0  0  0  0  0  0  0  0
    7.0676  -16.1405   24.2540 C   0  0  1  0  0  0  0  0  0  0  0  0
    7.8485  -15.4642   25.3326 C   0  0  0  0  0  0  0  0  0  0  0  0
    6.9427  -14.5221   26.0339 C   0  0  0  0  0  0  0  0  0  0  0  0
    5.8081  -14.8117   26.7732 C   0  0  0  0  0  0  0  0  0  0  0  0
    5.3017  -13.6679   27.2216 N   0  0  0  0  0  0  0  0  0  0  0  0
    6.0750  -12.6464   26.7945 C   0  0  0  0  0  0  0  0  0  0  0  0
    6.0014  -11.2795   26.9717 C   0  0  0  0  0  0  0  0  0  0  0  0
    6.9460  -10.4459   26.4115 C   0  0  0  0  0  0  0  0  0  0  0  0
    7.9835  -10.9699   25.6619 C   0  0  0  0  0  0  0  0  0  0  0  0
    8.0858  -12.3446   25.4647 C   0  0  0  0  0  0  0  0  0  0  0  0
    7.1232  -13.1524   26.0394 C   0  0  0  0  0  0  0  0  0  0  0  0
    7.9227  -16.7152   23.1803 C   0  0  0  0  0  0  0  0  0  0  0  0
    8.4239  -17.8531   23.3719 O   0  0  0  0  0  0  0  0  0  0  0  0
    7.4690  -15.7097   19.3017 C   0  0  0  0  0  0  0  0  0  0  0  0
    8.9232  -15.9188   19.6345 C   0  0  1  0  0  0  0  0  0  0  0  0
    9.5039  -14.6569   19.8322 O   0  0  0  0  0  0  0  0  0  0  0  0
    9.0456  -16.6498   20.9698 C   0  0  2  0  0  0  0  0  0  0  0  0
    8.2005  -16.0637   21.9725 N   0  0  0  0  0  0  0  0  0  0  0  0
   10.4792  -16.6128   21.3369 C   0  0  0  0  0  0  0  0  0  0  0  0
   10.8687  -15.6857   22.0919 O   0  0  0  0  0  0  0  0  0  0  0  0
   12.1229  -18.2030   23.9160 N   0  0  0  0  0  0  0  0  0  0  0  0
   12.9249  -19.0601   23.1267 C   0  0  0  0  0  0  0  0  0  0  0  0
   13.2933  -20.1508   23.6739 O   0  0  0  0  0  0  0  0  0  0  0  0
   13.3596  -18.8015   21.7453 C   0  0  0  0  0  0  0  0  0  0  0  0
   12.8511  -17.4920   21.2719 C   0  0  2  0  0  0  0  0  0  0  0  0
   11.4329  -17.5515   20.8928 N   0  0  0  0  0  0  0  0  0  0  0  0
   13.5985  -17.0124   20.0921 C   0  0  0  0  0  0  0  0  0  0  0  0
   14.8561  -16.7988   20.1786 O   0  0  0  0  0  0  0  0  0  0  0  0
   13.0224  -16.7686   18.8595 O   0  0  0  0  0  0  0  0  0  0  0  0
  2  1  1  1
  2 13  1  0
  2  3  1  0
  3  4  1  0
  4 12  1  0
  4  5  2  0
  5  6  1  0
  7  6  1  0
  7  8  2  0
  9  8  1  0
 10  9  2  0
 11 12  2  0
 11 10  1  0
 12  7  1  0
 13 19  1  0
 14 13  2  0
 16 15  1  1
 16 17  1  0
 16 18  1  0
 18 20  1  0
 18 19  1  1
 20 27  1  0
 21 20  2  0
 22 23  1  0
 23 24  2  0
 25 23  1  0
 26 25  1  6
 26 28  1  0
 27 26  1  0
 28 29  2  0
 28 30  1  0
M  END
$$$$
