WTN.pdb
     RDKit          3D

 30 31  0  0  1  0  0  0  0  0999 V2000
    6.3688  -17.5769   24.7675 N   0  0  0  0  0  0  0  0  0  0  0  0
    7.2261  -16.6318   24.0806 C   0  0  1  0  0  0  0  0  0  0  0  0
    8.0881  -15.8447   25.0123 C   0  0  0  0  0  0  0  0  0  0  0  0
    7.2197  -14.8945   25.7492 C   0  0  0  0  0  0  0  0  0  0  0  0
    6.1170  -15.1744   26.5388 C   0  0  0  0  0  0  0  0  0  0  0  0
    5.6379  -14.0258   27.0048 N   0  0  0  0  0  0  0  0  0  0  0  0
    6.3979  -13.0107   26.5403 C   0  0  0  0  0  0  0  0  0  0  0  0
    6.3406  -11.6428   26.7155 C   0  0  0  0  0  0  0  0  0  0  0  0
    7.2649  -10.8171   26.1112 C   0  0  0  0  0  0  0  0  0  0  0  0
    8.2652  -11.3502   25.3187 C   0  0  0  0  0  0  0  0  0  0  0  0
    8.3502  -12.7262   25.1223 C   0  0  0  0  0  0  0  0  0  0  0  0
    7.4088  -13.5259   25.7418 C   0  0  0  0  0  0  0  0  0  0  0  0
    7.9978  -17.3521   23.0318 C   0  0  0  0  0  0  0  0  0  0  0  0
    8.3085  -18.5519   23.2484 O   0  0  0  0  0  0  0  0  0  0  0  0
    7.7150  -16.4758   19.1603 C   0  0  0  0  0  0  0  0  0  0  0  0
    9.1408  -16.8366   19.4864 C   0  0  1  0  0  0  0  0  0  0  0  0
    9.8736  -15.6442   19.5840 O   0  0  0  0  0  0  0  0  0  0  0  0
    9.2050  -17.4818   20.8691 C   0  0  2  0  0  0  0  0  0  0  0  0
    8.3968  -16.7725   21.8213 N   0  0  0  0  0  0  0  0  0  0  0  0
   10.6357  -17.5182   21.2475 C   0  0  0  0  0  0  0  0  0  0  0  0
   11.0850  -16.5686   21.9386 O   0  0  0  0  0  0  0  0  0  0  0  0
   12.2945  -20.1292   23.5406 N   0  0  0  0  0  0  0  0  0  0  0  0
   13.1065  -20.6485   22.5053 C   0  0  0  0  0  0  0  0  0  0  0  0
   13.5189  -21.8450   22.6576 O   0  0  0  0  0  0  0  0  0  0  0  0
   13.5057  -19.9328   21.2836 C   0  0  0  0  0  0  0  0  0  0  0  0
   12.9405  -18.5625   21.2702 C   0  0  2  0  0  0  0  0  0  0  0  0
   11.5237  -18.5503   20.8813 N   0  0  0  0  0  0  0  0  0  0  0  0
   13.6603  -17.6862   20.3242 C   0  0  0  0  0  0  0  0  0  0  0  0
   13.3458  -17.6928   19.0849 O   0  0  0  0  0  0  0  0  0  0  0  0
   14.6827  -16.8306   20.6888 O   0  0  0  0  0  0  0  0  0  0  0  0
  2  1  1  1
  2 13  1  0
  2  3  1  0
  3  4  1  0
  4 12  1  0
  4  5  2  0
  5  6  1  0
  7  6  1  0
  7  8  2  0
  9  8  1  0
 10  9  2  0
 11 12  2  0
 11 10  1  0
 12  7  1  0
 13 19  1  0
 14 13  2  0
 16 15  1  1
 16 17  1  0
 16 18  1  0
 18 20  1  0
 18 19  1  1
 20 27  1  0
 21 20  2  0
 22 23  1  0
 23 24  2  0
 25 23  1  0
 26 25  1  6
 26 28  1  0
 27 26  1  0
 28 29  2  0
 28 30  1  0
M  END
$$$$
