WTN.pdb
     RDKit          3D

 30 31  0  0  1  0  0  0  0  0999 V2000
    6.5984  -17.6906   24.8413 N   0  0  0  0  0  0  0  0  0  0  0  0
    7.2194  -16.6021   24.1135 C   0  0  1  0  0  0  0  0  0  0  0  0
    7.9643  -15.6596   25.0009 C   0  0  0  0  0  0  0  0  0  0  0  0
    6.9792  -14.7491   25.6339 C   0  0  0  0  0  0  0  0  0  0  0  0
    5.7845  -15.0742   26.2541 C   0  0  0  0  0  0  0  0  0  0  0  0
    5.2177  -13.9498   26.6785 N   0  0  0  0  0  0  0  0  0  0  0  0
    6.0102  -12.9063   26.3514 C   0  0  0  0  0  0  0  0  0  0  0  0
    5.8960  -11.5455   26.5526 C   0  0  0  0  0  0  0  0  0  0  0  0
    6.8751  -10.6840   26.1052 C   0  0  0  0  0  0  0  0  0  0  0  0
    7.9885  -11.1733   25.4465 C   0  0  0  0  0  0  0  0  0  0  0  0
    8.1332  -12.5409   25.2279 C   0  0  0  0  0  0  0  0  0  0  0  0
    7.1344  -13.3773   25.6887 C   0  0  0  0  0  0  0  0  0  0  0  0
    8.0560  -17.1663   23.0199 C   0  0  0  0  0  0  0  0  0  0  0  0
    8.6657  -18.2445   23.2408 O   0  0  0  0  0  0  0  0  0  0  0  0
    9.6129  -17.1747   18.3299 C   0  0  0  0  0  0  0  0  0  0  0  0
    8.8045  -16.4708   19.3883 C   0  0  1  0  0  0  0  0  0  0  0  0
    7.4471  -16.6652   19.0916 O   0  0  0  0  0  0  0  0  0  0  0  0
    9.0369  -17.1384   20.7421 C   0  0  2  0  0  0  0  0  0  0  0  0
    8.2031  -16.5675   21.7629 N   0  0  0  0  0  0  0  0  0  0  0  0
   10.4806  -16.9955   21.0365 C   0  0  0  0  0  0  0  0  0  0  0  0
   10.9219  -15.8409   21.2674 O   0  0  0  0  0  0  0  0  0  0  0  0
   11.9935  -18.2359   24.1450 N   0  0  0  0  0  0  0  0  0  0  0  0
   12.8573  -19.1710   23.5282 C   0  0  0  0  0  0  0  0  0  0  0  0
   13.2457  -20.1446   24.2536 O   0  0  0  0  0  0  0  0  0  0  0  0
   13.3346  -19.1149   22.1378 C   0  0  0  0  0  0  0  0  0  0  0  0
   12.8016  -17.9157   21.4483 C   0  0  2  0  0  0  0  0  0  0  0  0
   11.3896  -18.0727   21.0737 N   0  0  0  0  0  0  0  0  0  0  0  0
   13.5514  -17.6215   20.2107 C   0  0  0  0  0  0  0  0  0  0  0  0
   13.1331  -18.0733   19.0901 O   0  0  0  0  0  0  0  0  0  0  0  0
   14.7103  -16.8692   20.1700 O   0  0  0  0  0  0  0  0  0  0  0  0
  2  1  1  1
  2 13  1  0
  2  3  1  0
  3  4  1  0
  4 12  1  0
  4  5  2  0
  5  6  1  0
  7  6  1  0
  7  8  2  0
  9  8  1  0
 10  9  2  0
 11 12  2  0
 11 10  1  0
 12  7  1  0
 13 19  1  0
 14 13  2  0
 16 15  1  6
 16 17  1  0
 16 18  1  0
 18 20  1  0
 18 19  1  1
 20 27  1  0
 21 20  2  0
 22 23  1  0
 23 24  2  0
 25 23  1  0
 26 25  1  6
 26 28  1  0
 27 26  1  0
 28 29  2  0
 28 30  1  0
M  END
$$$$
