WTN.pdb
     RDKit          3D

 30 31  0  0  1  0  0  0  0  0999 V2000
    6.4798  -17.8481   24.6562 N   0  0  0  0  0  0  0  0  0  0  0  0
    7.1659  -16.7350   24.0314 C   0  0  1  0  0  0  0  0  0  0  0  0
    8.0477  -15.9897   24.9788 C   0  0  0  0  0  0  0  0  0  0  0  0
    7.2075  -15.0181   25.7205 C   0  0  0  0  0  0  0  0  0  0  0  0
    6.0583  -15.2610   26.4540 C   0  0  0  0  0  0  0  0  0  0  0  0
    5.6294  -14.1047   26.9487 N   0  0  0  0  0  0  0  0  0  0  0  0
    6.4671  -13.1203   26.5574 C   0  0  0  0  0  0  0  0  0  0  0  0
    6.4840  -11.7595   26.7875 C   0  0  0  0  0  0  0  0  0  0  0  0
    7.4800  -10.9686   26.2551 C   0  0  0  0  0  0  0  0  0  0  0  0
    8.4789  -11.5300   25.4806 C   0  0  0  0  0  0  0  0  0  0  0  0
    8.4900  -12.8998   25.2299 C   0  0  0  0  0  0  0  0  0  0  0  0
    7.4778  -13.6643   25.7780 C   0  0  0  0  0  0  0  0  0  0  0  0
    7.8820  -17.2249   22.8226 C   0  0  0  0  0  0  0  0  0  0  0  0
    8.4471  -18.3472   22.8868 O   0  0  0  0  0  0  0  0  0  0  0  0
    9.2248  -16.7468   18.0850 C   0  0  0  0  0  0  0  0  0  0  0  0
    8.3925  -16.2210   19.2251 C   0  0  1  0  0  0  0  0  0  0  0  0
    7.0485  -16.5097   18.9441 O   0  0  0  0  0  0  0  0  0  0  0  0
    8.7270  -16.9878   20.5028 C   0  0  2  0  0  0  0  0  0  0  0  0
    7.9627  -16.5103   21.6212 N   0  0  0  0  0  0  0  0  0  0  0  0
   10.1867  -16.8466   20.7052 C   0  0  0  0  0  0  0  0  0  0  0  0
   10.6321  -15.7072   20.9959 O   0  0  0  0  0  0  0  0  0  0  0  0
   12.0174  -19.6324   23.8848 N   0  0  0  0  0  0  0  0  0  0  0  0
   12.7073  -18.6865   23.0910 C   0  0  0  0  0  0  0  0  0  0  0  0
   13.0254  -17.5933   23.6643 O   0  0  0  0  0  0  0  0  0  0  0  0
   13.0853  -18.8594   21.6798 C   0  0  0  0  0  0  0  0  0  0  0  0
   12.5440  -17.7546   20.8528 C   0  0  2  0  0  0  0  0  0  0  0  0
   11.1063  -17.9094   20.5923 N   0  0  0  0  0  0  0  0  0  0  0  0
   13.2191  -17.6752   19.5418 C   0  0  0  0  0  0  0  0  0  0  0  0
   14.4756  -17.4454   19.4855 O   0  0  0  0  0  0  0  0  0  0  0  0
   12.5741  -17.8357   18.3299 O   0  0  0  0  0  0  0  0  0  0  0  0
  2  1  1  1
  2 13  1  0
  2  3  1  0
  3  4  1  0
  4 12  1  0
  4  5  2  0
  5  6  1  0
  7  6  1  0
  7  8  2  0
  9  8  1  0
 10  9  2  0
 11 12  2  0
 11 10  1  0
 12  7  1  0
 13 19  1  0
 14 13  2  0
 16 15  1  6
 16 17  1  0
 16 18  1  0
 18 20  1  0
 18 19  1  1
 20 27  1  0
 21 20  2  0
 22 23  1  0
 23 24  2  0
 25 23  1  0
 26 25  1  6
 26 28  1  0
 27 26  1  0
 28 29  2  0
 28 30  1  0
M  END
$$$$
