WTN.pdb
     RDKit          3D

 30 31  0  0  1  0  0  0  0  0999 V2000
    6.3682  -16.8555   24.6732 N   0  0  0  0  0  0  0  0  0  0  0  0
    7.0679  -15.7082   24.1306 C   0  0  1  0  0  0  0  0  0  0  0  0
    8.2028  -15.2588   24.9912 C   0  0  0  0  0  0  0  0  0  0  0  0
    7.6352  -14.6075   26.1968 C   0  0  0  0  0  0  0  0  0  0  0  0
    7.2949  -15.1888   27.4069 C   0  0  0  0  0  0  0  0  0  0  0  0
    6.8208  -14.2382   28.2052 N   0  0  0  0  0  0  0  0  0  0  0  0
    6.8441  -13.0587   27.5478 C   0  0  0  0  0  0  0  0  0  0  0  0
    6.4715  -11.7793   27.9077 C   0  0  0  0  0  0  0  0  0  0  0  0
    6.6049  -10.7323   27.0207 C   0  0  0  0  0  0  0  0  0  0  0  0
    7.1157  -10.9504   25.7541 C   0  0  0  0  0  0  0  0  0  0  0  0
    7.5008  -12.2295   25.3605 C   0  0  0  0  0  0  0  0  0  0  0  0
    7.3543  -13.2569   26.2729 C   0  0  0  0  0  0  0  0  0  0  0  0
    7.4734  -16.0065   22.7303 C   0  0  0  0  0  0  0  0  0  0  0  0
    7.6709  -17.2090   22.4175 O   0  0  0  0  0  0  0  0  0  0  0  0
    8.6217  -14.5083   18.1489 C   0  0  0  0  0  0  0  0  0  0  0  0
    8.0287  -14.1509   19.4868 C   0  0  1  0  0  0  0  0  0  0  0  0
    6.6604  -13.9046   19.2977 O   0  0  0  0  0  0  0  0  0  0  0  0
    8.1120  -15.3535   20.4244 C   0  0  2  0  0  0  0  0  0  0  0  0
    7.6472  -15.0281   21.7439 N   0  0  0  0  0  0  0  0  0  0  0  0
    9.5236  -15.7990   20.4087 C   0  0  0  0  0  0  0  0  0  0  0  0
   10.3815  -15.0523   20.9451 O   0  0  0  0  0  0  0  0  0  0  0  0
   11.0378  -18.2662   22.5410 N   0  0  0  0  0  0  0  0  0  0  0  0
   11.3125  -19.2051   21.5194 C   0  0  0  0  0  0  0  0  0  0  0  0
   11.3968  -20.4245   21.8812 O   0  0  0  0  0  0  0  0  0  0  0  0
   11.5029  -18.8951   20.0940 C   0  0  0  0  0  0  0  0  0  0  0  0
   11.3686  -17.4388   19.8516 C   0  0  2  0  0  0  0  0  0  0  0  0
    9.9644  -17.0069   19.8303 N   0  0  0  0  0  0  0  0  0  0  0  0
   11.9661  -17.0449   18.5599 C   0  0  0  0  0  0  0  0  0  0  0  0
   11.3250  -17.2500   17.4729 O   0  0  0  0  0  0  0  0  0  0  0  0
   13.2077  -16.4511   18.4322 O   0  0  0  0  0  0  0  0  0  0  0  0
  2  1  1  1
  2 13  1  0
  2  3  1  0
  3  4  1  0
  4 12  1  0
  4  5  2  0
  5  6  1  0
  7  6  1  0
  7  8  2  0
  9  8  1  0
 10  9  2  0
 11 12  2  0
 11 10  1  0
 12  7  1  0
 13 19  1  0
 14 13  2  0
 16 15  1  6
 16 17  1  0
 16 18  1  0
 18 20  1  0
 18 19  1  1
 20 27  1  0
 21 20  2  0
 22 23  1  0
 23 24  2  0
 25 23  1  0
 26 25  1  6
 26 28  1  0
 27 26  1  0
 28 29  2  0
 28 30  1  0
M  END
$$$$
