WTN.pdb
     RDKit          3D

 30 31  0  0  1  0  0  0  0  0999 V2000
    6.6509  -17.4902   24.3893 N   0  0  0  0  0  0  0  0  0  0  0  0
    7.5893  -16.4696   23.9672 C   0  0  1  0  0  0  0  0  0  0  0  0
    8.2042  -15.7353   25.1132 C   0  0  0  0  0  0  0  0  0  0  0  0
    7.1582  -14.8798   25.7249 C   0  0  0  0  0  0  0  0  0  0  0  0
    5.9849  -15.2711   26.3478 C   0  0  0  0  0  0  0  0  0  0  0  0
    5.3430  -14.1786   26.7479 N   0  0  0  0  0  0  0  0  0  0  0  0
    6.0662  -13.0915   26.4025 C   0  0  0  0  0  0  0  0  0  0  0  0
    5.8614  -11.7376   26.5762 C   0  0  0  0  0  0  0  0  0  0  0  0
    6.7832  -10.8221   26.1146 C   0  0  0  0  0  0  0  0  0  0  0  0
    7.9294  -11.2494   25.4693 C   0  0  0  0  0  0  0  0  0  0  0  0
    8.1653  -12.6084   25.2785 C   0  0  0  0  0  0  0  0  0  0  0  0
    7.2220  -13.5000   25.7528 C   0  0  0  0  0  0  0  0  0  0  0  0
    8.5923  -17.0821   23.0545 C   0  0  0  0  0  0  0  0  0  0  0  0
    8.9731  -18.2558   23.2999 O   0  0  0  0  0  0  0  0  0  0  0  0
   11.7708  -16.7792   19.2840 C   0  0  0  0  0  0  0  0  0  0  0  0
   10.5787  -16.1726   19.9769 C   0  0  1  0  0  0  0  0  0  0  0  0
    9.4453  -16.4407   19.1945 O   0  0  0  0  0  0  0  0  0  0  0  0
   10.3437  -16.8794   21.3102 C   0  0  2  0  0  0  0  0  0  0  0  0
    9.1349  -16.4286   21.9415 N   0  0  0  0  0  0  0  0  0  0  0  0
   11.5476  -16.6286   22.1343 C   0  0  0  0  0  0  0  0  0  0  0  0
   11.7969  -15.4410   22.4642 O   0  0  0  0  0  0  0  0  0  0  0  0
   12.2381  -20.1301   24.9750 N   0  0  0  0  0  0  0  0  0  0  0  0
   13.0554  -18.9819   25.0947 C   0  0  0  0  0  0  0  0  0  0  0  0
   12.8769  -18.2679   26.1355 O   0  0  0  0  0  0  0  0  0  0  0  0
   14.0818  -18.5520   24.1325 C   0  0  0  0  0  0  0  0  0  0  0  0
   13.6266  -17.3602   23.3776 C   0  0  2  0  0  0  0  0  0  0  0  0
   12.4301  -17.6376   22.5712 N   0  0  0  0  0  0  0  0  0  0  0  0
   14.6701  -16.8689   22.4554 C   0  0  0  0  0  0  0  0  0  0  0  0
   15.7674  -16.4081   22.9228 O   0  0  0  0  0  0  0  0  0  0  0  0
   14.5467  -16.8693   21.0787 O   0  0  0  0  0  0  0  0  0  0  0  0
  2  1  1  1
  2 13  1  0
  2  3  1  0
  3  4  1  0
  4 12  1  0
  4  5  2  0
  5  6  1  0
  7  6  1  0
  7  8  2  0
  9  8  1  0
 10  9  2  0
 11 12  2  0
 11 10  1  0
 12  7  1  0
 13 19  1  0
 14 13  2  0
 16 15  1  6
 16 17  1  0
 16 18  1  0
 18 20  1  0
 18 19  1  1
 20 27  1  0
 21 20  2  0
 22 23  1  0
 23 24  2  0
 25 23  1  0
 26 25  1  6
 26 28  1  0
 27 26  1  0
 28 29  2  0
 28 30  1  0
M  END
$$$$
