WTN.pdb
     RDKit          3D

 30 31  0  0  1  0  0  0  0  0999 V2000
    6.2825  -17.4126   24.4739 N   0  0  0  0  0  0  0  0  0  0  0  0
    7.1360  -16.4037   23.8790 C   0  0  1  0  0  0  0  0  0  0  0  0
    8.0319  -15.7404   24.8729 C   0  0  0  0  0  0  0  0  0  0  0  0
    7.2032  -14.8358   25.7066 C   0  0  0  0  0  0  0  0  0  0  0  0
    6.1178  -15.1576   26.5042 C   0  0  0  0  0  0  0  0  0  0  0  0
    5.6743  -14.0409   27.0718 N   0  0  0  0  0  0  0  0  0  0  0  0
    6.4405  -13.0057   26.6652 C   0  0  0  0  0  0  0  0  0  0  0  0
    6.4146  -11.6549   26.9475 C   0  0  0  0  0  0  0  0  0  0  0  0
    7.3372  -10.8005   26.3820 C   0  0  0  0  0  0  0  0  0  0  0  0
    8.3045  -11.2871   25.5215 C   0  0  0  0  0  0  0  0  0  0  0  0
    8.3573  -12.6448   25.2165 C   0  0  0  0  0  0  0  0  0  0  0  0
    7.4184  -13.4742   25.7996 C   0  0  0  0  0  0  0  0  0  0  0  0
    7.8711  -17.0057   22.7338 C   0  0  0  0  0  0  0  0  0  0  0  0
    8.2500  -18.2007   22.8395 O   0  0  0  0  0  0  0  0  0  0  0  0
    7.4359  -15.7494   18.9363 C   0  0  0  0  0  0  0  0  0  0  0  0
    8.8731  -16.1069   19.2117 C   0  0  1  0  0  0  0  0  0  0  0  0
    9.5751  -14.9144   19.4435 O   0  0  0  0  0  0  0  0  0  0  0  0
    8.9649  -16.9058   20.5101 C   0  0  2  0  0  0  0  0  0  0  0  0
    8.1643  -16.3200   21.5488 N   0  0  0  0  0  0  0  0  0  0  0  0
   10.4015  -16.9687   20.8617 C   0  0  0  0  0  0  0  0  0  0  0  0
   10.9007  -15.9887   21.4712 O   0  0  0  0  0  0  0  0  0  0  0  0
   11.5398  -20.8734   22.8382 N   0  0  0  0  0  0  0  0  0  0  0  0
   12.4797  -19.8364   22.6331 C   0  0  0  0  0  0  0  0  0  0  0  0
   12.8246  -19.1747   23.6666 O   0  0  0  0  0  0  0  0  0  0  0  0
   13.0854  -19.4664   21.3446 C   0  0  0  0  0  0  0  0  0  0  0  0
   12.6608  -18.1058   20.9371 C   0  0  2  0  0  0  0  0  0  0  0  0
   11.2427  -18.0580   20.5556 N   0  0  0  0  0  0  0  0  0  0  0  0
   13.4401  -17.6157   19.7824 C   0  0  0  0  0  0  0  0  0  0  0  0
   14.7088  -17.4896   19.8778 O   0  0  0  0  0  0  0  0  0  0  0  0
   12.8834  -17.2712   18.5651 O   0  0  0  0  0  0  0  0  0  0  0  0
  2  1  1  1
  2 13  1  0
  2  3  1  0
  3  4  1  0
  4 12  1  0
  4  5  2  0
  5  6  1  0
  7  6  1  0
  7  8  2  0
  9  8  1  0
 10  9  2  0
 11 12  2  0
 11 10  1  0
 12  7  1  0
 13 19  1  0
 14 13  2  0
 16 15  1  1
 16 17  1  0
 16 18  1  0
 18 20  1  0
 18 19  1  1
 20 27  1  0
 21 20  2  0
 22 23  1  0
 23 24  2  0
 25 23  1  0
 26 25  1  6
 26 28  1  0
 27 26  1  0
 28 29  2  0
 28 30  1  0
M  END
$$$$
