WTN.pdb
     RDKit          3D

 30 31  0  0  1  0  0  0  0  0999 V2000
    6.6617  -17.7271   24.8193 N   0  0  0  0  0  0  0  0  0  0  0  0
    7.3289  -16.7397   23.9945 C   0  0  1  0  0  0  0  0  0  0  0  0
    8.1004  -15.7408   24.7928 C   0  0  0  0  0  0  0  0  0  0  0  0
    7.1306  -14.8861   25.5202 C   0  0  0  0  0  0  0  0  0  0  0  0
    5.9036  -15.2428   26.0540 C   0  0  0  0  0  0  0  0  0  0  0  0
    5.3669  -14.1655   26.6171 N   0  0  0  0  0  0  0  0  0  0  0  0
    6.2103  -13.1218   26.4636 C   0  0  0  0  0  0  0  0  0  0  0  0
    6.1426  -11.7991   26.8521 C   0  0  0  0  0  0  0  0  0  0  0  0
    7.1693  -10.9267   26.5591 C   0  0  0  0  0  0  0  0  0  0  0  0
    8.2846  -11.3667   25.8696 C   0  0  0  0  0  0  0  0  0  0  0  0
    8.3831  -12.6951   25.4638 C   0  0  0  0  0  0  0  0  0  0  0  0
    7.3373  -13.5437   25.7730 C   0  0  0  0  0  0  0  0  0  0  0  0
    8.1534  -17.4401   22.9728 C   0  0  0  0  0  0  0  0  0  0  0  0
    8.6043  -18.5792   23.2594 O   0  0  0  0  0  0  0  0  0  0  0  0
   10.4082  -17.5990   18.5830 C   0  0  0  0  0  0  0  0  0  0  0  0
    9.4767  -16.8348   19.4872 C   0  0  1  0  0  0  0  0  0  0  0  0
    8.1718  -17.0027   18.9997 O   0  0  0  0  0  0  0  0  0  0  0  0
    9.4862  -17.4583   20.8813 C   0  0  2  0  0  0  0  0  0  0  0  0
    8.4553  -16.9053   21.7146 N   0  0  0  0  0  0  0  0  0  0  0  0
   10.8439  -17.2379   21.4287 C   0  0  0  0  0  0  0  0  0  0  0  0
   10.9461  -16.5999   22.5075 O   0  0  0  0  0  0  0  0  0  0  0  0
   11.6586  -18.0161   24.5351 N   0  0  0  0  0  0  0  0  0  0  0  0
   12.9019  -18.3202   23.9331 C   0  0  0  0  0  0  0  0  0  0  0  0
   13.9430  -18.0043   24.5974 O   0  0  0  0  0  0  0  0  0  0  0  0
   13.0896  -18.9646   22.6240 C   0  0  0  0  0  0  0  0  0  0  0  0
   13.2691  -17.9481   21.5601 C   0  0  2  0  0  0  0  0  0  0  0  0
   12.0272  -17.6985   20.8158 N   0  0  0  0  0  0  0  0  0  0  0  0
   14.2907  -18.3631   20.5778 C   0  0  0  0  0  0  0  0  0  0  0  0
   15.3294  -17.6403   20.3954 O   0  0  0  0  0  0  0  0  0  0  0  0
   14.2065  -19.5125   19.8147 O   0  0  0  0  0  0  0  0  0  0  0  0
  2  1  1  1
  2 13  1  0
  2  3  1  0
  3  4  1  0
  4 12  1  0
  4  5  2  0
  5  6  1  0
  7  6  1  0
  7  8  2  0
  9  8  1  0
 10  9  2  0
 11 12  2  0
 11 10  1  0
 12  7  1  0
 13 19  1  0
 14 13  2  0
 16 15  1  6
 16 17  1  0
 16 18  1  0
 18 20  1  0
 18 19  1  1
 20 27  1  0
 21 20  2  0
 22 23  1  0
 23 24  2  0
 25 23  1  0
 26 25  1  1
 26 28  1  0
 27 26  1  0
 28 29  2  0
 28 30  1  0
M  END
$$$$
