WTN.pdb
     RDKit          3D

 30 31  0  0  1  0  0  0  0  0999 V2000
    6.2446  -17.5574   24.5964 N   0  0  0  0  0  0  0  0  0  0  0  0
    7.1010  -16.5732   23.9654 C   0  0  1  0  0  0  0  0  0  0  0  0
    7.9790  -15.8571   24.9385 C   0  0  0  0  0  0  0  0  0  0  0  0
    7.1360  -14.9083   25.7059 C   0  0  0  0  0  0  0  0  0  0  0  0
    6.0398  -15.1865   26.5051 C   0  0  0  0  0  0  0  0  0  0  0  0
    5.5854  -14.0401   27.0002 N   0  0  0  0  0  0  0  0  0  0  0  0
    6.3550  -13.0279   26.5452 C   0  0  0  0  0  0  0  0  0  0  0  0
    6.3219  -11.6630   26.7480 C   0  0  0  0  0  0  0  0  0  0  0  0
    7.2507  -10.8401   26.1472 C   0  0  0  0  0  0  0  0  0  0  0  0
    8.2316  -11.3729   25.3305 C   0  0  0  0  0  0  0  0  0  0  0  0
    8.2920  -12.7458   25.1059 C   0  0  0  0  0  0  0  0  0  0  0  0
    7.3466  -13.5429   25.7227 C   0  0  0  0  0  0  0  0  0  0  0  0
    7.8555  -17.2252   22.8610 C   0  0  0  0  0  0  0  0  0  0  0  0
    8.3050  -18.3837   23.0581 O   0  0  0  0  0  0  0  0  0  0  0  0
    9.9148  -17.0993   18.3615 C   0  0  0  0  0  0  0  0  0  0  0  0
    8.9461  -16.4661   19.3259 C   0  0  1  0  0  0  0  0  0  0  0  0
    7.6482  -16.7056   18.8497 O   0  0  0  0  0  0  0  0  0  0  0  0
    9.0323  -17.1700   20.6784 C   0  0  2  0  0  0  0  0  0  0  0  0
    8.0933  -16.6248   21.6187 N   0  0  0  0  0  0  0  0  0  0  0  0
   10.4360  -17.0381   21.1298 C   0  0  0  0  0  0  0  0  0  0  0  0
   10.8311  -15.9020   21.4963 O   0  0  0  0  0  0  0  0  0  0  0  0
   12.1153  -20.6524   21.0173 N   0  0  0  0  0  0  0  0  0  0  0  0
   12.6576  -20.3408   22.2860 C   0  0  0  0  0  0  0  0  0  0  0  0
   12.8803  -21.3270   23.0623 O   0  0  0  0  0  0  0  0  0  0  0  0
   12.9842  -18.9923   22.7748 C   0  0  0  0  0  0  0  0  0  0  0  0
   12.7080  -17.9754   21.7321 C   0  0  2  0  0  0  0  0  0  0  0  0
   11.3553  -18.1063   21.1738 N   0  0  0  0  0  0  0  0  0  0  0  0
   13.6571  -18.0796   20.6056 C   0  0  0  0  0  0  0  0  0  0  0  0
   14.9043  -17.8790   20.8031 O   0  0  0  0  0  0  0  0  0  0  0  0
   13.2872  -18.3878   19.3099 O   0  0  0  0  0  0  0  0  0  0  0  0
  2  1  1  1
  2 13  1  0
  2  3  1  0
  3  4  1  0
  4 12  1  0
  4  5  2  0
  5  6  1  0
  7  6  1  0
  7  8  2  0
  9  8  1  0
 10  9  2  0
 11 12  2  0
 11 10  1  0
 12  7  1  0
 13 19  1  0
 14 13  2  0
 16 15  1  6
 16 17  1  0
 16 18  1  0
 18 20  1  0
 18 19  1  1
 20 27  1  0
 21 20  2  0
 22 23  1  0
 23 24  2  0
 25 23  1  0
 26 25  1  1
 26 28  1  0
 27 26  1  0
 28 29  2  0
 28 30  1  0
M  END
$$$$
