ISP.pdb
     RDKit          3D

 22 22  0  0  1  0  0  0  0  0999 V2000
   12.6407   -9.4654  -14.6099 C   0  0  0  0  0  0  0  0  0  0  0  0
   13.6274  -10.1146  -15.5540 C   0  0  0  0  0  0  0  0  0  0  0  0
   15.0685   -9.7072  -15.2363 C   0  0  2  0  0  0  0  0  0  0  0  0
   15.0947   -8.2008  -15.3203 C   0  0  0  0  0  0  0  0  0  0  0  0
   16.0125  -10.3442  -16.2402 C   0  0  2  0  0  0  0  0  0  0  0  0
   15.9339  -11.8135  -16.1083 N   0  0  0  0  0  0  0  0  0  0  0  0
   17.4339   -9.9986  -16.0024 C   0  0  0  0  0  0  0  0  0  0  0  0
   18.3405  -10.9034  -15.9096 O   0  0  0  0  0  0  0  0  0  0  0  0
   19.6332   -7.8688  -18.0254 O   0  0  0  0  0  0  0  0  0  0  0  0
   19.9551   -8.7980  -17.0595 C   0  0  0  0  0  0  0  0  0  0  0  0
   19.3547   -8.3879  -15.7038 C   0  0  2  0  0  0  0  0  0  0  0  0
   17.9318   -8.6739  -15.8576 N   0  0  0  0  0  0  0  0  0  0  0  0
   19.6100   -6.9229  -15.4865 C   0  0  0  0  0  0  0  0  0  0  0  0
   19.0522   -6.1909  -16.3514 O   0  0  0  0  0  0  0  0  0  0  0  0
   20.3903   -6.4583  -14.4235 N   0  0  0  0  0  0  0  0  0  0  0  0
   20.9370   -7.3136  -13.3418 C   0  0  0  0  0  0  0  0  0  0  0  0
   22.3860   -6.9256  -13.4401 C   0  0  0  0  0  0  0  0  0  0  0  0
   22.4018   -5.5098  -14.0097 C   0  0  0  0  0  0  0  0  0  0  0  0
   20.8910   -5.1934  -14.0433 C   0  0  1  0  0  0  0  0  0  0  0  0
   20.6154   -4.0118  -14.8221 C   0  0  0  0  0  0  0  0  0  0  0  0
   20.7441   -3.8253  -16.1485 O   0  0  0  0  0  0  0  0  0  0  0  0
   20.1865   -2.9924  -14.1580 O   0  0  0  0  0  0  0  0  0  0  0  0
  2  1  1  0
  2  3  1  0
  3  5  1  0
  3  4  1  6
  5  7  1  0
  5  6  1  1
  7  8  2  0
 10  9  1  0
 11 10  1  6
 12 11  1  0
 12  7  1  0
 13 14  2  0
 13 11  1  0
 15 13  1  0
 16 15  1  0
 17 16  1  0
 18 17  1  0
 18 19  1  0
 19 20  1  6
 19 15  1  0
 20 21  1  0
 22 20  2  0
M  END
$$$$
