ISP.pdb
     RDKit          3D

 22 22  0  0  1  0  0  0  0  0999 V2000
   24.1821  -31.1821  -24.8379 C   0  0  0  0  0  0  0  0  0  0  0  0
   24.9041  -31.8185  -23.6717 C   0  0  0  0  0  0  0  0  0  0  0  0
   25.2942  -30.7837  -22.6131 C   0  0  2  0  0  0  0  0  0  0  0  0
   26.7428  -30.4547  -22.8784 C   0  0  0  0  0  0  0  0  0  0  0  0
   25.0941  -31.3703  -21.2273 C   0  0  2  0  0  0  0  0  0  0  0  0
   23.6460  -31.5002  -20.9651 N   0  0  0  0  0  0  0  0  0  0  0  0
   25.6179  -30.5016  -20.1468 C   0  0  0  0  0  0  0  0  0  0  0  0
   26.8190  -30.0476  -20.1703 O   0  0  0  0  0  0  0  0  0  0  0  0
   24.5764  -27.5494  -16.4838 O   0  0  0  0  0  0  0  0  0  0  0  0
   24.2253  -28.3621  -17.5403 C   0  0  0  0  0  0  0  0  0  0  0  0
   25.4316  -29.2047  -17.9889 C   0  0  2  0  0  0  0  0  0  0  0  0
   24.8734  -30.0891  -19.0069 N   0  0  0  0  0  0  0  0  0  0  0  0
   25.9508  -29.9722  -16.8057 C   0  0  0  0  0  0  0  0  0  0  0  0
   26.4382  -29.2277  -15.9095 O   0  0  0  0  0  0  0  0  0  0  0  0
   25.8824  -31.3671  -16.7418 N   0  0  0  0  0  0  0  0  0  0  0  0
   25.1740  -32.2227  -17.7250 C   0  0  0  0  0  0  0  0  0  0  0  0
   26.2957  -33.1588  -18.0787 C   0  0  0  0  0  0  0  0  0  0  0  0
   27.2112  -33.1940  -16.8582 C   0  0  0  0  0  0  0  0  0  0  0  0
   26.3972  -32.3430  -15.8598 C   0  0  1  0  0  0  0  0  0  0  0  0
   27.1873  -31.9750  -14.7114 C   0  0  0  0  0  0  0  0  0  0  0  0
   27.6376  -30.7594  -14.3503 O   0  0  0  0  0  0  0  0  0  0  0  0
   27.5078  -32.9424  -13.9205 O   0  0  0  0  0  0  0  0  0  0  0  0
  2  1  1  0
  2  3  1  0
  3  5  1  0
  3  4  1  6
  5  7  1  0
  5  6  1  1
  7  8  2  0
 10  9  1  0
 11 10  1  1
 12 11  1  0
 12  7  1  0
 13 14  2  0
 13 11  1  0
 15 13  1  0
 16 15  1  0
 17 16  1  0
 18 17  1  0
 18 19  1  0
 19 20  1  1
 19 15  1  0
 20 21  1  0
 22 20  2  0
M  END
$$$$
