ISP.pdb
     RDKit          3D

 22 22  0  0  1  0  0  0  0  0999 V2000
   21.5000  -29.5538  -15.4735 C   0  0  0  0  0  0  0  0  0  0  0  0
   20.8338  -28.2042  -15.6186 C   0  0  0  0  0  0  0  0  0  0  0  0
   20.7678  -27.4578  -14.2836 C   0  0  2  0  0  0  0  0  0  0  0  0
   19.3991  -27.7507  -13.7196 C   0  0  0  0  0  0  0  0  0  0  0  0
   20.9747  -25.9723  -14.5181 C   0  0  2  0  0  0  0  0  0  0  0  0
   22.3561  -25.7486  -14.9917 N   0  0  0  0  0  0  0  0  0  0  0  0
   20.8416  -25.1644  -13.2828 C   0  0  0  0  0  0  0  0  0  0  0  0
   21.8363  -24.5188  -12.7898 O   0  0  0  0  0  0  0  0  0  0  0  0
   18.4943  -22.0168  -12.2428 O   0  0  0  0  0  0  0  0  0  0  0  0
   19.6937  -22.6921  -12.1701 C   0  0  0  0  0  0  0  0  0  0  0  0
   19.5030  -24.0431  -11.4596 C   0  0  2  0  0  0  0  0  0  0  0  0
   19.6396  -25.0195  -12.5357 N   0  0  0  0  0  0  0  0  0  0  0  0
   18.1315  -24.0760  -10.8459 C   0  0  0  0  0  0  0  0  0  0  0  0
   17.2351  -23.6306  -11.6160 O   0  0  0  0  0  0  0  0  0  0  0  0
   17.9121  -24.5583   -9.5521 N   0  0  0  0  0  0  0  0  0  0  0  0
   18.9016  -25.3296   -8.7605 C   0  0  0  0  0  0  0  0  0  0  0  0
   18.9151  -24.4909   -7.5130 C   0  0  0  0  0  0  0  0  0  0  0  0
   17.5458  -23.8204   -7.4454 C   0  0  0  0  0  0  0  0  0  0  0  0
   16.8349  -24.4905   -8.6409 C   0  0  1  0  0  0  0  0  0  0  0  0
   15.6093  -23.8095   -8.9767 C   0  0  0  0  0  0  0  0  0  0  0  0
   15.4291  -22.7345   -9.7658 O   0  0  0  0  0  0  0  0  0  0  0  0
   14.5373  -24.2959   -8.4492 O   0  0  0  0  0  0  0  0  0  0  0  0
  2  1  1  0
  2  3  1  0
  3  5  1  0
  3  4  1  6
  5  7  1  0
  5  6  1  1
  7  8  2  0
 10  9  1  0
 11 10  1  6
 12 11  1  0
 12  7  1  0
 13 14  2  0
 13 11  1  0
 15 13  1  0
 16 15  1  0
 17 16  1  0
 18 17  1  0
 18 19  1  0
 19 20  1  6
 19 15  1  0
 20 21  1  0
 22 20  2  0
M  END
$$$$
