ISP.pdb
     RDKit          3D

 22 22  0  0  1  0  0  0  0  0999 V2000
   27.3024  -14.0064  -15.1389 C   0  0  0  0  0  0  0  0  0  0  0  0
   25.7920  -13.9681  -15.0800 C   0  0  0  0  0  0  0  0  0  0  0  0
   25.2322  -12.6875  -15.7049 C   0  0  2  0  0  0  0  0  0  0  0  0
   25.7622  -11.5555  -14.8594 C   0  0  0  0  0  0  0  0  0  0  0  0
   23.7150  -12.7354  -15.6956 C   0  0  2  0  0  0  0  0  0  0  0  0
   23.2642  -13.8471  -16.5579 N   0  0  0  0  0  0  0  0  0  0  0  0
   23.0910  -11.5154  -16.2601 C   0  0  0  0  0  0  0  0  0  0  0  0
   23.1947  -11.2207  -17.5058 O   0  0  0  0  0  0  0  0  0  0  0  0
   19.8182  -10.6318  -16.7045 O   0  0  0  0  0  0  0  0  0  0  0  0
   20.2502   -9.5633  -15.9485 C   0  0  0  0  0  0  0  0  0  0  0  0
   21.7673   -9.3707  -16.1152 C   0  0  2  0  0  0  0  0  0  0  0  0
   22.3346  -10.5719  -15.5108 N   0  0  0  0  0  0  0  0  0  0  0  0
   22.1795   -8.1268  -15.3792 C   0  0  0  0  0  0  0  0  0  0  0  0
   22.0910   -8.2432  -14.1247 O   0  0  0  0  0  0  0  0  0  0  0  0
   22.6109   -6.9792  -16.0511 N   0  0  0  0  0  0  0  0  0  0  0  0
   23.0665   -6.9494  -17.4625 C   0  0  0  0  0  0  0  0  0  0  0  0
   22.1660   -5.8631  -17.9810 C   0  0  0  0  0  0  0  0  0  0  0  0
   21.8407   -4.9808  -16.7791 C   0  0  0  0  0  0  0  0  0  0  0  0
   22.7416   -5.6175  -15.6990 C   0  0  1  0  0  0  0  0  0  0  0  0
   22.3991   -5.1469  -14.3799 C   0  0  0  0  0  0  0  0  0  0  0  0
   23.0120   -4.2118  -13.6311 O   0  0  0  0  0  0  0  0  0  0  0  0
   21.3635   -5.6966  -13.8421 O   0  0  0  0  0  0  0  0  0  0  0  0
  2  1  1  0
  2  3  1  0
  3  5  1  0
  3  4  1  1
  5  7  1  0
  5  6  1  6
  7  8  2  0
 10  9  1  0
 11 10  1  1
 12 11  1  0
 12  7  1  0
 13 14  2  0
 13 11  1  0
 15 13  1  0
 16 15  1  0
 17 16  1  0
 18 17  1  0
 18 19  1  0
 19 20  1  1
 19 15  1  0
 20 21  1  0
 22 20  2  0
M  END
$$$$
