ISP.pdb
     RDKit          3D

 22 22  0  0  1  0  0  0  0  0999 V2000
   11.1714  -13.0985  -10.7147 C   0  0  0  0  0  0  0  0  0  0  0  0
   11.6194  -12.1886   -9.5932 C   0  0  0  0  0  0  0  0  0  0  0  0
   12.3530  -10.9539  -10.1233 C   0  0  2  0  0  0  0  0  0  0  0  0
   13.5430  -11.4825  -10.8858 C   0  0  0  0  0  0  0  0  0  0  0  0
   12.7743  -10.0722   -8.9616 C   0  0  2  0  0  0  0  0  0  0  0  0
   11.5700   -9.6503   -8.2172 N   0  0  0  0  0  0  0  0  0  0  0  0
   13.4352   -8.8179   -9.3933 C   0  0  0  0  0  0  0  0  0  0  0  0
   12.9138   -7.6674   -9.1610 O   0  0  0  0  0  0  0  0  0  0  0  0
   16.8144   -6.0785   -9.0124 O   0  0  0  0  0  0  0  0  0  0  0  0
   15.9576   -7.1545   -8.9222 C   0  0  0  0  0  0  0  0  0  0  0  0
   15.3814   -7.4950  -10.3073 C   0  0  2  0  0  0  0  0  0  0  0  0
   14.6761   -8.7534  -10.0861 N   0  0  0  0  0  0  0  0  0  0  0  0
   16.5186   -7.6548  -11.2769 C   0  0  0  0  0  0  0  0  0  0  0  0
   17.5016   -8.2781  -10.7867 O   0  0  0  0  0  0  0  0  0  0  0  0
   16.4557   -7.1508  -12.5795 N   0  0  0  0  0  0  0  0  0  0  0  0
   15.2203   -6.6521  -13.2320 C   0  0  0  0  0  0  0  0  0  0  0  0
   15.7060   -5.2942  -13.6563 C   0  0  0  0  0  0  0  0  0  0  0  0
   17.2165   -5.4262  -13.8299 C   0  0  0  0  0  0  0  0  0  0  0  0
   17.4033   -6.9423  -13.6060 C   0  0  1  0  0  0  0  0  0  0  0  0
   18.7926   -7.2830  -13.4257 C   0  0  0  0  0  0  0  0  0  0  0  0
   19.6974   -7.6565  -14.3491 O   0  0  0  0  0  0  0  0  0  0  0  0
   19.2300   -7.2222  -12.2137 O   0  0  0  0  0  0  0  0  0  0  0  0
  2  1  1  0
  2  3  1  0
  3  5  1  0
  3  4  1  1
  5  7  1  0
  5  6  1  6
  7  8  2  0
 10  9  1  0
 11 10  1  1
 12 11  1  0
 12  7  1  0
 13 14  2  0
 13 11  1  0
 15 13  1  0
 16 15  1  0
 17 16  1  0
 18 17  1  0
 18 19  1  0
 19 20  1  1
 19 15  1  0
 20 21  1  0
 22 20  2  0
M  END
$$$$
