ISP.pdb
     RDKit          3D

 22 22  0  0  1  0  0  0  0  0999 V2000
   27.1788  -20.6070   -8.1370 C   0  0  0  0  0  0  0  0  0  0  0  0
   26.1547  -21.2778   -9.0244 C   0  0  0  0  0  0  0  0  0  0  0  0
   24.9943  -20.3380   -9.3621 C   0  0  2  0  0  0  0  0  0  0  0  0
   23.8341  -20.8019   -8.5161 C   0  0  0  0  0  0  0  0  0  0  0  0
   24.6811  -20.4255  -10.8449 C   0  0  2  0  0  0  0  0  0  0  0  0
   24.4318  -21.8375  -11.2007 N   0  0  0  0  0  0  0  0  0  0  0  0
   25.8080  -19.9915  -11.7040 C   0  0  0  0  0  0  0  0  0  0  0  0
   26.9971  -19.8566  -11.2379 O   0  0  0  0  0  0  0  0  0  0  0  0
   27.9181  -21.8744  -14.8807 O   0  0  0  0  0  0  0  0  0  0  0  0
   26.9947  -21.4637  -13.9433 C   0  0  0  0  0  0  0  0  0  0  0  0
   26.7869  -19.9419  -14.0305 C   0  0  2  0  0  0  0  0  0  0  0  0
   25.6999  -19.6892  -13.0900 N   0  0  0  0  0  0  0  0  0  0  0  0
   26.4007  -19.5877  -15.4391 C   0  0  0  0  0  0  0  0  0  0  0  0
   25.6119  -20.4252  -15.9603 O   0  0  0  0  0  0  0  0  0  0  0  0
   26.8863  -18.4397  -16.0722 N   0  0  0  0  0  0  0  0  0  0  0  0
   27.6342  -17.3540  -15.3920 C   0  0  0  0  0  0  0  0  0  0  0  0
   28.8455  -17.3056  -16.2809 C   0  0  0  0  0  0  0  0  0  0  0  0
   28.3823  -17.8062  -17.6462 C   0  0  0  0  0  0  0  0  0  0  0  0
   26.8658  -17.9591  -17.4002 C   0  0  1  0  0  0  0  0  0  0  0  0
   26.2309  -18.7044  -18.4586 C   0  0  0  0  0  0  0  0  0  0  0  0
   25.2603  -18.3115  -19.3038 O   0  0  0  0  0  0  0  0  0  0  0  0
   26.6493  -19.9140  -18.6188 O   0  0  0  0  0  0  0  0  0  0  0  0
  2  1  1  0
  2  3  1  0
  3  5  1  0
  3  4  1  1
  5  7  1  0
  5  6  1  6
  7  8  2  0
 10  9  1  0
 11 10  1  6
 12 11  1  0
 12  7  1  0
 13 14  2  0
 13 11  1  0
 15 13  1  0
 16 15  1  0
 17 16  1  0
 18 17  1  0
 18 19  1  0
 19 20  1  6
 19 15  1  0
 20 21  1  0
 22 20  2  0
M  END
$$$$
