ISP.pdb
     RDKit          3D

 22 22  0  0  1  0  0  0  0  0999 V2000
   19.7612  -17.3723  -16.4890 C   0  0  0  0  0  0  0  0  0  0  0  0
   19.7285  -18.8697  -16.6960 C   0  0  0  0  0  0  0  0  0  0  0  0
   20.9551  -19.5535  -16.0864 C   0  0  2  0  0  0  0  0  0  0  0  0
   20.9332  -19.1988  -14.6199 C   0  0  0  0  0  0  0  0  0  0  0  0
   22.2134  -19.0490  -16.7696 C   0  0  2  0  0  0  0  0  0  0  0  0
   22.2570  -19.5790  -18.1479 N   0  0  0  0  0  0  0  0  0  0  0  0
   23.4580  -19.5246  -16.1206 C   0  0  0  0  0  0  0  0  0  0  0  0
   23.7337  -20.7754  -16.0279 O   0  0  0  0  0  0  0  0  0  0  0  0
   27.7236  -18.3962  -14.0961 O   0  0  0  0  0  0  0  0  0  0  0  0
   26.5891  -18.0438  -14.7952 C   0  0  0  0  0  0  0  0  0  0  0  0
   25.5749  -19.2004  -14.7840 C   0  0  2  0  0  0  0  0  0  0  0  0
   24.4489  -18.6774  -15.5511 N   0  0  0  0  0  0  0  0  0  0  0  0
   25.1930  -19.4934  -13.3602 C   0  0  0  0  0  0  0  0  0  0  0  0
   24.5937  -18.5320  -12.8019 O   0  0  0  0  0  0  0  0  0  0  0  0
   25.4888  -20.7172  -12.7525 N   0  0  0  0  0  0  0  0  0  0  0  0
   25.7798  -21.9740  -13.4850 C   0  0  0  0  0  0  0  0  0  0  0  0
   27.0941  -22.3244  -12.8450 C   0  0  0  0  0  0  0  0  0  0  0  0
   27.0632  -21.6946  -11.4552 C   0  0  0  0  0  0  0  0  0  0  0  0
   25.6186  -21.1512  -11.4146 C   0  0  1  0  0  0  0  0  0  0  0  0
   25.4251  -20.2457  -10.3095 C   0  0  0  0  0  0  0  0  0  0  0  0
   25.7493  -18.9429  -10.2182 O   0  0  0  0  0  0  0  0  0  0  0  0
   24.8646  -20.7521   -9.2638 O   0  0  0  0  0  0  0  0  0  0  0  0
  2  1  1  0
  2  3  1  0
  3  5  1  0
  3  4  1  1
  5  7  1  0
  5  6  1  6
  7  8  2  0
 10  9  1  0
 11 10  1  1
 12 11  1  0
 12  7  1  0
 13 14  2  0
 13 11  1  0
 15 13  1  0
 16 15  1  0
 17 16  1  0
 18 17  1  0
 18 19  1  0
 19 20  1  1
 19 15  1  0
 20 21  1  0
 22 20  2  0
M  END
$$$$
