TPT.pdb
     RDKit          3D

 22 22  0  0  1  0  0  0  0  0999 V2000
    6.0783  -15.5922   21.2216 C   0  0  0  0  0  0  0  0  0  0  0  0
    6.9046  -15.5241   22.4703 C   0  0  1  0  0  0  0  0  0  0  0  0
    7.8717  -16.5400   22.4511 O   0  0  0  0  0  0  0  0  0  0  0  0
    7.7187  -14.2211   22.5343 C   0  0  2  0  0  0  0  0  0  0  0  0
    8.6356  -14.1990   21.3896 N   0  0  0  0  0  0  0  0  0  0  0  0
    8.4780  -14.2792   23.7972 C   0  0  0  0  0  0  0  0  0  0  0  0
    9.4104  -15.1143   23.8776 O   0  0  0  0  0  0  0  0  0  0  0  0
    8.2086  -13.4501   24.9029 N   0  0  0  0  0  0  0  0  0  0  0  0
    7.3354  -12.2945   24.8587 C   0  0  0  0  0  0  0  0  0  0  0  0
    6.4795  -12.5827   26.1002 C   0  0  0  0  0  0  0  0  0  0  0  0
    7.6305  -12.8204   27.0922 C   0  0  0  0  0  0  0  0  0  0  0  0
    8.6922  -13.5404   26.2525 C   0  0  1  0  0  0  0  0  0  0  0  0
    8.7783  -14.8996   26.7980 C   0  0  0  0  0  0  0  0  0  0  0  0
    7.9065  -15.7711   26.8253 O   0  0  0  0  0  0  0  0  0  0  0  0
   11.8707  -18.5196   27.6831 C   0  0  0  0  0  0  0  0  0  0  0  0
   11.5555  -17.0931   27.2540 C   0  0  1  0  0  0  0  0  0  0  0  0
   11.4350  -17.1055   25.8791 O   0  0  0  0  0  0  0  0  0  0  0  0
   10.2890  -16.5746   27.9227 C   0  0  2  0  0  0  0  0  0  0  0  0
   10.0467  -15.2610   27.3761 N   0  0  0  0  0  0  0  0  0  0  0  0
   10.3785  -16.5927   29.3767 C   0  0  0  0  0  0  0  0  0  0  0  0
   10.1981  -17.7657   30.0850 O   0  0  0  0  0  0  0  0  0  0  0  0
   10.6210  -15.5460   30.0170 O   0  0  0  0  0  0  0  0  0  0  0  0
  2  3  1  0
  2  1  1  6
  4  5  1  6
  4  2  1  0
  6  4  1  0
  7  6  2  0
  8  6  1  0
  9 10  1  0
  9  8  1  0
 10 11  1  0
 12 11  1  0
 12  8  1  0
 12 13  1  1
 13 19  1  0
 13 14  2  0
 16 15  1  1
 16 17  1  0
 16 18  1  0
 18 20  1  0
 18 19  1  6
 20 22  2  0
 20 21  1  0
M  END
$$$$
