TPT.pdb
     RDKit          3D

 22 22  0  0  1  0  0  0  0  0999 V2000
    9.4833  -19.1483   19.6112 C   0  0  0  0  0  0  0  0  0  0  0  0
    8.3482  -18.2662   19.1865 C   0  0  1  0  0  0  0  0  0  0  0  0
    7.3033  -18.3621   20.1175 O   0  0  0  0  0  0  0  0  0  0  0  0
    8.7503  -16.7822   19.2131 C   0  0  2  0  0  0  0  0  0  0  0  0
    9.7195  -16.5525   18.1363 N   0  0  0  0  0  0  0  0  0  0  0  0
    9.3816  -16.5568   20.5267 C   0  0  0  0  0  0  0  0  0  0  0  0
   10.3724  -17.2654   20.8253 O   0  0  0  0  0  0  0  0  0  0  0  0
    8.9296  -15.5940   21.4492 N   0  0  0  0  0  0  0  0  0  0  0  0
    7.9676  -14.5565   21.1359 C   0  0  0  0  0  0  0  0  0  0  0  0
    7.0185  -14.7294   22.3300 C   0  0  0  0  0  0  0  0  0  0  0  0
    8.0790  -14.6855   23.4430 C   0  0  0  0  0  0  0  0  0  0  0  0
    9.2795  -15.4170   22.8312 C   0  0  1  0  0  0  0  0  0  0  0  0
    9.4284  -16.6554   23.6036 C   0  0  0  0  0  0  0  0  0  0  0  0
    8.6274  -17.5852   23.7230 O   0  0  0  0  0  0  0  0  0  0  0  0
   12.6614  -18.5521   23.3215 C   0  0  0  0  0  0  0  0  0  0  0  0
   12.4230  -18.3315   24.8090 C   0  0  1  0  0  0  0  0  0  0  0  0
   13.2784  -17.3242   25.2070 O   0  0  0  0  0  0  0  0  0  0  0  0
   10.9695  -17.9783   25.0963 C   0  0  2  0  0  0  0  0  0  0  0  0
   10.6724  -16.8023   24.3139 N   0  0  0  0  0  0  0  0  0  0  0  0
   10.7067  -17.8122   26.5196 C   0  0  0  0  0  0  0  0  0  0  0  0
   10.7922  -18.8844   27.3876 O   0  0  0  0  0  0  0  0  0  0  0  0
   10.3978  -16.6945   26.9883 O   0  0  0  0  0  0  0  0  0  0  0  0
  2  3  1  0
  2  1  1  1
  4  5  1  6
  4  2  1  0
  6  4  1  0
  7  6  2  0
  8  6  1  0
  9 10  1  0
  9  8  1  0
 10 11  1  0
 12 11  1  0
 12  8  1  0
 12 13  1  1
 13 19  1  0
 13 14  2  0
 16 15  1  6
 16 17  1  0
 16 18  1  0
 18 20  1  0
 18 19  1  6
 20 22  2  0
 20 21  1  0
M  END
$$$$
