TPT.pdb
     RDKit          3D

 22 22  0  0  1  0  0  0  0  0999 V2000
    6.2473  -16.6380   23.4651 C   0  0  0  0  0  0  0  0  0  0  0  0
    7.3301  -16.2880   22.4895 C   0  0  1  0  0  0  0  0  0  0  0  0
    6.8700  -16.4956   21.1807 O   0  0  0  0  0  0  0  0  0  0  0  0
    7.6709  -14.7896   22.5429 C   0  0  2  0  0  0  0  0  0  0  0  0
    8.5787  -14.4880   21.4308 N   0  0  0  0  0  0  0  0  0  0  0  0
    8.3527  -14.5746   23.8328 C   0  0  0  0  0  0  0  0  0  0  0  0
    9.3706  -15.2659   24.0751 O   0  0  0  0  0  0  0  0  0  0  0  0
    7.9194  -13.6399   24.7925 N   0  0  0  0  0  0  0  0  0  0  0  0
    6.9369  -12.6062   24.5349 C   0  0  0  0  0  0  0  0  0  0  0  0
    6.0275  -12.8191   25.7532 C   0  0  0  0  0  0  0  0  0  0  0  0
    7.1217  -12.7903   26.8336 C   0  0  0  0  0  0  0  0  0  0  0  0
    8.3103  -13.4928   26.1669 C   0  0  1  0  0  0  0  0  0  0  0  0
    8.4966  -14.7479   26.9034 C   0  0  0  0  0  0  0  0  0  0  0  0
    7.6540  -15.6022   27.1873 O   0  0  0  0  0  0  0  0  0  0  0  0
   10.9636  -17.1950   25.9707 C   0  0  0  0  0  0  0  0  0  0  0  0
   11.3150  -16.8764   27.4174 C   0  0  1  0  0  0  0  0  0  0  0  0
   12.4448  -16.0840   27.3903 O   0  0  0  0  0  0  0  0  0  0  0  0
   10.1626  -16.1844   28.1338 C   0  0  2  0  0  0  0  0  0  0  0  0
    9.8385  -15.0152   27.3521 N   0  0  0  0  0  0  0  0  0  0  0  0
   10.4698  -15.8868   29.5264 C   0  0  0  0  0  0  0  0  0  0  0  0
   10.5371  -14.5814   29.9757 O   0  0  0  0  0  0  0  0  0  0  0  0
   10.6798  -16.8067   30.3473 O   0  0  0  0  0  0  0  0  0  0  0  0
  2  3  1  0
  2  1  1  1
  4  5  1  6
  4  2  1  0
  6  4  1  0
  7  6  2  0
  8  6  1  0
  9 10  1  0
  9  8  1  0
 10 11  1  0
 12 11  1  0
 12  8  1  0
 12 13  1  1
 13 19  1  0
 13 14  2  0
 16 15  1  6
 16 17  1  0
 16 18  1  0
 18 20  1  0
 18 19  1  6
 20 22  2  0
 20 21  1  0
M  END
$$$$
