TPT.pdb
     RDKit          3D

 22 22  0  0  1  0  0  0  0  0999 V2000
    7.0509  -11.9008   26.8214 C   0  0  0  0  0  0  0  0  0  0  0  0
    7.6967  -13.0632   26.1295 C   0  0  1  0  0  0  0  0  0  0  0  0
    8.4576  -13.7968   27.0518 O   0  0  0  0  0  0  0  0  0  0  0  0
    6.6482  -14.0637   25.6155 C   0  0  2  0  0  0  0  0  0  0  0  0
    6.1011  -14.7848   26.7697 N   0  0  0  0  0  0  0  0  0  0  0  0
    7.3743  -14.9922   24.7292 C   0  0  0  0  0  0  0  0  0  0  0  0
    7.9631  -15.9635   25.2610 O   0  0  0  0  0  0  0  0  0  0  0  0
    7.4353  -14.8410   23.3307 N   0  0  0  0  0  0  0  0  0  0  0  0
    6.6070  -13.9225   22.5753 C   0  0  0  0  0  0  0  0  0  0  0  0
    7.6930  -13.2557   21.7193 C   0  0  0  0  0  0  0  0  0  0  0  0
    8.3523  -14.5395   21.1877 C   0  0  0  0  0  0  0  0  0  0  0  0
    8.2764  -15.5065   22.3751 C   0  0  1  0  0  0  0  0  0  0  0  0
    9.6629  -15.7222   22.8034 C   0  0  0  0  0  0  0  0  0  0  0  0
   10.4676  -14.8962   23.2398 O   0  0  0  0  0  0  0  0  0  0  0  0
   10.5533  -18.4212   25.3102 C   0  0  0  0  0  0  0  0  0  0  0  0
   11.2693  -18.7171   23.9994 C   0  0  1  0  0  0  0  0  0  0  0  0
   10.5111  -19.6576   23.3319 O   0  0  0  0  0  0  0  0  0  0  0  0
   11.4566  -17.4553   23.1670 C   0  0  2  0  0  0  0  0  0  0  0  0
   10.1448  -17.0753   22.7001 N   0  0  0  0  0  0  0  0  0  0  0  0
   12.4271  -17.6332   22.0951 C   0  0  0  0  0  0  0  0  0  0  0  0
   13.7838  -17.6388   22.3590 O   0  0  0  0  0  0  0  0  0  0  0  0
   12.0538  -17.7851   20.9111 O   0  0  0  0  0  0  0  0  0  0  0  0
  2  3  1  0
  2  1  1  1
  4  5  1  1
  4  2  1  0
  6  4  1  0
  7  6  2  0
  8  6  1  0
  9 10  1  0
  9  8  1  0
 10 11  1  0
 12 11  1  0
 12  8  1  0
 12 13  1  1
 13 19  1  0
 13 14  2  0
 16 15  1  1
 16 17  1  0
 16 18  1  0
 18 20  1  0
 18 19  1  6
 20 22  2  0
 20 21  1  0
M  END
$$$$
