TPT.pdb
     RDKit          3D

 22 22  0  0  1  0  0  0  0  0999 V2000
    6.1734  -15.0931   21.0130 C   0  0  0  0  0  0  0  0  0  0  0  0
    6.8371  -15.1272   22.3566 C   0  0  1  0  0  0  0  0  0  0  0  0
    7.5885  -16.3052   22.4809 O   0  0  0  0  0  0  0  0  0  0  0  0
    7.8694  -13.9969   22.5016 C   0  0  2  0  0  0  0  0  0  0  0  0
    8.8983  -14.1836   21.4729 N   0  0  0  0  0  0  0  0  0  0  0  0
    8.4554  -14.1530   23.8458 C   0  0  0  0  0  0  0  0  0  0  0  0
    9.3228  -15.0454   24.0023 O   0  0  0  0  0  0  0  0  0  0  0  0
    8.0913  -13.3559   24.9478 N   0  0  0  0  0  0  0  0  0  0  0  0
    7.2626  -12.1707   24.8553 C   0  0  0  0  0  0  0  0  0  0  0  0
    6.2680  -12.4747   25.9846 C   0  0  0  0  0  0  0  0  0  0  0  0
    7.2961  -12.7866   27.0850 C   0  0  0  0  0  0  0  0  0  0  0  0
    8.4215  -13.5111   26.3372 C   0  0  1  0  0  0  0  0  0  0  0  0
    8.4074  -14.8913   26.8345 C   0  0  0  0  0  0  0  0  0  0  0  0
    7.4404  -15.6408   26.9877 O   0  0  0  0  0  0  0  0  0  0  0  0
   10.1843  -17.6091   25.4452 C   0  0  0  0  0  0  0  0  0  0  0  0
   10.7333  -17.5508   26.8641 C   0  0  1  0  0  0  0  0  0  0  0  0
   11.9928  -16.9921   26.7839 O   0  0  0  0  0  0  0  0  0  0  0  0
    9.8222  -16.7486   27.7841 C   0  0  2  0  0  0  0  0  0  0  0  0
    9.6905  -15.4401   27.1893 N   0  0  0  0  0  0  0  0  0  0  0  0
   10.3047  -16.7175   29.1583 C   0  0  0  0  0  0  0  0  0  0  0  0
   10.3514  -17.8692   29.9210 O   0  0  0  0  0  0  0  0  0  0  0  0
   10.6879  -15.6468   29.6791 O   0  0  0  0  0  0  0  0  0  0  0  0
  2  3  1  0
  2  1  1  6
  4  5  1  6
  4  2  1  0
  6  4  1  0
  7  6  2  0
  8  6  1  0
  9 10  1  0
  9  8  1  0
 10 11  1  0
 12 11  1  0
 12  8  1  0
 12 13  1  1
 13 19  1  0
 13 14  2  0
 16 15  1  6
 16 17  1  0
 16 18  1  0
 18 20  1  0
 18 19  1  6
 20 22  2  0
 20 21  1  0
M  END
$$$$
