TPT.pdb
     RDKit          3D

 22 22  0  0  1  0  0  0  0  0999 V2000
    7.5336  -17.0429   15.5693 C   0  0  0  0  0  0  0  0  0  0  0  0
    8.0662  -16.7000   16.9278 C   0  0  1  0  0  0  0  0  0  0  0  0
    9.0988  -17.5869   17.2666 O   0  0  0  0  0  0  0  0  0  0  0  0
    8.7329  -15.3144   16.9361 C   0  0  2  0  0  0  0  0  0  0  0  0
    9.7815  -15.3062   15.9105 N   0  0  0  0  0  0  0  0  0  0  0  0
    9.3270  -15.1584   18.2768 C   0  0  0  0  0  0  0  0  0  0  0  0
   10.3529  -15.8300   18.5403 O   0  0  0  0  0  0  0  0  0  0  0  0
    8.8027  -14.3001   19.2622 N   0  0  0  0  0  0  0  0  0  0  0  0
    7.8082  -13.2782   19.0045 C   0  0  0  0  0  0  0  0  0  0  0  0
    6.8272  -13.5942   20.1423 C   0  0  0  0  0  0  0  0  0  0  0  0
    7.8462  -13.6072   21.2942 C   0  0  0  0  0  0  0  0  0  0  0  0
    9.0973  -14.2329   20.6666 C   0  0  1  0  0  0  0  0  0  0  0  0
    9.2729  -15.5281   21.3329 C   0  0  0  0  0  0  0  0  0  0  0  0
    8.4800  -16.4700   21.3984 O   0  0  0  0  0  0  0  0  0  0  0  0
   12.3255  -17.5523   20.7446 C   0  0  0  0  0  0  0  0  0  0  0  0
   12.2519  -17.3474   22.2515 C   0  0  1  0  0  0  0  0  0  0  0  0
   13.1816  -16.3784   22.5701 O   0  0  0  0  0  0  0  0  0  0  0  0
   10.8507  -16.9464   22.6939 C   0  0  2  0  0  0  0  0  0  0  0  0
   10.5363  -15.7227   21.9960 N   0  0  0  0  0  0  0  0  0  0  0  0
   10.7328  -16.8374   24.1419 C   0  0  0  0  0  0  0  0  0  0  0  0
   10.8478  -17.9529   24.9498 O   0  0  0  0  0  0  0  0  0  0  0  0
   10.5247  -15.7310   24.6866 O   0  0  0  0  0  0  0  0  0  0  0  0
  2  3  1  0
  2  1  1  6
  4  5  1  6
  4  2  1  0
  6  4  1  0
  7  6  2  0
  8  6  1  0
  9 10  1  0
  9  8  1  0
 10 11  1  0
 12 11  1  0
 12  8  1  0
 12 13  1  1
 13 19  1  0
 13 14  2  0
 16 15  1  6
 16 17  1  0
 16 18  1  0
 18 20  1  0
 18 19  1  6
 20 22  2  0
 20 21  1  0
M  END
$$$$
