TPT.pdb
     RDKit          3D

 22 22  0  0  1  0  0  0  0  0999 V2000
    6.2205  -15.5248   20.9308 C   0  0  0  0  0  0  0  0  0  0  0  0
    6.8955  -15.3967   22.2631 C   0  0  1  0  0  0  0  0  0  0  0  0
    7.9188  -16.3506   22.3663 O   0  0  0  0  0  0  0  0  0  0  0  0
    7.6162  -14.0452   22.3996 C   0  0  2  0  0  0  0  0  0  0  0  0
    8.6173  -13.9518   21.3315 N   0  0  0  0  0  0  0  0  0  0  0  0
    8.2756  -14.0688   23.7184 C   0  0  0  0  0  0  0  0  0  0  0  0
    9.2633  -14.8284   23.8616 O   0  0  0  0  0  0  0  0  0  0  0  0
    7.8533  -13.2869   24.8106 N   0  0  0  0  0  0  0  0  0  0  0  0
    6.8542  -12.2408   24.7234 C   0  0  0  0  0  0  0  0  0  0  0  0
    5.9741  -12.6382   25.9168 C   0  0  0  0  0  0  0  0  0  0  0  0
    7.0914  -12.7488   26.9679 C   0  0  0  0  0  0  0  0  0  0  0  0
    8.2727  -13.3322   26.1838 C   0  0  1  0  0  0  0  0  0  0  0  0
    8.4887  -14.6769   26.7291 C   0  0  0  0  0  0  0  0  0  0  0  0
    7.6868  -15.6103   26.8070 O   0  0  0  0  0  0  0  0  0  0  0  0
   11.0304  -16.8779   25.6249 C   0  0  0  0  0  0  0  0  0  0  0  0
   11.3311  -16.7603   27.1128 C   0  0  1  0  0  0  0  0  0  0  0  0
   12.4486  -15.9594   27.2338 O   0  0  0  0  0  0  0  0  0  0  0  0
   10.1460  -16.1879   27.8796 C   0  0  2  0  0  0  0  0  0  0  0  0
    9.8096  -14.9389   27.2392 N   0  0  0  0  0  0  0  0  0  0  0  0
   10.4149  -16.0571   29.3054 C   0  0  0  0  0  0  0  0  0  0  0  0
   10.6328  -17.1723   30.0924 O   0  0  0  0  0  0  0  0  0  0  0  0
   10.4545  -14.9317   29.8497 O   0  0  0  0  0  0  0  0  0  0  0  0
  2  3  1  0
  2  1  1  6
  4  5  1  6
  4  2  1  0
  6  4  1  0
  7  6  2  0
  8  6  1  0
  9 10  1  0
  9  8  1  0
 10 11  1  0
 12 11  1  0
 12  8  1  0
 12 13  1  1
 13 19  1  0
 13 14  2  0
 16 15  1  6
 16 17  1  0
 16 18  1  0
 18 20  1  0
 18 19  1  6
 20 22  2  0
 20 21  1  0
M  END
$$$$
