FYH.pdb
     RDKit          3D

 34 36  0  0  1  0  0  0  0  0999 V2000
    6.2479  -18.1772   26.2693 N   0  0  0  0  0  0  0  0  0  0  0  0
    6.4216  -16.7359   26.0689 C   0  0  1  0  0  0  0  0  0  0  0  0
    7.1369  -16.1166   27.2426 C   0  0  0  0  0  0  0  0  0  0  0  0
    7.3377  -14.6723   27.0971 C   0  0  0  0  0  0  0  0  0  0  0  0
    6.2637  -13.8101   27.1049 C   0  0  0  0  0  0  0  0  0  0  0  0
    6.5049  -12.4611   26.9661 C   0  0  0  0  0  0  0  0  0  0  0  0
    7.7732  -11.9439   26.8205 C   0  0  0  0  0  0  0  0  0  0  0  0
    8.8361  -12.8148   26.8143 C   0  0  0  0  0  0  0  0  0  0  0  0
    8.6097  -14.1674   26.9523 C   0  0  0  0  0  0  0  0  0  0  0  0
    7.0930  -16.5270   24.7746 C   0  0  0  0  0  0  0  0  0  0  0  0
    7.9933  -17.3299   24.3453 O   0  0  0  0  0  0  0  0  0  0  0  0
    9.1972  -13.3909   16.7216 O   0  0  0  0  0  0  0  0  0  0  0  0
    8.5985  -13.6082   17.9771 C   0  0  0  0  0  0  0  0  0  0  0  0
    7.7327  -14.6644   18.1763 C   0  0  0  0  0  0  0  0  0  0  0  0
    7.1624  -14.8508   19.4169 C   0  0  0  0  0  0  0  0  0  0  0  0
    7.4174  -14.0219   20.4861 C   0  0  0  0  0  0  0  0  0  0  0  0
    6.8484  -14.1689   21.8083 C   0  0  0  0  0  0  0  0  0  0  0  0
    7.5192  -15.2183   22.6746 C   0  0  2  0  0  0  0  0  0  0  0  0
    6.8130  -15.4424   23.8957 N   0  0  0  0  0  0  0  0  0  0  0  0
    8.9265  -14.8371   22.7866 C   0  0  0  0  0  0  0  0  0  0  0  0
    9.2180  -14.0667   23.7565 O   0  0  0  0  0  0  0  0  0  0  0  0
    8.2870  -12.9753   20.2548 C   0  0  0  0  0  0  0  0  0  0  0  0
    8.8723  -12.7648   19.0233 C   0  0  0  0  0  0  0  0  0  0  0  0
    9.9876  -15.2227   21.9513 N   0  0  0  0  0  0  0  0  0  0  0  0
   11.2382  -15.7451   22.4923 C   0  0  1  0  0  0  0  0  0  0  0  0
   11.0091  -16.9276   23.3747 C   0  0  0  0  0  0  0  0  0  0  0  0
   12.3020  -17.4101   23.9081 C   0  0  0  0  0  0  0  0  0  0  0  0
   12.7681  -18.7133   23.8742 C   0  0  0  0  0  0  0  0  0  0  0  0
   13.9774  -18.8040   24.4455 N   0  0  0  0  0  0  0  0  0  0  0  0
   14.2877  -17.5638   24.8452 C   0  0  0  0  0  0  0  0  0  0  0  0
   13.2922  -16.7099   24.5310 N   0  0  0  0  0  0  0  0  0  0  0  0
   12.1819  -16.0210   21.3902 C   0  0  0  0  0  0  0  0  0  0  0  0
   13.3389  -16.4521   21.7014 O   0  0  0  0  0  0  0  0  0  0  0  0
   11.8954  -15.8449   20.0444 O   0  0  0  0  0  0  0  0  0  0  0  0
  2  1  1  1
  2  3  1  0
  4  9  1  0
  4  3  1  0
  5  4  2  0
  6  7  2  0
  6  5  1  0
  7  8  1  0
  8  9  2  0
 10  2  1  0
 10 11  2  0
 12 13  1  0
 13 23  2  0
 14 15  2  0
 14 13  1  0
 15 16  1  0
 16 17  1  0
 16 22  2  0
 18 17  1  1
 18 19  1  0
 19 10  1  0
 20 18  1  0
 21 20  2  0
 23 22  1  0
 24 20  1  0
 25 32  1  0
 25 24  1  0
 26 27  1  0
 25 26  1  6
 27 28  2  0
 28 29  1  0
 30 29  1  0
 31 27  1  0
 31 30  2  0
 32 34  1  0
 33 32  2  0
M  END
$$$$
