FYH.pdb
     RDKit          3D

 34 36  0  0  1  0  0  0  0  0999 V2000
    6.7691  -18.2486   26.7151 N   0  0  0  0  0  0  0  0  0  0  0  0
    7.4931  -17.0019   26.4520 C   0  0  1  0  0  0  0  0  0  0  0  0
    8.7641  -16.9424   27.2606 C   0  0  0  0  0  0  0  0  0  0  0  0
    9.0311  -15.6126   27.8155 C   0  0  0  0  0  0  0  0  0  0  0  0
    9.6909  -15.4727   29.0164 C   0  0  0  0  0  0  0  0  0  0  0  0
    9.9189  -14.2014   29.4949 C   0  0  0  0  0  0  0  0  0  0  0  0
    9.5143  -13.0700   28.8214 C   0  0  0  0  0  0  0  0  0  0  0  0
    8.8571  -13.2233   27.6244 C   0  0  0  0  0  0  0  0  0  0  0  0
    8.6219  -14.4895   27.1334 C   0  0  0  0  0  0  0  0  0  0  0  0
    7.6970  -16.8842   24.9979 C   0  0  0  0  0  0  0  0  0  0  0  0
    8.1068  -17.8713   24.2930 O   0  0  0  0  0  0  0  0  0  0  0  0
    8.4817  -13.5507   16.8183 O   0  0  0  0  0  0  0  0  0  0  0  0
    8.2707  -13.6772   18.2044 C   0  0  0  0  0  0  0  0  0  0  0  0
    9.0035  -12.9299   19.1042 C   0  0  0  0  0  0  0  0  0  0  0  0
    8.7738  -13.0761   20.4550 C   0  0  0  0  0  0  0  0  0  0  0  0
    7.8336  -13.9453   20.9610 C   0  0  0  0  0  0  0  0  0  0  0  0
    7.5501  -14.1399   22.3664 C   0  0  0  0  0  0  0  0  0  0  0  0
    7.8490  -15.5333   22.8869 C   0  0  2  0  0  0  0  0  0  0  0  0
    7.4625  -15.6940   24.2526 N   0  0  0  0  0  0  0  0  0  0  0  0
    9.2455  -15.8164   22.5586 C   0  0  0  0  0  0  0  0  0  0  0  0
   10.1156  -15.2178   23.2685 O   0  0  0  0  0  0  0  0  0  0  0  0
    7.1176  -14.6779   20.0360 C   0  0  0  0  0  0  0  0  0  0  0  0
    7.3265  -14.5519   18.6780 C   0  0  0  0  0  0  0  0  0  0  0  0
    9.7337  -16.6696   21.5556 N   0  0  0  0  0  0  0  0  0  0  0  0
   11.1637  -16.8214   21.3074 C   0  0  1  0  0  0  0  0  0  0  0  0
   11.8654  -15.5036   21.2864 C   0  0  0  0  0  0  0  0  0  0  0  0
   12.2952  -15.1890   19.9061 C   0  0  0  0  0  0  0  0  0  0  0  0
   13.1036  -14.1338   19.5193 C   0  0  0  0  0  0  0  0  0  0  0  0
   13.2966  -14.1402   18.1928 N   0  0  0  0  0  0  0  0  0  0  0  0
   12.6149  -15.1956   17.7284 C   0  0  0  0  0  0  0  0  0  0  0  0
   12.0050  -15.8402   18.7440 N   0  0  0  0  0  0  0  0  0  0  0  0
   11.7416  -17.7681   22.2826 C   0  0  0  0  0  0  0  0  0  0  0  0
   12.3345  -18.7968   21.8225 O   0  0  0  0  0  0  0  0  0  0  0  0
   11.6845  -17.6139   23.6600 O   0  0  0  0  0  0  0  0  0  0  0  0
  2  1  1  6
  2  3  1  0
  4  9  1  0
  4  3  1  0
  5  4  2  0
  6  7  2  0
  6  5  1  0
  7  8  1  0
  8  9  2  0
 10  2  1  0
 10 11  2  0
 12 13  1  0
 13 23  2  0
 14 15  2  0
 14 13  1  0
 15 16  1  0
 16 17  1  0
 16 22  2  0
 18 17  1  1
 18 19  1  0
 19 10  1  0
 20 18  1  0
 21 20  2  0
 23 22  1  0
 24 20  1  0
 25 32  1  0
 25 24  1  0
 26 27  1  0
 25 26  1  1
 27 28  2  0
 28 29  1  0
 30 29  1  0
 31 27  1  0
 31 30  2  0
 32 34  1  0
 33 32  2  0
M  END
$$$$
