FYH.pdb
     RDKit          3D

 34 36  0  0  1  0  0  0  0  0999 V2000
    6.5107  -17.3518   26.0195 N   0  0  0  0  0  0  0  0  0  0  0  0
    6.7283  -16.0246   25.4374 C   0  0  1  0  0  0  0  0  0  0  0  0
    7.7105  -15.2342   26.2641 C   0  0  0  0  0  0  0  0  0  0  0  0
    7.1964  -13.9234   26.6707 C   0  0  0  0  0  0  0  0  0  0  0  0
    7.0491  -12.9106   25.7490 C   0  0  0  0  0  0  0  0  0  0  0  0
    6.5605  -11.6973   26.1807 C   0  0  0  0  0  0  0  0  0  0  0  0
    6.2152  -11.4594   27.4928 C   0  0  0  0  0  0  0  0  0  0  0  0
    6.3669  -12.4782   28.4023 C   0  0  0  0  0  0  0  0  0  0  0  0
    6.8547  -13.6977   27.9845 C   0  0  0  0  0  0  0  0  0  0  0  0
    7.1261  -16.1972   24.0296 C   0  0  0  0  0  0  0  0  0  0  0  0
    7.8448  -17.1861   23.6490 O   0  0  0  0  0  0  0  0  0  0  0  0
    9.5880  -13.5063   15.9067 O   0  0  0  0  0  0  0  0  0  0  0  0
    8.9217  -13.6568   17.1377 C   0  0  0  0  0  0  0  0  0  0  0  0
    7.8006  -14.4548   17.2441 C   0  0  0  0  0  0  0  0  0  0  0  0
    7.1704  -14.5820   18.4629 C   0  0  0  0  0  0  0  0  0  0  0  0
    7.6106  -13.9421   19.5996 C   0  0  0  0  0  0  0  0  0  0  0  0
    6.9901  -14.0386   20.9031 C   0  0  0  0  0  0  0  0  0  0  0  0
    7.4898  -15.1864   21.7602 C   0  0  2  0  0  0  0  0  0  0  0  0
    6.7586  -15.3067   22.9812 N   0  0  0  0  0  0  0  0  0  0  0  0
    8.9395  -15.0303   21.8718 C   0  0  0  0  0  0  0  0  0  0  0  0
    9.3514  -14.3696   22.8784 O   0  0  0  0  0  0  0  0  0  0  0  0
    8.7336  -13.1518   19.4604 C   0  0  0  0  0  0  0  0  0  0  0  0
    9.3846  -13.0062   18.2527 C   0  0  0  0  0  0  0  0  0  0  0  0
    9.9239  -15.5245   21.0006 N   0  0  0  0  0  0  0  0  0  0  0  0
   11.1575  -16.1241   21.4989 C   0  0  1  0  0  0  0  0  0  0  0  0
   10.8867  -17.3093   22.3657 C   0  0  0  0  0  0  0  0  0  0  0  0
   12.1659  -17.9056   22.8096 C   0  0  0  0  0  0  0  0  0  0  0  0
   12.3159  -18.9630   23.6905 C   0  0  0  0  0  0  0  0  0  0  0  0
   13.6119  -19.2515   23.8756 N   0  0  0  0  0  0  0  0  0  0  0  0
   14.2926  -18.3828   23.1165 C   0  0  0  0  0  0  0  0  0  0  0  0
   13.4405  -17.5639   22.4666 N   0  0  0  0  0  0  0  0  0  0  0  0
   12.0564  -16.4293   20.3674 C   0  0  0  0  0  0  0  0  0  0  0  0
   11.5313  -16.5369   19.2123 O   0  0  0  0  0  0  0  0  0  0  0  0
   13.4281  -16.6048   20.4755 O   0  0  0  0  0  0  0  0  0  0  0  0
  2  1  1  1
  2  3  1  0
  4  9  1  0
  4  3  1  0
  5  4  2  0
  6  7  2  0
  6  5  1  0
  7  8  1  0
  8  9  2  0
 10  2  1  0
 10 11  2  0
 12 13  1  0
 13 23  2  0
 14 15  2  0
 14 13  1  0
 15 16  1  0
 16 17  1  0
 16 22  2  0
 18 17  1  1
 18 19  1  0
 19 10  1  0
 20 18  1  0
 21 20  2  0
 23 22  1  0
 24 20  1  0
 25 32  1  0
 25 24  1  0
 26 27  1  0
 25 26  1  6
 27 28  2  0
 28 29  1  0
 30 29  1  0
 31 27  1  0
 31 30  2  0
 32 34  1  0
 33 32  2  0
M  END
$$$$
