FYH.pdb
     RDKit          3D

 34 36  0  0  1  0  0  0  0  0999 V2000
    8.6054  -16.8631   26.5578 N   0  0  0  0  0  0  0  0  0  0  0  0
    8.0344  -15.6672   25.9320 C   0  0  1  0  0  0  0  0  0  0  0  0
    8.6319  -14.4173   26.5266 C   0  0  0  0  0  0  0  0  0  0  0  0
    9.2064  -14.6313   27.8577 C   0  0  0  0  0  0  0  0  0  0  0  0
   10.1699  -15.5945   28.0597 C   0  0  0  0  0  0  0  0  0  0  0  0
   10.6795  -15.7559   29.3291 C   0  0  0  0  0  0  0  0  0  0  0  0
   10.2642  -14.9944   30.3992 C   0  0  0  0  0  0  0  0  0  0  0  0
    9.3024  -14.0369   30.1842 C   0  0  0  0  0  0  0  0  0  0  0  0
    8.7834  -13.8642   28.9191 C   0  0  0  0  0  0  0  0  0  0  0  0
    8.2053  -15.7828   24.4735 C   0  0  0  0  0  0  0  0  0  0  0  0
    8.7361  -16.8171   23.9373 O   0  0  0  0  0  0  0  0  0  0  0  0
    8.6141  -13.5444   15.8360 O   0  0  0  0  0  0  0  0  0  0  0  0
    8.3579  -13.5803   17.2199 C   0  0  0  0  0  0  0  0  0  0  0  0
    7.5378  -14.5478   17.7642 C   0  0  0  0  0  0  0  0  0  0  0  0
    7.3063  -14.5566   19.1226 C   0  0  0  0  0  0  0  0  0  0  0  0
    7.8616  -13.6327   19.9790 C   0  0  0  0  0  0  0  0  0  0  0  0
    7.6542  -13.5935   21.4103 C   0  0  0  0  0  0  0  0  0  0  0  0
    8.1639  -14.8106   22.1589 C   0  0  2  0  0  0  0  0  0  0  0  0
    7.8054  -14.7838   23.5412 N   0  0  0  0  0  0  0  0  0  0  0  0
    9.5878  -14.9316   21.8487 C   0  0  0  0  0  0  0  0  0  0  0  0
   10.3814  -14.3206   22.6338 O   0  0  0  0  0  0  0  0  0  0  0  0
    8.6766  -12.6786   19.4041 C   0  0  0  0  0  0  0  0  0  0  0  0
    8.9259  -12.6459   18.0475 C   0  0  0  0  0  0  0  0  0  0  0  0
   10.1766  -15.6420   20.7900 N   0  0  0  0  0  0  0  0  0  0  0  0
   11.6239  -15.6881   20.6089 C   0  0  1  0  0  0  0  0  0  0  0  0
   12.1229  -17.0901   20.4878 C   0  0  0  0  0  0  0  0  0  0  0  0
   11.9939  -17.7800   21.7902 C   0  0  0  0  0  0  0  0  0  0  0  0
   12.8531  -17.6621   22.8694 C   0  0  0  0  0  0  0  0  0  0  0  0
   12.4432  -18.4247   23.8928 N   0  0  0  0  0  0  0  0  0  0  0  0
   11.3247  -19.0305   23.4734 C   0  0  0  0  0  0  0  0  0  0  0  0
   11.0371  -18.6558   22.2101 N   0  0  0  0  0  0  0  0  0  0  0  0
   12.0111  -14.8365   19.4660 C   0  0  0  0  0  0  0  0  0  0  0  0
   13.2552  -14.6852   19.2409 O   0  0  0  0  0  0  0  0  0  0  0  0
   11.1162  -14.1935   18.6232 O   0  0  0  0  0  0  0  0  0  0  0  0
  2  1  1  1
  2  3  1  0
  4  9  1  0
  4  3  1  0
  5  4  2  0
  6  7  2  0
  6  5  1  0
  7  8  1  0
  8  9  2  0
 10  2  1  0
 10 11  2  0
 12 13  1  0
 13 23  2  0
 14 15  2  0
 14 13  1  0
 15 16  1  0
 16 17  1  0
 16 22  2  0
 18 17  1  1
 18 19  1  0
 19 10  1  0
 20 18  1  0
 21 20  2  0
 23 22  1  0
 24 20  1  0
 25 32  1  0
 25 24  1  0
 26 27  1  0
 25 26  1  6
 27 28  2  0
 28 29  1  0
 30 29  1  0
 31 27  1  0
 31 30  2  0
 32 34  1  0
 33 32  2  0
M  END
$$$$
