FYH.pdb
     RDKit          3D

 34 36  0  0  1  0  0  0  0  0999 V2000
   10.3100  -13.0136   20.0488 N   0  0  0  0  0  0  0  0  0  0  0  0
    9.2893  -13.7474   20.8022 C   0  0  1  0  0  0  0  0  0  0  0  0
    8.7809  -14.9225   20.0062 C   0  0  0  0  0  0  0  0  0  0  0  0
    7.9313  -14.5293   18.8788 C   0  0  0  0  0  0  0  0  0  0  0  0
    7.7159  -13.1993   18.5927 C   0  0  0  0  0  0  0  0  0  0  0  0
    6.9104  -12.8813   17.5216 C   0  0  0  0  0  0  0  0  0  0  0  0
    6.3149  -13.8380   16.7295 C   0  0  0  0  0  0  0  0  0  0  0  0
    6.5378  -15.1612   17.0256 C   0  0  0  0  0  0  0  0  0  0  0  0
    7.3417  -15.4942   18.0945 C   0  0  0  0  0  0  0  0  0  0  0  0
    9.8529  -14.1063   22.1148 C   0  0  0  0  0  0  0  0  0  0  0  0
   11.1122  -14.2584   22.2885 O   0  0  0  0  0  0  0  0  0  0  0  0
   10.7749  -15.4946   30.8261 O   0  0  0  0  0  0  0  0  0  0  0  0
   10.2281  -15.3039   29.5430 C   0  0  0  0  0  0  0  0  0  0  0  0
    9.5710  -16.3289   28.8928 C   0  0  0  0  0  0  0  0  0  0  0  0
    9.0465  -16.1112   27.6373 C   0  0  0  0  0  0  0  0  0  0  0  0
    9.1467  -14.9016   26.9875 C   0  0  0  0  0  0  0  0  0  0  0  0
    8.6165  -14.6164   25.6719 C   0  0  0  0  0  0  0  0  0  0  0  0
    9.6357  -14.6793   24.5497 C   0  0  2  0  0  0  0  0  0  0  0  0
    9.0741  -14.3116   23.2890 N   0  0  0  0  0  0  0  0  0  0  0  0
   10.2723  -15.9933   24.6305 C   0  0  0  0  0  0  0  0  0  0  0  0
    9.4975  -16.9949   24.5048 O   0  0  0  0  0  0  0  0  0  0  0  0
    9.8093  -13.8972   27.6638 C   0  0  0  0  0  0  0  0  0  0  0  0
   10.3442  -14.0870   28.9213 C   0  0  0  0  0  0  0  0  0  0  0  0
   11.6338  -16.2747   24.8289 N   0  0  0  0  0  0  0  0  0  0  0  0
   12.1319  -17.6449   24.8933 C   0  0  1  0  0  0  0  0  0  0  0  0
   13.4526  -17.7870   24.2115 C   0  0  0  0  0  0  0  0  0  0  0  0
   13.3084  -17.4710   22.7734 C   0  0  0  0  0  0  0  0  0  0  0  0
   12.2385  -17.8095   21.9626 C   0  0  0  0  0  0  0  0  0  0  0  0
   12.4289  -17.3695   20.7107 N   0  0  0  0  0  0  0  0  0  0  0  0
   13.6167  -16.7505   20.7166 C   0  0  0  0  0  0  0  0  0  0  0  0
   14.1625  -16.8004   21.9489 N   0  0  0  0  0  0  0  0  0  0  0  0
   12.1547  -18.1020   26.2976 C   0  0  0  0  0  0  0  0  0  0  0  0
   12.6155  -19.2662   26.5291 O   0  0  0  0  0  0  0  0  0  0  0  0
   11.7116  -17.3528   27.3777 O   0  0  0  0  0  0  0  0  0  0  0  0
  2  1  1  6
  2  3  1  0
  4  9  1  0
  4  3  1  0
  5  4  2  0
  6  7  2  0
  6  5  1  0
  7  8  1  0
  8  9  2  0
 10  2  1  0
 10 11  2  0
 12 13  1  0
 13 23  2  0
 14 15  2  0
 14 13  1  0
 15 16  1  0
 16 17  1  0
 16 22  2  0
 18 17  1  1
 18 19  1  0
 19 10  1  0
 20 18  1  0
 21 20  2  0
 23 22  1  0
 24 20  1  0
 25 32  1  0
 25 24  1  0
 26 27  1  0
 25 26  1  1
 27 28  2  0
 28 29  1  0
 30 29  1  0
 31 27  1  0
 31 30  2  0
 32 34  1  0
 33 32  2  0
M  END
$$$$
