FYH.pdb
     RDKit          3D

 34 36  0  0  1  0  0  0  0  0999 V2000
    5.4311  -17.0029   21.8511 N   0  0  0  0  0  0  0  0  0  0  0  0
    6.6531  -16.4997   22.4846 C   0  0  1  0  0  0  0  0  0  0  0  0
    6.6490  -14.9928   22.5291 C   0  0  0  0  0  0  0  0  0  0  0  0
    7.2271  -14.3804   21.3298 C   0  0  0  0  0  0  0  0  0  0  0  0
    8.5797  -14.4612   21.0829 C   0  0  0  0  0  0  0  0  0  0  0  0
    9.0742  -13.8703   19.9411 C   0  0  0  0  0  0  0  0  0  0  0  0
    8.2713  -13.2049   19.0411 C   0  0  0  0  0  0  0  0  0  0  0  0
    6.9236  -13.1315   19.2991 C   0  0  0  0  0  0  0  0  0  0  0  0
    6.4148  -13.7181   20.4379 C   0  0  0  0  0  0  0  0  0  0  0  0
    6.7878  -17.1419   23.8034 C   0  0  0  0  0  0  0  0  0  0  0  0
    5.8792  -17.0377   24.6994 O   0  0  0  0  0  0  0  0  0  0  0  0
    3.9196  -23.2030   24.6479 O   0  0  0  0  0  0  0  0  0  0  0  0
    5.0253  -22.3721   24.9106 C   0  0  0  0  0  0  0  0  0  0  0  0
    5.2368  -21.8510   26.1710 C   0  0  0  0  0  0  0  0  0  0  0  0
    6.3284  -21.0407   26.3969 C   0  0  0  0  0  0  0  0  0  0  0  0
    7.2342  -20.7193   25.4112 C   0  0  0  0  0  0  0  0  0  0  0  0
    8.3957  -19.8753   25.5904 C   0  0  0  0  0  0  0  0  0  0  0  0
    8.1122  -18.3859   25.5362 C   0  0  2  0  0  0  0  0  0  0  0  0
    7.9102  -17.9229   24.2002 N   0  0  0  0  0  0  0  0  0  0  0  0
    9.1630  -17.7274   26.3111 C   0  0  0  0  0  0  0  0  0  0  0  0
   10.2520  -17.5030   25.6923 O   0  0  0  0  0  0  0  0  0  0  0  0
    6.9949  -21.2558   24.1622 C   0  0  0  0  0  0  0  0  0  0  0  0
    5.9105  -22.0699   23.9076 C   0  0  0  0  0  0  0  0  0  0  0  0
    9.1077  -17.3156   27.6526 N   0  0  0  0  0  0  0  0  0  0  0  0
   10.2253  -16.6265   28.2896 C   0  0  1  0  0  0  0  0  0  0  0  0
    9.7603  -15.5212   29.1793 C   0  0  0  0  0  0  0  0  0  0  0  0
    8.8116  -14.6552   28.4452 C   0  0  0  0  0  0  0  0  0  0  0  0
    8.4007  -14.8167   27.1330 C   0  0  0  0  0  0  0  0  0  0  0  0
    7.5355  -13.8551   26.7808 N   0  0  0  0  0  0  0  0  0  0  0  0
    7.3908  -13.0784   27.8624 C   0  0  0  0  0  0  0  0  0  0  0  0
    8.1506  -13.5430   28.8752 N   0  0  0  0  0  0  0  0  0  0  0  0
   11.0838  -17.6060   28.9859 C   0  0  0  0  0  0  0  0  0  0  0  0
   10.6799  -18.8127   29.0327 O   0  0  0  0  0  0  0  0  0  0  0  0
   12.2960  -17.3036   29.5889 O   0  0  0  0  0  0  0  0  0  0  0  0
  2  1  1  1
  2  3  1  0
  4  9  1  0
  4  3  1  0
  5  4  2  0
  6  7  2  0
  6  5  1  0
  7  8  1  0
  8  9  2  0
 10  2  1  0
 10 11  2  0
 12 13  1  0
 13 23  2  0
 14 15  2  0
 14 13  1  0
 15 16  1  0
 16 17  1  0
 16 22  2  0
 18 17  1  6
 18 19  1  0
 19 10  1  0
 20 18  1  0
 21 20  2  0
 23 22  1  0
 24 20  1  0
 25 32  1  0
 25 24  1  0
 26 27  1  0
 25 26  1  1
 27 28  2  0
 28 29  1  0
 30 29  1  0
 31 27  1  0
 31 30  2  0
 32 34  1  0
 33 32  2  0
M  END
$$$$
