FYH.pdb
     RDKit          3D

 34 36  0  0  1  0  0  0  0  0999 V2000
   10.4922  -16.4578   20.1012 N   0  0  0  0  0  0  0  0  0  0  0  0
    9.7206  -15.5732   20.9786 C   0  0  1  0  0  0  0  0  0  0  0  0
    8.2444  -15.7013   20.7003 C   0  0  0  0  0  0  0  0  0  0  0  0
    7.6578  -14.4830   20.1353 C   0  0  0  0  0  0  0  0  0  0  0  0
    7.5076  -13.3528   20.9079 C   0  0  0  0  0  0  0  0  0  0  0  0
    6.9520  -12.2327   20.3300 C   0  0  0  0  0  0  0  0  0  0  0  0
    6.5428  -12.2000   19.0152 C   0  0  0  0  0  0  0  0  0  0  0  0
    6.6983  -13.3342   18.2551 C   0  0  0  0  0  0  0  0  0  0  0  0
    7.2527  -14.4625   18.8202 C   0  0  0  0  0  0  0  0  0  0  0  0
   10.0988  -15.8609   22.3729 C   0  0  0  0  0  0  0  0  0  0  0  0
   10.8953  -16.8179   22.6711 O   0  0  0  0  0  0  0  0  0  0  0  0
   10.5218  -15.5826   31.2670 O   0  0  0  0  0  0  0  0  0  0  0  0
   10.1811  -15.3622   29.9189 C   0  0  0  0  0  0  0  0  0  0  0  0
    9.3234  -16.2162   29.2556 C   0  0  0  0  0  0  0  0  0  0  0  0
    9.0091  -15.9738   27.9360 C   0  0  0  0  0  0  0  0  0  0  0  0
    9.5165  -14.9038   27.2338 C   0  0  0  0  0  0  0  0  0  0  0  0
    9.2221  -14.6006   25.8501 C   0  0  0  0  0  0  0  0  0  0  0  0
   10.0192  -15.4053   24.8407 C   0  0  2  0  0  0  0  0  0  0  0  0
    9.6304  -15.1216   23.4959 N   0  0  0  0  0  0  0  0  0  0  0  0
    9.9517  -16.8026   25.2664 C   0  0  0  0  0  0  0  0  0  0  0  0
    8.8514  -17.4001   25.0393 O   0  0  0  0  0  0  0  0  0  0  0  0
   10.3709  -14.0687   27.9248 C   0  0  0  0  0  0  0  0  0  0  0  0
   10.7030  -14.2872   29.2460 C   0  0  0  0  0  0  0  0  0  0  0  0
   10.9572  -17.5568   25.8927 N   0  0  0  0  0  0  0  0  0  0  0  0
   10.7965  -18.9841   26.1507 C   0  0  1  0  0  0  0  0  0  0  0  0
   11.2295  -19.8102   24.9847 C   0  0  0  0  0  0  0  0  0  0  0  0
   11.1352  -21.2462   25.3280 C   0  0  0  0  0  0  0  0  0  0  0  0
   10.6950  -21.7751   26.5293 C   0  0  0  0  0  0  0  0  0  0  0  0
   10.7368  -23.1147   26.5063 N   0  0  0  0  0  0  0  0  0  0  0  0
   11.2020  -23.4460   25.2947 C   0  0  0  0  0  0  0  0  0  0  0  0
   11.4480  -22.3355   24.5700 N   0  0  0  0  0  0  0  0  0  0  0  0
   11.4895  -19.3458   27.4039 C   0  0  0  0  0  0  0  0  0  0  0  0
   12.4094  -18.5659   27.8127 O   0  0  0  0  0  0  0  0  0  0  0  0
   11.2076  -20.4713   28.1640 O   0  0  0  0  0  0  0  0  0  0  0  0
  2  1  1  6
  2  3  1  0
  4  9  1  0
  4  3  1  0
  5  4  2  0
  6  7  2  0
  6  5  1  0
  7  8  1  0
  8  9  2  0
 10  2  1  0
 10 11  2  0
 12 13  1  0
 13 23  2  0
 14 15  2  0
 14 13  1  0
 15 16  1  0
 16 17  1  0
 16 22  2  0
 18 17  1  1
 18 19  1  0
 19 10  1  0
 20 18  1  0
 21 20  2  0
 23 22  1  0
 24 20  1  0
 25 32  1  0
 25 24  1  0
 26 27  1  0
 25 26  1  6
 27 28  2  0
 28 29  1  0
 30 29  1  0
 31 27  1  0
 31 30  2  0
 32 34  1  0
 33 32  2  0
M  END
$$$$
