FYH.pdb
     RDKit          3D

 34 36  0  0  1  0  0  0  0  0999 V2000
    8.4616  -15.6941   25.7247 N   0  0  0  0  0  0  0  0  0  0  0  0
    7.1240  -16.2930   25.7304 C   0  0  1  0  0  0  0  0  0  0  0  0
    6.1134  -15.3353   26.3088 C   0  0  0  0  0  0  0  0  0  0  0  0
    6.7130  -14.0876   26.7898 C   0  0  0  0  0  0  0  0  0  0  0  0
    7.8621  -14.1081   27.5489 C   0  0  0  0  0  0  0  0  0  0  0  0
    8.3872  -12.9084   27.9758 C   0  0  0  0  0  0  0  0  0  0  0  0
    7.8099  -11.6948   27.6739 C   0  0  0  0  0  0  0  0  0  0  0  0
    6.6637  -11.6882   26.9158 C   0  0  0  0  0  0  0  0  0  0  0  0
    6.1270  -12.8812   26.4817 C   0  0  0  0  0  0  0  0  0  0  0  0
    6.8140  -16.7438   24.3627 C   0  0  0  0  0  0  0  0  0  0  0  0
    5.6109  -16.9563   23.9799 O   0  0  0  0  0  0  0  0  0  0  0  0
    9.3805  -11.8285   19.4388 O   0  0  0  0  0  0  0  0  0  0  0  0
    8.7009  -12.9814   19.8756 C   0  0  0  0  0  0  0  0  0  0  0  0
    8.6760  -14.1251   19.1033 C   0  0  0  0  0  0  0  0  0  0  0  0
    8.0021  -15.2377   19.5583 C   0  0  0  0  0  0  0  0  0  0  0  0
    7.3410  -15.2662   20.7655 C   0  0  0  0  0  0  0  0  0  0  0  0
    6.6185  -16.4035   21.2928 C   0  0  0  0  0  0  0  0  0  0  0  0
    7.4761  -17.4115   22.0347 C   0  0  2  0  0  0  0  0  0  0  0  0
    7.7950  -16.9790   23.3580 N   0  0  0  0  0  0  0  0  0  0  0  0
    8.6002  -17.7364   21.1577 C   0  0  0  0  0  0  0  0  0  0  0  0
    8.3715  -17.6564   19.9084 O   0  0  0  0  0  0  0  0  0  0  0  0
    7.3845  -14.1074   21.5141 C   0  0  0  0  0  0  0  0  0  0  0  0
    8.0513  -12.9790   21.0834 C   0  0  0  0  0  0  0  0  0  0  0  0
    9.8965  -18.1234   21.5343 N   0  0  0  0  0  0  0  0  0  0  0  0
   11.0670  -17.3250   21.1846 C   0  0  1  0  0  0  0  0  0  0  0  0
   10.6838  -16.0236   20.5610 C   0  0  0  0  0  0  0  0  0  0  0  0
   11.8901  -15.3487   20.0335 C   0  0  0  0  0  0  0  0  0  0  0  0
   13.1804  -15.8504   20.0420 C   0  0  0  0  0  0  0  0  0  0  0  0
   14.0355  -14.9810   19.4853 N   0  0  0  0  0  0  0  0  0  0  0  0
   13.2978  -13.9243   19.1203 C   0  0  0  0  0  0  0  0  0  0  0  0
   12.0035  -14.1258   19.4415 N   0  0  0  0  0  0  0  0  0  0  0  0
   11.9337  -17.1647   22.3697 C   0  0  0  0  0  0  0  0  0  0  0  0
   11.5104  -16.4184   23.3106 O   0  0  0  0  0  0  0  0  0  0  0  0
   13.1719  -17.7697   22.5284 O   0  0  0  0  0  0  0  0  0  0  0  0
  2  1  1  6
  2  3  1  0
  4  9  1  0
  4  3  1  0
  5  4  2  0
  6  7  2  0
  6  5  1  0
  7  8  1  0
  8  9  2  0
 10  2  1  0
 10 11  2  0
 12 13  1  0
 13 23  2  0
 14 15  2  0
 14 13  1  0
 15 16  1  0
 16 17  1  0
 16 22  2  0
 18 17  1  6
 18 19  1  0
 19 10  1  0
 20 18  1  0
 21 20  2  0
 23 22  1  0
 24 20  1  0
 25 32  1  0
 25 24  1  0
 26 27  1  0
 25 26  1  1
 27 28  2  0
 28 29  1  0
 30 29  1  0
 31 27  1  0
 31 30  2  0
 32 34  1  0
 33 32  2  0
M  END
$$$$
