FYH.pdb
     RDKit          3D

 34 36  0  0  1  0  0  0  0  0999 V2000
    5.6082  -16.0547   26.1408 N   0  0  0  0  0  0  0  0  0  0  0  0
    6.8171  -16.0022   25.3139 C   0  0  1  0  0  0  0  0  0  0  0  0
    7.8208  -15.0404   25.8972 C   0  0  0  0  0  0  0  0  0  0  0  0
    7.3006  -13.6768   26.0305 C   0  0  0  0  0  0  0  0  0  0  0  0
    6.9086  -12.9634   24.9194 C   0  0  0  0  0  0  0  0  0  0  0  0
    6.4252  -11.6860   25.0975 C   0  0  0  0  0  0  0  0  0  0  0  0
    6.3193  -11.0976   26.3384 C   0  0  0  0  0  0  0  0  0  0  0  0
    6.7137  -11.8200   27.4388 C   0  0  0  0  0  0  0  0  0  0  0  0
    7.1994  -13.0995   27.2756 C   0  0  0  0  0  0  0  0  0  0  0  0
    7.3233  -17.3755   25.1481 C   0  0  0  0  0  0  0  0  0  0  0  0
    7.3771  -18.1967   26.1289 O   0  0  0  0  0  0  0  0  0  0  0  0
   10.6430  -24.9761   22.2441 O   0  0  0  0  0  0  0  0  0  0  0  0
   10.0981  -23.6786   22.2816 C   0  0  0  0  0  0  0  0  0  0  0  0
   10.6243  -22.6660   21.5052 C   0  0  0  0  0  0  0  0  0  0  0  0
   10.0688  -21.4062   21.5639 C   0  0  0  0  0  0  0  0  0  0  0  0
    8.9968  -21.1017   22.3722 C   0  0  0  0  0  0  0  0  0  0  0  0
    8.3739  -19.7998   22.4743 C   0  0  0  0  0  0  0  0  0  0  0  0
    8.5496  -19.1159   23.8171 C   0  0  2  0  0  0  0  0  0  0  0  0
    7.7878  -17.9116   23.9136 N   0  0  0  0  0  0  0  0  0  0  0  0
    9.9890  -19.0068   24.0505 C   0  0  0  0  0  0  0  0  0  0  0  0
   10.6319  -20.1046   24.0805 O   0  0  0  0  0  0  0  0  0  0  0  0
    8.4937  -22.1354   23.1360 C   0  0  0  0  0  0  0  0  0  0  0  0
    9.0298  -23.4061   23.0972 C   0  0  0  0  0  0  0  0  0  0  0  0
   10.7392  -17.8353   24.2431 N   0  0  0  0  0  0  0  0  0  0  0  0
   12.1873  -17.8727   24.4198 C   0  0  1  0  0  0  0  0  0  0  0  0
   12.8394  -16.6276   23.9160 C   0  0  0  0  0  0  0  0  0  0  0  0
   12.4677  -16.4071   22.5011 C   0  0  0  0  0  0  0  0  0  0  0  0
   11.8970  -17.3367   21.6485 C   0  0  0  0  0  0  0  0  0  0  0  0
   11.6890  -16.8080   20.4343 N   0  0  0  0  0  0  0  0  0  0  0  0
   12.1243  -15.5433   20.5059 C   0  0  0  0  0  0  0  0  0  0  0  0
   12.5970  -15.2821   21.7417 N   0  0  0  0  0  0  0  0  0  0  0  0
   12.5104  -18.1634   25.8314 C   0  0  0  0  0  0  0  0  0  0  0  0
   13.7378  -18.3164   26.1338 O   0  0  0  0  0  0  0  0  0  0  0  0
   11.5725  -18.2794   26.8470 O   0  0  0  0  0  0  0  0  0  0  0  0
  2  1  1  1
  2  3  1  0
  4  9  1  0
  4  3  1  0
  5  4  2  0
  6  7  2  0
  6  5  1  0
  7  8  1  0
  8  9  2  0
 10  2  1  0
 10 11  2  0
 12 13  1  0
 13 23  2  0
 14 15  2  0
 14 13  1  0
 15 16  1  0
 16 17  1  0
 16 22  2  0
 18 17  1  6
 18 19  1  0
 19 10  1  0
 20 18  1  0
 21 20  2  0
 23 22  1  0
 24 20  1  0
 25 32  1  0
 25 24  1  0
 26 27  1  0
 25 26  1  1
 27 28  2  0
 28 29  1  0
 30 29  1  0
 31 27  1  0
 31 30  2  0
 32 34  1  0
 33 32  2  0
M  END
$$$$
