FYH.pdb
     RDKit          3D

 34 36  0  0  1  0  0  0  0  0999 V2000
    9.0888  -15.5276   15.1068 N   0  0  0  0  0  0  0  0  0  0  0  0
    8.9744  -14.8098   16.3794 C   0  0  1  0  0  0  0  0  0  0  0  0
    7.5865  -14.9539   16.9501 C   0  0  0  0  0  0  0  0  0  0  0  0
    7.4584  -14.3956   18.2990 C   0  0  0  0  0  0  0  0  0  0  0  0
    7.5874  -13.0412   18.5132 C   0  0  0  0  0  0  0  0  0  0  0  0
    7.4572  -12.5656   19.7993 C   0  0  0  0  0  0  0  0  0  0  0  0
    7.2041  -13.3889   20.8742 C   0  0  0  0  0  0  0  0  0  0  0  0
    7.0775  -14.7382   20.6469 C   0  0  0  0  0  0  0  0  0  0  0  0
    7.2054  -15.2283   19.3651 C   0  0  0  0  0  0  0  0  0  0  0  0
   10.0462  -15.2809   17.2733 C   0  0  0  0  0  0  0  0  0  0  0  0
   10.3148  -16.5257   17.4055 O   0  0  0  0  0  0  0  0  0  0  0  0
   17.9073  -15.4200   21.1736 O   0  0  0  0  0  0  0  0  0  0  0  0
   16.6248  -15.0073   20.7655 C   0  0  0  0  0  0  0  0  0  0  0  0
   15.6370  -14.7421   21.6924 C   0  0  0  0  0  0  0  0  0  0  0  0
   14.3914  -14.3397   21.2616 C   0  0  0  0  0  0  0  0  0  0  0  0
   14.0773  -14.1863   19.9301 C   0  0  0  0  0  0  0  0  0  0  0  0
   12.7893  -13.7676   19.4209 C   0  0  0  0  0  0  0  0  0  0  0  0
   11.9133  -14.8947   18.9070 C   0  0  2  0  0  0  0  0  0  0  0  0
   10.8687  -14.4214   18.0556 N   0  0  0  0  0  0  0  0  0  0  0  0
   11.5100  -15.6810   20.0720 C   0  0  0  0  0  0  0  0  0  0  0  0
   10.6718  -15.1273   20.8531 O   0  0  0  0  0  0  0  0  0  0  0  0
   15.0861  -14.4591   19.0284 C   0  0  0  0  0  0  0  0  0  0  0  0
   16.3422  -14.8634   19.4313 C   0  0  0  0  0  0  0  0  0  0  0  0
   11.9386  -16.9710   20.4249 N   0  0  0  0  0  0  0  0  0  0  0  0
   11.5569  -17.5857   21.6922 C   0  0  1  0  0  0  0  0  0  0  0  0
   11.0147  -18.9634   21.4987 C   0  0  0  0  0  0  0  0  0  0  0  0
    9.7944  -18.9068   20.6642 C   0  0  0  0  0  0  0  0  0  0  0  0
    8.5104  -18.6370   21.1060 C   0  0  0  0  0  0  0  0  0  0  0  0
    7.6386  -18.6640   20.0881 N   0  0  0  0  0  0  0  0  0  0  0  0
    8.3593  -18.9500   18.9959 C   0  0  0  0  0  0  0  0  0  0  0  0
    9.6595  -19.1000   19.3213 N   0  0  0  0  0  0  0  0  0  0  0  0
   12.6954  -17.5397   22.6319 C   0  0  0  0  0  0  0  0  0  0  0  0
   13.7732  -16.9987   22.2231 O   0  0  0  0  0  0  0  0  0  0  0  0
   12.6712  -18.0420   23.9247 O   0  0  0  0  0  0  0  0  0  0  0  0
  2  1  1  6
  2  3  1  0
  4  9  1  0
  4  3  1  0
  5  4  2  0
  6  7  2  0
  6  5  1  0
  7  8  1  0
  8  9  2  0
 10  2  1  0
 10 11  2  0
 12 13  1  0
 13 23  2  0
 14 15  2  0
 14 13  1  0
 15 16  1  0
 16 17  1  0
 16 22  2  0
 18 17  1  1
 18 19  1  0
 19 10  1  0
 20 18  1  0
 21 20  2  0
 23 22  1  0
 24 20  1  0
 25 32  1  0
 25 24  1  0
 26 27  1  0
 25 26  1  6
 27 28  2  0
 28 29  1  0
 30 29  1  0
 31 27  1  0
 31 30  2  0
 32 34  1  0
 33 32  2  0
M  END
$$$$
