HKT.pdb
     RDKit          3D

 27 27  0  0  1  0  0  0  0  0999 V2000
   10.2043  -12.8950   18.9795 N   0  0  0  0  0  0  0  0  0  0  0  0
    9.5973  -14.1494   19.3684 C   0  0  1  0  0  0  0  0  0  0  0  0
    9.4203  -14.9715   18.1129 C   0  0  0  0  0  0  0  0  0  0  0  0
    8.4326  -14.2709   17.2619 C   0  0  0  0  0  0  0  0  0  0  0  0
    7.3308  -13.5902   17.7300 C   0  0  0  0  0  0  0  0  0  0  0  0
    6.6617  -13.0806   16.6615 N   0  0  0  0  0  0  0  0  0  0  0  0
    7.3268  -13.4328   15.5525 C   0  0  0  0  0  0  0  0  0  0  0  0
    8.3937  -14.1515   15.9356 N   0  0  0  0  0  0  0  0  0  0  0  0
   10.4397  -14.8075   20.3704 C   0  0  0  0  0  0  0  0  0  0  0  0
   11.6415  -14.4712   20.4628 O   0  0  0  0  0  0  0  0  0  0  0  0
    9.9963  -15.8135   21.2608 N   0  0  0  0  0  0  0  0  0  0  0  0
   10.8607  -16.3982   22.2015 C   0  0  1  0  0  0  0  0  0  0  0  0
   10.3348  -17.0494   23.4077 C   0  0  0  0  0  0  0  0  0  0  0  0
   11.4109  -17.5711   24.3018 C   0  0  0  0  0  0  0  0  0  0  0  0
   11.0020  -18.3976   25.4584 C   0  0  0  0  0  0  0  0  0  0  0  0
   12.1823  -18.8242   26.3148 C   0  0  0  0  0  0  0  0  0  0  0  0
   11.7184  -19.7040   27.3435 N   0  0  0  0  0  0  0  0  0  0  0  0
   11.6385  -17.4506   21.4391 C   0  0  0  0  0  0  0  0  0  0  0  0
   11.0702  -18.3115   20.7504 O   0  0  0  0  0  0  0  0  0  0  0  0
   15.9506  -18.6290   19.5367 C   0  0  0  0  0  0  0  0  0  0  0  0
   14.9573  -17.6936   20.1495 C   0  0  1  0  0  0  0  0  0  0  0  0
   14.3553  -16.9251   19.1408 O   0  0  0  0  0  0  0  0  0  0  0  0
   13.8186  -18.4377   20.8378 C   0  0  2  0  0  0  0  0  0  0  0  0
   13.0373  -17.4262   21.5322 N   0  0  0  0  0  0  0  0  0  0  0  0
   14.3237  -19.4553   21.7707 C   0  0  0  0  0  0  0  0  0  0  0  0
   14.5043  -19.1228   22.9707 O   0  0  0  0  0  0  0  0  0  0  0  0
   14.6180  -20.7655   21.4220 O   0  0  0  0  0  0  0  0  0  0  0  0
  2  1  1  6
  2  9  1  0
  2  3  1  0
  3  4  1  0
  4  8  1  0
  4  5  2  0
  5  6  1  0
  7  6  1  0
  8  7  2  0
  9 11  1  0
 10  9  2  0
 11 12  1  0
 12 13  1  1
 13 14  1  0
 14 15  1  0
 15 16  1  0
 16 17  1  0
 18 19  2  0
 18 12  1  0
 21 20  1  6
 21 23  1  0
 22 21  1  0
 23 24  1  1
 23 25  1  0
 24 18  1  0
 25 27  1  0
 26 25  2  0
M  END
$$$$
