HKT.pdb
     RDKit          3D

 27 27  0  0  1  0  0  0  0  0999 V2000
    4.2864  -19.9585   20.8126 N   0  0  0  0  0  0  0  0  0  0  0  0
    4.1243  -18.7939   21.6556 C   0  0  1  0  0  0  0  0  0  0  0  0
    3.6164  -19.2755   22.9948 C   0  0  0  0  0  0  0  0  0  0  0  0
    2.2202  -19.7269   22.8013 C   0  0  0  0  0  0  0  0  0  0  0  0
    1.5420  -19.7001   21.6031 C   0  0  0  0  0  0  0  0  0  0  0  0
    0.2910  -20.1900   21.8129 N   0  0  0  0  0  0  0  0  0  0  0  0
    0.1877  -20.5154   23.1089 C   0  0  0  0  0  0  0  0  0  0  0  0
    1.3633  -20.2284   23.6896 N   0  0  0  0  0  0  0  0  0  0  0  0
    5.4003  -18.0798   21.7496 C   0  0  0  0  0  0  0  0  0  0  0  0
    6.4639  -18.7380   21.7127 O   0  0  0  0  0  0  0  0  0  0  0  0
    5.5310  -16.6773   21.8814 N   0  0  0  0  0  0  0  0  0  0  0  0
    6.7599  -16.0290   21.6728 C   0  0  1  0  0  0  0  0  0  0  0  0
    6.8106  -14.6505   21.1698 C   0  0  0  0  0  0  0  0  0  0  0  0
    8.1868  -14.2271   20.7746 C   0  0  0  0  0  0  0  0  0  0  0  0
    8.3365  -12.9156   20.1071 C   0  0  0  0  0  0  0  0  0  0  0  0
    9.7442  -12.6870   19.5828 C   0  0  0  0  0  0  0  0  0  0  0  0
    9.7737  -11.4617   18.8445 N   0  0  0  0  0  0  0  0  0  0  0  0
    7.4530  -16.0297   23.0196 C   0  0  0  0  0  0  0  0  0  0  0  0
    6.9503  -15.4835   24.0130 O   0  0  0  0  0  0  0  0  0  0  0  0
    8.2656  -18.4692   25.4289 C   0  0  0  0  0  0  0  0  0  0  0  0
    9.5759  -17.9697   24.9088 C   0  0  1  0  0  0  0  0  0  0  0  0
    9.9927  -18.7776   23.8392 O   0  0  0  0  0  0  0  0  0  0  0  0
    9.4673  -16.5582   24.3432 C   0  0  2  0  0  0  0  0  0  0  0  0
    8.6948  -16.6736   23.1162 N   0  0  0  0  0  0  0  0  0  0  0  0
   10.7922  -15.9751   24.0867 C   0  0  0  0  0  0  0  0  0  0  0  0
   11.1229  -15.7556   22.8928 O   0  0  0  0  0  0  0  0  0  0  0  0
   11.7114  -15.6467   25.0725 O   0  0  0  0  0  0  0  0  0  0  0  0
  2  1  1  6
  2  9  1  0
  2  3  1  0
  3  4  1  0
  4  8  1  0
  4  5  2  0
  5  6  1  0
  7  6  1  0
  8  7  2  0
  9 11  1  0
 10  9  2  0
 11 12  1  0
 12 13  1  1
 13 14  1  0
 14 15  1  0
 15 16  1  0
 16 17  1  0
 18 19  2  0
 18 12  1  0
 21 20  1  6
 21 23  1  0
 22 21  1  0
 23 24  1  6
 23 25  1  0
 24 18  1  0
 25 27  1  0
 26 25  2  0
M  END
$$$$
