HKT.pdb
     RDKit          3D

 27 27  0  0  1  0  0  0  0  0999 V2000
   10.3287  -18.0330   19.8340 N   0  0  0  0  0  0  0  0  0  0  0  0
   10.7666  -16.9598   20.7000 C   0  0  1  0  0  0  0  0  0  0  0  0
   11.0272  -15.7549   19.8261 C   0  0  0  0  0  0  0  0  0  0  0  0
   12.2865  -16.0070   19.0904 C   0  0  0  0  0  0  0  0  0  0  0  0
   13.5293  -16.1245   19.6719 C   0  0  0  0  0  0  0  0  0  0  0  0
   14.4386  -16.3521   18.6869 N   0  0  0  0  0  0  0  0  0  0  0  0
   13.7829  -16.3766   17.5182 C   0  0  0  0  0  0  0  0  0  0  0  0
   12.4838  -16.1662   17.7825 N   0  0  0  0  0  0  0  0  0  0  0  0
    9.7483  -16.7152   21.7247 C   0  0  0  0  0  0  0  0  0  0  0  0
    8.6621  -16.1960   21.3836 O   0  0  0  0  0  0  0  0  0  0  0  0
    9.8959  -17.0245   23.0973 N   0  0  0  0  0  0  0  0  0  0  0  0
    8.8341  -16.8735   24.0049 C   0  0  1  0  0  0  0  0  0  0  0  0
    8.4526  -17.9655   24.9092 C   0  0  0  0  0  0  0  0  0  0  0  0
    8.1588  -19.2399   24.1887 C   0  0  0  0  0  0  0  0  0  0  0  0
    7.8444  -20.4331   25.0046 C   0  0  0  0  0  0  0  0  0  0  0  0
    7.5902  -21.6675   24.1559 C   0  0  0  0  0  0  0  0  0  0  0  0
    7.2353  -22.7573   25.0125 N   0  0  0  0  0  0  0  0  0  0  0  0
    9.2101  -15.6936   24.8770 C   0  0  0  0  0  0  0  0  0  0  0  0
   10.3866  -15.4672   25.1976 O   0  0  0  0  0  0  0  0  0  0  0  0
    7.5746  -12.0299   24.7206 C   0  0  0  0  0  0  0  0  0  0  0  0
    7.4186  -12.7141   26.0414 C   0  0  1  0  0  0  0  0  0  0  0  0
    6.1868  -13.3864   26.0766 O   0  0  0  0  0  0  0  0  0  0  0  0
    8.4809  -13.7852   26.2609 C   0  0  2  0  0  0  0  0  0  0  0  0
    8.1797  -14.8513   25.3183 N   0  0  0  0  0  0  0  0  0  0  0  0
    8.4728  -14.2790   27.6454 C   0  0  0  0  0  0  0  0  0  0  0  0
    8.1822  -15.4871   27.8429 O   0  0  0  0  0  0  0  0  0  0  0  0
    8.7644  -13.5043   28.7588 O   0  0  0  0  0  0  0  0  0  0  0  0
  2  1  1  6
  2  9  1  0
  2  3  1  0
  3  4  1  0
  4  8  1  0
  4  5  2  0
  5  6  1  0
  7  6  1  0
  8  7  2  0
  9 11  1  0
 10  9  2  0
 11 12  1  0
 12 13  1  1
 13 14  1  0
 14 15  1  0
 15 16  1  0
 16 17  1  0
 18 19  2  0
 18 12  1  0
 21 20  1  6
 21 23  1  0
 22 21  1  0
 23 24  1  6
 23 25  1  0
 24 18  1  0
 25 27  1  0
 26 25  2  0
M  END
$$$$
