HKT.pdb
     RDKit          3D

 27 27  0  0  1  0  0  0  0  0999 V2000
    8.6791  -16.0272   20.2987 N   0  0  0  0  0  0  0  0  0  0  0  0
    8.0275  -14.8674   20.8676 C   0  0  1  0  0  0  0  0  0  0  0  0
    6.9110  -14.4734   19.9287 C   0  0  0  0  0  0  0  0  0  0  0  0
    7.5186  -14.2130   18.6045 C   0  0  0  0  0  0  0  0  0  0  0  0
    7.9888  -12.9904   18.1795 C   0  0  0  0  0  0  0  0  0  0  0  0
    8.4725  -13.1375   16.9173 N   0  0  0  0  0  0  0  0  0  0  0  0
    8.3099  -14.4191   16.5602 C   0  0  0  0  0  0  0  0  0  0  0  0
    7.7320  -15.0530   17.5926 N   0  0  0  0  0  0  0  0  0  0  0  0
    7.5554  -15.1876   22.2171 C   0  0  0  0  0  0  0  0  0  0  0  0
    6.8075  -14.3734   22.8035 O   0  0  0  0  0  0  0  0  0  0  0  0
    7.8828  -16.3670   22.9266 N   0  0  0  0  0  0  0  0  0  0  0  0
    7.4711  -16.5659   24.2552 C   0  0  1  0  0  0  0  0  0  0  0  0
    7.4154  -17.9138   24.8346 C   0  0  0  0  0  0  0  0  0  0  0  0
    6.6859  -18.8879   23.9694 C   0  0  0  0  0  0  0  0  0  0  0  0
    6.7479  -20.3180   24.3424 C   0  0  0  0  0  0  0  0  0  0  0  0
    5.8658  -21.1875   23.4623 C   0  0  0  0  0  0  0  0  0  0  0  0
    5.9612  -22.5454   23.9029 N   0  0  0  0  0  0  0  0  0  0  0  0
    8.4358  -15.7637   25.1036 C   0  0  0  0  0  0  0  0  0  0  0  0
    9.6591  -15.7872   24.9007 O   0  0  0  0  0  0  0  0  0  0  0  0
    8.1209  -12.0701   25.9440 C   0  0  0  0  0  0  0  0  0  0  0  0
    8.1535  -12.8692   27.2079 C   0  0  1  0  0  0  0  0  0  0  0  0
    6.8403  -13.1288   27.6305 O   0  0  0  0  0  0  0  0  0  0  0  0
    8.8005  -14.2347   27.0057 C   0  0  2  0  0  0  0  0  0  0  0  0
    7.9031  -14.9820   26.1386 N   0  0  0  0  0  0  0  0  0  0  0  0
    9.0080  -14.9293   28.2846 C   0  0  0  0  0  0  0  0  0  0  0  0
    8.4062  -16.0180   28.4730 O   0  0  0  0  0  0  0  0  0  0  0  0
    9.8252  -14.4685   29.3066 O   0  0  0  0  0  0  0  0  0  0  0  0
  2  1  1  6
  2  9  1  0
  2  3  1  0
  3  4  1  0
  4  8  1  0
  4  5  2  0
  5  6  1  0
  7  6  1  0
  8  7  2  0
  9 11  1  0
 10  9  2  0
 11 12  1  0
 12 13  1  1
 13 14  1  0
 14 15  1  0
 15 16  1  0
 16 17  1  0
 18 19  2  0
 18 12  1  0
 21 20  1  6
 21 23  1  0
 22 21  1  0
 23 24  1  6
 23 25  1  0
 24 18  1  0
 25 27  1  0
 26 25  2  0
M  END
$$$$
