HKT.pdb
     RDKit          3D

 27 27  0  0  1  0  0  0  0  0999 V2000
    6.3873  -16.6192   20.4386 N   0  0  0  0  0  0  0  0  0  0  0  0
    7.2460  -15.7382   21.2000 C   0  0  1  0  0  0  0  0  0  0  0  0
    6.8795  -14.3204   20.8272 C   0  0  0  0  0  0  0  0  0  0  0  0
    7.4667  -14.0479   19.4962 C   0  0  0  0  0  0  0  0  0  0  0  0
    8.2289  -14.9386   18.7736 C   0  0  0  0  0  0  0  0  0  0  0  0
    8.5895  -14.3394   17.6074 N   0  0  0  0  0  0  0  0  0  0  0  0
    8.0670  -13.1052   17.5993 C   0  0  0  0  0  0  0  0  0  0  0  0
    7.3921  -12.9477   18.7487 N   0  0  0  0  0  0  0  0  0  0  0  0
    7.0827  -16.0154   22.6295 C   0  0  0  0  0  0  0  0  0  0  0  0
    6.0191  -15.6723   23.1927 O   0  0  0  0  0  0  0  0  0  0  0  0
    8.0494  -16.6526   23.4423 N   0  0  0  0  0  0  0  0  0  0  0  0
    7.8320  -16.8694   24.8134 C   0  0  1  0  0  0  0  0  0  0  0  0
    8.0370  -18.1952   25.4100 C   0  0  0  0  0  0  0  0  0  0  0  0
    7.1991  -19.2543   24.7728 C   0  0  0  0  0  0  0  0  0  0  0  0
    7.2326  -20.6076   25.3692 C   0  0  0  0  0  0  0  0  0  0  0  0
    6.4626  -21.6257   24.5451 C   0  0  0  0  0  0  0  0  0  0  0  0
    6.5958  -22.9143   25.1525 N   0  0  0  0  0  0  0  0  0  0  0  0
    8.7684  -15.9177   25.5284 C   0  0  0  0  0  0  0  0  0  0  0  0
    9.9156  -15.6952   25.1131 O   0  0  0  0  0  0  0  0  0  0  0  0
    7.8801  -12.4011   26.4884 C   0  0  0  0  0  0  0  0  0  0  0  0
    8.2990  -13.1390   27.7200 C   0  0  1  0  0  0  0  0  0  0  0  0
    7.1627  -13.6436   28.3716 O   0  0  0  0  0  0  0  0  0  0  0  0
    9.1625  -14.3526   27.3950 C   0  0  2  0  0  0  0  0  0  0  0  0
    8.2984  -15.2848   26.6880 N   0  0  0  0  0  0  0  0  0  0  0  0
    9.7210  -14.9602   28.6115 C   0  0  0  0  0  0  0  0  0  0  0  0
   10.5114  -14.2733   29.3088 O   0  0  0  0  0  0  0  0  0  0  0  0
    9.4380  -16.2456   29.0501 O   0  0  0  0  0  0  0  0  0  0  0  0
  2  1  1  6
  2  9  1  0
  2  3  1  0
  3  4  1  0
  4  8  1  0
  4  5  2  0
  5  6  1  0
  7  6  1  0
  8  7  2  0
  9 11  1  0
 10  9  2  0
 11 12  1  0
 12 13  1  1
 13 14  1  0
 14 15  1  0
 15 16  1  0
 16 17  1  0
 18 19  2  0
 18 12  1  0
 21 20  1  6
 21 23  1  0
 22 21  1  0
 23 24  1  1
 23 25  1  0
 24 18  1  0
 25 27  1  0
 26 25  2  0
M  END
$$$$
