HKT.pdb
     RDKit          3D

 27 27  0  0  1  0  0  0  0  0999 V2000
    8.5448  -16.2903   20.1081 N   0  0  0  0  0  0  0  0  0  0  0  0
    7.7602  -15.1578   20.5497 C   0  0  1  0  0  0  0  0  0  0  0  0
    6.6279  -14.9836   19.5644 C   0  0  0  0  0  0  0  0  0  0  0  0
    7.2280  -14.6150   18.2626 C   0  0  0  0  0  0  0  0  0  0  0  0
    7.9549  -15.4662   17.4604 C   0  0  0  0  0  0  0  0  0  0  0  0
    8.3415  -14.7783   16.3530 N   0  0  0  0  0  0  0  0  0  0  0  0
    7.8694  -13.5284   16.4583 C   0  0  0  0  0  0  0  0  0  0  0  0
    7.1994  -13.4490   17.6186 N   0  0  0  0  0  0  0  0  0  0  0  0
    7.2967  -15.3916   21.9199 C   0  0  0  0  0  0  0  0  0  0  0  0
    6.4693  -14.5974   22.4205 O   0  0  0  0  0  0  0  0  0  0  0  0
    7.7170  -16.4646   22.7406 N   0  0  0  0  0  0  0  0  0  0  0  0
    7.3128  -16.5683   24.0822 C   0  0  1  0  0  0  0  0  0  0  0  0
    7.4378  -17.8357   24.8127 C   0  0  0  0  0  0  0  0  0  0  0  0
    6.7093  -18.9600   24.1531 C   0  0  0  0  0  0  0  0  0  0  0  0
    6.8569  -20.3106   24.7381 C   0  0  0  0  0  0  0  0  0  0  0  0
    6.0460  -21.3585   23.9944 C   0  0  0  0  0  0  0  0  0  0  0  0
    6.2127  -22.6235   24.6420 N   0  0  0  0  0  0  0  0  0  0  0  0
    8.1382  -15.5455   24.8350 C   0  0  0  0  0  0  0  0  0  0  0  0
    9.3318  -15.3432   24.5656 O   0  0  0  0  0  0  0  0  0  0  0  0
    6.6578  -12.0580   25.8759 C   0  0  0  0  0  0  0  0  0  0  0  0
    7.2653  -12.7705   27.0422 C   0  0  1  0  0  0  0  0  0  0  0  0
    6.2626  -13.4595   27.7426 O   0  0  0  0  0  0  0  0  0  0  0  0
    8.2688  -13.8319   26.6057 C   0  0  2  0  0  0  0  0  0  0  0  0
    7.5094  -14.8222   25.8585 N   0  0  0  0  0  0  0  0  0  0  0  0
    8.9488  -14.4396   27.7587 C   0  0  0  0  0  0  0  0  0  0  0  0
    8.8026  -15.6744   27.9507 O   0  0  0  0  0  0  0  0  0  0  0  0
    9.7460  -13.7457   28.6574 O   0  0  0  0  0  0  0  0  0  0  0  0
  2  1  1  6
  2  9  1  0
  2  3  1  0
  3  4  1  0
  4  8  1  0
  4  5  2  0
  5  6  1  0
  7  6  1  0
  8  7  2  0
  9 11  1  0
 10  9  2  0
 11 12  1  0
 12 13  1  1
 13 14  1  0
 14 15  1  0
 15 16  1  0
 16 17  1  0
 18 19  2  0
 18 12  1  0
 21 20  1  6
 21 23  1  0
 22 21  1  0
 23 24  1  1
 23 25  1  0
 24 18  1  0
 25 27  1  0
 26 25  2  0
M  END
$$$$
