HKT.pdb
     RDKit          3D

 27 27  0  0  1  0  0  0  0  0999 V2000
    7.2047  -16.8741   19.9452 N   0  0  0  0  0  0  0  0  0  0  0  0
    7.7695  -15.7731   20.6949 C   0  0  1  0  0  0  0  0  0  0  0  0
    7.0253  -14.5229   20.2870 C   0  0  0  0  0  0  0  0  0  0  0  0
    7.5310  -14.1227   18.9547 C   0  0  0  0  0  0  0  0  0  0  0  0
    8.4554  -13.1273   18.7288 C   0  0  0  0  0  0  0  0  0  0  0  0
    8.6729  -13.0467   17.3890 N   0  0  0  0  0  0  0  0  0  0  0  0
    7.9048  -13.9677   16.7906 C   0  0  0  0  0  0  0  0  0  0  0  0
    7.2223  -14.6077   17.7529 N   0  0  0  0  0  0  0  0  0  0  0  0
    7.6687  -16.0581   22.1285 C   0  0  0  0  0  0  0  0  0  0  0  0
    6.5395  -16.2754   22.6223 O   0  0  0  0  0  0  0  0  0  0  0  0
    8.7667  -16.1089   23.0192 N   0  0  0  0  0  0  0  0  0  0  0  0
    8.6098  -16.4945   24.3611 C   0  0  1  0  0  0  0  0  0  0  0  0
    9.3751  -17.6165   24.9187 C   0  0  0  0  0  0  0  0  0  0  0  0
    9.0888  -17.8526   26.3651 C   0  0  0  0  0  0  0  0  0  0  0  0
    9.8387  -18.9302   27.0465 C   0  0  0  0  0  0  0  0  0  0  0  0
    9.4315  -19.0922   28.5014 C   0  0  0  0  0  0  0  0  0  0  0  0
   10.0588  -20.2629   29.0337 N   0  0  0  0  0  0  0  0  0  0  0  0
    8.9666  -15.2711   25.1795 C   0  0  0  0  0  0  0  0  0  0  0  0
   10.0674  -14.7103   25.0698 O   0  0  0  0  0  0  0  0  0  0  0  0
    6.5914  -12.2507   25.6462 C   0  0  0  0  0  0  0  0  0  0  0  0
    7.0067  -12.8127   26.9686 C   0  0  1  0  0  0  0  0  0  0  0  0
    6.0386  -13.7273   27.4122 O   0  0  0  0  0  0  0  0  0  0  0  0
    8.3077  -13.6015   26.8728 C   0  0  2  0  0  0  0  0  0  0  0  0
    8.0068  -14.7809   26.0764 N   0  0  0  0  0  0  0  0  0  0  0  0
    8.8154  -13.9704   28.2021 C   0  0  0  0  0  0  0  0  0  0  0  0
    8.8666  -15.1918   28.4997 O   0  0  0  0  0  0  0  0  0  0  0  0
    9.2454  -13.0634   29.1597 O   0  0  0  0  0  0  0  0  0  0  0  0
  2  1  1  6
  2  9  1  0
  2  3  1  0
  3  4  1  0
  4  8  1  0
  4  5  2  0
  5  6  1  0
  7  6  1  0
  8  7  2  0
  9 11  1  0
 10  9  2  0
 11 12  1  0
 12 13  1  1
 13 14  1  0
 14 15  1  0
 15 16  1  0
 16 17  1  0
 18 19  2  0
 18 12  1  0
 21 20  1  6
 21 23  1  0
 22 21  1  0
 23 24  1  6
 23 25  1  0
 24 18  1  0
 25 27  1  0
 26 25  2  0
M  END
$$$$
