MSG.pdb
     RDKit          3D

 19 18  0  0  1  0  0  0  0  0999 V2000
   28.4499  -12.4210  -15.0838 C   0  0  0  0  0  0  0  0  0  0  0  0
   27.8714  -12.9119  -16.7490 S   0  0  0  0  0  0  0  0  0  0  0  0
   26.0481  -13.0642  -16.6187 C   0  0  0  0  0  0  0  0  0  0  0  0
   25.3704  -11.7851  -16.9717 C   0  0  0  0  0  0  0  0  0  0  0  0
   24.6898  -11.2085  -15.7818 C   0  0  2  0  0  0  0  0  0  0  0  0
   23.7677  -12.2040  -15.2395 N   0  0  0  0  0  0  0  0  0  0  0  0
   23.9784   -9.9479  -15.9948 C   0  0  0  0  0  0  0  0  0  0  0  0
   24.4578   -8.8850  -16.4581 O   0  0  0  0  0  0  0  0  0  0  0  0
   20.1676   -9.6983  -14.4430 O   0  0  0  0  0  0  0  0  0  0  0  0
   20.3551   -9.0475  -15.6536 C   0  0  0  0  0  0  0  0  0  0  0  0
   21.8262   -8.6921  -15.8439 C   0  0  2  0  0  0  0  0  0  0  0  0
   22.5866   -9.8845  -15.6492 N   0  0  0  0  0  0  0  0  0  0  0  0
   22.1608   -7.7237  -14.7408 C   0  0  0  0  0  0  0  0  0  0  0  0
   22.7360   -8.1090  -13.7064 O   0  0  0  0  0  0  0  0  0  0  0  0
   21.8339   -6.3403  -14.8388 N   0  0  0  0  0  0  0  0  0  0  0  0
   22.2407   -5.3564  -13.8736 C   0  0  0  0  0  0  0  0  0  0  0  0
   21.7723   -4.0005  -14.2064 C   0  0  0  0  0  0  0  0  0  0  0  0
   21.9888   -2.9198  -13.3664 O   0  0  0  0  0  0  0  0  0  0  0  0
   21.1575   -3.8275  -15.2890 O   0  0  0  0  0  0  0  0  0  0  0  0
  2  1  1  0
  3  2  1  0
  4  5  1  0
  4  3  1  0
  5  6  1  6
  7  8  2  0
  7  5  1  0
 10  9  1  0
 11 10  1  1
 11 12  1  0
 12  7  1  0
 13 14  2  0
 13 11  1  0
 15 13  1  0
 16 17  1  0
 16 15  1  0
 17 18  1  0
 19 17  2  0
M  END
$$$$
