MSG.pdb
     RDKit          3D

 19 18  0  0  1  0  0  0  0  0999 V2000
   12.6802   -9.9433  -17.6072 C   0  0  0  0  0  0  0  0  0  0  0  0
   14.0249   -9.2961  -16.5481 S   0  0  0  0  0  0  0  0  0  0  0  0
   15.3452  -10.5689  -16.5852 C   0  0  0  0  0  0  0  0  0  0  0  0
   16.5276  -10.1475  -15.7824 C   0  0  0  0  0  0  0  0  0  0  0  0
   17.5785  -11.1993  -15.8081 C   0  0  2  0  0  0  0  0  0  0  0  0
   17.0947  -12.3651  -15.0717 N   0  0  0  0  0  0  0  0  0  0  0  0
   18.8927  -10.8090  -15.2970 C   0  0  0  0  0  0  0  0  0  0  0  0
   19.3158  -10.9562  -14.1250 O   0  0  0  0  0  0  0  0  0  0  0  0
   21.6954   -9.8250  -18.1253 O   0  0  0  0  0  0  0  0  0  0  0  0
   22.0954  -10.3290  -16.8964 C   0  0  0  0  0  0  0  0  0  0  0  0
   21.1479   -9.8619  -15.7962 C   0  0  2  0  0  0  0  0  0  0  0  0
   19.8196  -10.1911  -16.2025 N   0  0  0  0  0  0  0  0  0  0  0  0
   21.2785   -8.3628  -15.7509 C   0  0  0  0  0  0  0  0  0  0  0  0
   20.5437   -7.6371  -16.4457 O   0  0  0  0  0  0  0  0  0  0  0  0
   22.2409   -7.7233  -14.9171 N   0  0  0  0  0  0  0  0  0  0  0  0
   22.3930   -6.2972  -14.8269 C   0  0  0  0  0  0  0  0  0  0  0  0
   21.7061   -5.7213  -13.6585 C   0  0  0  0  0  0  0  0  0  0  0  0
   21.8654   -4.3947  -13.2906 O   0  0  0  0  0  0  0  0  0  0  0  0
   20.9534   -6.4642  -12.9792 O   0  0  0  0  0  0  0  0  0  0  0  0
  2  1  1  0
  3  2  1  0
  4  5  1  0
  4  3  1  0
  5  6  1  1
  7  8  2  0
  7  5  1  0
 10  9  1  0
 11 10  1  6
 11 12  1  0
 12  7  1  0
 13 14  2  0
 13 11  1  0
 15 13  1  0
 16 17  1  0
 16 15  1  0
 17 18  1  0
 19 17  2  0
M  END
$$$$
