MSG.pdb
     RDKit          3D

 19 18  0  0  1  0  0  0  0  0999 V2000
   21.7963    4.8803   -3.9886 C   0  0  0  0  0  0  0  0  0  0  0  0
   21.7952    5.3596   -5.7547 S   0  0  0  0  0  0  0  0  0  0  0  0
   23.3614    4.7053   -6.4499 C   0  0  0  0  0  0  0  0  0  0  0  0
   23.7656    3.4382   -5.7782 C   0  0  0  0  0  0  0  0  0  0  0  0
   25.0837    2.9744   -6.2869 C   0  0  2  0  0  0  0  0  0  0  0  0
   24.9485    2.6358   -7.7021 N   0  0  0  0  0  0  0  0  0  0  0  0
   25.6912    1.8520   -5.5716 C   0  0  0  0  0  0  0  0  0  0  0  0
   25.9816    0.7280   -6.0476 O   0  0  0  0  0  0  0  0  0  0  0  0
   28.4347    2.5701   -3.0433 O   0  0  0  0  0  0  0  0  0  0  0  0
   28.1693    1.2912   -3.5106 C   0  0  0  0  0  0  0  0  0  0  0  0
   26.6738    0.9995   -3.4410 C   0  0  2  0  0  0  0  0  0  0  0  0
   26.0007    2.0187   -4.1798 N   0  0  0  0  0  0  0  0  0  0  0  0
   26.2970    1.1304   -1.9893 C   0  0  0  0  0  0  0  0  0  0  0  0
   25.9368    2.2255   -1.5200 O   0  0  0  0  0  0  0  0  0  0  0  0
   26.3381    0.0139   -1.1049 N   0  0  0  0  0  0  0  0  0  0  0  0
   26.0135    0.0937    0.2927 C   0  0  0  0  0  0  0  0  0  0  0  0
   26.1250   -1.2034    0.9810 C   0  0  0  0  0  0  0  0  0  0  0  0
   25.8670   -1.3429    2.3354 O   0  0  0  0  0  0  0  0  0  0  0  0
   26.4656   -2.2106    0.3105 O   0  0  0  0  0  0  0  0  0  0  0  0
  2  1  1  0
  3  2  1  0
  4  5  1  0
  4  3  1  0
  5  6  1  6
  7  8  2  0
  7  5  1  0
 10  9  1  0
 11 10  1  1
 11 12  1  0
 12  7  1  0
 13 14  2  0
 13 11  1  0
 15 13  1  0
 16 17  1  0
 16 15  1  0
 17 18  1  0
 19 17  2  0
M  END
$$$$
