MSG.pdb
     RDKit          3D

 19 18  0  0  1  0  0  0  0  0999 V2000
   20.3276  -11.3333  -21.7003 C   0  0  0  0  0  0  0  0  0  0  0  0
   19.5139  -10.0842  -20.6391 S   0  0  0  0  0  0  0  0  0  0  0  0
   20.4931  -10.0328  -19.0890 C   0  0  0  0  0  0  0  0  0  0  0  0
   20.0817   -8.8906  -18.2251 C   0  0  0  0  0  0  0  0  0  0  0  0
   20.8847   -8.8659  -16.9737 C   0  0  2  0  0  0  0  0  0  0  0  0
   20.7197  -10.1437  -16.2842 N   0  0  0  0  0  0  0  0  0  0  0  0
   20.5998   -7.7700  -16.0472 C   0  0  0  0  0  0  0  0  0  0  0  0
   19.9464   -7.8419  -14.9785 O   0  0  0  0  0  0  0  0  0  0  0  0
   21.7976   -4.4548  -13.4500 O   0  0  0  0  0  0  0  0  0  0  0  0
   21.7916   -5.5836  -14.2562 C   0  0  0  0  0  0  0  0  0  0  0  0
   20.9084   -5.3587  -15.4793 C   0  0  2  0  0  0  0  0  0  0  0  0
   21.1045   -6.4635  -16.3619 N   0  0  0  0  0  0  0  0  0  0  0  0
   21.4353   -4.1144  -16.1431 C   0  0  0  0  0  0  0  0  0  0  0  0
   22.6029   -4.0655  -16.5715 O   0  0  0  0  0  0  0  0  0  0  0  0
   20.6231   -2.9549  -16.3047 N   0  0  0  0  0  0  0  0  0  0  0  0
   21.0827   -1.7414  -16.9222 C   0  0  0  0  0  0  0  0  0  0  0  0
   21.7713   -0.8445  -15.9788 C   0  0  0  0  0  0  0  0  0  0  0  0
   22.3437    0.3509  -16.3836 O   0  0  0  0  0  0  0  0  0  0  0  0
   21.8371   -1.1824  -14.7698 O   0  0  0  0  0  0  0  0  0  0  0  0
  2  1  1  0
  3  2  1  0
  4  5  1  0
  4  3  1  0
  5  6  1  1
  7  8  2  0
  7  5  1  0
 10  9  1  0
 11 10  1  1
 11 12  1  0
 12  7  1  0
 13 14  2  0
 13 11  1  0
 15 13  1  0
 16 17  1  0
 16 15  1  0
 17 18  1  0
 19 17  2  0
M  END
$$$$
