MSG.pdb
     RDKit          3D

 19 18  0  0  1  0  0  0  0  0999 V2000
   28.1683  -14.3452  -15.0477 C   0  0  0  0  0  0  0  0  0  0  0  0
   27.7472  -12.6431  -15.5713 S   0  0  0  0  0  0  0  0  0  0  0  0
   25.9678  -12.6838  -16.0151 C   0  0  0  0  0  0  0  0  0  0  0  0
   25.4628  -11.3244  -16.3572 C   0  0  0  0  0  0  0  0  0  0  0  0
   24.0577  -11.3947  -16.8388 C   0  0  2  0  0  0  0  0  0  0  0  0
   24.0053  -12.2682  -18.0091 N   0  0  0  0  0  0  0  0  0  0  0  0
   23.4203  -10.1160  -17.1541 C   0  0  0  0  0  0  0  0  0  0  0  0
   23.4575   -9.5099  -18.2521 O   0  0  0  0  0  0  0  0  0  0  0  0
   19.8321   -7.2969  -16.6978 O   0  0  0  0  0  0  0  0  0  0  0  0
   20.5226   -8.4804  -16.4810 C   0  0  0  0  0  0  0  0  0  0  0  0
   22.0186   -8.2087  -16.3609 C   0  0  2  0  0  0  0  0  0  0  0  0
   22.6663   -9.4587  -16.1246 N   0  0  0  0  0  0  0  0  0  0  0  0
   22.1823   -7.3444  -15.1391 C   0  0  0  0  0  0  0  0  0  0  0  0
   22.4094   -7.8511  -14.0252 O   0  0  0  0  0  0  0  0  0  0  0  0
   22.0841   -5.9248  -15.2118 N   0  0  0  0  0  0  0  0  0  0  0  0
   22.1753   -5.0614  -14.0666 C   0  0  0  0  0  0  0  0  0  0  0  0
   21.9422   -3.6455  -14.3975 C   0  0  0  0  0  0  0  0  0  0  0  0
   21.9346   -2.6545  -13.4288 O   0  0  0  0  0  0  0  0  0  0  0  0
   21.7448   -3.3354  -15.5995 O   0  0  0  0  0  0  0  0  0  0  0  0
  2  1  1  0
  3  2  1  0
  4  5  1  0
  4  3  1  0
  5  6  1  6
  7  8  2  0
  7  5  1  0
 10  9  1  0
 11 10  1  1
 11 12  1  0
 12  7  1  0
 13 14  2  0
 13 11  1  0
 15 13  1  0
 16 17  1  0
 16 15  1  0
 17 18  1  0
 19 17  2  0
M  END
$$$$
