MSG.pdb
     RDKit          3D

 19 18  0  0  1  0  0  0  0  0999 V2000
   15.8614   -8.7828  -18.3113 C   0  0  0  0  0  0  0  0  0  0  0  0
   15.9534  -10.3924  -19.1771 S   0  0  0  0  0  0  0  0  0  0  0  0
   17.4867  -11.1971  -18.5722 C   0  0  0  0  0  0  0  0  0  0  0  0
   17.9339  -10.6089  -17.2782 C   0  0  0  0  0  0  0  0  0  0  0  0
   19.1673  -11.2848  -16.7953 C   0  0  2  0  0  0  0  0  0  0  0  0
   18.8276  -12.6456  -16.3851 N   0  0  0  0  0  0  0  0  0  0  0  0
   19.8879  -10.6134  -15.7133 C   0  0  0  0  0  0  0  0  0  0  0  0
   19.6367  -10.6867  -14.4862 O   0  0  0  0  0  0  0  0  0  0  0  0
   23.6683   -9.3627  -16.4554 O   0  0  0  0  0  0  0  0  0  0  0  0
   23.2011   -9.5461  -15.1622 C   0  0  0  0  0  0  0  0  0  0  0  0
   21.7502   -9.0887  -15.0511 C   0  0  2  0  0  0  0  0  0  0  0  0
   21.0032   -9.7765  -16.0544 N   0  0  0  0  0  0  0  0  0  0  0  0
   21.7566   -7.6195  -15.3798 C   0  0  0  0  0  0  0  0  0  0  0  0
   21.6149   -7.2276  -16.5526 O   0  0  0  0  0  0  0  0  0  0  0  0
   21.9237   -6.6301  -14.3681 N   0  0  0  0  0  0  0  0  0  0  0  0
   21.9573   -5.2183  -14.6340 C   0  0  0  0  0  0  0  0  0  0  0  0
   22.1819   -4.4130  -13.4217 C   0  0  0  0  0  0  0  0  0  0  0  0
   22.3161   -3.0344  -13.4678 O   0  0  0  0  0  0  0  0  0  0  0  0
   22.2528   -5.0034  -12.3143 O   0  0  0  0  0  0  0  0  0  0  0  0
  2  1  1  0
  3  2  1  0
  4  5  1  0
  4  3  1  0
  5  6  1  1
  7  8  2  0
  7  5  1  0
 10  9  1  0
 11 10  1  6
 11 12  1  0
 12  7  1  0
 13 14  2  0
 13 11  1  0
 15 13  1  0
 16 17  1  0
 16 15  1  0
 17 18  1  0
 19 17  2  0
M  END
$$$$
