ILW.pdb
     RDKit          3D

 31 32  0  0  1  0  0  0  0  0999 V2000
   20.8303  -17.7143  -16.5083 C   0  0  0  0  0  0  0  0  0  0  0  0
   21.3854  -18.2222  -15.2166 C   0  0  0  0  0  0  0  0  0  0  0  0
   22.6487  -18.9814  -15.2737 C   0  0  2  0  0  0  0  0  0  0  0  0
   22.4632  -20.1835  -16.2087 C   0  0  0  0  0  0  0  0  0  0  0  0
   23.2436  -19.4581  -13.9986 C   0  0  2  0  0  0  0  0  0  0  0  0
   23.5390  -18.3240  -13.1078 N   0  0  0  0  0  0  0  0  0  0  0  0
   24.4453  -20.2929  -14.1050 C   0  0  0  0  0  0  0  0  0  0  0  0
   24.4014  -21.4011  -14.6816 O   0  0  0  0  0  0  0  0  0  0  0  0
   27.6015  -19.3522  -16.2740 C   0  0  0  0  0  0  0  0  0  0  0  0
   27.7743  -18.5813  -14.9480 C   0  0  2  0  0  0  0  0  0  0  0  0
   28.8442  -17.5775  -15.1959 C   0  0  0  0  0  0  0  0  0  0  0  0
   28.0335  -19.6010  -13.9087 C   0  0  0  0  0  0  0  0  0  0  0  0
   26.9187  -20.5704  -13.6277 C   0  0  2  0  0  0  0  0  0  0  0  0
   25.6721  -19.8382  -13.5544 N   0  0  0  0  0  0  0  0  0  0  0  0
   27.1501  -21.2071  -12.2766 C   0  0  0  0  0  0  0  0  0  0  0  0
   28.1734  -21.8952  -12.0531 O   0  0  0  0  0  0  0  0  0  0  0  0
   26.2153  -21.0424  -11.2274 N   0  0  0  0  0  0  0  0  0  0  0  0
   26.3847  -21.6582   -9.8943 C   0  0  1  0  0  0  0  0  0  0  0  0
   27.6375  -21.1789   -9.2605 C   0  0  0  0  0  0  0  0  0  0  0  0
   27.4423  -20.1655   -8.2183 C   0  0  0  0  0  0  0  0  0  0  0  0
   26.4610  -19.1804   -8.1814 C   0  0  0  0  0  0  0  0  0  0  0  0
   26.6178  -18.4176   -7.0897 N   0  0  0  0  0  0  0  0  0  0  0  0
   27.6724  -18.8569   -6.3891 C   0  0  0  0  0  0  0  0  0  0  0  0
   28.2774  -18.4755   -5.2026 C   0  0  0  0  0  0  0  0  0  0  0  0
   29.3724  -19.1352   -4.6866 C   0  0  0  0  0  0  0  0  0  0  0  0
   29.8970  -20.2204   -5.3691 C   0  0  0  0  0  0  0  0  0  0  0  0
   29.3039  -20.6064   -6.5486 C   0  0  0  0  0  0  0  0  0  0  0  0
   28.2032  -19.9531   -7.0805 C   0  0  0  0  0  0  0  0  0  0  0  0
   25.1436  -21.5614   -9.1273 C   0  0  0  0  0  0  0  0  0  0  0  0
   23.9604  -20.9845   -9.5452 O   0  0  0  0  0  0  0  0  0  0  0  0
   25.1221  -22.0472   -7.9436 O   0  0  0  0  0  0  0  0  0  0  0  0
  2  3  1  0
  2  1  1  0
  3  4  1  6
  5  3  1  0
  5  7  1  0
  5  6  1  1
  7  8  2  0
 10  9  1  6
 10 12  1  0
 11 10  1  0
 13 12  1  1
 13 15  1  0
 14 13  1  0
 14  7  1  0
 15 17  1  0
 16 15  2  0
 17 18  1  0
 18 19  1  1
 19 20  1  0
 20 21  2  0
 22 21  1  0
 23 22  1  0
 24 23  2  0
 25 24  1  0
 26 27  1  0
 26 25  2  0
 27 28  2  0
 28 23  1  0
 28 20  1  0
 29 30  1  0
 29 18  1  0
 31 29  2  0
M  END
$$$$
