ILW.pdb
     RDKit          3D

 31 32  0  0  1  0  0  0  0  0999 V2000
   27.1554  -19.2862  -18.8604 C   0  0  0  0  0  0  0  0  0  0  0  0
   27.5700  -19.8821  -17.5535 C   0  0  0  0  0  0  0  0  0  0  0  0
   26.4997  -20.3344  -16.6451 C   0  0  2  0  0  0  0  0  0  0  0  0
   25.5550  -19.1581  -16.3667 C   0  0  0  0  0  0  0  0  0  0  0  0
   26.8872  -20.9500  -15.3497 C   0  0  2  0  0  0  0  0  0  0  0  0
   27.8693  -22.0263  -15.5597 N   0  0  0  0  0  0  0  0  0  0  0  0
   25.7973  -21.4692  -14.5161 C   0  0  0  0  0  0  0  0  0  0  0  0
   25.2324  -22.5461  -14.8054 O   0  0  0  0  0  0  0  0  0  0  0  0
   26.3090  -22.0129  -10.2570 C   0  0  0  0  0  0  0  0  0  0  0  0
   25.9745  -20.5499  -10.6180 C   0  0  2  0  0  0  0  0  0  0  0  0
   26.2573  -19.7527   -9.3940 C   0  0  0  0  0  0  0  0  0  0  0  0
   24.5810  -20.5553  -11.1128 C   0  0  0  0  0  0  0  0  0  0  0  0
   24.3486  -21.1916  -12.4554 C   0  0  2  0  0  0  0  0  0  0  0  0
   25.3819  -20.7473  -13.3666 N   0  0  0  0  0  0  0  0  0  0  0  0
   23.0242  -20.7119  -13.0039 C   0  0  0  0  0  0  0  0  0  0  0  0
   21.9578  -20.8978  -12.3725 O   0  0  0  0  0  0  0  0  0  0  0  0
   22.9546  -20.0397  -14.2469 N   0  0  0  0  0  0  0  0  0  0  0  0
   21.6771  -19.6579  -14.8851 C   0  0  1  0  0  0  0  0  0  0  0  0
   21.8952  -18.5602  -15.8589 C   0  0  0  0  0  0  0  0  0  0  0  0
   20.6881  -18.1340  -16.5748 C   0  0  0  0  0  0  0  0  0  0  0  0
   19.6672  -17.3248  -16.0873 C   0  0  0  0  0  0  0  0  0  0  0  0
   18.7133  -17.1789  -17.0185 N   0  0  0  0  0  0  0  0  0  0  0  0
   19.0584  -17.8629  -18.1181 C   0  0  0  0  0  0  0  0  0  0  0  0
   18.4818  -18.0558  -19.3629 C   0  0  0  0  0  0  0  0  0  0  0  0
   19.0809  -18.8158  -20.3447 C   0  0  0  0  0  0  0  0  0  0  0  0
   20.3040  -19.4142  -20.0905 C   0  0  0  0  0  0  0  0  0  0  0  0
   20.8844  -19.2294  -18.8572 C   0  0  0  0  0  0  0  0  0  0  0  0
   20.2943  -18.4688  -17.8599 C   0  0  0  0  0  0  0  0  0  0  0  0
   20.9585  -20.8482  -15.3379 C   0  0  0  0  0  0  0  0  0  0  0  0
   21.5142  -21.9832  -15.8948 O   0  0  0  0  0  0  0  0  0  0  0  0
   19.6840  -20.8677  -15.2240 O   0  0  0  0  0  0  0  0  0  0  0  0
  2  3  1  0
  2  1  1  0
  3  4  1  1
  5  3  1  0
  5  7  1  0
  5  6  1  6
  7  8  2  0
 10  9  1  1
 10 12  1  0
 11 10  1  0
 13 12  1  1
 13 15  1  0
 14 13  1  0
 14  7  1  0
 15 17  1  0
 16 15  2  0
 17 18  1  0
 18 19  1  6
 19 20  1  0
 20 21  2  0
 22 21  1  0
 23 22  1  0
 24 23  2  0
 25 24  1  0
 26 27  1  0
 26 25  2  0
 27 28  2  0
 28 23  1  0
 28 20  1  0
 29 30  1  0
 29 18  1  0
 31 29  2  0
M  END
$$$$
