ILW.pdb
     RDKit          3D

 31 32  0  0  1  0  0  0  0  0999 V2000
   17.9744  -12.7595    1.5816 C   0  0  0  0  0  0  0  0  0  0  0  0
   17.9540  -12.2600    2.9905 C   0  0  0  0  0  0  0  0  0  0  0  0
   18.0583  -13.2631    4.0667 C   0  0  2  0  0  0  0  0  0  0  0  0
   16.9296  -14.2887    3.9001 C   0  0  0  0  0  0  0  0  0  0  0  0
   18.0660  -12.7890    5.4747 C   0  0  2  0  0  0  0  0  0  0  0  0
   19.1686  -11.8392    5.6963 N   0  0  0  0  0  0  0  0  0  0  0  0
   18.1231  -13.8210    6.5158 C   0  0  0  0  0  0  0  0  0  0  0  0
   19.1893  -14.4297    6.7509 O   0  0  0  0  0  0  0  0  0  0  0  0
   14.4843  -15.4785   11.1553 C   0  0  0  0  0  0  0  0  0  0  0  0
   15.5547  -16.0374   10.1939 C   0  0  2  0  0  0  0  0  0  0  0  0
   16.6870  -16.4755   11.0539 C   0  0  0  0  0  0  0  0  0  0  0  0
   15.8281  -14.9653    9.2126 C   0  0  0  0  0  0  0  0  0  0  0  0
   16.8354  -15.2783    8.1407 C   0  0  2  0  0  0  0  0  0  0  0  0
   16.9600  -14.1295    7.2689 N   0  0  0  0  0  0  0  0  0  0  0  0
   16.3218  -16.4280    7.3045 C   0  0  0  0  0  0  0  0  0  0  0  0
   15.3176  -16.2928    6.5672 O   0  0  0  0  0  0  0  0  0  0  0  0
   16.9629  -17.6889    7.3332 N   0  0  0  0  0  0  0  0  0  0  0  0
   16.4707  -18.8596    6.5767 C   0  0  1  0  0  0  0  0  0  0  0  0
   17.3275  -19.1041    5.3905 C   0  0  0  0  0  0  0  0  0  0  0  0
   16.8492  -20.1708    4.5047 C   0  0  0  0  0  0  0  0  0  0  0  0
   15.9366  -20.0476    3.4622 C   0  0  0  0  0  0  0  0  0  0  0  0
   15.7197  -21.2449    2.8987 N   0  0  0  0  0  0  0  0  0  0  0  0
   16.4569  -22.1712    3.5269 C   0  0  0  0  0  0  0  0  0  0  0  0
   16.6424  -23.5351    3.3703 C   0  0  0  0  0  0  0  0  0  0  0  0
   17.5015  -24.2601    4.1683 C   0  0  0  0  0  0  0  0  0  0  0  0
   18.2110  -23.6137    5.1671 C   0  0  0  0  0  0  0  0  0  0  0  0
   18.0331  -22.2597    5.3312 C   0  0  0  0  0  0  0  0  0  0  0  0
   17.1728  -21.5173    4.5375 C   0  0  0  0  0  0  0  0  0  0  0  0
   16.2113  -19.9783    7.4817 C   0  0  0  0  0  0  0  0  0  0  0  0
   16.9897  -20.3672    8.5542 O   0  0  0  0  0  0  0  0  0  0  0  0
   15.1671  -20.6908    7.2824 O   0  0  0  0  0  0  0  0  0  0  0  0
  2  3  1  0
  2  1  1  0
  3  4  1  1
  5  3  1  0
  5  7  1  0
  5  6  1  6
  7  8  2  0
 10  9  1  1
 10 12  1  0
 11 10  1  0
 13 12  1  1
 13 15  1  0
 14 13  1  0
 14  7  1  0
 15 17  1  0
 16 15  2  0
 17 18  1  0
 18 19  1  6
 19 20  1  0
 20 21  2  0
 22 21  1  0
 23 22  1  0
 24 23  2  0
 25 24  1  0
 26 27  1  0
 26 25  2  0
 27 28  2  0
 28 23  1  0
 28 20  1  0
 29 30  1  0
 29 18  1  0
 31 29  2  0
M  END
$$$$
