ILW.pdb
     RDKit          3D

 31 32  0  0  1  0  0  0  0  0999 V2000
   17.7332  -19.8055  -13.4201 C   0  0  0  0  0  0  0  0  0  0  0  0
   19.1038  -19.7449  -14.0139 C   0  0  0  0  0  0  0  0  0  0  0  0
   20.1618  -20.5367  -13.3588 C   0  0  2  0  0  0  0  0  0  0  0  0
   20.2714  -20.1008  -11.8919 C   0  0  0  0  0  0  0  0  0  0  0  0
   21.5207  -20.5318  -13.9591 C   0  0  2  0  0  0  0  0  0  0  0  0
   21.4721  -20.9902  -15.3571 N   0  0  0  0  0  0  0  0  0  0  0  0
   22.5544  -21.2968  -13.2530 C   0  0  0  0  0  0  0  0  0  0  0  0
   22.2681  -21.9663  -12.2370 O   0  0  0  0  0  0  0  0  0  0  0  0
   25.1678  -24.5492  -14.4595 C   0  0  0  0  0  0  0  0  0  0  0  0
   25.5927  -23.2498  -15.1761 C   0  0  2  0  0  0  0  0  0  0  0  0
   26.6133  -23.6529  -16.1809 C   0  0  0  0  0  0  0  0  0  0  0  0
   26.0236  -22.3150  -14.1143 C   0  0  0  0  0  0  0  0  0  0  0  0
   24.9946  -21.9577  -13.0775 C   0  0  2  0  0  0  0  0  0  0  0  0
   23.8917  -21.2833  -13.7288 N   0  0  0  0  0  0  0  0  0  0  0  0
   25.6044  -20.9839  -12.0953 C   0  0  0  0  0  0  0  0  0  0  0  0
   25.7998  -19.7865  -12.4092 O   0  0  0  0  0  0  0  0  0  0  0  0
   25.9711  -21.4003  -10.7938 N   0  0  0  0  0  0  0  0  0  0  0  0
   26.7208  -20.5396   -9.8546 C   0  0  1  0  0  0  0  0  0  0  0  0
   26.3353  -20.8457   -8.4551 C   0  0  0  0  0  0  0  0  0  0  0  0
   26.8991  -19.9322   -7.4557 C   0  0  0  0  0  0  0  0  0  0  0  0
   26.9173  -18.5423   -7.5073 C   0  0  0  0  0  0  0  0  0  0  0  0
   27.5465  -18.0515   -6.4296 N   0  0  0  0  0  0  0  0  0  0  0  0
   27.9525  -19.0653   -5.6528 C   0  0  0  0  0  0  0  0  0  0  0  0
   28.6198  -19.1543   -4.4420 C   0  0  0  0  0  0  0  0  0  0  0  0
   28.9008  -20.3626   -3.8407 C   0  0  0  0  0  0  0  0  0  0  0  0
   28.5074  -21.5381   -4.4588 C   0  0  0  0  0  0  0  0  0  0  0  0
   27.8448  -21.4603   -5.6617 C   0  0  0  0  0  0  0  0  0  0  0  0
   27.5556  -20.2535   -6.2790 C   0  0  0  0  0  0  0  0  0  0  0  0
   28.1435  -20.5357  -10.1924 C   0  0  0  0  0  0  0  0  0  0  0  0
   28.9754  -19.4343  -10.2392 O   0  0  0  0  0  0  0  0  0  0  0  0
   28.7013  -21.6500  -10.4835 O   0  0  0  0  0  0  0  0  0  0  0  0
  2  3  1  0
  2  1  1  0
  3  4  1  1
  5  3  1  0
  5  7  1  0
  5  6  1  6
  7  8  2  0
 10  9  1  1
 10 12  1  0
 11 10  1  0
 13 12  1  6
 13 15  1  0
 14 13  1  0
 14  7  1  0
 15 17  1  0
 16 15  2  0
 17 18  1  0
 18 19  1  1
 19 20  1  0
 20 21  2  0
 22 21  1  0
 23 22  1  0
 24 23  2  0
 25 24  1  0
 26 27  1  0
 26 25  2  0
 27 28  2  0
 28 23  1  0
 28 20  1  0
 29 30  1  0
 29 18  1  0
 31 29  2  0
M  END
$$$$
