ILW.pdb
     RDKit          3D

 31 32  0  0  1  0  0  0  0  0999 V2000
   25.6425  -14.4235  -14.3221 C   0  0  0  0  0  0  0  0  0  0  0  0
   26.2745  -15.4537  -15.2019 C   0  0  0  0  0  0  0  0  0  0  0  0
   26.0945  -16.8685  -14.8259 C   0  0  2  0  0  0  0  0  0  0  0  0
   26.6075  -17.0705  -13.3942 C   0  0  0  0  0  0  0  0  0  0  0  0
   26.6938  -17.9119  -15.6973 C   0  0  2  0  0  0  0  0  0  0  0  0
   26.3964  -17.6392  -17.1130 N   0  0  0  0  0  0  0  0  0  0  0  0
   26.3301  -19.3025  -15.4038 C   0  0  0  0  0  0  0  0  0  0  0  0
   25.1970  -19.7399  -15.6991 O   0  0  0  0  0  0  0  0  0  0  0  0
   28.2274  -22.6731  -17.0881 C   0  0  0  0  0  0  0  0  0  0  0  0
   29.1098  -22.0758  -15.9714 C   0  0  2  0  0  0  0  0  0  0  0  0
   30.4388  -22.7309  -16.1071 C   0  0  0  0  0  0  0  0  0  0  0  0
   28.3767  -22.2928  -14.7056 C   0  0  0  0  0  0  0  0  0  0  0  0
   27.0615  -21.5780  -14.5614 C   0  0  2  0  0  0  0  0  0  0  0  0
   27.2733  -20.1634  -14.7839 N   0  0  0  0  0  0  0  0  0  0  0  0
   26.5648  -21.7441  -13.1435 C   0  0  0  0  0  0  0  0  0  0  0  0
   26.0225  -22.8101  -12.7694 O   0  0  0  0  0  0  0  0  0  0  0  0
   26.6995  -20.6979  -12.2006 N   0  0  0  0  0  0  0  0  0  0  0  0
   26.2171  -20.8030  -10.8072 C   0  0  1  0  0  0  0  0  0  0  0  0
   27.1428  -20.0983   -9.8867 C   0  0  0  0  0  0  0  0  0  0  0  0
   26.7462  -20.1415   -8.4753 C   0  0  0  0  0  0  0  0  0  0  0  0
   25.5050  -20.5072   -7.9649 C   0  0  0  0  0  0  0  0  0  0  0  0
   25.5068  -20.3930   -6.6288 N   0  0  0  0  0  0  0  0  0  0  0  0
   26.7091  -19.9629   -6.2218 C   0  0  0  0  0  0  0  0  0  0  0  0
   27.2757  -19.6876   -4.9880 C   0  0  0  0  0  0  0  0  0  0  0  0
   28.5805  -19.2639   -4.8524 C   0  0  0  0  0  0  0  0  0  0  0  0
   29.3647  -19.1034   -5.9828 C   0  0  0  0  0  0  0  0  0  0  0  0
   28.8112  -19.3735   -7.2127 C   0  0  0  0  0  0  0  0  0  0  0  0
   27.5010  -19.7995   -7.3653 C   0  0  0  0  0  0  0  0  0  0  0  0
   24.7934  -20.4776  -10.7354 C   0  0  0  0  0  0  0  0  0  0  0  0
   24.1544  -19.4333  -11.3746 O   0  0  0  0  0  0  0  0  0  0  0  0
   24.0382  -21.2140  -10.0109 O   0  0  0  0  0  0  0  0  0  0  0  0
  2  3  1  0
  2  1  1  0
  3  4  1  1
  5  3  1  0
  5  7  1  0
  5  6  1  6
  7  8  2  0
 10  9  1  6
 10 12  1  0
 11 10  1  0
 13 12  1  1
 13 15  1  0
 14 13  1  0
 14  7  1  0
 15 17  1  0
 16 15  2  0
 17 18  1  0
 18 19  1  1
 19 20  1  0
 20 21  2  0
 22 21  1  0
 23 22  1  0
 24 23  2  0
 25 24  1  0
 26 27  1  0
 26 25  2  0
 27 28  2  0
 28 23  1  0
 28 20  1  0
 29 30  1  0
 29 18  1  0
 31 29  2  0
M  END
$$$$
