ILW.pdb
     RDKit          3D

 31 32  0  0  1  0  0  0  0  0999 V2000
   28.1968  -15.6662  -16.2605 C   0  0  0  0  0  0  0  0  0  0  0  0
   27.2980  -16.8381  -16.0291 C   0  0  0  0  0  0  0  0  0  0  0  0
   27.9364  -18.1299  -15.7142 C   0  0  2  0  0  0  0  0  0  0  0  0
   28.9091  -18.4913  -16.8442 C   0  0  0  0  0  0  0  0  0  0  0  0
   27.0631  -19.3014  -15.4457 C   0  0  2  0  0  0  0  0  0  0  0  0
   26.2811  -19.6510  -16.6428 N   0  0  0  0  0  0  0  0  0  0  0  0
   26.1464  -19.1908  -14.3056 C   0  0  0  0  0  0  0  0  0  0  0  0
   25.5936  -18.1024  -14.0367 O   0  0  0  0  0  0  0  0  0  0  0  0
   22.2090  -19.7122  -13.2620 C   0  0  0  0  0  0  0  0  0  0  0  0
   22.9031  -21.0124  -13.7204 C   0  0  2  0  0  0  0  0  0  0  0  0
   21.8107  -21.9888  -13.9792 C   0  0  0  0  0  0  0  0  0  0  0  0
   23.8777  -21.3549  -12.6621 C   0  0  0  0  0  0  0  0  0  0  0  0
   24.9538  -20.3410  -12.3879 C   0  0  2  0  0  0  0  0  0  0  0  0
   25.8781  -20.3298  -13.5020 N   0  0  0  0  0  0  0  0  0  0  0  0
   25.7282  -20.7658  -11.1613 C   0  0  0  0  0  0  0  0  0  0  0  0
   26.2848  -21.8871  -11.1047 O   0  0  0  0  0  0  0  0  0  0  0  0
   25.8443  -19.9066  -10.0432 N   0  0  0  0  0  0  0  0  0  0  0  0
   26.4578  -20.3266   -8.7656 C   0  0  1  0  0  0  0  0  0  0  0  0
   27.2323  -19.2083   -8.1736 C   0  0  0  0  0  0  0  0  0  0  0  0
   27.6494  -19.4263   -6.7844 C   0  0  0  0  0  0  0  0  0  0  0  0
   26.9821  -19.0152   -5.6353 C   0  0  0  0  0  0  0  0  0  0  0  0
   27.6832  -19.3663   -4.5474 N   0  0  0  0  0  0  0  0  0  0  0  0
   28.8011  -20.0014   -4.9258 C   0  0  0  0  0  0  0  0  0  0  0  0
   29.8621  -20.5845   -4.2526 C   0  0  0  0  0  0  0  0  0  0  0  0
   30.9027  -21.2050   -4.9103 C   0  0  0  0  0  0  0  0  0  0  0  0
   30.8999  -21.2542   -6.2946 C   0  0  0  0  0  0  0  0  0  0  0  0
   29.8511  -20.6773   -6.9723 C   0  0  0  0  0  0  0  0  0  0  0  0
   28.7983  -20.0494   -6.3255 C   0  0  0  0  0  0  0  0  0  0  0  0
   25.4708  -21.0024   -7.9247 C   0  0  0  0  0  0  0  0  0  0  0  0
   25.7299  -21.9289   -6.9338 O   0  0  0  0  0  0  0  0  0  0  0  0
   24.2330  -20.7324   -8.1050 O   0  0  0  0  0  0  0  0  0  0  0  0
  2  3  1  0
  2  1  1  0
  3  4  1  6
  5  3  1  0
  5  7  1  0
  5  6  1  6
  7  8  2  0
 10  9  1  1
 10 12  1  0
 11 10  1  0
 13 12  1  6
 13 15  1  0
 14 13  1  0
 14  7  1  0
 15 17  1  0
 16 15  2  0
 17 18  1  0
 18 19  1  1
 19 20  1  0
 20 21  2  0
 22 21  1  0
 23 22  1  0
 24 23  2  0
 25 24  1  0
 26 27  1  0
 26 25  2  0
 27 28  2  0
 28 23  1  0
 28 20  1  0
 29 30  1  0
 29 18  1  0
 31 29  2  0
M  END
$$$$
