ILW.pdb
     RDKit          3D

 31 32  0  0  1  0  0  0  0  0999 V2000
   25.8538  -15.7498  -17.4522 C   0  0  0  0  0  0  0  0  0  0  0  0
   25.4614  -16.2870  -16.1135 C   0  0  0  0  0  0  0  0  0  0  0  0
   26.0593  -17.5690  -15.6959 C   0  0  2  0  0  0  0  0  0  0  0  0
   25.7915  -18.6187  -16.7823 C   0  0  0  0  0  0  0  0  0  0  0  0
   25.6659  -18.1356  -14.3801 C   0  0  2  0  0  0  0  0  0  0  0  0
   25.8567  -17.1431  -13.3098 N   0  0  0  0  0  0  0  0  0  0  0  0
   26.3217  -19.3853  -13.9795 C   0  0  0  0  0  0  0  0  0  0  0  0
   25.9717  -20.4763  -14.4794 O   0  0  0  0  0  0  0  0  0  0  0  0
   31.3425  -20.4628  -10.5675 C   0  0  0  0  0  0  0  0  0  0  0  0
   30.1421  -21.1679  -11.2339 C   0  0  2  0  0  0  0  0  0  0  0  0
   30.7234  -22.1993  -12.1351 C   0  0  0  0  0  0  0  0  0  0  0  0
   29.3337  -20.1009  -11.8625 C   0  0  0  0  0  0  0  0  0  0  0  0
   28.0625  -20.5334  -12.5394 C   0  0  2  0  0  0  0  0  0  0  0  0
   27.3675  -19.3581  -13.0200 N   0  0  0  0  0  0  0  0  0  0  0  0
   27.1680  -21.2044  -11.5224 C   0  0  0  0  0  0  0  0  0  0  0  0
   27.3642  -22.3916  -11.1725 O   0  0  0  0  0  0  0  0  0  0  0  0
   26.0838  -20.5078  -10.9385 N   0  0  0  0  0  0  0  0  0  0  0  0
   25.2679  -21.0645   -9.8387 C   0  0  1  0  0  0  0  0  0  0  0  0
   26.1376  -21.4796   -8.7108 C   0  0  0  0  0  0  0  0  0  0  0  0
   26.5801  -20.3794   -7.8476 C   0  0  0  0  0  0  0  0  0  0  0  0
   26.4259  -19.0170   -8.0820 C   0  0  0  0  0  0  0  0  0  0  0  0
   26.9855  -18.3141   -7.0864 N   0  0  0  0  0  0  0  0  0  0  0  0
   27.5114  -19.1584   -6.1882 C   0  0  0  0  0  0  0  0  0  0  0  0
   28.1803  -19.0035   -4.9850 C   0  0  0  0  0  0  0  0  0  0  0  0
   28.6069  -20.0777   -4.2335 C   0  0  0  0  0  0  0  0  0  0  0  0
   28.3645  -21.3641   -4.6864 C   0  0  0  0  0  0  0  0  0  0  0  0
   27.7017  -21.5284   -5.8805 C   0  0  0  0  0  0  0  0  0  0  0  0
   27.2672  -20.4588   -6.6475 C   0  0  0  0  0  0  0  0  0  0  0  0
   24.1361  -20.1853   -9.5488 C   0  0  0  0  0  0  0  0  0  0  0  0
   23.1479  -20.3985   -8.6079 O   0  0  0  0  0  0  0  0  0  0  0  0
   24.0199  -19.1034  -10.2223 O   0  0  0  0  0  0  0  0  0  0  0  0
  2  3  1  0
  2  1  1  0
  3  4  1  6
  5  3  1  0
  5  7  1  0
  5  6  1  1
  7  8  2  0
 10  9  1  6
 10 12  1  0
 11 10  1  0
 13 12  1  1
 13 15  1  0
 14 13  1  0
 14  7  1  0
 15 17  1  0
 16 15  2  0
 17 18  1  0
 18 19  1  1
 19 20  1  0
 20 21  2  0
 22 21  1  0
 23 22  1  0
 24 23  2  0
 25 24  1  0
 26 27  1  0
 26 25  2  0
 27 28  2  0
 28 23  1  0
 28 20  1  0
 29 30  1  0
 29 18  1  0
 31 29  2  0
M  END
$$$$
