ILW.pdb
     RDKit          3D

 31 32  0  0  1  0  0  0  0  0999 V2000
   19.3781  -19.0911  -14.5032 C   0  0  0  0  0  0  0  0  0  0  0  0
   20.6256  -18.5948  -15.1607 C   0  0  0  0  0  0  0  0  0  0  0  0
   21.8460  -19.4071  -14.9989 C   0  0  2  0  0  0  0  0  0  0  0  0
   22.1149  -19.6058  -13.5016 C   0  0  0  0  0  0  0  0  0  0  0  0
   23.0970  -18.9379  -15.6485 C   0  0  2  0  0  0  0  0  0  0  0  0
   22.8742  -18.6846  -17.0814 N   0  0  0  0  0  0  0  0  0  0  0  0
   24.2758  -19.7994  -15.5049 C   0  0  0  0  0  0  0  0  0  0  0  0
   24.3426  -20.8923  -16.1079 O   0  0  0  0  0  0  0  0  0  0  0  0
   27.7683  -19.4610  -17.0921 C   0  0  0  0  0  0  0  0  0  0  0  0
   27.7452  -18.4691  -15.9097 C   0  0  2  0  0  0  0  0  0  0  0  0
   28.8999  -17.5550  -16.1214 C   0  0  0  0  0  0  0  0  0  0  0  0
   27.7521  -19.2917  -14.6808 C   0  0  0  0  0  0  0  0  0  0  0  0
   26.5523  -20.1697  -14.4549 C   0  0  2  0  0  0  0  0  0  0  0  0
   25.3545  -19.3883  -14.6788 N   0  0  0  0  0  0  0  0  0  0  0  0
   26.5369  -20.6187  -13.0117 C   0  0  0  0  0  0  0  0  0  0  0  0
   27.3347  -21.4921  -12.5980 O   0  0  0  0  0  0  0  0  0  0  0  0
   25.6191  -20.0635  -12.0891 N   0  0  0  0  0  0  0  0  0  0  0  0
   25.4224  -20.6017  -10.7264 C   0  0  1  0  0  0  0  0  0  0  0  0
   26.0831  -19.7274   -9.7265 C   0  0  0  0  0  0  0  0  0  0  0  0
   27.3065  -20.2878   -9.1431 C   0  0  0  0  0  0  0  0  0  0  0  0
   28.1054  -21.2929   -9.6783 C   0  0  0  0  0  0  0  0  0  0  0  0
   29.1212  -21.5635   -8.8458 N   0  0  0  0  0  0  0  0  0  0  0  0
   29.0335  -20.7731   -7.7671 C   0  0  0  0  0  0  0  0  0  0  0  0
   29.7939  -20.6055   -6.6213 C   0  0  0  0  0  0  0  0  0  0  0  0
   29.4756  -19.6776   -5.6527 C   0  0  0  0  0  0  0  0  0  0  0  0
   28.3573  -18.8773   -5.8185 C   0  0  0  0  0  0  0  0  0  0  0  0
   27.5952  -19.0366   -6.9524 C   0  0  0  0  0  0  0  0  0  0  0  0
   27.9018  -19.9652   -7.9347 C   0  0  0  0  0  0  0  0  0  0  0  0
   24.0185  -20.9519  -10.5151 C   0  0  0  0  0  0  0  0  0  0  0  0
   23.0482  -21.0869  -11.4886 O   0  0  0  0  0  0  0  0  0  0  0  0
   23.6173  -21.1551   -9.3171 O   0  0  0  0  0  0  0  0  0  0  0  0
  2  3  1  0
  2  1  1  0
  3  4  1  1
  5  3  1  0
  5  7  1  0
  5  6  1  6
  7  8  2  0
 10  9  1  6
 10 12  1  0
 11 10  1  0
 13 12  1  1
 13 15  1  0
 14 13  1  0
 14  7  1  0
 15 17  1  0
 16 15  2  0
 17 18  1  0
 18 19  1  1
 19 20  1  0
 20 21  2  0
 22 21  1  0
 23 22  1  0
 24 23  2  0
 25 24  1  0
 26 27  1  0
 26 25  2  0
 27 28  2  0
 28 23  1  0
 28 20  1  0
 29 30  1  0
 29 18  1  0
 31 29  2  0
M  END
$$$$
