ILW.pdb
     RDKit          3D

 31 32  0  0  1  0  0  0  0  0999 V2000
   28.1885  -17.8209  -16.9925 C   0  0  0  0  0  0  0  0  0  0  0  0
   28.5540  -18.7875  -15.9123 C   0  0  0  0  0  0  0  0  0  0  0  0
   27.4508  -19.3950  -15.1447 C   0  0  2  0  0  0  0  0  0  0  0  0
   26.6221  -18.2777  -14.4980 C   0  0  0  0  0  0  0  0  0  0  0  0
   27.7856  -20.4016  -14.1047 C   0  0  2  0  0  0  0  0  0  0  0  0
   28.5407  -21.5214  -14.6902 N   0  0  0  0  0  0  0  0  0  0  0  0
   26.6637  -20.9484  -13.3333 C   0  0  0  0  0  0  0  0  0  0  0  0
   25.9709  -21.8821  -13.7922 O   0  0  0  0  0  0  0  0  0  0  0  0
   27.0967  -21.8788   -9.0825 C   0  0  0  0  0  0  0  0  0  0  0  0
   26.7909  -20.3746   -9.2443 C   0  0  2  0  0  0  0  0  0  0  0  0
   26.9772  -19.7729   -7.8964 C   0  0  0  0  0  0  0  0  0  0  0  0
   25.4400  -20.2900   -9.8401 C   0  0  0  0  0  0  0  0  0  0  0  0
   25.2753  -20.8779  -11.2144 C   0  0  2  0  0  0  0  0  0  0  0  0
   26.3634  -20.4182  -12.0512 N   0  0  0  0  0  0  0  0  0  0  0  0
   23.9898  -20.3614  -11.8189 C   0  0  0  0  0  0  0  0  0  0  0  0
   23.6064  -19.1859  -11.6152 O   0  0  0  0  0  0  0  0  0  0  0  0
   23.1847  -21.1939  -12.6316 N   0  0  0  0  0  0  0  0  0  0  0  0
   21.9527  -20.7206  -13.2974 C   0  0  1  0  0  0  0  0  0  0  0  0
   22.1382  -20.6976  -14.7691 C   0  0  0  0  0  0  0  0  0  0  0  0
   20.9655  -20.2415  -15.5226 C   0  0  0  0  0  0  0  0  0  0  0  0
   20.4778  -18.9415  -15.6067 C   0  0  0  0  0  0  0  0  0  0  0  0
   19.3694  -18.9154  -16.3610 N   0  0  0  0  0  0  0  0  0  0  0  0
   19.0944  -20.1554  -16.7887 C   0  0  0  0  0  0  0  0  0  0  0  0
   18.1094  -20.7107  -17.5891 C   0  0  0  0  0  0  0  0  0  0  0  0
   18.0748  -22.0551  -17.8921 C   0  0  0  0  0  0  0  0  0  0  0  0
   19.0543  -22.8925  -17.3842 C   0  0  0  0  0  0  0  0  0  0  0  0
   20.0363  -22.3509  -16.5878 C   0  0  0  0  0  0  0  0  0  0  0  0
   20.0843  -21.0017  -16.2737 C   0  0  0  0  0  0  0  0  0  0  0  0
   20.7842  -21.4170  -12.7609 C   0  0  0  0  0  0  0  0  0  0  0  0
   19.5151  -20.8954  -12.6042 O   0  0  0  0  0  0  0  0  0  0  0  0
   20.9215  -22.6326  -12.3855 O   0  0  0  0  0  0  0  0  0  0  0  0
  2  3  1  0
  2  1  1  0
  3  4  1  1
  5  3  1  0
  5  7  1  0
  5  6  1  6
  7  8  2  0
 10  9  1  1
 10 12  1  0
 11 10  1  0
 13 12  1  1
 13 15  1  0
 14 13  1  0
 14  7  1  0
 15 17  1  0
 16 15  2  0
 17 18  1  0
 18 19  1  6
 19 20  1  0
 20 21  2  0
 22 21  1  0
 23 22  1  0
 24 23  2  0
 25 24  1  0
 26 27  1  0
 26 25  2  0
 27 28  2  0
 28 23  1  0
 28 20  1  0
 29 30  1  0
 29 18  1  0
 31 29  2  0
M  END
$$$$
