RIP.pdb
     RDKit          3D

 27 27  0  0  1  0  0  0  0  0999 V2000
   14.7129  -13.6210  -17.3799 N   0  0  0  0  0  0  0  0  0  0  0  0
   15.6144  -13.9293  -18.4512 C   0  0  0  0  0  0  0  0  0  0  0  0
   15.7052  -15.1260  -18.8868 N   0  0  0  0  0  0  0  0  0  0  0  0
   16.4178  -12.9148  -19.0434 N   0  0  0  0  0  0  0  0  0  0  0  0
   17.1874  -12.0013  -18.2386 C   0  0  0  0  0  0  0  0  0  0  0  0
   16.2714  -11.0751  -17.4781 C   0  0  0  0  0  0  0  0  0  0  0  0
   17.0532  -10.0459  -16.7033 C   0  0  0  0  0  0  0  0  0  0  0  0
   18.0428  -10.7160  -15.7550 C   0  0  2  0  0  0  0  0  0  0  0  0
   17.3798  -11.3847  -14.6781 N   0  0  0  0  0  0  0  0  0  0  0  0
   19.0177   -9.7327  -15.2287 C   0  0  0  0  0  0  0  0  0  0  0  0
   18.6230   -8.8746  -14.3984 O   0  0  0  0  0  0  0  0  0  0  0  0
   16.3484  -15.3641  -19.6538 C   0  0  0  0  0  0  0  0  0  0  0  0
   23.0795  -11.6513  -14.6034 C   0  0  0  0  0  0  0  0  0  0  0  0
   22.8014  -10.2993  -13.9198 C   0  0  2  0  0  0  0  0  0  0  0  0
   22.7008   -9.2462  -14.9832 C   0  0  0  0  0  0  0  0  0  0  0  0
   23.6555   -8.1411  -14.6743 C   0  0  2  0  0  0  0  0  0  0  0  0
   21.3007   -8.6749  -15.1614 N   0  0  0  0  0  0  0  0  0  0  0  0
   20.3957   -9.6950  -15.6083 C   0  0  0  0  0  0  0  0  0  0  0  0
   21.2621   -7.4194  -15.9159 O   0  0  0  0  0  0  0  0  0  0  0  0
   21.8096   -7.4603  -17.0781 N   0  0  0  0  0  0  0  0  0  0  0  0
   20.7053   -6.1863  -15.5224 C   0  0  0  0  0  0  0  0  0  0  0  0
   19.8777   -5.9976  -14.3639 C   0  0  0  0  0  0  0  0  0  0  0  0
   19.4356   -4.5227  -14.3724 C   0  0  0  0  0  0  0  0  0  0  0  0
   20.4858   -3.8750  -15.2251 C   0  0  2  0  0  0  0  0  0  0  0  0
   20.8088   -4.9495  -16.2350 C   0  0  0  0  0  0  0  0  0  0  0  0
   22.1678   -4.6989  -16.8070 O   0  0  0  0  0  0  0  0  0  0  0  0
   22.2831   -3.8459  -17.7089 O   0  0  0  0  0  0  0  0  0  0  0  0
  2  1  1  0
  3  2  2  0
  4  2  1  0
  5  4  1  0
  6  5  1  0
  6  7  1  0
  8 10  1  0
  8  9  1  1
  8  7  1  0
 10 11  2  0
 13 12  1  0
 14 13  1  0
 14 15  1  6
 16 17  1  1
 16 14  1  0
 17 10  1  0
 18 16  1  0
 19 18  2  0
 20 18  1  0
 20 24  1  0
 21 22  1  0
 21 20  1  0
 22 23  1  0
 23 24  1  0
 25 27  1  0
 24 25  1  1
 26 25  2  0
M  END
$$$$
