RIP.pdb
     RDKit          3D

 27 27  0  0  1  0  0  0  0  0999 V2000
   20.8707  -25.2988  -15.9184 N   0  0  0  0  0  0  0  0  0  0  0  0
   22.2399  -25.3293  -15.4944 C   0  0  0  0  0  0  0  0  0  0  0  0
   22.8013  -26.4435  -15.2234 N   0  0  0  0  0  0  0  0  0  0  0  0
   22.9917  -24.1274  -15.3687 N   0  0  0  0  0  0  0  0  0  0  0  0
   22.6235  -22.9332  -16.0847 C   0  0  0  0  0  0  0  0  0  0  0  0
   21.2839  -22.4296  -15.6080 C   0  0  0  0  0  0  0  0  0  0  0  0
   21.3942  -21.0420  -15.0308 C   0  0  0  0  0  0  0  0  0  0  0  0
   21.9845  -21.0837  -13.6246 C   0  0  2  0  0  0  0  0  0  0  0  0
   21.0523  -20.6250  -12.6413 N   0  0  0  0  0  0  0  0  0  0  0  0
   23.2369  -20.2956  -13.5546 C   0  0  0  0  0  0  0  0  0  0  0  0
   23.1623  -19.0402  -13.5543 O   0  0  0  0  0  0  0  0  0  0  0  0
   23.7746  -26.4805  -14.8917 C   0  0  0  0  0  0  0  0  0  0  0  0
   25.4584  -21.8031  -10.8083 C   0  0  0  0  0  0  0  0  0  0  0  0
   26.4482  -20.6647  -11.1198 C   0  0  2  0  0  0  0  0  0  0  0  0
   26.7907  -20.7251  -12.5789 C   0  0  0  0  0  0  0  0  0  0  0  0
   28.1106  -20.0650  -12.8030 C   0  0  2  0  0  0  0  0  0  0  0  0
   25.7450  -20.0951  -13.4890 N   0  0  0  0  0  0  0  0  0  0  0  0
   24.5415  -20.8767  -13.4867 C   0  0  0  0  0  0  0  0  0  0  0  0
   26.2547  -19.7213  -14.8110 O   0  0  0  0  0  0  0  0  0  0  0  0
   26.6259  -20.7025  -15.5539 N   0  0  0  0  0  0  0  0  0  0  0  0
   26.3875  -18.4293  -15.3573 C   0  0  0  0  0  0  0  0  0  0  0  0
   26.0347  -17.2154  -14.6757 C   0  0  0  0  0  0  0  0  0  0  0  0
   26.2690  -16.0652  -15.6723 C   0  0  0  0  0  0  0  0  0  0  0  0
   27.2448  -16.6681  -16.6386 C   0  0  2  0  0  0  0  0  0  0  0  0
   26.8213  -18.1163  -16.6846 C   0  0  0  0  0  0  0  0  0  0  0  0
   27.9689  -18.9531  -17.1534 O   0  0  0  0  0  0  0  0  0  0  0  0
   28.4965  -19.7418  -16.3448 O   0  0  0  0  0  0  0  0  0  0  0  0
  2  1  1  0
  3  2  2  0
  4  2  1  0
  5  4  1  0
  6  5  1  0
  6  7  1  0
  8 10  1  0
  8  9  1  1
  8  7  1  0
 10 11  2  0
 13 12  1  0
 14 13  1  0
 14 15  1  6
 16 17  1  1
 16 14  1  0
 17 10  1  0
 18 16  1  0
 19 18  2  0
 20 18  1  0
 20 24  1  0
 21 22  1  0
 21 20  1  0
 22 23  1  0
 23 24  1  0
 25 27  1  0
 24 25  1  1
 26 25  2  0
M  END
$$$$
