RIP.pdb
     RDKit          3D

 27 27  0  0  1  0  0  0  0  0999 V2000
   23.2500  -19.3129  -14.2595 N   0  0  0  0  0  0  0  0  0  0  0  0
   22.1440  -19.5948  -13.3920 C   0  0  0  0  0  0  0  0  0  0  0  0
   21.1168  -20.2048  -13.8423 N   0  0  0  0  0  0  0  0  0  0  0  0
   22.1711  -19.2025  -12.0243 N   0  0  0  0  0  0  0  0  0  0  0  0
   23.1691  -19.7090  -11.1176 C   0  0  0  0  0  0  0  0  0  0  0  0
   23.7379  -21.0058  -11.6373 C   0  0  0  0  0  0  0  0  0  0  0  0
   24.7737  -21.5656  -10.6969 C   0  0  0  0  0  0  0  0  0  0  0  0
   26.0292  -20.6988  -10.6930 C   0  0  2  0  0  0  0  0  0  0  0  0
   26.8391  -20.9287  -11.8496 N   0  0  0  0  0  0  0  0  0  0  0  0
   26.8186  -20.9190   -9.4591 C   0  0  0  0  0  0  0  0  0  0  0  0
   27.2510  -22.0746   -9.2158 O   0  0  0  0  0  0  0  0  0  0  0  0
   20.3152  -20.4156  -13.2326 C   0  0  0  0  0  0  0  0  0  0  0  0
   29.8874  -17.9379   -4.9832 C   0  0  0  0  0  0  0  0  0  0  0  0
   29.1681  -19.2336   -5.4032 C   0  0  2  0  0  0  0  0  0  0  0  0
   28.4465  -18.9745   -6.6924 C   0  0  0  0  0  0  0  0  0  0  0  0
   27.5441  -17.7975   -6.5241 C   0  0  2  0  0  0  0  0  0  0  0  0
   27.6439  -20.1627   -7.2047 N   0  0  0  0  0  0  0  0  0  0  0  0
   27.1247  -19.8903   -8.5144 C   0  0  0  0  0  0  0  0  0  0  0  0
   26.6773  -20.6891   -6.2372 O   0  0  0  0  0  0  0  0  0  0  0  0
   25.5804  -20.0260   -6.1409 N   0  0  0  0  0  0  0  0  0  0  0  0
   26.8070  -21.8207   -5.4077 C   0  0  0  0  0  0  0  0  0  0  0  0
   27.8534  -22.7980   -5.5191 C   0  0  0  0  0  0  0  0  0  0  0  0
   27.5536  -23.8872   -4.4728 C   0  0  0  0  0  0  0  0  0  0  0  0
   26.6751  -23.1641   -3.4957 C   0  0  2  0  0  0  0  0  0  0  0  0
   25.8960  -22.2197   -4.3787 C   0  0  0  0  0  0  0  0  0  0  0  0
   25.3847  -21.0805   -3.5556 O   0  0  0  0  0  0  0  0  0  0  0  0
   26.1323  -20.1000   -3.3714 O   0  0  0  0  0  0  0  0  0  0  0  0
  2  1  1  0
  3  2  2  0
  4  2  1  0
  5  4  1  0
  6  5  1  0
  6  7  1  0
  8 10  1  0
  8  9  1  6
  8  7  1  0
 10 11  2  0
 13 12  1  0
 14 13  1  0
 14 15  1  6
 16 17  1  1
 16 14  1  0
 17 10  1  0
 18 16  1  0
 19 18  2  0
 20 18  1  0
 20 24  1  0
 21 22  1  0
 21 20  1  0
 22 23  1  0
 23 24  1  0
 25 27  1  0
 24 25  1  1
 26 25  2  0
M  END
$$$$
