RIP.pdb
     RDKit          3D

 27 27  0  0  1  0  0  0  0  0999 V2000
   29.3243  -22.6413  -10.3486 N   0  0  0  0  0  0  0  0  0  0  0  0
   29.4314  -21.4429  -11.1282 C   0  0  0  0  0  0  0  0  0  0  0  0
   30.5807  -20.9657  -11.4136 N   0  0  0  0  0  0  0  0  0  0  0  0
   28.2677  -20.7690  -11.5940 N   0  0  0  0  0  0  0  0  0  0  0  0
   27.1217  -20.5746  -10.7435 C   0  0  0  0  0  0  0  0  0  0  0  0
   26.1866  -21.7535  -10.8482 C   0  0  0  0  0  0  0  0  0  0  0  0
   25.2904  -21.6364  -12.0540 C   0  0  0  0  0  0  0  0  0  0  0  0
   24.3072  -20.4813  -11.8901 C   0  0  2  0  0  0  0  0  0  0  0  0
   23.3355  -20.7484  -10.8748 N   0  0  0  0  0  0  0  0  0  0  0  0
   23.6382  -20.1718  -13.1750 C   0  0  0  0  0  0  0  0  0  0  0  0
   22.5975  -20.8069  -13.4835 O   0  0  0  0  0  0  0  0  0  0  0  0
   30.6746  -20.0788  -11.9268 C   0  0  0  0  0  0  0  0  0  0  0  0
   23.7990  -15.0277  -15.2204 C   0  0  0  0  0  0  0  0  0  0  0  0
   23.3821  -16.4122  -14.6897 C   0  0  2  0  0  0  0  0  0  0  0  0
   23.7069  -17.4352  -15.7375 C   0  0  0  0  0  0  0  0  0  0  0  0
   22.9537  -17.1177  -16.9865 C   0  0  2  0  0  0  0  0  0  0  0  0
   23.4149  -18.8693  -15.3172 N   0  0  0  0  0  0  0  0  0  0  0  0
   24.1045  -19.1854  -14.0991 C   0  0  0  0  0  0  0  0  0  0  0  0
   23.5595  -19.8472  -16.3989 O   0  0  0  0  0  0  0  0  0  0  0  0
   24.7245  -19.8998  -16.9393 N   0  0  0  0  0  0  0  0  0  0  0  0
   22.5839  -20.7246  -16.9128 C   0  0  0  0  0  0  0  0  0  0  0  0
   21.2722  -20.9023  -16.3557 C   0  0  0  0  0  0  0  0  0  0  0  0
   20.5865  -22.0047  -17.1835 C   0  0  0  0  0  0  0  0  0  0  0  0
   21.3587  -21.9719  -18.4688 C   0  0  2  0  0  0  0  0  0  0  0  0
   22.7550  -21.6230  -18.0134 C   0  0  0  0  0  0  0  0  0  0  0  0
   23.5156  -21.0319  -19.1575 O   0  0  0  0  0  0  0  0  0  0  0  0
   24.0854  -21.8046  -19.9528 O   0  0  0  0  0  0  0  0  0  0  0  0
  2  1  1  0
  3  2  2  0
  4  2  1  0
  5  4  1  0
  6  5  1  0
  6  7  1  0
  8 10  1  0
  8  9  1  1
  8  7  1  0
 10 11  2  0
 13 12  1  0
 14 13  1  0
 14 15  1  6
 16 17  1  1
 16 14  1  0
 17 10  1  0
 18 16  1  0
 19 18  2  0
 20 18  1  0
 20 24  1  0
 21 22  1  0
 21 20  1  0
 22 23  1  0
 23 24  1  0
 25 27  1  0
 24 25  1  6
 26 25  2  0
M  END
$$$$
