RIP.pdb
     RDKit          3D

 27 27  0  0  1  0  0  0  0  0999 V2000
   26.1039  -21.4097   -9.9743 N   0  0  0  0  0  0  0  0  0  0  0  0
   24.7536  -21.5585  -10.4326 C   0  0  0  0  0  0  0  0  0  0  0  0
   23.8107  -20.9098   -9.8669 N   0  0  0  0  0  0  0  0  0  0  0  0
   24.4428  -22.4253  -11.5177 N   0  0  0  0  0  0  0  0  0  0  0  0
   25.3432  -22.5887  -12.6299 C   0  0  0  0  0  0  0  0  0  0  0  0
   25.5345  -21.2746  -13.3453 C   0  0  0  0  0  0  0  0  0  0  0  0
   26.9502  -21.1201  -13.8381 C   0  0  0  0  0  0  0  0  0  0  0  0
   27.0100  -21.2199  -15.3593 C   0  0  2  0  0  0  0  0  0  0  0  0
   28.0852  -22.0559  -15.7967 N   0  0  0  0  0  0  0  0  0  0  0  0
   27.1200  -19.8758  -15.9722 C   0  0  0  0  0  0  0  0  0  0  0  0
   28.2155  -19.2632  -15.8940 O   0  0  0  0  0  0  0  0  0  0  0  0
   22.8294  -21.0515  -10.1424 C   0  0  0  0  0  0  0  0  0  0  0  0
   25.5016  -19.9286  -19.8868 C   0  0  0  0  0  0  0  0  0  0  0  0
   25.1553  -18.4966  -19.4374 C   0  0  1  0  0  0  0  0  0  0  0  0
   26.3348  -17.9370  -18.6988 C   0  0  0  0  0  0  0  0  0  0  0  0
   27.5508  -18.7345  -19.0356 C   0  0  1  0  0  0  0  0  0  0  0  0
   26.1572  -17.8928  -17.1871 N   0  0  0  0  0  0  0  0  0  0  0  0
   26.0482  -19.2213  -16.6556 C   0  0  0  0  0  0  0  0  0  0  0  0
   25.1354  -16.9444  -16.7358 O   0  0  0  0  0  0  0  0  0  0  0  0
   23.9197  -17.3326  -16.8898 N   0  0  0  0  0  0  0  0  0  0  0  0
   25.3247  -15.6712  -16.1625 C   0  0  0  0  0  0  0  0  0  0  0  0
   26.5952  -15.1420  -15.7525 C   0  0  0  0  0  0  0  0  0  0  0  0
   26.3166  -13.7687  -15.1144 C   0  0  0  0  0  0  0  0  0  0  0  0
   24.9889  -13.4002  -15.7065 C   0  0  2  0  0  0  0  0  0  0  0  0
   24.2944  -14.7346  -15.8318 C   0  0  0  0  0  0  0  0  0  0  0  0
   23.2180  -14.6375  -16.8656 O   0  0  0  0  0  0  0  0  0  0  0  0
   23.4978  -14.9379  -18.0427 O   0  0  0  0  0  0  0  0  0  0  0  0
  2  1  1  0
  3  2  2  0
  4  2  1  0
  5  4  1  0
  6  5  1  0
  6  7  1  0
  8 10  1  0
  8  9  1  1
  8  7  1  0
 10 11  2  0
 13 12  1  0
 14 13  1  0
 14 15  1  6
 16 17  1  6
 16 14  1  0
 17 10  1  0
 18 16  1  0
 19 18  2  0
 20 18  1  0
 20 24  1  0
 21 22  1  0
 21 20  1  0
 22 23  1  0
 23 24  1  0
 25 27  1  0
 24 25  1  6
 26 25  2  0
M  END
$$$$
