RIP.pdb
     RDKit          3D

 27 27  0  0  1  0  0  0  0  0999 V2000
   20.5944  -22.7623  -13.3563 N   0  0  0  0  0  0  0  0  0  0  0  0
   20.1313  -22.4409  -12.0382 C   0  0  0  0  0  0  0  0  0  0  0  0
   18.8907  -22.5408  -11.7537 N   0  0  0  0  0  0  0  0  0  0  0  0
   21.0392  -22.0080  -11.0313 N   0  0  0  0  0  0  0  0  0  0  0  0
   21.6306  -20.6952  -11.0678 C   0  0  0  0  0  0  0  0  0  0  0  0
   22.6889  -20.5685  -10.0006 C   0  0  0  0  0  0  0  0  0  0  0  0
   23.8897  -19.8119  -10.5069 C   0  0  0  0  0  0  0  0  0  0  0  0
   24.8912  -20.7578  -11.1626 C   0  0  2  0  0  0  0  0  0  0  0  0
   25.7780  -21.3425  -10.2044 N   0  0  0  0  0  0  0  0  0  0  0  0
   25.6609  -20.0613  -12.2193 C   0  0  0  0  0  0  0  0  0  0  0  0
   26.4844  -19.1728  -11.8817 O   0  0  0  0  0  0  0  0  0  0  0  0
   18.5481  -22.3556  -10.8012 C   0  0  0  0  0  0  0  0  0  0  0  0
   28.8763  -20.8487  -13.6978 C   0  0  0  0  0  0  0  0  0  0  0  0
   27.9177  -21.6829  -14.5681 C   0  0  1  0  0  0  0  0  0  0  0  0
   27.1109  -20.7425  -15.4136 C   0  0  0  0  0  0  0  0  0  0  0  0
   28.0126  -20.0570  -16.3858 C   0  0  2  0  0  0  0  0  0  0  0  0
   26.3347  -19.7020  -14.6177 N   0  0  0  0  0  0  0  0  0  0  0  0
   25.5268  -20.3368  -13.6159 C   0  0  0  0  0  0  0  0  0  0  0  0
   25.6490  -18.7081  -15.4479 O   0  0  0  0  0  0  0  0  0  0  0  0
   24.8030  -19.1855  -16.2897 N   0  0  0  0  0  0  0  0  0  0  0  0
   25.8070  -17.3080  -15.4353 C   0  0  0  0  0  0  0  0  0  0  0  0
   26.6135  -16.5867  -14.4910 C   0  0  0  0  0  0  0  0  0  0  0  0
   26.4273  -15.0905  -14.8032 C   0  0  0  0  0  0  0  0  0  0  0  0
   25.9673  -15.1125  -16.2305 C   0  0  2  0  0  0  0  0  0  0  0  0
   25.1473  -16.3780  -16.3001 C   0  0  0  0  0  0  0  0  0  0  0  0
   25.0636  -16.8362  -17.7213 O   0  0  0  0  0  0  0  0  0  0  0  0
   25.8641  -17.7090  -18.1108 O   0  0  0  0  0  0  0  0  0  0  0  0
  2  1  1  0
  3  2  2  0
  4  2  1  0
  5  4  1  0
  6  5  1  0
  6  7  1  0
  8 10  1  0
  8  9  1  1
  8  7  1  0
 10 11  2  0
 13 12  1  0
 14 13  1  0
 14 15  1  6
 16 17  1  1
 16 14  1  0
 17 10  1  0
 18 16  1  0
 19 18  2  0
 20 18  1  0
 20 24  1  0
 21 22  1  0
 21 20  1  0
 22 23  1  0
 23 24  1  0
 25 27  1  0
 24 25  1  6
 26 25  2  0
M  END
$$$$
