RIP.pdb
     RDKit          3D

 27 27  0  0  1  0  0  0  0  0999 V2000
   18.7526  -14.2231  -24.2017 N   0  0  0  0  0  0  0  0  0  0  0  0
   18.0393  -15.1306  -23.3514 C   0  0  0  0  0  0  0  0  0  0  0  0
   17.5386  -16.2009  -23.8347 N   0  0  0  0  0  0  0  0  0  0  0  0
   17.8777  -14.8563  -21.9643 N   0  0  0  0  0  0  0  0  0  0  0  0
   17.2916  -13.6230  -21.5061 C   0  0  0  0  0  0  0  0  0  0  0  0
   17.1989  -13.6156  -20.0006 C   0  0  0  0  0  0  0  0  0  0  0  0
   18.1371  -12.6013  -19.3990 C   0  0  0  0  0  0  0  0  0  0  0  0
   19.4947  -13.2287  -19.0974 C   0  0  2  0  0  0  0  0  0  0  0  0
   19.4030  -14.6477  -18.9406 N   0  0  0  0  0  0  0  0  0  0  0  0
   20.1036  -12.6155  -17.8943 C   0  0  0  0  0  0  0  0  0  0  0  0
   19.6873  -12.9656  -16.7604 O   0  0  0  0  0  0  0  0  0  0  0  0
   17.0364  -16.8697  -23.2353 C   0  0  0  0  0  0  0  0  0  0  0  0
   24.3101  -12.1972  -14.7271 C   0  0  0  0  0  0  0  0  0  0  0  0
   24.0009  -10.9376  -15.5580 C   0  0  2  0  0  0  0  0  0  0  0  0
   23.2767  -11.3603  -16.8017 C   0  0  0  0  0  0  0  0  0  0  0  0
   23.8662  -10.6565  -17.9786 C   0  0  2  0  0  0  0  0  0  0  0  0
   21.7748  -11.1134  -16.7602 N   0  0  0  0  0  0  0  0  0  0  0  0
   21.1471  -11.6391  -17.9387 C   0  0  0  0  0  0  0  0  0  0  0  0
   21.4075   -9.7396  -16.4064 O   0  0  0  0  0  0  0  0  0  0  0  0
   21.7473   -8.8428  -17.2621 N   0  0  0  0  0  0  0  0  0  0  0  0
   20.7364   -9.2899  -15.2519 C   0  0  0  0  0  0  0  0  0  0  0  0
   20.1662  -10.1498  -14.2528 C   0  0  0  0  0  0  0  0  0  0  0  0
   19.4717   -9.2352  -13.2272 C   0  0  0  0  0  0  0  0  0  0  0  0
   20.1701   -7.9247  -13.4370 C   0  0  2  0  0  0  0  0  0  0  0  0
   20.4516   -7.9273  -14.9200 C   0  0  0  0  0  0  0  0  0  0  0  0
   21.5806   -6.9906  -15.2113 O   0  0  0  0  0  0  0  0  0  0  0  0
   22.6949   -7.4745  -15.4915 O   0  0  0  0  0  0  0  0  0  0  0  0
  2  1  1  0
  3  2  2  0
  4  2  1  0
  5  4  1  0
  6  5  1  0
  6  7  1  0
  8 10  1  0
  8  9  1  1
  8  7  1  0
 10 11  2  0
 13 12  1  0
 14 13  1  0
 14 15  1  1
 16 17  1  1
 16 14  1  0
 17 10  1  0
 18 16  1  0
 19 18  2  0
 20 18  1  0
 20 24  1  0
 21 22  1  0
 21 20  1  0
 22 23  1  0
 23 24  1  0
 25 27  1  0
 24 25  1  1
 26 25  2  0
M  END
$$$$
