RIP.pdb
     RDKit          3D

 27 27  0  0  1  0  0  0  0  0999 V2000
   19.4187  -22.9249  -18.8774 N   0  0  0  0  0  0  0  0  0  0  0  0
   19.6434  -22.3868  -17.5676 C   0  0  0  0  0  0  0  0  0  0  0  0
   18.7667  -22.5428  -16.6527 N   0  0  0  0  0  0  0  0  0  0  0  0
   20.8381  -21.6746  -17.2666 N   0  0  0  0  0  0  0  0  0  0  0  0
   21.9025  -21.5531  -18.2292 C   0  0  0  0  0  0  0  0  0  0  0  0
   22.3602  -22.9185  -18.6781 C   0  0  0  0  0  0  0  0  0  0  0  0
   23.6466  -23.3152  -18.0010 C   0  0  0  0  0  0  0  0  0  0  0  0
   24.7623  -22.3293  -18.3338 C   0  0  2  0  0  0  0  0  0  0  0  0
   25.7634  -22.9192  -19.1682 N   0  0  0  0  0  0  0  0  0  0  0  0
   25.3746  -21.7886  -17.0981 C   0  0  0  0  0  0  0  0  0  0  0  0
   26.1996  -22.5005  -16.4703 O   0  0  0  0  0  0  0  0  0  0  0  0
   18.9057  -22.1497  -15.7120 C   0  0  0  0  0  0  0  0  0  0  0  0
   27.0232  -16.4379  -14.6380 C   0  0  0  0  0  0  0  0  0  0  0  0
   26.7814  -17.9332  -14.3588 C   0  0  2  0  0  0  0  0  0  0  0  0
   26.0451  -18.5171  -15.5280 C   0  0  0  0  0  0  0  0  0  0  0  0
   24.8017  -17.7280  -15.7713 C   0  0  2  0  0  0  0  0  0  0  0  0
   25.6909  -19.9892  -15.3668 N   0  0  0  0  0  0  0  0  0  0  0  0
   25.0848  -20.4936  -16.5657 C   0  0  0  0  0  0  0  0  0  0  0  0
   24.9832  -20.2977  -14.1213 O   0  0  0  0  0  0  0  0  0  0  0  0
   23.7282  -20.0200  -14.1197 N   0  0  0  0  0  0  0  0  0  0  0  0
   25.5093  -20.8534  -12.9381 C   0  0  0  0  0  0  0  0  0  0  0  0
   26.8746  -21.2645  -12.7669 C   0  0  0  0  0  0  0  0  0  0  0  0
   26.9772  -21.8802  -11.3593 C   0  0  0  0  0  0  0  0  0  0  0  0
   25.8011  -21.2732  -10.6541 C   0  0  2  0  0  0  0  0  0  0  0  0
   24.7709  -21.1628  -11.7519 C   0  0  0  0  0  0  0  0  0  0  0  0
   23.7642  -20.1200  -11.3831 O   0  0  0  0  0  0  0  0  0  0  0  0
   23.8497  -18.9977  -11.9193 O   0  0  0  0  0  0  0  0  0  0  0  0
  2  1  1  0
  3  2  2  0
  4  2  1  0
  5  4  1  0
  6  5  1  0
  6  7  1  0
  8 10  1  0
  8  9  1  6
  8  7  1  0
 10 11  2  0
 13 12  1  0
 14 13  1  0
 14 15  1  6
 16 17  1  1
 16 14  1  0
 17 10  1  0
 18 16  1  0
 19 18  2  0
 20 18  1  0
 20 24  1  0
 21 22  1  0
 21 20  1  0
 22 23  1  0
 23 24  1  0
 25 27  1  0
 24 25  1  1
 26 25  2  0
M  END
$$$$
