VCE.pdb
     RDKit          3D

 23 22  0  0  1  0  0  0  0  0999 V2000
   16.7835  -11.7714  -18.7252 C   0  0  0  0  0  0  0  0  0  0  0  0
   17.1758  -10.8741  -17.5791 C   0  0  2  0  0  0  0  0  0  0  0  0
   17.5269   -9.4981  -18.1139 C   0  0  0  0  0  0  0  0  0  0  0  0
   18.3632  -11.4368  -16.8210 C   0  0  2  0  0  0  0  0  0  0  0  0
   17.9750  -12.7156  -16.2580 N   0  0  0  0  0  0  0  0  0  0  0  0
   18.7235  -10.5341  -15.7016 C   0  0  0  0  0  0  0  0  0  0  0  0
   17.9747  -10.4344  -14.6709 O   0  0  0  0  0  0  0  0  0  0  0  0
   19.8856   -9.7517  -15.7087 N   0  0  0  0  0  0  0  0  0  0  0  0
   20.2192   -8.8122  -14.6206 C   0  0  1  0  0  0  0  0  0  0  0  0
   21.4498   -9.4018  -13.9541 C   0  0  0  0  0  0  0  0  0  0  0  0
   22.0912   -8.3852  -12.6131 S   0  0  0  0  0  0  0  0  0  0  0  0
   20.5776   -7.5247  -15.2380 C   0  0  0  0  0  0  0  0  0  0  0  0
   21.3515   -7.5043  -16.2367 O   0  0  0  0  0  0  0  0  0  0  0  0
   20.1189   -6.2502  -14.8036 N   0  0  0  0  0  0  0  0  0  0  0  0
   20.5421   -5.0024  -15.4092 C   0  0  1  0  0  0  0  0  0  0  0  0
   19.4318   -4.0018  -15.2678 C   0  0  0  0  0  0  0  0  0  0  0  0
   19.6980   -2.6567  -15.8328 C   0  0  0  0  0  0  0  0  0  0  0  0
   18.6399   -1.6785  -15.6067 C   0  0  0  0  0  0  0  0  0  0  0  0
   17.5894   -1.9576  -14.9866 O   0  0  0  0  0  0  0  0  0  0  0  0
   21.7408   -4.4479  -14.6830 C   0  0  0  0  0  0  0  0  0  0  0  0
   22.4699   -3.5717  -15.2074 O   0  0  0  0  0  0  0  0  0  0  0  0
   18.8524   -0.3886  -16.1223 O   0  0  0  0  0  0  0  0  0  0  0  0
   22.0996   -4.8695  -13.4122 O   0  0  0  0  0  0  0  0  0  0  0  0
  2  3  1  6
  2  1  1  0
  4  2  1  0
  4  5  1  1
  6  4  1  0
  7  6  2  0
  8  6  1  0
  9 12  1  0
  9  8  1  0
  9 10  1  6
 11 10  1  0
 12 14  1  0
 13 12  2  0
 14 15  1  0
 15 16  1  1
 15 20  1  0
 16 17  1  0
 17 18  1  0
 18 22  1  0
 19 18  2  0
 20 21  2  0
 20 23  1  0
M  END
$$$$
