VCE.pdb
     RDKit          3D

 23 22  0  0  1  0  0  0  0  0999 V2000
   20.9335  -12.0353  -21.0988 C   0  0  0  0  0  0  0  0  0  0  0  0
   20.4485  -11.0237  -20.0918 C   0  0  2  0  0  0  0  0  0  0  0  0
   21.2112   -9.7247  -20.2753 C   0  0  0  0  0  0  0  0  0  0  0  0
   20.6415  -11.5237  -18.6726 C   0  0  2  0  0  0  0  0  0  0  0  0
   19.8836  -12.7506  -18.5189 N   0  0  0  0  0  0  0  0  0  0  0  0
   20.1074  -10.5318  -17.7090 C   0  0  0  0  0  0  0  0  0  0  0  0
   18.8677  -10.2219  -17.7045 O   0  0  0  0  0  0  0  0  0  0  0  0
   20.9168   -9.8880  -16.7640 N   0  0  0  0  0  0  0  0  0  0  0  0
   20.4005   -8.8537  -15.8467 C   0  0  1  0  0  0  0  0  0  0  0  0
   20.5604   -9.4441  -14.4567 C   0  0  0  0  0  0  0  0  0  0  0  0
   20.2451   -8.2593  -13.1375 S   0  0  0  0  0  0  0  0  0  0  0  0
   21.2718   -7.6735  -15.9704 C   0  0  0  0  0  0  0  0  0  0  0  0
   22.5269   -7.8174  -15.9431 O   0  0  0  0  0  0  0  0  0  0  0  0
   20.8211   -6.3331  -16.1251 N   0  0  0  0  0  0  0  0  0  0  0  0
   21.7144   -5.1912  -16.1582 C   0  0  1  0  0  0  0  0  0  0  0  0
   20.9603   -4.0101  -16.6969 C   0  0  0  0  0  0  0  0  0  0  0  0
   21.7197   -2.7385  -16.7733 C   0  0  0  0  0  0  0  0  0  0  0  0
   20.9620   -1.6043  -17.2900 C   0  0  0  0  0  0  0  0  0  0  0  0
   19.7699   -1.7049  -17.6570 O   0  0  0  0  0  0  0  0  0  0  0  0
   22.1647   -4.8379  -14.7639 C   0  0  0  0  0  0  0  0  0  0  0  0
   21.3737   -4.8960  -13.7916 O   0  0  0  0  0  0  0  0  0  0  0  0
   21.6370   -0.3737  -17.3598 O   0  0  0  0  0  0  0  0  0  0  0  0
   23.4605   -4.4346  -14.4819 O   0  0  0  0  0  0  0  0  0  0  0  0
  2  3  1  1
  2  1  1  0
  4  2  1  0
  4  5  1  6
  6  4  1  0
  7  6  2  0
  8  6  1  0
  9 12  1  0
  9  8  1  0
  9 10  1  1
 11 10  1  0
 12 14  1  0
 13 12  2  0
 14 15  1  0
 15 16  1  1
 15 20  1  0
 16 17  1  0
 17 18  1  0
 18 22  1  0
 19 18  2  0
 20 21  2  0
 20 23  1  0
M  END
$$$$
