VCE.pdb
     RDKit          3D

 23 22  0  0  1  0  0  0  0  0999 V2000
   18.8170  -14.7980  -16.9106 C   0  0  0  0  0  0  0  0  0  0  0  0
   18.5691  -13.3653  -17.3088 C   0  0  2  0  0  0  0  0  0  0  0  0
   19.4117  -13.0275  -18.5249 C   0  0  0  0  0  0  0  0  0  0  0  0
   18.9122  -12.4127  -16.1792 C   0  0  2  0  0  0  0  0  0  0  0  0
   18.2427  -12.8755  -14.9789 N   0  0  0  0  0  0  0  0  0  0  0  0
   18.4065  -11.0544  -16.4908 C   0  0  0  0  0  0  0  0  0  0  0  0
   18.8910  -10.3799  -17.4620 O   0  0  0  0  0  0  0  0  0  0  0  0
   17.3862  -10.4422  -15.7514 N   0  0  0  0  0  0  0  0  0  0  0  0
   16.8102   -9.1347  -16.1208 C   0  0  1  0  0  0  0  0  0  0  0  0
   15.3118   -9.2972  -15.9347 C   0  0  0  0  0  0  0  0  0  0  0  0
   14.4341   -7.7297  -15.8100 S   0  0  0  0  0  0  0  0  0  0  0  0
   17.3089   -8.1400  -15.1568 C   0  0  0  0  0  0  0  0  0  0  0  0
   17.8002   -8.5257  -14.0583 O   0  0  0  0  0  0  0  0  0  0  0  0
   17.2922   -6.7306  -15.3490 N   0  0  0  0  0  0  0  0  0  0  0  0
   18.0492   -5.8057  -14.5277 C   0  0  1  0  0  0  0  0  0  0  0  0
   19.5123   -6.0766  -14.7277 C   0  0  0  0  0  0  0  0  0  0  0  0
   20.4409   -5.2002  -13.9733 C   0  0  0  0  0  0  0  0  0  0  0  0
   21.8527   -5.5366  -14.1190 C   0  0  0  0  0  0  0  0  0  0  0  0
   22.2408   -6.5424  -14.7542 O   0  0  0  0  0  0  0  0  0  0  0  0
   17.7921   -4.3863  -14.9646 C   0  0  0  0  0  0  0  0  0  0  0  0
   17.4757   -4.1184  -16.1488 O   0  0  0  0  0  0  0  0  0  0  0  0
   22.7742   -4.6702  -13.5064 O   0  0  0  0  0  0  0  0  0  0  0  0
   17.8896   -3.3122  -14.0939 O   0  0  0  0  0  0  0  0  0  0  0  0
  2  3  1  6
  2  1  1  0
  4  2  1  0
  4  5  1  1
  6  4  1  0
  7  6  2  0
  8  6  1  0
  9 12  1  0
  9  8  1  0
  9 10  1  1
 11 10  1  0
 12 14  1  0
 13 12  2  0
 14 15  1  0
 15 16  1  6
 15 20  1  0
 16 17  1  0
 17 18  1  0
 18 22  1  0
 19 18  2  0
 20 21  2  0
 20 23  1  0
M  END
$$$$
