VCE.pdb
     RDKit          3D

 23 22  0  0  1  0  0  0  0  0999 V2000
   15.5674  -12.7482  -17.2324 C   0  0  0  0  0  0  0  0  0  0  0  0
   16.3602  -11.7033  -16.4892 C   0  0  2  0  0  0  0  0  0  0  0  0
   16.2086  -10.3647  -17.1877 C   0  0  0  0  0  0  0  0  0  0  0  0
   17.8301  -12.0719  -16.4225 C   0  0  2  0  0  0  0  0  0  0  0  0
   17.9565  -13.2856  -15.6387 N   0  0  0  0  0  0  0  0  0  0  0  0
   18.5902  -11.0012  -15.7343 C   0  0  0  0  0  0  0  0  0  0  0  0
   18.4316  -10.7817  -14.4855 O   0  0  0  0  0  0  0  0  0  0  0  0
   19.5103  -10.1823  -16.4016 N   0  0  0  0  0  0  0  0  0  0  0  0
   20.2491   -9.0990  -15.7244 C   0  0  1  0  0  0  0  0  0  0  0  0
   21.6732   -9.2108  -16.2398 C   0  0  0  0  0  0  0  0  0  0  0  0
   22.7532   -7.8992  -15.6428 S   0  0  0  0  0  0  0  0  0  0  0  0
   19.6748   -7.8199  -16.1733 C   0  0  0  0  0  0  0  0  0  0  0  0
   19.3273   -7.6800  -17.3801 O   0  0  0  0  0  0  0  0  0  0  0  0
   19.4632   -6.6806  -15.3482 N   0  0  0  0  0  0  0  0  0  0  0  0
   18.9326   -5.4255  -15.8441 C   0  0  1  0  0  0  0  0  0  0  0  0
   17.5531   -5.2351  -15.2833 C   0  0  0  0  0  0  0  0  0  0  0  0
   16.8831   -3.9593  -15.6340 C   0  0  0  0  0  0  0  0  0  0  0  0
   15.5874   -3.7540  -14.9964 C   0  0  0  0  0  0  0  0  0  0  0  0
   15.3719   -2.8105  -14.2033 O   0  0  0  0  0  0  0  0  0  0  0  0
   19.7760   -4.2732  -15.3615 C   0  0  0  0  0  0  0  0  0  0  0  0
   20.6633   -4.4381  -14.4899 O   0  0  0  0  0  0  0  0  0  0  0  0
   14.5745   -4.6746  -15.3150 O   0  0  0  0  0  0  0  0  0  0  0  0
   19.6201   -2.9844  -15.8473 O   0  0  0  0  0  0  0  0  0  0  0  0
  2  3  1  6
  2  1  1  0
  4  2  1  0
  4  5  1  1
  6  4  1  0
  7  6  2  0
  8  6  1  0
  9 12  1  0
  9  8  1  0
  9 10  1  6
 11 10  1  0
 12 14  1  0
 13 12  2  0
 14 15  1  0
 15 16  1  1
 15 20  1  0
 16 17  1  0
 17 18  1  0
 18 22  1  0
 19 18  2  0
 20 21  2  0
 20 23  1  0
M  END
$$$$
