VCE.pdb
     RDKit          3D

 23 22  0  0  1  0  0  0  0  0999 V2000
   18.7390  -16.2867  -18.7421 C   0  0  0  0  0  0  0  0  0  0  0  0
   19.2891  -15.3656  -17.6831 C   0  0  2  0  0  0  0  0  0  0  0  0
   19.1884  -13.9295  -18.1629 C   0  0  0  0  0  0  0  0  0  0  0  0
   20.7372  -15.6904  -17.3692 C   0  0  2  0  0  0  0  0  0  0  0  0
   20.7958  -17.0467  -16.8592 N   0  0  0  0  0  0  0  0  0  0  0  0
   21.2427  -14.7817  -16.3126 C   0  0  0  0  0  0  0  0  0  0  0  0
   20.7951  -14.8504  -15.1177 O   0  0  0  0  0  0  0  0  0  0  0  0
   22.2232  -13.8117  -16.5586 N   0  0  0  0  0  0  0  0  0  0  0  0
   22.6344  -12.8209  -15.5453 C   0  0  1  0  0  0  0  0  0  0  0  0
   24.1464  -12.7406  -15.6631 C   0  0  0  0  0  0  0  0  0  0  0  0
   24.8717  -11.4311  -14.6619 S   0  0  0  0  0  0  0  0  0  0  0  0
   22.0532  -11.5239  -15.9290 C   0  0  0  0  0  0  0  0  0  0  0  0
   22.0650  -11.1677  -17.1413 O   0  0  0  0  0  0  0  0  0  0  0  0
   21.4545  -10.5954  -15.0328 N   0  0  0  0  0  0  0  0  0  0  0  0
   20.9904   -9.2828  -15.4385 C   0  0  1  0  0  0  0  0  0  0  0  0
   19.5533   -9.1365  -15.0293 C   0  0  0  0  0  0  0  0  0  0  0  0
   18.9335   -7.8178  -15.3058 C   0  0  0  0  0  0  0  0  0  0  0  0
   18.1560   -7.7545  -16.5383 C   0  0  0  0  0  0  0  0  0  0  0  0
   18.0310   -8.7362  -17.3041 O   0  0  0  0  0  0  0  0  0  0  0  0
   21.7711   -8.2081  -14.7262 C   0  0  0  0  0  0  0  0  0  0  0  0
   22.4167   -8.4595  -13.6801 O   0  0  0  0  0  0  0  0  0  0  0  0
   17.5429   -6.5252  -16.8350 O   0  0  0  0  0  0  0  0  0  0  0  0
   21.8187   -6.8996  -15.1811 O   0  0  0  0  0  0  0  0  0  0  0  0
  2  3  1  6
  2  1  1  0
  4  2  1  0
  4  5  1  1
  6  4  1  0
  7  6  2  0
  8  6  1  0
  9 12  1  0
  9  8  1  0
  9 10  1  6
 11 10  1  0
 12 14  1  0
 13 12  2  0
 14 15  1  0
 15 16  1  1
 15 20  1  0
 16 17  1  0
 17 18  1  0
 18 22  1  0
 19 18  2  0
 20 21  2  0
 20 23  1  0
M  END
$$$$
