YAM.pdb
     RDKit          3D

 26 26  0  0  1  0  0  0  0  0999 V2000
   28.0240  -23.5210  -16.5952 O   0  0  0  0  0  0  0  0  0  0  0  0
   26.9152  -23.2823  -15.7825 C   0  0  0  0  0  0  0  0  0  0  0  0
   26.9045  -22.0917  -15.0732 C   0  0  0  0  0  0  0  0  0  0  0  0
   25.8354  -21.8001  -14.2531 C   0  0  0  0  0  0  0  0  0  0  0  0
   24.8013  -22.7165  -14.1676 C   0  0  0  0  0  0  0  0  0  0  0  0
   23.6571  -22.4180  -13.2976 C   0  0  0  0  0  0  0  0  0  0  0  0
   22.5353  -21.6950  -14.0495 C   0  0  2  0  0  0  0  0  0  0  0  0
   22.9511  -20.3103  -14.1470 N   0  0  0  0  0  0  0  0  0  0  0  0
   21.3150  -21.8476  -13.2179 C   0  0  0  0  0  0  0  0  0  0  0  0
   21.3495  -21.3919  -12.0492 O   0  0  0  0  0  0  0  0  0  0  0  0
   24.7998  -23.9041  -14.8679 C   0  0  0  0  0  0  0  0  0  0  0  0
   25.8750  -24.1763  -15.6802 C   0  0  0  0  0  0  0  0  0  0  0  0
   17.7837  -22.9670  -13.7902 C   0  0  0  0  0  0  0  0  0  0  0  0
   18.9580  -22.6583  -12.8552 C   0  0  2  0  0  0  0  0  0  0  0  0
   20.1242  -22.4718  -13.6618 N   0  0  0  0  0  0  0  0  0  0  0  0
   19.1434  -23.8581  -11.9493 C   0  0  0  0  0  0  0  0  0  0  0  0
   19.8885  -24.7961  -12.2714 O   0  0  0  0  0  0  0  0  0  0  0  0
   18.4024  -24.2036   -5.2956 C   0  0  0  0  0  0  0  0  0  0  0  0
   17.2941  -25.5179   -5.8682 S   0  0  0  0  0  0  0  0  0  0  0  0
   17.8172  -25.9486   -7.5746 C   0  0  0  0  0  0  0  0  0  0  0  0
   17.8888  -24.7199   -8.4383 C   0  0  0  0  0  0  0  0  0  0  0  0
   18.4991  -25.0245   -9.7750 C   0  0  2  0  0  0  0  0  0  0  0  0
   18.4787  -23.9502  -10.7143 N   0  0  0  0  0  0  0  0  0  0  0  0
   17.7741  -26.1486  -10.3908 C   0  0  0  0  0  0  0  0  0  0  0  0
   16.6832  -25.9779  -11.0362 O   0  0  0  0  0  0  0  0  0  0  0  0
   18.2045  -27.4771  -10.3265 O   0  0  0  0  0  0  0  0  0  0  0  0
  1  2  1  0
  2 12  2  0
  3  4  2  0
  3  2  1  0
  4  5  1  0
  5  6  1  0
  5 11  2  0
  7  8  1  1
  7  6  1  0
  7  9  1  0
  9 10  2  0
 12 11  1  0
 14 13  1  6
 14 16  1  0
 15  9  1  0
 15 14  1  0
 16 17  2  0
 18 19  1  0
 20 19  1  0
 21 20  1  0
 22 21  1  1
 22 24  1  0
 23 16  1  0
 23 22  1  0
 24 26  1  0
 25 24  2  0
M  END
$$$$
