YAM.pdb
     RDKit          3D

 26 26  0  0  1  0  0  0  0  0999 V2000
   11.6869  -19.0047    2.8095 O   0  0  0  0  0  0  0  0  0  0  0  0
   12.8872  -18.4964    3.3073 C   0  0  0  0  0  0  0  0  0  0  0  0
   12.9287  -17.1365    3.5717 C   0  0  0  0  0  0  0  0  0  0  0  0
   14.0877  -16.5763    4.0649 C   0  0  0  0  0  0  0  0  0  0  0  0
   15.1785  -17.4010    4.2802 C   0  0  0  0  0  0  0  0  0  0  0  0
   16.4188  -16.8166    4.8050 C   0  0  0  0  0  0  0  0  0  0  0  0
   17.2013  -16.0618    3.7258 C   0  0  2  0  0  0  0  0  0  0  0  0
   17.6882  -17.0726    2.8086 N   0  0  0  0  0  0  0  0  0  0  0  0
   18.3129  -15.3720    4.4275 C   0  0  0  0  0  0  0  0  0  0  0  0
   19.3443  -16.0415    4.6781 O   0  0  0  0  0  0  0  0  0  0  0  0
   15.1503  -18.7549    4.0214 C   0  0  0  0  0  0  0  0  0  0  0  0
   13.9852  -19.2944    3.5300 C   0  0  0  0  0  0  0  0  0  0  0  0
   18.9732  -11.8491    5.5823 C   0  0  0  0  0  0  0  0  0  0  0  0
   19.3690  -13.3230    5.4429 C   0  0  2  0  0  0  0  0  0  0  0  0
   18.2786  -14.0142    4.8275 N   0  0  0  0  0  0  0  0  0  0  0  0
   19.6011  -13.8638    6.8387 C   0  0  0  0  0  0  0  0  0  0  0  0
   18.6813  -14.3889    7.4844 O   0  0  0  0  0  0  0  0  0  0  0  0
   24.5627  -17.8769   11.2373 C   0  0  0  0  0  0  0  0  0  0  0  0
   24.2668  -17.1154    9.6199 S   0  0  0  0  0  0  0  0  0  0  0  0
   22.8322  -15.9869    9.8181 C   0  0  0  0  0  0  0  0  0  0  0  0
   22.4813  -15.3331    8.5103 C   0  0  0  0  0  0  0  0  0  0  0  0
   21.3039  -14.4141    8.6555 C   0  0  2  0  0  0  0  0  0  0  0  0
   20.8646  -13.7896    7.4497 N   0  0  0  0  0  0  0  0  0  0  0  0
   21.6474  -13.3362    9.5982 C   0  0  0  0  0  0  0  0  0  0  0  0
   21.9805  -12.1680    9.1982 O   0  0  0  0  0  0  0  0  0  0  0  0
   21.6404  -13.4899   10.9877 O   0  0  0  0  0  0  0  0  0  0  0  0
  1  2  1  0
  2 12  2  0
  3  4  2  0
  3  2  1  0
  4  5  1  0
  5  6  1  0
  5 11  2  0
  7  8  1  6
  7  6  1  0
  7  9  1  0
  9 10  2  0
 12 11  1  0
 14 13  1  1
 14 16  1  0
 15  9  1  0
 15 14  1  0
 16 17  2  0
 18 19  1  0
 20 19  1  0
 21 20  1  0
 22 21  1  6
 22 24  1  0
 23 16  1  0
 23 22  1  0
 24 26  1  0
 25 24  2  0
M  END
$$$$
