YAM.pdb
     RDKit          3D

 26 26  0  0  1  0  0  0  0  0999 V2000
   13.7516  -27.9499    1.2965 O   0  0  0  0  0  0  0  0  0  0  0  0
   14.2563  -26.6707    1.5324 C   0  0  0  0  0  0  0  0  0  0  0  0
   13.3499  -25.7074    1.9463 C   0  0  0  0  0  0  0  0  0  0  0  0
   13.7895  -24.4246    2.1950 C   0  0  0  0  0  0  0  0  0  0  0  0
   15.1336  -24.1431    2.0205 C   0  0  0  0  0  0  0  0  0  0  0  0
   15.6142  -22.7807    2.2817 C   0  0  0  0  0  0  0  0  0  0  0  0
   14.8429  -21.7330    1.4732 C   0  0  2  0  0  0  0  0  0  0  0  0
   15.3079  -21.8647    0.1071 N   0  0  0  0  0  0  0  0  0  0  0  0
   15.2030  -20.4152    2.0541 C   0  0  0  0  0  0  0  0  0  0  0  0
   16.3602  -19.9821    1.8352 O   0  0  0  0  0  0  0  0  0  0  0  0
   16.0453  -25.0921    1.6093 C   0  0  0  0  0  0  0  0  0  0  0  0
   15.5872  -26.3653    1.3665 C   0  0  0  0  0  0  0  0  0  0  0  0
   13.3585  -17.7133    3.9081 C   0  0  0  0  0  0  0  0  0  0  0  0
   14.6481  -18.3345    3.3608 C   0  0  2  0  0  0  0  0  0  0  0  0
   14.3250  -19.6243    2.8341 N   0  0  0  0  0  0  0  0  0  0  0  0
   15.6106  -18.4772    4.5217 C   0  0  0  0  0  0  0  0  0  0  0  0
   16.0030  -19.5927    4.8962 O   0  0  0  0  0  0  0  0  0  0  0  0
   21.6024  -20.1667    6.9180 C   0  0  0  0  0  0  0  0  0  0  0  0
   20.9235  -18.7239    6.0571 S   0  0  0  0  0  0  0  0  0  0  0  0
   19.1644  -18.5820    6.5631 C   0  0  0  0  0  0  0  0  0  0  0  0
   18.4857  -17.4588    5.8291 C   0  0  0  0  0  0  0  0  0  0  0  0
   17.0576  -17.3042    6.2634 C   0  0  2  0  0  0  0  0  0  0  0  0
   16.0918  -17.3525    5.2138 N   0  0  0  0  0  0  0  0  0  0  0  0
   16.8968  -16.0045    6.9369 C   0  0  0  0  0  0  0  0  0  0  0  0
   16.4799  -14.9674    6.3155 O   0  0  0  0  0  0  0  0  0  0  0  0
   17.1799  -15.7918    8.2893 O   0  0  0  0  0  0  0  0  0  0  0  0
  1  2  1  0
  2 12  2  0
  3  4  2  0
  3  2  1  0
  4  5  1  0
  5  6  1  0
  5 11  2  0
  7  8  1  6
  7  6  1  0
  7  9  1  0
  9 10  2  0
 12 11  1  0
 14 13  1  1
 14 16  1  0
 15  9  1  0
 15 14  1  0
 16 17  2  0
 18 19  1  0
 20 19  1  0
 21 20  1  0
 22 21  1  6
 22 24  1  0
 23 16  1  0
 23 22  1  0
 24 26  1  0
 25 24  2  0
M  END
$$$$
