YAM.pdb
     RDKit          3D

 26 26  0  0  1  0  0  0  0  0999 V2000
   17.0768  -20.4036  -14.0309 O   0  0  0  0  0  0  0  0  0  0  0  0
   18.4709  -20.3464  -14.0402 C   0  0  0  0  0  0  0  0  0  0  0  0
   19.1459  -21.5557  -14.0935 C   0  0  0  0  0  0  0  0  0  0  0  0
   20.5244  -21.5632  -14.1050 C   0  0  0  0  0  0  0  0  0  0  0  0
   21.1904  -20.3503  -14.0626 C   0  0  0  0  0  0  0  0  0  0  0  0
   22.6584  -20.3447  -14.0741 C   0  0  0  0  0  0  0  0  0  0  0  0
   23.2218  -19.7115  -15.3502 C   0  0  2  0  0  0  0  0  0  0  0  0
   22.7261  -20.5193  -16.4463 N   0  0  0  0  0  0  0  0  0  0  0  0
   24.6996  -19.7886  -15.2322 C   0  0  0  0  0  0  0  0  0  0  0  0
   25.2366  -20.9106  -15.3982 O   0  0  0  0  0  0  0  0  0  0  0  0
   20.5309  -19.1408  -14.0095 C   0  0  0  0  0  0  0  0  0  0  0  0
   19.1562  -19.1546  -13.9988 C   0  0  0  0  0  0  0  0  0  0  0  0
   27.4881  -17.3228  -14.6746 C   0  0  0  0  0  0  0  0  0  0  0  0
   26.9507  -18.7543  -14.7763 C   0  0  2  0  0  0  0  0  0  0  0  0
   25.5325  -18.6799  -14.9459 N   0  0  0  0  0  0  0  0  0  0  0  0
   27.2788  -19.4551  -13.4740 C   0  0  0  0  0  0  0  0  0  0  0  0
   28.4390  -19.8050  -13.2085 O   0  0  0  0  0  0  0  0  0  0  0  0
   26.9621  -20.0613   -6.2405 C   0  0  0  0  0  0  0  0  0  0  0  0
   26.6267  -19.2449   -7.8231 S   0  0  0  0  0  0  0  0  0  0  0  0
   25.6982  -20.4464   -8.8549 C   0  0  0  0  0  0  0  0  0  0  0  0
   25.4061  -19.8716  -10.2133 C   0  0  0  0  0  0  0  0  0  0  0  0
   26.4322  -20.2990  -11.2215 C   0  0  2  0  0  0  0  0  0  0  0  0
   26.2821  -19.7328  -12.5229 N   0  0  0  0  0  0  0  0  0  0  0  0
   26.3727  -21.7620  -11.3789 C   0  0  0  0  0  0  0  0  0  0  0  0
   26.6518  -22.5579  -10.4176 O   0  0  0  0  0  0  0  0  0  0  0  0
   26.0128  -22.3996  -12.5698 O   0  0  0  0  0  0  0  0  0  0  0  0
  1  2  1  0
  2 12  2  0
  3  4  2  0
  3  2  1  0
  4  5  1  0
  5  6  1  0
  5 11  2  0
  7  8  1  6
  7  6  1  0
  7  9  1  0
  9 10  2  0
 12 11  1  0
 14 13  1  1
 14 16  1  0
 15  9  1  0
 15 14  1  0
 16 17  2  0
 18 19  1  0
 20 19  1  0
 21 20  1  0
 22 21  1  1
 22 24  1  0
 23 16  1  0
 23 22  1  0
 24 26  1  0
 25 24  2  0
M  END
$$$$
