YAM.pdb
     RDKit          3D

 26 26  0  0  1  0  0  0  0  0999 V2000
   23.2015  -17.6036  -19.9894 O   0  0  0  0  0  0  0  0  0  0  0  0
   22.9319  -18.3241  -18.8254 C   0  0  0  0  0  0  0  0  0  0  0  0
   22.2900  -17.6433  -17.8031 C   0  0  0  0  0  0  0  0  0  0  0  0
   21.9972  -18.3025  -16.6282 C   0  0  0  0  0  0  0  0  0  0  0  0
   22.3587  -19.6337  -16.5118 C   0  0  0  0  0  0  0  0  0  0  0  0
   22.0527  -20.3470  -15.2656 C   0  0  0  0  0  0  0  0  0  0  0  0
   23.0076  -19.9609  -14.1318 C   0  0  2  0  0  0  0  0  0  0  0  0
   24.2923  -20.5318  -14.4833 N   0  0  0  0  0  0  0  0  0  0  0  0
   22.4519  -20.5706  -12.8976 C   0  0  0  0  0  0  0  0  0  0  0  0
   22.6411  -21.7986  -12.7220 O   0  0  0  0  0  0  0  0  0  0  0  0
   22.9974  -20.3223  -17.5211 C   0  0  0  0  0  0  0  0  0  0  0  0
   23.2806  -19.6472  -18.6847 C   0  0  0  0  0  0  0  0  0  0  0  0
   20.6792  -19.2791   -9.8384 C   0  0  0  0  0  0  0  0  0  0  0  0
   21.2395  -20.4197  -10.6949 C   0  0  2  0  0  0  0  0  0  0  0  0
   21.7269  -19.8542  -11.9148 N   0  0  0  0  0  0  0  0  0  0  0  0
   20.0970  -21.3705  -10.9868 C   0  0  0  0  0  0  0  0  0  0  0  0
   19.4224  -21.2639  -12.0224 O   0  0  0  0  0  0  0  0  0  0  0  0
   16.7223  -28.2174   -8.8184 C   0  0  0  0  0  0  0  0  0  0  0  0
   17.8612  -26.9198   -8.2684 S   0  0  0  0  0  0  0  0  0  0  0  0
   17.8078  -25.5930   -9.5364 C   0  0  0  0  0  0  0  0  0  0  0  0
   18.8074  -24.5141   -9.2241 C   0  0  0  0  0  0  0  0  0  0  0  0
   18.7678  -23.4174  -10.2477 C   0  0  2  0  0  0  0  0  0  0  0  0
   19.7621  -22.4048  -10.0962 N   0  0  0  0  0  0  0  0  0  0  0  0
   17.4579  -22.7473  -10.1854 C   0  0  0  0  0  0  0  0  0  0  0  0
   17.2689  -21.6949   -9.4836 O   0  0  0  0  0  0  0  0  0  0  0  0
   16.3257  -23.1925  -10.8740 O   0  0  0  0  0  0  0  0  0  0  0  0
  1  2  1  0
  2 12  2  0
  3  4  2  0
  3  2  1  0
  4  5  1  0
  5  6  1  0
  5 11  2  0
  7  8  1  6
  7  6  1  0
  7  9  1  0
  9 10  2  0
 12 11  1  0
 14 13  1  1
 14 16  1  0
 15  9  1  0
 15 14  1  0
 16 17  2  0
 18 19  1  0
 20 19  1  0
 21 20  1  0
 22 21  1  1
 22 24  1  0
 23 16  1  0
 23 22  1  0
 24 26  1  0
 25 24  2  0
M  END
$$$$
