YAM.pdb
     RDKit          3D

 26 26  0  0  1  0  0  0  0  0999 V2000
   20.6609  -13.2227  -19.4800 O   0  0  0  0  0  0  0  0  0  0  0  0
   20.4827  -12.1945  -18.5539 C   0  0  0  0  0  0  0  0  0  0  0  0
   20.2303  -12.5697  -17.2438 C   0  0  0  0  0  0  0  0  0  0  0  0
   20.0453  -11.5980  -16.2835 C   0  0  0  0  0  0  0  0  0  0  0  0
   20.1193  -10.2699  -16.6669 C   0  0  0  0  0  0  0  0  0  0  0  0
   19.9238   -9.2256  -15.6538 C   0  0  0  0  0  0  0  0  0  0  0  0
   21.2410   -8.5474  -15.2644 C   0  0  2  0  0  0  0  0  0  0  0  0
   21.9198   -9.4758  -14.3828 N   0  0  0  0  0  0  0  0  0  0  0  0
   20.8687   -7.2928  -14.5636 C   0  0  0  0  0  0  0  0  0  0  0  0
   20.0844   -7.3846  -13.5883 O   0  0  0  0  0  0  0  0  0  0  0  0
   20.3697   -9.8836  -17.9665 C   0  0  0  0  0  0  0  0  0  0  0  0
   20.5513  -10.8675  -18.9093 C   0  0  0  0  0  0  0  0  0  0  0  0
   22.2806   -3.9622  -14.1093 C   0  0  0  0  0  0  0  0  0  0  0  0
   21.0032   -4.7975  -14.2475 C   0  0  2  0  0  0  0  0  0  0  0  0
   21.3423   -6.0091  -14.9276 N   0  0  0  0  0  0  0  0  0  0  0  0
   20.0247   -3.9948  -15.0797 C   0  0  0  0  0  0  0  0  0  0  0  0
   20.1198   -3.9498  -16.3157 O   0  0  0  0  0  0  0  0  0  0  0  0
   13.6077   -5.3641  -14.0586 C   0  0  0  0  0  0  0  0  0  0  0  0
   14.2882   -3.6924  -13.8981 S   0  0  0  0  0  0  0  0  0  0  0  0
   15.9407   -3.7119  -14.6979 C   0  0  0  0  0  0  0  0  0  0  0  0
   16.6586   -2.4098  -14.4744 C   0  0  0  0  0  0  0  0  0  0  0  0
   18.0199   -2.4190  -15.1060 C   0  0  2  0  0  0  0  0  0  0  0  0
   18.9767   -3.2742  -14.4815 N   0  0  0  0  0  0  0  0  0  0  0  0
   18.5753   -1.0555  -15.0735 C   0  0  0  0  0  0  0  0  0  0  0  0
   19.6185   -0.7658  -14.3927 O   0  0  0  0  0  0  0  0  0  0  0  0
   18.0231    0.0234  -15.7701 O   0  0  0  0  0  0  0  0  0  0  0  0
  1  2  1  0
  2 12  2  0
  3  4  2  0
  3  2  1  0
  4  5  1  0
  5  6  1  0
  5 11  2  0
  7  8  1  1
  7  6  1  0
  7  9  1  0
  9 10  2  0
 12 11  1  0
 14 13  1  6
 14 16  1  0
 15  9  1  0
 15 14  1  0
 16 17  2  0
 18 19  1  0
 20 19  1  0
 21 20  1  0
 22 21  1  1
 22 24  1  0
 23 16  1  0
 23 22  1  0
 24 26  1  0
 25 24  2  0
M  END
$$$$
