YAM.pdb
     RDKit          3D

 26 26  0  0  1  0  0  0  0  0999 V2000
   29.6708  -14.9257  -18.3064 O   0  0  0  0  0  0  0  0  0  0  0  0
   28.8981  -15.5026  -17.2980 C   0  0  0  0  0  0  0  0  0  0  0  0
   29.1896  -16.8147  -16.9600 C   0  0  0  0  0  0  0  0  0  0  0  0
   28.4598  -17.4387  -15.9708 C   0  0  0  0  0  0  0  0  0  0  0  0
   27.4526  -16.7244  -15.3450 C   0  0  0  0  0  0  0  0  0  0  0  0
   26.6679  -17.3776  -14.2900 C   0  0  0  0  0  0  0  0  0  0  0  0
   25.8454  -18.5525  -14.8280 C   0  0  2  0  0  0  0  0  0  0  0  0
   24.7409  -17.9626  -15.5573 N   0  0  0  0  0  0  0  0  0  0  0  0
   25.3798  -19.3099  -13.6391 C   0  0  0  0  0  0  0  0  0  0  0  0
   24.5201  -18.7651  -12.9050 O   0  0  0  0  0  0  0  0  0  0  0  0
   27.1527  -15.4190  -15.6717 C   0  0  0  0  0  0  0  0  0  0  0  0
   27.8919  -14.8146  -16.6608 C   0  0  0  0  0  0  0  0  0  0  0  0
   25.5936  -22.8031  -12.3795 C   0  0  0  0  0  0  0  0  0  0  0  0
   25.4663  -21.3018  -12.0997 C   0  0  2  0  0  0  0  0  0  0  0  0
   25.8446  -20.6002  -13.2873 N   0  0  0  0  0  0  0  0  0  0  0  0
   26.4247  -20.9675  -10.9753 C   0  0  0  0  0  0  0  0  0  0  0  0
   27.6522  -21.0565  -11.1308 O   0  0  0  0  0  0  0  0  0  0  0  0
   29.7472  -19.7394   -4.4397 C   0  0  0  0  0  0  0  0  0  0  0  0
   28.6242  -18.8535   -5.5522 S   0  0  0  0  0  0  0  0  0  0  0  0
   27.5277  -20.1133   -6.3146 C   0  0  0  0  0  0  0  0  0  0  0  0
   27.2670  -19.7912   -7.7600 C   0  0  0  0  0  0  0  0  0  0  0  0
   26.4693  -20.8730   -8.4273 C   0  0  2  0  0  0  0  0  0  0  0  0
   25.9574  -20.5457   -9.7187 N   0  0  0  0  0  0  0  0  0  0  0  0
   25.3139  -21.2123   -7.5796 C   0  0  0  0  0  0  0  0  0  0  0  0
   24.1102  -21.0668   -7.9864 O   0  0  0  0  0  0  0  0  0  0  0  0
   25.4268  -21.7141   -6.2796 O   0  0  0  0  0  0  0  0  0  0  0  0
  1  2  1  0
  2 12  2  0
  3  4  2  0
  3  2  1  0
  4  5  1  0
  5  6  1  0
  5 11  2  0
  7  8  1  1
  7  6  1  0
  7  9  1  0
  9 10  2  0
 12 11  1  0
 14 13  1  6
 14 16  1  0
 15  9  1  0
 15 14  1  0
 16 17  2  0
 18 19  1  0
 20 19  1  0
 21 20  1  0
 22 21  1  1
 22 24  1  0
 23 16  1  0
 23 22  1  0
 24 26  1  0
 25 24  2  0
M  END
$$$$
