YAM.pdb
     RDKit          3D

 26 26  0  0  1  0  0  0  0  0999 V2000
   15.8977  -23.5544  -12.1047 O   0  0  0  0  0  0  0  0  0  0  0  0
   17.2473  -23.2155  -12.2070 C   0  0  0  0  0  0  0  0  0  0  0  0
   17.8177  -23.2931  -13.4678 C   0  0  0  0  0  0  0  0  0  0  0  0
   19.1480  -22.9705  -13.6315 C   0  0  0  0  0  0  0  0  0  0  0  0
   19.8724  -22.5770  -12.5195 C   0  0  0  0  0  0  0  0  0  0  0  0
   21.2900  -22.2311  -12.6805 C   0  0  0  0  0  0  0  0  0  0  0  0
   21.5617  -20.7559  -12.3695 C   0  0  2  0  0  0  0  0  0  0  0  0
   20.8614  -20.0001  -13.3884 N   0  0  0  0  0  0  0  0  0  0  0  0
   23.0325  -20.5777  -12.4633 C   0  0  0  0  0  0  0  0  0  0  0  0
   23.5006  -20.1913  -13.5616 O   0  0  0  0  0  0  0  0  0  0  0  0
   19.3169  -22.4956  -11.2602 C   0  0  0  0  0  0  0  0  0  0  0  0
   17.9890  -22.8214  -11.1178 C   0  0  0  0  0  0  0  0  0  0  0  0
   25.9317  -20.8340  -10.0774 C   0  0  0  0  0  0  0  0  0  0  0  0
   25.3526  -20.6872  -11.4886 C   0  0  2  0  0  0  0  0  0  0  0  0
   23.9312  -20.8160  -11.3955 N   0  0  0  0  0  0  0  0  0  0  0  0
   25.9188  -21.8122  -12.3302 C   0  0  0  0  0  0  0  0  0  0  0  0
   25.4571  -22.9614  -12.2592 O   0  0  0  0  0  0  0  0  0  0  0  0
   24.5813  -22.0825  -19.4394 C   0  0  0  0  0  0  0  0  0  0  0  0
   24.3656  -21.4815  -17.7436 S   0  0  0  0  0  0  0  0  0  0  0  0
   25.8859  -21.9372  -16.8206 C   0  0  0  0  0  0  0  0  0  0  0  0
   25.7809  -21.5227  -15.3790 C   0  0  0  0  0  0  0  0  0  0  0  0
   27.0354  -21.8482  -14.6225 C   0  0  2  0  0  0  0  0  0  0  0  0
   26.9853  -21.5937  -13.2191 N   0  0  0  0  0  0  0  0  0  0  0  0
   28.1466  -21.0488  -15.1656 C   0  0  0  0  0  0  0  0  0  0  0  0
   28.1866  -19.7761  -15.0453 O   0  0  0  0  0  0  0  0  0  0  0  0
   29.2359  -21.5983  -15.8480 O   0  0  0  0  0  0  0  0  0  0  0  0
  1  2  1  0
  2 12  2  0
  3  4  2  0
  3  2  1  0
  4  5  1  0
  5  6  1  0
  5 11  2  0
  7  8  1  6
  7  6  1  0
  7  9  1  0
  9 10  2  0
 12 11  1  0
 14 13  1  1
 14 16  1  0
 15  9  1  0
 15 14  1  0
 16 17  2  0
 18 19  1  0
 20 19  1  0
 21 20  1  0
 22 21  1  6
 22 24  1  0
 23 16  1  0
 23 22  1  0
 24 26  1  0
 25 24  2  0
M  END
$$$$
