YAM.pdb
     RDKit          3D

 26 26  0  0  1  0  0  0  0  0999 V2000
   16.3980  -14.9614  -19.9520 O   0  0  0  0  0  0  0  0  0  0  0  0
   16.6939  -13.7919  -19.2510 C   0  0  0  0  0  0  0  0  0  0  0  0
   15.6238  -12.9811  -18.9074 C   0  0  0  0  0  0  0  0  0  0  0  0
   15.8536  -11.8118  -18.2140 C   0  0  0  0  0  0  0  0  0  0  0  0
   17.1581  -11.4875  -17.8832 C   0  0  0  0  0  0  0  0  0  0  0  0
   17.4163  -10.2450  -17.1452 C   0  0  0  0  0  0  0  0  0  0  0  0
   17.9600  -10.5132  -15.7384 C   0  0  2  0  0  0  0  0  0  0  0  0
   16.8605  -11.0904  -14.9915 N   0  0  0  0  0  0  0  0  0  0  0  0
   18.3649   -9.1932  -15.1930 C   0  0  0  0  0  0  0  0  0  0  0  0
   17.4532   -8.4168  -14.8176 O   0  0  0  0  0  0  0  0  0  0  0  0
   18.2313  -12.2853  -18.2190 C   0  0  0  0  0  0  0  0  0  0  0  0
   17.9811  -13.4470  -18.9102 C   0  0  0  0  0  0  0  0  0  0  0  0
   21.5941   -7.5141  -14.2812 C   0  0  0  0  0  0  0  0  0  0  0  0
   20.1044   -7.4586  -14.6364 C   0  0  2  0  0  0  0  0  0  0  0  0
   19.7080   -8.7618  -15.0722 N   0  0  0  0  0  0  0  0  0  0  0  0
   19.9452   -6.4650  -15.7686 C   0  0  0  0  0  0  0  0  0  0  0  0
   20.2148   -6.7770  -16.9385 O   0  0  0  0  0  0  0  0  0  0  0  0
   16.1581   -0.0089  -18.1784 C   0  0  0  0  0  0  0  0  0  0  0  0
   16.5288   -1.0096  -16.7139 S   0  0  0  0  0  0  0  0  0  0  0  0
   17.8945   -2.1455  -17.1780 C   0  0  0  0  0  0  0  0  0  0  0  0
   18.1169   -3.1794  -16.1091 C   0  0  0  0  0  0  0  0  0  0  0  0
   19.2169   -4.1284  -16.4850 C   0  0  2  0  0  0  0  0  0  0  0  0
   19.4872   -5.1572  -15.5334 N   0  0  0  0  0  0  0  0  0  0  0  0
   20.4664   -3.3703  -16.6659 C   0  0  0  0  0  0  0  0  0  0  0  0
   21.2398   -3.0964  -15.6849 O   0  0  0  0  0  0  0  0  0  0  0  0
   20.9106   -2.8913  -17.9019 O   0  0  0  0  0  0  0  0  0  0  0  0
  1  2  1  0
  2 12  2  0
  3  4  2  0
  3  2  1  0
  4  5  1  0
  5  6  1  0
  5 11  2  0
  7  8  1  1
  7  6  1  0
  7  9  1  0
  9 10  2  0
 12 11  1  0
 14 13  1  6
 14 16  1  0
 15  9  1  0
 15 14  1  0
 16 17  2  0
 18 19  1  0
 20 19  1  0
 21 20  1  0
 22 21  1  1
 22 24  1  0
 23 16  1  0
 23 22  1  0
 24 26  1  0
 25 24  2  0
M  END
$$$$
