YAM.pdb
     RDKit          3D

 26 26  0  0  1  0  0  0  0  0999 V2000
   16.3084  -25.1844   -4.2627 O   0  0  0  0  0  0  0  0  0  0  0  0
   16.5884  -25.3825   -5.6152 C   0  0  0  0  0  0  0  0  0  0  0  0
   17.9141  -25.6034   -5.9535 C   0  0  0  0  0  0  0  0  0  0  0  0
   18.2525  -25.8056   -7.2745 C   0  0  0  0  0  0  0  0  0  0  0  0
   17.2455  -25.7803   -8.2241 C   0  0  0  0  0  0  0  0  0  0  0  0
   17.5928  -25.9940   -9.6344 C   0  0  0  0  0  0  0  0  0  0  0  0
   18.4039  -24.8292  -10.2105 C   0  0  2  0  0  0  0  0  0  0  0  0
   17.5040  -23.6937  -10.2368 N   0  0  0  0  0  0  0  0  0  0  0  0
   18.8094  -25.2438  -11.5770 C   0  0  0  0  0  0  0  0  0  0  0  0
   17.9356  -25.2073  -12.4770 O   0  0  0  0  0  0  0  0  0  0  0  0
   15.9232  -25.5617   -7.9006 C   0  0  0  0  0  0  0  0  0  0  0  0
   15.6062  -25.3623   -6.5779 C   0  0  0  0  0  0  0  0  0  0  0  0
   22.0199  -26.1708  -13.2855 C   0  0  0  0  0  0  0  0  0  0  0  0
   20.4892  -26.1664  -13.2116 C   0  0  2  0  0  0  0  0  0  0  0  0
   20.1133  -25.6744  -11.9224 N   0  0  0  0  0  0  0  0  0  0  0  0
   20.0236  -27.5987  -13.3735 C   0  0  0  0  0  0  0  0  0  0  0  0
   19.7341  -28.2944  -12.3881 O   0  0  0  0  0  0  0  0  0  0  0  0
   15.4589  -29.9078  -17.2811 C   0  0  0  0  0  0  0  0  0  0  0  0
   16.8098  -31.0234  -17.7438 S   0  0  0  0  0  0  0  0  0  0  0  0
   18.0294  -30.9790  -16.3722 C   0  0  0  0  0  0  0  0  0  0  0  0
   18.5872  -29.5937  -16.1970 C   0  0  0  0  0  0  0  0  0  0  0  0
   19.4488  -29.5007  -14.9719 C   0  0  2  0  0  0  0  0  0  0  0  0
   19.9036  -28.1884  -14.6436 N   0  0  0  0  0  0  0  0  0  0  0  0
   20.6465  -30.3366  -15.1607 C   0  0  0  0  0  0  0  0  0  0  0  0
   21.7514  -29.8503  -15.5829 O   0  0  0  0  0  0  0  0  0  0  0  0
   20.6825  -31.7097  -14.9007 O   0  0  0  0  0  0  0  0  0  0  0  0
  1  2  1  0
  2 12  2  0
  3  4  2  0
  3  2  1  0
  4  5  1  0
  5  6  1  0
  5 11  2  0
  7  8  1  6
  7  6  1  0
  7  9  1  0
  9 10  2  0
 12 11  1  0
 14 13  1  1
 14 16  1  0
 15  9  1  0
 15 14  1  0
 16 17  2  0
 18 19  1  0
 20 19  1  0
 21 20  1  0
 22 21  1  6
 22 24  1  0
 23 16  1  0
 23 22  1  0
 24 26  1  0
 25 24  2  0
M  END
$$$$
