YAM.pdb
     RDKit          3D

 26 26  0  0  1  0  0  0  0  0999 V2000
   31.0322  -16.4245  -18.7448 O   0  0  0  0  0  0  0  0  0  0  0  0
   30.1006  -16.6673  -17.7348 C   0  0  0  0  0  0  0  0  0  0  0  0
   30.1705  -17.8986  -17.1025 C   0  0  0  0  0  0  0  0  0  0  0  0
   29.2762  -18.1964  -16.0965 C   0  0  0  0  0  0  0  0  0  0  0  0
   28.3318  -17.2449  -15.7514 C   0  0  0  0  0  0  0  0  0  0  0  0
   27.3735  -17.5499  -14.6819 C   0  0  0  0  0  0  0  0  0  0  0  0
   26.3958  -18.6586  -15.0836 C   0  0  2  0  0  0  0  0  0  0  0  0
   25.4793  -18.0557  -16.0304 N   0  0  0  0  0  0  0  0  0  0  0  0
   25.7064  -19.0739  -13.8361 C   0  0  0  0  0  0  0  0  0  0  0  0
   25.0378  -18.2043  -13.2265 O   0  0  0  0  0  0  0  0  0  0  0  0
   28.2517  -16.0166  -16.3724 C   0  0  0  0  0  0  0  0  0  0  0  0
   29.1524  -15.7388  -17.3731 C   0  0  0  0  0  0  0  0  0  0  0  0
   24.5894  -22.2410  -12.3389 C   0  0  0  0  0  0  0  0  0  0  0  0
   25.0661  -20.8013  -12.1184 C   0  0  2  0  0  0  0  0  0  0  0  0
   25.7581  -20.3824  -13.2979 N   0  0  0  0  0  0  0  0  0  0  0  0
   26.0169  -20.8144  -10.9392 C   0  0  0  0  0  0  0  0  0  0  0  0
   27.1813  -21.2252  -11.0586 O   0  0  0  0  0  0  0  0  0  0  0  0
   30.0793  -19.1890   -6.1352 C   0  0  0  0  0  0  0  0  0  0  0  0
   28.4072  -18.9085   -5.4960 S   0  0  0  0  0  0  0  0  0  0  0  0
   27.3154  -20.1450   -6.3021 C   0  0  0  0  0  0  0  0  0  0  0  0
   26.9478  -19.7079   -7.6931 C   0  0  0  0  0  0  0  0  0  0  0  0
   26.1183  -20.7448   -8.3921 C   0  0  2  0  0  0  0  0  0  0  0  0
   25.6136  -20.3622   -9.6711 N   0  0  0  0  0  0  0  0  0  0  0  0
   24.9553  -21.0778   -7.5523 C   0  0  0  0  0  0  0  0  0  0  0  0
   23.7655  -20.7424   -7.8805 O   0  0  0  0  0  0  0  0  0  0  0  0
   25.0454  -21.7765   -6.3449 O   0  0  0  0  0  0  0  0  0  0  0  0
  1  2  1  0
  2 12  2  0
  3  4  2  0
  3  2  1  0
  4  5  1  0
  5  6  1  0
  5 11  2  0
  7  8  1  6
  7  6  1  0
  7  9  1  0
  9 10  2  0
 12 11  1  0
 14 13  1  6
 14 16  1  0
 15  9  1  0
 15 14  1  0
 16 17  2  0
 18 19  1  0
 20 19  1  0
 21 20  1  0
 22 21  1  1
 22 24  1  0
 23 16  1  0
 23 22  1  0
 24 26  1  0
 25 24  2  0
M  END
$$$$
