YAM.pdb
     RDKit          3D

 26 26  0  0  1  0  0  0  0  0999 V2000
   28.4914  -19.3594   -3.5568 O   0  0  0  0  0  0  0  0  0  0  0  0
   28.0817  -19.7408   -4.8349 C   0  0  0  0  0  0  0  0  0  0  0  0
   26.7159  -19.8134   -5.0581 C   0  0  0  0  0  0  0  0  0  0  0  0
   26.2504  -20.1849   -6.3014 C   0  0  0  0  0  0  0  0  0  0  0  0
   27.1738  -20.4745   -7.2913 C   0  0  0  0  0  0  0  0  0  0  0  0
   26.6910  -20.8716   -8.6196 C   0  0  0  0  0  0  0  0  0  0  0  0
   26.7985  -19.7306   -9.6361 C   0  0  2  0  0  0  0  0  0  0  0  0
   25.9133  -18.6879   -9.1573 N   0  0  0  0  0  0  0  0  0  0  0  0
   26.3425  -20.2888  -10.9339 C   0  0  0  0  0  0  0  0  0  0  0  0
   25.1118  -20.4865  -11.0794 O   0  0  0  0  0  0  0  0  0  0  0  0
   28.5349  -20.4060   -7.0822 C   0  0  0  0  0  0  0  0  0  0  0  0
   28.9789  -20.0337   -5.8355 C   0  0  0  0  0  0  0  0  0  0  0  0
   28.0682  -20.8951  -14.2258 C   0  0  0  0  0  0  0  0  0  0  0  0
   26.8144  -20.6363  -13.3836 C   0  0  2  0  0  0  0  0  0  0  0  0
   27.2069  -20.6087  -12.0086 N   0  0  0  0  0  0  0  0  0  0  0  0
   25.8605  -21.7880  -13.6252 C   0  0  0  0  0  0  0  0  0  0  0  0
   26.1713  -22.9515  -13.3279 O   0  0  0  0  0  0  0  0  0  0  0  0
   20.0906  -23.3638  -11.7722 C   0  0  0  0  0  0  0  0  0  0  0  0
   20.3161  -21.5902  -12.0671 S   0  0  0  0  0  0  0  0  0  0  0  0
   21.6208  -21.4261  -13.3484 C   0  0  0  0  0  0  0  0  0  0  0  0
   22.5165  -22.6338  -13.3576 C   0  0  0  0  0  0  0  0  0  0  0  0
   23.5595  -22.5344  -14.4320 C   0  0  2  0  0  0  0  0  0  0  0  0
   24.5923  -21.5788  -14.1937 N   0  0  0  0  0  0  0  0  0  0  0  0
   22.9107  -22.1600  -15.7000 C   0  0  0  0  0  0  0  0  0  0  0  0
   22.2310  -22.9987  -16.3857 O   0  0  0  0  0  0  0  0  0  0  0  0
   22.9783  -20.8796  -16.2570 O   0  0  0  0  0  0  0  0  0  0  0  0
  1  2  1  0
  2 12  2  0
  3  4  2  0
  3  2  1  0
  4  5  1  0
  5  6  1  0
  5 11  2  0
  7  8  1  1
  7  6  1  0
  7  9  1  0
  9 10  2  0
 12 11  1  0
 14 13  1  6
 14 16  1  0
 15  9  1  0
 15 14  1  0
 16 17  2  0
 18 19  1  0
 20 19  1  0
 21 20  1  0
 22 21  1  1
 22 24  1  0
 23 16  1  0
 23 22  1  0
 24 26  1  0
 25 24  2  0
M  END
$$$$
