SWV.pdb
     RDKit          3D

 28 29  0  0  1  0  0  0  0  0999 V2000
    8.9710  -19.6890   20.5192 O   0  0  0  0  0  0  0  0  0  0  0  0
    7.6204  -19.4621   20.8054 C   0  0  0  0  0  0  0  0  0  0  0  0
    7.3282  -18.0062   20.8695 C   0  0  2  0  0  0  0  0  0  0  0  0
    7.4480  -17.3498   19.5878 N   0  0  0  0  0  0  0  0  0  0  0  0
    8.2023  -17.3344   21.8883 C   0  0  0  0  0  0  0  0  0  0  0  0
    9.1381  -16.5555   21.5140 O   0  0  0  0  0  0  0  0  0  0  0  0
    8.0615  -17.5070   23.2799 N   0  0  0  0  0  0  0  0  0  0  0  0
    8.9634  -16.8925   24.2622 C   0  0  1  0  0  0  0  0  0  0  0  0
    8.2458  -16.8379   25.5540 C   0  0  0  0  0  0  0  0  0  0  0  0
    7.2655  -15.7438   25.6905 C   0  0  0  0  0  0  0  0  0  0  0  0
    5.9005  -15.7026   25.6441 C   0  0  0  0  0  0  0  0  0  0  0  0
    5.4342  -14.4403   25.8073 N   0  0  0  0  0  0  0  0  0  0  0  0
    6.5118  -13.6645   25.9606 C   0  0  0  0  0  0  0  0  0  0  0  0
    6.5787  -12.2849   26.1622 C   0  0  0  0  0  0  0  0  0  0  0  0
    7.7974  -11.6666   26.3002 C   0  0  0  0  0  0  0  0  0  0  0  0
    8.9656  -12.4322   26.2360 C   0  0  0  0  0  0  0  0  0  0  0  0
    8.8785  -13.7789   26.0376 C   0  0  0  0  0  0  0  0  0  0  0  0
    7.6500  -14.4131   25.8972 C   0  0  0  0  0  0  0  0  0  0  0  0
   10.2921  -17.5097   24.2943 C   0  0  0  0  0  0  0  0  0  0  0  0
   10.4222  -18.7442   24.3366 O   0  0  0  0  0  0  0  0  0  0  0  0
   15.1772  -17.0603   23.5670 C   0  0  0  0  0  0  0  0  0  0  0  0
   13.8114  -16.4165   23.6006 C   0  0  1  0  0  0  0  0  0  0  0  0
   13.4376  -16.0315   22.1885 C   0  0  0  0  0  0  0  0  0  0  0  0
   12.8046  -17.3526   24.2450 C   0  0  2  0  0  0  0  0  0  0  0  0
   11.4919  -16.7194   24.2773 N   0  0  0  0  0  0  0  0  0  0  0  0
   13.2853  -17.6222   25.6118 C   0  0  0  0  0  0  0  0  0  0  0  0
   12.6821  -17.0804   26.6012 O   0  0  0  0  0  0  0  0  0  0  0  0
   14.3511  -18.4265   25.9365 O   0  0  0  0  0  0  0  0  0  0  0  0
  1  2  1  0
  3  2  1  0
  3  4  1  6
  5  3  1  0
  5  6  2  0
  7  5  1  0
  8  7  1  0
  8  9  1  1
 10  9  1  0
 10 11  2  0
 12 11  1  0
 13 18  2  0
 13 12  1  0
 14 13  1  0
 15 14  2  0
 16 15  1  0
 16 17  2  0
 17 18  1  0
 18 10  1  0
 19  8  1  0
 20 19  2  0
 22 21  1  6
 22 24  1  0
 23 22  1  0
 24 25  1  1
 25 19  1  0
 26 28  1  0
 26 24  1  0
 27 26  2  0
M  END
$$$$
