SWV.pdb
     RDKit          3D

 28 29  0  0  1  0  0  0  0  0999 V2000
    9.9047  -19.1796   19.7453 O   0  0  0  0  0  0  0  0  0  0  0  0
    8.6675  -18.5779   19.4909 C   0  0  0  0  0  0  0  0  0  0  0  0
    8.8020  -17.0999   19.4100 C   0  0  2  0  0  0  0  0  0  0  0  0
    9.8015  -16.6758   18.4565 N   0  0  0  0  0  0  0  0  0  0  0  0
    9.0871  -16.5186   20.7643 C   0  0  0  0  0  0  0  0  0  0  0  0
   10.2447  -16.0598   21.0326 O   0  0  0  0  0  0  0  0  0  0  0  0
    8.1355  -16.4394   21.8009 N   0  0  0  0  0  0  0  0  0  0  0  0
    8.4579  -15.9721   23.1550 C   0  0  1  0  0  0  0  0  0  0  0  0
    7.1808  -15.7010   23.8494 C   0  0  0  0  0  0  0  0  0  0  0  0
    7.3033  -15.1705   25.2207 C   0  0  0  0  0  0  0  0  0  0  0  0
    7.5815  -15.7527   26.4252 C   0  0  0  0  0  0  0  0  0  0  0  0
    7.5668  -14.8457   27.4323 N   0  0  0  0  0  0  0  0  0  0  0  0
    7.2766  -13.6696   26.8672 C   0  0  0  0  0  0  0  0  0  0  0  0
    7.1426  -12.4165   27.4674 C   0  0  0  0  0  0  0  0  0  0  0  0
    6.8390  -11.3155   26.7045 C   0  0  0  0  0  0  0  0  0  0  0  0
    6.6658  -11.4641   25.3250 C   0  0  0  0  0  0  0  0  0  0  0  0
    6.8005  -12.6974   24.7580 C   0  0  0  0  0  0  0  0  0  0  0  0
    7.1078  -13.8169   25.5219 C   0  0  0  0  0  0  0  0  0  0  0  0
    9.3968  -16.8475   23.8618 C   0  0  0  0  0  0  0  0  0  0  0  0
    9.2478  -18.0805   23.8570 O   0  0  0  0  0  0  0  0  0  0  0  0
   12.9923  -15.2332   25.4904 C   0  0  0  0  0  0  0  0  0  0  0  0
   12.9106  -16.6357   24.9362 C   0  0  1  0  0  0  0  0  0  0  0  0
   14.0004  -17.4604   25.5798 C   0  0  0  0  0  0  0  0  0  0  0  0
   11.5231  -17.2098   25.1607 C   0  0  2  0  0  0  0  0  0  0  0  0
   10.5217  -16.3210   24.5841 N   0  0  0  0  0  0  0  0  0  0  0  0
   11.3385  -17.3245   26.6183 C   0  0  0  0  0  0  0  0  0  0  0  0
   10.5859  -16.4817   27.2179 O   0  0  0  0  0  0  0  0  0  0  0  0
   11.9131  -18.2809   27.4204 O   0  0  0  0  0  0  0  0  0  0  0  0
  1  2  1  0
  3  2  1  0
  3  4  1  6
  5  3  1  0
  5  6  2  0
  7  5  1  0
  8  7  1  0
  8  9  1  1
 10  9  1  0
 10 11  2  0
 12 11  1  0
 13 18  2  0
 13 12  1  0
 14 13  1  0
 15 14  2  0
 16 15  1  0
 16 17  2  0
 17 18  1  0
 18 10  1  0
 19  8  1  0
 20 19  2  0
 22 21  1  1
 22 24  1  0
 23 22  1  0
 24 25  1  1
 25 19  1  0
 26 28  1  0
 26 24  1  0
 27 26  2  0
M  END
$$$$
