SWV.pdb
     RDKit          3D

 28 29  0  0  1  0  0  0  0  0999 V2000
    8.7560  -17.2421   18.8372 O   0  0  0  0  0  0  0  0  0  0  0  0
    7.4346  -17.1349   19.2844 C   0  0  0  0  0  0  0  0  0  0  0  0
    7.2231  -15.8585   20.0158 C   0  0  2  0  0  0  0  0  0  0  0  0
    7.5233  -14.6934   19.2155 N   0  0  0  0  0  0  0  0  0  0  0  0
    8.0163  -15.8399   21.2900 C   0  0  0  0  0  0  0  0  0  0  0  0
    9.0651  -15.1227   21.3801 O   0  0  0  0  0  0  0  0  0  0  0  0
    7.6763  -16.5842   22.4375 N   0  0  0  0  0  0  0  0  0  0  0  0
    8.4224  -16.5030   23.6995 C   0  0  1  0  0  0  0  0  0  0  0  0
    7.4491  -16.6463   24.8034 C   0  0  0  0  0  0  0  0  0  0  0  0
    6.8665  -15.3867   25.3043 C   0  0  0  0  0  0  0  0  0  0  0  0
    5.5821  -14.9376   25.4301 C   0  0  0  0  0  0  0  0  0  0  0  0
    5.5409  -13.6804   25.9350 N   0  0  0  0  0  0  0  0  0  0  0  0
    6.8124  -13.3202   26.1355 C   0  0  0  0  0  0  0  0  0  0  0  0
    7.3156  -12.1206   26.6418 C   0  0  0  0  0  0  0  0  0  0  0  0
    8.6710  -11.9428   26.7744 C   0  0  0  0  0  0  0  0  0  0  0  0
    9.5377  -12.9732   26.3973 C   0  0  0  0  0  0  0  0  0  0  0  0
    9.0258  -14.1374   25.9041 C   0  0  0  0  0  0  0  0  0  0  0  0
    7.6559  -14.3264   25.7667 C   0  0  0  0  0  0  0  0  0  0  0  0
    9.5799  -17.4005   23.7469 C   0  0  0  0  0  0  0  0  0  0  0  0
    9.4866  -18.5832   23.3794 O   0  0  0  0  0  0  0  0  0  0  0  0
   14.4484  -18.0619   23.8836 C   0  0  0  0  0  0  0  0  0  0  0  0
   13.2504  -17.1482   23.7805 C   0  0  1  0  0  0  0  0  0  0  0  0
   13.1428  -16.6724   22.3508 C   0  0  0  0  0  0  0  0  0  0  0  0
   12.0007  -17.8635   24.2618 C   0  0  2  0  0  0  0  0  0  0  0  0
   10.8624  -16.9538   24.2160 N   0  0  0  0  0  0  0  0  0  0  0  0
   12.2630  -18.2983   25.6453 C   0  0  0  0  0  0  0  0  0  0  0  0
   11.7007  -17.6746   26.6102 O   0  0  0  0  0  0  0  0  0  0  0  0
   13.0771  -19.3434   26.0103 O   0  0  0  0  0  0  0  0  0  0  0  0
  1  2  1  0
  3  2  1  0
  3  4  1  6
  5  3  1  0
  5  6  2  0
  7  5  1  0
  8  7  1  0
  8  9  1  1
 10  9  1  0
 10 11  2  0
 12 11  1  0
 13 18  2  0
 13 12  1  0
 14 13  1  0
 15 14  2  0
 16 15  1  0
 16 17  2  0
 17 18  1  0
 18 10  1  0
 19  8  1  0
 20 19  2  0
 22 21  1  6
 22 24  1  0
 23 22  1  0
 24 25  1  1
 25 19  1  0
 26 28  1  0
 26 24  1  0
 27 26  2  0
M  END
$$$$
