SWV.pdb
     RDKit          3D

 28 29  0  0  1  0  0  0  0  0999 V2000
   11.1622  -18.2681   21.1588 O   0  0  0  0  0  0  0  0  0  0  0  0
    9.7736  -18.1653   21.0229 C   0  0  0  0  0  0  0  0  0  0  0  0
    9.3275  -16.7559   21.1767 C   0  0  2  0  0  0  0  0  0  0  0  0
    9.9906  -15.8517   20.2653 N   0  0  0  0  0  0  0  0  0  0  0  0
    9.5032  -16.2959   22.5947 C   0  0  0  0  0  0  0  0  0  0  0  0
   10.3554  -15.3911   22.8726 O   0  0  0  0  0  0  0  0  0  0  0  0
    8.7696  -16.8091   23.6832 N   0  0  0  0  0  0  0  0  0  0  0  0
    8.9270  -16.3235   25.0600 C   0  0  1  0  0  0  0  0  0  0  0  0
    7.6060  -16.4129   25.7184 C   0  0  0  0  0  0  0  0  0  0  0  0
    6.6825  -15.2954   25.4445 C   0  0  0  0  0  0  0  0  0  0  0  0
    5.3920  -15.2389   24.9987 C   0  0  0  0  0  0  0  0  0  0  0  0
    4.9608  -13.9592   24.8813 N   0  0  0  0  0  0  0  0  0  0  0  0
    5.9857  -13.1874   25.2564 C   0  0  0  0  0  0  0  0  0  0  0  0
    6.0593  -11.7948   25.3180 C   0  0  0  0  0  0  0  0  0  0  0  0
    7.2157  -11.1834   25.7367 C   0  0  0  0  0  0  0  0  0  0  0  0
    8.3143  -11.9690   26.0985 C   0  0  0  0  0  0  0  0  0  0  0  0
    8.2220  -13.3283   26.0305 C   0  0  0  0  0  0  0  0  0  0  0  0
    7.0561  -13.9556   25.6085 C   0  0  0  0  0  0  0  0  0  0  0  0
   10.0410  -16.9543   25.7730 C   0  0  0  0  0  0  0  0  0  0  0  0
   10.5021  -18.0456   25.4000 O   0  0  0  0  0  0  0  0  0  0  0  0
   12.9626  -14.8340   27.8290 C   0  0  0  0  0  0  0  0  0  0  0  0
   12.3906  -16.0079   28.5877 C   0  0  1  0  0  0  0  0  0  0  0  0
   11.4275  -15.4754   29.6226 C   0  0  0  0  0  0  0  0  0  0  0  0
   11.7440  -16.9900   27.6273 C   0  0  2  0  0  0  0  0  0  0  0  0
   10.6434  -16.3417   26.9246 N   0  0  0  0  0  0  0  0  0  0  0  0
   11.2506  -18.1182   28.4371 C   0  0  0  0  0  0  0  0  0  0  0  0
    9.9906  -18.3257   28.5119 O   0  0  0  0  0  0  0  0  0  0  0  0
   12.0384  -18.9978   29.1399 O   0  0  0  0  0  0  0  0  0  0  0  0
  1  2  1  0
  3  2  1  0
  3  4  1  6
  5  3  1  0
  5  6  2  0
  7  5  1  0
  8  7  1  0
  8  9  1  1
 10  9  1  0
 10 11  2  0
 12 11  1  0
 13 18  2  0
 13 12  1  0
 14 13  1  0
 15 14  2  0
 16 15  1  0
 16 17  2  0
 17 18  1  0
 18 10  1  0
 19  8  1  0
 20 19  2  0
 22 21  1  6
 22 24  1  0
 23 22  1  0
 24 25  1  1
 25 19  1  0
 26 28  1  0
 26 24  1  0
 27 26  2  0
M  END
$$$$
