SWV.pdb
     RDKit          3D

 28 29  0  0  1  0  0  0  0  0999 V2000
    8.1460  -19.4951   19.7552 O   0  0  0  0  0  0  0  0  0  0  0  0
    9.1490  -18.6636   19.2453 C   0  0  0  0  0  0  0  0  0  0  0  0
    8.7683  -17.2325   19.3722 C   0  0  2  0  0  0  0  0  0  0  0  0
    9.3330  -16.4041   18.3316 N   0  0  0  0  0  0  0  0  0  0  0  0
    9.1412  -16.7029   20.7264 C   0  0  0  0  0  0  0  0  0  0  0  0
   10.3619  -16.4757   21.0104 O   0  0  0  0  0  0  0  0  0  0  0  0
    8.2082  -16.4282   21.7463 N   0  0  0  0  0  0  0  0  0  0  0  0
    8.5904  -15.9312   23.0740 C   0  0  1  0  0  0  0  0  0  0  0  0
    7.4055  -15.2692   23.6609 C   0  0  0  0  0  0  0  0  0  0  0  0
    7.5410  -14.8577   25.0713 C   0  0  0  0  0  0  0  0  0  0  0  0
    7.9776  -15.5029   26.1939 C   0  0  0  0  0  0  0  0  0  0  0  0
    7.9001  -14.7068   27.2882 N   0  0  0  0  0  0  0  0  0  0  0  0
    7.4093  -13.5388   26.8622 C   0  0  0  0  0  0  0  0  0  0  0  0
    7.1381  -12.3814   27.5939 C   0  0  0  0  0  0  0  0  0  0  0  0
    6.6317  -11.2707   26.9644 C   0  0  0  0  0  0  0  0  0  0  0  0
    6.3912  -11.3129   25.5877 C   0  0  0  0  0  0  0  0  0  0  0  0
    6.6624  -12.4538   24.8911 C   0  0  0  0  0  0  0  0  0  0  0  0
    7.1752  -13.5823   25.5194 C   0  0  0  0  0  0  0  0  0  0  0  0
    9.2344  -16.9480   23.9099 C   0  0  0  0  0  0  0  0  0  0  0  0
    8.6902  -18.0457   24.1138 O   0  0  0  0  0  0  0  0  0  0  0  0
   12.8103  -18.2544   23.4216 C   0  0  0  0  0  0  0  0  0  0  0  0
   12.6614  -17.8178   24.8597 C   0  0  1  0  0  0  0  0  0  0  0  0
   13.3425  -16.4788   25.0181 C   0  0  0  0  0  0  0  0  0  0  0  0
   11.1945  -17.7857   25.2501 C   0  0  2  0  0  0  0  0  0  0  0  0
   10.5134  -16.7208   24.5238 N   0  0  0  0  0  0  0  0  0  0  0  0
   11.1439  -17.5391   26.7022 C   0  0  0  0  0  0  0  0  0  0  0  0
   10.6271  -16.4501   27.1302 O   0  0  0  0  0  0  0  0  0  0  0  0
   11.6108  -18.3940   27.6713 O   0  0  0  0  0  0  0  0  0  0  0  0
  1  2  1  0
  3  2  1  0
  3  4  1  6
  5  3  1  0
  5  6  2  0
  7  5  1  0
  8  7  1  0
  8  9  1  1
 10  9  1  0
 10 11  2  0
 12 11  1  0
 13 18  2  0
 13 12  1  0
 14 13  1  0
 15 14  2  0
 16 15  1  0
 16 17  2  0
 17 18  1  0
 18 10  1  0
 19  8  1  0
 20 19  2  0
 22 21  1  6
 22 24  1  0
 23 22  1  0
 24 25  1  6
 25 19  1  0
 26 28  1  0
 26 24  1  0
 27 26  2  0
M  END
$$$$
