SWV.pdb
     RDKit          3D

 28 29  0  0  1  0  0  0  0  0999 V2000
   12.7411  -18.4706   22.0203 O   0  0  0  0  0  0  0  0  0  0  0  0
   12.7742  -17.4496   21.0642 C   0  0  0  0  0  0  0  0  0  0  0  0
   11.4222  -16.8659   20.8632 C   0  0  2  0  0  0  0  0  0  0  0  0
   11.3789  -15.8994   19.7900 N   0  0  0  0  0  0  0  0  0  0  0  0
   10.9118  -16.2594   22.1380 C   0  0  0  0  0  0  0  0  0  0  0  0
   11.3207  -15.1114   22.5087 O   0  0  0  0  0  0  0  0  0  0  0  0
    9.9799  -16.8876   22.9884 N   0  0  0  0  0  0  0  0  0  0  0  0
    9.4391  -16.2538   24.1975 C   0  0  1  0  0  0  0  0  0  0  0  0
    8.0213  -16.6566   24.3165 C   0  0  0  0  0  0  0  0  0  0  0  0
    7.0380  -15.5629   24.1994 C   0  0  0  0  0  0  0  0  0  0  0  0
    5.9178  -15.3928   23.4356 C   0  0  0  0  0  0  0  0  0  0  0  0
    5.3364  -14.1899   23.6645 N   0  0  0  0  0  0  0  0  0  0  0  0
    6.0917  -13.5830   24.5854 C   0  0  0  0  0  0  0  0  0  0  0  0
    5.9260  -12.3245   25.1661 C   0  0  0  0  0  0  0  0  0  0  0  0
    6.8203  -11.8763   26.1072 C   0  0  0  0  0  0  0  0  0  0  0  0
    7.8949  -12.6919   26.4749 C   0  0  0  0  0  0  0  0  0  0  0  0
    8.0393  -13.9181   25.8950 C   0  0  0  0  0  0  0  0  0  0  0  0
    7.1392  -14.3800   24.9422 C   0  0  0  0  0  0  0  0  0  0  0  0
   10.2679  -16.4720   25.3861 C   0  0  0  0  0  0  0  0  0  0  0  0
   11.0960  -17.3968   25.4265 O   0  0  0  0  0  0  0  0  0  0  0  0
    9.3681  -14.5497   28.9353 C   0  0  0  0  0  0  0  0  0  0  0  0
   10.8506  -14.6483   28.6643 C   0  0  1  0  0  0  0  0  0  0  0  0
   11.5540  -14.8951   29.9781 C   0  0  0  0  0  0  0  0  0  0  0  0
   11.1259  -15.7285   27.6335 C   0  0  2  0  0  0  0  0  0  0  0  0
   10.1594  -15.6315   26.5464 N   0  0  0  0  0  0  0  0  0  0  0  0
   11.0001  -17.0230   28.3266 C   0  0  0  0  0  0  0  0  0  0  0  0
   11.9004  -17.3681   29.1673 O   0  0  0  0  0  0  0  0  0  0  0  0
    9.9758  -17.9223   28.1533 O   0  0  0  0  0  0  0  0  0  0  0  0
  1  2  1  0
  3  2  1  0
  3  4  1  6
  5  3  1  0
  5  6  2  0
  7  5  1  0
  8  7  1  0
  8  9  1  1
 10  9  1  0
 10 11  2  0
 12 11  1  0
 13 18  2  0
 13 12  1  0
 14 13  1  0
 15 14  2  0
 16 15  1  0
 16 17  2  0
 17 18  1  0
 18 10  1  0
 19  8  1  0
 20 19  2  0
 22 21  1  1
 22 24  1  0
 23 22  1  0
 24 25  1  6
 25 19  1  0
 26 28  1  0
 26 24  1  0
 27 26  2  0
M  END
$$$$
