SMK.pdb
     RDKit          3D

 24 23  0  0  1  0  0  0  0  0999 V2000
   16.7938   -8.0486  -16.1400 O   0  0  0  0  0  0  0  0  0  0  0  0
   17.0818   -9.4098  -16.2876 C   0  0  0  0  0  0  0  0  0  0  0  0
   18.3975   -9.7461  -15.6181 C   0  0  2  0  0  0  0  0  0  0  0  0
   18.7216  -11.1165  -15.8899 N   0  0  0  0  0  0  0  0  0  0  0  0
   18.3622   -9.5083  -14.1598 C   0  0  0  0  0  0  0  0  0  0  0  0
   17.8068  -10.3567  -13.4286 O   0  0  0  0  0  0  0  0  0  0  0  0
   22.4656   -6.6557   -8.1327 C   0  0  0  0  0  0  0  0  0  0  0  0
   22.0805   -6.5583   -9.8907 S   0  0  0  0  0  0  0  0  0  0  0  0
   20.4581   -7.3582  -10.2099 C   0  0  0  0  0  0  0  0  0  0  0  0
   20.3214   -7.6079  -11.6865 C   0  0  0  0  0  0  0  0  0  0  0  0
   18.9998   -8.1404  -12.1152 C   0  0  2  0  0  0  0  0  0  0  0  0
   18.9287   -8.3634  -13.5476 N   0  0  0  0  0  0  0  0  0  0  0  0
   17.8257   -7.3612  -11.6561 C   0  0  0  0  0  0  0  0  0  0  0  0
   17.4276   -6.3251  -12.2419 O   0  0  0  0  0  0  0  0  0  0  0  0
   17.0674   -7.7533  -10.4996 N   0  0  0  0  0  0  0  0  0  0  0  0
   15.9375   -6.9701  -10.0127 C   0  0  1  0  0  0  0  0  0  0  0  0
   14.9925   -7.8753   -9.2943 C   0  0  0  0  0  0  0  0  0  0  0  0
   13.8316   -7.1424   -8.7164 C   0  0  0  0  0  0  0  0  0  0  0  0
   12.8484   -8.1370   -8.1480 C   0  0  0  0  0  0  0  0  0  0  0  0
   12.1804   -8.9340   -9.2776 C   0  0  0  0  0  0  0  0  0  0  0  0
   11.3170   -9.9060   -8.6328 N   0  0  0  0  0  0  0  0  0  0  0  0
   16.3997   -5.8082   -9.2209 C   0  0  0  0  0  0  0  0  0  0  0  0
   17.6452   -5.7442   -8.6313 O   0  0  0  0  0  0  0  0  0  0  0  0
   15.6337   -4.8097   -9.0600 O   0  0  0  0  0  0  0  0  0  0  0  0
  2  1  1  0
  3  2  1  0
  3  4  1  1
  5  6  2  0
  5  3  1  0
  7  8  1  0
  8  9  1  0
  9 10  1  0
 11 10  1  6
 11 12  1  0
 12  5  1  0
 13 15  1  0
 13 11  1  0
 14 13  2  0
 16 22  1  0
 16 15  1  0
 16 17  1  1
 17 18  1  0
 18 19  1  0
 19 20  1  0
 20 21  1  0
 22 23  1  0
 24 22  2  0
M  END
$$$$
