SMK.pdb
     RDKit          3D

 24 23  0  0  1  0  0  0  0  0999 V2000
   15.0181   -8.9516  -15.8163 O   0  0  0  0  0  0  0  0  0  0  0  0
   15.6438   -9.9814  -16.5274 C   0  0  0  0  0  0  0  0  0  0  0  0
   17.1490   -9.8442  -16.4392 C   0  0  2  0  0  0  0  0  0  0  0  0
   17.7583  -10.9273  -17.1551 N   0  0  0  0  0  0  0  0  0  0  0  0
   17.6296   -9.8203  -15.0417 C   0  0  0  0  0  0  0  0  0  0  0  0
   17.6078  -10.8828  -14.3833 O   0  0  0  0  0  0  0  0  0  0  0  0
   23.0348   -9.1480  -12.5533 C   0  0  0  0  0  0  0  0  0  0  0  0
   22.2811   -7.9323  -11.4568 S   0  0  0  0  0  0  0  0  0  0  0  0
   20.4580   -8.1570  -11.4502 C   0  0  0  0  0  0  0  0  0  0  0  0
   19.9809   -8.3016  -12.8689 C   0  0  0  0  0  0  0  0  0  0  0  0
   18.5249   -8.5685  -13.0193 C   0  0  2  0  0  0  0  0  0  0  0  0
   18.1155   -8.6494  -14.4095 N   0  0  0  0  0  0  0  0  0  0  0  0
   17.6337   -7.6497  -12.2724 C   0  0  0  0  0  0  0  0  0  0  0  0
   17.3402   -6.5022  -12.6874 O   0  0  0  0  0  0  0  0  0  0  0  0
   17.0479   -8.0259  -11.0148 N   0  0  0  0  0  0  0  0  0  0  0  0
   16.0368   -7.2070  -10.3558 C   0  0  1  0  0  0  0  0  0  0  0  0
   15.0205   -8.1020   -9.7277 C   0  0  0  0  0  0  0  0  0  0  0  0
   13.9087   -7.3416   -9.0918 C   0  0  0  0  0  0  0  0  0  0  0  0
   12.9130   -8.3132   -8.5055 C   0  0  0  0  0  0  0  0  0  0  0  0
   11.6997   -7.5604   -7.9412 C   0  0  0  0  0  0  0  0  0  0  0  0
   10.8396   -8.5658   -7.3450 N   0  0  0  0  0  0  0  0  0  0  0  0
   16.6616   -6.2378   -9.4281 C   0  0  0  0  0  0  0  0  0  0  0  0
   16.1110   -5.0062   -9.1399 O   0  0  0  0  0  0  0  0  0  0  0  0
   17.7571   -6.5273   -8.8572 O   0  0  0  0  0  0  0  0  0  0  0  0
  2  1  1  0
  3  2  1  0
  3  4  1  6
  5  6  2  0
  5  3  1  0
  7  8  1  0
  8  9  1  0
  9 10  1  0
 11 10  1  6
 11 12  1  0
 12  5  1  0
 13 15  1  0
 13 11  1  0
 14 13  2  0
 16 22  1  0
 16 15  1  0
 16 17  1  1
 17 18  1  0
 18 19  1  0
 19 20  1  0
 20 21  1  0
 22 23  1  0
 24 22  2  0
M  END
$$$$
