SMK.pdb
     RDKit          3D

 24 23  0  0  1  0  0  0  0  0999 V2000
   26.4401  -18.3691  -15.9857 O   0  0  0  0  0  0  0  0  0  0  0  0
   27.5912  -18.3083  -15.1927 C   0  0  0  0  0  0  0  0  0  0  0  0
   28.1246  -19.7006  -14.9297 C   0  0  2  0  0  0  0  0  0  0  0  0
   28.3777  -20.3473  -16.1845 N   0  0  0  0  0  0  0  0  0  0  0  0
   27.1971  -20.5122  -14.1139 C   0  0  0  0  0  0  0  0  0  0  0  0
   26.6231  -21.4848  -14.6501 O   0  0  0  0  0  0  0  0  0  0  0  0
   26.2116  -19.4856   -7.6658 C   0  0  0  0  0  0  0  0  0  0  0  0
   25.5587  -21.1537   -7.8640 S   0  0  0  0  0  0  0  0  0  0  0  0
   25.1117  -21.4340   -9.6235 C   0  0  0  0  0  0  0  0  0  0  0  0
   26.1609  -20.8048  -10.4978 C   0  0  0  0  0  0  0  0  0  0  0  0
   25.9082  -20.9111  -11.9602 C   0  0  2  0  0  0  0  0  0  0  0  0
   26.9256  -20.2420  -12.7500 N   0  0  0  0  0  0  0  0  0  0  0  0
   24.5563  -20.4919  -12.3999 C   0  0  0  0  0  0  0  0  0  0  0  0
   24.2413  -19.2895  -12.5727 O   0  0  0  0  0  0  0  0  0  0  0  0
   23.5170  -21.4512  -12.6563 N   0  0  0  0  0  0  0  0  0  0  0  0
   22.1908  -21.0522  -13.1137 C   0  0  1  0  0  0  0  0  0  0  0  0
   21.7229  -22.0193  -14.1501 C   0  0  0  0  0  0  0  0  0  0  0  0
   20.3829  -21.6645  -14.6952 C   0  0  0  0  0  0  0  0  0  0  0  0
   19.9205  -22.7570  -15.6290 C   0  0  0  0  0  0  0  0  0  0  0  0
   18.5944  -22.3647  -16.2962 C   0  0  0  0  0  0  0  0  0  0  0  0
   18.3075  -23.4020  -17.2695 N   0  0  0  0  0  0  0  0  0  0  0  0
   21.2661  -20.8782  -11.9712 C   0  0  0  0  0  0  0  0  0  0  0  0
   21.4722  -21.4610  -10.7380 O   0  0  0  0  0  0  0  0  0  0  0  0
   20.2255  -20.1647  -12.1050 O   0  0  0  0  0  0  0  0  0  0  0  0
  2  1  1  0
  3  2  1  0
  3  4  1  6
  5  6  2  0
  5  3  1  0
  7  8  1  0
  8  9  1  0
  9 10  1  0
 11 10  1  1
 11 12  1  0
 12  5  1  0
 13 15  1  0
 13 11  1  0
 14 13  2  0
 16 22  1  0
 16 15  1  0
 16 17  1  6
 17 18  1  0
 18 19  1  0
 19 20  1  0
 20 21  1  0
 22 23  1  0
 24 22  2  0
M  END
$$$$
