SMK.pdb
     RDKit          3D

 24 23  0  0  1  0  0  0  0  0999 V2000
   18.1356  -10.4758  -19.0874 O   0  0  0  0  0  0  0  0  0  0  0  0
   18.8021  -11.6736  -19.3678 C   0  0  0  0  0  0  0  0  0  0  0  0
   19.0369  -12.4571  -18.0938 C   0  0  2  0  0  0  0  0  0  0  0  0
   17.7695  -12.7850  -17.5081 N   0  0  0  0  0  0  0  0  0  0  0  0
   19.8717  -11.7163  -17.1249 C   0  0  0  0  0  0  0  0  0  0  0  0
   19.3235  -11.2284  -16.1129 O   0  0  0  0  0  0  0  0  0  0  0  0
   27.2870  -10.3868  -14.5546 C   0  0  0  0  0  0  0  0  0  0  0  0
   26.1640  -11.1965  -15.7085 S   0  0  0  0  0  0  0  0  0  0  0  0
   24.4669  -10.5305  -15.4844 C   0  0  0  0  0  0  0  0  0  0  0  0
   23.5354  -11.2480  -16.4218 C   0  0  0  0  0  0  0  0  0  0  0  0
   22.1174  -10.8010  -16.3647 C   0  0  2  0  0  0  0  0  0  0  0  0
   21.2669  -11.5314  -17.2866 N   0  0  0  0  0  0  0  0  0  0  0  0
   21.9083   -9.3416  -16.5171 C   0  0  0  0  0  0  0  0  0  0  0  0
   22.0046   -8.7539  -17.6218 O   0  0  0  0  0  0  0  0  0  0  0  0
   21.5794   -8.5069  -15.3940 N   0  0  0  0  0  0  0  0  0  0  0  0
   21.3398   -7.0754  -15.5371 C   0  0  1  0  0  0  0  0  0  0  0  0
   19.8705   -6.8376  -15.6508 C   0  0  0  0  0  0  0  0  0  0  0  0
   19.5386   -5.3940  -15.8078 C   0  0  0  0  0  0  0  0  0  0  0  0
   18.0422   -5.2384  -15.9333 C   0  0  0  0  0  0  0  0  0  0  0  0
   17.6669   -3.7544  -16.0528 C   0  0  0  0  0  0  0  0  0  0  0  0
   16.2406   -3.7166  -16.3176 N   0  0  0  0  0  0  0  0  0  0  0  0
   22.0050   -6.3158  -14.4550 C   0  0  0  0  0  0  0  0  0  0  0  0
   22.4062   -5.0029  -14.5910 O   0  0  0  0  0  0  0  0  0  0  0  0
   22.2303   -6.8746  -13.3384 O   0  0  0  0  0  0  0  0  0  0  0  0
  2  1  1  0
  3  2  1  0
  3  4  1  1
  5  6  2  0
  5  3  1  0
  7  8  1  0
  8  9  1  0
  9 10  1  0
 11 10  1  6
 11 12  1  0
 12  5  1  0
 13 15  1  0
 13 11  1  0
 14 13  2  0
 16 22  1  0
 16 15  1  0
 16 17  1  1
 17 18  1  0
 18 19  1  0
 19 20  1  0
 20 21  1  0
 22 23  1  0
 24 22  2  0
M  END
$$$$
