SMK.pdb
     RDKit          3D

 24 23  0  0  1  0  0  0  0  0999 V2000
   18.5238   -9.8602  -18.9183 O   0  0  0  0  0  0  0  0  0  0  0  0
   19.5544  -10.4247  -19.6778 C   0  0  0  0  0  0  0  0  0  0  0  0
   20.2743  -11.4910  -18.8797 C   0  0  2  0  0  0  0  0  0  0  0  0
   19.3355  -12.5106  -18.5112 N   0  0  0  0  0  0  0  0  0  0  0  0
   20.9326  -10.9423  -17.6755 C   0  0  0  0  0  0  0  0  0  0  0  0
   20.5306  -11.3147  -16.5518 O   0  0  0  0  0  0  0  0  0  0  0  0
   26.5155  -11.5334  -15.5852 C   0  0  0  0  0  0  0  0  0  0  0  0
   26.4906   -9.7707  -15.2106 S   0  0  0  0  0  0  0  0  0  0  0  0
   24.7597   -9.1574  -15.2533 C   0  0  0  0  0  0  0  0  0  0  0  0
   24.0596   -9.7598  -16.4399 C   0  0  0  0  0  0  0  0  0  0  0  0
   22.6229   -9.3968  -16.5744 C   0  0  2  0  0  0  0  0  0  0  0  0
   22.0000  -10.0128  -17.7316 N   0  0  0  0  0  0  0  0  0  0  0  0
   22.3332   -7.9436  -16.5457 C   0  0  0  0  0  0  0  0  0  0  0  0
   22.5605   -7.1869  -17.5208 O   0  0  0  0  0  0  0  0  0  0  0  0
   21.7684   -7.3113  -15.3850 N   0  0  0  0  0  0  0  0  0  0  0  0
   21.4491   -5.8885  -15.3565 C   0  0  1  0  0  0  0  0  0  0  0  0
   19.9718   -5.7247  -15.2180 C   0  0  0  0  0  0  0  0  0  0  0  0
   19.2762   -5.7018  -16.5350 C   0  0  0  0  0  0  0  0  0  0  0  0
   17.7902   -5.5592  -16.3103 C   0  0  0  0  0  0  0  0  0  0  0  0
   17.0421   -5.5798  -17.6510 C   0  0  0  0  0  0  0  0  0  0  0  0
   15.6280   -5.6047  -17.3262 N   0  0  0  0  0  0  0  0  0  0  0  0
   22.2461   -5.1867  -14.3257 C   0  0  0  0  0  0  0  0  0  0  0  0
   22.3097   -3.8123  -14.2269 O   0  0  0  0  0  0  0  0  0  0  0  0
   22.9136   -5.8569  -13.4799 O   0  0  0  0  0  0  0  0  0  0  0  0
  2  1  1  0
  3  2  1  0
  3  4  1  1
  5  6  2  0
  5  3  1  0
  7  8  1  0
  8  9  1  0
  9 10  1  0
 11 10  1  6
 11 12  1  0
 12  5  1  0
 13 15  1  0
 13 11  1  0
 14 13  2  0
 16 22  1  0
 16 15  1  0
 16 17  1  1
 17 18  1  0
 18 19  1  0
 19 20  1  0
 20 21  1  0
 22 23  1  0
 24 22  2  0
M  END
$$$$
