SMK.pdb
     RDKit          3D

 24 23  0  0  1  0  0  0  0  0999 V2000
   26.3421  -19.2229  -15.6131 O   0  0  0  0  0  0  0  0  0  0  0  0
   27.6454  -19.2790  -15.1072 C   0  0  0  0  0  0  0  0  0  0  0  0
   27.9679  -20.6810  -14.6351 C   0  0  2  0  0  0  0  0  0  0  0  0
   27.8773  -21.5800  -15.7489 N   0  0  0  0  0  0  0  0  0  0  0  0
   27.0745  -21.1256  -13.5449 C   0  0  0  0  0  0  0  0  0  0  0  0
   26.2322  -22.0170  -13.7876 O   0  0  0  0  0  0  0  0  0  0  0  0
   27.4376  -20.4562   -6.5954 C   0  0  0  0  0  0  0  0  0  0  0  0
   26.0689  -19.5213   -7.3032 S   0  0  0  0  0  0  0  0  0  0  0  0
   25.4639  -20.3678   -8.8169 C   0  0  0  0  0  0  0  0  0  0  0  0
   26.4886  -20.2079   -9.9058 C   0  0  0  0  0  0  0  0  0  0  0  0
   26.0948  -20.7656  -11.2278 C   0  0  2  0  0  0  0  0  0  0  0  0
   27.1256  -20.5903  -12.2344 N   0  0  0  0  0  0  0  0  0  0  0  0
   24.7856  -20.3013  -11.7447 C   0  0  0  0  0  0  0  0  0  0  0  0
   24.6356  -19.1940  -12.3160 O   0  0  0  0  0  0  0  0  0  0  0  0
   23.5994  -21.1034  -11.6192 N   0  0  0  0  0  0  0  0  0  0  0  0
   22.3363  -20.7198  -12.2394 C   0  0  1  0  0  0  0  0  0  0  0  0
   22.0724  -21.6193  -13.4011 C   0  0  0  0  0  0  0  0  0  0  0  0
   20.7820  -21.3102  -14.0780 C   0  0  0  0  0  0  0  0  0  0  0  0
   20.5411  -22.3196  -15.1744 C   0  0  0  0  0  0  0  0  0  0  0  0
   19.1779  -22.0745  -15.8370 C   0  0  0  0  0  0  0  0  0  0  0  0
   18.9832  -23.1615  -16.7786 N   0  0  0  0  0  0  0  0  0  0  0  0
   21.2474  -20.6709  -11.2382 C   0  0  0  0  0  0  0  0  0  0  0  0
   20.0847  -19.9517  -11.4222 O   0  0  0  0  0  0  0  0  0  0  0  0
   21.3629  -21.3111  -10.1488 O   0  0  0  0  0  0  0  0  0  0  0  0
  2  1  1  0
  3  2  1  0
  3  4  1  6
  5  6  2  0
  5  3  1  0
  7  8  1  0
  8  9  1  0
  9 10  1  0
 11 10  1  1
 11 12  1  0
 12  5  1  0
 13 15  1  0
 13 11  1  0
 14 13  2  0
 16 22  1  0
 16 15  1  0
 16 17  1  6
 17 18  1  0
 18 19  1  0
 19 20  1  0
 20 21  1  0
 22 23  1  0
 24 22  2  0
M  END
$$$$
