CRQ.pdb
     RDKit          3D

 27 26  0  0  1  0  0  0  0  0999 V2000
    7.4408  -19.0020   26.8278 N   0  0  0  0  0  0  0  0  0  0  0  0
    7.7461  -17.6296   26.5703 C   0  0  1  0  0  0  0  0  0  0  0  0
    8.8723  -17.1561   27.4980 C   0  0  0  0  0  0  0  0  0  0  0  0
    8.7548  -15.3856   27.8061 S   0  0  0  0  0  0  0  0  0  0  0  0
    8.1519  -17.3560   25.1832 C   0  0  0  0  0  0  0  0  0  0  0  0
    8.7843  -18.2586   24.5738 O   0  0  0  0  0  0  0  0  0  0  0  0
    7.1757  -14.3934   17.5605 N   0  0  0  0  0  0  0  0  0  0  0  0
    7.6732  -13.1559   18.0668 C   0  0  0  0  0  0  0  0  0  0  0  0
    8.3225  -12.3611   17.3038 N   0  0  0  0  0  0  0  0  0  0  0  0
    7.4680  -12.7727   19.4165 N   0  0  0  0  0  0  0  0  0  0  0  0
    6.9007  -13.6462   20.3877 C   0  0  0  0  0  0  0  0  0  0  0  0
    7.9462  -14.5468   21.0754 C   0  0  0  0  0  0  0  0  0  0  0  0
    7.5057  -14.8627   22.4768 C   0  0  0  0  0  0  0  0  0  0  0  0
    8.3157  -15.9508   23.1083 C   0  0  2  0  0  0  0  0  0  0  0  0
    7.8770  -16.1485   24.4952 N   0  0  0  0  0  0  0  0  0  0  0  0
    9.7712  -15.6646   23.0830 C   0  0  0  0  0  0  0  0  0  0  0  0
   10.3407  -14.7841   23.7687 O   0  0  0  0  0  0  0  0  0  0  0  0
    8.6786  -11.4665   17.6927 N   0  0  0  0  0  0  0  0  0  0  0  0
   14.8838  -18.1940   24.1681 C   0  0  0  0  0  0  0  0  0  0  0  0
   13.5543  -18.6208   24.3738 O   0  0  0  0  0  0  0  0  0  0  0  0
   13.2785  -19.3752   25.3255 C   0  0  0  0  0  0  0  0  0  0  0  0
   12.4138  -18.2068   23.4848 C   0  0  0  0  0  0  0  0  0  0  0  0
   12.9043  -17.3663   22.3411 C   0  0  2  0  0  0  0  0  0  0  0  0
   12.0898  -16.1321   22.2111 N   0  0  0  0  0  0  0  0  0  0  0  0
   10.6632  -16.4101   22.2339 C   0  0  0  0  0  0  0  0  0  0  0  0
   12.4185  -15.3918   20.9881 O   0  0  0  0  0  0  0  0  0  0  0  0
   11.5338  -15.3559   20.0557 O   0  0  0  0  0  0  0  0  0  0  0  0
  2  1  1  6
  3  2  1  0
  4  3  1  0
  5  2  1  0
  5  6  2  0
  7  8  1  0
  8 10  1  0
  9  8  2  0
 10 11  1  0
 12 11  1  0
 12 13  1  0
 14 15  1  0
 14 13  1  1
 15  5  1  0
 16 14  1  0
 17 16  2  0
 18 19  1  0
 19 21  1  0
 19 20  2  0
 21 22  1  0
 23 22  1  1
 23 25  1  0
 23 24  1  0
 24 16  1  0
 25 27  1  0
 26 25  2  0
M  END
$$$$
