CRQ.pdb
     RDKit          3D

 27 26  0  0  1  0  0  0  0  0999 V2000
    6.2560  -14.3876   19.4844 N   0  0  0  0  0  0  0  0  0  0  0  0
    7.5443  -14.4116   20.1030 C   0  0  1  0  0  0  0  0  0  0  0  0
    8.0265  -12.9808   20.3745 C   0  0  0  0  0  0  0  0  0  0  0  0
    8.4113  -12.1255   18.8371 S   0  0  0  0  0  0  0  0  0  0  0  0
    7.5866  -15.1559   21.3709 C   0  0  0  0  0  0  0  0  0  0  0  0
    6.8981  -14.7132   22.3280 O   0  0  0  0  0  0  0  0  0  0  0  0
    6.2558  -22.1465   25.0763 N   0  0  0  0  0  0  0  0  0  0  0  0
    6.9758  -21.2967   25.9677 C   0  0  0  0  0  0  0  0  0  0  0  0
    7.7465  -21.7986   26.8562 N   0  0  0  0  0  0  0  0  0  0  0  0
    6.8600  -19.8850   25.8995 N   0  0  0  0  0  0  0  0  0  0  0  0
    6.8544  -19.1711   24.6674 C   0  0  0  0  0  0  0  0  0  0  0  0
    8.1657  -19.3272   23.8717 C   0  0  0  0  0  0  0  0  0  0  0  0
    8.1006  -18.5081   22.6137 C   0  0  0  0  0  0  0  0  0  0  0  0
    8.3008  -17.0462   22.8621 C   0  0  2  0  0  0  0  0  0  0  0  0
    8.3484  -16.3317   21.5806 N   0  0  0  0  0  0  0  0  0  0  0  0
    9.5351  -16.7640   23.6352 C   0  0  0  0  0  0  0  0  0  0  0  0
   10.6987  -16.8230   23.1745 O   0  0  0  0  0  0  0  0  0  0  0  0
    8.3072  -21.1626   27.4558 N   0  0  0  0  0  0  0  0  0  0  0  0
   10.3365  -12.8597   28.4766 C   0  0  0  0  0  0  0  0  0  0  0  0
    9.9898  -14.1555   28.9158 O   0  0  0  0  0  0  0  0  0  0  0  0
    9.6040  -14.3383   30.0857 C   0  0  0  0  0  0  0  0  0  0  0  0
   10.0604  -15.3679   28.0283 C   0  0  0  0  0  0  0  0  0  0  0  0
   10.6209  -15.0132   26.6811 C   0  0  1  0  0  0  0  0  0  0  0  0
   10.6866  -16.2125   25.8088 N   0  0  0  0  0  0  0  0  0  0  0  0
    9.4759  -16.3880   25.0235 C   0  0  0  0  0  0  0  0  0  0  0  0
   10.9418  -17.4324   26.5826 O   0  0  0  0  0  0  0  0  0  0  0  0
    9.9395  -18.1939   26.8450 O   0  0  0  0  0  0  0  0  0  0  0  0
  2  1  1  1
  3  2  1  0
  4  3  1  0
  5  2  1  0
  5  6  2  0
  7  8  1  0
  8 10  1  0
  9  8  2  0
 10 11  1  0
 12 11  1  0
 12 13  1  0
 14 15  1  0
 14 13  1  6
 15  5  1  0
 16 14  1  0
 17 16  2  0
 18 19  1  0
 19 21  1  0
 19 20  2  0
 21 22  1  0
 23 22  1  6
 23 25  1  0
 23 24  1  0
 24 16  1  0
 25 27  1  0
 26 25  2  0
M  END
$$$$
