CRQ.pdb
     RDKit          3D

 27 26  0  0  1  0  0  0  0  0999 V2000
    7.3973  -14.2436   18.0695 N   0  0  0  0  0  0  0  0  0  0  0  0
    8.4952  -14.0031   18.9525 C   0  0  1  0  0  0  0  0  0  0  0  0
    8.4161  -12.5791   19.5177 C   0  0  0  0  0  0  0  0  0  0  0  0
    8.8956  -11.3639   18.2782 S   0  0  0  0  0  0  0  0  0  0  0  0
    8.5706  -14.9398   20.0840 C   0  0  0  0  0  0  0  0  0  0  0  0
    7.5598  -15.0337   20.8293 O   0  0  0  0  0  0  0  0  0  0  0  0
   14.1486  -20.7137   23.6836 N   0  0  0  0  0  0  0  0  0  0  0  0
   12.8970  -21.3967   23.7294 C   0  0  0  0  0  0  0  0  0  0  0  0
   12.7788  -22.4830   24.3937 N   0  0  0  0  0  0  0  0  0  0  0  0
   11.7577  -20.9000   23.0465 N   0  0  0  0  0  0  0  0  0  0  0  0
   11.8208  -19.8065   22.1366 C   0  0  0  0  0  0  0  0  0  0  0  0
   10.8179  -18.6838   22.4694 C   0  0  0  0  0  0  0  0  0  0  0  0
   10.7478  -17.7069   21.3299 C   0  0  0  0  0  0  0  0  0  0  0  0
    9.6945  -16.6623   21.5252 C   0  0  2  0  0  0  0  0  0  0  0  0
    9.7020  -15.7375   20.3850 N   0  0  0  0  0  0  0  0  0  0  0  0
    9.8754  -15.9001   22.7850 C   0  0  0  0  0  0  0  0  0  0  0  0
   10.7340  -15.0055   22.9647 O   0  0  0  0  0  0  0  0  0  0  0  0
   11.8466  -22.9361   24.4589 N   0  0  0  0  0  0  0  0  0  0  0  0
    5.4355  -13.2317   26.0292 C   0  0  0  0  0  0  0  0  0  0  0  0
    6.5790  -13.0414   26.8346 O   0  0  0  0  0  0  0  0  0  0  0  0
    6.5327  -12.2793   27.8184 C   0  0  0  0  0  0  0  0  0  0  0  0
    7.8920  -13.7250   26.5681 C   0  0  0  0  0  0  0  0  0  0  0  0
    7.8140  -14.5700   25.3292 C   0  0  1  0  0  0  0  0  0  0  0  0
    9.0945  -15.2856   25.1018 N   0  0  0  0  0  0  0  0  0  0  0  0
    9.0423  -16.1478   23.9326 C   0  0  0  0  0  0  0  0  0  0  0  0
    9.4870  -16.0798   26.2710 O   0  0  0  0  0  0  0  0  0  0  0  0
   10.5420  -15.7189   26.9114 O   0  0  0  0  0  0  0  0  0  0  0  0
  2  1  1  1
  3  2  1  0
  4  3  1  0
  5  2  1  0
  5  6  2  0
  7  8  1  0
  8 10  1  0
  9  8  2  0
 10 11  1  0
 12 11  1  0
 12 13  1  0
 14 15  1  0
 14 13  1  6
 15  5  1  0
 16 14  1  0
 17 16  2  0
 18 19  1  0
 19 21  1  0
 19 20  2  0
 21 22  1  0
 23 22  1  6
 23 25  1  0
 23 24  1  0
 24 16  1  0
 25 27  1  0
 26 25  2  0
M  END
$$$$
