CRQ.pdb
     RDKit          3D

 27 26  0  0  1  0  0  0  0  0999 V2000
    6.9885  -13.9573   18.4895 N   0  0  0  0  0  0  0  0  0  0  0  0
    8.0168  -13.9499   19.4822 C   0  0  1  0  0  0  0  0  0  0  0  0
    8.4115  -12.5071   19.8229 C   0  0  0  0  0  0  0  0  0  0  0  0
    9.2699  -11.7289   18.4443 S   0  0  0  0  0  0  0  0  0  0  0  0
    7.6471  -14.6295   20.7331 C   0  0  0  0  0  0  0  0  0  0  0  0
    6.6744  -14.1628   21.3827 O   0  0  0  0  0  0  0  0  0  0  0  0
    9.1266  -21.6188   24.9326 N   0  0  0  0  0  0  0  0  0  0  0  0
    7.7740  -21.4864   25.3663 C   0  0  0  0  0  0  0  0  0  0  0  0
    7.3777  -22.0723   26.4316 N   0  0  0  0  0  0  0  0  0  0  0  0
    6.8360  -20.7116   24.6377 N   0  0  0  0  0  0  0  0  0  0  0  0
    7.1787  -20.0014   23.4520 C   0  0  0  0  0  0  0  0  0  0  0  0
    7.4202  -18.4982   23.6955 C   0  0  0  0  0  0  0  0  0  0  0  0
    7.6246  -17.7945   22.3837 C   0  0  0  0  0  0  0  0  0  0  0  0
    7.9386  -16.3408   22.5480 C   0  0  2  0  0  0  0  0  0  0  0  0
    8.3128  -15.7688   21.2487 N   0  0  0  0  0  0  0  0  0  0  0  0
    9.0254  -16.1005   23.5288 C   0  0  0  0  0  0  0  0  0  0  0  0
   10.2411  -16.3198   23.3198 O   0  0  0  0  0  0  0  0  0  0  0  0
    6.3776  -22.0046   26.7029 N   0  0  0  0  0  0  0  0  0  0  0  0
   11.0106  -14.9943   30.0576 C   0  0  0  0  0  0  0  0  0  0  0  0
   10.1760  -14.3322   29.1317 O   0  0  0  0  0  0  0  0  0  0  0  0
    9.0319  -13.9714   29.4657 C   0  0  0  0  0  0  0  0  0  0  0  0
   10.5981  -14.0263   27.7207 C   0  0  0  0  0  0  0  0  0  0  0  0
    9.4669  -14.2597   26.7610 C   0  0  2  0  0  0  0  0  0  0  0  0
    9.8093  -15.3382   25.8002 N   0  0  0  0  0  0  0  0  0  0  0  0
    8.7442  -15.5777   24.8403 C   0  0  0  0  0  0  0  0  0  0  0  0
   10.1325  -16.5936   26.4867 O   0  0  0  0  0  0  0  0  0  0  0  0
   11.3563  -16.7887   26.8298 O   0  0  0  0  0  0  0  0  0  0  0  0
  2  1  1  6
  3  2  1  0
  4  3  1  0
  5  2  1  0
  5  6  2  0
  7  8  1  0
  8 10  1  0
  9  8  2  0
 10 11  1  0
 12 11  1  0
 12 13  1  0
 14 15  1  0
 14 13  1  6
 15  5  1  0
 16 14  1  0
 17 16  2  0
 18 19  1  0
 19 21  1  0
 19 20  2  0
 21 22  1  0
 23 22  1  6
 23 25  1  0
 23 24  1  0
 24 16  1  0
 25 27  1  0
 26 25  2  0
M  END
$$$$
