CRQ.pdb
     RDKit          3D

 27 26  0  0  1  0  0  0  0  0999 V2000
    7.9447  -14.8139   17.6593 N   0  0  0  0  0  0  0  0  0  0  0  0
    8.3735  -14.2785   18.9132 C   0  0  1  0  0  0  0  0  0  0  0  0
    7.8744  -12.8364   19.0701 C   0  0  0  0  0  0  0  0  0  0  0  0
    8.2949  -12.1796   20.6933 S   0  0  0  0  0  0  0  0  0  0  0  0
    7.9185  -15.0486   20.0808 C   0  0  0  0  0  0  0  0  0  0  0  0
    6.8522  -15.7081   19.9625 O   0  0  0  0  0  0  0  0  0  0  0  0
   10.9984  -17.9929   18.4181 N   0  0  0  0  0  0  0  0  0  0  0  0
   11.8638  -18.7300   19.2800 C   0  0  0  0  0  0  0  0  0  0  0  0
   13.0917  -18.9027   18.9673 N   0  0  0  0  0  0  0  0  0  0  0  0
   11.3955  -19.2899   20.4958 N   0  0  0  0  0  0  0  0  0  0  0  0
   10.0861  -19.0490   21.0011 C   0  0  0  0  0  0  0  0  0  0  0  0
    9.8591  -17.5824   21.4187 C   0  0  0  0  0  0  0  0  0  0  0  0
    8.4762  -17.4202   21.9836 C   0  0  0  0  0  0  0  0  0  0  0  0
    8.1754  -16.0109   22.3862 C   0  0  2  0  0  0  0  0  0  0  0  0
    8.6008  -15.0941   21.3215 N   0  0  0  0  0  0  0  0  0  0  0  0
    8.8314  -15.6309   23.6614 C   0  0  0  0  0  0  0  0  0  0  0  0
   10.0646  -15.4691   23.8129 O   0  0  0  0  0  0  0  0  0  0  0  0
   13.7035  -19.4471   19.6058 N   0  0  0  0  0  0  0  0  0  0  0  0
    5.9106  -11.7393   27.3662 C   0  0  0  0  0  0  0  0  0  0  0  0
    6.4848  -11.6539   26.0796 O   0  0  0  0  0  0  0  0  0  0  0  0
    6.2001  -10.7023   25.3284 C   0  0  0  0  0  0  0  0  0  0  0  0
    7.4502  -12.6751   25.5436 C   0  0  0  0  0  0  0  0  0  0  0  0
    7.7624  -13.7137   26.5822 C   0  0  2  0  0  0  0  0  0  0  0  0
    8.6477  -14.7653   26.0219 N   0  0  0  0  0  0  0  0  0  0  0  0
    8.0634  -15.4137   24.8595 C   0  0  0  0  0  0  0  0  0  0  0  0
    8.9840  -15.7820   27.0244 O   0  0  0  0  0  0  0  0  0  0  0  0
    8.5570  -16.9788   26.8278 O   0  0  0  0  0  0  0  0  0  0  0  0
  2  1  1  6
  3  2  1  0
  4  3  1  0
  5  2  1  0
  5  6  2  0
  7  8  1  0
  8 10  1  0
  9  8  2  0
 10 11  1  0
 12 11  1  0
 12 13  1  0
 14 15  1  0
 14 13  1  6
 15  5  1  0
 16 14  1  0
 17 16  2  0
 18 19  1  0
 19 21  1  0
 19 20  2  0
 21 22  1  0
 23 22  1  6
 23 25  1  0
 23 24  1  0
 24 16  1  0
 25 27  1  0
 26 25  2  0
M  END
$$$$
