EIC.pdb
     RDKit          3D

 24 23  0  0  1  0  0  0  0  0999 V2000
    9.0154  -15.4777   20.5112 N   0  0  0  0  0  0  0  0  0  0  0  0
    8.1584  -15.8162   21.5909 C   0  0  1  0  0  0  0  0  0  0  0  0
    7.8457  -17.2847   21.5847 C   0  0  0  0  0  0  0  0  0  0  0  0
    8.2613  -18.0353   20.3763 C   0  0  0  0  0  0  0  0  0  0  0  0
    7.8611  -19.4302   20.2688 C   0  0  0  0  0  0  0  0  0  0  0  0
    6.8698  -19.6755   19.4944 O   0  0  0  0  0  0  0  0  0  0  0  0
    8.6612  -15.3555   22.9099 C   0  0  0  0  0  0  0  0  0  0  0  0
    9.8842  -15.3165   23.1395 O   0  0  0  0  0  0  0  0  0  0  0  0
    8.4145  -20.5204   20.8985 O   0  0  0  0  0  0  0  0  0  0  0  0
    5.7698  -11.7148   25.9948 C   0  0  0  0  0  0  0  0  0  0  0  0
    6.8612  -12.4850   25.3376 C   0  0  0  0  0  0  0  0  0  0  0  0
    7.4526  -13.6222   26.0638 C   0  0  2  0  0  0  0  0  0  0  0  0
    8.1611  -13.1821   27.3430 C   0  0  0  0  0  0  0  0  0  0  0  0
    8.2649  -14.5428   25.2531 C   0  0  2  0  0  0  0  0  0  0  0  0
    7.7684  -14.9403   23.9696 N   0  0  0  0  0  0  0  0  0  0  0  0
    8.5769  -15.7692   26.0793 C   0  0  0  0  0  0  0  0  0  0  0  0
    8.0723  -16.8847   25.7855 O   0  0  0  0  0  0  0  0  0  0  0  0
    9.4435  -15.6866   27.2026 N   0  0  0  0  0  0  0  0  0  0  0  0
   10.2864  -16.7924   27.5588 C   0  0  1  0  0  0  0  0  0  0  0  0
   11.1877  -17.1332   26.3916 C   0  0  0  0  0  0  0  0  0  0  0  0
   12.1319  -18.6422   26.6929 S   0  0  0  0  0  0  0  0  0  0  0  0
   11.0351  -16.5756   28.7918 C   0  0  0  0  0  0  0  0  0  0  0  0
   11.3525  -15.4199   29.1420 O   0  0  0  0  0  0  0  0  0  0  0  0
   11.4045  -17.6394   29.5918 O   0  0  0  0  0  0  0  0  0  0  0  0
  2  3  1  0
  2  1  1  6
  4  3  1  0
  5  4  1  0
  5  6  2  0
  7  8  2  0
  7  2  1  0
  9  5  1  0
 10 11  1  0
 11 12  1  0
 12 14  1  0
 12 13  1  1
 14 15  1  6
 15  7  1  0
 16 17  2  0
 16 14  1  0
 18 16  1  0
 19 20  1  6
 19 18  1  0
 21 20  1  0
 22 19  1  0
 23 22  2  0
 24 22  1  0
M  END
$$$$
