EIC.pdb
     RDKit          3D

 24 23  0  0  1  0  0  0  0  0999 V2000
    7.2037  -17.0863   21.8073 N   0  0  0  0  0  0  0  0  0  0  0  0
    8.5185  -16.5668   21.6805 C   0  0  1  0  0  0  0  0  0  0  0  0
    8.6864  -15.8518   20.3709 C   0  0  0  0  0  0  0  0  0  0  0  0
    9.0864  -16.6902   19.2163 C   0  0  0  0  0  0  0  0  0  0  0  0
   10.4537  -16.5760   18.7316 C   0  0  0  0  0  0  0  0  0  0  0  0
   11.2852  -17.4438   19.1765 O   0  0  0  0  0  0  0  0  0  0  0  0
    8.9359  -15.7299   22.8339 C   0  0  0  0  0  0  0  0  0  0  0  0
    9.6037  -14.6950   22.6526 O   0  0  0  0  0  0  0  0  0  0  0  0
   10.9662  -15.6483   17.8552 O   0  0  0  0  0  0  0  0  0  0  0  0
    7.0401  -11.7287   26.2137 C   0  0  0  0  0  0  0  0  0  0  0  0
    7.9435  -12.9121   26.2120 C   0  0  0  0  0  0  0  0  0  0  0  0
    7.8153  -13.8906   25.1183 C   0  0  2  0  0  0  0  0  0  0  0  0
    6.3561  -14.2027   24.7936 C   0  0  0  0  0  0  0  0  0  0  0  0
    8.6395  -15.1024   25.2477 C   0  0  2  0  0  0  0  0  0  0  0  0
    8.5929  -16.0742   24.1963 N   0  0  0  0  0  0  0  0  0  0  0  0
    8.3212  -15.7661   26.5676 C   0  0  0  0  0  0  0  0  0  0  0  0
    7.1285  -16.0020   26.8946 O   0  0  0  0  0  0  0  0  0  0  0  0
    9.3605  -16.1349   27.4640 N   0  0  0  0  0  0  0  0  0  0  0  0
    9.7426  -17.5102   27.6145 C   0  0  1  0  0  0  0  0  0  0  0  0
   10.1305  -18.0743   26.2646 C   0  0  0  0  0  0  0  0  0  0  0  0
    9.8789  -19.8605   26.1879 S   0  0  0  0  0  0  0  0  0  0  0  0
   10.7797  -17.7160   28.6194 C   0  0  0  0  0  0  0  0  0  0  0  0
   11.7684  -16.9552   28.6703 O   0  0  0  0  0  0  0  0  0  0  0  0
   10.6876  -18.7508   29.5299 O   0  0  0  0  0  0  0  0  0  0  0  0
  2  3  1  0
  2  1  1  1
  4  3  1  0
  5  4  1  0
  5  6  2  0
  7  8  2  0
  7  2  1  0
  9  5  1  0
 10 11  1  0
 11 12  1  0
 12 14  1  0
 12 13  1  1
 14 15  1  6
 15  7  1  0
 16 17  2  0
 16 14  1  0
 18 16  1  0
 19 20  1  6
 19 18  1  0
 21 20  1  0
 22 19  1  0
 23 22  2  0
 24 22  1  0
M  END
$$$$
