EIC.pdb
     RDKit          3D

 24 23  0  0  1  0  0  0  0  0999 V2000
    9.0348  -14.6662   20.5176 N   0  0  0  0  0  0  0  0  0  0  0  0
    8.6361  -15.5585   21.5469 C   0  0  1  0  0  0  0  0  0  0  0  0
    9.1161  -16.9523   21.2613 C   0  0  0  0  0  0  0  0  0  0  0  0
    8.2635  -18.0529   21.7692 C   0  0  0  0  0  0  0  0  0  0  0  0
    8.9182  -19.1786   22.4186 C   0  0  0  0  0  0  0  0  0  0  0  0
    8.1792  -19.9022   23.1753 O   0  0  0  0  0  0  0  0  0  0  0  0
    9.0206  -15.1006   22.9062 C   0  0  0  0  0  0  0  0  0  0  0  0
   10.1614  -14.6504   23.1203 O   0  0  0  0  0  0  0  0  0  0  0  0
   10.2356  -19.5617   22.3229 O   0  0  0  0  0  0  0  0  0  0  0  0
    6.0050  -11.8547   25.8501 C   0  0  0  0  0  0  0  0  0  0  0  0
    7.1219  -12.6612   25.2856 C   0  0  0  0  0  0  0  0  0  0  0  0
    7.6233  -13.8066   26.0647 C   0  0  2  0  0  0  0  0  0  0  0  0
    8.2106  -13.3764   27.4071 C   0  0  0  0  0  0  0  0  0  0  0  0
    8.4969  -14.7394   25.3358 C   0  0  2  0  0  0  0  0  0  0  0  0
    8.1037  -15.1577   24.0235 N   0  0  0  0  0  0  0  0  0  0  0  0
    8.7419  -15.9522   26.2036 C   0  0  0  0  0  0  0  0  0  0  0  0
    8.3824  -17.0965   25.8210 O   0  0  0  0  0  0  0  0  0  0  0  0
    9.3805  -15.8240   27.4667 N   0  0  0  0  0  0  0  0  0  0  0  0
   10.3895  -16.7600   27.8742 C   0  0  1  0  0  0  0  0  0  0  0  0
   11.4680  -16.8290   26.8145 C   0  0  0  0  0  0  0  0  0  0  0  0
   11.1934  -18.1962   25.6677 S   0  0  0  0  0  0  0  0  0  0  0  0
   10.9325  -16.4849   29.1998 C   0  0  0  0  0  0  0  0  0  0  0  0
   11.1535  -15.3097   29.5594 O   0  0  0  0  0  0  0  0  0  0  0  0
   11.2102  -17.5140   30.0784 O   0  0  0  0  0  0  0  0  0  0  0  0
  2  3  1  0
  2  1  1  6
  4  3  1  0
  5  4  1  0
  5  6  2  0
  7  8  2  0
  7  2  1  0
  9  5  1  0
 10 11  1  0
 11 12  1  0
 12 14  1  0
 12 13  1  1
 14 15  1  6
 15  7  1  0
 16 17  2  0
 16 14  1  0
 18 16  1  0
 19 20  1  6
 19 18  1  0
 21 20  1  0
 22 19  1  0
 23 22  2  0
 24 22  1  0
M  END
$$$$
