EIC.pdb
     RDKit          3D

 24 23  0  0  1  0  0  0  0  0999 V2000
   10.2599  -17.6874   16.5131 N   0  0  0  0  0  0  0  0  0  0  0  0
    9.2283  -17.7637   17.4850 C   0  0  1  0  0  0  0  0  0  0  0  0
    8.9090  -19.1935   17.8141 C   0  0  0  0  0  0  0  0  0  0  0  0
    7.9134  -19.4086   18.8905 C   0  0  0  0  0  0  0  0  0  0  0  0
    7.6392  -20.7771   19.3022 C   0  0  0  0  0  0  0  0  0  0  0  0
    6.4234  -21.1674   19.1922 O   0  0  0  0  0  0  0  0  0  0  0  0
    9.5023  -16.9562   18.7007 C   0  0  0  0  0  0  0  0  0  0  0  0
   10.6578  -16.8768   19.1573 O   0  0  0  0  0  0  0  0  0  0  0  0
    8.5246  -21.7052   19.7984 O   0  0  0  0  0  0  0  0  0  0  0  0
    6.9067  -12.0842   19.5865 C   0  0  0  0  0  0  0  0  0  0  0  0
    7.8807  -13.2093   19.5423 C   0  0  0  0  0  0  0  0  0  0  0  0
    7.9013  -14.1635   20.6646 C   0  0  2  0  0  0  0  0  0  0  0  0
    8.1390  -13.4707   22.0045 C   0  0  0  0  0  0  0  0  0  0  0  0
    8.7546  -15.3475   20.4786 C   0  0  2  0  0  0  0  0  0  0  0  0
    8.4571  -16.2394   19.3980 N   0  0  0  0  0  0  0  0  0  0  0  0
    8.8013  -16.1197   21.7768 C   0  0  0  0  0  0  0  0  0  0  0  0
    7.8164  -16.8118   22.1459 O   0  0  0  0  0  0  0  0  0  0  0  0
    9.9554  -16.0785   22.6049 N   0  0  0  0  0  0  0  0  0  0  0  0
   10.1499  -17.0564   23.6374 C   0  0  1  0  0  0  0  0  0  0  0  0
   10.1647  -18.4395   23.0228 C   0  0  0  0  0  0  0  0  0  0  0  0
   10.3866  -19.7247   24.2712 S   0  0  0  0  0  0  0  0  0  0  0  0
   11.3277  -16.8032   24.4599 C   0  0  0  0  0  0  0  0  0  0  0  0
   12.1526  -15.9268   24.1273 O   0  0  0  0  0  0  0  0  0  0  0  0
   11.5513  -17.5239   25.6169 O   0  0  0  0  0  0  0  0  0  0  0  0
  2  3  1  0
  2  1  1  6
  4  3  1  0
  5  4  1  0
  5  6  2  0
  7  8  2  0
  7  2  1  0
  9  5  1  0
 10 11  1  0
 11 12  1  0
 12 14  1  0
 12 13  1  1
 14 15  1  6
 15  7  1  0
 16 17  2  0
 16 14  1  0
 18 16  1  0
 19 20  1  6
 19 18  1  0
 21 20  1  0
 22 19  1  0
 23 22  2  0
 24 22  1  0
M  END
$$$$
