EIC.pdb
     RDKit          3D

 24 23  0  0  1  0  0  0  0  0999 V2000
    9.0035  -15.6067   20.3460 N   0  0  0  0  0  0  0  0  0  0  0  0
    8.7996  -16.2021   21.6182 C   0  0  1  0  0  0  0  0  0  0  0  0
    9.5229  -17.5143   21.7161 C   0  0  0  0  0  0  0  0  0  0  0  0
    9.0108  -18.6073   20.8564 C   0  0  0  0  0  0  0  0  0  0  0  0
    9.5215  -19.9507   21.0847 C   0  0  0  0  0  0  0  0  0  0  0  0
    9.0316  -20.8748   20.3440 O   0  0  0  0  0  0  0  0  0  0  0  0
    9.1224  -15.2980   22.7512 C   0  0  0  0  0  0  0  0  0  0  0  0
   10.1209  -14.5562   22.7006 O   0  0  0  0  0  0  0  0  0  0  0  0
   10.4651  -20.3531   22.0007 O   0  0  0  0  0  0  0  0  0  0  0  0
    5.4056  -12.3062   25.3805 C   0  0  0  0  0  0  0  0  0  0  0  0
    6.6681  -12.8587   24.8171 C   0  0  0  0  0  0  0  0  0  0  0  0
    7.5472  -13.6423   25.7022 C   0  0  2  0  0  0  0  0  0  0  0  0
    8.0315  -12.8278   26.8998 C   0  0  0  0  0  0  0  0  0  0  0  0
    8.6362  -14.3724   25.0347 C   0  0  2  0  0  0  0  0  0  0  0  0
    8.3067  -15.2409   23.9443 N   0  0  0  0  0  0  0  0  0  0  0  0
    9.4157  -15.1395   26.0777 C   0  0  0  0  0  0  0  0  0  0  0  0
    9.2095  -16.3687   26.2557 O   0  0  0  0  0  0  0  0  0  0  0  0
   10.3940  -14.4886   26.8771 N   0  0  0  0  0  0  0  0  0  0  0  0
   11.0300  -15.1804   27.9620 C   0  0  1  0  0  0  0  0  0  0  0  0
   11.2578  -14.2172   29.1071 C   0  0  0  0  0  0  0  0  0  0  0  0
   11.7321  -15.0776   30.6218 S   0  0  0  0  0  0  0  0  0  0  0  0
   10.3148  -16.3804   28.3817 C   0  0  0  0  0  0  0  0  0  0  0  0
    9.1017  -16.3225   28.6717 O   0  0  0  0  0  0  0  0  0  0  0  0
   10.9625  -17.5977   28.4650 O   0  0  0  0  0  0  0  0  0  0  0  0
  2  3  1  0
  2  1  1  6
  4  3  1  0
  5  4  1  0
  5  6  2  0
  7  8  2  0
  7  2  1  0
  9  5  1  0
 10 11  1  0
 11 12  1  0
 12 14  1  0
 12 13  1  1
 14 15  1  6
 15  7  1  0
 16 17  2  0
 16 14  1  0
 18 16  1  0
 19 20  1  1
 19 18  1  0
 21 20  1  0
 22 19  1  0
 23 22  2  0
 24 22  1  0
M  END
$$$$
