EIC.pdb
     RDKit          3D

 24 23  0  0  1  0  0  0  0  0999 V2000
   12.3716  -16.0641   16.3874 N   0  0  0  0  0  0  0  0  0  0  0  0
   11.2699  -16.5724   17.1240 C   0  0  1  0  0  0  0  0  0  0  0  0
   11.3531  -18.0665   17.2470 C   0  0  0  0  0  0  0  0  0  0  0  0
   12.5881  -18.6024   17.8665 C   0  0  0  0  0  0  0  0  0  0  0  0
   12.7512  -20.0473   17.9229 C   0  0  0  0  0  0  0  0  0  0  0  0
   13.8651  -20.4723   18.3930 O   0  0  0  0  0  0  0  0  0  0  0  0
   11.0849  -15.9108   18.4405 C   0  0  0  0  0  0  0  0  0  0  0  0
   12.0705  -15.6176   19.1424 O   0  0  0  0  0  0  0  0  0  0  0  0
   11.8569  -21.0159   17.5309 O   0  0  0  0  0  0  0  0  0  0  0  0
    6.7437  -12.5616   19.3227 C   0  0  0  0  0  0  0  0  0  0  0  0
    8.1311  -13.0876   19.4454 C   0  0  0  0  0  0  0  0  0  0  0  0
    8.3987  -14.1324   20.4489 C   0  0  2  0  0  0  0  0  0  0  0  0
    8.3019  -13.5977   21.8760 C   0  0  0  0  0  0  0  0  0  0  0  0
    9.6109  -14.9354   20.2248 C   0  0  2  0  0  0  0  0  0  0  0  0
    9.7743  -15.5845   18.9584 N   0  0  0  0  0  0  0  0  0  0  0  0
    9.7306  -15.9525   21.3362 C   0  0  0  0  0  0  0  0  0  0  0  0
    9.0275  -16.9968   21.3271 O   0  0  0  0  0  0  0  0  0  0  0  0
   10.6368  -15.7490   22.4119 N   0  0  0  0  0  0  0  0  0  0  0  0
   10.7362  -16.7076   23.4756 C   0  0  1  0  0  0  0  0  0  0  0  0
   12.1758  -17.1527   23.6177 C   0  0  0  0  0  0  0  0  0  0  0  0
   12.9134  -17.5543   22.0195 S   0  0  0  0  0  0  0  0  0  0  0  0
   10.1762  -16.2333   24.7362 C   0  0  0  0  0  0  0  0  0  0  0  0
    9.7563  -15.0618   24.8387 O   0  0  0  0  0  0  0  0  0  0  0  0
   10.0992  -17.0672   25.8348 O   0  0  0  0  0  0  0  0  0  0  0  0
  2  3  1  0
  2  1  1  1
  4  3  1  0
  5  4  1  0
  5  6  2  0
  7  8  2  0
  7  2  1  0
  9  5  1  0
 10 11  1  0
 11 12  1  0
 12 14  1  0
 12 13  1  1
 14 15  1  6
 15  7  1  0
 16 17  2  0
 16 14  1  0
 18 16  1  0
 19 20  1  1
 19 18  1  0
 21 20  1  0
 22 19  1  0
 23 22  2  0
 24 22  1  0
M  END
$$$$
