INS.pdb
     RDKit          3D

 23 22  0  0  1  0  0  0  0  0999 V2000
   30.5237  -25.7143  -20.3227 C   0  0  0  0  0  0  0  0  0  0  0  0
   30.5786  -26.8360  -19.3008 C   0  0  0  0  0  0  0  0  0  0  0  0
   29.3307  -26.7733  -18.4836 C   0  0  2  0  0  0  0  0  0  0  0  0
   28.1337  -26.5466  -19.3688 C   0  0  0  0  0  0  0  0  0  0  0  0
   29.3560  -25.6985  -17.4225 C   0  0  2  0  0  0  0  0  0  0  0  0
   30.4217  -25.9185  -16.4719 N   0  0  0  0  0  0  0  0  0  0  0  0
   28.0697  -25.5903  -16.7051 C   0  0  0  0  0  0  0  0  0  0  0  0
   27.5888  -26.6226  -16.1877 O   0  0  0  0  0  0  0  0  0  0  0  0
   24.2700  -23.8695  -13.7764 N   0  0  0  0  0  0  0  0  0  0  0  0
   24.9187  -22.7308  -14.3057 C   0  0  0  0  0  0  0  0  0  0  0  0
   24.6710  -21.6100  -13.7957 O   0  0  0  0  0  0  0  0  0  0  0  0
   25.8676  -22.7908  -15.4222 C   0  0  0  0  0  0  0  0  0  0  0  0
   26.1315  -24.1797  -15.9235 C   0  0  2  0  0  0  0  0  0  0  0  0
   27.3781  -24.3536  -16.5938 N   0  0  0  0  0  0  0  0  0  0  0  0
   24.9770  -24.7093  -16.7261 C   0  0  0  0  0  0  0  0  0  0  0  0
   24.7715  -24.3805  -17.9241 O   0  0  0  0  0  0  0  0  0  0  0  0
   23.2061  -28.3850  -16.0472 O   0  0  0  0  0  0  0  0  0  0  0  0
   22.3501  -27.2968  -15.9878 C   0  0  0  0  0  0  0  0  0  0  0  0
   22.9155  -26.1721  -16.8558 C   0  0  2  0  0  0  0  0  0  0  0  0
   24.0418  -25.6230  -16.1675 N   0  0  0  0  0  0  0  0  0  0  0  0
   21.8747  -25.1005  -16.9570 C   0  0  0  0  0  0  0  0  0  0  0  0
   21.8351  -24.1446  -16.1592 O   0  0  0  0  0  0  0  0  0  0  0  0
   20.9088  -25.1501  -17.9657 O   0  0  0  0  0  0  0  0  0  0  0  0
  2  1  1  0
  3  2  1  0
  3  4  1  6
  5  3  1  0
  5  6  1  1
  7  5  1  0
  7  8  2  0
  9 10  1  0
 10 12  1  0
 11 10  2  0
 13 12  1  6
 14 13  1  0
 14  7  1  0
 15 16  2  0
 15 13  1  0
 17 18  1  0
 19 18  1  1
 19 20  1  0
 19 21  1  0
 20 15  1  0
 21 23  1  0
 22 21  2  0
M  END
$$$$
