INS.pdb
     RDKit          3D

 23 22  0  0  1  0  0  0  0  0999 V2000
   26.6247  -14.8097  -14.9922 C   0  0  0  0  0  0  0  0  0  0  0  0
   25.2988  -15.1732  -15.6367 C   0  0  0  0  0  0  0  0  0  0  0  0
   24.5590  -13.9055  -15.9098 C   0  0  2  0  0  0  0  0  0  0  0  0
   24.2638  -13.1815  -14.6228 C   0  0  0  0  0  0  0  0  0  0  0  0
   23.2617  -14.1109  -16.6558 C   0  0  2  0  0  0  0  0  0  0  0  0
   23.4584  -14.8950  -17.8535 N   0  0  0  0  0  0  0  0  0  0  0  0
   22.6084  -12.8331  -17.0045 C   0  0  0  0  0  0  0  0  0  0  0  0
   23.2373  -12.0187  -17.7158 O   0  0  0  0  0  0  0  0  0  0  0  0
   18.1179  -13.5109  -18.4820 N   0  0  0  0  0  0  0  0  0  0  0  0
   19.0145  -12.4185  -18.4646 C   0  0  0  0  0  0  0  0  0  0  0  0
   19.7145  -12.2028  -19.4850 O   0  0  0  0  0  0  0  0  0  0  0  0
   19.1700  -11.5226  -17.3141 C   0  0  0  0  0  0  0  0  0  0  0  0
   20.5936  -11.3221  -16.8861 C   0  0  2  0  0  0  0  0  0  0  0  0
   21.2985  -12.5162  -16.5533 N   0  0  0  0  0  0  0  0  0  0  0  0
   20.7089  -10.2773  -15.8124 C   0  0  0  0  0  0  0  0  0  0  0  0
   21.0884  -10.5419  -14.6413 O   0  0  0  0  0  0  0  0  0  0  0  0
   22.3773   -6.6329  -14.1244 O   0  0  0  0  0  0  0  0  0  0  0  0
   22.1078   -7.7751  -14.8613 C   0  0  0  0  0  0  0  0  0  0  0  0
   20.6081   -7.8356  -15.1531 C   0  0  2  0  0  0  0  0  0  0  0  0
   20.3911   -8.9148  -16.0654 N   0  0  0  0  0  0  0  0  0  0  0  0
   20.2219   -6.5661  -15.8467 C   0  0  0  0  0  0  0  0  0  0  0  0
   20.1104   -6.5011  -17.0857 O   0  0  0  0  0  0  0  0  0  0  0  0
   19.9738   -5.4069  -15.1067 O   0  0  0  0  0  0  0  0  0  0  0  0
  2  1  1  0
  3  2  1  0
  3  4  1  1
  5  3  1  0
  5  6  1  6
  7  5  1  0
  7  8  2  0
  9 10  1  0
 10 12  1  0
 11 10  2  0
 13 12  1  1
 14 13  1  0
 14  7  1  0
 15 16  2  0
 15 13  1  0
 17 18  1  0
 19 18  1  6
 19 20  1  0
 19 21  1  0
 20 15  1  0
 21 23  1  0
 22 21  2  0
M  END
$$$$
