INS.pdb
     RDKit          3D

 23 22  0  0  1  0  0  0  0  0999 V2000
   15.8007  -11.4807  -19.3736 C   0  0  0  0  0  0  0  0  0  0  0  0
   17.1057  -11.4963  -18.5975 C   0  0  0  0  0  0  0  0  0  0  0  0
   17.1014  -10.3266  -17.6697 C   0  0  2  0  0  0  0  0  0  0  0  0
   17.0691   -9.0381  -18.4485 C   0  0  0  0  0  0  0  0  0  0  0  0
   18.2854  -10.2937  -16.7323 C   0  0  2  0  0  0  0  0  0  0  0  0
   18.4147  -11.5324  -15.9996 N   0  0  0  0  0  0  0  0  0  0  0  0
   18.2164   -9.1642  -15.7833 C   0  0  0  0  0  0  0  0  0  0  0  0
   17.2134   -9.0712  -15.0417 O   0  0  0  0  0  0  0  0  0  0  0  0
   19.3721   -8.9561  -12.6193 N   0  0  0  0  0  0  0  0  0  0  0  0
   20.4253   -8.0303  -12.7962 C   0  0  0  0  0  0  0  0  0  0  0  0
   21.3863   -8.0559  -11.9878 O   0  0  0  0  0  0  0  0  0  0  0  0
   20.4536   -7.0395  -13.8769 C   0  0  0  0  0  0  0  0  0  0  0  0
   19.2635   -7.0978  -14.7882 C   0  0  2  0  0  0  0  0  0  0  0  0
   19.2527   -8.1952  -15.6987 N   0  0  0  0  0  0  0  0  0  0  0  0
   19.0285   -5.7846  -15.4796 C   0  0  0  0  0  0  0  0  0  0  0  0
   19.7496   -5.3739  -16.4267 O   0  0  0  0  0  0  0  0  0  0  0  0
   15.8101   -2.1887  -16.0065 O   0  0  0  0  0  0  0  0  0  0  0  0
   16.1902   -3.3472  -15.3480 C   0  0  0  0  0  0  0  0  0  0  0  0
   17.6267   -3.6935  -15.7413 C   0  0  2  0  0  0  0  0  0  0  0  0
   17.9642   -4.9237  -15.0957 N   0  0  0  0  0  0  0  0  0  0  0  0
   18.5243   -2.6281  -15.1926 C   0  0  0  0  0  0  0  0  0  0  0  0
   18.4308   -1.4393  -15.5528 O   0  0  0  0  0  0  0  0  0  0  0  0
   19.5031   -2.9497  -14.2483 O   0  0  0  0  0  0  0  0  0  0  0  0
  2  1  1  0
  3  2  1  0
  3  4  1  6
  5  3  1  0
  5  6  1  1
  7  5  1  0
  7  8  2  0
  9 10  1  0
 10 12  1  0
 11 10  2  0
 13 12  1  6
 14 13  1  0
 14  7  1  0
 15 16  2  0
 15 13  1  0
 17 18  1  0
 19 18  1  1
 19 20  1  0
 19 21  1  0
 20 15  1  0
 21 23  1  0
 22 21  2  0
M  END
$$$$
