INS.pdb
     RDKit          3D

 23 22  0  0  1  0  0  0  0  0999 V2000
   29.8390  -20.8589  -10.1360 C   0  0  0  0  0  0  0  0  0  0  0  0
   29.5745  -20.8757  -11.6311 C   0  0  0  0  0  0  0  0  0  0  0  0
   28.1391  -20.5261  -11.8467 C   0  0  2  0  0  0  0  0  0  0  0  0
   27.2455  -21.5612  -11.2160 C   0  0  0  0  0  0  0  0  0  0  0  0
   27.7626  -20.3870  -13.3029 C   0  0  2  0  0  0  0  0  0  0  0  0
   28.6229  -19.4471  -13.9844 N   0  0  0  0  0  0  0  0  0  0  0  0
   26.3530  -19.9836  -13.4802 C   0  0  0  0  0  0  0  0  0  0  0  0
   26.0137  -18.8346  -13.1206 O   0  0  0  0  0  0  0  0  0  0  0  0
   23.1738  -18.3013  -15.8296 N   0  0  0  0  0  0  0  0  0  0  0  0
   23.0922  -19.6044  -16.3708 C   0  0  0  0  0  0  0  0  0  0  0  0
   22.6401  -19.7415  -17.5346 O   0  0  0  0  0  0  0  0  0  0  0  0
   23.5086  -20.8067  -15.6418 C   0  0  0  0  0  0  0  0  0  0  0  0
   24.0186  -20.5340  -14.2578 C   0  0  2  0  0  0  0  0  0  0  0  0
   25.3893  -20.8637  -14.0429 N   0  0  0  0  0  0  0  0  0  0  0  0
   23.1213  -21.1266  -13.2083 C   0  0  0  0  0  0  0  0  0  0  0  0
   23.1719  -22.3394  -12.8735 O   0  0  0  0  0  0  0  0  0  0  0  0
   20.0484  -20.2507   -9.6098 O   0  0  0  0  0  0  0  0  0  0  0  0
   20.9789  -19.7852  -10.5252 C   0  0  0  0  0  0  0  0  0  0  0  0
   21.1772  -20.8415  -11.6128 C   0  0  2  0  0  0  0  0  0  0  0  0
   22.1536  -20.3380  -12.5278 N   0  0  0  0  0  0  0  0  0  0  0  0
   19.8855  -20.9855  -12.3564 C   0  0  0  0  0  0  0  0  0  0  0  0
   19.6174  -20.2851  -13.3510 O   0  0  0  0  0  0  0  0  0  0  0  0
   18.9366  -21.9248  -11.9437 O   0  0  0  0  0  0  0  0  0  0  0  0
  2  1  1  0
  3  2  1  0
  3  4  1  6
  5  3  1  0
  5  6  1  1
  7  5  1  0
  7  8  2  0
  9 10  1  0
 10 12  1  0
 11 10  2  0
 13 12  1  6
 14 13  1  0
 14  7  1  0
 15 16  2  0
 15 13  1  0
 17 18  1  0
 19 18  1  1
 19 20  1  0
 19 21  1  0
 20 15  1  0
 21 23  1  0
 22 21  2  0
M  END
$$$$
