INS.pdb
     RDKit          3D

 23 22  0  0  1  0  0  0  0  0999 V2000
   21.8929  -10.4028    7.6423 C   0  0  0  0  0  0  0  0  0  0  0  0
   20.8115  -10.6595    6.6078 C   0  0  0  0  0  0  0  0  0  0  0  0
   20.0767  -11.8955    7.0097 C   0  0  2  0  0  0  0  0  0  0  0  0
   21.0347  -13.0452    7.1780 C   0  0  0  0  0  0  0  0  0  0  0  0
   19.0003  -12.3041    6.0319 C   0  0  2  0  0  0  0  0  0  0  0  0
   17.9643  -11.3014    5.9361 N   0  0  0  0  0  0  0  0  0  0  0  0
   18.3958  -13.6065    6.3775 C   0  0  0  0  0  0  0  0  0  0  0  0
   18.1459  -13.8457    7.5796 O   0  0  0  0  0  0  0  0  0  0  0  0
   15.0854  -17.9198    5.4338 N   0  0  0  0  0  0  0  0  0  0  0  0
   16.3432  -17.8588    4.7922 C   0  0  0  0  0  0  0  0  0  0  0  0
   16.9125  -18.9363    4.4880 O   0  0  0  0  0  0  0  0  0  0  0  0
   17.0192  -16.5997    4.4632 C   0  0  0  0  0  0  0  0  0  0  0  0
   17.5788  -15.8794    5.6539 C   0  0  2  0  0  0  0  0  0  0  0  0
   18.0978  -14.5788    5.3845 N   0  0  0  0  0  0  0  0  0  0  0  0
   18.5550  -16.7340    6.4118 C   0  0  0  0  0  0  0  0  0  0  0  0
   19.7674  -16.8358    6.0874 O   0  0  0  0  0  0  0  0  0  0  0  0
   20.3078  -16.9564    9.7159 O   0  0  0  0  0  0  0  0  0  0  0  0
   19.1673  -17.7433    9.6980 C   0  0  0  0  0  0  0  0  0  0  0  0
   19.0058  -18.3525    8.3049 C   0  0  2  0  0  0  0  0  0  0  0  0
   18.1559  -17.4838    7.5520 N   0  0  0  0  0  0  0  0  0  0  0  0
   18.3006  -19.6648    8.4546 C   0  0  0  0  0  0  0  0  0  0  0  0
   17.1994  -19.8851    7.9157 O   0  0  0  0  0  0  0  0  0  0  0  0
   18.8723  -20.6885    9.2151 O   0  0  0  0  0  0  0  0  0  0  0  0
  2  1  1  0
  3  2  1  0
  3  4  1  6
  5  3  1  0
  5  6  1  1
  7  5  1  0
  7  8  2  0
  9 10  1  0
 10 12  1  0
 11 10  2  0
 13 12  1  6
 14 13  1  0
 14  7  1  0
 15 16  2  0
 15 13  1  0
 17 18  1  0
 19 18  1  1
 19 20  1  0
 19 21  1  0
 20 15  1  0
 21 23  1  0
 22 21  2  0
M  END
$$$$
