INS.pdb
     RDKit          3D

 23 22  0  0  1  0  0  0  0  0999 V2000
   27.8918  -11.7627  -16.0401 C   0  0  0  0  0  0  0  0  0  0  0  0
   26.5503  -12.2929  -15.5657 C   0  0  0  0  0  0  0  0  0  0  0  0
   25.5076  -11.2848  -15.9201 C   0  0  2  0  0  0  0  0  0  0  0  0
   25.7701   -9.9844  -15.2076 C   0  0  0  0  0  0  0  0  0  0  0  0
   24.1005  -11.7329  -15.6027 C   0  0  2  0  0  0  0  0  0  0  0  0
   23.8168  -13.0300  -16.1729 N   0  0  0  0  0  0  0  0  0  0  0  0
   23.0871  -10.7608  -16.0601 C   0  0  0  0  0  0  0  0  0  0  0  0
   22.3273  -11.0906  -16.9973 O   0  0  0  0  0  0  0  0  0  0  0  0
   19.6877   -6.9357  -16.5214 N   0  0  0  0  0  0  0  0  0  0  0  0
   19.4498   -8.2426  -16.0390 C   0  0  0  0  0  0  0  0  0  0  0  0
   18.2638   -8.6521  -15.9807 O   0  0  0  0  0  0  0  0  0  0  0  0
   20.5185   -9.1466  -15.6017 C   0  0  0  0  0  0  0  0  0  0  0  0
   21.8958   -8.5647  -15.7216 C   0  0  2  0  0  0  0  0  0  0  0  0
   22.9616   -9.4765  -15.4644 N   0  0  0  0  0  0  0  0  0  0  0  0
   22.0327   -7.2943  -14.9310 C   0  0  0  0  0  0  0  0  0  0  0  0
   21.9611   -7.2621  -13.6742 O   0  0  0  0  0  0  0  0  0  0  0  0
   23.3859   -2.6363  -15.3124 O   0  0  0  0  0  0  0  0  0  0  0  0
   23.0914   -3.8386  -15.9354 C   0  0  0  0  0  0  0  0  0  0  0  0
   22.5400   -4.8148  -14.8958 C   0  0  2  0  0  0  0  0  0  0  0  0
   22.2538   -6.0431  -15.5690 N   0  0  0  0  0  0  0  0  0  0  0  0
   21.2460   -4.2615  -14.3847 C   0  0  0  0  0  0  0  0  0  0  0  0
   20.1810   -4.3863  -15.0187 O   0  0  0  0  0  0  0  0  0  0  0  0
   21.2040   -3.5814  -13.1645 O   0  0  0  0  0  0  0  0  0  0  0  0
  2  1  1  0
  3  2  1  0
  3  4  1  1
  5  3  1  0
  5  6  1  6
  7  5  1  0
  7  8  2  0
  9 10  1  0
 10 12  1  0
 11 10  2  0
 13 12  1  1
 14 13  1  0
 14  7  1  0
 15 16  2  0
 15 13  1  0
 17 18  1  0
 19 18  1  6
 19 20  1  0
 19 21  1  0
 20 15  1  0
 21 23  1  0
 22 21  2  0
M  END
$$$$
