KHP.pdb
     RDKit          3D

 27 28  0  0  1  0  0  0  0  0999 V2000
   27.1324  -19.7907  -19.6655 N   0  0  0  0  0  0  0  0  0  0  0  0
   27.4713  -20.4486  -18.4655 C   0  0  1  0  0  0  0  0  0  0  0  0
   28.9024  -20.5345  -18.1731 C   0  0  0  0  0  0  0  0  0  0  0  0
   29.6738  -21.7505  -18.2417 C   0  0  0  0  0  0  0  0  0  0  0  0
   29.1959  -23.1308  -18.2160 C   0  0  0  0  0  0  0  0  0  0  0  0
   30.1588  -24.2472  -18.1333 C   0  0  0  0  0  0  0  0  0  0  0  0
   29.4948  -25.4803  -17.7363 N   0  0  0  0  0  0  0  0  0  0  0  0
   26.7473  -19.7966  -17.2925 C   0  0  0  0  0  0  0  0  0  0  0  0
   26.9069  -18.5799  -17.0344 O   0  0  0  0  0  0  0  0  0  0  0  0
   25.8958  -20.5645  -16.4965 N   0  0  0  0  0  0  0  0  0  0  0  0
   25.2584  -20.0659  -15.2798 C   0  0  1  0  0  0  0  0  0  0  0  0
   23.7611  -20.3365  -15.5023 C   0  0  0  0  0  0  0  0  0  0  0  0
   23.2710  -19.2968  -16.4215 C   0  0  0  0  0  0  0  0  0  0  0  0
   22.7798  -19.4286  -17.7002 C   0  0  0  0  0  0  0  0  0  0  0  0
   22.4430  -18.2254  -18.1840 N   0  0  0  0  0  0  0  0  0  0  0  0
   22.7130  -17.3268  -17.2301 C   0  0  0  0  0  0  0  0  0  0  0  0
   23.2204  -17.9844  -16.1502 N   0  0  0  0  0  0  0  0  0  0  0  0
   25.7600  -20.8827  -14.1521 C   0  0  0  0  0  0  0  0  0  0  0  0
   26.3760  -21.9567  -14.3475 O   0  0  0  0  0  0  0  0  0  0  0  0
   25.5787  -20.5068  -12.7703 N   0  0  0  0  0  0  0  0  0  0  0  0
   24.8942  -19.3346  -12.2680 C   0  0  0  0  0  0  0  0  0  0  0  0
   25.8804  -18.8452  -11.2138 C   0  0  0  0  0  0  0  0  0  0  0  0
   26.5083  -20.1130  -10.6880 C   0  0  0  0  0  0  0  0  0  0  0  0
   26.0488  -21.2180  -11.6040 C   0  0  1  0  0  0  0  0  0  0  0  0
   24.9316  -21.9301  -10.9410 C   0  0  0  0  0  0  0  0  0  0  0  0
   23.7345  -21.6874  -11.2337 O   0  0  0  0  0  0  0  0  0  0  0  0
   25.1386  -22.8981   -9.9664 O   0  0  0  0  0  0  0  0  0  0  0  0
  2  1  1  6
  3  2  1  0
  4  5  1  0
  4  3  1  0
  5  6  1  0
  7  6  1  0
  8  9  2  0
  8  2  1  0
 10  8  1  0
 11 10  1  0
 11 12  1  6
 12 13  1  0
 13 17  1  0
 13 14  2  0
 14 15  1  0
 16 15  1  0
 17 16  2  0
 18 11  1  0
 19 18  2  0
 20 24  1  0
 20 18  1  0
 21 22  1  0
 21 20  1  0
 22 23  1  0
 23 24  1  0
 25 27  1  0
 24 25  1  1
 26 25  2  0
M  END
$$$$
