KHP.pdb
     RDKit          3D

 27 28  0  0  1  0  0  0  0  0999 V2000
   19.8489  -20.4522  -17.3518 N   0  0  0  0  0  0  0  0  0  0  0  0
   20.4707  -19.5167  -16.4997 C   0  0  1  0  0  0  0  0  0  0  0  0
   19.6320  -18.9828  -15.4264 C   0  0  0  0  0  0  0  0  0  0  0  0
   18.6416  -19.7491  -14.7119 C   0  0  0  0  0  0  0  0  0  0  0  0
   18.6934  -21.1546  -14.3168 C   0  0  0  0  0  0  0  0  0  0  0  0
   17.5485  -21.7704  -13.6167 C   0  0  0  0  0  0  0  0  0  0  0  0
   17.4667  -21.3038  -12.2402 N   0  0  0  0  0  0  0  0  0  0  0  0
   21.7407  -20.1173  -15.9066 C   0  0  0  0  0  0  0  0  0  0  0  0
   21.7705  -21.3123  -15.5275 O   0  0  0  0  0  0  0  0  0  0  0  0
   22.8843  -19.3264  -15.7850 N   0  0  0  0  0  0  0  0  0  0  0  0
   24.1507  -19.8143  -15.2430 C   0  0  1  0  0  0  0  0  0  0  0  0
   25.1958  -18.8223  -15.7797 C   0  0  0  0  0  0  0  0  0  0  0  0
   26.5086  -19.2837  -15.3006 C   0  0  0  0  0  0  0  0  0  0  0  0
   27.2820  -18.7905  -14.2747 C   0  0  0  0  0  0  0  0  0  0  0  0
   28.4107  -19.5051  -14.1723 N   0  0  0  0  0  0  0  0  0  0  0  0
   28.3679  -20.4486  -15.1201 C   0  0  0  0  0  0  0  0  0  0  0  0
   27.2017  -20.3121  -15.8112 N   0  0  0  0  0  0  0  0  0  0  0  0
   24.0670  -19.7158  -13.7687 C   0  0  0  0  0  0  0  0  0  0  0  0
   23.3483  -18.8530  -13.2119 O   0  0  0  0  0  0  0  0  0  0  0  0
   24.7948  -20.5920  -12.8819 N   0  0  0  0  0  0  0  0  0  0  0  0
   25.7557  -21.6080  -13.2549 C   0  0  0  0  0  0  0  0  0  0  0  0
   25.3015  -22.7770  -12.3885 C   0  0  0  0  0  0  0  0  0  0  0  0
   24.7639  -22.1174  -11.1419 C   0  0  0  0  0  0  0  0  0  0  0  0
   24.7095  -20.6411  -11.4406 C   0  0  1  0  0  0  0  0  0  0  0  0
   25.8965  -20.0034  -10.8250 C   0  0  0  0  0  0  0  0  0  0  0  0
   26.8984  -19.6839  -11.5118 O   0  0  0  0  0  0  0  0  0  0  0  0
   25.9719  -19.7238   -9.4664 O   0  0  0  0  0  0  0  0  0  0  0  0
  2  1  1  1
  3  2  1  0
  4  5  1  0
  4  3  1  0
  5  6  1  0
  7  6  1  0
  8  9  2  0
  8  2  1  0
 10  8  1  0
 11 10  1  0
 11 12  1  6
 12 13  1  0
 13 17  1  0
 13 14  2  0
 14 15  1  0
 16 15  1  0
 17 16  2  0
 18 11  1  0
 19 18  2  0
 20 24  1  0
 20 18  1  0
 21 22  1  0
 21 20  1  0
 22 23  1  0
 23 24  1  0
 25 27  1  0
 24 25  1  1
 26 25  2  0
M  END
$$$$
