KHP.pdb
     RDKit          3D

 27 28  0  0  1  0  0  0  0  0999 V2000
   22.2445  -16.6439  -17.6821 N   0  0  0  0  0  0  0  0  0  0  0  0
   22.6050  -16.8009  -16.3282 C   0  0  1  0  0  0  0  0  0  0  0  0
   22.9364  -18.1649  -15.9155 C   0  0  0  0  0  0  0  0  0  0  0  0
   22.1190  -19.3192  -16.1946 C   0  0  0  0  0  0  0  0  0  0  0  0
   21.2797  -19.5757  -17.3625 C   0  0  0  0  0  0  0  0  0  0  0  0
   20.5647  -20.8609  -17.4937 C   0  0  0  0  0  0  0  0  0  0  0  0
   21.5013  -21.9686  -17.6171 N   0  0  0  0  0  0  0  0  0  0  0  0
   23.7610  -15.8673  -15.9861 C   0  0  0  0  0  0  0  0  0  0  0  0
   24.2692  -15.8663  -14.8397 O   0  0  0  0  0  0  0  0  0  0  0  0
   24.2598  -15.0032  -16.9622 N   0  0  0  0  0  0  0  0  0  0  0  0
   25.3443  -14.0533  -16.7232 C   0  0  1  0  0  0  0  0  0  0  0  0
   26.3009  -14.2698  -17.9075 C   0  0  0  0  0  0  0  0  0  0  0  0
   26.9181  -15.5929  -17.7220 C   0  0  0  0  0  0  0  0  0  0  0  0
   27.9477  -15.9623  -16.8869 C   0  0  0  0  0  0  0  0  0  0  0  0
   28.2016  -17.2702  -17.0295 N   0  0  0  0  0  0  0  0  0  0  0  0
   27.3470  -17.7406  -17.9452 C   0  0  0  0  0  0  0  0  0  0  0  0
   26.5607  -16.7119  -18.3691 N   0  0  0  0  0  0  0  0  0  0  0  0
   24.7618  -12.6941  -16.7827 C   0  0  0  0  0  0  0  0  0  0  0  0
   23.7056  -12.4638  -17.4171 O   0  0  0  0  0  0  0  0  0  0  0  0
   25.3585  -11.5560  -16.1251 N   0  0  0  0  0  0  0  0  0  0  0  0
   26.6222  -11.5197  -15.4204 C   0  0  0  0  0  0  0  0  0  0  0  0
   26.2341  -10.7622  -14.1559 C   0  0  0  0  0  0  0  0  0  0  0  0
   25.1577   -9.8107  -14.6188 C   0  0  0  0  0  0  0  0  0  0  0  0
   24.8152  -10.2210  -16.0280 C   0  0  1  0  0  0  0  0  0  0  0  0
   25.5150   -9.3034  -16.9569 C   0  0  0  0  0  0  0  0  0  0  0  0
   26.5846   -9.6365  -17.5247 O   0  0  0  0  0  0  0  0  0  0  0  0
   25.0354   -8.0336  -17.2525 O   0  0  0  0  0  0  0  0  0  0  0  0
  2  1  1  6
  3  2  1  0
  4  5  1  0
  4  3  1  0
  5  6  1  0
  7  6  1  0
  8  9  2  0
  8  2  1  0
 10  8  1  0
 11 10  1  0
 11 12  1  6
 12 13  1  0
 13 17  1  0
 13 14  2  0
 14 15  1  0
 16 15  1  0
 17 16  2  0
 18 11  1  0
 19 18  2  0
 20 24  1  0
 20 18  1  0
 21 22  1  0
 21 20  1  0
 22 23  1  0
 23 24  1  0
 25 27  1  0
 24 25  1  6
 26 25  2  0
M  END
$$$$
