KHP.pdb
     RDKit          3D

 27 28  0  0  1  0  0  0  0  0999 V2000
   29.4630  -22.5796  -18.6013 N   0  0  0  0  0  0  0  0  0  0  0  0
   28.5080  -23.2051  -17.7739 C   0  0  1  0  0  0  0  0  0  0  0  0
   28.9870  -24.3623  -17.0174 C   0  0  0  0  0  0  0  0  0  0  0  0
   30.2660  -24.9948  -17.2237 C   0  0  0  0  0  0  0  0  0  0  0  0
   30.5981  -26.4155  -17.1492 C   0  0  0  0  0  0  0  0  0  0  0  0
   29.8872  -27.2940  -16.1989 C   0  0  0  0  0  0  0  0  0  0  0  0
   30.4340  -28.6429  -16.2267 N   0  0  0  0  0  0  0  0  0  0  0  0
   27.8997  -22.1846  -16.8181 C   0  0  0  0  0  0  0  0  0  0  0  0
   28.5727  -21.7070  -15.8738 O   0  0  0  0  0  0  0  0  0  0  0  0
   26.5769  -21.7767  -16.9975 N   0  0  0  0  0  0  0  0  0  0  0  0
   25.9117  -20.7932  -16.1456 C   0  0  1  0  0  0  0  0  0  0  0  0
   25.0263  -19.9937  -17.1160 C   0  0  0  0  0  0  0  0  0  0  0  0
   24.2528  -19.0416  -16.3030 C   0  0  0  0  0  0  0  0  0  0  0  0
   24.5447  -17.7358  -15.9813 C   0  0  0  0  0  0  0  0  0  0  0  0
   23.5691  -17.2271  -15.2166 N   0  0  0  0  0  0  0  0  0  0  0  0
   22.6578  -18.1917  -15.0460 C   0  0  0  0  0  0  0  0  0  0  0  0
   23.0777  -19.3035  -15.7122 N   0  0  0  0  0  0  0  0  0  0  0  0
   25.0678  -21.5395  -15.1857 C   0  0  0  0  0  0  0  0  0  0  0  0
   24.4951  -22.6057  -15.5118 O   0  0  0  0  0  0  0  0  0  0  0  0
   24.8482  -21.1000  -13.8284 N   0  0  0  0  0  0  0  0  0  0  0  0
   25.3394  -19.8846  -13.2151 C   0  0  0  0  0  0  0  0  0  0  0  0
   25.8573  -20.4139  -11.8828 C   0  0  0  0  0  0  0  0  0  0  0  0
   24.9285  -21.5595  -11.5618 C   0  0  0  0  0  0  0  0  0  0  0  0
   24.0996  -21.7851  -12.8001 C   0  0  1  0  0  0  0  0  0  0  0  0
   22.7821  -21.1395  -12.5953 C   0  0  0  0  0  0  0  0  0  0  0  0
   22.4992  -20.0420  -13.1365 O   0  0  0  0  0  0  0  0  0  0  0  0
   21.7914  -21.7031  -11.8012 O   0  0  0  0  0  0  0  0  0  0  0  0
  2  1  1  1
  3  2  1  0
  4  5  1  0
  4  3  1  0
  5  6  1  0
  7  6  1  0
  8  9  2  0
  8  2  1  0
 10  8  1  0
 11 10  1  0
 11 12  1  6
 12 13  1  0
 13 17  1  0
 13 14  2  0
 14 15  1  0
 16 15  1  0
 17 16  2  0
 18 11  1  0
 19 18  2  0
 20 24  1  0
 20 18  1  0
 21 22  1  0
 21 20  1  0
 22 23  1  0
 23 24  1  0
 25 27  1  0
 24 25  1  1
 26 25  2  0
M  END
$$$$
