KHP.pdb
     RDKit          3D

 27 28  0  0  1  0  0  0  0  0999 V2000
   17.5509  -13.4054  -16.7912 N   0  0  0  0  0  0  0  0  0  0  0  0
   17.6465  -12.2168  -17.5433 C   0  0  1  0  0  0  0  0  0  0  0  0
   16.4849  -11.8981  -18.3738 C   0  0  0  0  0  0  0  0  0  0  0  0
   15.1860  -12.5046  -18.2207 C   0  0  0  0  0  0  0  0  0  0  0  0
   13.9746  -12.2640  -19.0011 C   0  0  0  0  0  0  0  0  0  0  0  0
   12.7031  -12.9064  -18.6129 C   0  0  0  0  0  0  0  0  0  0  0  0
   12.8775  -14.3400  -18.4300 N   0  0  0  0  0  0  0  0  0  0  0  0
   17.9550  -11.0417  -16.6218 C   0  0  0  0  0  0  0  0  0  0  0  0
   17.3743  -10.9212  -15.5169 O   0  0  0  0  0  0  0  0  0  0  0  0
   18.8965  -10.0885  -17.0136 N   0  0  0  0  0  0  0  0  0  0  0  0
   19.2393   -8.9145  -16.2138 C   0  0  1  0  0  0  0  0  0  0  0  0
   20.5213   -9.3271  -15.4717 C   0  0  0  0  0  0  0  0  0  0  0  0
   20.9695   -8.1521  -14.7073 C   0  0  0  0  0  0  0  0  0  0  0  0
   21.9238   -7.2155  -15.0332 C   0  0  0  0  0  0  0  0  0  0  0  0
   22.0224   -6.3072  -14.0532 N   0  0  0  0  0  0  0  0  0  0  0  0
   21.1431   -6.6519  -13.1056 C   0  0  0  0  0  0  0  0  0  0  0  0
   20.4982   -7.7828  -13.5073 N   0  0  0  0  0  0  0  0  0  0  0  0
   19.5302   -7.8093  -17.1542 C   0  0  0  0  0  0  0  0  0  0  0  0
   20.1066   -8.0174  -18.2476 O   0  0  0  0  0  0  0  0  0  0  0  0
   19.1764   -6.4363  -16.8838 N   0  0  0  0  0  0  0  0  0  0  0  0
   18.5913   -5.9095  -15.6692 C   0  0  0  0  0  0  0  0  0  0  0  0
   17.4921   -5.0168  -16.2335 C   0  0  0  0  0  0  0  0  0  0  0  0
   18.0662   -4.5132  -17.5354 C   0  0  0  0  0  0  0  0  0  0  0  0
   19.3262   -5.3060  -17.7709 C   0  0  1  0  0  0  0  0  0  0  0  0
   20.4787   -4.4699  -17.3616 C   0  0  0  0  0  0  0  0  0  0  0  0
   21.1478   -4.7354  -16.3324 O   0  0  0  0  0  0  0  0  0  0  0  0
   20.8839   -3.3545  -18.0837 O   0  0  0  0  0  0  0  0  0  0  0  0
  2  1  1  1
  3  2  1  0
  4  5  1  0
  4  3  1  0
  5  6  1  0
  7  6  1  0
  8  9  2  0
  8  2  1  0
 10  8  1  0
 11 10  1  0
 11 12  1  6
 12 13  1  0
 13 17  1  0
 13 14  2  0
 14 15  1  0
 16 15  1  0
 17 16  2  0
 18 11  1  0
 19 18  2  0
 20 24  1  0
 20 18  1  0
 21 22  1  0
 21 20  1  0
 22 23  1  0
 23 24  1  0
 25 27  1  0
 24 25  1  1
 26 25  2  0
M  END
$$$$
