KHP.pdb
     RDKit          3D

 27 28  0  0  1  0  0  0  0  0999 V2000
   28.0513  -22.0627  -14.8752 N   0  0  0  0  0  0  0  0  0  0  0  0
   28.1195  -21.3835  -13.6416 C   0  0  1  0  0  0  0  0  0  0  0  0
   29.3146  -20.5653  -13.4347 C   0  0  0  0  0  0  0  0  0  0  0  0
   30.6507  -20.9748  -13.7891 C   0  0  0  0  0  0  0  0  0  0  0  0
   31.1976  -22.3279  -13.8543 C   0  0  0  0  0  0  0  0  0  0  0  0
   32.5903  -22.5440  -14.2946 C   0  0  0  0  0  0  0  0  0  0  0  0
   33.3946  -23.1106  -13.2217 N   0  0  0  0  0  0  0  0  0  0  0  0
   26.8728  -20.5267  -13.4500 C   0  0  0  0  0  0  0  0  0  0  0  0
   26.8069  -19.6857  -12.5221 O   0  0  0  0  0  0  0  0  0  0  0  0
   25.7916  -20.6805  -14.3193 N   0  0  0  0  0  0  0  0  0  0  0  0
   24.5099  -20.0011  -14.1434 C   0  0  1  0  0  0  0  0  0  0  0  0
   24.0967  -19.6035  -15.5702 C   0  0  0  0  0  0  0  0  0  0  0  0
   22.7917  -18.9312  -15.4655 C   0  0  0  0  0  0  0  0  0  0  0  0
   22.5102  -17.6285  -15.1228 C   0  0  0  0  0  0  0  0  0  0  0  0
   21.1857  -17.4276  -15.1493 N   0  0  0  0  0  0  0  0  0  0  0  0
   20.6179  -18.5858  -15.5045 C   0  0  0  0  0  0  0  0  0  0  0  0
   21.6030  -19.5069  -15.6982 N   0  0  0  0  0  0  0  0  0  0  0  0
   23.5565  -20.9921  -13.5961 C   0  0  0  0  0  0  0  0  0  0  0  0
   23.5369  -22.1756  -14.0083 O   0  0  0  0  0  0  0  0  0  0  0  0
   22.5979  -20.6715  -12.5656 N   0  0  0  0  0  0  0  0  0  0  0  0
   22.3913  -19.3844  -11.9366 C   0  0  0  0  0  0  0  0  0  0  0  0
   22.3124  -19.7825  -10.4674 C   0  0  0  0  0  0  0  0  0  0  0  0
   21.6811  -21.1532  -10.4961 C   0  0  0  0  0  0  0  0  0  0  0  0
   21.6521  -21.5695  -11.9443 C   0  0  1  0  0  0  0  0  0  0  0  0
   20.2856  -21.3303  -12.4642 C   0  0  0  0  0  0  0  0  0  0  0  0
   20.0296  -20.3505  -13.2070 O   0  0  0  0  0  0  0  0  0  0  0  0
   19.2173  -22.1662  -12.1645 O   0  0  0  0  0  0  0  0  0  0  0  0
  2  1  1  6
  3  2  1  0
  4  5  1  0
  4  3  1  0
  5  6  1  0
  7  6  1  0
  8  9  2  0
  8  2  1  0
 10  8  1  0
 11 10  1  0
 11 12  1  6
 12 13  1  0
 13 17  1  0
 13 14  2  0
 14 15  1  0
 16 15  1  0
 17 16  2  0
 18 11  1  0
 19 18  2  0
 20 24  1  0
 20 18  1  0
 21 22  1  0
 21 20  1  0
 22 23  1  0
 23 24  1  0
 25 27  1  0
 24 25  1  6
 26 25  2  0
M  END
$$$$
