MAW.pdb
     RDKit          3D

 28 29  0  0  1  0  0  0  0  0999 V2000
    9.6659  -20.7961   24.2643 C   0  0  0  0  0  0  0  0  0  0  0  0
   10.1011  -21.6654   22.7441 S   0  0  0  0  0  0  0  0  0  0  0  0
    9.3246  -20.9103   21.3402 C   0  0  0  0  0  0  0  0  0  0  0  0
    8.7037  -19.5832   21.5357 C   0  0  0  0  0  0  0  0  0  0  0  0
    7.9662  -18.9848   20.3948 C   0  0  2  0  0  0  0  0  0  0  0  0
    8.3282  -19.5067   19.1163 N   0  0  0  0  0  0  0  0  0  0  0  0
    8.2892  -17.5179   20.4043 C   0  0  0  0  0  0  0  0  0  0  0  0
    9.2996  -17.0837   19.7524 O   0  0  0  0  0  0  0  0  0  0  0  0
    6.5875  -14.3220   21.0772 C   0  0  0  0  0  0  0  0  0  0  0  0
    7.8084  -15.1934   21.1459 C   0  0  2  0  0  0  0  0  0  0  0  0
    7.4863  -16.6154   21.1276 N   0  0  0  0  0  0  0  0  0  0  0  0
    8.5950  -14.9569   22.4034 C   0  0  0  0  0  0  0  0  0  0  0  0
    9.0962  -13.8314   22.6812 O   0  0  0  0  0  0  0  0  0  0  0  0
    8.8147  -15.9953   23.3484 N   0  0  0  0  0  0  0  0  0  0  0  0
    9.7138  -15.8065   24.4752 C   0  0  1  0  0  0  0  0  0  0  0  0
    9.0411  -16.1042   25.7855 C   0  0  0  0  0  0  0  0  0  0  0  0
    7.7883  -15.3208   25.8540 C   0  0  0  0  0  0  0  0  0  0  0  0
    6.5043  -15.7884   25.6823 C   0  0  0  0  0  0  0  0  0  0  0  0
    5.6302  -14.7485   25.8202 N   0  0  0  0  0  0  0  0  0  0  0  0
    6.3268  -13.6187   26.0779 C   0  0  0  0  0  0  0  0  0  0  0  0
    5.9468  -12.3257   26.2953 C   0  0  0  0  0  0  0  0  0  0  0  0
    6.8946  -11.3578   26.5386 C   0  0  0  0  0  0  0  0  0  0  0  0
    8.2232  -11.6961   26.5619 C   0  0  0  0  0  0  0  0  0  0  0  0
    8.6140  -12.9958   26.3440 C   0  0  0  0  0  0  0  0  0  0  0  0
    7.6717  -13.9709   26.0998 C   0  0  0  0  0  0  0  0  0  0  0  0
   10.9686  -16.5868   24.2726 C   0  0  0  0  0  0  0  0  0  0  0  0
   11.1124  -17.3384   23.2587 O   0  0  0  0  0  0  0  0  0  0  0  0
   12.0205  -16.5285   25.1675 O   0  0  0  0  0  0  0  0  0  0  0  0
  2  1  1  0
  3  4  1  0
  3  2  1  0
  4  5  1  0
  5  7  1  0
  5  6  1  6
  7  8  2  0
 10  9  1  1
 11 10  1  0
 11  7  1  0
 12 10  1  0
 13 12  2  0
 14 12  1  0
 15 26  1  0
 15 14  1  0
 15 16  1  1
 17 16  1  0
 18 17  2  0
 19 20  1  0
 19 18  1  0
 20 25  2  0
 21 22  2  0
 21 20  1  0
 22 23  1  0
 23 24  2  0
 25 17  1  0
 25 24  1  0
 26 28  1  0
 27 26  2  0
M  END
$$$$
