MAW.pdb
     RDKit          3D

 28 29  0  0  1  0  0  0  0  0999 V2000
    9.5518  -21.0941   16.9137 C   0  0  0  0  0  0  0  0  0  0  0  0
    7.9211  -21.6760   17.4220 S   0  0  0  0  0  0  0  0  0  0  0  0
    7.3103  -20.7278   18.7903 C   0  0  0  0  0  0  0  0  0  0  0  0
    8.0709  -19.5209   19.1776 C   0  0  0  0  0  0  0  0  0  0  0  0
    7.9793  -19.0627   20.5866 C   0  0  2  0  0  0  0  0  0  0  0  0
    6.6492  -18.9872   21.0997 N   0  0  0  0  0  0  0  0  0  0  0  0
    8.5684  -17.6815   20.6221 C   0  0  0  0  0  0  0  0  0  0  0  0
    9.7197  -17.4665   20.1096 O   0  0  0  0  0  0  0  0  0  0  0  0
    7.3801  -14.2042   21.2926 C   0  0  0  0  0  0  0  0  0  0  0  0
    8.4296  -15.2769   21.2408 C   0  0  2  0  0  0  0  0  0  0  0  0
    7.8611  -16.6193   21.2170 N   0  0  0  0  0  0  0  0  0  0  0  0
    9.3402  -15.2273   22.4343 C   0  0  0  0  0  0  0  0  0  0  0  0
   10.1747  -14.2949   22.6051 O   0  0  0  0  0  0  0  0  0  0  0  0
    9.3063  -16.2342   23.4367 N   0  0  0  0  0  0  0  0  0  0  0  0
   10.1927  -16.1774   24.5876 C   0  0  1  0  0  0  0  0  0  0  0  0
    9.9739  -14.9345   25.4033 C   0  0  0  0  0  0  0  0  0  0  0  0
    8.5439  -14.8678   25.7755 C   0  0  0  0  0  0  0  0  0  0  0  0
    7.6225  -15.8902   25.7250 C   0  0  0  0  0  0  0  0  0  0  0  0
    6.4127  -15.4199   26.1487 N   0  0  0  0  0  0  0  0  0  0  0  0
    6.5368  -14.1128   26.4719 C   0  0  0  0  0  0  0  0  0  0  0  0
    5.6501  -13.1862   26.9394 C   0  0  0  0  0  0  0  0  0  0  0  0
    6.0631  -11.8968   27.1865 C   0  0  0  0  0  0  0  0  0  0  0  0
    7.3691  -11.5448   26.9614 C   0  0  0  0  0  0  0  0  0  0  0  0
    8.2681  -12.4719   26.4907 C   0  0  0  0  0  0  0  0  0  0  0  0
    7.8630  -13.7650   26.2408 C   0  0  0  0  0  0  0  0  0  0  0  0
   10.0801  -17.4296   25.3900 C   0  0  0  0  0  0  0  0  0  0  0  0
    9.1711  -18.2821   25.1440 O   0  0  0  0  0  0  0  0  0  0  0  0
   10.9496  -17.7173   26.4254 O   0  0  0  0  0  0  0  0  0  0  0  0
  2  1  1  0
  3  4  1  0
  3  2  1  0
  4  5  1  0
  5  7  1  0
  5  6  1  6
  7  8  2  0
 10  9  1  1
 11 10  1  0
 11  7  1  0
 12 10  1  0
 13 12  2  0
 14 12  1  0
 15 26  1  0
 15 14  1  0
 15 16  1  1
 17 16  1  0
 18 17  2  0
 19 20  1  0
 19 18  1  0
 20 25  2  0
 21 22  2  0
 21 20  1  0
 22 23  1  0
 23 24  2  0
 25 17  1  0
 25 24  1  0
 26 28  1  0
 27 26  2  0
M  END
$$$$
