MAW.pdb
     RDKit          3D

 28 29  0  0  1  0  0  0  0  0999 V2000
    7.6327  -11.4881   21.0257 C   0  0  0  0  0  0  0  0  0  0  0  0
    7.8190  -11.9562   19.2931 S   0  0  0  0  0  0  0  0  0  0  0  0
    7.6709  -13.7119   19.0936 C   0  0  0  0  0  0  0  0  0  0  0  0
    7.9824  -14.5600   20.2636 C   0  0  0  0  0  0  0  0  0  0  0  0
    7.7626  -16.0231   20.1410 C   0  0  2  0  0  0  0  0  0  0  0  0
    6.4153  -16.3976   19.8537 N   0  0  0  0  0  0  0  0  0  0  0  0
    8.1364  -16.6202   21.4676 C   0  0  0  0  0  0  0  0  0  0  0  0
    7.2440  -16.7777   22.3695 O   0  0  0  0  0  0  0  0  0  0  0  0
   10.9266  -18.7871   22.6030 C   0  0  0  0  0  0  0  0  0  0  0  0
    9.7746  -17.8610   22.8677 C   0  0  2  0  0  0  0  0  0  0  0  0
    9.4648  -17.0082   21.7264 N   0  0  0  0  0  0  0  0  0  0  0  0
   10.0520  -16.9375   24.0193 C   0  0  0  0  0  0  0  0  0  0  0  0
   10.6269  -15.8237   23.8645 O   0  0  0  0  0  0  0  0  0  0  0  0
    9.6781  -17.2744   25.3484 N   0  0  0  0  0  0  0  0  0  0  0  0
   10.1606  -16.5029   26.4821 C   0  0  1  0  0  0  0  0  0  0  0  0
    9.1083  -16.3477   27.5436 C   0  0  0  0  0  0  0  0  0  0  0  0
    7.9674  -15.6067   26.9630 C   0  0  0  0  0  0  0  0  0  0  0  0
    6.8345  -16.1399   26.3893 C   0  0  0  0  0  0  0  0  0  0  0  0
    6.0257  -15.1217   25.9726 N   0  0  0  0  0  0  0  0  0  0  0  0
    6.6161  -13.9415   26.2670 C   0  0  0  0  0  0  0  0  0  0  0  0
    6.2414  -12.6438   26.0693 C   0  0  0  0  0  0  0  0  0  0  0  0
    7.0606  -11.6171   26.4805 C   0  0  0  0  0  0  0  0  0  0  0  0
    8.2556  -11.9014   27.0899 C   0  0  0  0  0  0  0  0  0  0  0  0
    8.6401  -13.2054   27.2927 C   0  0  0  0  0  0  0  0  0  0  0  0
    7.8260  -14.2393   26.8842 C   0  0  0  0  0  0  0  0  0  0  0  0
   11.4319  -17.0850   27.0011 C   0  0  0  0  0  0  0  0  0  0  0  0
   11.8407  -18.2192   26.6010 O   0  0  0  0  0  0  0  0  0  0  0  0
   12.2150  -16.4250   27.9295 O   0  0  0  0  0  0  0  0  0  0  0  0
  2  1  1  0
  3  4  1  0
  3  2  1  0
  4  5  1  0
  5  7  1  0
  5  6  1  1
  7  8  2  0
 10  9  1  6
 11 10  1  0
 11  7  1  0
 12 10  1  0
 13 12  2  0
 14 12  1  0
 15 26  1  0
 15 14  1  0
 15 16  1  1
 17 16  1  0
 18 17  2  0
 19 20  1  0
 19 18  1  0
 20 25  2  0
 21 22  2  0
 21 20  1  0
 22 23  1  0
 23 24  2  0
 25 17  1  0
 25 24  1  0
 26 28  1  0
 27 26  2  0
M  END
$$$$
