MAW.pdb
     RDKit          3D

 28 29  0  0  1  0  0  0  0  0999 V2000
    8.2700  -19.4062   26.8019 C   0  0  0  0  0  0  0  0  0  0  0  0
    6.5970  -20.0436   26.5768 S   0  0  0  0  0  0  0  0  0  0  0  0
    6.1671  -20.0963   24.8572 C   0  0  0  0  0  0  0  0  0  0  0  0
    6.4234  -18.8830   24.0525 C   0  0  0  0  0  0  0  0  0  0  0  0
    6.1711  -18.9509   22.5912 C   0  0  2  0  0  0  0  0  0  0  0  0
    6.4879  -20.2079   21.9932 N   0  0  0  0  0  0  0  0  0  0  0  0
    7.0459  -17.9050   21.9613 C   0  0  0  0  0  0  0  0  0  0  0  0
    8.1079  -18.2523   21.3400 O   0  0  0  0  0  0  0  0  0  0  0  0
    6.6532  -14.3304   20.9656 C   0  0  0  0  0  0  0  0  0  0  0  0
    7.4696  -15.5412   21.3154 C   0  0  2  0  0  0  0  0  0  0  0  0
    6.7050  -16.5418   22.0504 N   0  0  0  0  0  0  0  0  0  0  0  0
    8.6463  -15.1920   22.1811 C   0  0  0  0  0  0  0  0  0  0  0  0
    9.4949  -14.3202   21.8424 O   0  0  0  0  0  0  0  0  0  0  0  0
    8.8632  -15.8301   23.4323 N   0  0  0  0  0  0  0  0  0  0  0  0
   10.0181  -15.5018   24.2518 C   0  0  1  0  0  0  0  0  0  0  0  0
    9.6490  -15.3300   25.6983 C   0  0  0  0  0  0  0  0  0  0  0  0
    8.2175  -14.9648   25.7730 C   0  0  0  0  0  0  0  0  0  0  0  0
    7.1365  -15.8129   25.6774 C   0  0  0  0  0  0  0  0  0  0  0  0
    5.9878  -15.0838   25.7927 N   0  0  0  0  0  0  0  0  0  0  0  0
    6.3080  -13.7809   25.9610 C   0  0  0  0  0  0  0  0  0  0  0  0
    5.5530  -12.6552   26.1225 C   0  0  0  0  0  0  0  0  0  0  0  0
    6.1617  -11.4302   26.2754 C   0  0  0  0  0  0  0  0  0  0  0  0
    7.5301  -11.3435   26.2651 C   0  0  0  0  0  0  0  0  0  0  0  0
    8.2974  -12.4724   26.1031 C   0  0  0  0  0  0  0  0  0  0  0  0
    7.6961  -13.7026   25.9494 C   0  0  0  0  0  0  0  0  0  0  0  0
   11.1037  -16.5026   24.0413 C   0  0  0  0  0  0  0  0  0  0  0  0
   12.2486  -16.3432   24.5680 O   0  0  0  0  0  0  0  0  0  0  0  0
   10.9163  -17.6365   23.2732 O   0  0  0  0  0  0  0  0  0  0  0  0
  2  1  1  0
  3  4  1  0
  3  2  1  0
  4  5  1  0
  5  7  1  0
  5  6  1  6
  7  8  2  0
 10  9  1  1
 11 10  1  0
 11  7  1  0
 12 10  1  0
 13 12  2  0
 14 12  1  0
 15 26  1  0
 15 14  1  0
 15 16  1  1
 17 16  1  0
 18 17  2  0
 19 20  1  0
 19 18  1  0
 20 25  2  0
 21 22  2  0
 21 20  1  0
 22 23  1  0
 23 24  2  0
 25 17  1  0
 25 24  1  0
 26 28  1  0
 27 26  2  0
M  END
$$$$
