MAW.pdb
     RDKit          3D

 28 29  0  0  1  0  0  0  0  0999 V2000
    8.8077  -19.4320   27.3580 C   0  0  0  0  0  0  0  0  0  0  0  0
    7.0245  -19.2438   27.5591 S   0  0  0  0  0  0  0  0  0  0  0  0
    6.1912  -19.4197   26.0038 C   0  0  0  0  0  0  0  0  0  0  0  0
    6.7473  -18.6888   24.8455 C   0  0  0  0  0  0  0  0  0  0  0  0
    6.0974  -18.8799   23.5246 C   0  0  2  0  0  0  0  0  0  0  0  0
    6.0945  -20.2282   23.0554 N   0  0  0  0  0  0  0  0  0  0  0  0
    6.8771  -18.0504   22.5448 C   0  0  0  0  0  0  0  0  0  0  0  0
    7.8295  -18.5808   21.8769 O   0  0  0  0  0  0  0  0  0  0  0  0
    6.6183  -14.6800   20.9325 C   0  0  0  0  0  0  0  0  0  0  0  0
    7.3703  -15.8685   21.4585 C   0  0  2  0  0  0  0  0  0  0  0  0
    6.5670  -16.6901   22.3561 N   0  0  0  0  0  0  0  0  0  0  0  0
    8.5874  -15.4605   22.2383 C   0  0  0  0  0  0  0  0  0  0  0  0
    9.4703  -14.6971   21.7560 O   0  0  0  0  0  0  0  0  0  0  0  0
    8.8059  -15.9168   23.5664 N   0  0  0  0  0  0  0  0  0  0  0  0
    9.9912  -15.5221   24.3100 C   0  0  1  0  0  0  0  0  0  0  0  0
    9.6506  -15.0289   25.6879 C   0  0  0  0  0  0  0  0  0  0  0  0
    8.1878  -14.8209   25.7594 C   0  0  0  0  0  0  0  0  0  0  0  0
    7.2058  -15.7833   25.6790 C   0  0  0  0  0  0  0  0  0  0  0  0
    5.9844  -15.1821   25.7848 N   0  0  0  0  0  0  0  0  0  0  0  0
    6.1605  -13.8496   25.9320 C   0  0  0  0  0  0  0  0  0  0  0  0
    5.2872  -12.8106   26.0771 C   0  0  0  0  0  0  0  0  0  0  0  0
    5.7585  -11.5243   26.2096 C   0  0  0  0  0  0  0  0  0  0  0  0
    7.1093  -11.2889   26.1956 C   0  0  0  0  0  0  0  0  0  0  0  0
    7.9952  -12.3297   26.0501 C   0  0  0  0  0  0  0  0  0  0  0  0
    7.5318  -13.6205   25.9167 C   0  0  0  0  0  0  0  0  0  0  0  0
   10.9906  -16.6292   24.3167 C   0  0  0  0  0  0  0  0  0  0  0  0
   12.1717  -16.4387   24.7437 O   0  0  0  0  0  0  0  0  0  0  0  0
   10.6815  -17.8984   23.8647 O   0  0  0  0  0  0  0  0  0  0  0  0
  2  1  1  0
  3  4  1  0
  3  2  1  0
  4  5  1  0
  5  7  1  0
  5  6  1  6
  7  8  2  0
 10  9  1  1
 11 10  1  0
 11  7  1  0
 12 10  1  0
 13 12  2  0
 14 12  1  0
 15 26  1  0
 15 14  1  0
 15 16  1  1
 17 16  1  0
 18 17  2  0
 19 20  1  0
 19 18  1  0
 20 25  2  0
 21 22  2  0
 21 20  1  0
 22 23  1  0
 23 24  2  0
 25 17  1  0
 25 24  1  0
 26 28  1  0
 27 26  2  0
M  END
$$$$
