MAW.pdb
     RDKit          3D

 28 29  0  0  1  0  0  0  0  0999 V2000
    7.8485  -11.8875   21.7281 C   0  0  0  0  0  0  0  0  0  0  0  0
    7.0651  -12.5291   20.2346 S   0  0  0  0  0  0  0  0  0  0  0  0
    7.0429  -14.3022   20.2447 C   0  0  0  0  0  0  0  0  0  0  0  0
    7.9002  -14.9895   21.2336 C   0  0  0  0  0  0  0  0  0  0  0  0
    7.9064  -16.4740   21.2369 C   0  0  2  0  0  0  0  0  0  0  0  0
    6.6149  -17.0720   21.1254 N   0  0  0  0  0  0  0  0  0  0  0  0
    8.4982  -16.8921   22.5526 C   0  0  0  0  0  0  0  0  0  0  0  0
    7.9719  -17.8532   23.2113 O   0  0  0  0  0  0  0  0  0  0  0  0
   11.9747  -16.5126   22.3643 C   0  0  0  0  0  0  0  0  0  0  0  0
   10.8745  -16.9613   23.2824 C   0  0  2  0  0  0  0  0  0  0  0  0
    9.6302  -16.2321   23.0676 N   0  0  0  0  0  0  0  0  0  0  0  0
   11.2344  -16.7618   24.7269 C   0  0  0  0  0  0  0  0  0  0  0  0
   12.3090  -17.2063   25.2197 O   0  0  0  0  0  0  0  0  0  0  0  0
   10.3774  -16.0578   25.6156 N   0  0  0  0  0  0  0  0  0  0  0  0
   10.7064  -15.9215   27.0251 C   0  0  1  0  0  0  0  0  0  0  0  0
    9.8459  -14.8945   27.7052 C   0  0  0  0  0  0  0  0  0  0  0  0
    8.5378  -14.8530   27.0158 C   0  0  0  0  0  0  0  0  0  0  0  0
    7.7155  -15.9195   26.7271 C   0  0  0  0  0  0  0  0  0  0  0  0
    6.6034  -15.4612   26.0808 N   0  0  0  0  0  0  0  0  0  0  0  0
    6.6932  -14.1186   25.9475 C   0  0  0  0  0  0  0  0  0  0  0  0
    5.8680  -13.1863   25.3878 C   0  0  0  0  0  0  0  0  0  0  0  0
    6.2220  -11.8563   25.3945 C   0  0  0  0  0  0  0  0  0  0  0  0
    7.4072  -11.4697   25.9654 C   0  0  0  0  0  0  0  0  0  0  0  0
    8.2436  -12.4023   26.5311 C   0  0  0  0  0  0  0  0  0  0  0  0
    7.8969  -13.7359   26.5287 C   0  0  0  0  0  0  0  0  0  0  0  0
   10.6680  -17.2526   27.6967 C   0  0  0  0  0  0  0  0  0  0  0  0
   10.1169  -18.2502   27.1357 O   0  0  0  0  0  0  0  0  0  0  0  0
   11.2240  -17.4600   28.9451 O   0  0  0  0  0  0  0  0  0  0  0  0
  2  1  1  0
  3  4  1  0
  3  2  1  0
  4  5  1  0
  5  7  1  0
  5  6  1  1
  7  8  2  0
 10  9  1  6
 11 10  1  0
 11  7  1  0
 12 10  1  0
 13 12  2  0
 14 12  1  0
 15 26  1  0
 15 14  1  0
 15 16  1  1
 17 16  1  0
 18 17  2  0
 19 20  1  0
 19 18  1  0
 20 25  2  0
 21 22  2  0
 21 20  1  0
 22 23  1  0
 23 24  2  0
 25 17  1  0
 25 24  1  0
 26 28  1  0
 27 26  2  0
M  END
$$$$
