MAW.pdb
     RDKit          3D

 28 29  0  0  1  0  0  0  0  0999 V2000
    7.1934  -11.6459   18.2584 C   0  0  0  0  0  0  0  0  0  0  0  0
    7.9388  -12.9659   19.2371 S   0  0  0  0  0  0  0  0  0  0  0  0
    6.6983  -13.8777   20.1169 C   0  0  0  0  0  0  0  0  0  0  0  0
    7.1565  -14.9392   21.0380 C   0  0  0  0  0  0  0  0  0  0  0  0
    8.6175  -15.0914   21.2528 C   0  0  2  0  0  0  0  0  0  0  0  0
    9.3351  -15.5805   20.1198 N   0  0  0  0  0  0  0  0  0  0  0  0
    8.7805  -16.0843   22.3680 C   0  0  0  0  0  0  0  0  0  0  0  0
    7.9354  -16.1097   23.3270 O   0  0  0  0  0  0  0  0  0  0  0  0
   11.1318  -18.9226   23.2093 C   0  0  0  0  0  0  0  0  0  0  0  0
   10.0343  -17.9303   23.4654 C   0  0  2  0  0  0  0  0  0  0  0  0
    9.8593  -16.9890   22.3657 N   0  0  0  0  0  0  0  0  0  0  0  0
   10.3032  -17.1017   24.6890 C   0  0  0  0  0  0  0  0  0  0  0  0
   11.0461  -16.0808   24.6598 O   0  0  0  0  0  0  0  0  0  0  0  0
    9.7303  -17.4284   25.9479 N   0  0  0  0  0  0  0  0  0  0  0  0
   10.2018  -16.8022   27.1722 C   0  0  1  0  0  0  0  0  0  0  0  0
    9.0653  -16.3757   28.0579 C   0  0  0  0  0  0  0  0  0  0  0  0
    8.0404  -15.7200   27.2165 C   0  0  0  0  0  0  0  0  0  0  0  0
    7.0239  -16.3308   26.5162 C   0  0  0  0  0  0  0  0  0  0  0  0
    6.2977  -15.3764   25.8634 N   0  0  0  0  0  0  0  0  0  0  0  0
    6.8272  -14.1611   26.1298 C   0  0  0  0  0  0  0  0  0  0  0  0
    6.4906  -12.8979   25.7367 C   0  0  0  0  0  0  0  0  0  0  0  0
    7.2255  -11.8190   26.1727 C   0  0  0  0  0  0  0  0  0  0  0  0
    8.2980  -12.0164   27.0038 C   0  0  0  0  0  0  0  0  0  0  0  0
    8.6434  -13.2851   27.4043 C   0  0  0  0  0  0  0  0  0  0  0  0
    7.9131  -14.3709   26.9725 C   0  0  0  0  0  0  0  0  0  0  0  0
   11.1799  -17.6902   27.8645 C   0  0  0  0  0  0  0  0  0  0  0  0
   11.7934  -17.2981   28.9054 O   0  0  0  0  0  0  0  0  0  0  0  0
   11.4601  -18.9658   27.4114 O   0  0  0  0  0  0  0  0  0  0  0  0
  2  1  1  0
  3  4  1  0
  3  2  1  0
  4  5  1  0
  5  7  1  0
  5  6  1  6
  7  8  2  0
 10  9  1  6
 11 10  1  0
 11  7  1  0
 12 10  1  0
 13 12  2  0
 14 12  1  0
 15 26  1  0
 15 14  1  0
 15 16  1  1
 17 16  1  0
 18 17  2  0
 19 20  1  0
 19 18  1  0
 20 25  2  0
 21 22  2  0
 21 20  1  0
 22 23  1  0
 23 24  2  0
 25 17  1  0
 25 24  1  0
 26 28  1  0
 27 26  2  0
M  END
$$$$
