MAW.pdb
     RDKit          3D

 28 29  0  0  1  0  0  0  0  0999 V2000
    9.9954  -11.5400   21.0442 C   0  0  0  0  0  0  0  0  0  0  0  0
    9.1151  -12.7828   20.0765 S   0  0  0  0  0  0  0  0  0  0  0  0
    7.8581  -13.5678   21.0503 C   0  0  0  0  0  0  0  0  0  0  0  0
    7.0993  -14.6709   20.4237 C   0  0  0  0  0  0  0  0  0  0  0  0
    7.8263  -15.9273   20.1130 C   0  0  2  0  0  0  0  0  0  0  0  0
    7.0637  -16.8878   19.3823 N   0  0  0  0  0  0  0  0  0  0  0  0
    8.1984  -16.5390   21.4334 C   0  0  0  0  0  0  0  0  0  0  0  0
    7.2865  -17.0008   22.2012 O   0  0  0  0  0  0  0  0  0  0  0  0
   11.0789  -18.3774   22.6010 C   0  0  0  0  0  0  0  0  0  0  0  0
    9.9425  -17.4594   22.9483 C   0  0  2  0  0  0  0  0  0  0  0  0
    9.5466  -16.6075   21.8332 N   0  0  0  0  0  0  0  0  0  0  0  0
   10.2947  -16.5353   24.0788 C   0  0  0  0  0  0  0  0  0  0  0  0
   10.9631  -15.4787   23.9001 O   0  0  0  0  0  0  0  0  0  0  0  0
    9.8899  -16.8068   25.4137 N   0  0  0  0  0  0  0  0  0  0  0  0
   10.2694  -15.9266   26.5067 C   0  0  1  0  0  0  0  0  0  0  0  0
    9.2470  -15.9267   27.6080 C   0  0  0  0  0  0  0  0  0  0  0  0
    7.9423  -15.5345   27.0318 C   0  0  0  0  0  0  0  0  0  0  0  0
    6.9498  -16.3721   26.5732 C   0  0  0  0  0  0  0  0  0  0  0  0
    5.9072  -15.6178   26.1166 N   0  0  0  0  0  0  0  0  0  0  0  0
    6.2090  -14.3090   26.2722 C   0  0  0  0  0  0  0  0  0  0  0  0
    5.5287  -13.1612   25.9839 C   0  0  0  0  0  0  0  0  0  0  0  0
    6.0932  -11.9357   26.2559 C   0  0  0  0  0  0  0  0  0  0  0  0
    7.3423  -11.8708   26.8177 C   0  0  0  0  0  0  0  0  0  0  0  0
    8.0338  -13.0219   27.1111 C   0  0  0  0  0  0  0  0  0  0  0  0
    7.4760  -14.2528   26.8421 C   0  0  0  0  0  0  0  0  0  0  0  0
   11.6427  -16.2577   26.9851 C   0  0  0  0  0  0  0  0  0  0  0  0
   12.2079  -17.3429   26.6440 O   0  0  0  0  0  0  0  0  0  0  0  0
   12.3556  -15.4090   27.8112 O   0  0  0  0  0  0  0  0  0  0  0  0
  2  1  1  0
  3  4  1  0
  3  2  1  0
  4  5  1  0
  5  7  1  0
  5  6  1  1
  7  8  2  0
 10  9  1  6
 11 10  1  0
 11  7  1  0
 12 10  1  0
 13 12  2  0
 14 12  1  0
 15 26  1  0
 15 14  1  0
 15 16  1  1
 17 16  1  0
 18 17  2  0
 19 20  1  0
 19 18  1  0
 20 25  2  0
 21 22  2  0
 21 20  1  0
 22 23  1  0
 23 24  2  0
 25 17  1  0
 25 24  1  0
 26 28  1  0
 27 26  2  0
M  END
$$$$
