EVQ.pdb
     RDKit          3D

 26 25  0  0  1  0  0  0  0  0999 V2000
   10.6461  -16.0996   15.5134 N   0  0  0  0  0  0  0  0  0  0  0  0
    9.7386  -16.6377   16.5061 C   0  0  1  0  0  0  0  0  0  0  0  0
   10.0415  -18.1071   16.6409 C   0  0  0  0  0  0  0  0  0  0  0  0
    9.6951  -18.8759   15.3845 C   0  0  0  0  0  0  0  0  0  0  0  0
    9.9748  -20.3146   15.5348 C   0  0  0  0  0  0  0  0  0  0  0  0
    9.0511  -21.1446   15.4357 O   0  0  0  0  0  0  0  0  0  0  0  0
    9.9360  -15.8976   17.7666 C   0  0  0  0  0  0  0  0  0  0  0  0
   11.0897  -15.7566   18.2343 O   0  0  0  0  0  0  0  0  0  0  0  0
   11.2575  -20.7446   15.7850 O   0  0  0  0  0  0  0  0  0  0  0  0
    7.7785  -13.1118   21.3100 C   0  0  0  0  0  0  0  0  0  0  0  0
    7.7142  -13.8523   19.9930 C   0  0  1  0  0  0  0  0  0  0  0  0
    7.6028  -12.8380   18.8864 C   0  0  0  0  0  0  0  0  0  0  0  0
    9.0166  -14.6234   19.7484 C   0  0  2  0  0  0  0  0  0  0  0  0
    8.8687  -15.3154   18.5088 N   0  0  0  0  0  0  0  0  0  0  0  0
    9.1877  -15.5287   20.9071 C   0  0  0  0  0  0  0  0  0  0  0  0
    8.5500  -16.6247   20.8643 O   0  0  0  0  0  0  0  0  0  0  0  0
   14.2235  -18.1985   22.0984 N   0  0  0  0  0  0  0  0  0  0  0  0
   13.5475  -18.4368   23.3221 C   0  0  0  0  0  0  0  0  0  0  0  0
   14.1805  -19.0527   24.2121 O   0  0  0  0  0  0  0  0  0  0  0  0
   12.1751  -17.9820   23.5273 C   0  0  0  0  0  0  0  0  0  0  0  0
   11.6971  -16.8986   22.6319 C   0  0  0  0  0  0  0  0  0  0  0  0
   10.3409  -16.3406   22.9505 C   0  0  2  0  0  0  0  0  0  0  0  0
    9.9863  -15.2705   22.0263 N   0  0  0  0  0  0  0  0  0  0  0  0
   10.2341  -15.8801   24.3566 C   0  0  0  0  0  0  0  0  0  0  0  0
   10.1891  -16.8379   25.3578 O   0  0  0  0  0  0  0  0  0  0  0  0
   10.1820  -14.6738   24.6954 O   0  0  0  0  0  0  0  0  0  0  0  0
  2  1  1  6
  3  2  1  0
  4  3  1  0
  5  4  1  0
  6  5  2  0
  7  8  2  0
  7  2  1  0
  9  5  1  0
 11 10  1  1
 11 12  1  0
 13 11  1  0
 13 14  1  6
 14  7  1  0
 15 13  1  0
 16 15  2  0
 18 20  1  0
 18 17  1  0
 19 18  2  0
 21 20  1  0
 22 21  1  6
 22 23  1  0
 23 15  1  0
 24 22  1  0
 24 25  1  0
 26 24  2  0
M  END
$$$$
