EVQ.pdb
     RDKit          3D

 26 25  0  0  1  0  0  0  0  0999 V2000
    8.7707  -16.5418   17.1018 N   0  0  0  0  0  0  0  0  0  0  0  0
    9.2011  -17.3535   18.2217 C   0  0  1  0  0  0  0  0  0  0  0  0
   10.3763  -18.1729   17.7562 C   0  0  0  0  0  0  0  0  0  0  0  0
    9.9616  -19.5581   17.3101 C   0  0  0  0  0  0  0  0  0  0  0  0
   11.1239  -20.3678   16.9049 C   0  0  0  0  0  0  0  0  0  0  0  0
   12.2702  -19.8822   16.9502 O   0  0  0  0  0  0  0  0  0  0  0  0
    9.5403  -16.4572   19.3429 C   0  0  0  0  0  0  0  0  0  0  0  0
   10.5522  -15.7219   19.2708 O   0  0  0  0  0  0  0  0  0  0  0  0
   10.9456  -21.6626   16.4755 O   0  0  0  0  0  0  0  0  0  0  0  0
    7.5113  -13.7582   20.7095 C   0  0  0  0  0  0  0  0  0  0  0  0
    7.7894  -14.6677   21.8853 C   0  0  1  0  0  0  0  0  0  0  0  0
    6.6507  -15.6450   22.0054 C   0  0  0  0  0  0  0  0  0  0  0  0
    9.0525  -15.4989   21.6320 C   0  0  2  0  0  0  0  0  0  0  0  0
    8.7696  -16.3704   20.5375 N   0  0  0  0  0  0  0  0  0  0  0  0
    9.3370  -16.2183   22.8943 C   0  0  0  0  0  0  0  0  0  0  0  0
    8.5648  -17.1841   23.1781 O   0  0  0  0  0  0  0  0  0  0  0  0
   13.5823  -15.0413   23.5528 N   0  0  0  0  0  0  0  0  0  0  0  0
   13.6151  -16.3985   23.1428 C   0  0  0  0  0  0  0  0  0  0  0  0
   14.2994  -16.6707   22.1280 O   0  0  0  0  0  0  0  0  0  0  0  0
   12.8810  -17.4265   23.8756 C   0  0  0  0  0  0  0  0  0  0  0  0
   12.1438  -16.9776   25.0835 C   0  0  0  0  0  0  0  0  0  0  0  0
   10.6645  -16.7913   24.9125 C   0  0  2  0  0  0  0  0  0  0  0  0
   10.3755  -15.9177   23.7819 N   0  0  0  0  0  0  0  0  0  0  0  0
   10.0105  -16.2910   26.1464 C   0  0  0  0  0  0  0  0  0  0  0  0
   10.1218  -17.0506   27.3007 O   0  0  0  0  0  0  0  0  0  0  0  0
    9.3613  -15.2199   26.2088 O   0  0  0  0  0  0  0  0  0  0  0  0
  2  1  1  6
  3  2  1  0
  4  3  1  0
  5  4  1  0
  6  5  2  0
  7  8  2  0
  7  2  1  0
  9  5  1  0
 11 10  1  6
 11 12  1  0
 13 11  1  0
 13 14  1  6
 14  7  1  0
 15 13  1  0
 16 15  2  0
 18 20  1  0
 18 17  1  0
 19 18  2  0
 21 20  1  0
 22 21  1  1
 22 23  1  0
 23 15  1  0
 24 22  1  0
 24 25  1  0
 26 24  2  0
M  END
$$$$
