EVQ.pdb
     RDKit          3D

 26 25  0  0  1  0  0  0  0  0999 V2000
    8.4757  -17.9178   19.2020 N   0  0  0  0  0  0  0  0  0  0  0  0
    9.8025  -17.7211   19.7492 C   0  0  1  0  0  0  0  0  0  0  0  0
   10.7699  -17.7319   18.5946 C   0  0  0  0  0  0  0  0  0  0  0  0
   10.5715  -18.9350   17.6987 C   0  0  0  0  0  0  0  0  0  0  0  0
   11.4876  -18.9089   16.5451 C   0  0  0  0  0  0  0  0  0  0  0  0
   11.0427  -18.7138   15.3980 O   0  0  0  0  0  0  0  0  0  0  0  0
    9.8156  -16.4465   20.4913 C   0  0  0  0  0  0  0  0  0  0  0  0
   10.8990  -15.8488   20.6873 O   0  0  0  0  0  0  0  0  0  0  0  0
   12.8371  -19.1001   16.7325 O   0  0  0  0  0  0  0  0  0  0  0  0
    7.7881  -13.3464   19.9025 C   0  0  0  0  0  0  0  0  0  0  0  0
    7.5116  -13.7592   21.3308 C   0  0  1  0  0  0  0  0  0  0  0  0
    6.2460  -14.5740   21.3498 C   0  0  0  0  0  0  0  0  0  0  0  0
    8.6272  -14.6743   21.8490 C   0  0  2  0  0  0  0  0  0  0  0  0
    8.6419  -15.8327   21.0151 N   0  0  0  0  0  0  0  0  0  0  0  0
    8.2972  -14.9738   23.2608 C   0  0  0  0  0  0  0  0  0  0  0  0
    7.0634  -15.0497   23.5466 O   0  0  0  0  0  0  0  0  0  0  0  0
    5.9318  -18.6595   24.8915 N   0  0  0  0  0  0  0  0  0  0  0  0
    6.8801  -19.0078   25.8867 C   0  0  0  0  0  0  0  0  0  0  0  0
    6.4909  -19.7713   26.8021 O   0  0  0  0  0  0  0  0  0  0  0  0
    8.2466  -18.4949   25.8399 C   0  0  0  0  0  0  0  0  0  0  0  0
    8.5246  -17.4469   24.8258 C   0  0  0  0  0  0  0  0  0  0  0  0
    8.9528  -16.1140   25.3666 C   0  0  2  0  0  0  0  0  0  0  0  0
    9.2280  -15.1759   24.2853 N   0  0  0  0  0  0  0  0  0  0  0  0
   10.1161  -16.2211   26.2808 C   0  0  0  0  0  0  0  0  0  0  0  0
   11.3788  -15.9709   25.7662 O   0  0  0  0  0  0  0  0  0  0  0  0
   10.0262  -16.5250   27.4942 O   0  0  0  0  0  0  0  0  0  0  0  0
  2  1  1  6
  3  2  1  0
  4  3  1  0
  5  4  1  0
  6  5  2  0
  7  8  2  0
  7  2  1  0
  9  5  1  0
 11 10  1  6
 11 12  1  0
 13 11  1  0
 13 14  1  6
 14  7  1  0
 15 13  1  0
 16 15  2  0
 18 20  1  0
 18 17  1  0
 19 18  2  0
 21 20  1  0
 22 21  1  6
 22 23  1  0
 23 15  1  0
 24 22  1  0
 24 25  1  0
 26 24  2  0
M  END
$$$$
