EVQ.pdb
     RDKit          3D

 26 25  0  0  1  0  0  0  0  0999 V2000
    8.1207  -14.2075   20.6166 N   0  0  0  0  0  0  0  0  0  0  0  0
    7.5537  -14.9425   21.7287 C   0  0  1  0  0  0  0  0  0  0  0  0
    7.9006  -16.3948   21.5300 C   0  0  0  0  0  0  0  0  0  0  0  0
    7.3667  -16.9321   20.2201 C   0  0  0  0  0  0  0  0  0  0  0  0
    7.5930  -18.3827   20.0966 C   0  0  0  0  0  0  0  0  0  0  0  0
    8.4242  -18.8181   19.2771 O   0  0  0  0  0  0  0  0  0  0  0  0
    8.1055  -14.3912   22.9806 C   0  0  0  0  0  0  0  0  0  0  0  0
    9.3441  -14.2543   23.1103 O   0  0  0  0  0  0  0  0  0  0  0  0
    6.8866  -19.2600   20.8866 O   0  0  0  0  0  0  0  0  0  0  0  0
    7.0734  -12.3912   27.4423 C   0  0  0  0  0  0  0  0  0  0  0  0
    6.6283  -12.8826   26.0831 C   0  0  1  0  0  0  0  0  0  0  0  0
    6.2180  -11.6900   25.2614 C   0  0  0  0  0  0  0  0  0  0  0  0
    7.7983  -13.5408   25.3424 C   0  0  2  0  0  0  0  0  0  0  0  0
    7.2982  -13.9926   24.0842 N   0  0  0  0  0  0  0  0  0  0  0  0
    8.2748  -14.6404   26.2116 C   0  0  0  0  0  0  0  0  0  0  0  0
    7.4700  -15.6044   26.3922 O   0  0  0  0  0  0  0  0  0  0  0  0
   13.3048  -17.7589   25.6074 N   0  0  0  0  0  0  0  0  0  0  0  0
   13.3592  -16.3806   25.9369 C   0  0  0  0  0  0  0  0  0  0  0  0
   14.3926  -15.7550   25.6009 O   0  0  0  0  0  0  0  0  0  0  0  0
   12.2565  -15.7277   26.6372 C   0  0  0  0  0  0  0  0  0  0  0  0
   11.0753  -16.5733   26.9434 C   0  0  0  0  0  0  0  0  0  0  0  0
    9.9239  -15.8707   27.6013 C   0  0  2  0  0  0  0  0  0  0  0  0
    9.5246  -14.6949   26.8377 N   0  0  0  0  0  0  0  0  0  0  0  0
   10.2109  -15.5114   29.0116 C   0  0  0  0  0  0  0  0  0  0  0  0
   10.0637  -14.1867   29.3929 O   0  0  0  0  0  0  0  0  0  0  0  0
   10.5796  -16.3354   29.8821 O   0  0  0  0  0  0  0  0  0  0  0  0
  2  1  1  6
  3  2  1  0
  4  3  1  0
  5  4  1  0
  6  5  2  0
  7  8  2  0
  7  2  1  0
  9  5  1  0
 11 10  1  1
 11 12  1  0
 13 11  1  0
 13 14  1  6
 14  7  1  0
 15 13  1  0
 16 15  2  0
 18 20  1  0
 18 17  1  0
 19 18  2  0
 21 20  1  0
 22 21  1  6
 22 23  1  0
 23 15  1  0
 24 22  1  0
 24 25  1  0
 26 24  2  0
M  END
$$$$
