VRH.pdb
     RDKit          3D

 29 29  0  0  1  0  0  0  0  0999 V2000
   14.0660  -18.0848   17.9820 C   0  0  0  0  0  0  0  0  0  0  0  0
   12.5752  -18.2696   17.8816 C   0  0  2  0  0  0  0  0  0  0  0  0
   11.8658  -16.9975   17.4844 C   0  0  0  0  0  0  0  0  0  0  0  0
   11.9666  -18.9260   19.0803 C   0  0  2  0  0  0  0  0  0  0  0  0
   10.6328  -19.4205   18.6923 N   0  0  0  0  0  0  0  0  0  0  0  0
   11.8048  -18.1057   20.2687 C   0  0  0  0  0  0  0  0  0  0  0  0
   12.8480  -17.7769   20.9292 O   0  0  0  0  0  0  0  0  0  0  0  0
    8.6559  -13.3132   18.4431 N   0  0  0  0  0  0  0  0  0  0  0  0
    8.2956  -12.6029   19.6236 C   0  0  0  0  0  0  0  0  0  0  0  0
    8.3717  -11.3255   19.7256 N   0  0  0  0  0  0  0  0  0  0  0  0
    7.8186  -13.3245   20.7772 N   0  0  0  0  0  0  0  0  0  0  0  0
    7.6656  -14.7457   20.7758 C   0  0  0  0  0  0  0  0  0  0  0  0
    9.0475  -15.3738   20.9106 C   0  0  0  0  0  0  0  0  0  0  0  0
    9.1682  -16.2118   22.1366 C   0  0  0  0  0  0  0  0  0  0  0  0
   10.5373  -16.9139   22.0941 C   0  0  2  0  0  0  0  0  0  0  0  0
   10.5975  -17.5949   20.8211 N   0  0  0  0  0  0  0  0  0  0  0  0
   10.5826  -17.7588   23.2766 C   0  0  0  0  0  0  0  0  0  0  0  0
   10.0518  -18.8943   23.2064 O   0  0  0  0  0  0  0  0  0  0  0  0
    8.0893  -10.8091   20.5758 N   0  0  0  0  0  0  0  0  0  0  0  0
   11.1849  -17.4187   24.5400 C   0  0  2  0  0  0  0  0  0  0  0  0
   11.7179  -18.4593   25.3977 C   0  0  0  0  0  0  0  0  0  0  0  0
   12.9293  -19.1425   24.8935 C   0  0  0  0  0  0  0  0  0  0  0  0
   12.7749  -20.1922   23.9118 C   0  0  0  0  0  0  0  0  0  0  0  0
   11.6667  -20.6641   23.2844 N   0  0  0  0  0  0  0  0  0  0  0  0
   12.0008  -21.6486   22.4095 C   0  0  0  0  0  0  0  0  0  0  0  0
   13.3298  -21.7700   22.5119 N   0  0  0  0  0  0  0  0  0  0  0  0
   13.8242  -20.9101   23.4049 C   0  0  0  0  0  0  0  0  0  0  0  0
   11.8656  -17.9698   26.7950 O   0  0  0  0  0  0  0  0  0  0  0  0
   12.2862  -18.8480   27.7563 O   0  0  0  0  0  0  0  0  0  0  0  0
  2  1  1  1
  3  2  1  0
  4  2  1  0
  4  5  1  6
  6  4  1  0
  7  6  2  0
  9  8  1  0
  9 11  1  0
 10  9  2  0
 12 11  1  0
 12 13  1  0
 13 14  1  0
 15 14  1  6
 15 16  1  0
 16  6  1  0
 17 15  1  0
 17 18  2  0
 19 17  1  0
 20 19  1  0
 20 21  1  6
 21 22  1  0
 22 26  1  0
 22 23  2  0
 23 24  1  0
 25 24  1  0
 26 25  2  0
 27 20  1  0
 28 27  1  0
 29 27  2  0
M  END
$$$$
