VRH.pdb
     RDKit          3D

 29 29  0  0  1  0  0  0  0  0999 V2000
    7.2616  -12.6549   20.4175 C   0  0  0  0  0  0  0  0  0  0  0  0
    8.4432  -12.8358   19.5022 C   0  0  2  0  0  0  0  0  0  0  0  0
    8.4636  -11.8202   18.3854 C   0  0  0  0  0  0  0  0  0  0  0  0
    8.6205  -14.2396   19.0161 C   0  0  2  0  0  0  0  0  0  0  0  0
    7.5517  -14.5143   18.0383 N   0  0  0  0  0  0  0  0  0  0  0  0
    8.5841  -15.2921   20.0172 C   0  0  0  0  0  0  0  0  0  0  0  0
    7.8034  -16.2859   19.8289 O   0  0  0  0  0  0  0  0  0  0  0  0
   12.1772  -22.4581   20.0954 N   0  0  0  0  0  0  0  0  0  0  0  0
   11.2499  -22.4814   21.1759 C   0  0  0  0  0  0  0  0  0  0  0  0
   10.8438  -23.5659   21.7298 N   0  0  0  0  0  0  0  0  0  0  0  0
   10.7232  -21.2438   21.6956 N   0  0  0  0  0  0  0  0  0  0  0  0
   10.8730  -20.0026   21.0026 C   0  0  0  0  0  0  0  0  0  0  0  0
   10.1505  -18.9223   21.7984 C   0  0  0  0  0  0  0  0  0  0  0  0
   10.1586  -17.6069   21.0988 C   0  0  0  0  0  0  0  0  0  0  0  0
    9.4415  -16.5884   22.0031 C   0  0  2  0  0  0  0  0  0  0  0  0
    9.3286  -15.3750   21.2266 N   0  0  0  0  0  0  0  0  0  0  0  0
   10.2436  -16.5038   23.2129 C   0  0  0  0  0  0  0  0  0  0  0  0
   11.4231  -16.0875   23.1062 O   0  0  0  0  0  0  0  0  0  0  0  0
   10.2471  -23.5796   22.5742 N   0  0  0  0  0  0  0  0  0  0  0  0
    9.8141  -16.8548   24.5421 C   0  0  2  0  0  0  0  0  0  0  0  0
    9.3497  -15.8273   25.4538 C   0  0  0  0  0  0  0  0  0  0  0  0
    8.0841  -15.1624   25.0736 C   0  0  0  0  0  0  0  0  0  0  0  0
    7.5485  -14.1416   25.9456 C   0  0  0  0  0  0  0  0  0  0  0  0
    8.0256  -13.6289   27.1092 N   0  0  0  0  0  0  0  0  0  0  0  0
    7.1976  -12.6566   27.5733 C   0  0  0  0  0  0  0  0  0  0  0  0
    6.2081  -12.5831   26.6749 N   0  0  0  0  0  0  0  0  0  0  0  0
    6.3897  -13.4611   25.6861 C   0  0  0  0  0  0  0  0  0  0  0  0
    9.3462  -16.3257   26.8559 O   0  0  0  0  0  0  0  0  0  0  0  0
    9.4972  -15.4228   27.8729 O   0  0  0  0  0  0  0  0  0  0  0  0
  2  1  1  6
  3  2  1  0
  4  2  1  0
  4  5  1  6
  6  4  1  0
  7  6  2  0
  9  8  1  0
  9 11  1  0
 10  9  2  0
 12 11  1  0
 12 13  1  0
 13 14  1  0
 15 14  1  6
 15 16  1  0
 16  6  1  0
 17 15  1  0
 17 18  2  0
 19 17  1  0
 20 19  1  0
 20 21  1  6
 21 22  1  0
 22 26  1  0
 22 23  2  0
 23 24  1  0
 25 24  1  0
 26 25  2  0
 27 20  1  0
 28 27  1  0
 29 27  2  0
M  END
$$$$
