VRH.pdb
     RDKit          3D

 29 29  0  0  1  0  0  0  0  0999 V2000
    8.2332  -12.7646   26.9090 C   0  0  0  0  0  0  0  0  0  0  0  0
    6.9237  -12.6299   26.1783 C   0  0  2  0  0  0  0  0  0  0  0  0
    5.9381  -11.7629   26.9240 C   0  0  0  0  0  0  0  0  0  0  0  0
    6.3381  -13.9362   25.7438 C   0  0  2  0  0  0  0  0  0  0  0  0
    5.8716  -14.6426   26.9511 N   0  0  0  0  0  0  0  0  0  0  0  0
    7.2121  -14.8390   25.0142 C   0  0  0  0  0  0  0  0  0  0  0  0
    7.7763  -15.7907   25.6534 O   0  0  0  0  0  0  0  0  0  0  0  0
    9.6127  -14.7574   18.3173 N   0  0  0  0  0  0  0  0  0  0  0  0
    8.5941  -13.7831   18.5200 C   0  0  0  0  0  0  0  0  0  0  0  0
    8.6987  -12.5654   18.1271 N   0  0  0  0  0  0  0  0  0  0  0  0
    7.3746  -14.1505   19.1957 N   0  0  0  0  0  0  0  0  0  0  0  0
    7.0717  -15.5055   19.5355 C   0  0  0  0  0  0  0  0  0  0  0  0
    7.1920  -15.6560   21.0473 C   0  0  0  0  0  0  0  0  0  0  0  0
    8.5604  -15.3307   21.5386 C   0  0  0  0  0  0  0  0  0  0  0  0
    8.5959  -15.6096   23.0520 C   0  0  2  0  0  0  0  0  0  0  0  0
    7.5393  -14.8113   23.6300 N   0  0  0  0  0  0  0  0  0  0  0  0
    9.9487  -15.2900   23.4788 C   0  0  0  0  0  0  0  0  0  0  0  0
   10.0876  -14.4907   24.4368 O   0  0  0  0  0  0  0  0  0  0  0  0
    7.9384  -11.8720   18.2289 N   0  0  0  0  0  0  0  0  0  0  0  0
   11.1642  -15.8065   22.9041 C   0  0  1  0  0  0  0  0  0  0  0  0
   12.1489  -16.4589   23.7452 C   0  0  0  0  0  0  0  0  0  0  0  0
   11.6524  -17.6074   24.5345 C   0  0  0  0  0  0  0  0  0  0  0  0
   11.1836  -17.3716   25.8813 C   0  0  0  0  0  0  0  0  0  0  0  0
   11.0113  -16.2144   26.5710 N   0  0  0  0  0  0  0  0  0  0  0  0
   10.5176  -16.4707   27.8107 C   0  0  0  0  0  0  0  0  0  0  0  0
   10.3906  -17.8019   27.8670 N   0  0  0  0  0  0  0  0  0  0  0  0
   10.7818  -18.3715   26.7251 C   0  0  0  0  0  0  0  0  0  0  0  0
   13.3804  -16.7740   22.9717 O   0  0  0  0  0  0  0  0  0  0  0  0
   14.5102  -17.1323   23.6554 O   0  0  0  0  0  0  0  0  0  0  0  0
  2  1  1  1
  3  2  1  0
  4  2  1  0
  4  5  1  1
  6  4  1  0
  7  6  2  0
  9  8  1  0
  9 11  1  0
 10  9  2  0
 12 11  1  0
 12 13  1  0
 13 14  1  0
 15 14  1  6
 15 16  1  0
 16  6  1  0
 17 15  1  0
 17 18  2  0
 19 17  1  0
 20 19  1  0
 20 21  1  1
 21 22  1  0
 22 26  1  0
 22 23  2  0
 23 24  1  0
 25 24  1  0
 26 25  2  0
 27 20  1  0
 28 27  1  0
 29 27  2  0
M  END
$$$$
