VRH.pdb
     RDKit          3D

 29 29  0  0  1  0  0  0  0  0999 V2000
    7.5226  -12.6922   21.1604 C   0  0  0  0  0  0  0  0  0  0  0  0
    8.4449  -12.9558   19.9999 C   0  0  2  0  0  0  0  0  0  0  0  0
    8.3727  -11.8707   18.9529 C   0  0  0  0  0  0  0  0  0  0  0  0
    8.3127  -14.3304   19.4244 C   0  0  2  0  0  0  0  0  0  0  0  0
    7.0113  -14.4051   18.7353 N   0  0  0  0  0  0  0  0  0  0  0  0
    8.3836  -15.4434   20.3558 C   0  0  0  0  0  0  0  0  0  0  0  0
    7.3278  -15.7698   20.9972 O   0  0  0  0  0  0  0  0  0  0  0  0
   10.8121  -21.7813   24.4910 N   0  0  0  0  0  0  0  0  0  0  0  0
   10.8107  -22.3508   23.1858 C   0  0  0  0  0  0  0  0  0  0  0  0
   10.3658  -23.5284   22.9337 N   0  0  0  0  0  0  0  0  0  0  0  0
   11.3270  -21.5938   22.0726 N   0  0  0  0  0  0  0  0  0  0  0  0
   11.8273  -20.2634   22.2240 C   0  0  0  0  0  0  0  0  0  0  0  0
   10.6387  -19.3216   22.3743 C   0  0  0  0  0  0  0  0  0  0  0  0
   10.6811  -18.2001   21.3945 C   0  0  0  0  0  0  0  0  0  0  0  0
    9.4973  -17.2644   21.6984 C   0  0  2  0  0  0  0  0  0  0  0  0
    9.5103  -16.2552   20.6644 N   0  0  0  0  0  0  0  0  0  0  0  0
    9.7078  -16.7932   23.0578 C   0  0  0  0  0  0  0  0  0  0  0  0
   10.6586  -15.9995   23.2624 O   0  0  0  0  0  0  0  0  0  0  0  0
   10.4203  -23.9641   21.9976 N   0  0  0  0  0  0  0  0  0  0  0  0
    8.9226  -17.1510   24.2110 C   0  0  2  0  0  0  0  0  0  0  0  0
    9.2544  -16.6113   25.5154 C   0  0  0  0  0  0  0  0  0  0  0  0
    8.1493  -15.9272   26.2220 C   0  0  0  0  0  0  0  0  0  0  0  0
    7.7492  -14.6124   25.7739 C   0  0  0  0  0  0  0  0  0  0  0  0
    8.2821  -13.7974   24.8273 N   0  0  0  0  0  0  0  0  0  0  0  0
    7.5540  -12.6551   24.7212 C   0  0  0  0  0  0  0  0  0  0  0  0
    6.5682  -12.7855   25.6171 N   0  0  0  0  0  0  0  0  0  0  0  0
    6.6574  -13.9490   26.2649 C   0  0  0  0  0  0  0  0  0  0  0  0
    9.9356  -17.6344   26.3541 O   0  0  0  0  0  0  0  0  0  0  0  0
   10.4288  -17.2593   27.5740 O   0  0  0  0  0  0  0  0  0  0  0  0
  2  1  1  1
  3  2  1  0
  4  2  1  0
  4  5  1  1
  6  4  1  0
  7  6  2  0
  9  8  1  0
  9 11  1  0
 10  9  2  0
 12 11  1  0
 12 13  1  0
 13 14  1  0
 15 14  1  6
 15 16  1  0
 16  6  1  0
 17 15  1  0
 17 18  2  0
 19 17  1  0
 20 19  1  0
 20 21  1  6
 21 22  1  0
 22 26  1  0
 22 23  2  0
 23 24  1  0
 25 24  1  0
 26 25  2  0
 27 20  1  0
 28 27  1  0
 29 27  2  0
M  END
$$$$
