VRH.pdb
     RDKit          3D

 29 29  0  0  1  0  0  0  0  0999 V2000
    8.1936  -13.2734   20.8082 C   0  0  0  0  0  0  0  0  0  0  0  0
    8.6446  -13.0588   19.3879 C   0  0  2  0  0  0  0  0  0  0  0  0
    7.8323  -11.9996   18.6827 C   0  0  0  0  0  0  0  0  0  0  0  0
    8.7667  -14.3224   18.5963 C   0  0  2  0  0  0  0  0  0  0  0  0
    7.4036  -14.7964   18.2946 N   0  0  0  0  0  0  0  0  0  0  0  0
    9.4888  -15.4203   19.2165 C   0  0  0  0  0  0  0  0  0  0  0  0
    8.8205  -16.3195   19.8310 O   0  0  0  0  0  0  0  0  0  0  0  0
   14.5207  -20.5268   16.9506 N   0  0  0  0  0  0  0  0  0  0  0  0
   14.9981  -20.8917   18.2417 C   0  0  0  0  0  0  0  0  0  0  0  0
   15.2797  -22.1002   18.5707 N   0  0  0  0  0  0  0  0  0  0  0  0
   15.1847  -19.8782   19.2500 N   0  0  0  0  0  0  0  0  0  0  0  0
   14.8368  -18.5098   19.0268 C   0  0  0  0  0  0  0  0  0  0  0  0
   13.4415  -18.2744   19.5925 C   0  0  0  0  0  0  0  0  0  0  0  0
   12.8896  -16.9482   19.1970 C   0  0  0  0  0  0  0  0  0  0  0  0
   11.5010  -16.8039   19.8454 C   0  0  2  0  0  0  0  0  0  0  0  0
   10.8935  -15.6441   19.2341 N   0  0  0  0  0  0  0  0  0  0  0  0
   11.7423  -16.7225   21.2770 C   0  0  0  0  0  0  0  0  0  0  0  0
   12.3334  -15.7053   21.7148 O   0  0  0  0  0  0  0  0  0  0  0  0
   15.6820  -22.3564   19.4882 N   0  0  0  0  0  0  0  0  0  0  0  0
   11.3650  -17.7069   22.2583 C   0  0  2  0  0  0  0  0  0  0  0  0
   11.5563  -17.4395   23.6707 C   0  0  0  0  0  0  0  0  0  0  0  0
   10.3202  -17.3799   24.4812 C   0  0  0  0  0  0  0  0  0  0  0  0
    9.2955  -16.4291   24.1132 C   0  0  0  0  0  0  0  0  0  0  0  0
    9.0312  -15.1829   24.5838 N   0  0  0  0  0  0  0  0  0  0  0  0
    7.9786  -14.6388   23.9188 C   0  0  0  0  0  0  0  0  0  0  0  0
    7.6048  -15.5715   23.0347 N   0  0  0  0  0  0  0  0  0  0  0  0
    8.3754  -16.6575   23.1261 C   0  0  0  0  0  0  0  0  0  0  0  0
   12.5859  -18.3465   24.2465 O   0  0  0  0  0  0  0  0  0  0  0  0
   13.1368  -19.3069   23.4425 O   0  0  0  0  0  0  0  0  0  0  0  0
  2  1  1  1
  3  2  1  0
  4  2  1  0
  4  5  1  1
  6  4  1  0
  7  6  2  0
  9  8  1  0
  9 11  1  0
 10  9  2  0
 12 11  1  0
 12 13  1  0
 13 14  1  0
 15 14  1  6
 15 16  1  0
 16  6  1  0
 17 15  1  0
 17 18  2  0
 19 17  1  0
 20 19  1  0
 20 21  1  6
 21 22  1  0
 22 26  1  0
 22 23  2  0
 23 24  1  0
 25 24  1  0
 26 25  2  0
 27 20  1  0
 28 27  1  0
 29 27  2  0
M  END
$$$$
