VRH.pdb
     RDKit          3D

 29 29  0  0  1  0  0  0  0  0999 V2000
    7.6282  -12.0836   18.9914 C   0  0  0  0  0  0  0  0  0  0  0  0
    7.9081  -13.0938   20.0720 C   0  0  2  0  0  0  0  0  0  0  0  0
    8.6876  -12.5019   21.2215 C   0  0  0  0  0  0  0  0  0  0  0  0
    8.4979  -14.3718   19.5651 C   0  0  2  0  0  0  0  0  0  0  0  0
    7.5905  -14.9066   18.5334 N   0  0  0  0  0  0  0  0  0  0  0  0
    8.7258  -15.4240   20.5410 C   0  0  0  0  0  0  0  0  0  0  0  0
    7.7175  -16.0664   20.9916 O   0  0  0  0  0  0  0  0  0  0  0  0
   15.2527  -19.2705   20.8005 N   0  0  0  0  0  0  0  0  0  0  0  0
   14.0769  -19.8592   20.2537 C   0  0  0  0  0  0  0  0  0  0  0  0
   14.0034  -20.2909   19.0470 N   0  0  0  0  0  0  0  0  0  0  0  0
   12.8952  -19.9910   21.0693 N   0  0  0  0  0  0  0  0  0  0  0  0
   12.8558  -19.5502   22.4285 C   0  0  0  0  0  0  0  0  0  0  0  0
   11.5497  -18.7961   22.6471 C   0  0  0  0  0  0  0  0  0  0  0  0
   11.4655  -17.5625   21.8159 C   0  0  0  0  0  0  0  0  0  0  0  0
   10.0758  -16.9391   22.0380 C   0  0  2  0  0  0  0  0  0  0  0  0
    9.9663  -15.8579   21.0856 N   0  0  0  0  0  0  0  0  0  0  0  0
   10.0331  -16.5642   23.4422 C   0  0  0  0  0  0  0  0  0  0  0  0
   10.6318  -15.5163   23.7876 O   0  0  0  0  0  0  0  0  0  0  0  0
   13.1335  -20.6677   18.6341 N   0  0  0  0  0  0  0  0  0  0  0  0
    9.3621  -17.2854   24.4930 C   0  0  1  0  0  0  0  0  0  0  0  0
    9.3091  -16.7380   25.8347 C   0  0  0  0  0  0  0  0  0  0  0  0
    7.9519  -16.4909   26.3691 C   0  0  0  0  0  0  0  0  0  0  0  0
    7.1798  -15.3986   25.8212 C   0  0  0  0  0  0  0  0  0  0  0  0
    7.5749  -14.2499   25.2138 N   0  0  0  0  0  0  0  0  0  0  0  0
    6.4942  -13.5212   24.8298 C   0  0  0  0  0  0  0  0  0  0  0  0
    5.4335  -14.2428   25.2115 N   0  0  0  0  0  0  0  0  0  0  0  0
    5.8114  -15.3748   25.8091 C   0  0  0  0  0  0  0  0  0  0  0  0
   10.1645  -17.5265   26.7625 O   0  0  0  0  0  0  0  0  0  0  0  0
   10.3110  -17.0889   28.0507 O   0  0  0  0  0  0  0  0  0  0  0  0
  2  1  1  6
  3  2  1  0
  4  2  1  0
  4  5  1  6
  6  4  1  0
  7  6  2  0
  9  8  1  0
  9 11  1  0
 10  9  2  0
 12 11  1  0
 12 13  1  0
 13 14  1  0
 15 14  1  1
 15 16  1  0
 16  6  1  0
 17 15  1  0
 17 18  2  0
 19 17  1  0
 20 19  1  0
 20 21  1  6
 21 22  1  0
 22 26  1  0
 22 23  2  0
 23 24  1  0
 25 24  1  0
 26 25  2  0
 27 20  1  0
 28 27  1  0
 29 27  2  0
M  END
$$$$
