VRH.pdb
     RDKit          3D

 29 29  0  0  1  0  0  0  0  0999 V2000
    7.4492  -14.1411   21.5254 C   0  0  0  0  0  0  0  0  0  0  0  0
    6.5357  -14.0903   22.7211 C   0  0  2  0  0  0  0  0  0  0  0  0
    5.9040  -12.7312   22.9021 C   0  0  0  0  0  0  0  0  0  0  0  0
    7.1559  -14.6163   23.9769 C   0  0  2  0  0  0  0  0  0  0  0  0
    8.0039  -13.5493   24.5396 N   0  0  0  0  0  0  0  0  0  0  0  0
    7.9725  -15.8121   23.8567 C   0  0  0  0  0  0  0  0  0  0  0  0
    7.4314  -16.9459   24.0898 O   0  0  0  0  0  0  0  0  0  0  0  0
   12.0709  -14.0291   19.1181 N   0  0  0  0  0  0  0  0  0  0  0  0
   10.7032  -14.1725   18.7479 C   0  0  0  0  0  0  0  0  0  0  0  0
   10.0364  -13.2511   18.1527 N   0  0  0  0  0  0  0  0  0  0  0  0
   10.0057  -15.3996   19.0419 N   0  0  0  0  0  0  0  0  0  0  0  0
   10.5968  -16.4433   19.8195 C   0  0  0  0  0  0  0  0  0  0  0  0
   10.1441  -16.2753   21.2649 C   0  0  0  0  0  0  0  0  0  0  0  0
   10.7157  -17.3208   22.1593 C   0  0  0  0  0  0  0  0  0  0  0  0
   10.1003  -17.1319   23.5576 C   0  0  2  0  0  0  0  0  0  0  0  0
    9.3466  -15.9005   23.4991 N   0  0  0  0  0  0  0  0  0  0  0  0
   11.2192  -17.1561   24.4858 C   0  0  0  0  0  0  0  0  0  0  0  0
   12.0627  -16.2293   24.4114 O   0  0  0  0  0  0  0  0  0  0  0  0
    9.0239  -13.3242   17.9561 N   0  0  0  0  0  0  0  0  0  0  0  0
   11.4606  -18.1519   25.4981 C   0  0  1  0  0  0  0  0  0  0  0  0
   11.1231  -17.8818   26.8822 C   0  0  0  0  0  0  0  0  0  0  0  0
    9.7903  -17.2807   27.1076 C   0  0  0  0  0  0  0  0  0  0  0  0
    9.7146  -15.8952   27.5128 C   0  0  0  0  0  0  0  0  0  0  0  0
   10.6949  -14.9953   27.7841 N   0  0  0  0  0  0  0  0  0  0  0  0
   10.1560  -13.7893   28.1024 C   0  0  0  0  0  0  0  0  0  0  0  0
    8.8319  -13.9665   28.0208 N   0  0  0  0  0  0  0  0  0  0  0  0
    8.5348  -15.2192   27.6690 C   0  0  0  0  0  0  0  0  0  0  0  0
   11.3723  -19.0781   27.7312 O   0  0  0  0  0  0  0  0  0  0  0  0
   11.7159  -18.8914   29.0424 O   0  0  0  0  0  0  0  0  0  0  0  0
  2  1  1  6
  3  2  1  0
  4  2  1  0
  4  5  1  6
  6  4  1  0
  7  6  2  0
  9  8  1  0
  9 11  1  0
 10  9  2  0
 12 11  1  0
 12 13  1  0
 13 14  1  0
 15 14  1  6
 15 16  1  0
 16  6  1  0
 17 15  1  0
 17 18  2  0
 19 17  1  0
 20 19  1  0
 20 21  1  1
 21 22  1  0
 22 26  1  0
 22 23  2  0
 23 24  1  0
 25 24  1  0
 26 25  2  0
 27 20  1  0
 28 27  1  0
 29 27  2  0
M  END
$$$$
