VRH.pdb
     RDKit          3D

 29 29  0  0  1  0  0  0  0  0999 V2000
    7.9061  -11.5805   19.8958 C   0  0  0  0  0  0  0  0  0  0  0  0
    8.6825  -12.7191   19.2896 C   0  0  2  0  0  0  0  0  0  0  0  0
    7.8492  -13.5341   18.3302 C   0  0  0  0  0  0  0  0  0  0  0  0
    9.4033  -13.5606   20.2948 C   0  0  2  0  0  0  0  0  0  0  0  0
   10.2894  -14.4801   19.5577 N   0  0  0  0  0  0  0  0  0  0  0  0
    8.5856  -14.3596   21.1917 C   0  0  0  0  0  0  0  0  0  0  0  0
    7.7739  -13.7589   21.9746 O   0  0  0  0  0  0  0  0  0  0  0  0
    6.5957  -18.9713   17.0410 N   0  0  0  0  0  0  0  0  0  0  0  0
    7.8804  -19.3849   17.4953 C   0  0  0  0  0  0  0  0  0  0  0  0
    8.8601  -19.6306   16.7029 N   0  0  0  0  0  0  0  0  0  0  0  0
    8.1245  -19.5446   18.9073 N   0  0  0  0  0  0  0  0  0  0  0  0
    7.0881  -19.3948   19.8803 C   0  0  0  0  0  0  0  0  0  0  0  0
    7.1543  -17.9758   20.4323 C   0  0  0  0  0  0  0  0  0  0  0  0
    7.6851  -17.9370   21.8239 C   0  0  0  0  0  0  0  0  0  0  0  0
    7.7182  -16.4654   22.2742 C   0  0  2  0  0  0  0  0  0  0  0  0
    8.5601  -15.7758   21.3237 N   0  0  0  0  0  0  0  0  0  0  0  0
    8.1872  -16.4861   23.6504 C   0  0  0  0  0  0  0  0  0  0  0  0
    7.5598  -17.1973   24.4729 O   0  0  0  0  0  0  0  0  0  0  0  0
    9.7850  -19.9551   17.0323 N   0  0  0  0  0  0  0  0  0  0  0  0
    9.3171  -15.7615   24.1727 C   0  0  2  0  0  0  0  0  0  0  0  0
    9.5764  -15.7443   25.5993 C   0  0  0  0  0  0  0  0  0  0  0  0
    8.3884  -15.5570   26.4608 C   0  0  0  0  0  0  0  0  0  0  0  0
    7.6373  -14.3272   26.3476 C   0  0  0  0  0  0  0  0  0  0  0  0
    7.7881  -13.2695   25.5092 N   0  0  0  0  0  0  0  0  0  0  0  0
    6.8269  -12.3382   25.7438 C   0  0  0  0  0  0  0  0  0  0  0  0
    6.0866  -12.8439   26.7377 N   0  0  0  0  0  0  0  0  0  0  0  0
    6.5470  -14.0362   27.1220 C   0  0  0  0  0  0  0  0  0  0  0  0
   10.4074  -16.9116   26.0006 O   0  0  0  0  0  0  0  0  0  0  0  0
   10.8462  -16.9901   27.2943 O   0  0  0  0  0  0  0  0  0  0  0  0
  2  1  1  1
  3  2  1  0
  4  2  1  0
  4  5  1  6
  6  4  1  0
  7  6  2  0
  9  8  1  0
  9 11  1  0
 10  9  2  0
 12 11  1  0
 12 13  1  0
 13 14  1  0
 15 14  1  6
 15 16  1  0
 16  6  1  0
 17 15  1  0
 17 18  2  0
 19 17  1  0
 20 19  1  0
 20 21  1  6
 21 22  1  0
 22 26  1  0
 22 23  2  0
 23 24  1  0
 25 24  1  0
 26 25  2  0
 27 20  1  0
 28 27  1  0
 29 27  2  0
M  END
$$$$
