VRH.pdb
     RDKit          3D

 29 29  0  0  1  0  0  0  0  0999 V2000
    7.8071  -13.1461   21.6240 C   0  0  0  0  0  0  0  0  0  0  0  0
    8.5043  -13.3068   20.2993 C   0  0  2  0  0  0  0  0  0  0  0  0
    8.0499  -12.2850   19.2851 C   0  0  0  0  0  0  0  0  0  0  0  0
    8.4775  -14.7055   19.7691 C   0  0  2  0  0  0  0  0  0  0  0  0
    7.1190  -14.9659   19.2585 N   0  0  0  0  0  0  0  0  0  0  0  0
    8.8100  -15.7691   20.7016 C   0  0  0  0  0  0  0  0  0  0  0  0
    7.8681  -16.2984   21.3838 O   0  0  0  0  0  0  0  0  0  0  0  0
   12.8071  -19.0532   16.8709 N   0  0  0  0  0  0  0  0  0  0  0  0
   11.7229  -19.9587   17.0515 C   0  0  0  0  0  0  0  0  0  0  0  0
   11.0918  -20.5025   16.0748 N   0  0  0  0  0  0  0  0  0  0  0  0
   11.2892  -20.3015   18.3831 N   0  0  0  0  0  0  0  0  0  0  0  0
   11.8953  -19.7389   19.5491 C   0  0  0  0  0  0  0  0  0  0  0  0
   10.8531  -18.8874   20.2641 C   0  0  0  0  0  0  0  0  0  0  0  0
   11.3947  -18.2530   21.4986 C   0  0  0  0  0  0  0  0  0  0  0  0
   10.3303  -17.2778   22.0326 C   0  0  2  0  0  0  0  0  0  0  0  0
   10.0903  -16.3279   20.9706 N   0  0  0  0  0  0  0  0  0  0  0  0
   10.8770  -16.7365   23.2665 C   0  0  0  0  0  0  0  0  0  0  0  0
   11.4199  -15.6055   23.2205 O   0  0  0  0  0  0  0  0  0  0  0  0
   10.2876  -21.1390   16.2067 N   0  0  0  0  0  0  0  0  0  0  0  0
   10.8576  -17.3773   24.5562 C   0  0  1  0  0  0  0  0  0  0  0  0
   10.8180  -16.5797   25.7666 C   0  0  0  0  0  0  0  0  0  0  0  0
    9.7924  -15.5139   25.7942 C   0  0  0  0  0  0  0  0  0  0  0  0
    9.7072  -14.6644   26.9606 C   0  0  0  0  0  0  0  0  0  0  0  0
   10.4299  -14.6610   28.1104 N   0  0  0  0  0  0  0  0  0  0  0  0
   10.0175  -13.6557   28.9262 C   0  0  0  0  0  0  0  0  0  0  0  0
    9.0325  -13.0451   28.2566 N   0  0  0  0  0  0  0  0  0  0  0  0
    8.8223  -13.6265   27.0737 C   0  0  0  0  0  0  0  0  0  0  0  0
   10.7850  -17.4498   26.9732 O   0  0  0  0  0  0  0  0  0  0  0  0
   11.4130  -17.0184   28.1098 O   0  0  0  0  0  0  0  0  0  0  0  0
  2  1  1  1
  3  2  1  0
  4  2  1  0
  4  5  1  1
  6  4  1  0
  7  6  2  0
  9  8  1  0
  9 11  1  0
 10  9  2  0
 12 11  1  0
 12 13  1  0
 13 14  1  0
 15 14  1  6
 15 16  1  0
 16  6  1  0
 17 15  1  0
 17 18  2  0
 19 17  1  0
 20 19  1  0
 20 21  1  6
 21 22  1  0
 22 26  1  0
 22 23  2  0
 23 24  1  0
 25 24  1  0
 26 25  2  0
 27 20  1  0
 28 27  1  0
 29 27  2  0
M  END
$$$$
