VRH.pdb
     RDKit          3D

 29 29  0  0  1  0  0  0  0  0999 V2000
    9.4730  -13.3205   21.0185 C   0  0  0  0  0  0  0  0  0  0  0  0
    8.9681  -13.3684   19.6009 C   0  0  2  0  0  0  0  0  0  0  0  0
    8.3429  -12.0633   19.1711 C   0  0  0  0  0  0  0  0  0  0  0  0
    8.1026  -14.5531   19.3085 C   0  0  2  0  0  0  0  0  0  0  0  0
    6.7801  -14.3022   19.9101 N   0  0  0  0  0  0  0  0  0  0  0  0
    8.5685  -15.8430   19.7886 C   0  0  0  0  0  0  0  0  0  0  0  0
    8.0775  -16.3028   20.8750 O   0  0  0  0  0  0  0  0  0  0  0  0
   10.9574  -18.6906   15.8204 N   0  0  0  0  0  0  0  0  0  0  0  0
    9.6350  -18.8573   15.3189 C   0  0  0  0  0  0  0  0  0  0  0  0
    9.2013  -18.2592   14.2691 N   0  0  0  0  0  0  0  0  0  0  0  0
    8.7148  -19.7333   16.0005 N   0  0  0  0  0  0  0  0  0  0  0  0
    9.0661  -20.4165   17.2060 C   0  0  0  0  0  0  0  0  0  0  0  0
    8.9721  -19.4256   18.3600 C   0  0  0  0  0  0  0  0  0  0  0  0
   10.3094  -18.9180   18.7769 C   0  0  0  0  0  0  0  0  0  0  0  0
   10.0899  -17.8525   19.8660 C   0  0  2  0  0  0  0  0  0  0  0  0
    9.5333  -16.7018   19.1924 N   0  0  0  0  0  0  0  0  0  0  0  0
   11.3863  -17.6623   20.4964 C   0  0  0  0  0  0  0  0  0  0  0  0
   12.4051  -17.6969   19.7638 O   0  0  0  0  0  0  0  0  0  0  0  0
    8.2212  -18.3249   13.9461 N   0  0  0  0  0  0  0  0  0  0  0  0
   11.6226  -17.4343   21.8988 C   0  0  1  0  0  0  0  0  0  0  0  0
   12.6995  -16.5615   22.3247 C   0  0  0  0  0  0  0  0  0  0  0  0
   12.7315  -15.2290   21.6830 C   0  0  0  0  0  0  0  0  0  0  0  0
   13.5011  -15.0619   20.4709 C   0  0  0  0  0  0  0  0  0  0  0  0
   14.2407  -15.9517   19.7598 N   0  0  0  0  0  0  0  0  0  0  0  0
   14.7721  -15.3549   18.6609 C   0  0  0  0  0  0  0  0  0  0  0  0
   14.3451  -14.0874   18.7116 N   0  0  0  0  0  0  0  0  0  0  0  0
   13.5803  -13.8799   19.7855 C   0  0  0  0  0  0  0  0  0  0  0  0
   12.7703  -16.4937   23.8094 O   0  0  0  0  0  0  0  0  0  0  0  0
   11.7477  -17.0350   24.5399 O   0  0  0  0  0  0  0  0  0  0  0  0
  2  1  1  1
  3  2  1  0
  4  2  1  0
  4  5  1  1
  6  4  1  0
  7  6  2  0
  9  8  1  0
  9 11  1  0
 10  9  2  0
 12 11  1  0
 12 13  1  0
 13 14  1  0
 15 14  1  6
 15 16  1  0
 16  6  1  0
 17 15  1  0
 17 18  2  0
 19 17  1  0
 20 19  1  0
 20 21  1  6
 21 22  1  0
 22 26  1  0
 22 23  2  0
 23 24  1  0
 25 24  1  0
 26 25  2  0
 27 20  1  0
 28 27  1  0
 29 27  2  0
M  END
$$$$
