VRH.pdb
     RDKit          3D

 29 29  0  0  1  0  0  0  0  0999 V2000
    6.6054  -14.1384   19.6426 C   0  0  0  0  0  0  0  0  0  0  0  0
    7.7907  -13.2193   19.7727 C   0  0  2  0  0  0  0  0  0  0  0  0
    8.1231  -12.5258   18.4735 C   0  0  0  0  0  0  0  0  0  0  0  0
    8.9821  -13.8582   20.4133 C   0  0  2  0  0  0  0  0  0  0  0  0
    9.5848  -14.7739   19.4273 N   0  0  0  0  0  0  0  0  0  0  0  0
    8.7478  -14.6139   21.6321 C   0  0  0  0  0  0  0  0  0  0  0  0
    8.2788  -13.9997   22.6496 O   0  0  0  0  0  0  0  0  0  0  0  0
   11.2929  -19.3260   19.8528 N   0  0  0  0  0  0  0  0  0  0  0  0
   10.1818  -19.6320   19.0162 C   0  0  0  0  0  0  0  0  0  0  0  0
   10.2546  -19.6620   17.7349 N   0  0  0  0  0  0  0  0  0  0  0  0
    8.8997  -19.9268   19.6062 N   0  0  0  0  0  0  0  0  0  0  0  0
    8.6650  -19.8140   21.0117 C   0  0  0  0  0  0  0  0  0  0  0  0
    8.7982  -18.3466   21.4008 C   0  0  0  0  0  0  0  0  0  0  0  0
    8.5920  -18.1298   22.8603 C   0  0  0  0  0  0  0  0  0  0  0  0
    8.7889  -16.6301   23.1460 C   0  0  2  0  0  0  0  0  0  0  0  0
    8.9752  -15.9996   21.8593 N   0  0  0  0  0  0  0  0  0  0  0  0
    9.9099  -16.5497   24.0685 C   0  0  0  0  0  0  0  0  0  0  0  0
   10.7554  -17.4773   24.0458 O   0  0  0  0  0  0  0  0  0  0  0  0
    9.4394  -19.8502   17.1273 N   0  0  0  0  0  0  0  0  0  0  0  0
   10.1516  -15.4961   25.0204 C   0  0  2  0  0  0  0  0  0  0  0  0
    9.8055  -15.6806   26.4164 C   0  0  0  0  0  0  0  0  0  0  0  0
    8.3981  -15.3905   26.7678 C   0  0  0  0  0  0  0  0  0  0  0  0
    7.9001  -14.0465   26.5805 C   0  0  0  0  0  0  0  0  0  0  0  0
    8.5382  -12.9082   26.2044 N   0  0  0  0  0  0  0  0  0  0  0  0
    7.6595  -11.8744   26.1315 C   0  0  0  0  0  0  0  0  0  0  0  0
    6.4751  -12.3990   26.4682 N   0  0  0  0  0  0  0  0  0  0  0  0
    6.5859  -13.7004   26.7432 C   0  0  0  0  0  0  0  0  0  0  0  0
   10.2646  -17.0092   26.9045 O   0  0  0  0  0  0  0  0  0  0  0  0
   10.4773  -17.1770   28.2458 O   0  0  0  0  0  0  0  0  0  0  0  0
  2  1  1  6
  3  2  1  0
  4  2  1  0
  4  5  1  6
  6  4  1  0
  7  6  2  0
  9  8  1  0
  9 11  1  0
 10  9  2  0
 12 11  1  0
 12 13  1  0
 13 14  1  0
 15 14  1  6
 15 16  1  0
 16  6  1  0
 17 15  1  0
 17 18  2  0
 19 17  1  0
 20 19  1  0
 20 21  1  6
 21 22  1  0
 22 26  1  0
 22 23  2  0
 23 24  1  0
 25 24  1  0
 26 25  2  0
 27 20  1  0
 28 27  1  0
 29 27  2  0
M  END
$$$$
