KVT.pdb
     RDKit          3D

 24 23  0  0  1  0  0  0  0  0999 V2000
   22.2985  -34.7600  -11.3931 N   0  0  0  0  0  0  0  0  0  0  0  0
   22.4816  -33.8270  -10.3190 C   0  0  1  0  0  0  0  0  0  0  0  0
   21.1971  -33.6764   -9.5628 C   0  0  0  0  0  0  0  0  0  0  0  0
   20.0791  -33.1299  -10.3889 C   0  0  0  0  0  0  0  0  0  0  0  0
   18.8224  -32.8835   -9.6168 C   0  0  0  0  0  0  0  0  0  0  0  0
   17.6550  -32.4922  -10.4976 C   0  0  0  0  0  0  0  0  0  0  0  0
   16.5024  -32.3387   -9.5989 N   0  0  0  0  0  0  0  0  0  0  0  0
   23.5077  -34.3434   -9.3278 C   0  0  0  0  0  0  0  0  0  0  0  0
   23.8146  -35.5559   -9.3410 O   0  0  0  0  0  0  0  0  0  0  0  0
   27.6352  -32.7765   -7.0856 C   0  0  0  0  0  0  0  0  0  0  0  0
   26.3666  -32.6115   -7.9290 C   0  0  1  0  0  0  0  0  0  0  0  0
   26.9365  -32.9261   -9.3553 C   0  0  0  0  0  0  0  0  0  0  0  0
   25.3003  -33.6219   -7.6260 C   0  0  2  0  0  0  0  0  0  0  0  0
   24.0945  -33.4673   -8.4183 N   0  0  0  0  0  0  0  0  0  0  0  0
   24.9883  -33.8842   -6.2264 C   0  0  0  0  0  0  0  0  0  0  0  0
   24.2884  -33.0326   -5.5369 O   0  0  0  0  0  0  0  0  0  0  0  0
   25.1276  -36.7588   -2.1793 C   0  0  0  0  0  0  0  0  0  0  0  0
   25.4095  -36.5701   -3.6565 C   0  0  1  0  0  0  0  0  0  0  0  0
   24.6520  -37.4731   -4.3628 O   0  0  0  0  0  0  0  0  0  0  0  0
   25.0642  -35.1198   -4.0262 C   0  0  2  0  0  0  0  0  0  0  0  0
   25.3623  -35.0191   -5.4633 N   0  0  0  0  0  0  0  0  0  0  0  0
   26.0275  -34.2776   -3.2743 C   0  0  0  0  0  0  0  0  0  0  0  0
   25.7457  -33.7835   -2.1453 O   0  0  0  0  0  0  0  0  0  0  0  0
   27.2983  -33.9706   -3.7466 O   0  0  0  0  0  0  0  0  0  0  0  0
  2  1  1  6
  3  2  1  0
  4  3  1  0
  5  6  1  0
  5  4  1  0
  7  6  1  0
  8 14  1  0
  8  2  1  0
  9  8  2  0
 11 10  1  1
 11 12  1  0
 13 14  1  6
 13 11  1  0
 15 13  1  0
 16 15  2  0
 18 17  1  1
 18 19  1  0
 18 20  1  0
 20 22  1  0
 20 21  1  6
 21 15  1  0
 22 24  1  0
 23 22  2  0
M  END
$$$$
