KVT.pdb
     RDKit          3D

 24 23  0  0  1  0  0  0  0  0999 V2000
   27.5829  -22.2688  -16.3205 N   0  0  0  0  0  0  0  0  0  0  0  0
   27.0404  -21.1055  -15.6802 C   0  0  1  0  0  0  0  0  0  0  0  0
   26.4290  -20.2063  -16.7109 C   0  0  0  0  0  0  0  0  0  0  0  0
   27.2445  -20.0858  -17.9565 C   0  0  0  0  0  0  0  0  0  0  0  0
   28.4293  -19.1841  -17.8175 C   0  0  0  0  0  0  0  0  0  0  0  0
   29.2211  -19.0470  -19.1005 C   0  0  0  0  0  0  0  0  0  0  0  0
   30.4031  -18.2414  -18.7635 N   0  0  0  0  0  0  0  0  0  0  0  0
   25.9250  -21.4885  -14.7256 C   0  0  0  0  0  0  0  0  0  0  0  0
   25.1966  -22.4683  -14.9978 O   0  0  0  0  0  0  0  0  0  0  0  0
   24.1581  -20.6830  -10.0514 C   0  0  0  0  0  0  0  0  0  0  0  0
   25.1804  -20.4386  -11.1663 C   0  0  1  0  0  0  0  0  0  0  0  0
   26.3456  -21.3712  -10.6863 C   0  0  0  0  0  0  0  0  0  0  0  0
   24.7334  -20.9174  -12.5157 C   0  0  2  0  0  0  0  0  0  0  0  0
   25.7242  -20.7497  -13.5626 N   0  0  0  0  0  0  0  0  0  0  0  0
   23.4050  -20.5267  -12.9715 C   0  0  0  0  0  0  0  0  0  0  0  0
   23.1263  -19.2762  -13.1934 O   0  0  0  0  0  0  0  0  0  0  0  0
   19.1030  -21.5300  -15.1257 C   0  0  0  0  0  0  0  0  0  0  0  0
   20.4871  -21.9417  -14.6655 C   0  0  1  0  0  0  0  0  0  0  0  0
   21.2886  -22.0860  -15.7723 O   0  0  0  0  0  0  0  0  0  0  0  0
   21.0149  -20.8579  -13.7136 C   0  0  2  0  0  0  0  0  0  0  0  0
   22.3025  -21.3798  -13.2300 N   0  0  0  0  0  0  0  0  0  0  0  0
   20.0550  -20.8203  -12.5825 C   0  0  0  0  0  0  0  0  0  0  0  0
   20.0560  -21.6995  -11.6741 O   0  0  0  0  0  0  0  0  0  0  0  0
   19.0925  -19.8282  -12.4354 O   0  0  0  0  0  0  0  0  0  0  0  0
  2  1  1  6
  3  2  1  0
  4  3  1  0
  5  6  1  0
  5  4  1  0
  7  6  1  0
  8 14  1  0
  8  2  1  0
  9  8  2  0
 11 10  1  1
 11 12  1  0
 13 14  1  6
 13 11  1  0
 15 13  1  0
 16 15  2  0
 18 17  1  6
 18 19  1  0
 18 20  1  0
 20 22  1  0
 20 21  1  1
 21 15  1  0
 22 24  1  0
 23 22  2  0
M  END
$$$$
