KVT.pdb
     RDKit          3D

 24 23  0  0  1  0  0  0  0  0999 V2000
   13.6476  -11.6413  -11.5495 N   0  0  0  0  0  0  0  0  0  0  0  0
   14.7338  -10.7163  -11.4012 C   0  0  1  0  0  0  0  0  0  0  0  0
   15.5003  -10.6346  -12.6858 C   0  0  0  0  0  0  0  0  0  0  0  0
   15.9998  -11.9573  -13.1676 C   0  0  0  0  0  0  0  0  0  0  0  0
   16.7906  -11.8791  -14.4343 C   0  0  0  0  0  0  0  0  0  0  0  0
   17.2235  -13.2368  -14.9453 C   0  0  0  0  0  0  0  0  0  0  0  0
   17.9956  -12.9821  -16.1695 N   0  0  0  0  0  0  0  0  0  0  0  0
   14.2148   -9.3188  -11.1189 C   0  0  0  0  0  0  0  0  0  0  0  0
   13.0759   -8.9962  -11.5230 O   0  0  0  0  0  0  0  0  0  0  0  0
   15.8905   -7.2908   -7.7223 C   0  0  0  0  0  0  0  0  0  0  0  0
   14.5960   -6.9449   -8.4656 C   0  0  1  0  0  0  0  0  0  0  0  0
   14.4746   -5.4204   -8.1206 C   0  0  0  0  0  0  0  0  0  0  0  0
   14.6991   -7.0729   -9.9565 C   0  0  2  0  0  0  0  0  0  0  0  0
   15.0069   -8.4142  -10.4166 N   0  0  0  0  0  0  0  0  0  0  0  0
   15.4784   -6.0714  -10.6739 C   0  0  0  0  0  0  0  0  0  0  0  0
   16.7732   -6.0389  -10.5601 O   0  0  0  0  0  0  0  0  0  0  0  0
   15.4543   -5.0898  -14.4794 C   0  0  0  0  0  0  0  0  0  0  0  0
   15.2117   -3.8814  -13.5973 C   0  0  1  0  0  0  0  0  0  0  0  0
   13.8554   -3.7035  -13.4665 O   0  0  0  0  0  0  0  0  0  0  0  0
   15.8891   -4.1365  -12.2426 C   0  0  2  0  0  0  0  0  0  0  0  0
   14.9872   -5.0640  -11.5422 N   0  0  0  0  0  0  0  0  0  0  0  0
   15.8769   -2.8296  -11.5395 C   0  0  0  0  0  0  0  0  0  0  0  0
   15.0087   -2.5482  -10.6647 O   0  0  0  0  0  0  0  0  0  0  0  0
   16.8072   -1.8263  -11.7846 O   0  0  0  0  0  0  0  0  0  0  0  0
  2  1  1  6
  3  2  1  0
  4  3  1  0
  5  6  1  0
  5  4  1  0
  7  6  1  0
  8 14  1  0
  8  2  1  0
  9  8  2  0
 11 10  1  1
 11 12  1  0
 13 14  1  1
 13 11  1  0
 15 13  1  0
 16 15  2  0
 18 17  1  6
 18 19  1  0
 18 20  1  0
 20 22  1  0
 20 21  1  1
 21 15  1  0
 22 24  1  0
 23 22  2  0
M  END
$$$$
