KVT.pdb
     RDKit          3D

 24 23  0  0  1  0  0  0  0  0999 V2000
   28.0046  -22.6289  -15.7848 N   0  0  0  0  0  0  0  0  0  0  0  0
   27.5971  -21.4995  -14.9999 C   0  0  1  0  0  0  0  0  0  0  0  0
   27.3651  -20.3233  -15.8983 C   0  0  0  0  0  0  0  0  0  0  0  0
   27.8075  -20.5520  -17.3066 C   0  0  0  0  0  0  0  0  0  0  0  0
   28.9493  -19.6838  -17.7292 C   0  0  0  0  0  0  0  0  0  0  0  0
   29.2886  -19.8274  -19.1976 C   0  0  0  0  0  0  0  0  0  0  0  0
   28.4762  -18.8252  -19.9013 N   0  0  0  0  0  0  0  0  0  0  0  0
   26.2780  -21.7772  -14.3034 C   0  0  0  0  0  0  0  0  0  0  0  0
   25.4568  -22.5554  -14.8367 O   0  0  0  0  0  0  0  0  0  0  0  0
   26.5261  -21.8659  -10.3774 C   0  0  0  0  0  0  0  0  0  0  0  0
   25.1772  -21.2405  -10.7480 C   0  0  1  0  0  0  0  0  0  0  0  0
   25.4625  -19.7375  -10.4051 C   0  0  0  0  0  0  0  0  0  0  0  0
   24.8496  -21.3254  -12.2092 C   0  0  2  0  0  0  0  0  0  0  0  0
   25.9962  -21.1663  -13.0842 N   0  0  0  0  0  0  0  0  0  0  0  0
   23.7002  -20.5715  -12.6946 C   0  0  0  0  0  0  0  0  0  0  0  0
   23.7366  -19.2727  -12.7414 O   0  0  0  0  0  0  0  0  0  0  0  0
   22.2287  -20.4051  -15.9437 C   0  0  0  0  0  0  0  0  0  0  0  0
   21.0542  -20.7287  -15.0421 C   0  0  1  0  0  0  0  0  0  0  0  0
   20.8518  -22.0877  -15.0622 O   0  0  0  0  0  0  0  0  0  0  0  0
   21.3822  -20.2193  -13.6307 C   0  0  2  0  0  0  0  0  0  0  0  0
   22.4672  -21.0943  -13.1601 N   0  0  0  0  0  0  0  0  0  0  0  0
   20.1665  -20.4814  -12.8208 C   0  0  0  0  0  0  0  0  0  0  0  0
   20.1502  -21.3455  -11.8981 O   0  0  0  0  0  0  0  0  0  0  0  0
   18.9667  -19.8058  -13.0109 O   0  0  0  0  0  0  0  0  0  0  0  0
  2  1  1  6
  3  2  1  0
  4  3  1  0
  5  6  1  0
  5  4  1  0
  7  6  1  0
  8 14  1  0
  8  2  1  0
  9  8  2  0
 11 10  1  6
 11 12  1  0
 13 14  1  6
 13 11  1  0
 15 13  1  0
 16 15  2  0
 18 17  1  6
 18 19  1  0
 18 20  1  0
 20 22  1  0
 20 21  1  1
 21 15  1  0
 22 24  1  0
 23 22  2  0
M  END
$$$$
