KVT.pdb
     RDKit          3D

 24 23  0  0  1  0  0  0  0  0999 V2000
   20.9009  -16.2616  -16.2693 N   0  0  0  0  0  0  0  0  0  0  0  0
   21.3256  -15.1208  -17.0281 C   0  0  1  0  0  0  0  0  0  0  0  0
   20.1889  -14.6296  -17.8715 C   0  0  0  0  0  0  0  0  0  0  0  0
   19.7294  -15.6214  -18.8894 C   0  0  0  0  0  0  0  0  0  0  0  0
   20.2044  -15.3272  -20.2765 C   0  0  0  0  0  0  0  0  0  0  0  0
   19.6467  -16.2852  -21.3075 C   0  0  0  0  0  0  0  0  0  0  0  0
   20.1539  -15.8227  -22.6070 N   0  0  0  0  0  0  0  0  0  0  0  0
   21.7068  -13.9756  -16.1087 C   0  0  0  0  0  0  0  0  0  0  0  0
   21.0287  -13.7665  -15.0787 O   0  0  0  0  0  0  0  0  0  0  0  0
   25.5150  -11.0904  -14.6611 C   0  0  0  0  0  0  0  0  0  0  0  0
   24.8881  -12.2216  -15.4829 C   0  0  1  0  0  0  0  0  0  0  0  0
   25.1539  -13.4388  -14.5311 C   0  0  0  0  0  0  0  0  0  0  0  0
   23.4045  -12.0921  -15.6616 C   0  0  2  0  0  0  0  0  0  0  0  0
   22.8017  -13.1732  -16.4188 N   0  0  0  0  0  0  0  0  0  0  0  0
   22.8784  -10.7960  -16.0719 C   0  0  0  0  0  0  0  0  0  0  0  0
   23.3814  -10.1761  -17.0982 O   0  0  0  0  0  0  0  0  0  0  0  0
   19.4881   -9.7885  -17.2449 C   0  0  0  0  0  0  0  0  0  0  0  0
   19.8360   -8.8961  -16.0703 C   0  0  1  0  0  0  0  0  0  0  0  0
   19.3124   -9.4549  -14.9293 O   0  0  0  0  0  0  0  0  0  0  0  0
   21.3656   -8.7762  -15.9994 C   0  0  2  0  0  0  0  0  0  0  0  0
   21.8182  -10.0721  -15.4701 N   0  0  0  0  0  0  0  0  0  0  0  0
   21.6356   -7.7227  -14.9896 C   0  0  0  0  0  0  0  0  0  0  0  0
   22.0279   -8.0008  -13.8205 O   0  0  0  0  0  0  0  0  0  0  0  0
   21.4804   -6.3656  -15.2473 O   0  0  0  0  0  0  0  0  0  0  0  0
  2  1  1  1
  3  2  1  0
  4  3  1  0
  5  6  1  0
  5  4  1  0
  7  6  1  0
  8 14  1  0
  8  2  1  0
  9  8  2  0
 11 10  1  1
 11 12  1  0
 13 14  1  6
 13 11  1  0
 15 13  1  0
 16 15  2  0
 18 17  1  6
 18 19  1  0
 18 20  1  0
 20 22  1  0
 20 21  1  1
 21 15  1  0
 22 24  1  0
 23 22  2  0
M  END
$$$$
