KVT.pdb
     RDKit          3D

 24 23  0  0  1  0  0  0  0  0999 V2000
   17.0650  -16.3365  -15.8198 N   0  0  0  0  0  0  0  0  0  0  0  0
   16.7407  -15.0389  -16.3383 C   0  0  1  0  0  0  0  0  0  0  0  0
   15.3223  -14.7022  -15.9927 C   0  0  0  0  0  0  0  0  0  0  0  0
   14.3166  -15.4576  -16.7983 C   0  0  0  0  0  0  0  0  0  0  0  0
   13.8774  -16.7400  -16.1670 C   0  0  0  0  0  0  0  0  0  0  0  0
   12.7058  -17.3793  -16.8814 C   0  0  0  0  0  0  0  0  0  0  0  0
   12.4052  -18.6139  -16.1429 N   0  0  0  0  0  0  0  0  0  0  0  0
   17.6064  -13.9716  -15.6954 C   0  0  0  0  0  0  0  0  0  0  0  0
   17.8594  -14.0440  -14.4726 O   0  0  0  0  0  0  0  0  0  0  0  0
   20.9703  -13.4176  -16.1976 C   0  0  0  0  0  0  0  0  0  0  0  0
   20.4138  -12.0245  -16.5103 C   0  0  1  0  0  0  0  0  0  0  0  0
   20.4600  -12.0505  -18.0772 C   0  0  0  0  0  0  0  0  0  0  0  0
   18.9853  -11.8340  -16.0947 C   0  0  2  0  0  0  0  0  0  0  0  0
   18.1081  -12.9278  -16.4685 N   0  0  0  0  0  0  0  0  0  0  0  0
   18.3661  -10.5407  -16.3573 C   0  0  0  0  0  0  0  0  0  0  0  0
   18.0239  -10.2078  -17.5666 O   0  0  0  0  0  0  0  0  0  0  0  0
   15.2067   -8.8047  -15.0149 C   0  0  0  0  0  0  0  0  0  0  0  0
   16.4194   -7.9376  -14.7416 C   0  0  1  0  0  0  0  0  0  0  0  0
   16.8792   -8.2185  -13.4776 O   0  0  0  0  0  0  0  0  0  0  0  0
   17.4746   -8.2417  -15.8156 C   0  0  2  0  0  0  0  0  0  0  0  0
   18.0588   -9.5301  -15.4116 N   0  0  0  0  0  0  0  0  0  0  0  0
   18.5029   -7.1811  -15.6744 C   0  0  0  0  0  0  0  0  0  0  0  0
   19.6519   -7.4209  -15.2049 O   0  0  0  0  0  0  0  0  0  0  0  0
   18.2858   -5.8584  -16.0428 O   0  0  0  0  0  0  0  0  0  0  0  0
  2  1  1  1
  3  2  1  0
  4  3  1  0
  5  6  1  0
  5  4  1  0
  7  6  1  0
  8 14  1  0
  8  2  1  0
  9  8  2  0
 11 10  1  1
 11 12  1  0
 13 14  1  6
 13 11  1  0
 15 13  1  0
 16 15  2  0
 18 17  1  6
 18 19  1  0
 18 20  1  0
 20 22  1  0
 20 21  1  1
 21 15  1  0
 22 24  1  0
 23 22  2  0
M  END
$$$$
