KVT.pdb
     RDKit          3D

 24 23  0  0  1  0  0  0  0  0999 V2000
   27.6073  -21.3060  -16.6602 N   0  0  0  0  0  0  0  0  0  0  0  0
   27.2174  -20.3747  -15.6413 C   0  0  1  0  0  0  0  0  0  0  0  0
   26.5891  -19.1721  -16.2766 C   0  0  0  0  0  0  0  0  0  0  0  0
   27.5805  -18.2188  -16.8593 C   0  0  0  0  0  0  0  0  0  0  0  0
   28.3615  -18.7839  -18.0025 C   0  0  0  0  0  0  0  0  0  0  0  0
   29.3228  -17.7857  -18.6118 C   0  0  0  0  0  0  0  0  0  0  0  0
   30.6653  -18.3580  -18.4388 N   0  0  0  0  0  0  0  0  0  0  0  0
   26.1651  -20.9819  -14.7325 C   0  0  0  0  0  0  0  0  0  0  0  0
   25.3171  -21.7640  -15.2160 O   0  0  0  0  0  0  0  0  0  0  0  0
   25.9663  -19.5271  -10.4583 C   0  0  0  0  0  0  0  0  0  0  0  0
   25.7881  -20.9687  -10.9462 C   0  0  1  0  0  0  0  0  0  0  0  0
   24.6881  -21.4678   -9.9468 C   0  0  0  0  0  0  0  0  0  0  0  0
   25.2312  -21.0753  -12.3348 C   0  0  2  0  0  0  0  0  0  0  0  0
   26.1536  -20.6643  -13.3769 N   0  0  0  0  0  0  0  0  0  0  0  0
   23.8910  -20.5536  -12.5732 C   0  0  0  0  0  0  0  0  0  0  0  0
   23.6682  -19.2729  -12.5450 O   0  0  0  0  0  0  0  0  0  0  0  0
   21.7455  -20.5763  -15.4980 C   0  0  0  0  0  0  0  0  0  0  0  0
   20.9047  -21.1892  -14.3959 C   0  0  1  0  0  0  0  0  0  0  0  0
   21.0153  -22.5567  -14.4737 O   0  0  0  0  0  0  0  0  0  0  0  0
   21.4140  -20.6489  -13.0514 C   0  0  2  0  0  0  0  0  0  0  0  0
   22.7192  -21.2994  -12.8572 N   0  0  0  0  0  0  0  0  0  0  0  0
   20.4645  -21.1603  -12.0319 C   0  0  0  0  0  0  0  0  0  0  0  0
   20.7702  -22.1011  -11.2446 O   0  0  0  0  0  0  0  0  0  0  0  0
   19.1819  -20.6512  -11.8650 O   0  0  0  0  0  0  0  0  0  0  0  0
  2  1  1  6
  3  2  1  0
  4  3  1  0
  5  6  1  0
  5  4  1  0
  7  6  1  0
  8 14  1  0
  8  2  1  0
  9  8  2  0
 11 10  1  1
 11 12  1  0
 13 14  1  6
 13 11  1  0
 15 13  1  0
 16 15  2  0
 18 17  1  6
 18 19  1  0
 18 20  1  0
 20 22  1  0
 20 21  1  1
 21 15  1  0
 22 24  1  0
 23 22  2  0
M  END
$$$$
