TCT.pdb
     RDKit          3D

 21 20  0  0  1  0  0  0  0  0999 V2000
   21.1964   -9.8809  -19.0446 C   0  0  0  0  0  0  0  0  0  0  0  0
   20.5012  -11.1773  -18.7739 C   0  0  1  0  0  0  0  0  0  0  0  0
   20.6548  -12.0087  -19.8627 O   0  0  0  0  0  0  0  0  0  0  0  0
   20.9583  -11.8217  -17.4845 C   0  0  2  0  0  0  0  0  0  0  0  0
   20.2274  -13.0705  -17.3398 N   0  0  0  0  0  0  0  0  0  0  0  0
   20.6157  -10.9670  -16.3178 C   0  0  0  0  0  0  0  0  0  0  0  0
   19.4243  -10.7547  -15.9738 O   0  0  0  0  0  0  0  0  0  0  0  0
   21.6176  -10.3322  -15.5128 N   0  0  0  0  0  0  0  0  0  0  0  0
   21.2599   -9.4689  -14.4056 C   0  0  1  0  0  0  0  0  0  0  0  0
   21.8861  -10.0405  -13.1612 C   0  0  0  0  0  0  0  0  0  0  0  0
   21.5396   -8.9852  -11.7303 S   0  0  0  0  0  0  0  0  0  0  0  0
   21.6458   -8.0734  -14.6691 C   0  0  0  0  0  0  0  0  0  0  0  0
   22.7928   -7.8343  -15.1462 O   0  0  0  0  0  0  0  0  0  0  0  0
   20.4303   -3.3021  -15.1771 C   0  0  0  0  0  0  0  0  0  0  0  0
   20.0465   -4.7332  -14.8647 C   0  0  1  0  0  0  0  0  0  0  0  0
   19.3980   -5.2509  -16.0008 O   0  0  0  0  0  0  0  0  0  0  0  0
   21.2915   -5.5803  -14.6554 C   0  0  2  0  0  0  0  0  0  0  0  0
   20.8197   -6.9467  -14.4273 N   0  0  0  0  0  0  0  0  0  0  0  0
   22.1217   -5.0987  -13.5413 C   0  0  0  0  0  0  0  0  0  0  0  0
   23.2365   -4.2994  -13.7362 O   0  0  0  0  0  0  0  0  0  0  0  0
   21.8353   -5.4062  -12.3563 O   0  0  0  0  0  0  0  0  0  0  0  0
  2  1  1  6
  2  4  1  0
  2  3  1  0
  4  5  1  1
  6  8  1  0
  6  4  1  0
  7  6  2  0
  9 12  1  0
  9  8  1  0
  9 10  1  1
 11 10  1  0
 12 18  1  0
 13 12  2  0
 15 14  1  6
 16 15  1  0
 17 19  1  0
 17 15  1  0
 17 18  1  1
 19 20  1  0
 21 19  2  0
M  END
$$$$
