TCT.pdb
     RDKit          3D

 21 20  0  0  1  0  0  0  0  0999 V2000
   25.0095  -12.1884  -15.6812 C   0  0  0  0  0  0  0  0  0  0  0  0
   24.0360  -11.1687  -16.1810 C   0  0  1  0  0  0  0  0  0  0  0  0
   24.2511  -10.9594  -17.5265 O   0  0  0  0  0  0  0  0  0  0  0  0
   22.6018  -11.5378  -15.8746 C   0  0  2  0  0  0  0  0  0  0  0  0
   22.2099  -12.5759  -16.8145 N   0  0  0  0  0  0  0  0  0  0  0  0
   21.7007  -10.3761  -16.0923 C   0  0  0  0  0  0  0  0  0  0  0  0
   21.3849   -9.9841  -17.2454 O   0  0  0  0  0  0  0  0  0  0  0  0
   21.1357   -9.6307  -15.0061 N   0  0  0  0  0  0  0  0  0  0  0  0
   20.2663   -8.4960  -15.2418 C   0  0  1  0  0  0  0  0  0  0  0  0
   19.0306   -8.6863  -14.4026 C   0  0  0  0  0  0  0  0  0  0  0  0
   18.2208  -10.2555  -14.8065 S   0  0  0  0  0  0  0  0  0  0  0  0
   20.9625   -7.2257  -14.9818 C   0  0  0  0  0  0  0  0  0  0  0  0
   21.8141   -7.1735  -14.0477 O   0  0  0  0  0  0  0  0  0  0  0  0
   23.0101   -3.1670  -16.5587 C   0  0  0  0  0  0  0  0  0  0  0  0
   22.2707   -4.4801  -16.7071 C   0  0  1  0  0  0  0  0  0  0  0  0
   23.2371   -5.4887  -16.8744 O   0  0  0  0  0  0  0  0  0  0  0  0
   21.5194   -4.8107  -15.4274 C   0  0  2  0  0  0  0  0  0  0  0  0
   20.7540   -6.0260  -15.7081 N   0  0  0  0  0  0  0  0  0  0  0  0
   20.6500   -3.7112  -14.9828 C   0  0  0  0  0  0  0  0  0  0  0  0
   21.0092   -2.8454  -13.9626 O   0  0  0  0  0  0  0  0  0  0  0  0
   19.5331   -3.5236  -15.5290 O   0  0  0  0  0  0  0  0  0  0  0  0
  2  1  1  6
  2  4  1  0
  2  3  1  0
  4  5  1  6
  6  8  1  0
  6  4  1  0
  7  6  2  0
  9 12  1  0
  9  8  1  0
  9 10  1  1
 11 10  1  0
 12 18  1  0
 13 12  2  0
 15 14  1  1
 16 15  1  0
 17 19  1  0
 17 15  1  0
 17 18  1  6
 19 20  1  0
 21 19  2  0
M  END
$$$$
