TCT.pdb
     RDKit          3D

 21 20  0  0  1  0  0  0  0  0999 V2000
   23.7315  -10.6715  -14.7228 C   0  0  0  0  0  0  0  0  0  0  0  0
   23.3293  -11.5687  -15.8499 C   0  0  1  0  0  0  0  0  0  0  0  0
   24.0210  -12.7571  -15.7509 O   0  0  0  0  0  0  0  0  0  0  0  0
   21.8328  -11.7742  -15.9213 C   0  0  2  0  0  0  0  0  0  0  0  0
   21.5649  -12.6205  -17.0731 N   0  0  0  0  0  0  0  0  0  0  0  0
   21.1335  -10.4821  -16.1453 C   0  0  0  0  0  0  0  0  0  0  0  0
   21.0886   -9.9358  -17.2778 O   0  0  0  0  0  0  0  0  0  0  0  0
   20.4678   -9.7781  -15.0889 N   0  0  0  0  0  0  0  0  0  0  0  0
   19.7357   -8.5540  -15.3428 C   0  0  1  0  0  0  0  0  0  0  0  0
   18.3610   -8.7136  -14.7496 C   0  0  0  0  0  0  0  0  0  0  0  0
   17.4586  -10.0465  -15.5804 S   0  0  0  0  0  0  0  0  0  0  0  0
   20.4626   -7.3805  -14.8325 C   0  0  0  0  0  0  0  0  0  0  0  0
   20.7682   -7.3346  -13.6057 O   0  0  0  0  0  0  0  0  0  0  0  0
   23.7573   -6.3484  -15.7675 C   0  0  0  0  0  0  0  0  0  0  0  0
   22.9141   -5.1023  -15.9383 C   0  0  1  0  0  0  0  0  0  0  0  0
   22.4676   -5.0778  -17.2723 O   0  0  0  0  0  0  0  0  0  0  0  0
   21.6697   -5.1832  -15.0686 C   0  0  2  0  0  0  0  0  0  0  0  0
   20.8588   -6.2697  -15.6195 N   0  0  0  0  0  0  0  0  0  0  0  0
   20.9253   -3.9156  -15.0285 C   0  0  0  0  0  0  0  0  0  0  0  0
   21.3182   -2.8474  -14.2384 O   0  0  0  0  0  0  0  0  0  0  0  0
   19.8899   -3.7645  -15.7255 O   0  0  0  0  0  0  0  0  0  0  0  0
  2  1  1  1
  2  4  1  0
  2  3  1  0
  4  5  1  6
  6  8  1  0
  6  4  1  0
  7  6  2  0
  9 12  1  0
  9  8  1  0
  9 10  1  1
 11 10  1  0
 12 18  1  0
 13 12  2  0
 15 14  1  6
 16 15  1  0
 17 19  1  0
 17 15  1  0
 17 18  1  6
 19 20  1  0
 21 19  2  0
M  END
$$$$
