TCT.pdb
     RDKit          3D

 21 20  0  0  1  0  0  0  0  0999 V2000
   17.1404  -10.4231  -19.0422 C   0  0  0  0  0  0  0  0  0  0  0  0
   17.7226   -9.7318  -17.8504 C   0  0  1  0  0  0  0  0  0  0  0  0
   16.8045   -8.8290  -17.3579 O   0  0  0  0  0  0  0  0  0  0  0  0
   18.2034  -10.7024  -16.7950 C   0  0  2  0  0  0  0  0  0  0  0  0
   17.0339  -11.3906  -16.2724 N   0  0  0  0  0  0  0  0  0  0  0  0
   18.8375   -9.9781  -15.6626 C   0  0  0  0  0  0  0  0  0  0  0  0
   18.2039   -9.6967  -14.6127 O   0  0  0  0  0  0  0  0  0  0  0  0
   20.2068   -9.5555  -15.6943 N   0  0  0  0  0  0  0  0  0  0  0  0
   20.8222   -8.9063  -14.5546 C   0  0  1  0  0  0  0  0  0  0  0  0
   21.9093   -9.8147  -14.0446 C   0  0  0  0  0  0  0  0  0  0  0  0
   22.8305   -9.0170  -12.7043 S   0  0  0  0  0  0  0  0  0  0  0  0
   21.2984   -7.5574  -14.9003 C   0  0  0  0  0  0  0  0  0  0  0  0
   22.1820   -7.4304  -15.7968 O   0  0  0  0  0  0  0  0  0  0  0  0
   19.3048   -4.5937  -15.9254 C   0  0  0  0  0  0  0  0  0  0  0  0
   20.2101   -4.1156  -14.8097 C   0  0  1  0  0  0  0  0  0  0  0  0
   19.4774   -4.1968  -13.6114 O   0  0  0  0  0  0  0  0  0  0  0  0
   21.3967   -5.0533  -14.6539 C   0  0  2  0  0  0  0  0  0  0  0  0
   20.8391   -6.3587  -14.2983 N   0  0  0  0  0  0  0  0  0  0  0  0
   22.3608   -4.5818  -13.6486 C   0  0  0  0  0  0  0  0  0  0  0  0
   22.5418   -5.2231  -12.4338 O   0  0  0  0  0  0  0  0  0  0  0  0
   23.0619   -3.5618  -13.8699 O   0  0  0  0  0  0  0  0  0  0  0  0
  2  1  1  6
  2  4  1  0
  2  3  1  0
  4  5  1  1
  6  8  1  0
  6  4  1  0
  7  6  2  0
  9 12  1  0
  9  8  1  0
  9 10  1  6
 11 10  1  0
 12 18  1  0
 13 12  2  0
 15 14  1  6
 16 15  1  0
 17 19  1  0
 17 15  1  0
 17 18  1  1
 19 20  1  0
 21 19  2  0
M  END
$$$$
