TCT.pdb
     RDKit          3D

 21 20  0  0  1  0  0  0  0  0999 V2000
   21.6305  -11.6590  -21.1934 C   0  0  0  0  0  0  0  0  0  0  0  0
   21.1717  -10.8749  -20.0051 C   0  0  1  0  0  0  0  0  0  0  0  0
   19.8037  -10.7171  -20.0682 O   0  0  0  0  0  0  0  0  0  0  0  0
   21.6242  -11.4858  -18.6979 C   0  0  2  0  0  0  0  0  0  0  0  0
   20.9745  -12.7810  -18.5755 N   0  0  0  0  0  0  0  0  0  0  0  0
   21.1828  -10.6551  -17.5472 C   0  0  0  0  0  0  0  0  0  0  0  0
   20.0165  -10.7278  -17.0810 O   0  0  0  0  0  0  0  0  0  0  0  0
   22.0548   -9.7213  -16.8974 N   0  0  0  0  0  0  0  0  0  0  0  0
   21.5916   -8.8929  -15.8028 C   0  0  1  0  0  0  0  0  0  0  0  0
   22.3621   -9.2911  -14.5719 C   0  0  0  0  0  0  0  0  0  0  0  0
   21.9546   -8.2010  -13.1838 S   0  0  0  0  0  0  0  0  0  0  0  0
   21.7054   -7.4624  -16.1293 C   0  0  0  0  0  0  0  0  0  0  0  0
   22.7521   -7.0466  -16.7056 O   0  0  0  0  0  0  0  0  0  0  0  0
   19.8224   -3.1058  -17.1752 C   0  0  0  0  0  0  0  0  0  0  0  0
   19.7075   -4.5848  -16.8712 C   0  0  1  0  0  0  0  0  0  0  0  0
   19.7060   -5.2668  -18.1017 O   0  0  0  0  0  0  0  0  0  0  0  0
   20.9349   -5.0651  -16.1134 C   0  0  2  0  0  0  0  0  0  0  0  0
   20.7162   -6.4871  -15.8455 N   0  0  0  0  0  0  0  0  0  0  0  0
   21.1659   -4.3076  -14.8744 C   0  0  0  0  0  0  0  0  0  0  0  0
   22.1668   -3.3564  -14.7602 O   0  0  0  0  0  0  0  0  0  0  0  0
   20.4453   -4.5076  -13.8636 O   0  0  0  0  0  0  0  0  0  0  0  0
  2  1  1  6
  2  4  1  0
  2  3  1  0
  4  5  1  1
  6  8  1  0
  6  4  1  0
  7  6  2  0
  9 12  1  0
  9  8  1  0
  9 10  1  1
 11 10  1  0
 12 18  1  0
 13 12  2  0
 15 14  1  6
 16 15  1  0
 17 19  1  0
 17 15  1  0
 17 18  1  1
 19 20  1  0
 21 19  2  0
M  END
$$$$
