TCT.pdb
     RDKit          3D

 21 20  0  0  1  0  0  0  0  0999 V2000
   17.0086  -12.5806  -17.4233 C   0  0  0  0  0  0  0  0  0  0  0  0
   18.3510  -12.7738  -18.0539 C   0  0  1  0  0  0  0  0  0  0  0  0
   18.6378  -11.6852  -18.8496 O   0  0  0  0  0  0  0  0  0  0  0  0
   19.4353  -13.0485  -17.0362 C   0  0  2  0  0  0  0  0  0  0  0  0
   19.0682  -14.2639  -16.3273 N   0  0  0  0  0  0  0  0  0  0  0  0
   19.5076  -11.9528  -16.0345 C   0  0  0  0  0  0  0  0  0  0  0  0
   18.7467  -11.9135  -15.0333 O   0  0  0  0  0  0  0  0  0  0  0  0
   20.4458  -10.8747  -16.1448 N   0  0  0  0  0  0  0  0  0  0  0  0
   20.4132   -9.7502  -15.2319 C   0  0  1  0  0  0  0  0  0  0  0  0
   21.7827   -9.6202  -14.6197 C   0  0  0  0  0  0  0  0  0  0  0  0
   21.8245   -8.2501  -13.4355 S   0  0  0  0  0  0  0  0  0  0  0  0
   19.9534   -8.5262  -15.9072 C   0  0  0  0  0  0  0  0  0  0  0  0
   20.5484   -8.1447  -16.9565 O   0  0  0  0  0  0  0  0  0  0  0  0
   16.8997   -7.8069  -17.5715 C   0  0  0  0  0  0  0  0  0  0  0  0
   17.0345   -6.6752  -16.5744 C   0  0  1  0  0  0  0  0  0  0  0  0
   16.3452   -7.0586  -15.4094 O   0  0  0  0  0  0  0  0  0  0  0  0
   18.4901   -6.4943  -16.1743 C   0  0  2  0  0  0  0  0  0  0  0  0
   18.8731   -7.7186  -15.4701 N   0  0  0  0  0  0  0  0  0  0  0  0
   18.7031   -5.2999  -15.3435 C   0  0  0  0  0  0  0  0  0  0  0  0
   18.5917   -4.0141  -15.8476 O   0  0  0  0  0  0  0  0  0  0  0  0
   18.9986   -5.4165  -14.1269 O   0  0  0  0  0  0  0  0  0  0  0  0
  2  1  1  1
  2  4  1  0
  2  3  1  0
  4  5  1  1
  6  8  1  0
  6  4  1  0
  7  6  2  0
  9 12  1  0
  9  8  1  0
  9 10  1  6
 11 10  1  0
 12 18  1  0
 13 12  2  0
 15 14  1  6
 16 15  1  0
 17 19  1  0
 17 15  1  0
 17 18  1  1
 19 20  1  0
 21 19  2  0
M  END
$$$$
