TCT.pdb
     RDKit          3D

 21 20  0  0  1  0  0  0  0  0999 V2000
   26.3436  -13.7334  -15.3172 C   0  0  0  0  0  0  0  0  0  0  0  0
   25.8625  -14.7898  -16.2605 C   0  0  1  0  0  0  0  0  0  0  0  0
   26.8065  -15.7915  -16.3372 O   0  0  0  0  0  0  0  0  0  0  0  0
   24.4918  -15.3131  -15.8943 C   0  0  2  0  0  0  0  0  0  0  0  0
   24.2157  -16.4503  -16.7575 N   0  0  0  0  0  0  0  0  0  0  0  0
   23.4484  -14.2884  -16.1596 C   0  0  0  0  0  0  0  0  0  0  0  0
   23.1386  -13.9392  -17.3279 O   0  0  0  0  0  0  0  0  0  0  0  0
   22.7308  -13.6349  -15.1048 N   0  0  0  0  0  0  0  0  0  0  0  0
   21.7039  -12.6526  -15.3871 C   0  0  1  0  0  0  0  0  0  0  0  0
   20.4564  -13.0744  -14.6569 C   0  0  0  0  0  0  0  0  0  0  0  0
   20.2640  -14.8748  -14.7104 S   0  0  0  0  0  0  0  0  0  0  0  0
   22.1542  -11.2943  -15.0437 C   0  0  0  0  0  0  0  0  0  0  0  0
   22.7688  -11.1096  -13.9535 O   0  0  0  0  0  0  0  0  0  0  0  0
   24.1997   -8.9113  -17.1950 C   0  0  0  0  0  0  0  0  0  0  0  0
   22.9749   -8.1682  -16.7046 C   0  0  1  0  0  0  0  0  0  0  0  0
   21.9799   -8.3037  -17.6900 O   0  0  0  0  0  0  0  0  0  0  0  0
   22.4280   -8.8237  -15.4466 C   0  0  2  0  0  0  0  0  0  0  0  0
   21.9522  -10.1469  -15.8518 N   0  0  0  0  0  0  0  0  0  0  0  0
   21.3614   -8.0322  -14.8154 C   0  0  0  0  0  0  0  0  0  0  0  0
   20.0304   -8.4154  -14.8517 O   0  0  0  0  0  0  0  0  0  0  0  0
   21.6352   -6.9632  -14.2128 O   0  0  0  0  0  0  0  0  0  0  0  0
  2  1  1  1
  2  4  1  0
  2  3  1  0
  4  5  1  6
  6  8  1  0
  6  4  1  0
  7  6  2  0
  9 12  1  0
  9  8  1  0
  9 10  1  1
 11 10  1  0
 12 18  1  0
 13 12  2  0
 15 14  1  6
 16 15  1  0
 17 19  1  0
 17 15  1  0
 17 18  1  6
 19 20  1  0
 21 19  2  0
M  END
$$$$
