TCT.pdb
     RDKit          3D

 21 20  0  0  1  0  0  0  0  0999 V2000
   14.7563   -8.6548  -12.0200 C   0  0  0  0  0  0  0  0  0  0  0  0
   14.6471   -8.1482  -10.6170 C   0  0  1  0  0  0  0  0  0  0  0  0
   13.5992   -8.7847   -9.9866 O   0  0  0  0  0  0  0  0  0  0  0  0
   15.9456   -8.2750   -9.8523 C   0  0  2  0  0  0  0  0  0  0  0  0
   15.7566   -7.6267   -8.5645 N   0  0  0  0  0  0  0  0  0  0  0  0
   17.0428   -7.5597  -10.5547 C   0  0  0  0  0  0  0  0  0  0  0  0
   17.1718   -6.3098  -10.4912 O   0  0  0  0  0  0  0  0  0  0  0  0
   18.0208   -8.2459  -11.3467 N   0  0  0  0  0  0  0  0  0  0  0  0
   19.0075   -7.5210  -12.1213 C   0  0  1  0  0  0  0  0  0  0  0  0
   20.3477   -8.1563  -11.8614 C   0  0  0  0  0  0  0  0  0  0  0  0
   21.5996   -7.4875  -12.9868 S   0  0  0  0  0  0  0  0  0  0  0  0
   18.6438   -7.4801  -13.5467 C   0  0  0  0  0  0  0  0  0  0  0  0
   18.4524   -8.5689  -14.1619 O   0  0  0  0  0  0  0  0  0  0  0  0
   15.8106   -6.3438  -15.4295 C   0  0  0  0  0  0  0  0  0  0  0  0
   16.9807   -5.5812  -16.0144 C   0  0  1  0  0  0  0  0  0  0  0  0
   17.0756   -4.3616  -15.3196 O   0  0  0  0  0  0  0  0  0  0  0  0
   18.2799   -6.3272  -15.7556 C   0  0  2  0  0  0  0  0  0  0  0  0
   18.4859   -6.2939  -14.3072 N   0  0  0  0  0  0  0  0  0  0  0  0
   19.4193   -5.7452  -16.4804 C   0  0  0  0  0  0  0  0  0  0  0  0
   19.5469   -5.8311  -17.8573 O   0  0  0  0  0  0  0  0  0  0  0  0
   20.3280   -5.1409  -15.8558 O   0  0  0  0  0  0  0  0  0  0  0  0
  2  1  1  6
  2  4  1  0
  2  3  1  0
  4  5  1  1
  6  8  1  0
  6  4  1  0
  7  6  2  0
  9 12  1  0
  9  8  1  0
  9 10  1  6
 11 10  1  0
 12 18  1  0
 13 12  2  0
 15 14  1  1
 16 15  1  0
 17 19  1  0
 17 15  1  0
 17 18  1  1
 19 20  1  0
 21 19  2  0
M  END
$$$$
