GID.pdb
     RDKit          3D

 21 20  0  0  1  0  0  0  0  0999 V2000
    7.2379  -14.1601   20.1084 N   0  0  0  0  0  0  0  0  0  0  0  0
    6.5683  -14.5530   21.3129 C   0  0  0  0  0  0  0  0  0  0  0  0
    7.4816  -14.4408   22.5033 C   0  0  0  0  0  0  0  0  0  0  0  0
    8.7073  -14.3273   22.2840 O   0  0  0  0  0  0  0  0  0  0  0  0
    5.8628  -11.5761   26.7988 C   0  0  0  0  0  0  0  0  0  0  0  0
    6.5650  -12.2844   25.6896 C   0  0  0  0  0  0  0  0  0  0  0  0
    7.1856  -13.5927   26.0289 C   0  0  2  0  0  0  0  0  0  0  0  0
    7.9520  -13.5135   27.3318 C   0  0  0  0  0  0  0  0  0  0  0  0
    7.7299  -14.4321   24.9649 C   0  0  2  0  0  0  0  0  0  0  0  0
    6.8888  -14.4716   23.7930 N   0  0  0  0  0  0  0  0  0  0  0  0
    8.3565  -15.7221   25.2921 C   0  0  0  0  0  0  0  0  0  0  0  0
    7.7296  -16.7717   25.5202 O   0  0  0  0  0  0  0  0  0  0  0  0
    9.7697  -15.7942   25.3626 N   0  0  0  0  0  0  0  0  0  0  0  0
   10.4787  -17.0242   25.7367 C   0  0  1  0  0  0  0  0  0  0  0  0
   11.8366  -16.9765   25.1141 C   0  0  0  0  0  0  0  0  0  0  0  0
   11.7973  -17.0488   23.6474 C   0  0  0  0  0  0  0  0  0  0  0  0
   10.9368  -17.7042   23.0429 O   0  0  0  0  0  0  0  0  0  0  0  0
   10.5419  -17.1322   27.2070 C   0  0  0  0  0  0  0  0  0  0  0  0
   10.1794  -16.1675   28.1132 O   0  0  0  0  0  0  0  0  0  0  0  0
   12.7401  -16.3735   22.8536 O   0  0  0  0  0  0  0  0  0  0  0  0
   10.9758  -18.2281   27.6998 O   0  0  0  0  0  0  0  0  0  0  0  0
  1  2  1  0
  2  3  1  0
  3 10  1  0
  3  4  2  0
  6  7  1  0
  6  5  1  0
  7  8  1  1
  9  7  1  0
  9 10  1  6
 11  9  1  0
 11 13  1  0
 12 11  2  0
 14 15  1  6
 14 13  1  0
 14 18  1  0
 16 20  1  0
 16 15  1  0
 17 16  2  0
 18 19  1  0
 21 18  2  0
M  END
$$$$
