GID.pdb
     RDKit          3D

 21 20  0  0  1  0  0  0  0  0999 V2000
    6.0975  -16.0034   20.8860 N   0  0  0  0  0  0  0  0  0  0  0  0
    5.9470  -16.2036   22.2970 C   0  0  0  0  0  0  0  0  0  0  0  0
    7.0111  -15.4689   23.0663 C   0  0  0  0  0  0  0  0  0  0  0  0
    8.1072  -15.2748   22.4971 O   0  0  0  0  0  0  0  0  0  0  0  0
    5.9990  -11.7059   26.8326 C   0  0  0  0  0  0  0  0  0  0  0  0
    6.6649  -12.5261   25.7795 C   0  0  0  0  0  0  0  0  0  0  0  0
    7.4462  -13.7002   26.2517 C   0  0  2  0  0  0  0  0  0  0  0  0
    8.5105  -13.2857   27.2450 C   0  0  0  0  0  0  0  0  0  0  0  0
    7.7629  -14.7797   25.3203 C   0  0  2  0  0  0  0  0  0  0  0  0
    6.6970  -15.0470   24.3850 N   0  0  0  0  0  0  0  0  0  0  0  0
    8.4516  -15.9878   25.7997 C   0  0  0  0  0  0  0  0  0  0  0  0
    7.8770  -16.9905   26.2588 O   0  0  0  0  0  0  0  0  0  0  0  0
    9.8669  -16.0302   25.7487 N   0  0  0  0  0  0  0  0  0  0  0  0
   10.6335  -17.2273   26.1159 C   0  0  1  0  0  0  0  0  0  0  0  0
   11.9624  -17.1454   25.4368 C   0  0  0  0  0  0  0  0  0  0  0  0
   11.8573  -17.1346   23.9716 C   0  0  0  0  0  0  0  0  0  0  0  0
   11.0401  -17.8411   23.3645 O   0  0  0  0  0  0  0  0  0  0  0  0
   10.7604  -17.3033   27.5841 C   0  0  0  0  0  0  0  0  0  0  0  0
   11.1715  -18.3908   28.3133 O   0  0  0  0  0  0  0  0  0  0  0  0
   12.6840  -16.3170   23.1823 O   0  0  0  0  0  0  0  0  0  0  0  0
   10.4608  -16.2593   28.2568 O   0  0  0  0  0  0  0  0  0  0  0  0
  1  2  1  0
  2  3  1  0
  3 10  1  0
  3  4  2  0
  6  7  1  0
  6  5  1  0
  7  8  1  6
  9  7  1  0
  9 10  1  1
 11  9  1  0
 11 13  1  0
 12 11  2  0
 14 15  1  6
 14 13  1  0
 14 18  1  0
 16 20  1  0
 16 15  1  0
 17 16  2  0
 18 19  1  0
 21 18  2  0
M  END
$$$$
