GID.pdb
     RDKit          3D

 21 20  0  0  1  0  0  0  0  0999 V2000
    5.6190  -18.2791   22.2004 N   0  0  0  0  0  0  0  0  0  0  0  0
    5.4622  -17.4967   23.3907 C   0  0  0  0  0  0  0  0  0  0  0  0
    6.6734  -16.6398   23.6407 C   0  0  0  0  0  0  0  0  0  0  0  0
    7.6646  -16.8072   22.8973 O   0  0  0  0  0  0  0  0  0  0  0  0
    6.8613  -12.1527   27.5567 C   0  0  0  0  0  0  0  0  0  0  0  0
    6.7098  -13.4499   26.8359 C   0  0  0  0  0  0  0  0  0  0  0  0
    7.3724  -13.5497   25.5082 C   0  0  2  0  0  0  0  0  0  0  0  0
    6.8113  -12.5317   24.5386 C   0  0  0  0  0  0  0  0  0  0  0  0
    7.7465  -14.8604   24.9837 C   0  0  2  0  0  0  0  0  0  0  0  0
    6.6072  -15.7006   24.7034 N   0  0  0  0  0  0  0  0  0  0  0  0
    8.8930  -15.5828   25.5556 C   0  0  0  0  0  0  0  0  0  0  0  0
    9.9925  -15.0641   25.8175 O   0  0  0  0  0  0  0  0  0  0  0  0
    8.7582  -16.9663   25.8296 N   0  0  0  0  0  0  0  0  0  0  0  0
    9.8185  -17.7489   26.4767 C   0  0  1  0  0  0  0  0  0  0  0  0
    9.9556  -17.2589   27.8820 C   0  0  0  0  0  0  0  0  0  0  0  0
   10.9757  -17.9892   28.6464 C   0  0  0  0  0  0  0  0  0  0  0  0
   11.8631  -18.6539   28.0932 O   0  0  0  0  0  0  0  0  0  0  0  0
    9.4820  -19.1844   26.4161 C   0  0  0  0  0  0  0  0  0  0  0  0
    8.4179  -19.7469   25.7568 O   0  0  0  0  0  0  0  0  0  0  0  0
   10.9946  -17.9688   30.0514 O   0  0  0  0  0  0  0  0  0  0  0  0
   10.2498  -19.9967   27.0349 O   0  0  0  0  0  0  0  0  0  0  0  0
  1  2  1  0
  2  3  1  0
  3 10  1  0
  3  4  2  0
  6  7  1  0
  6  5  1  0
  7  8  1  6
  9  7  1  0
  9 10  1  1
 11  9  1  0
 11 13  1  0
 12 11  2  0
 14 15  1  1
 14 13  1  0
 14 18  1  0
 16 20  1  0
 16 15  1  0
 17 16  2  0
 18 19  1  0
 21 18  2  0
M  END
$$$$
