GID.pdb
     RDKit          3D

 21 20  0  0  1  0  0  0  0  0999 V2000
    7.4608  -13.9631   19.7813 N   0  0  0  0  0  0  0  0  0  0  0  0
    6.6962  -14.2445   20.9601 C   0  0  0  0  0  0  0  0  0  0  0  0
    7.5683  -14.2431   22.1862 C   0  0  0  0  0  0  0  0  0  0  0  0
    8.8063  -14.2039   22.0161 O   0  0  0  0  0  0  0  0  0  0  0  0
    6.1226  -11.1141   26.2249 C   0  0  0  0  0  0  0  0  0  0  0  0
    6.8071  -11.9570   25.2021 C   0  0  0  0  0  0  0  0  0  0  0  0
    7.2417  -13.3093   25.6432 C   0  0  2  0  0  0  0  0  0  0  0  0
    7.9552  -13.2469   26.9767 C   0  0  0  0  0  0  0  0  0  0  0  0
    7.7204  -14.2727   24.6555 C   0  0  2  0  0  0  0  0  0  0  0  0
    6.9253  -14.2865   23.4513 N   0  0  0  0  0  0  0  0  0  0  0  0
    8.1740  -15.6043   25.0851 C   0  0  0  0  0  0  0  0  0  0  0  0
    7.4164  -16.5495   25.3661 O   0  0  0  0  0  0  0  0  0  0  0  0
    9.5655  -15.8459   25.1982 N   0  0  0  0  0  0  0  0  0  0  0  0
   10.1122  -17.1694   25.5220 C   0  0  1  0  0  0  0  0  0  0  0  0
   11.5432  -17.1909   25.0913 C   0  0  0  0  0  0  0  0  0  0  0  0
   11.7073  -17.0293   23.6404 C   0  0  0  0  0  0  0  0  0  0  0  0
   10.9500  -17.5768   22.8267 O   0  0  0  0  0  0  0  0  0  0  0  0
    9.9599  -17.4286   26.9667 C   0  0  0  0  0  0  0  0  0  0  0  0
    9.7106  -18.6420   27.5571 O   0  0  0  0  0  0  0  0  0  0  0  0
   12.7380  -16.2406   23.1016 O   0  0  0  0  0  0  0  0  0  0  0  0
   10.0685  -16.4324   27.7592 O   0  0  0  0  0  0  0  0  0  0  0  0
  1  2  1  0
  2  3  1  0
  3 10  1  0
  3  4  2  0
  6  7  1  0
  6  5  1  0
  7  8  1  1
  9  7  1  0
  9 10  1  6
 11  9  1  0
 11 13  1  0
 12 11  2  0
 14 15  1  1
 14 13  1  0
 14 18  1  0
 16 20  1  0
 16 15  1  0
 17 16  2  0
 18 19  1  0
 21 18  2  0
M  END
$$$$
