QVI.pdb
     RDKit          3D

 25 24  0  0  1  0  0  0  0  0999 V2000
   18.4089  -18.4475  -16.2984 N   0  0  0  0  0  0  0  0  0  0  0  0
   18.5503  -17.2468  -15.5416 C   0  0  0  0  0  0  0  0  0  0  0  0
   17.5291  -16.5868  -15.3165 O   0  0  0  0  0  0  0  0  0  0  0  0
   19.8642  -16.8332  -15.0666 C   0  0  0  0  0  0  0  0  0  0  0  0
   20.9869  -17.7861  -15.3212 C   0  0  0  0  0  0  0  0  0  0  0  0
   22.0649  -17.3015  -16.2377 C   0  0  2  0  0  0  0  0  0  0  0  0
   21.4801  -17.4019  -17.5941 N   0  0  0  0  0  0  0  0  0  0  0  0
   23.3646  -17.9327  -16.1848 C   0  0  0  0  0  0  0  0  0  0  0  0
   23.4838  -19.1839  -16.4029 O   0  0  0  0  0  0  0  0  0  0  0  0
   26.6775  -16.3964  -17.6909 C   0  0  0  0  0  0  0  0  0  0  0  0
   26.9402  -16.8549  -16.2754 C   0  0  2  0  0  0  0  0  0  0  0  0
   28.3199  -17.4316  -16.1851 C   0  0  0  0  0  0  0  0  0  0  0  0
   25.8764  -17.8748  -15.8421 C   0  0  2  0  0  0  0  0  0  0  0  0
   24.5946  -17.2470  -15.9012 N   0  0  0  0  0  0  0  0  0  0  0  0
   26.2571  -18.2826  -14.4621 C   0  0  0  0  0  0  0  0  0  0  0  0
   26.4039  -17.3829  -13.5961 O   0  0  0  0  0  0  0  0  0  0  0  0
   25.1341  -20.4731   -9.4087 C   0  0  0  0  0  0  0  0  0  0  0  0
   26.2710  -20.4602  -10.3998 C   0  0  0  0  0  0  0  0  0  0  0  0
   25.7445  -20.1894  -11.7936 C   0  0  2  0  0  0  0  0  0  0  0  0
   24.9080  -21.3557  -12.2758 C   0  0  0  0  0  0  0  0  0  0  0  0
   26.9007  -20.0257  -12.7503 C   0  0  2  0  0  0  0  0  0  0  0  0
   26.4627  -19.6145  -14.0683 N   0  0  0  0  0  0  0  0  0  0  0  0
   27.5561  -21.3485  -12.8892 C   0  0  0  0  0  0  0  0  0  0  0  0
   28.2265  -21.8425  -11.9508 O   0  0  0  0  0  0  0  0  0  0  0  0
   27.4622  -22.0995  -14.0523 O   0  0  0  0  0  0  0  0  0  0  0  0
  1  2  1  0
  2  3  2  0
  4  2  1  0
  5  4  1  0
  6  7  1  6
  6  5  1  0
  8  6  1  0
  9  8  2  0
 11 12  1  6
 11 10  1  0
 11 13  1  0
 13 14  1  1
 14  8  1  0
 15 13  1  0
 15 16  2  0
 18 17  1  0
 19 18  1  0
 19 21  1  0
 19 20  1  6
 21 22  1  6
 22 15  1  0
 23 21  1  0
 24 23  2  0
 25 23  1  0
M  END
$$$$
