QVI.pdb
     RDKit          3D

 25 24  0  0  1  0  0  0  0  0999 V2000
   28.6555  -21.8798  -13.9433 N   0  0  0  0  0  0  0  0  0  0  0  0
   29.2117  -21.2762  -15.1099 C   0  0  0  0  0  0  0  0  0  0  0  0
   29.7999  -22.0114  -15.9115 O   0  0  0  0  0  0  0  0  0  0  0  0
   29.0809  -19.8406  -15.3225 C   0  0  0  0  0  0  0  0  0  0  0  0
   28.3404  -19.0832  -14.2684 C   0  0  0  0  0  0  0  0  0  0  0  0
   26.9036  -19.4538  -14.0800 C   0  0  2  0  0  0  0  0  0  0  0  0
   26.1797  -18.7041  -15.1316 N   0  0  0  0  0  0  0  0  0  0  0  0
   26.2927  -19.2523  -12.7852 C   0  0  0  0  0  0  0  0  0  0  0  0
   25.7782  -18.1248  -12.4828 O   0  0  0  0  0  0  0  0  0  0  0  0
   23.3302  -20.4315  -11.8130 C   0  0  0  0  0  0  0  0  0  0  0  0
   24.1703  -20.9330  -10.6616 C   0  0  2  0  0  0  0  0  0  0  0  0
   23.3699  -20.8745   -9.3967 C   0  0  0  0  0  0  0  0  0  0  0  0
   25.4608  -20.1077  -10.5478 C   0  0  2  0  0  0  0  0  0  0  0  0
   26.2023  -20.2543  -11.7600 N   0  0  0  0  0  0  0  0  0  0  0  0
   26.1771  -20.6534   -9.3625 C   0  0  0  0  0  0  0  0  0  0  0  0
   26.6244  -21.8267   -9.4273 O   0  0  0  0  0  0  0  0  0  0  0  0
   29.4105  -18.9043   -4.4233 C   0  0  0  0  0  0  0  0  0  0  0  0
   28.6102  -19.9702   -5.1295 C   0  0  0  0  0  0  0  0  0  0  0  0
   27.8313  -19.3628   -6.2773 C   0  0  2  0  0  0  0  0  0  0  0  0
   26.8133  -18.3708   -5.7556 C   0  0  0  0  0  0  0  0  0  0  0  0
   27.0819  -20.4474   -7.0127 C   0  0  2  0  0  0  0  0  0  0  0  0
   26.3837  -19.9354   -8.1738 N   0  0  0  0  0  0  0  0  0  0  0  0
   26.0639  -20.9953   -6.0841 C   0  0  0  0  0  0  0  0  0  0  0  0
   26.3947  -21.7049   -5.1039 O   0  0  0  0  0  0  0  0  0  0  0  0
   24.7077  -20.7533   -6.2506 O   0  0  0  0  0  0  0  0  0  0  0  0
  1  2  1  0
  2  3  2  0
  4  2  1  0
  5  4  1  0
  6  7  1  6
  6  5  1  0
  8  6  1  0
  9  8  2  0
 11 12  1  1
 11 10  1  0
 11 13  1  0
 13 14  1  6
 14  8  1  0
 15 13  1  0
 15 16  2  0
 18 17  1  0
 19 18  1  0
 19 21  1  0
 19 20  1  1
 21 22  1  6
 22 15  1  0
 23 21  1  0
 24 23  2  0
 25 23  1  0
M  END
$$$$
