QVI.pdb
     RDKit          3D

 25 24  0  0  1  0  0  0  0  0999 V2000
   30.9569  -23.4531  -13.8541 N   0  0  0  0  0  0  0  0  0  0  0  0
   31.2080  -23.6190  -15.2485 C   0  0  0  0  0  0  0  0  0  0  0  0
   31.9205  -24.5686  -15.5941 O   0  0  0  0  0  0  0  0  0  0  0  0
   30.6366  -22.6848  -16.2097 C   0  0  0  0  0  0  0  0  0  0  0  0
   29.8144  -21.5743  -15.6405 C   0  0  0  0  0  0  0  0  0  0  0  0
   28.3402  -21.8173  -15.5711 C   0  0  2  0  0  0  0  0  0  0  0  0
   27.8652  -21.6547  -16.9640 N   0  0  0  0  0  0  0  0  0  0  0  0
   27.5435  -21.0311  -14.6560 C   0  0  0  0  0  0  0  0  0  0  0  0
   27.3344  -19.7931  -14.8820 O   0  0  0  0  0  0  0  0  0  0  0  0
   24.5620  -20.3734  -14.5348 C   0  0  0  0  0  0  0  0  0  0  0  0
   24.6428  -20.8789  -13.1132 C   0  0  2  0  0  0  0  0  0  0  0  0
   23.6981  -20.0987  -12.2512 C   0  0  0  0  0  0  0  0  0  0  0  0
   26.0859  -20.7800  -12.5963 C   0  0  2  0  0  0  0  0  0  0  0  0
   26.9312  -21.5409  -13.4607 N   0  0  0  0  0  0  0  0  0  0  0  0
   26.0472  -21.3152  -11.2079 C   0  0  0  0  0  0  0  0  0  0  0  0
   25.8050  -22.5388  -11.0497 O   0  0  0  0  0  0  0  0  0  0  0  0
   28.8950  -18.8756   -7.1249 C   0  0  0  0  0  0  0  0  0  0  0  0
   28.2858  -19.9374   -8.0063 C   0  0  0  0  0  0  0  0  0  0  0  0
   26.8062  -20.0722   -7.7134 C   0  0  2  0  0  0  0  0  0  0  0  0
   26.5941  -20.6402   -6.3260 C   0  0  0  0  0  0  0  0  0  0  0  0
   26.1776  -21.0246   -8.7016 C   0  0  2  0  0  0  0  0  0  0  0  0
   26.2654  -20.5343  -10.0617 N   0  0  0  0  0  0  0  0  0  0  0  0
   24.7394  -21.1386   -8.3592 C   0  0  0  0  0  0  0  0  0  0  0  0
   23.9048  -20.2990   -8.7746 O   0  0  0  0  0  0  0  0  0  0  0  0
   24.2486  -22.1691   -7.5700 O   0  0  0  0  0  0  0  0  0  0  0  0
  1  2  1  0
  2  3  2  0
  4  2  1  0
  5  4  1  0
  6  7  1  6
  6  5  1  0
  8  6  1  0
  9  8  2  0
 11 12  1  1
 11 10  1  0
 11 13  1  0
 13 14  1  6
 14  8  1  0
 15 13  1  0
 15 16  2  0
 18 17  1  0
 19 18  1  0
 19 21  1  0
 19 20  1  1
 21 22  1  6
 22 15  1  0
 23 21  1  0
 24 23  2  0
 25 23  1  0
M  END
$$$$
