QVI.pdb
     RDKit          3D

 25 24  0  0  1  0  0  0  0  0999 V2000
   28.0152  -18.4172  -20.8655 N   0  0  0  0  0  0  0  0  0  0  0  0
   28.9962  -18.1265  -19.8715 C   0  0  0  0  0  0  0  0  0  0  0  0
   29.3963  -16.9599  -19.7842 O   0  0  0  0  0  0  0  0  0  0  0  0
   29.4955  -19.1871  -19.0061 C   0  0  0  0  0  0  0  0  0  0  0  0
   29.0913  -19.1104  -17.5695 C   0  0  0  0  0  0  0  0  0  0  0  0
   28.1924  -20.2014  -17.0808 C   0  0  2  0  0  0  0  0  0  0  0  0
   27.6762  -20.8441  -18.3106 N   0  0  0  0  0  0  0  0  0  0  0  0
   27.1138  -19.8677  -16.1777 C   0  0  0  0  0  0  0  0  0  0  0  0
   26.8453  -18.6484  -15.9155 O   0  0  0  0  0  0  0  0  0  0  0  0
   23.6287  -20.3486  -16.6068 C   0  0  0  0  0  0  0  0  0  0  0  0
   23.8846  -21.0251  -15.2802 C   0  0  2  0  0  0  0  0  0  0  0  0
   22.7129  -20.8052  -14.3730 C   0  0  0  0  0  0  0  0  0  0  0  0
   25.1844  -20.4949  -14.6564 C   0  0  2  0  0  0  0  0  0  0  0  0
   26.2720  -20.8285  -15.5206 N   0  0  0  0  0  0  0  0  0  0  0  0
   25.2819  -21.1524  -13.3245 C   0  0  0  0  0  0  0  0  0  0  0  0
   25.3432  -22.4076  -13.2850 O   0  0  0  0  0  0  0  0  0  0  0  0
   26.9258  -20.1432   -7.4591 C   0  0  0  0  0  0  0  0  0  0  0  0
   26.1438  -20.9546   -8.4618 C   0  0  0  0  0  0  0  0  0  0  0  0
   26.1456  -20.2615   -9.8082 C   0  0  2  0  0  0  0  0  0  0  0  0
   25.4903  -18.9008   -9.7003 C   0  0  0  0  0  0  0  0  0  0  0  0
   25.3520  -21.0770  -10.8002 C   0  0  2  0  0  0  0  0  0  0  0  0
   25.3095  -20.4538  -12.1070 N   0  0  0  0  0  0  0  0  0  0  0  0
   23.9592  -21.1591  -10.2982 C   0  0  0  0  0  0  0  0  0  0  0  0
   23.6371  -21.9843   -9.4098 O   0  0  0  0  0  0  0  0  0  0  0  0
   22.9517  -20.3358  -10.7807 O   0  0  0  0  0  0  0  0  0  0  0  0
  1  2  1  0
  2  3  2  0
  4  2  1  0
  5  4  1  0
  6  7  1  6
  6  5  1  0
  8  6  1  0
  9  8  2  0
 11 12  1  1
 11 10  1  0
 11 13  1  0
 13 14  1  6
 14  8  1  0
 15 13  1  0
 15 16  2  0
 18 17  1  0
 19 18  1  0
 19 21  1  0
 19 20  1  1
 21 22  1  6
 22 15  1  0
 23 21  1  0
 24 23  2  0
 25 23  1  0
M  END
$$$$
