QVI.pdb
     RDKit          3D

 25 24  0  0  1  0  0  0  0  0999 V2000
   18.6989  -19.6157  -11.3082 N   0  0  0  0  0  0  0  0  0  0  0  0
   19.2742  -18.8554  -12.3691 C   0  0  0  0  0  0  0  0  0  0  0  0
   18.5112  -18.1826  -13.0721 O   0  0  0  0  0  0  0  0  0  0  0  0
   20.7128  -18.8921  -12.5973 C   0  0  0  0  0  0  0  0  0  0  0  0
   21.5196  -19.6531  -11.5957 C   0  0  0  0  0  0  0  0  0  0  0  0
   22.6895  -20.4129  -12.1352 C   0  0  2  0  0  0  0  0  0  0  0  0
   22.0934  -21.4803  -12.9703 N   0  0  0  0  0  0  0  0  0  0  0  0
   23.6573  -20.9577  -11.2096 C   0  0  0  0  0  0  0  0  0  0  0  0
   23.4010  -22.0270  -10.5629 O   0  0  0  0  0  0  0  0  0  0  0  0
   26.8785  -22.0391  -12.1198 C   0  0  0  0  0  0  0  0  0  0  0  0
   27.2021  -21.2193  -10.8925 C   0  0  2  0  0  0  0  0  0  0  0  0
   28.2371  -21.9303  -10.0755 C   0  0  0  0  0  0  0  0  0  0  0  0
   25.9264  -20.9579  -10.0777 C   0  0  2  0  0  0  0  0  0  0  0  0
   24.9456  -20.3816  -10.9418 N   0  0  0  0  0  0  0  0  0  0  0  0
   26.3385  -20.0420   -8.9790 C   0  0  0  0  0  0  0  0  0  0  0  0
   26.1738  -18.8064   -9.1428 O   0  0  0  0  0  0  0  0  0  0  0  0
   26.3068  -21.1616   -3.4314 C   0  0  0  0  0  0  0  0  0  0  0  0
   26.1741  -20.4888   -4.7750 C   0  0  0  0  0  0  0  0  0  0  0  0
   27.5394  -20.3086   -5.4048 C   0  0  2  0  0  0  0  0  0  0  0  0
   28.4208  -19.4572   -4.5157 C   0  0  0  0  0  0  0  0  0  0  0  0
   27.3979  -19.5976   -6.7290 C   0  0  2  0  0  0  0  0  0  0  0  0
   26.9014  -20.4759   -7.7682 N   0  0  0  0  0  0  0  0  0  0  0  0
   28.7482  -19.1405   -7.1370 C   0  0  0  0  0  0  0  0  0  0  0  0
   29.5491  -19.9154   -7.7132 O   0  0  0  0  0  0  0  0  0  0  0  0
   29.1900  -17.8458   -6.9046 O   0  0  0  0  0  0  0  0  0  0  0  0
  1  2  1  0
  2  3  2  0
  4  2  1  0
  5  4  1  0
  6  7  1  1
  6  5  1  0
  8  6  1  0
  9  8  2  0
 11 12  1  1
 11 10  1  0
 11 13  1  0
 13 14  1  6
 14  8  1  0
 15 13  1  0
 15 16  2  0
 18 17  1  0
 19 18  1  0
 19 21  1  0
 19 20  1  1
 21 22  1  6
 22 15  1  0
 23 21  1  0
 24 23  2  0
 25 23  1  0
M  END
$$$$
