QVI.pdb
     RDKit          3D

 25 24  0  0  1  0  0  0  0  0999 V2000
   23.8620  -26.9527  -16.8066 N   0  0  0  0  0  0  0  0  0  0  0  0
   23.5741  -26.0721  -15.7220 C   0  0  0  0  0  0  0  0  0  0  0  0
   22.4643  -25.5273  -15.7043 O   0  0  0  0  0  0  0  0  0  0  0  0
   24.5728  -25.8370  -14.6874 C   0  0  0  0  0  0  0  0  0  0  0  0
   25.6114  -24.8078  -14.9958 C   0  0  0  0  0  0  0  0  0  0  0  0
   25.1338  -23.3920  -15.0632 C   0  0  2  0  0  0  0  0  0  0  0  0
   25.2113  -23.0357  -16.4981 N   0  0  0  0  0  0  0  0  0  0  0  0
   25.7851  -22.3939  -14.2447 C   0  0  0  0  0  0  0  0  0  0  0  0
   26.5943  -21.5580  -14.7679 O   0  0  0  0  0  0  0  0  0  0  0  0
   23.7264  -20.0843  -12.2727 C   0  0  0  0  0  0  0  0  0  0  0  0
   25.1975  -19.8865  -12.5547 C   0  0  2  0  0  0  0  0  0  0  0  0
   25.3974  -19.6464  -14.0199 C   0  0  0  0  0  0  0  0  0  0  0  0
   25.9987  -21.1049  -12.0715 C   0  0  2  0  0  0  0  0  0  0  0  0
   25.5918  -22.2456  -12.8290 N   0  0  0  0  0  0  0  0  0  0  0  0
   25.6885  -21.2334  -10.6213 C   0  0  0  0  0  0  0  0  0  0  0  0
   24.8911  -22.1368  -10.2625 O   0  0  0  0  0  0  0  0  0  0  0  0
   28.6014  -19.6401   -5.3753 C   0  0  0  0  0  0  0  0  0  0  0  0
   27.5241  -20.4221   -6.0849 C   0  0  0  0  0  0  0  0  0  0  0  0
   27.3677  -19.9226   -7.5059 C   0  0  2  0  0  0  0  0  0  0  0  0
   26.8862  -18.4872   -7.5091 C   0  0  0  0  0  0  0  0  0  0  0  0
   26.3354  -20.7559   -8.2263 C   0  0  2  0  0  0  0  0  0  0  0  0
   26.2339  -20.4048   -9.6279 N   0  0  0  0  0  0  0  0  0  0  0  0
   25.0207  -20.4783   -7.5993 C   0  0  0  0  0  0  0  0  0  0  0  0
   24.2282  -19.6423   -8.0963 O   0  0  0  0  0  0  0  0  0  0  0  0
   24.6045  -21.1224   -6.4428 O   0  0  0  0  0  0  0  0  0  0  0  0
  1  2  1  0
  2  3  2  0
  4  2  1  0
  5  4  1  0
  6  7  1  6
  6  5  1  0
  8  6  1  0
  9  8  2  0
 11 12  1  6
 11 10  1  0
 11 13  1  0
 13 14  1  6
 14  8  1  0
 15 13  1  0
 15 16  2  0
 18 17  1  0
 19 18  1  0
 19 21  1  0
 19 20  1  1
 21 22  1  6
 22 15  1  0
 23 21  1  0
 24 23  2  0
 25 23  1  0
M  END
$$$$
