QVI.pdb
     RDKit          3D

 25 24  0  0  1  0  0  0  0  0999 V2000
   16.0035  -13.4758  -19.0546 N   0  0  0  0  0  0  0  0  0  0  0  0
   16.7616  -14.5859  -19.5319 C   0  0  0  0  0  0  0  0  0  0  0  0
   16.2829  -15.2524  -20.4569 O   0  0  0  0  0  0  0  0  0  0  0  0
   18.0496  -14.9038  -18.9294 C   0  0  0  0  0  0  0  0  0  0  0  0
   18.5156  -13.9848  -17.8471 C   0  0  0  0  0  0  0  0  0  0  0  0
   19.8534  -14.2937  -17.2537 C   0  0  2  0  0  0  0  0  0  0  0  0
   19.6944  -15.6323  -16.6413 N   0  0  0  0  0  0  0  0  0  0  0  0
   20.4355  -13.3599  -16.3159 C   0  0  0  0  0  0  0  0  0  0  0  0
   19.9180  -13.1975  -15.1612 O   0  0  0  0  0  0  0  0  0  0  0  0
   24.0882  -13.0840  -15.1812 C   0  0  0  0  0  0  0  0  0  0  0  0
   23.6712  -11.7192  -15.6777 C   0  0  2  0  0  0  0  0  0  0  0  0
   24.3087  -10.6625  -14.8285 C   0  0  0  0  0  0  0  0  0  0  0  0
   22.1399  -11.5970  -15.6698 C   0  0  2  0  0  0  0  0  0  0  0  0
   21.6026  -12.5632  -16.5745 N   0  0  0  0  0  0  0  0  0  0  0  0
   21.8519  -10.1961  -16.0824 C   0  0  0  0  0  0  0  0  0  0  0  0
   22.1597   -9.8457  -17.2500 O   0  0  0  0  0  0  0  0  0  0  0  0
   17.7386   -6.3233  -17.0936 C   0  0  0  0  0  0  0  0  0  0  0  0
   19.1296   -6.3943  -16.5143 C   0  0  0  0  0  0  0  0  0  0  0  0
   19.4570   -7.8187  -16.1179 C   0  0  2  0  0  0  0  0  0  0  0  0
   18.5740   -8.2617  -14.9706 C   0  0  0  0  0  0  0  0  0  0  0  0
   20.8909   -7.8995  -15.6527 C   0  0  2  0  0  0  0  0  0  0  0  0
   21.2560   -9.2403  -15.2442 N   0  0  0  0  0  0  0  0  0  0  0  0
   21.0263   -7.0184  -14.4678 C   0  0  0  0  0  0  0  0  0  0  0  0
   20.9276   -7.4762  -13.3039 O   0  0  0  0  0  0  0  0  0  0  0  0
   21.2665   -5.6567  -14.5849 O   0  0  0  0  0  0  0  0  0  0  0  0
  1  2  1  0
  2  3  2  0
  4  2  1  0
  5  4  1  0
  6  7  1  1
  6  5  1  0
  8  6  1  0
  9  8  2  0
 11 12  1  1
 11 10  1  0
 11 13  1  0
 13 14  1  6
 14  8  1  0
 15 13  1  0
 15 16  2  0
 18 17  1  0
 19 18  1  0
 19 21  1  0
 19 20  1  1
 21 22  1  1
 22 15  1  0
 23 21  1  0
 24 23  2  0
 25 23  1  0
M  END
$$$$
