IGM.pdb
     RDKit          3D

 21 20  0  0  1  0  0  0  0  0999 V2000
   16.0400  -13.8297  -18.5056 C   0  0  0  0  0  0  0  0  0  0  0  0
   17.0908  -13.5960  -17.4773 C   0  0  0  0  0  0  0  0  0  0  0  0
   18.0442  -12.4876  -17.7405 C   0  0  2  0  0  0  0  0  0  0  0  0
   18.6516  -12.6847  -19.1050 C   0  0  0  0  0  0  0  0  0  0  0  0
   19.0739  -12.2947  -16.6609 C   0  0  2  0  0  0  0  0  0  0  0  0
   18.3902  -11.9317  -15.4434 N   0  0  0  0  0  0  0  0  0  0  0  0
   20.0779  -11.2742  -16.9939 C   0  0  0  0  0  0  0  0  0  0  0  0
   21.0210  -11.4157  -17.8077 O   0  0  0  0  0  0  0  0  0  0  0  0
   19.9905   -9.9942  -16.3411 N   0  0  0  0  0  0  0  0  0  0  0  0
   20.9294   -8.9618  -16.6929 C   0  0  0  0  0  0  0  0  0  0  0  0
   20.7647   -7.6876  -16.0261 C   0  0  0  0  0  0  0  0  0  0  0  0
   20.0224   -6.8329  -16.6489 O   0  0  0  0  0  0  0  0  0  0  0  0
   18.7238   -5.1035   -9.0713 C   0  0  0  0  0  0  0  0  0  0  0  0
   19.5126   -6.3916  -10.0725 S   0  0  0  0  0  0  0  0  0  0  0  0
   19.8382   -5.7025  -11.7189 C   0  0  0  0  0  0  0  0  0  0  0  0
   20.4293   -6.7711  -12.6112 C   0  0  0  0  0  0  0  0  0  0  0  0
   20.7211   -6.2345  -13.9966 C   0  0  2  0  0  0  0  0  0  0  0  0
   21.3318   -7.3150  -14.7893 N   0  0  0  0  0  0  0  0  0  0  0  0
   21.6362   -5.0842  -13.9692 C   0  0  0  0  0  0  0  0  0  0  0  0
   22.9319   -5.2282  -14.4292 O   0  0  0  0  0  0  0  0  0  0  0  0
   21.2882   -3.9565  -13.5393 O   0  0  0  0  0  0  0  0  0  0  0  0
  2  1  1  0
  2  3  1  0
  3  5  1  0
  3  4  1  6
  5  6  1  1
  7  9  1  0
  7  5  1  0
  8  7  2  0
 10  9  1  0
 11 18  1  0
 11 10  1  0
 12 11  2  0
 14 13  1  0
 15 14  1  0
 17 16  1  1
 16 15  1  0
 17 18  1  0
 19 17  1  0
 20 19  1  0
 21 19  2  0
M  END
$$$$
