IGM.pdb
     RDKit          3D

 21 20  0  0  1  0  0  0  0  0999 V2000
   20.7320  -21.9375  -13.6998 C   0  0  0  0  0  0  0  0  0  0  0  0
   19.5316  -21.9028  -12.8200 C   0  0  0  0  0  0  0  0  0  0  0  0
   18.6559  -23.1025  -12.8420 C   0  0  2  0  0  0  0  0  0  0  0  0
   18.1301  -23.2930  -14.2409 C   0  0  0  0  0  0  0  0  0  0  0  0
   17.5688  -23.0877  -11.8022 C   0  0  2  0  0  0  0  0  0  0  0  0
   16.7723  -21.9007  -11.9975 N   0  0  0  0  0  0  0  0  0  0  0  0
   18.0833  -23.1238  -10.4260 C   0  0  0  0  0  0  0  0  0  0  0  0
   18.2279  -22.1311   -9.6740 O   0  0  0  0  0  0  0  0  0  0  0  0
   18.4603  -24.3983   -9.8729 N   0  0  0  0  0  0  0  0  0  0  0  0
   18.9333  -24.4615   -8.5152 C   0  0  0  0  0  0  0  0  0  0  0  0
   18.0001  -24.9681   -7.5315 C   0  0  0  0  0  0  0  0  0  0  0  0
   16.8357  -25.2879   -7.9915 O   0  0  0  0  0  0  0  0  0  0  0  0
   16.5900  -28.6328   -0.7308 C   0  0  0  0  0  0  0  0  0  0  0  0
   17.8171  -27.8583   -1.8162 S   0  0  0  0  0  0  0  0  0  0  0  0
   16.9353  -27.0951   -3.2059 C   0  0  0  0  0  0  0  0  0  0  0  0
   17.9237  -26.4070   -4.1208 C   0  0  0  0  0  0  0  0  0  0  0  0
   17.2253  -25.7417   -5.2879 C   0  0  2  0  0  0  0  0  0  0  0  0
   18.2512  -25.1359   -6.1535 N   0  0  0  0  0  0  0  0  0  0  0  0
   16.2858  -24.6969   -4.8552 C   0  0  0  0  0  0  0  0  0  0  0  0
   14.9687  -25.0253   -4.5934 O   0  0  0  0  0  0  0  0  0  0  0  0
   16.6314  -23.4981   -4.7100 O   0  0  0  0  0  0  0  0  0  0  0  0
  2  1  1  0
  2  3  1  0
  3  5  1  0
  3  4  1  6
  5  6  1  1
  7  9  1  0
  7  5  1  0
  8  7  2  0
 10  9  1  0
 11 18  1  0
 11 10  1  0
 12 11  2  0
 14 13  1  0
 15 14  1  0
 17 16  1  1
 16 15  1  0
 17 18  1  0
 19 17  1  0
 20 19  1  0
 21 19  2  0
M  END
$$$$
