IGM.pdb
     RDKit          3D

 21 20  0  0  1  0  0  0  0  0999 V2000
   25.7184  -15.7024  -18.1075 C   0  0  0  0  0  0  0  0  0  0  0  0
   26.5780  -15.4232  -16.9246 C   0  0  0  0  0  0  0  0  0  0  0  0
   27.2620  -16.5894  -16.3092 C   0  0  2  0  0  0  0  0  0  0  0  0
   28.1335  -17.2442  -17.3491 C   0  0  0  0  0  0  0  0  0  0  0  0
   26.3326  -17.5563  -15.6276 C   0  0  2  0  0  0  0  0  0  0  0  0
   25.6939  -16.8720  -14.5297 N   0  0  0  0  0  0  0  0  0  0  0  0
   27.0114  -18.7640  -15.1371 C   0  0  0  0  0  0  0  0  0  0  0  0
   27.1431  -19.8368  -15.7724 O   0  0  0  0  0  0  0  0  0  0  0  0
   27.5816  -18.7358  -13.8156 N   0  0  0  0  0  0  0  0  0  0  0  0
   28.2077  -19.9230  -13.2962 C   0  0  0  0  0  0  0  0  0  0  0  0
   27.4551  -20.6683  -12.3096 C   0  0  0  0  0  0  0  0  0  0  0  0
   28.0884  -21.6537  -11.7640 O   0  0  0  0  0  0  0  0  0  0  0  0
   28.5297  -20.2030   -7.1644 C   0  0  0  0  0  0  0  0  0  0  0  0
   26.7722  -19.9043   -6.8389 S   0  0  0  0  0  0  0  0  0  0  0  0
   25.8140  -20.6959   -8.1604 C   0  0  0  0  0  0  0  0  0  0  0  0
   26.4019  -20.3311   -9.5053 C   0  0  0  0  0  0  0  0  0  0  0  0
   25.6244  -20.9662  -10.6386 C   0  0  2  0  0  0  0  0  0  0  0  0
   26.1270  -20.4137  -11.9078 N   0  0  0  0  0  0  0  0  0  0  0  0
   24.1808  -20.7058  -10.5409 C   0  0  0  0  0  0  0  0  0  0  0  0
   23.4339  -21.3424   -9.5674 O   0  0  0  0  0  0  0  0  0  0  0  0
   23.5845  -19.9170  -11.3156 O   0  0  0  0  0  0  0  0  0  0  0  0
  2  1  1  0
  2  3  1  0
  3  5  1  0
  3  4  1  6
  5  6  1  1
  7  9  1  0
  7  5  1  0
  8  7  2  0
 10  9  1  0
 11 18  1  0
 11 10  1  0
 12 11  2  0
 14 13  1  0
 15 14  1  0
 17 16  1  1
 16 15  1  0
 17 18  1  0
 19 17  1  0
 20 19  1  0
 21 19  2  0
M  END
$$$$
