IGM.pdb
     RDKit          3D

 21 20  0  0  1  0  0  0  0  0999 V2000
   18.2680  -17.4563  -15.4633 C   0  0  0  0  0  0  0  0  0  0  0  0
   17.9516  -16.5372  -16.5909 C   0  0  0  0  0  0  0  0  0  0  0  0
   18.5969  -15.1996  -16.5599 C   0  0  2  0  0  0  0  0  0  0  0  0
   18.1630  -14.4812  -15.3088 C   0  0  0  0  0  0  0  0  0  0  0  0
   18.3847  -14.3870  -17.8081 C   0  0  2  0  0  0  0  0  0  0  0  0
   18.7593  -15.1952  -18.9430 N   0  0  0  0  0  0  0  0  0  0  0  0
   19.1455  -13.1296  -17.8167 C   0  0  0  0  0  0  0  0  0  0  0  0
   20.3312  -12.9959  -18.2015 O   0  0  0  0  0  0  0  0  0  0  0  0
   18.4931  -11.9355  -17.3467 N   0  0  0  0  0  0  0  0  0  0  0  0
   19.1897  -10.6786  -17.4246 C   0  0  0  0  0  0  0  0  0  0  0  0
   20.1256  -10.3942  -16.3576 C   0  0  0  0  0  0  0  0  0  0  0  0
   20.0252  -11.1577  -15.3200 O   0  0  0  0  0  0  0  0  0  0  0  0
   26.3465  -11.7010  -14.3996 C   0  0  0  0  0  0  0  0  0  0  0  0
   26.0466  -10.0600  -15.1076 S   0  0  0  0  0  0  0  0  0  0  0  0
   24.4175   -9.4946  -14.5439 C   0  0  0  0  0  0  0  0  0  0  0  0
   23.4089   -9.6519  -15.6598 C   0  0  0  0  0  0  0  0  0  0  0  0
   22.0216   -9.2430  -15.2120 C   0  0  2  0  0  0  0  0  0  0  0  0
   21.1082   -9.3820  -16.3589 N   0  0  0  0  0  0  0  0  0  0  0  0
   21.9765   -7.8551  -14.7292 C   0  0  0  0  0  0  0  0  0  0  0  0
   22.1651   -7.5905  -13.3855 O   0  0  0  0  0  0  0  0  0  0  0  0
   21.7707   -6.8814  -15.4955 O   0  0  0  0  0  0  0  0  0  0  0  0
  2  1  1  0
  2  3  1  0
  3  5  1  0
  3  4  1  1
  5  6  1  6
  7  9  1  0
  7  5  1  0
  8  7  2  0
 10  9  1  0
 11 18  1  0
 11 10  1  0
 12 11  2  0
 14 13  1  0
 15 14  1  0
 17 16  1  6
 16 15  1  0
 17 18  1  0
 19 17  1  0
 20 19  1  0
 21 19  2  0
M  END
$$$$
