IGM.pdb
     RDKit          3D

 21 20  0  0  1  0  0  0  0  0999 V2000
   11.9046  -11.6930  -17.6496 C   0  0  0  0  0  0  0  0  0  0  0  0
   12.9477  -11.5034  -16.6045 C   0  0  0  0  0  0  0  0  0  0  0  0
   13.9643  -10.4515  -16.8626 C   0  0  2  0  0  0  0  0  0  0  0  0
   14.6668  -10.7640  -18.1582 C   0  0  0  0  0  0  0  0  0  0  0  0
   14.9145  -10.2228  -15.7189 C   0  0  2  0  0  0  0  0  0  0  0  0
   14.1514   -9.7734  -14.5799 N   0  0  0  0  0  0  0  0  0  0  0  0
   15.9704   -9.2488  -16.0293 C   0  0  0  0  0  0  0  0  0  0  0  0
   16.8766   -9.4008  -16.8822 O   0  0  0  0  0  0  0  0  0  0  0  0
   15.9853   -8.0057  -15.3033 N   0  0  0  0  0  0  0  0  0  0  0  0
   16.9570   -7.0024  -15.6501 C   0  0  0  0  0  0  0  0  0  0  0  0
   18.0638   -6.8341  -14.7326 C   0  0  0  0  0  0  0  0  0  0  0  0
   17.8070   -7.1289  -13.5011 O   0  0  0  0  0  0  0  0  0  0  0  0
   24.2547  -10.2897  -12.7798 C   0  0  0  0  0  0  0  0  0  0  0  0
   22.8339   -9.9795  -13.8611 S   0  0  0  0  0  0  0  0  0  0  0  0
   22.2200   -8.3076  -13.5159 C   0  0  0  0  0  0  0  0  0  0  0  0
   21.0450   -7.9997  -14.4170 C   0  0  0  0  0  0  0  0  0  0  0  0
   20.4787   -6.6240  -14.1354 C   0  0  2  0  0  0  0  0  0  0  0  0
   19.3604   -6.3879  -15.0641 N   0  0  0  0  0  0  0  0  0  0  0  0
   21.4793   -5.5612  -14.3103 C   0  0  0  0  0  0  0  0  0  0  0  0
   22.3950   -5.3101  -13.3056 O   0  0  0  0  0  0  0  0  0  0  0  0
   21.5411   -4.8583  -15.3495 O   0  0  0  0  0  0  0  0  0  0  0  0
  2  1  1  0
  2  3  1  0
  3  5  1  0
  3  4  1  6
  5  6  1  1
  7  9  1  0
  7  5  1  0
  8  7  2  0
 10  9  1  0
 11 18  1  0
 11 10  1  0
 12 11  2  0
 14 13  1  0
 15 14  1  0
 17 16  1  6
 16 15  1  0
 17 18  1  0
 19 17  1  0
 20 19  1  0
 21 19  2  0
M  END
$$$$
