IGM.pdb
     RDKit          3D

 21 20  0  0  1  0  0  0  0  0999 V2000
   18.1203  -26.1382  -10.4933 C   0  0  0  0  0  0  0  0  0  0  0  0
   18.1301  -25.1896   -9.3460 C   0  0  0  0  0  0  0  0  0  0  0  0
   17.5185  -25.6700   -8.0804 C   0  0  2  0  0  0  0  0  0  0  0  0
   16.1359  -26.1897   -8.3771 C   0  0  0  0  0  0  0  0  0  0  0  0
   17.5402  -24.6595   -6.9662 C   0  0  2  0  0  0  0  0  0  0  0  0
   18.9164  -24.3866   -6.6298 N   0  0  0  0  0  0  0  0  0  0  0  0
   16.8110  -25.1017   -5.7692 C   0  0  0  0  0  0  0  0  0  0  0  0
   15.5699  -25.2587   -5.6864 O   0  0  0  0  0  0  0  0  0  0  0  0
   17.5667  -25.3844   -4.5769 N   0  0  0  0  0  0  0  0  0  0  0  0
   16.8747  -25.8341   -3.3979 C   0  0  0  0  0  0  0  0  0  0  0  0
   15.8387  -24.9615   -2.8876 C   0  0  0  0  0  0  0  0  0  0  0  0
   14.7696  -25.5592   -2.4761 O   0  0  0  0  0  0  0  0  0  0  0  0
   12.9808  -21.4553   -6.2726 C   0  0  0  0  0  0  0  0  0  0  0  0
   11.8490  -21.1774   -4.8849 S   0  0  0  0  0  0  0  0  0  0  0  0
   12.7349  -21.5686   -3.3508 C   0  0  0  0  0  0  0  0  0  0  0  0
   13.9965  -22.3381   -3.6726 C   0  0  0  0  0  0  0  0  0  0  0  0
   14.7052  -22.7885   -2.4127 C   0  0  2  0  0  0  0  0  0  0  0  0
   15.9000  -23.5545   -2.8056 N   0  0  0  0  0  0  0  0  0  0  0  0
   13.8527  -23.6328   -1.5632 C   0  0  0  0  0  0  0  0  0  0  0  0
   13.4626  -23.1786   -0.3172 O   0  0  0  0  0  0  0  0  0  0  0  0
   13.4555  -24.7683   -1.9245 O   0  0  0  0  0  0  0  0  0  0  0  0
  2  1  1  0
  2  3  1  0
  3  5  1  0
  3  4  1  6
  5  6  1  1
  7  9  1  0
  7  5  1  0
  8  7  2  0
 10  9  1  0
 11 18  1  0
 11 10  1  0
 12 11  2  0
 14 13  1  0
 15 14  1  0
 17 16  1  6
 16 15  1  0
 17 18  1  0
 19 17  1  0
 20 19  1  0
 21 19  2  0
M  END
$$$$
