IGM.pdb
     RDKit          3D

 21 20  0  0  1  0  0  0  0  0999 V2000
   26.3813  -15.7771  -17.9308 C   0  0  0  0  0  0  0  0  0  0  0  0
   26.4297  -16.1561  -16.4920 C   0  0  0  0  0  0  0  0  0  0  0  0
   26.1167  -17.5712  -16.1660 C   0  0  2  0  0  0  0  0  0  0  0  0
   24.7678  -17.9143  -16.7426 C   0  0  0  0  0  0  0  0  0  0  0  0
   26.2329  -17.9040  -14.7035 C   0  0  2  0  0  0  0  0  0  0  0  0
   27.5700  -17.5785  -14.2705 N   0  0  0  0  0  0  0  0  0  0  0  0
   25.9397  -19.3130  -14.4053 C   0  0  0  0  0  0  0  0  0  0  0  0
   24.7961  -19.8220  -14.3348 O   0  0  0  0  0  0  0  0  0  0  0  0
   27.0457  -20.2039  -14.1699 N   0  0  0  0  0  0  0  0  0  0  0  0
   26.7815  -21.5530  -13.7444 C   0  0  0  0  0  0  0  0  0  0  0  0
   26.4448  -21.7332  -12.3482 C   0  0  0  0  0  0  0  0  0  0  0  0
   25.8138  -22.8262  -12.0712 O   0  0  0  0  0  0  0  0  0  0  0  0
   29.2267  -19.4542   -7.0890 C   0  0  0  0  0  0  0  0  0  0  0  0
   27.5489  -19.4927   -6.4053 S   0  0  0  0  0  0  0  0  0  0  0  0
   26.4952  -20.4196   -7.5551 C   0  0  0  0  0  0  0  0  0  0  0  0
   27.0541  -20.3144   -8.9566 C   0  0  0  0  0  0  0  0  0  0  0  0
   26.2137  -21.0933   -9.9462 C   0  0  2  0  0  0  0  0  0  0  0  0
   26.7407  -20.8394  -11.2977 N   0  0  0  0  0  0  0  0  0  0  0  0
   24.7965  -20.7047   -9.9037 C   0  0  0  0  0  0  0  0  0  0  0  0
   23.9920  -21.1581   -8.8750 O   0  0  0  0  0  0  0  0  0  0  0  0
   24.2739  -19.9662  -10.7751 O   0  0  0  0  0  0  0  0  0  0  0  0
  2  1  1  0
  2  3  1  0
  3  5  1  0
  3  4  1  1
  5  6  1  6
  7  9  1  0
  7  5  1  0
  8  7  2  0
 10  9  1  0
 11 18  1  0
 11 10  1  0
 12 11  2  0
 14 13  1  0
 15 14  1  0
 17 16  1  1
 16 15  1  0
 17 18  1  0
 19 17  1  0
 20 19  1  0
 21 19  2  0
M  END
$$$$
