IGM.pdb
     RDKit          3D

 21 20  0  0  1  0  0  0  0  0999 V2000
   16.9147  -13.4313  -16.5550 C   0  0  0  0  0  0  0  0  0  0  0  0
   16.6499  -12.7532  -15.2564 C   0  0  0  0  0  0  0  0  0  0  0  0
   17.1437  -11.3588  -15.1213 C   0  0  2  0  0  0  0  0  0  0  0  0
   18.6241  -11.3398  -15.4002 C   0  0  0  0  0  0  0  0  0  0  0  0
   16.7830  -10.7040  -13.8158 C   0  0  2  0  0  0  0  0  0  0  0  0
   15.3475  -10.5721  -13.7574 N   0  0  0  0  0  0  0  0  0  0  0  0
   17.4138   -9.3891  -13.6337 C   0  0  0  0  0  0  0  0  0  0  0  0
   18.5166   -9.1791  -13.0756 O   0  0  0  0  0  0  0  0  0  0  0  0
   16.7237   -8.2277  -14.1312 N   0  0  0  0  0  0  0  0  0  0  0  0
   17.3105   -6.9276  -13.9399 C   0  0  0  0  0  0  0  0  0  0  0  0
   16.7766   -6.1342  -12.8533 C   0  0  0  0  0  0  0  0  0  0  0  0
   16.7516   -4.8596  -13.0637 O   0  0  0  0  0  0  0  0  0  0  0  0
   14.6592   -7.2755   -6.1564 C   0  0  0  0  0  0  0  0  0  0  0  0
   13.4208   -6.7710   -7.3795 S   0  0  0  0  0  0  0  0  0  0  0  0
   14.2377   -5.7040   -8.5983 C   0  0  0  0  0  0  0  0  0  0  0  0
   14.8053   -6.5492   -9.7168 C   0  0  0  0  0  0  0  0  0  0  0  0
   15.6229   -5.7143  -10.6796 C   0  0  2  0  0  0  0  0  0  0  0  0
   16.2962   -6.6249  -11.6210 N   0  0  0  0  0  0  0  0  0  0  0  0
   16.6362   -4.9005   -9.9924 C   0  0  0  0  0  0  0  0  0  0  0  0
   16.3018   -3.6452   -9.5196 O   0  0  0  0  0  0  0  0  0  0  0  0
   17.8130   -5.3009   -9.8121 O   0  0  0  0  0  0  0  0  0  0  0  0
  2  1  1  0
  2  3  1  0
  3  5  1  0
  3  4  1  1
  5  6  1  6
  7  9  1  0
  7  5  1  0
  8  7  2  0
 10  9  1  0
 11 18  1  0
 11 10  1  0
 12 11  2  0
 14 13  1  0
 15 14  1  0
 17 16  1  1
 16 15  1  0
 17 18  1  0
 19 17  1  0
 20 19  1  0
 21 19  2  0
M  END
$$$$
