IGM.pdb
     RDKit          3D

 21 20  0  0  1  0  0  0  0  0999 V2000
   28.6763  -10.0065  -17.0952 C   0  0  0  0  0  0  0  0  0  0  0  0
   27.3473  -10.6450  -17.3005 C   0  0  0  0  0  0  0  0  0  0  0  0
   26.2223  -10.1155  -16.4876 C   0  0  2  0  0  0  0  0  0  0  0  0
   26.5606  -10.2777  -15.0285 C   0  0  0  0  0  0  0  0  0  0  0  0
   24.8804  -10.6924  -16.8477 C   0  0  2  0  0  0  0  0  0  0  0  0
   24.6540  -10.4670  -18.2546 N   0  0  0  0  0  0  0  0  0  0  0  0
   23.7755  -10.1205  -16.0654 C   0  0  0  0  0  0  0  0  0  0  0  0
   23.4287  -10.4845  -14.9169 O   0  0  0  0  0  0  0  0  0  0  0  0
   23.0113   -9.0489  -16.6486 N   0  0  0  0  0  0  0  0  0  0  0  0
   21.9220   -8.4770  -15.9018 C   0  0  0  0  0  0  0  0  0  0  0  0
   21.2271   -7.3697  -16.5232 C   0  0  0  0  0  0  0  0  0  0  0  0
   21.7575   -6.9317  -17.6170 O   0  0  0  0  0  0  0  0  0  0  0  0
   14.4443   -7.7531  -17.8544 C   0  0  0  0  0  0  0  0  0  0  0  0
   15.3462   -6.4817  -16.9303 S   0  0  0  0  0  0  0  0  0  0  0  0
   17.1010   -6.6032  -17.3746 C   0  0  0  0  0  0  0  0  0  0  0  0
   17.9175   -5.6983  -16.4792 C   0  0  0  0  0  0  0  0  0  0  0  0
   19.3828   -5.7210  -16.8596 C   0  0  2  0  0  0  0  0  0  0  0  0
   20.0536   -6.7490  -16.0459 N   0  0  0  0  0  0  0  0  0  0  0  0
   20.0396   -4.4257  -16.6318 C   0  0  0  0  0  0  0  0  0  0  0  0
   20.0871   -3.4927  -17.6508 O   0  0  0  0  0  0  0  0  0  0  0  0
   20.5691   -4.1226  -15.5338 O   0  0  0  0  0  0  0  0  0  0  0  0
  2  1  1  0
  2  3  1  0
  3  5  1  0
  3  4  1  1
  5  6  1  6
  7  9  1  0
  7  5  1  0
  8  7  2  0
 10  9  1  0
 11 18  1  0
 11 10  1  0
 12 11  2  0
 14 13  1  0
 15 14  1  0
 17 16  1  1
 16 15  1  0
 17 18  1  0
 19 17  1  0
 20 19  1  0
 21 19  2  0
M  END
$$$$
