IGM.pdb
     RDKit          3D

 21 20  0  0  1  0  0  0  0  0999 V2000
   22.5010  -17.5230  -16.1014 C   0  0  0  0  0  0  0  0  0  0  0  0
   22.7057  -18.9434  -15.7055 C   0  0  0  0  0  0  0  0  0  0  0  0
   23.2074  -19.1844  -14.3282 C   0  0  2  0  0  0  0  0  0  0  0  0
   24.6439  -18.7370  -14.2506 C   0  0  0  0  0  0  0  0  0  0  0  0
   23.0028  -20.5920  -13.8383 C   0  0  2  0  0  0  0  0  0  0  0  0
   21.6009  -20.9122  -13.9552 N   0  0  0  0  0  0  0  0  0  0  0  0
   23.4476  -20.7929  -12.4520 C   0  0  0  0  0  0  0  0  0  0  0  0
   22.8288  -20.4248  -11.4257 O   0  0  0  0  0  0  0  0  0  0  0  0
   24.6993  -21.4683  -12.2294 N   0  0  0  0  0  0  0  0  0  0  0  0
   25.1040  -21.7693  -10.8815 C   0  0  0  0  0  0  0  0  0  0  0  0
   26.0550  -20.8608  -10.2770 C   0  0  0  0  0  0  0  0  0  0  0  0
   26.7138  -20.1218  -11.1073 O   0  0  0  0  0  0  0  0  0  0  0  0
   28.0925  -18.3998   -3.9848 C   0  0  0  0  0  0  0  0  0  0  0  0
   28.9649  -19.8729   -4.5788 S   0  0  0  0  0  0  0  0  0  0  0  0
   28.9862  -19.8198   -6.3921 C   0  0  0  0  0  0  0  0  0  0  0  0
   27.6335  -20.2297   -6.9302 C   0  0  0  0  0  0  0  0  0  0  0  0
   27.5968  -20.1614   -8.4422 C   0  0  2  0  0  0  0  0  0  0  0  0
   26.3128  -20.7213   -8.8971 N   0  0  0  0  0  0  0  0  0  0  0  0
   28.6953  -20.9162   -9.0627 C   0  0  0  0  0  0  0  0  0  0  0  0
   29.8769  -20.2718   -9.3784 O   0  0  0  0  0  0  0  0  0  0  0  0
   28.6076  -22.1417   -9.3236 O   0  0  0  0  0  0  0  0  0  0  0  0
  2  1  1  0
  2  3  1  0
  3  5  1  0
  3  4  1  6
  5  6  1  1
  7  9  1  0
  7  5  1  0
  8  7  2  0
 10  9  1  0
 11 18  1  0
 11 10  1  0
 12 11  2  0
 14 13  1  0
 15 14  1  0
 17 16  1  1
 16 15  1  0
 17 18  1  0
 19 17  1  0
 20 19  1  0
 21 19  2  0
M  END
$$$$
