SVH.pdb
     RDKit          3D

 24 24  0  0  1  0  0  0  0  0999 V2000
   20.2956  -22.8050  -19.1546 O   0  0  0  0  0  0  0  0  0  0  0  0
   20.0659  -21.4496  -19.2962 C   0  0  0  0  0  0  0  0  0  0  0  0
   21.3500  -20.7290  -18.9270 C   0  0  2  0  0  0  0  0  0  0  0  0
   22.4946  -21.1955  -19.6354 N   0  0  0  0  0  0  0  0  0  0  0  0
   21.5919  -20.9553  -17.4483 C   0  0  0  0  0  0  0  0  0  0  0  0
   22.6366  -21.5685  -17.1958 O   0  0  0  0  0  0  0  0  0  0  0  0
   19.7430  -18.1817  -14.6327 C   0  0  0  0  0  0  0  0  0  0  0  0
   20.9603  -19.0677  -14.4776 C   0  0  2  0  0  0  0  0  0  0  0  0
   22.1726  -18.2741  -14.7955 C   0  0  0  0  0  0  0  0  0  0  0  0
   20.8415  -20.4326  -15.0596 C   0  0  2  0  0  0  0  0  0  0  0  0
   20.7110  -20.5075  -16.4976 N   0  0  0  0  0  0  0  0  0  0  0  0
   19.9293  -21.3655  -14.3882 C   0  0  0  0  0  0  0  0  0  0  0  0
   18.7589  -21.5089  -14.9062 O   0  0  0  0  0  0  0  0  0  0  0  0
   20.1800  -22.1269  -13.2483 N   0  0  0  0  0  0  0  0  0  0  0  0
   19.2270  -23.0185  -12.6187 C   0  0  1  0  0  0  0  0  0  0  0  0
   20.0144  -23.7649  -11.5319 C   0  0  0  0  0  0  0  0  0  0  0  0
   19.1482  -24.7597  -10.8565 C   0  0  0  0  0  0  0  0  0  0  0  0
   17.8055  -24.9890  -11.0693 C   0  0  0  0  0  0  0  0  0  0  0  0
   17.3629  -25.9811  -10.2573 N   0  0  0  0  0  0  0  0  0  0  0  0
   18.4278  -26.3717   -9.5379 C   0  0  0  0  0  0  0  0  0  0  0  0
   19.4946  -25.6383   -9.8991 N   0  0  0  0  0  0  0  0  0  0  0  0
   18.0582  -22.3508  -12.0655 C   0  0  0  0  0  0  0  0  0  0  0  0
   18.1514  -21.2100  -11.5693 O   0  0  0  0  0  0  0  0  0  0  0  0
   16.8185  -22.9590  -12.0742 O   0  0  0  0  0  0  0  0  0  0  0  0
  2  1  1  0
  2  3  1  0
  3  4  1  6
  5  3  1  0
  5  6  2  0
  8  7  1  6
  8 10  1  0
  8  9  1  0
 10 11  1  6
 11  5  1  0
 12 10  1  0
 13 12  2  0
 14 12  1  0
 15 22  1  0
 15 14  1  0
 15 16  1  1
 17 18  2  0
 17 16  1  0
 19 18  1  0
 20 21  2  0
 20 19  1  0
 21 17  1  0
 22 24  1  0
 23 22  2  0
M  END
$$$$
