SVH.pdb
     RDKit          3D

 24 24  0  0  1  0  0  0  0  0999 V2000
   30.6645  -15.7413   12.3671 O   0  0  0  0  0  0  0  0  0  0  0  0
   31.3311  -16.8184   11.8143 C   0  0  0  0  0  0  0  0  0  0  0  0
   31.2009  -16.7093   10.3058 C   0  0  2  0  0  0  0  0  0  0  0  0
   30.2417  -15.7458    9.8801 N   0  0  0  0  0  0  0  0  0  0  0  0
   30.7641  -18.0640    9.7858 C   0  0  0  0  0  0  0  0  0  0  0  0
   29.5437  -18.1674    9.6094 O   0  0  0  0  0  0  0  0  0  0  0  0
   32.7838  -19.9251    6.8923 C   0  0  0  0  0  0  0  0  0  0  0  0
   32.4788  -20.8755    8.0303 C   0  0  2  0  0  0  0  0  0  0  0  0
   32.3292  -22.2456    7.4816 C   0  0  0  0  0  0  0  0  0  0  0  0
   31.4690  -20.3986    9.0142 C   0  0  2  0  0  0  0  0  0  0  0  0
   31.6667  -19.0671    9.5420 N   0  0  0  0  0  0  0  0  0  0  0  0
   31.0687  -21.3395   10.0667 C   0  0  0  0  0  0  0  0  0  0  0  0
   31.9466  -21.6106   10.9692 O   0  0  0  0  0  0  0  0  0  0  0  0
   29.8390  -21.9788   10.2123 N   0  0  0  0  0  0  0  0  0  0  0  0
   29.5222  -22.9450   11.2446 C   0  0  1  0  0  0  0  0  0  0  0  0
   28.0250  -23.2462   11.0838 C   0  0  0  0  0  0  0  0  0  0  0  0
   27.5672  -24.1749   12.1440 C   0  0  0  0  0  0  0  0  0  0  0  0
   28.3208  -24.7402   13.1506 C   0  0  0  0  0  0  0  0  0  0  0  0
   27.5464  -25.5390   13.9264 N   0  0  0  0  0  0  0  0  0  0  0  0
   26.3101  -25.4729   13.4054 C   0  0  0  0  0  0  0  0  0  0  0  0
   26.3264  -24.6554   12.3386 N   0  0  0  0  0  0  0  0  0  0  0  0
   30.3189  -24.1617   11.1900 C   0  0  0  0  0  0  0  0  0  0  0  0
   30.4347  -24.8002   10.1245 O   0  0  0  0  0  0  0  0  0  0  0  0
   30.9659  -24.6415   12.3116 O   0  0  0  0  0  0  0  0  0  0  0  0
  2  1  1  0
  2  3  1  0
  3  4  1  1
  5  3  1  0
  5  6  2  0
  8  7  1  6
  8 10  1  0
  8  9  1  0
 10 11  1  1
 11  5  1  0
 12 10  1  0
 13 12  2  0
 14 12  1  0
 15 22  1  0
 15 14  1  0
 15 16  1  6
 17 18  2  0
 17 16  1  0
 19 18  1  0
 20 21  2  0
 20 19  1  0
 21 17  1  0
 22 24  1  0
 23 22  2  0
M  END
$$$$
