SVH.pdb
     RDKit          3D

 24 24  0  0  1  0  0  0  0  0999 V2000
   26.3568  -14.0296  -16.2291 O   0  0  0  0  0  0  0  0  0  0  0  0
   25.7861  -12.7820  -16.0626 C   0  0  0  0  0  0  0  0  0  0  0  0
   26.3162  -11.8874  -17.1688 C   0  0  2  0  0  0  0  0  0  0  0  0
   27.7329  -11.7379  -17.1574 N   0  0  0  0  0  0  0  0  0  0  0  0
   25.7005  -10.5155  -16.9813 C   0  0  0  0  0  0  0  0  0  0  0  0
   26.3126   -9.7921  -16.1856 O   0  0  0  0  0  0  0  0  0  0  0  0
   25.0609   -7.7045  -19.4412 C   0  0  0  0  0  0  0  0  0  0  0  0
   23.7309   -8.1179  -18.8484 C   0  0  2  0  0  0  0  0  0  0  0  0
   22.8068   -6.9585  -18.8928 C   0  0  0  0  0  0  0  0  0  0  0  0
   23.8052   -8.9094  -17.5899 C   0  0  2  0  0  0  0  0  0  0  0  0
   24.5638  -10.1388  -17.6494 N   0  0  0  0  0  0  0  0  0  0  0  0
   22.5569   -9.0843  -16.8388 C   0  0  0  0  0  0  0  0  0  0  0  0
   21.6464   -9.8132  -17.3853 O   0  0  0  0  0  0  0  0  0  0  0  0
   22.2352   -8.5555  -15.5902 N   0  0  0  0  0  0  0  0  0  0  0  0
   20.9530   -8.7020  -14.9313 C   0  0  1  0  0  0  0  0  0  0  0  0
   21.2744   -8.9336  -13.4477 C   0  0  0  0  0  0  0  0  0  0  0  0
   20.0263   -9.1213  -12.6711 C   0  0  0  0  0  0  0  0  0  0  0  0
   18.7374   -9.1969  -13.1546 C   0  0  0  0  0  0  0  0  0  0  0  0
   17.8612   -9.3705  -12.1341 N   0  0  0  0  0  0  0  0  0  0  0  0
   18.6016   -9.4035  -11.0138 C   0  0  0  0  0  0  0  0  0  0  0  0
   19.8970   -9.2539  -11.3392 N   0  0  0  0  0  0  0  0  0  0  0  0
   20.0552   -7.5708  -15.1114 C   0  0  0  0  0  0  0  0  0  0  0  0
   20.4964   -6.4040  -15.1303 O   0  0  0  0  0  0  0  0  0  0  0  0
   18.6956   -7.7567  -15.2653 O   0  0  0  0  0  0  0  0  0  0  0  0
  2  1  1  0
  2  3  1  0
  3  4  1  1
  5  3  1  0
  5  6  2  0
  8  7  1  1
  8 10  1  0
  8  9  1  0
 10 11  1  6
 11  5  1  0
 12 10  1  0
 13 12  2  0
 14 12  1  0
 15 22  1  0
 15 14  1  0
 15 16  1  1
 17 18  2  0
 17 16  1  0
 19 18  1  0
 20 21  2  0
 20 19  1  0
 21 17  1  0
 22 24  1  0
 23 22  2  0
M  END
$$$$
