SVH.pdb
     RDKit          3D

 24 24  0  0  1  0  0  0  0  0999 V2000
   24.3207  -14.8035  -21.0818 O   0  0  0  0  0  0  0  0  0  0  0  0
   23.9801  -14.1729  -19.9002 C   0  0  0  0  0  0  0  0  0  0  0  0
   25.0444  -14.5207  -18.8750 C   0  0  2  0  0  0  0  0  0  0  0  0
   25.0722  -15.9005  -18.5213 N   0  0  0  0  0  0  0  0  0  0  0  0
   24.7485  -13.7232  -17.6208 C   0  0  0  0  0  0  0  0  0  0  0  0
   23.8971  -14.2376  -16.8848 O   0  0  0  0  0  0  0  0  0  0  0  0
   27.4513  -10.3533  -16.1107 C   0  0  0  0  0  0  0  0  0  0  0  0
   26.5178  -11.3590  -15.4718 C   0  0  2  0  0  0  0  0  0  0  0  0
   27.3169  -12.5087  -14.9818 C   0  0  0  0  0  0  0  0  0  0  0  0
   25.2655  -11.6436  -16.2244 C   0  0  2  0  0  0  0  0  0  0  0  0
   25.3853  -12.5386  -17.3536 N   0  0  0  0  0  0  0  0  0  0  0  0
   24.4010  -10.4994  -16.5354 C   0  0  0  0  0  0  0  0  0  0  0  0
   24.7892   -9.7174  -17.4822 O   0  0  0  0  0  0  0  0  0  0  0  0
   23.1955  -10.1552  -15.9269 N   0  0  0  0  0  0  0  0  0  0  0  0
   22.4013   -8.9891  -16.2575 C   0  0  1  0  0  0  0  0  0  0  0  0
   20.9486   -9.4826  -16.3216 C   0  0  0  0  0  0  0  0  0  0  0  0
   20.0518   -8.3938  -16.7757 C   0  0  0  0  0  0  0  0  0  0  0  0
   20.4117   -7.1700  -17.2987 C   0  0  0  0  0  0  0  0  0  0  0  0
   19.3067   -6.4418  -17.5958 N   0  0  0  0  0  0  0  0  0  0  0  0
   18.2573   -7.2096  -17.2592 C   0  0  0  0  0  0  0  0  0  0  0  0
   18.7071   -8.3773  -16.7685 N   0  0  0  0  0  0  0  0  0  0  0  0
   22.5469   -7.8820  -15.3242 C   0  0  0  0  0  0  0  0  0  0  0  0
   22.6762   -8.0924  -14.1013 O   0  0  0  0  0  0  0  0  0  0  0  0
   22.5455   -6.5731  -15.7643 O   0  0  0  0  0  0  0  0  0  0  0  0
  2  1  1  0
  2  3  1  0
  3  4  1  1
  5  3  1  0
  5  6  2  0
  8  7  1  6
  8 10  1  0
  8  9  1  0
 10 11  1  6
 11  5  1  0
 12 10  1  0
 13 12  2  0
 14 12  1  0
 15 22  1  0
 15 14  1  0
 15 16  1  1
 17 18  2  0
 17 16  1  0
 19 18  1  0
 20 21  2  0
 20 19  1  0
 21 17  1  0
 22 24  1  0
 23 22  2  0
M  END
$$$$
