SVH.pdb
     RDKit          3D

 24 24  0  0  1  0  0  0  0  0999 V2000
   16.3876  -13.1558  -17.5136 O   0  0  0  0  0  0  0  0  0  0  0  0
   16.9130  -12.4556  -16.4442 C   0  0  0  0  0  0  0  0  0  0  0  0
   18.4220  -12.4362  -16.6095 C   0  0  2  0  0  0  0  0  0  0  0  0
   19.0214  -13.7279  -16.5650 N   0  0  0  0  0  0  0  0  0  0  0  0
   18.9956  -11.6159  -15.4718 C   0  0  0  0  0  0  0  0  0  0  0  0
   19.2459  -12.2718  -14.4529 O   0  0  0  0  0  0  0  0  0  0  0  0
   22.1066   -9.2076  -15.4512 C   0  0  0  0  0  0  0  0  0  0  0  0
   20.8454   -8.4599  -15.0748 C   0  0  2  0  0  0  0  0  0  0  0  0
   21.2144   -7.2898  -14.2411 C   0  0  0  0  0  0  0  0  0  0  0  0
   19.7034   -9.3058  -14.6323 C   0  0  2  0  0  0  0  0  0  0  0  0
   19.2071  -10.2664  -15.5921 N   0  0  0  0  0  0  0  0  0  0  0  0
   18.6053   -8.6290  -13.9328 C   0  0  0  0  0  0  0  0  0  0  0  0
   17.7432   -8.0113  -14.6636 O   0  0  0  0  0  0  0  0  0  0  0  0
   18.3771   -8.5767  -12.5591 N   0  0  0  0  0  0  0  0  0  0  0  0
   17.3514   -7.7795  -11.9171 C   0  0  1  0  0  0  0  0  0  0  0  0
   17.1701   -8.3871  -10.5185 C   0  0  0  0  0  0  0  0  0  0  0  0
   16.1660   -7.6179   -9.7464 C   0  0  0  0  0  0  0  0  0  0  0  0
   15.4026   -6.5557  -10.1819 C   0  0  0  0  0  0  0  0  0  0  0  0
   14.5979   -6.1137   -9.1836 N   0  0  0  0  0  0  0  0  0  0  0  0
   14.8580   -6.8988   -8.1252 C   0  0  0  0  0  0  0  0  0  0  0  0
   15.7971   -7.7980   -8.4658 N   0  0  0  0  0  0  0  0  0  0  0  0
   17.6562   -6.3582  -11.8447 C   0  0  0  0  0  0  0  0  0  0  0  0
   18.7937   -5.9665  -11.5144 O   0  0  0  0  0  0  0  0  0  0  0  0
   16.6986   -5.4076  -12.1381 O   0  0  0  0  0  0  0  0  0  0  0  0
  2  1  1  0
  2  3  1  0
  3  4  1  1
  5  3  1  0
  5  6  2  0
  8  7  1  1
  8 10  1  0
  8  9  1  0
 10 11  1  6
 11  5  1  0
 12 10  1  0
 13 12  2  0
 14 12  1  0
 15 22  1  0
 15 14  1  0
 15 16  1  1
 17 18  2  0
 17 16  1  0
 19 18  1  0
 20 21  2  0
 20 19  1  0
 21 17  1  0
 22 24  1  0
 23 22  2  0
M  END
$$$$
