SVH.pdb
     RDKit          3D

 24 24  0  0  1  0  0  0  0  0999 V2000
   15.2836  -15.4110  -10.5559 O   0  0  0  0  0  0  0  0  0  0  0  0
   15.3202  -14.1359  -11.0878 C   0  0  0  0  0  0  0  0  0  0  0  0
   14.0686  -13.4128  -10.6240 C   0  0  2  0  0  0  0  0  0  0  0  0
   12.8590  -13.9917  -11.1053 N   0  0  0  0  0  0  0  0  0  0  0  0
   14.1440  -11.9908  -11.1423 C   0  0  0  0  0  0  0  0  0  0  0  0
   13.7232  -11.8517  -12.2976 O   0  0  0  0  0  0  0  0  0  0  0  0
   12.5377   -8.9096   -9.5345 C   0  0  0  0  0  0  0  0  0  0  0  0
   14.0207   -8.6523   -9.6941 C   0  0  2  0  0  0  0  0  0  0  0  0
   14.2418   -7.1906   -9.8159 C   0  0  0  0  0  0  0  0  0  0  0  0
   14.7316   -9.5519  -10.6433 C   0  0  2  0  0  0  0  0  0  0  0  0
   14.6405  -10.9695  -10.3737 N   0  0  0  0  0  0  0  0  0  0  0  0
   16.0922   -9.1659  -11.0343 C   0  0  0  0  0  0  0  0  0  0  0  0
   16.9950   -9.2073  -10.1166 O   0  0  0  0  0  0  0  0  0  0  0  0
   16.5318   -8.7600  -12.2928 N   0  0  0  0  0  0  0  0  0  0  0  0
   17.8680   -8.2866  -12.5932 C   0  0  1  0  0  0  0  0  0  0  0  0
   18.4506   -9.2980  -13.5911 C   0  0  0  0  0  0  0  0  0  0  0  0
   19.8301   -8.9133  -13.9718 C   0  0  0  0  0  0  0  0  0  0  0  0
   20.5735   -7.8579  -13.4880 C   0  0  0  0  0  0  0  0  0  0  0  0
   21.7931   -7.8302  -14.0808 N   0  0  0  0  0  0  0  0  0  0  0  0
   21.8121   -8.8674  -14.9340 C   0  0  0  0  0  0  0  0  0  0  0  0
   20.6354   -9.5134  -14.8662 N   0  0  0  0  0  0  0  0  0  0  0  0
   17.9181   -6.9305  -13.1190 C   0  0  0  0  0  0  0  0  0  0  0  0
   18.7167   -6.0944  -12.6502 O   0  0  0  0  0  0  0  0  0  0  0  0
   17.0864   -6.5330  -14.1472 O   0  0  0  0  0  0  0  0  0  0  0  0
  2  1  1  0
  2  3  1  0
  3  4  1  6
  5  3  1  0
  5  6  2  0
  8  7  1  6
  8 10  1  0
  8  9  1  0
 10 11  1  1
 11  5  1  0
 12 10  1  0
 13 12  2  0
 14 12  1  0
 15 22  1  0
 15 14  1  0
 15 16  1  6
 17 18  2  0
 17 16  1  0
 19 18  1  0
 20 21  2  0
 20 19  1  0
 21 17  1  0
 22 24  1  0
 23 22  2  0
M  END
$$$$
