SVH.pdb
     RDKit          3D

 24 24  0  0  1  0  0  0  0  0999 V2000
   27.4257  -35.9600  -14.8791 O   0  0  0  0  0  0  0  0  0  0  0  0
   27.2322  -35.3557  -13.6514 C   0  0  0  0  0  0  0  0  0  0  0  0
   26.5637  -34.0162  -13.9034 C   0  0  2  0  0  0  0  0  0  0  0  0
   27.3195  -33.1454  -14.7401 N   0  0  0  0  0  0  0  0  0  0  0  0
   26.3850  -33.3353  -12.5614 C   0  0  0  0  0  0  0  0  0  0  0  0
   27.1818  -32.4116  -12.3541 O   0  0  0  0  0  0  0  0  0  0  0  0
   22.8970  -32.1143  -11.2599 C   0  0  0  0  0  0  0  0  0  0  0  0
   23.5812  -32.9349  -10.1877 C   0  0  2  0  0  0  0  0  0  0  0  0
   23.1354  -32.4509   -8.8582 C   0  0  0  0  0  0  0  0  0  0  0  0
   25.0345  -33.1811  -10.3947 C   0  0  2  0  0  0  0  0  0  0  0  0
   25.4156  -33.7315  -11.6762 N   0  0  0  0  0  0  0  0  0  0  0  0
   25.7641  -33.8238   -9.2957 C   0  0  0  0  0  0  0  0  0  0  0  0
   25.9370  -35.0974   -9.3787 O   0  0  0  0  0  0  0  0  0  0  0  0
   26.3023  -33.2161   -8.1630 N   0  0  0  0  0  0  0  0  0  0  0  0
   27.0250  -33.9067   -7.1139 C   0  0  1  0  0  0  0  0  0  0  0  0
   28.4472  -33.3281   -7.1413 C   0  0  0  0  0  0  0  0  0  0  0  0
   29.3164  -34.0461   -6.1796 C   0  0  0  0  0  0  0  0  0  0  0  0
   29.9395  -35.2634   -6.3547 C   0  0  0  0  0  0  0  0  0  0  0  0
   30.6498  -35.5923   -5.2470 N   0  0  0  0  0  0  0  0  0  0  0  0
   30.4709  -34.5816   -4.3805 C   0  0  0  0  0  0  0  0  0  0  0  0
   29.6722  -33.6580   -4.9422 N   0  0  0  0  0  0  0  0  0  0  0  0
   26.4254  -33.7834   -5.7935 C   0  0  0  0  0  0  0  0  0  0  0  0
   25.5568  -32.9171   -5.5665 O   0  0  0  0  0  0  0  0  0  0  0  0
   26.7999  -34.6183   -4.7594 O   0  0  0  0  0  0  0  0  0  0  0  0
  2  1  1  0
  2  3  1  0
  3  4  1  6
  5  3  1  0
  5  6  2  0
  8  7  1  6
  8 10  1  0
  8  9  1  0
 10 11  1  6
 11  5  1  0
 12 10  1  0
 13 12  2  0
 14 12  1  0
 15 22  1  0
 15 14  1  0
 15 16  1  1
 17 18  2  0
 17 16  1  0
 19 18  1  0
 20 21  2  0
 20 19  1  0
 21 17  1  0
 22 24  1  0
 23 22  2  0
M  END
$$$$
