SVH.pdb
     RDKit          3D

 24 24  0  0  1  0  0  0  0  0999 V2000
   15.1531  -21.1871  -10.3220 O   0  0  0  0  0  0  0  0  0  0  0  0
   14.8194  -22.5271  -10.2679 C   0  0  0  0  0  0  0  0  0  0  0  0
   16.0767  -23.3221  -10.5712 C   0  0  2  0  0  0  0  0  0  0  0  0
   16.2031  -23.6970  -11.9399 N   0  0  0  0  0  0  0  0  0  0  0  0
   16.0263  -24.5900   -9.7427 C   0  0  0  0  0  0  0  0  0  0  0  0
   15.3514  -25.4962  -10.2473 O   0  0  0  0  0  0  0  0  0  0  0  0
   18.6580  -27.0158   -8.9380 C   0  0  0  0  0  0  0  0  0  0  0  0
   18.1646  -26.4696   -7.6153 C   0  0  2  0  0  0  0  0  0  0  0  0
   18.4305  -27.4724   -6.5551 C   0  0  0  0  0  0  0  0  0  0  0  0
   16.8266  -25.8182   -7.6467 C   0  0  2  0  0  0  0  0  0  0  0  0
   16.6821  -24.6928   -8.5428 N   0  0  0  0  0  0  0  0  0  0  0  0
   16.1802  -25.5623   -6.3545 C   0  0  0  0  0  0  0  0  0  0  0  0
   16.6111  -24.5547   -5.6779 O   0  0  0  0  0  0  0  0  0  0  0  0
   15.1423  -26.2824   -5.7662 N   0  0  0  0  0  0  0  0  0  0  0  0
   14.5907  -26.0213   -4.4519 C   0  0  1  0  0  0  0  0  0  0  0  0
   13.1842  -26.6375   -4.4637 C   0  0  0  0  0  0  0  0  0  0  0  0
   12.5068  -26.4055   -3.1662 C   0  0  0  0  0  0  0  0  0  0  0  0
   12.4956  -25.2479   -2.4177 C   0  0  0  0  0  0  0  0  0  0  0  0
   11.7672  -25.4252   -1.2874 N   0  0  0  0  0  0  0  0  0  0  0  0
   11.3234  -26.6923   -1.3295 C   0  0  0  0  0  0  0  0  0  0  0  0
   11.7682  -27.2760   -2.4555 N   0  0  0  0  0  0  0  0  0  0  0  0
   15.3907  -26.5417   -3.3532 C   0  0  0  0  0  0  0  0  0  0  0  0
   15.9813  -27.6357   -3.4574 O   0  0  0  0  0  0  0  0  0  0  0  0
   15.5177  -25.8420   -2.1695 O   0  0  0  0  0  0  0  0  0  0  0  0
  2  1  1  0
  2  3  1  0
  3  4  1  6
  5  3  1  0
  5  6  2  0
  8  7  1  6
  8 10  1  0
  8  9  1  0
 10 11  1  1
 11  5  1  0
 12 10  1  0
 13 12  2  0
 14 12  1  0
 15 22  1  0
 15 14  1  0
 15 16  1  6
 17 18  2  0
 17 16  1  0
 19 18  1  0
 20 21  2  0
 20 19  1  0
 21 17  1  0
 22 24  1  0
 23 22  2  0
M  END
$$$$
