SVH.pdb
     RDKit          3D

 24 24  0  0  1  0  0  0  0  0999 V2000
   25.7155  -29.5013  -15.8284 O   0  0  0  0  0  0  0  0  0  0  0  0
   26.5061  -28.6134  -16.5330 C   0  0  0  0  0  0  0  0  0  0  0  0
   25.7686  -27.2874  -16.5830 C   0  0  2  0  0  0  0  0  0  0  0  0
   24.5250  -27.3475  -17.2755 N   0  0  0  0  0  0  0  0  0  0  0  0
   26.6584  -26.2968  -17.3064 C   0  0  0  0  0  0  0  0  0  0  0  0
   26.4714  -26.2494  -18.5287 O   0  0  0  0  0  0  0  0  0  0  0  0
   26.9245  -22.5710  -16.9373 C   0  0  0  0  0  0  0  0  0  0  0  0
   28.2976  -23.1467  -16.6644 C   0  0  2  0  0  0  0  0  0  0  0  0
   29.3198  -22.1289  -17.0101 C   0  0  0  0  0  0  0  0  0  0  0  0
   28.5132  -24.5446  -17.1278 C   0  0  2  0  0  0  0  0  0  0  0  0
   27.5805  -25.5342  -16.6366 N   0  0  0  0  0  0  0  0  0  0  0  0
   29.8913  -25.0482  -17.1061 C   0  0  0  0  0  0  0  0  0  0  0  0
   30.4622  -25.1313  -15.9546 O   0  0  0  0  0  0  0  0  0  0  0  0
   30.6642  -25.4560  -18.1916 N   0  0  0  0  0  0  0  0  0  0  0  0
   32.0322  -25.9263  -18.1074 C   0  0  1  0  0  0  0  0  0  0  0  0
   32.1097  -27.1428  -19.0412 C   0  0  0  0  0  0  0  0  0  0  0  0
   33.4921  -27.6749  -19.0841 C   0  0  0  0  0  0  0  0  0  0  0  0
   34.0656  -28.5974  -18.2352 C   0  0  0  0  0  0  0  0  0  0  0  0
   35.3524  -28.8316  -18.5946 N   0  0  0  0  0  0  0  0  0  0  0  0
   35.5827  -28.0564  -19.6670 C   0  0  0  0  0  0  0  0  0  0  0  0
   34.4670  -27.3654  -19.9572 N   0  0  0  0  0  0  0  0  0  0  0  0
   33.0310  -24.9257  -18.4526 C   0  0  0  0  0  0  0  0  0  0  0  0
   34.2123  -25.0461  -18.0698 O   0  0  0  0  0  0  0  0  0  0  0  0
   32.7003  -23.8195  -19.2100 O   0  0  0  0  0  0  0  0  0  0  0  0
  2  1  1  0
  2  3  1  0
  3  4  1  6
  5  3  1  0
  5  6  2  0
  8  7  1  6
  8 10  1  0
  8  9  1  0
 10 11  1  1
 11  5  1  0
 12 10  1  0
 13 12  2  0
 14 12  1  0
 15 22  1  0
 15 14  1  0
 15 16  1  6
 17 18  2  0
 17 16  1  0
 19 18  1  0
 20 21  2  0
 20 19  1  0
 21 17  1  0
 22 24  1  0
 23 22  2  0
M  END
$$$$
