ALE.pdb
     RDKit          3D

 23 22  0  0  1  0  0  0  0  0999 V2000
   24.7689  -25.9490  -15.2087 C   0  0  0  0  0  0  0  0  0  0  0  0
   24.4789  -24.6715  -15.9739 C   0  0  2  0  0  0  0  0  0  0  0  0
   25.7188  -24.2381  -16.5580 N   0  0  0  0  0  0  0  0  0  0  0  0
   23.9982  -23.6650  -14.9603 C   0  0  0  0  0  0  0  0  0  0  0  0
   22.9330  -23.8676  -14.3251 O   0  0  0  0  0  0  0  0  0  0  0  0
   27.7239  -20.9406  -12.0216 C   0  0  0  0  0  0  0  0  0  0  0  0
   26.4086  -21.5242  -12.3696 C   0  0  1  0  0  0  0  0  0  0  0  0
   25.6589  -21.9213  -11.0864 C   0  0  0  0  0  0  0  0  0  0  0  0
   25.4754  -20.7927  -13.2089 C   0  0  0  0  0  0  0  0  0  0  0  0
   24.2591  -21.4511  -13.7328 C   0  0  2  0  0  0  0  0  0  0  0  0
   24.7194  -22.4974  -14.7080 N   0  0  0  0  0  0  0  0  0  0  0  0
   23.3124  -20.6229  -14.4658 C   0  0  0  0  0  0  0  0  0  0  0  0
   23.6957  -19.8271  -15.3972 O   0  0  0  0  0  0  0  0  0  0  0  0
   21.9311  -20.6364  -14.2297 N   0  0  0  0  0  0  0  0  0  0  0  0
   20.9786  -19.7639  -14.9499 C   0  0  1  0  0  0  0  0  0  0  0  0
   19.8833  -20.7058  -15.3621 C   0  0  0  0  0  0  0  0  0  0  0  0
   18.9691  -21.1547  -14.3035 C   0  0  0  0  0  0  0  0  0  0  0  0
   17.8443  -22.0029  -14.6912 C   0  0  0  0  0  0  0  0  0  0  0  0
   17.0664  -22.4505  -13.7860 O   0  0  0  0  0  0  0  0  0  0  0  0
   20.5644  -18.5787  -14.2736 C   0  0  0  0  0  0  0  0  0  0  0  0
   20.0002  -17.5919  -14.7779 O   0  0  0  0  0  0  0  0  0  0  0  0
   17.5764  -22.3477  -15.9882 O   0  0  0  0  0  0  0  0  0  0  0  0
   20.7876  -18.4681  -12.8750 O   0  0  0  0  0  0  0  0  0  0  0  0
  2  1  1  1
  3  2  1  0
  4  5  2  0
  4  2  1  0
  7  6  1  1
  7  8  1  0
  7  9  1  0
 10  9  1  6
 10 11  1  0
 11  4  1  0
 12 13  2  0
 12 10  1  0
 14 12  1  0
 15 16  1  1
 15 14  1  0
 17 18  1  0
 17 16  1  0
 18 19  2  0
 20 15  1  0
 21 20  2  0
 22 18  1  0
 23 20  1  0
M  END
$$$$
