ALE.pdb
     RDKit          3D

 23 22  0  0  1  0  0  0  0  0999 V2000
   18.1366  -11.3226  -18.0210 C   0  0  0  0  0  0  0  0  0  0  0  0
   19.1089  -10.1727  -18.2050 C   0  0  2  0  0  0  0  0  0  0  0  0
   20.0361  -10.5634  -19.2317 N   0  0  0  0  0  0  0  0  0  0  0  0
   19.8257  -10.0034  -16.8899 C   0  0  0  0  0  0  0  0  0  0  0  0
   19.1710   -9.8256  -15.8321 O   0  0  0  0  0  0  0  0  0  0  0  0
   24.2151  -12.9722  -15.7280 C   0  0  0  0  0  0  0  0  0  0  0  0
   23.0287  -12.0997  -15.5755 C   0  0  1  0  0  0  0  0  0  0  0  0
   22.2607  -12.4832  -14.2989 C   0  0  0  0  0  0  0  0  0  0  0  0
   23.1704  -10.6540  -15.5793 C   0  0  0  0  0  0  0  0  0  0  0  0
   21.9770   -9.7810  -15.5489 C   0  0  2  0  0  0  0  0  0  0  0  0
   21.2188  -10.0403  -16.8199 N   0  0  0  0  0  0  0  0  0  0  0  0
   22.2003   -8.3428  -15.5134 C   0  0  0  0  0  0  0  0  0  0  0  0
   22.5424   -7.6893  -16.5639 O   0  0  0  0  0  0  0  0  0  0  0  0
   22.0493   -7.5668  -14.3563 N   0  0  0  0  0  0  0  0  0  0  0  0
   22.1704   -6.0928  -14.3491 C   0  0  1  0  0  0  0  0  0  0  0  0
   21.0940   -5.6481  -15.2981 C   0  0  0  0  0  0  0  0  0  0  0  0
   19.7141   -5.6972  -14.7968 C   0  0  0  0  0  0  0  0  0  0  0  0
   18.6599   -5.1602  -15.6542 C   0  0  0  0  0  0  0  0  0  0  0  0
   18.9774   -4.6463  -16.7767 O   0  0  0  0  0  0  0  0  0  0  0  0
   22.1790   -5.4610  -13.0707 C   0  0  0  0  0  0  0  0  0  0  0  0
   22.4660   -4.2757  -12.8276 O   0  0  0  0  0  0  0  0  0  0  0  0
   17.3343   -5.1785  -15.3148 O   0  0  0  0  0  0  0  0  0  0  0  0
   21.8202   -6.2186  -11.9237 O   0  0  0  0  0  0  0  0  0  0  0  0
  2  1  1  1
  3  2  1  0
  4  5  2  0
  4  2  1  0
  7  6  1  1
  7  8  1  0
  7  9  1  0
 10  9  1  6
 10 11  1  0
 11  4  1  0
 12 13  2  0
 12 10  1  0
 14 12  1  0
 15 16  1  6
 15 14  1  0
 17 18  1  0
 17 16  1  0
 18 19  2  0
 20 15  1  0
 21 20  2  0
 22 18  1  0
 23 20  1  0
M  END
$$$$
