ALE.pdb
     RDKit          3D

 23 22  0  0  1  0  0  0  0  0999 V2000
   28.2872  -19.6979  -15.2963 C   0  0  0  0  0  0  0  0  0  0  0  0
   26.8904  -19.1302  -15.4643 C   0  0  2  0  0  0  0  0  0  0  0  0
   26.8760  -17.8453  -14.8200 N   0  0  0  0  0  0  0  0  0  0  0  0
   25.9550  -20.0790  -14.7599 C   0  0  0  0  0  0  0  0  0  0  0  0
   25.8168  -21.2562  -15.1775 O   0  0  0  0  0  0  0  0  0  0  0  0
   26.1249  -20.4197   -9.3809 C   0  0  0  0  0  0  0  0  0  0  0  0
   25.8501  -20.7467  -10.7985 C   0  0  1  0  0  0  0  0  0  0  0  0
   25.9922  -22.2623  -11.0205 C   0  0  0  0  0  0  0  0  0  0  0  0
   24.6068  -20.3308  -11.4241 C   0  0  0  0  0  0  0  0  0  0  0  0
   24.3540  -20.6100  -12.8543 C   0  0  2  0  0  0  0  0  0  0  0  0
   25.2292  -19.6741  -13.6390 N   0  0  0  0  0  0  0  0  0  0  0  0
   23.0031  -20.3906  -13.3507 C   0  0  0  0  0  0  0  0  0  0  0  0
   22.4361  -19.2417  -13.2719 O   0  0  0  0  0  0  0  0  0  0  0  0
   22.2315  -21.3914  -13.9562 N   0  0  0  0  0  0  0  0  0  0  0  0
   20.8383  -21.1788  -14.4048 C   0  0  1  0  0  0  0  0  0  0  0  0
   20.7117  -22.0849  -15.5964 C   0  0  0  0  0  0  0  0  0  0  0  0
   19.4036  -22.1142  -16.2641 C   0  0  0  0  0  0  0  0  0  0  0  0
   19.2372  -23.0261  -17.3935 C   0  0  0  0  0  0  0  0  0  0  0  0
   18.7905  -22.5693  -18.4966 O   0  0  0  0  0  0  0  0  0  0  0  0
   19.8233  -21.3047  -13.4111 C   0  0  0  0  0  0  0  0  0  0  0  0
   19.8234  -22.0823  -12.4406 O   0  0  0  0  0  0  0  0  0  0  0  0
   19.5378  -24.3597  -17.3321 O   0  0  0  0  0  0  0  0  0  0  0  0
   18.6759  -20.4705  -13.4867 O   0  0  0  0  0  0  0  0  0  0  0  0
  2  1  1  1
  3  2  1  0
  4  5  2  0
  4  2  1  0
  7  6  1  1
  7  8  1  0
  7  9  1  0
 10  9  1  1
 10 11  1  0
 11  4  1  0
 12 13  2  0
 12 10  1  0
 14 12  1  0
 15 16  1  6
 15 14  1  0
 17 18  1  0
 17 16  1  0
 18 19  2  0
 20 15  1  0
 21 20  2  0
 22 18  1  0
 23 20  1  0
M  END
$$$$
