ALE.pdb
     RDKit          3D

 23 22  0  0  1  0  0  0  0  0999 V2000
   27.9461  -21.0788  -15.8241 C   0  0  0  0  0  0  0  0  0  0  0  0
   26.4653  -20.7647  -15.7248 C   0  0  2  0  0  0  0  0  0  0  0  0
   26.3401  -19.3341  -15.6594 N   0  0  0  0  0  0  0  0  0  0  0  0
   25.9796  -21.3913  -14.4429 C   0  0  0  0  0  0  0  0  0  0  0  0
   25.9208  -22.6418  -14.3339 O   0  0  0  0  0  0  0  0  0  0  0  0
   26.1087  -21.8424   -8.8475 C   0  0  0  0  0  0  0  0  0  0  0  0
   25.4654  -20.7349   -9.5901 C   0  0  1  0  0  0  0  0  0  0  0  0
   25.6556  -19.4144   -8.8241 C   0  0  0  0  0  0  0  0  0  0  0  0
   25.8044  -20.4834  -10.9800 C   0  0  0  0  0  0  0  0  0  0  0  0
   25.0894  -21.1853  -12.0678 C   0  0  2  0  0  0  0  0  0  0  0  0
   25.5886  -20.6031  -13.3599 N   0  0  0  0  0  0  0  0  0  0  0  0
   23.6404  -21.0508  -12.1124 C   0  0  0  0  0  0  0  0  0  0  0  0
   22.8940  -21.5009  -11.1701 O   0  0  0  0  0  0  0  0  0  0  0  0
   22.9559  -20.4189  -13.1593 N   0  0  0  0  0  0  0  0  0  0  0  0
   21.4814  -20.3222  -13.2199 C   0  0  1  0  0  0  0  0  0  0  0  0
   21.2405  -19.3216  -14.3143 C   0  0  0  0  0  0  0  0  0  0  0  0
   22.0007  -19.5106  -15.5569 C   0  0  0  0  0  0  0  0  0  0  0  0
   21.7073  -18.6176  -16.6757 C   0  0  0  0  0  0  0  0  0  0  0  0
   20.7859  -17.7463  -16.5465 O   0  0  0  0  0  0  0  0  0  0  0  0
   20.7666  -21.5516  -13.3264 C   0  0  0  0  0  0  0  0  0  0  0  0
   21.2228  -22.6491  -13.6923 O   0  0  0  0  0  0  0  0  0  0  0  0
   22.3751  -18.6655  -17.8693 O   0  0  0  0  0  0  0  0  0  0  0  0
   19.3891  -21.5815  -12.9805 O   0  0  0  0  0  0  0  0  0  0  0  0
  2  1  1  1
  3  2  1  0
  4  5  2  0
  4  2  1  0
  7  6  1  1
  7  8  1  0
  7  9  1  0
 10  9  1  1
 10 11  1  0
 11  4  1  0
 12 13  2  0
 12 10  1  0
 14 12  1  0
 15 16  1  6
 15 14  1  0
 17 18  1  0
 17 16  1  0
 18 19  2  0
 20 15  1  0
 21 20  2  0
 22 18  1  0
 23 20  1  0
M  END
$$$$
