ALE.pdb
     RDKit          3D

 23 22  0  0  1  0  0  0  0  0999 V2000
   29.1345  -20.5216  -13.1702 C   0  0  0  0  0  0  0  0  0  0  0  0
   27.6512  -20.2039  -13.1903 C   0  0  2  0  0  0  0  0  0  0  0  0
   27.5254  -18.7720  -13.1754 N   0  0  0  0  0  0  0  0  0  0  0  0
   27.0700  -20.7930  -11.9307 C   0  0  0  0  0  0  0  0  0  0  0  0
   27.0698  -22.0377  -11.7572 O   0  0  0  0  0  0  0  0  0  0  0  0
   27.6321  -18.5665   -6.7793 C   0  0  0  0  0  0  0  0  0  0  0  0
   27.3859  -19.5612   -7.8479 C   0  0  1  0  0  0  0  0  0  0  0  0
   27.5335  -20.9832   -7.2799 C   0  0  0  0  0  0  0  0  0  0  0  0
   26.1551  -19.5270   -8.6186 C   0  0  0  0  0  0  0  0  0  0  0  0
   25.9063  -20.5225   -9.6837 C   0  0  2  0  0  0  0  0  0  0  0  0
   26.5247  -19.9763  -10.9394 N   0  0  0  0  0  0  0  0  0  0  0  0
   24.5196  -20.8079  -10.0228 C   0  0  0  0  0  0  0  0  0  0  0  0
   23.7163  -21.3416   -9.1757 O   0  0  0  0  0  0  0  0  0  0  0  0
   23.9548  -20.5161  -11.2717 N   0  0  0  0  0  0  0  0  0  0  0  0
   22.5438  -20.8036  -11.6087 C   0  0  1  0  0  0  0  0  0  0  0  0
   22.1091  -19.5827  -12.3684 C   0  0  0  0  0  0  0  0  0  0  0  0
   20.7080  -19.5461  -12.8079 C   0  0  0  0  0  0  0  0  0  0  0  0
   20.2800  -18.4097  -13.6208 C   0  0  0  0  0  0  0  0  0  0  0  0
   21.1448  -17.5436  -13.9771 O   0  0  0  0  0  0  0  0  0  0  0  0
   22.2817  -22.0577  -12.2350 C   0  0  0  0  0  0  0  0  0  0  0  0
   23.0922  -22.7595  -12.8651 O   0  0  0  0  0  0  0  0  0  0  0  0
   18.9864  -18.2213  -14.0255 O   0  0  0  0  0  0  0  0  0  0  0  0
   20.9763  -22.6118  -12.1512 O   0  0  0  0  0  0  0  0  0  0  0  0
  2  1  1  1
  3  2  1  0
  4  5  2  0
  4  2  1  0
  7  6  1  1
  7  8  1  0
  7  9  1  0
 10  9  1  1
 10 11  1  0
 11  4  1  0
 12 13  2  0
 12 10  1  0
 14 12  1  0
 15 16  1  6
 15 14  1  0
 17 18  1  0
 17 16  1  0
 18 19  2  0
 20 15  1  0
 21 20  2  0
 22 18  1  0
 23 20  1  0
M  END
$$$$
