ALE.pdb
     RDKit          3D

 23 22  0  0  1  0  0  0  0  0999 V2000
   27.1336  -17.7896  -16.8835 C   0  0  0  0  0  0  0  0  0  0  0  0
   27.8700  -18.9500  -16.2412 C   0  0  2  0  0  0  0  0  0  0  0  0
   28.3913  -19.7617  -17.3069 N   0  0  0  0  0  0  0  0  0  0  0  0
   26.8456  -19.7215  -15.4493 C   0  0  0  0  0  0  0  0  0  0  0  0
   26.0313  -20.4772  -16.0367 O   0  0  0  0  0  0  0  0  0  0  0  0
   25.0941  -22.3287  -10.7158 C   0  0  0  0  0  0  0  0  0  0  0  0
   25.4624  -20.8956  -10.7649 C   0  0  1  0  0  0  0  0  0  0  0  0
   26.1367  -20.4854   -9.4445 C   0  0  0  0  0  0  0  0  0  0  0  0
   26.2810  -20.3807  -11.8488 C   0  0  0  0  0  0  0  0  0  0  0  0
   25.7621  -20.3474  -13.2333 C   0  0  2  0  0  0  0  0  0  0  0  0
   26.7805  -19.6140  -14.0596 N   0  0  0  0  0  0  0  0  0  0  0  0
   24.5022  -19.6539  -13.4597 C   0  0  0  0  0  0  0  0  0  0  0  0
   24.4007  -18.3817  -13.3217 O   0  0  0  0  0  0  0  0  0  0  0  0
   23.3239  -20.3027  -13.8527 N   0  0  0  0  0  0  0  0  0  0  0  0
   21.9892  -19.6698  -13.7812 C   0  0  1  0  0  0  0  0  0  0  0  0
   21.6553  -19.3924  -15.2194 C   0  0  0  0  0  0  0  0  0  0  0  0
   21.5054  -20.5609  -16.0967 C   0  0  0  0  0  0  0  0  0  0  0  0
   21.1221  -20.3228  -17.4865 C   0  0  0  0  0  0  0  0  0  0  0  0
   20.8690  -19.1315  -17.8628 O   0  0  0  0  0  0  0  0  0  0  0  0
   20.9953  -20.3632  -13.0295 C   0  0  0  0  0  0  0  0  0  0  0  0
   21.0602  -21.5314  -12.6083 O   0  0  0  0  0  0  0  0  0  0  0  0
   21.0184  -21.3201  -18.4179 O   0  0  0  0  0  0  0  0  0  0  0  0
   19.7906  -19.6903  -12.6919 O   0  0  0  0  0  0  0  0  0  0  0  0
  2  1  1  6
  3  2  1  0
  4  5  2  0
  4  2  1  0
  7  6  1  6
  7  8  1  0
  7  9  1  0
 10  9  1  1
 10 11  1  0
 11  4  1  0
 12 13  2  0
 12 10  1  0
 14 12  1  0
 15 16  1  6
 15 14  1  0
 17 18  1  0
 17 16  1  0
 18 19  2  0
 20 15  1  0
 21 20  2  0
 22 18  1  0
 23 20  1  0
M  END
$$$$
