VWG.pdb
     RDKit          3D

 26 27  0  0  1  0  0  0  0  0999 V2000
   28.1554  -18.1253  -15.4060 C   0  0  0  0  0  0  0  0  0  0  0  0
   27.1975  -18.9681  -14.6022 C   0  0  1  0  0  0  0  0  0  0  0  0
   26.0000  -19.4200  -15.3852 C   0  0  0  0  0  0  0  0  0  0  0  0
   27.9323  -20.0865  -13.9300 C   0  0  2  0  0  0  0  0  0  0  0  0
   28.4611  -21.0746  -14.8231 N   0  0  0  0  0  0  0  0  0  0  0  0
   27.0018  -20.7471  -12.9724 C   0  0  0  0  0  0  0  0  0  0  0  0
   26.4891  -21.8691  -13.2198 O   0  0  0  0  0  0  0  0  0  0  0  0
   26.6631  -20.1323  -11.7498 N   0  0  0  0  0  0  0  0  0  0  0  0
   25.7166  -20.6800  -10.7987 C   0  0  1  0  0  0  0  0  0  0  0  0
   26.0002  -20.0617   -9.4546 C   0  0  0  0  0  0  0  0  0  0  0  0
   27.2955  -20.5246   -8.8921 C   0  0  0  0  0  0  0  0  0  0  0  0
   28.1841  -21.3552   -9.5395 C   0  0  0  0  0  0  0  0  0  0  0  0
   29.2555  -21.5627   -8.7255 N   0  0  0  0  0  0  0  0  0  0  0  0
   29.0981  -20.9001   -7.5753 C   0  0  0  0  0  0  0  0  0  0  0  0
   29.8335  -20.7396   -6.4103 C   0  0  0  0  0  0  0  0  0  0  0  0
   29.3862  -19.9654   -5.3712 C   0  0  0  0  0  0  0  0  0  0  0  0
   28.1705  -19.3132   -5.4577 C   0  0  0  0  0  0  0  0  0  0  0  0
   27.4408  -19.4734   -6.6154 C   0  0  0  0  0  0  0  0  0  0  0  0
   27.8694  -20.2459   -7.6726 C   0  0  0  0  0  0  0  0  0  0  0  0
   24.3642  -20.3904  -11.3016 C   0  0  0  0  0  0  0  0  0  0  0  0
   24.1366  -19.2284  -11.7257 O   0  0  0  0  0  0  0  0  0  0  0  0
   23.3157  -21.3450  -11.3318 N   0  0  0  0  0  0  0  0  0  0  0  0
   21.9401  -21.0375  -11.5534 C   0  0  0  0  0  0  0  0  0  0  0  0
   21.4664  -21.7406  -12.7629 C   0  0  0  0  0  0  0  0  0  0  0  0
   20.1101  -21.9824  -12.9019 O   0  0  0  0  0  0  0  0  0  0  0  0
   22.2191  -22.1319  -13.6724 O   0  0  0  0  0  0  0  0  0  0  0  0
  2  1  1  6
  2  4  1  0
  3  2  1  0
  4  5  1  6
  6  8  1  0
  6  4  1  0
  7  6  2  0
  9  8  1  0
 10 11  1  0
  9 10  1  1
 11 12  2  0
 11 19  1  0
 12 13  1  0
 13 14  1  0
 14 15  2  0
 15 16  1  0
 17 16  2  0
 18 17  1  0
 19 18  2  0
 19 14  1  0
 20  9  1  0
 20 22  1  0
 21 20  2  0
 23 22  1  0
 24 23  1  0
 25 24  1  0
 26 24  2  0
M  END
$$$$
