VWG.pdb
     RDKit          3D

 26 27  0  0  1  0  0  0  0  0999 V2000
   29.4033  -20.0196  -14.1284 C   0  0  0  0  0  0  0  0  0  0  0  0
   28.3766  -18.9978  -13.7092 C   0  0  1  0  0  0  0  0  0  0  0  0
   28.7329  -17.5963  -14.1094 C   0  0  0  0  0  0  0  0  0  0  0  0
   27.0124  -19.4220  -14.1582 C   0  0  2  0  0  0  0  0  0  0  0  0
   25.9773  -18.4629  -13.9084 N   0  0  0  0  0  0  0  0  0  0  0  0
   26.6691  -20.6964  -13.4674 C   0  0  0  0  0  0  0  0  0  0  0  0
   27.3670  -21.7332  -13.6125 O   0  0  0  0  0  0  0  0  0  0  0  0
   25.5435  -20.7828  -12.6230 N   0  0  0  0  0  0  0  0  0  0  0  0
   24.9201  -22.0286  -12.2233 C   0  0  1  0  0  0  0  0  0  0  0  0
   24.8952  -22.0720  -10.7177 C   0  0  0  0  0  0  0  0  0  0  0  0
   25.6515  -20.9428  -10.1166 C   0  0  0  0  0  0  0  0  0  0  0  0
   25.1280  -19.6964   -9.8505 C   0  0  0  0  0  0  0  0  0  0  0  0
   26.1057  -18.9234   -9.3026 N   0  0  0  0  0  0  0  0  0  0  0  0
   27.2433  -19.6180   -9.2023 C   0  0  0  0  0  0  0  0  0  0  0  0
   28.5261  -19.3659   -8.7393 C   0  0  0  0  0  0  0  0  0  0  0  0
   29.5094  -20.3205   -8.7711 C   0  0  0  0  0  0  0  0  0  0  0  0
   29.2447  -21.5807   -9.2737 C   0  0  0  0  0  0  0  0  0  0  0  0
   27.9701  -21.8301   -9.7334 C   0  0  0  0  0  0  0  0  0  0  0  0
   26.9658  -20.8872   -9.7117 C   0  0  0  0  0  0  0  0  0  0  0  0
   23.5807  -22.0698  -12.8315 C   0  0  0  0  0  0  0  0  0  0  0  0
   22.8715  -23.0849  -12.6108 O   0  0  0  0  0  0  0  0  0  0  0  0
   23.0546  -21.0341  -13.6451 N   0  0  0  0  0  0  0  0  0  0  0  0
   21.8737  -21.1418  -14.4388 C   0  0  0  0  0  0  0  0  0  0  0  0
   20.6912  -20.8411  -13.6065 C   0  0  0  0  0  0  0  0  0  0  0  0
   19.4904  -20.5594  -14.2360 O   0  0  0  0  0  0  0  0  0  0  0  0
   20.7089  -20.8258  -12.3629 O   0  0  0  0  0  0  0  0  0  0  0  0
  2  1  1  6
  2  4  1  0
  3  2  1  0
  4  5  1  1
  6  8  1  0
  6  4  1  0
  7  6  2  0
  9  8  1  0
 10 11  1  0
  9 10  1  1
 11 12  2  0
 11 19  1  0
 12 13  1  0
 13 14  1  0
 14 15  2  0
 15 16  1  0
 17 16  2  0
 18 17  1  0
 19 18  2  0
 19 14  1  0
 20  9  1  0
 20 22  1  0
 21 20  2  0
 23 22  1  0
 24 23  1  0
 25 24  1  0
 26 24  2  0
M  END
$$$$
