VWG.pdb
     RDKit          3D

 26 27  0  0  1  0  0  0  0  0999 V2000
   28.2360  -20.5122  -16.1181 C   0  0  0  0  0  0  0  0  0  0  0  0
   27.9662  -21.0051  -14.7187 C   0  0  1  0  0  0  0  0  0  0  0  0
   29.1607  -20.9164  -13.8151 C   0  0  0  0  0  0  0  0  0  0  0  0
   26.7434  -20.3420  -14.1643 C   0  0  2  0  0  0  0  0  0  0  0  0
   26.8368  -18.9163  -14.0523 N   0  0  0  0  0  0  0  0  0  0  0  0
   26.4708  -20.9170  -12.8173 C   0  0  0  0  0  0  0  0  0  0  0  0
   26.2644  -22.1476  -12.6558 O   0  0  0  0  0  0  0  0  0  0  0  0
   26.4349  -20.0954  -11.6722 N   0  0  0  0  0  0  0  0  0  0  0  0
   26.1064  -20.5679  -10.3421 C   0  0  1  0  0  0  0  0  0  0  0  0
   27.1077  -19.9810   -9.3817 C   0  0  0  0  0  0  0  0  0  0  0  0
   26.8196  -20.3649   -7.9752 C   0  0  0  0  0  0  0  0  0  0  0  0
   25.7132  -21.0750   -7.5628 C   0  0  0  0  0  0  0  0  0  0  0  0
   25.7835  -21.2424   -6.2135 N   0  0  0  0  0  0  0  0  0  0  0  0
   26.8915  -20.6693   -5.7332 C   0  0  0  0  0  0  0  0  0  0  0  0
   27.4748  -20.5226   -4.4834 C   0  0  0  0  0  0  0  0  0  0  0  0
   28.6607  -19.8573   -4.3100 C   0  0  0  0  0  0  0  0  0  0  0  0
   29.3180  -19.3057   -5.3938 C   0  0  0  0  0  0  0  0  0  0  0  0
   28.7377  -19.4519   -6.6348 C   0  0  0  0  0  0  0  0  0  0  0  0
   27.5471  -20.1160   -6.8337 C   0  0  0  0  0  0  0  0  0  0  0  0
   24.7194  -20.1661  -10.0584 C   0  0  0  0  0  0  0  0  0  0  0  0
   24.5417  -19.1994   -9.2736 O   0  0  0  0  0  0  0  0  0  0  0  0
   23.5851  -20.8070  -10.6189 N   0  0  0  0  0  0  0  0  0  0  0  0
   22.2303  -20.4673  -10.3271 C   0  0  0  0  0  0  0  0  0  0  0  0
   21.3260  -21.2971  -11.1488 C   0  0  0  0  0  0  0  0  0  0  0  0
   20.1921  -20.7113  -11.6858 O   0  0  0  0  0  0  0  0  0  0  0  0
   21.5236  -22.5011  -11.3901 O   0  0  0  0  0  0  0  0  0  0  0  0
  2  1  1  6
  2  4  1  0
  3  2  1  0
  4  5  1  1
  6  8  1  0
  6  4  1  0
  7  6  2  0
  9  8  1  0
 10 11  1  0
  9 10  1  1
 11 12  2  0
 11 19  1  0
 12 13  1  0
 13 14  1  0
 14 15  2  0
 15 16  1  0
 17 16  2  0
 18 17  1  0
 19 18  2  0
 19 14  1  0
 20  9  1  0
 20 22  1  0
 21 20  2  0
 23 22  1  0
 24 23  1  0
 25 24  1  0
 26 24  2  0
M  END
$$$$
