VWG.pdb
     RDKit          3D

 26 27  0  0  1  0  0  0  0  0999 V2000
   24.8540  -19.1942  -14.6704 C   0  0  0  0  0  0  0  0  0  0  0  0
   24.5651  -19.9506  -13.3983 C   0  0  1  0  0  0  0  0  0  0  0  0
   23.5547  -21.0459  -13.5728 C   0  0  0  0  0  0  0  0  0  0  0  0
   25.8439  -20.4082  -12.7676 C   0  0  2  0  0  0  0  0  0  0  0  0
   26.5957  -21.3418  -13.5530 N   0  0  0  0  0  0  0  0  0  0  0  0
   25.5195  -21.0309  -11.4537 C   0  0  0  0  0  0  0  0  0  0  0  0
   25.2647  -22.2588  -11.3516 O   0  0  0  0  0  0  0  0  0  0  0  0
   25.4872  -20.2594  -10.2742 N   0  0  0  0  0  0  0  0  0  0  0  0
   25.0779  -20.7682   -8.9804 C   0  0  1  0  0  0  0  0  0  0  0  0
   25.7091  -19.9025   -7.9214 C   0  0  0  0  0  0  0  0  0  0  0  0
   27.1445  -20.2294   -7.7192 C   0  0  0  0  0  0  0  0  0  0  0  0
   27.9179  -20.9588   -8.5958 C   0  0  0  0  0  0  0  0  0  0  0  0
   29.1764  -21.0566   -8.0858 N   0  0  0  0  0  0  0  0  0  0  0  0
   29.2513  -20.4198   -6.9129 C   0  0  0  0  0  0  0  0  0  0  0  0
   30.2389  -20.1887   -5.9669 C   0  0  0  0  0  0  0  0  0  0  0  0
   29.9954  -19.4709   -4.8247 C   0  0  0  0  0  0  0  0  0  0  0  0
   28.7386  -18.9497   -4.5808 C   0  0  0  0  0  0  0  0  0  0  0  0
   27.7582  -19.1800   -5.5211 C   0  0  0  0  0  0  0  0  0  0  0  0
   27.9790  -19.8979   -6.6761 C   0  0  0  0  0  0  0  0  0  0  0  0
   23.6067  -20.7569   -8.9442 C   0  0  0  0  0  0  0  0  0  0  0  0
   23.0039  -20.2341   -9.9165 O   0  0  0  0  0  0  0  0  0  0  0  0
   22.8425  -21.2996   -7.8799 N   0  0  0  0  0  0  0  0  0  0  0  0
   22.1014  -22.5171   -7.9473 C   0  0  0  0  0  0  0  0  0  0  0  0
   20.8162  -22.2747   -8.6336 C   0  0  0  0  0  0  0  0  0  0  0  0
   19.9410  -23.3350   -8.7982 O   0  0  0  0  0  0  0  0  0  0  0  0
   20.4694  -21.1653   -9.0765 O   0  0  0  0  0  0  0  0  0  0  0  0
  2  1  1  6
  2  4  1  0
  3  2  1  0
  4  5  1  6
  6  8  1  0
  6  4  1  0
  7  6  2  0
  9  8  1  0
 10 11  1  0
  9 10  1  1
 11 12  2  0
 11 19  1  0
 12 13  1  0
 13 14  1  0
 14 15  2  0
 15 16  1  0
 17 16  2  0
 18 17  1  0
 19 18  2  0
 19 14  1  0
 20  9  1  0
 20 22  1  0
 21 20  2  0
 23 22  1  0
 24 23  1  0
 25 24  1  0
 26 24  2  0
M  END
$$$$
