VWG.pdb
     RDKit          3D

 26 27  0  0  1  0  0  0  0  0999 V2000
   28.3021  -18.2740  -15.6452 C   0  0  0  0  0  0  0  0  0  0  0  0
   27.3860  -18.9017  -14.6250 C   0  0  1  0  0  0  0  0  0  0  0  0
   25.9304  -18.7302  -14.9458 C   0  0  0  0  0  0  0  0  0  0  0  0
   27.7833  -20.3246  -14.3802 C   0  0  2  0  0  0  0  0  0  0  0  0
   27.5108  -21.2157  -15.4689 N   0  0  0  0  0  0  0  0  0  0  0  0
   27.0654  -20.8074  -13.1674 C   0  0  0  0  0  0  0  0  0  0  0  0
   26.0444  -21.5375  -13.2532 O   0  0  0  0  0  0  0  0  0  0  0  0
   27.5098  -20.4595  -11.8755 N   0  0  0  0  0  0  0  0  0  0  0  0
   26.8612  -20.8832  -10.6507 C   0  0  1  0  0  0  0  0  0  0  0  0
   27.8119  -20.6270   -9.5105 C   0  0  0  0  0  0  0  0  0  0  0  0
   27.1218  -20.6548   -8.1947 C   0  0  0  0  0  0  0  0  0  0  0  0
   25.8657  -21.1764   -7.9743 C   0  0  0  0  0  0  0  0  0  0  0  0
   25.5610  -21.0308   -6.6554 N   0  0  0  0  0  0  0  0  0  0  0  0
   26.5691  -20.4354   -6.0104 C   0  0  0  0  0  0  0  0  0  0  0  0
   26.8210  -20.0415   -4.7047 C   0  0  0  0  0  0  0  0  0  0  0  0
   27.9953  -19.4329   -4.3444 C   0  0  0  0  0  0  0  0  0  0  0  0
   28.9761  -19.1915   -5.2881 C   0  0  0  0  0  0  0  0  0  0  0  0
   28.7248  -19.5832   -6.5849 C   0  0  0  0  0  0  0  0  0  0  0  0
   27.5529  -20.1962   -6.9707 C   0  0  0  0  0  0  0  0  0  0  0  0
   25.5975  -20.1376  -10.5368 C   0  0  0  0  0  0  0  0  0  0  0  0
   25.6498  -18.9696  -10.0730 O   0  0  0  0  0  0  0  0  0  0  0  0
   24.3372  -20.6636  -10.9193 N   0  0  0  0  0  0  0  0  0  0  0  0
   23.1235  -19.9151  -10.9707 C   0  0  0  0  0  0  0  0  0  0  0  0
   22.0336  -20.7004  -10.3566 C   0  0  0  0  0  0  0  0  0  0  0  0
   22.3026  -21.9908   -9.9324 O   0  0  0  0  0  0  0  0  0  0  0  0
   20.8784  -20.2684  -10.1958 O   0  0  0  0  0  0  0  0  0  0  0  0
  2  1  1  6
  2  4  1  0
  3  2  1  0
  4  5  1  6
  6  8  1  0
  6  4  1  0
  7  6  2  0
  9  8  1  0
 10 11  1  0
  9 10  1  1
 11 12  2  0
 11 19  1  0
 12 13  1  0
 13 14  1  0
 14 15  2  0
 15 16  1  0
 17 16  2  0
 18 17  1  0
 19 18  2  0
 19 14  1  0
 20  9  1  0
 20 22  1  0
 21 20  2  0
 23 22  1  0
 24 23  1  0
 25 24  1  0
 26 24  2  0
M  END
$$$$
