VWG.pdb
     RDKit          3D

 26 27  0  0  1  0  0  0  0  0999 V2000
   20.3164  -31.3960  -12.0012 C   0  0  0  0  0  0  0  0  0  0  0  0
   20.5442  -30.0393  -11.3835 C   0  0  1  0  0  0  0  0  0  0  0  0
   20.9212  -28.9854  -12.3827 C   0  0  0  0  0  0  0  0  0  0  0  0
   19.3784  -29.6613  -10.5229 C   0  0  2  0  0  0  0  0  0  0  0  0
   18.1291  -29.5670  -11.2188 N   0  0  0  0  0  0  0  0  0  0  0  0
   19.6768  -28.3495   -9.8830 C   0  0  0  0  0  0  0  0  0  0  0  0
   20.7186  -28.1713   -9.2004 O   0  0  0  0  0  0  0  0  0  0  0  0
   18.7955  -27.2580  -10.0222 N   0  0  0  0  0  0  0  0  0  0  0  0
   19.0453  -25.9368   -9.4814 C   0  0  1  0  0  0  0  0  0  0  0  0
   18.5541  -24.9254  -10.4839 C   0  0  0  0  0  0  0  0  0  0  0  0
   19.4245  -24.8674  -11.6869 C   0  0  0  0  0  0  0  0  0  0  0  0
   20.4178  -25.7744  -11.9856 C   0  0  0  0  0  0  0  0  0  0  0  0
   21.0021  -25.4069  -13.1591 N   0  0  0  0  0  0  0  0  0  0  0  0
   20.4279  -24.2974  -13.6345 C   0  0  0  0  0  0  0  0  0  0  0  0
   20.5946  -23.4896  -14.7495 C   0  0  0  0  0  0  0  0  0  0  0  0
   19.8194  -22.3794  -14.9634 C   0  0  0  0  0  0  0  0  0  0  0  0
   18.8345  -22.0294  -14.0588 C   0  0  0  0  0  0  0  0  0  0  0  0
   18.6698  -22.8325  -12.9515 C   0  0  0  0  0  0  0  0  0  0  0  0
   19.4363  -23.9527  -12.7152 C   0  0  0  0  0  0  0  0  0  0  0  0
   18.3596  -25.8523   -8.1819 C   0  0  0  0  0  0  0  0  0  0  0  0
   17.3041  -26.5204   -8.0354 O   0  0  0  0  0  0  0  0  0  0  0  0
   18.8237  -25.0640   -7.0981 N   0  0  0  0  0  0  0  0  0  0  0  0
   18.1700  -24.9501   -5.8349 C   0  0  0  0  0  0  0  0  0  0  0  0
   16.9374  -24.1508   -5.9880 C   0  0  0  0  0  0  0  0  0  0  0  0
   16.1718  -23.8893   -4.8643 O   0  0  0  0  0  0  0  0  0  0  0  0
   16.5422  -23.6940   -7.0753 O   0  0  0  0  0  0  0  0  0  0  0  0
  2  1  1  6
  2  4  1  0
  3  2  1  0
  4  5  1  6
  6  8  1  0
  6  4  1  0
  7  6  2  0
  9  8  1  0
 10 11  1  0
  9 10  1  6
 11 12  2  0
 11 19  1  0
 12 13  1  0
 13 14  1  0
 14 15  2  0
 15 16  1  0
 17 16  2  0
 18 17  1  0
 19 18  2  0
 19 14  1  0
 20  9  1  0
 20 22  1  0
 21 20  2  0
 23 22  1  0
 24 23  1  0
 25 24  1  0
 26 24  2  0
M  END
$$$$
