VWG.pdb
     RDKit          3D

 26 27  0  0  1  0  0  0  0  0999 V2000
   26.6425  -19.3033  -13.5704 C   0  0  0  0  0  0  0  0  0  0  0  0
   28.0441  -19.8594  -13.5902 C   0  0  1  0  0  0  0  0  0  0  0  0
   28.9631  -19.1258  -14.5221 C   0  0  0  0  0  0  0  0  0  0  0  0
   28.5730  -19.9768  -12.1942 C   0  0  2  0  0  0  0  0  0  0  0  0
   29.8463  -20.6263  -12.0915 N   0  0  0  0  0  0  0  0  0  0  0  0
   27.5781  -20.7293  -11.3799 C   0  0  0  0  0  0  0  0  0  0  0  0
   27.6830  -21.9689  -11.1920 O   0  0  0  0  0  0  0  0  0  0  0  0
   26.4792  -20.0724  -10.7897 N   0  0  0  0  0  0  0  0  0  0  0  0
   25.4857  -20.7301   -9.9646 C   0  0  1  0  0  0  0  0  0  0  0  0
   25.2124  -19.8465   -8.7755 C   0  0  0  0  0  0  0  0  0  0  0  0
   26.4385  -19.6000   -7.9728 C   0  0  0  0  0  0  0  0  0  0  0  0
   27.3098  -18.5504   -8.1666 C   0  0  0  0  0  0  0  0  0  0  0  0
   28.3122  -18.6439   -7.2500 N   0  0  0  0  0  0  0  0  0  0  0  0
   28.1267  -19.7125   -6.4687 C   0  0  0  0  0  0  0  0  0  0  0  0
   28.7954  -20.2936   -5.4016 C   0  0  0  0  0  0  0  0  0  0  0  0
   28.3347  -21.4300   -4.7889 C   0  0  0  0  0  0  0  0  0  0  0  0
   27.1721  -22.0374   -5.2252 C   0  0  0  0  0  0  0  0  0  0  0  0
   26.5086  -21.4594   -6.2853 C   0  0  0  0  0  0  0  0  0  0  0  0
   26.9520  -20.3180   -6.9168 C   0  0  0  0  0  0  0  0  0  0  0  0
   24.2990  -20.9663  -10.8022 C   0  0  0  0  0  0  0  0  0  0  0  0
   23.8609  -20.0001  -11.4779 O   0  0  0  0  0  0  0  0  0  0  0  0
   23.6313  -22.2149  -10.8852 N   0  0  0  0  0  0  0  0  0  0  0  0
   22.5699  -22.5125  -11.7911 C   0  0  0  0  0  0  0  0  0  0  0  0
   21.3183  -21.8984  -11.3030 C   0  0  0  0  0  0  0  0  0  0  0  0
   20.1565  -22.6514  -11.3256 O   0  0  0  0  0  0  0  0  0  0  0  0
   21.2446  -20.7353  -10.8686 O   0  0  0  0  0  0  0  0  0  0  0  0
  2  1  1  1
  2  4  1  0
  3  2  1  0
  4  5  1  6
  6  8  1  0
  6  4  1  0
  7  6  2  0
  9  8  1  0
 10 11  1  0
  9 10  1  1
 11 12  2  0
 11 19  1  0
 12 13  1  0
 13 14  1  0
 14 15  2  0
 15 16  1  0
 17 16  2  0
 18 17  1  0
 19 18  2  0
 19 14  1  0
 20  9  1  0
 20 22  1  0
 21 20  2  0
 23 22  1  0
 24 23  1  0
 25 24  1  0
 26 24  2  0
M  END
$$$$
