VWG.pdb
     RDKit          3D

 26 27  0  0  1  0  0  0  0  0999 V2000
   18.9993  -11.6002  -17.7690 C   0  0  0  0  0  0  0  0  0  0  0  0
   20.2081  -12.4585  -18.0447 C   0  0  1  0  0  0  0  0  0  0  0  0
   19.9890  -13.4630  -19.1375 C   0  0  0  0  0  0  0  0  0  0  0  0
   21.4159  -11.5981  -18.2533 C   0  0  2  0  0  0  0  0  0  0  0  0
   22.6531  -12.3167  -18.3356 N   0  0  0  0  0  0  0  0  0  0  0  0
   21.4950  -10.6243  -17.1287 C   0  0  0  0  0  0  0  0  0  0  0  0
   22.0762  -10.9094  -16.0499 O   0  0  0  0  0  0  0  0  0  0  0  0
   20.9171   -9.3430  -17.2375 N   0  0  0  0  0  0  0  0  0  0  0  0
   20.9488   -8.3446  -16.1875 C   0  0  1  0  0  0  0  0  0  0  0  0
   21.7102   -7.1521  -16.7049 C   0  0  0  0  0  0  0  0  0  0  0  0
   21.7749   -6.0566  -15.7029 C   0  0  0  0  0  0  0  0  0  0  0  0
   22.6186   -6.0333  -14.6139 C   0  0  0  0  0  0  0  0  0  0  0  0
   22.4026   -4.8804  -13.9226 N   0  0  0  0  0  0  0  0  0  0  0  0
   21.4522   -4.1541  -14.5193 C   0  0  0  0  0  0  0  0  0  0  0  0
   20.8351   -2.9348  -14.2823 C   0  0  0  0  0  0  0  0  0  0  0  0
   19.8588   -2.4431  -15.1095 C   0  0  0  0  0  0  0  0  0  0  0  0
   19.4565   -3.1608  -16.2202 C   0  0  0  0  0  0  0  0  0  0  0  0
   20.0700   -4.3719  -16.4547 C   0  0  0  0  0  0  0  0  0  0  0  0
   21.0531   -4.8865  -15.6380 C   0  0  0  0  0  0  0  0  0  0  0  0
   19.5560   -8.0365  -15.8257 C   0  0  0  0  0  0  0  0  0  0  0  0
   18.7378   -7.8512  -16.7629 O   0  0  0  0  0  0  0  0  0  0  0  0
   19.0944   -7.9390  -14.4882 N   0  0  0  0  0  0  0  0  0  0  0  0
   17.7393   -7.7025  -14.1091 C   0  0  0  0  0  0  0  0  0  0  0  0
   17.3929   -6.2910  -14.3725 C   0  0  0  0  0  0  0  0  0  0  0  0
   16.1934   -5.7997  -13.8855 O   0  0  0  0  0  0  0  0  0  0  0  0
   18.1204   -5.5099  -15.0109 O   0  0  0  0  0  0  0  0  0  0  0  0
  2  1  1  6
  2  4  1  0
  3  2  1  0
  4  5  1  1
  6  8  1  0
  6  4  1  0
  7  6  2  0
  9  8  1  0
 10 11  1  0
  9 10  1  6
 11 12  2  0
 11 19  1  0
 12 13  1  0
 13 14  1  0
 14 15  2  0
 15 16  1  0
 17 16  2  0
 18 17  1  0
 19 18  2  0
 19 14  1  0
 20  9  1  0
 20 22  1  0
 21 20  2  0
 23 22  1  0
 24 23  1  0
 25 24  1  0
 26 24  2  0
M  END
$$$$
