ACG.pdb
     RDKit          3D

 16 15  0  0  1  0  0  0  0  0999 V2000
   18.2782  -11.0004  -17.1454 C   0  0  0  0  0  0  0  0  0  0  0  0
   19.5988  -11.7115  -17.1117 C   0  0  2  0  0  0  0  0  0  0  0  0
   19.4687  -13.1028  -16.7308 N   0  0  0  0  0  0  0  0  0  0  0  0
   20.4992  -10.9700  -16.2073 C   0  0  0  0  0  0  0  0  0  0  0  0
   20.2137  -10.9550  -14.9861 O   0  0  0  0  0  0  0  0  0  0  0  0
   21.6560  -10.2792  -16.6236 N   0  0  0  0  0  0  0  0  0  0  0  0
   22.4446   -9.5872  -15.6641 C   0  0  1  0  0  0  0  0  0  0  0  0
   23.9188   -9.8769  -15.7401 C   0  0  0  0  0  0  0  0  0  0  0  0
   24.1906  -11.4709  -14.9066 S   0  0  0  0  0  0  0  0  0  0  0  0
   22.2944   -8.1076  -15.9047 C   0  0  0  0  0  0  0  0  0  0  0  0
   22.3721   -7.6823  -17.0843 O   0  0  0  0  0  0  0  0  0  0  0  0
   22.0726   -7.1968  -14.8648 N   0  0  0  0  0  0  0  0  0  0  0  0
   21.9475   -5.7909  -15.1426 C   0  0  0  0  0  0  0  0  0  0  0  0
   21.6606   -5.0543  -13.9010 C   0  0  0  0  0  0  0  0  0  0  0  0
   22.7071   -4.6624  -13.0457 O   0  0  0  0  0  0  0  0  0  0  0  0
   20.4744   -4.7725  -13.6009 O   0  0  0  0  0  0  0  0  0  0  0  0
  2  3  1  0
  2  1  1  1
  4  2  1  0
  5  4  2  0
  6  4  1  0
  7  6  1  0
  7  8  1  6
  9  8  1  0
 10  7  1  0
 10 12  1  0
 11 10  2  0
 13 12  1  0
 14 13  1  0
 15 14  1  0
 16 14  2  0
M  END
$$$$
