ACG.pdb
     RDKit          3D

 16 15  0  0  1  0  0  0  0  0999 V2000
   25.0321  -10.9753  -21.0919 C   0  0  0  0  0  0  0  0  0  0  0  0
   25.8895  -11.7820  -20.1619 C   0  0  2  0  0  0  0  0  0  0  0  0
   25.7802  -13.2059  -20.4035 N   0  0  0  0  0  0  0  0  0  0  0  0
   25.5296  -11.4248  -18.7758 C   0  0  0  0  0  0  0  0  0  0  0  0
   24.3940  -11.7626  -18.3642 O   0  0  0  0  0  0  0  0  0  0  0  0
   26.3751  -10.7308  -17.8858 N   0  0  0  0  0  0  0  0  0  0  0  0
   25.9662  -10.5325  -16.5386 C   0  0  1  0  0  0  0  0  0  0  0  0
   27.0680  -10.6714  -15.5238 C   0  0  0  0  0  0  0  0  0  0  0  0
   27.5979  -12.4114  -15.5497 S   0  0  0  0  0  0  0  0  0  0  0  0
   25.4451   -9.1254  -16.4030 C   0  0  0  0  0  0  0  0  0  0  0  0
   26.2242   -8.1722  -16.6535 O   0  0  0  0  0  0  0  0  0  0  0  0
   24.1307   -8.8464  -16.0099 N   0  0  0  0  0  0  0  0  0  0  0  0
   23.7028   -7.4873  -15.8123 C   0  0  0  0  0  0  0  0  0  0  0  0
   22.2624   -7.4499  -15.5116 C   0  0  0  0  0  0  0  0  0  0  0  0
   21.6431   -6.2437  -15.1350 O   0  0  0  0  0  0  0  0  0  0  0  0
   21.5795   -8.5005  -15.5911 O   0  0  0  0  0  0  0  0  0  0  0  0
  2  3  1  0
  2  1  1  6
  4  2  1  0
  5  4  2  0
  6  4  1  0
  7  6  1  0
  7  8  1  1
  9  8  1  0
 10  7  1  0
 10 12  1  0
 11 10  2  0
 13 12  1  0
 14 13  1  0
 15 14  1  0
 16 14  2  0
M  END
$$$$
