ACG.pdb
     RDKit          3D

 16 15  0  0  1  0  0  0  0  0999 V2000
   17.8074  -12.0215  -17.8489 C   0  0  0  0  0  0  0  0  0  0  0  0
   18.9869  -11.7251  -16.9704 C   0  0  2  0  0  0  0  0  0  0  0  0
   19.1766  -12.7272  -15.9419 N   0  0  0  0  0  0  0  0  0  0  0  0
   18.8119  -10.3737  -16.4034 C   0  0  0  0  0  0  0  0  0  0  0  0
   18.6318   -9.4257  -17.2045 O   0  0  0  0  0  0  0  0  0  0  0  0
   18.8337  -10.0782  -15.0247 N   0  0  0  0  0  0  0  0  0  0  0  0
   18.5938   -8.7468  -14.5876 C   0  0  1  0  0  0  0  0  0  0  0  0
   17.5053   -8.6132  -13.5578 C   0  0  0  0  0  0  0  0  0  0  0  0
   15.9446   -9.0717  -14.3719 S   0  0  0  0  0  0  0  0  0  0  0  0
   19.8506   -8.2261  -13.9403 C   0  0  0  0  0  0  0  0  0  0  0  0
   20.5170   -9.0056  -13.2144 O   0  0  0  0  0  0  0  0  0  0  0  0
   20.2979   -6.9115  -14.1192 N   0  0  0  0  0  0  0  0  0  0  0  0
   21.5444   -6.4819  -13.5439 C   0  0  0  0  0  0  0  0  0  0  0  0
   21.8151   -5.0828  -13.9123 C   0  0  0  0  0  0  0  0  0  0  0  0
   22.7848   -4.3366  -13.2172 O   0  0  0  0  0  0  0  0  0  0  0  0
   21.1775   -4.5493  -14.8533 O   0  0  0  0  0  0  0  0  0  0  0  0
  2  3  1  0
  2  1  1  1
  4  2  1  0
  5  4  2  0
  6  4  1  0
  7  6  1  0
  7  8  1  1
  9  8  1  0
 10  7  1  0
 10 12  1  0
 11 10  2  0
 13 12  1  0
 14 13  1  0
 15 14  1  0
 16 14  2  0
M  END
$$$$
