ACG.pdb
     RDKit          3D

 16 15  0  0  1  0  0  0  0  0999 V2000
   21.1879  -18.8590  -14.3446 C   0  0  0  0  0  0  0  0  0  0  0  0
   21.8746  -20.1928  -14.3605 C   0  0  2  0  0  0  0  0  0  0  0  0
   21.1188  -21.2127  -13.6631 N   0  0  0  0  0  0  0  0  0  0  0  0
   23.2280  -20.0218  -13.7971 C   0  0  0  0  0  0  0  0  0  0  0  0
   23.9618  -19.1400  -14.3038 O   0  0  0  0  0  0  0  0  0  0  0  0
   23.7495  -20.7819  -12.7300 N   0  0  0  0  0  0  0  0  0  0  0  0
   25.0995  -20.5924  -12.3264 C   0  0  1  0  0  0  0  0  0  0  0  0
   25.3660  -20.8883  -10.8756 C   0  0  0  0  0  0  0  0  0  0  0  0
   23.7532  -20.9185  -10.0347 S   0  0  0  0  0  0  0  0  0  0  0  0
   25.9677  -21.5386  -13.1143 C   0  0  0  0  0  0  0  0  0  0  0  0
   25.9739  -22.7532  -12.7929 O   0  0  0  0  0  0  0  0  0  0  0  0
   26.7624  -21.1127  -14.1854 N   0  0  0  0  0  0  0  0  0  0  0  0
   27.4811  -22.0692  -14.9841 C   0  0  0  0  0  0  0  0  0  0  0  0
   28.1159  -21.3959  -16.1288 C   0  0  0  0  0  0  0  0  0  0  0  0
   29.1787  -22.0091  -16.8177 O   0  0  0  0  0  0  0  0  0  0  0  0
   27.7077  -20.2664  -16.4949 O   0  0  0  0  0  0  0  0  0  0  0  0
  2  3  1  0
  2  1  1  1
  4  2  1  0
  5  4  2  0
  6  4  1  0
  7  6  1  0
  7  8  1  1
  9  8  1  0
 10  7  1  0
 10 12  1  0
 11 10  2  0
 13 12  1  0
 14 13  1  0
 15 14  1  0
 16 14  2  0
M  END
$$$$
