ACG.pdb
     RDKit          3D

 16 15  0  0  1  0  0  0  0  0999 V2000
   21.9383  -11.7859  -19.0147 C   0  0  0  0  0  0  0  0  0  0  0  0
   23.1200  -12.3474  -18.2804 C   0  0  2  0  0  0  0  0  0  0  0  0
   22.8989  -13.7074  -17.8338 N   0  0  0  0  0  0  0  0  0  0  0  0
   23.4410  -11.4406  -17.1610 C   0  0  0  0  0  0  0  0  0  0  0  0
   22.6836  -11.4596  -16.1615 O   0  0  0  0  0  0  0  0  0  0  0  0
   24.5397  -10.5568  -17.1404 N   0  0  0  0  0  0  0  0  0  0  0  0
   24.7804   -9.7618  -15.9865 C   0  0  1  0  0  0  0  0  0  0  0  0
   26.2328   -9.6028  -15.6284 C   0  0  0  0  0  0  0  0  0  0  0  0
   26.8272  -11.2333  -15.0833 S   0  0  0  0  0  0  0  0  0  0  0  0
   24.2582   -8.3734  -16.2495 C   0  0  0  0  0  0  0  0  0  0  0  0
   24.4298   -7.8757  -17.3903 O   0  0  0  0  0  0  0  0  0  0  0  0
   23.5925   -7.6241  -15.2719 N   0  0  0  0  0  0  0  0  0  0  0  0
   23.0048   -6.3535  -15.6032 C   0  0  0  0  0  0  0  0  0  0  0  0
   22.3271   -5.7880  -14.4253 C   0  0  0  0  0  0  0  0  0  0  0  0
   22.1740   -6.5532  -13.2543 O   0  0  0  0  0  0  0  0  0  0  0  0
   21.8816   -4.6148  -14.4634 O   0  0  0  0  0  0  0  0  0  0  0  0
  2  3  1  0
  2  1  1  1
  4  2  1  0
  5  4  2  0
  6  4  1  0
  7  6  1  0
  7  8  1  6
  9  8  1  0
 10  7  1  0
 10 12  1  0
 11 10  2  0
 13 12  1  0
 14 13  1  0
 15 14  1  0
 16 14  2  0
M  END
$$$$
