ACG.pdb
     RDKit          3D

 16 15  0  0  1  0  0  0  0  0999 V2000
   18.4458   -8.3398  -18.1556 C   0  0  0  0  0  0  0  0  0  0  0  0
   19.2890   -9.4704  -17.6444 C   0  0  2  0  0  0  0  0  0  0  0  0
   18.5150  -10.6689  -17.3942 N   0  0  0  0  0  0  0  0  0  0  0  0
   20.0001   -9.0065  -16.4371 C   0  0  0  0  0  0  0  0  0  0  0  0
   19.3523   -8.9547  -15.3644 O   0  0  0  0  0  0  0  0  0  0  0  0
   21.3556   -8.6187  -16.4095 N   0  0  0  0  0  0  0  0  0  0  0  0
   22.0075   -8.4315  -15.1599 C   0  0  1  0  0  0  0  0  0  0  0  0
   23.3446   -9.1110  -15.0440 C   0  0  0  0  0  0  0  0  0  0  0  0
   23.0199  -10.8661  -14.6929 S   0  0  0  0  0  0  0  0  0  0  0  0
   22.2674   -6.9589  -14.9762 C   0  0  0  0  0  0  0  0  0  0  0  0
   22.7401   -6.3097  -15.9424 O   0  0  0  0  0  0  0  0  0  0  0  0
   22.0016   -6.2941  -13.7731 N   0  0  0  0  0  0  0  0  0  0  0  0
   22.2679   -4.8863  -13.6449 C   0  0  0  0  0  0  0  0  0  0  0  0
   21.0832   -4.1097  -14.0446 C   0  0  0  0  0  0  0  0  0  0  0  0
   21.1081   -2.7030  -14.0135 O   0  0  0  0  0  0  0  0  0  0  0  0
   20.0418   -4.7045  -14.4164 O   0  0  0  0  0  0  0  0  0  0  0  0
  2  3  1  0
  2  1  1  1
  4  2  1  0
  5  4  2  0
  6  4  1  0
  7  6  1  0
  7  8  1  6
  9  8  1  0
 10  7  1  0
 10 12  1  0
 11 10  2  0
 13 12  1  0
 14 13  1  0
 15 14  1  0
 16 14  2  0
M  END
$$$$
