ACG.pdb
     RDKit          3D

 16 15  0  0  1  0  0  0  0  0999 V2000
   17.4099   -8.5950  -17.7112 C   0  0  0  0  0  0  0  0  0  0  0  0
   18.3750   -9.7436  -17.6974 C   0  0  2  0  0  0  0  0  0  0  0  0
   17.7079  -11.0259  -17.6054 N   0  0  0  0  0  0  0  0  0  0  0  0
   19.3277   -9.5325  -16.5901 C   0  0  0  0  0  0  0  0  0  0  0  0
   18.8852   -9.6107  -15.4192 O   0  0  0  0  0  0  0  0  0  0  0  0
   20.6987   -9.2497  -16.7605 N   0  0  0  0  0  0  0  0  0  0  0  0
   21.5292   -9.0840  -15.6185 C   0  0  1  0  0  0  0  0  0  0  0  0
   22.7871   -9.9089  -15.6350 C   0  0  0  0  0  0  0  0  0  0  0  0
   23.6331   -9.6193  -14.0509 S   0  0  0  0  0  0  0  0  0  0  0  0
   21.9713   -7.6451  -15.5579 C   0  0  0  0  0  0  0  0  0  0  0  0
   22.4493   -7.1218  -16.5952 O   0  0  0  0  0  0  0  0  0  0  0  0
   21.8679   -6.8766  -14.3921 N   0  0  0  0  0  0  0  0  0  0  0  0
   22.2673   -5.4946  -14.3934 C   0  0  0  0  0  0  0  0  0  0  0  0
   21.0865   -4.6278  -14.5380 C   0  0  0  0  0  0  0  0  0  0  0  0
   20.2144   -4.4230  -13.4527 O   0  0  0  0  0  0  0  0  0  0  0  0
   20.8538   -4.0661  -15.6365 O   0  0  0  0  0  0  0  0  0  0  0  0
  2  3  1  0
  2  1  1  1
  4  2  1  0
  5  4  2  0
  6  4  1  0
  7  6  1  0
  7  8  1  6
  9  8  1  0
 10  7  1  0
 10 12  1  0
 11 10  2  0
 13 12  1  0
 14 13  1  0
 15 14  1  0
 16 14  2  0
M  END
$$$$
