FQY.pdb
     RDKit          3D

 33 34  0  0  1  0  0  0  0  0999 V2000
    6.4082  -18.9561   20.4042 N   0  0  0  0  0  0  0  0  0  0  0  0
    6.6249  -17.8870   21.3413 C   0  0  1  0  0  0  0  0  0  0  0  0
    6.2572  -18.2642   22.7604 C   0  0  0  0  0  0  0  0  0  0  0  0
    6.4551  -17.1590   23.7078 C   0  0  0  0  0  0  0  0  0  0  0  0
    6.4671  -15.8582   23.2586 C   0  0  0  0  0  0  0  0  0  0  0  0
    6.6554  -14.8002   24.1582 C   0  0  0  0  0  0  0  0  0  0  0  0
    6.8288  -15.0491   25.4883 C   0  0  0  0  0  0  0  0  0  0  0  0
    6.8181  -16.3454   25.9451 C   0  0  0  0  0  0  0  0  0  0  0  0
    6.6307  -17.3956   25.0492 C   0  0  0  0  0  0  0  0  0  0  0  0
    8.0711  -17.5063   21.3546 C   0  0  0  0  0  0  0  0  0  0  0  0
    8.9860  -18.3642   21.3150 O   0  0  0  0  0  0  0  0  0  0  0  0
    8.5161  -12.2936   19.2895 N   0  0  0  0  0  0  0  0  0  0  0  0
    9.1080  -13.4859   18.8136 C   0  0  0  0  0  0  0  0  0  0  0  0
    8.6934  -14.1097   17.8099 O   0  0  0  0  0  0  0  0  0  0  0  0
   10.2829  -14.0240   19.5446 C   0  0  0  0  0  0  0  0  0  0  0  0
    9.8887  -14.3408   20.9417 C   0  0  0  0  0  0  0  0  0  0  0  0
    9.8644  -15.8100   21.2771 C   0  0  2  0  0  0  0  0  0  0  0  0
    8.4334  -16.1393   21.4133 N   0  0  0  0  0  0  0  0  0  0  0  0
   10.5067  -16.0109   22.5961 C   0  0  0  0  0  0  0  0  0  0  0  0
   11.7324  -15.8432   22.8272 O   0  0  0  0  0  0  0  0  0  0  0  0
    7.9026  -10.8205   26.4088 O   0  0  0  0  0  0  0  0  0  0  0  0
    8.2230  -12.1759   26.3138 C   0  0  0  0  0  0  0  0  0  0  0  0
    9.5044  -12.6134   26.5797 C   0  0  0  0  0  0  0  0  0  0  0  0
    9.8566  -13.9652   26.4932 C   0  0  0  0  0  0  0  0  0  0  0  0
    8.9067  -14.8948   26.1335 C   0  0  0  0  0  0  0  0  0  0  0  0
    9.2554  -16.3329   26.0327 C   0  0  0  0  0  0  0  0  0  0  0  0
   10.3386  -16.5856   25.0131 C   0  0  2  0  0  0  0  0  0  0  0  0
    9.7225  -16.4228   23.7115 N   0  0  0  0  0  0  0  0  0  0  0  0
   10.9579  -17.9050   25.0904 C   0  0  0  0  0  0  0  0  0  0  0  0
   11.7758  -18.3122   26.1392 O   0  0  0  0  0  0  0  0  0  0  0  0
    7.6229  -14.4534   25.8675 C   0  0  0  0  0  0  0  0  0  0  0  0
    7.2782  -13.1148   25.9542 C   0  0  0  0  0  0  0  0  0  0  0  0
   10.7646  -18.7453   24.1780 O   0  0  0  0  0  0  0  0  0  0  0  0
  2  1  1  6
  2  3  1  0
  4  9  1  0
  4  3  1  0
  5  4  2  0
  6  7  2  0
  6  5  1  0
  7  8  1  0
  8  9  2  0
 10  2  1  0
 10 11  2  0
 12 13  1  0
 13 15  1  0
 14 13  2  0
 15 16  1  0
 17 16  1  1
 17 18  1  0
 18 10  1  0
 19 17  1  0
 20 19  2  0
 22 23  2  0
 22 21  1  0
 24 23  1  0
 25 24  2  0
 26 25  1  0
 27 26  1  1
 27 28  1  0
 28 19  1  0
 29 27  1  0
 30 29  1  0
 31 25  1  0
 31 32  2  0
 32 22  1  0
 33 29  2  0
M  END
$$$$
