FQY.pdb
     RDKit          3D

 33 34  0  0  1  0  0  0  0  0999 V2000
    7.8250  -18.2783   20.1074 N   0  0  0  0  0  0  0  0  0  0  0  0
    8.5781  -17.2110   20.7090 C   0  0  1  0  0  0  0  0  0  0  0  0
    7.7084  -16.2307   21.4665 C   0  0  0  0  0  0  0  0  0  0  0  0
    7.6551  -14.9102   20.8250 C   0  0  0  0  0  0  0  0  0  0  0  0
    8.3123  -13.8411   21.3898 C   0  0  0  0  0  0  0  0  0  0  0  0
    8.2647  -12.5793   20.7818 C   0  0  0  0  0  0  0  0  0  0  0  0
    7.5664  -12.3981   19.6239 C   0  0  0  0  0  0  0  0  0  0  0  0
    6.9073  -13.4607   19.0533 C   0  0  0  0  0  0  0  0  0  0  0  0
    6.9558  -14.7141   19.6593 C   0  0  0  0  0  0  0  0  0  0  0  0
    9.5587  -17.7694   21.6904 C   0  0  0  0  0  0  0  0  0  0  0  0
    9.2509  -18.6844   22.4920 O   0  0  0  0  0  0  0  0  0  0  0  0
   15.6863  -17.7141   21.5529 N   0  0  0  0  0  0  0  0  0  0  0  0
   14.7603  -17.5526   20.4971 C   0  0  0  0  0  0  0  0  0  0  0  0
   15.0955  -17.4441   19.2952 O   0  0  0  0  0  0  0  0  0  0  0  0
   13.3151  -17.5098   20.8344 C   0  0  0  0  0  0  0  0  0  0  0  0
   13.1570  -17.4645   22.3111 C   0  0  0  0  0  0  0  0  0  0  0  0
   11.7603  -17.7353   22.8089 C   0  0  2  0  0  0  0  0  0  0  0  0
   10.8784  -17.2591   21.7271 N   0  0  0  0  0  0  0  0  0  0  0  0
   11.5077  -16.8998   24.0050 C   0  0  0  0  0  0  0  0  0  0  0  0
   12.0687  -15.7977   24.2385 O   0  0  0  0  0  0  0  0  0  0  0  0
    6.0795  -11.6139   27.7897 O   0  0  0  0  0  0  0  0  0  0  0  0
    6.8698  -12.5283   27.0911 C   0  0  0  0  0  0  0  0  0  0  0  0
    6.2878  -13.4887   26.2893 C   0  0  0  0  0  0  0  0  0  0  0  0
    7.0528  -14.4191   25.5766 C   0  0  0  0  0  0  0  0  0  0  0  0
    8.4261  -14.3858   25.6698 C   0  0  0  0  0  0  0  0  0  0  0  0
    9.2590  -15.3621   24.9261 C   0  0  0  0  0  0  0  0  0  0  0  0
    9.9151  -16.3649   25.8429 C   0  0  2  0  0  0  0  0  0  0  0  0
   10.5726  -17.3331   24.9882 N   0  0  0  0  0  0  0  0  0  0  0  0
    9.0022  -17.0608   26.7444 C   0  0  0  0  0  0  0  0  0  0  0  0
    8.7426  -16.6488   28.0473 O   0  0  0  0  0  0  0  0  0  0  0  0
    9.0070  -13.4219   26.4744 C   0  0  0  0  0  0  0  0  0  0  0  0
    8.2465  -12.5028   27.1781 C   0  0  0  0  0  0  0  0  0  0  0  0
    8.4002  -18.0922   26.3574 O   0  0  0  0  0  0  0  0  0  0  0  0
  2  1  1  1
  2  3  1  0
  4  9  1  0
  4  3  1  0
  5  4  2  0
  6  7  2  0
  6  5  1  0
  7  8  1  0
  8  9  2  0
 10  2  1  0
 10 11  2  0
 12 13  1  0
 13 15  1  0
 14 13  2  0
 15 16  1  0
 17 16  1  6
 17 18  1  0
 18 10  1  0
 19 17  1  0
 20 19  2  0
 22 23  2  0
 22 21  1  0
 24 23  1  0
 25 24  2  0
 26 25  1  0
 27 26  1  6
 27 28  1  0
 28 19  1  0
 29 27  1  0
 30 29  1  0
 31 25  1  0
 31 32  2  0
 32 22  1  0
 33 29  2  0
M  END
$$$$
