FQY.pdb
     RDKit          3D

 33 34  0  0  1  0  0  0  0  0999 V2000
    7.7328  -16.6690   20.3341 N   0  0  0  0  0  0  0  0  0  0  0  0
    7.9871  -15.8126   21.4610 C   0  0  1  0  0  0  0  0  0  0  0  0
    6.7781  -15.6417   22.3556 C   0  0  0  0  0  0  0  0  0  0  0  0
    7.0083  -14.6752   23.4376 C   0  0  0  0  0  0  0  0  0  0  0  0
    6.7694  -15.0323   24.7450 C   0  0  0  0  0  0  0  0  0  0  0  0
    6.9874  -14.1140   25.7810 C   0  0  0  0  0  0  0  0  0  0  0  0
    7.4388  -12.8568   25.5039 C   0  0  0  0  0  0  0  0  0  0  0  0
    7.6798  -12.4921   24.2008 C   0  0  0  0  0  0  0  0  0  0  0  0
    7.4625  -13.4063   23.1725 C   0  0  0  0  0  0  0  0  0  0  0  0
    9.0744  -16.3938   22.3075 C   0  0  0  0  0  0  0  0  0  0  0  0
    8.9656  -17.5196   22.8509 O   0  0  0  0  0  0  0  0  0  0  0  0
   14.7065  -15.2435   20.0648 N   0  0  0  0  0  0  0  0  0  0  0  0
   13.4631  -15.9128   19.9982 C   0  0  0  0  0  0  0  0  0  0  0  0
   13.2510  -16.9039   19.2625 O   0  0  0  0  0  0  0  0  0  0  0  0
   12.3524  -15.4117   20.8464 C   0  0  0  0  0  0  0  0  0  0  0  0
   12.6142  -15.7755   22.2630 C   0  0  0  0  0  0  0  0  0  0  0  0
   11.4503  -16.4082   22.9818 C   0  0  2  0  0  0  0  0  0  0  0  0
   10.2688  -15.6619   22.5105 N   0  0  0  0  0  0  0  0  0  0  0  0
   11.5947  -16.1641   24.4351 C   0  0  0  0  0  0  0  0  0  0  0  0
   12.1693  -15.1637   24.9382 O   0  0  0  0  0  0  0  0  0  0  0  0
    8.0066  -11.5992   27.4805 O   0  0  0  0  0  0  0  0  0  0  0  0
    8.5084  -12.9019   27.4822 C   0  0  0  0  0  0  0  0  0  0  0  0
    9.6060  -13.2291   28.2517 C   0  0  0  0  0  0  0  0  0  0  0  0
   10.1324  -14.5257   28.2747 C   0  0  0  0  0  0  0  0  0  0  0  0
    9.5475  -15.5118   27.5123 C   0  0  0  0  0  0  0  0  0  0  0  0
   10.0877  -16.8931   27.5178 C   0  0  0  0  0  0  0  0  0  0  0  0
   11.3966  -16.9950   26.7740 C   0  0  2  0  0  0  0  0  0  0  0  0
   11.0621  -17.0995   25.3678 N   0  0  0  0  0  0  0  0  0  0  0  0
   12.2319  -18.1296   27.1553 C   0  0  0  0  0  0  0  0  0  0  0  0
   12.3166  -19.3063   26.4185 O   0  0  0  0  0  0  0  0  0  0  0  0
    8.4472  -15.1809   26.7418 C   0  0  0  0  0  0  0  0  0  0  0  0
    7.9292  -13.8967   26.7218 C   0  0  0  0  0  0  0  0  0  0  0  0
   12.9261  -18.0770   28.1999 O   0  0  0  0  0  0  0  0  0  0  0  0
  2  1  1  6
  2  3  1  0
  4  9  1  0
  4  3  1  0
  5  4  2  0
  6  7  2  0
  6  5  1  0
  7  8  1  0
  8  9  2  0
 10  2  1  0
 10 11  2  0
 12 13  1  0
 13 15  1  0
 14 13  2  0
 15 16  1  0
 17 16  1  6
 17 18  1  0
 18 10  1  0
 19 17  1  0
 20 19  2  0
 22 23  2  0
 22 21  1  0
 24 23  1  0
 25 24  2  0
 26 25  1  0
 27 26  1  1
 27 28  1  0
 28 19  1  0
 29 27  1  0
 30 29  1  0
 31 25  1  0
 31 32  2  0
 32 22  1  0
 33 29  2  0
M  END
$$$$
