FQY.pdb
     RDKit          3D

 33 34  0  0  1  0  0  0  0  0999 V2000
    6.0258  -17.2588   25.0043 N   0  0  0  0  0  0  0  0  0  0  0  0
    6.5698  -15.9753   24.6510 C   0  0  1  0  0  0  0  0  0  0  0  0
    7.0202  -15.1751   25.8543 C   0  0  0  0  0  0  0  0  0  0  0  0
    6.4630  -13.8159   25.8693 C   0  0  0  0  0  0  0  0  0  0  0  0
    7.2672  -12.7367   25.5820 C   0  0  0  0  0  0  0  0  0  0  0  0
    6.7407  -11.4380   25.5949 C   0  0  0  0  0  0  0  0  0  0  0  0
    5.4255  -11.2304   25.8924 C   0  0  0  0  0  0  0  0  0  0  0  0
    4.6155  -12.3028   26.1804 C   0  0  0  0  0  0  0  0  0  0  0  0
    5.1409  -13.5929   26.1671 C   0  0  0  0  0  0  0  0  0  0  0  0
    7.7688  -16.1536   23.7751 C   0  0  0  0  0  0  0  0  0  0  0  0
    8.5766  -17.1001   23.9365 O   0  0  0  0  0  0  0  0  0  0  0  0
    8.7831  -12.5767   18.9441 N   0  0  0  0  0  0  0  0  0  0  0  0
    8.0395  -13.7593   18.7275 C   0  0  0  0  0  0  0  0  0  0  0  0
    7.2849  -13.9298   17.7425 O   0  0  0  0  0  0  0  0  0  0  0  0
    8.1618  -14.8549   19.7220 C   0  0  0  0  0  0  0  0  0  0  0  0
    9.1081  -14.4436   20.7911 C   0  0  0  0  0  0  0  0  0  0  0  0
    9.2400  -15.4192   21.9324 C   0  0  2  0  0  0  0  0  0  0  0  0
    8.0120  -15.2333   22.7276 N   0  0  0  0  0  0  0  0  0  0  0  0
   10.3925  -15.0210   22.7723 C   0  0  0  0  0  0  0  0  0  0  0  0
   10.4238  -13.9975   23.5042 O   0  0  0  0  0  0  0  0  0  0  0  0
   10.9598  -14.9962   30.2183 O   0  0  0  0  0  0  0  0  0  0  0  0
   10.9837  -15.4439   28.8963 C   0  0  0  0  0  0  0  0  0  0  0  0
   10.8441  -16.7862   28.6083 C   0  0  0  0  0  0  0  0  0  0  0  0
   10.8638  -17.2659   27.2937 C   0  0  0  0  0  0  0  0  0  0  0  0
   11.0264  -16.3838   26.2491 C   0  0  0  0  0  0  0  0  0  0  0  0
   11.0528  -16.8674   24.8473 C   0  0  0  0  0  0  0  0  0  0  0  0
   12.1596  -16.2279   24.0456 C   0  0  2  0  0  0  0  0  0  0  0  0
   11.5707  -15.8212   22.7854 N   0  0  0  0  0  0  0  0  0  0  0  0
   13.3059  -17.0928   23.7839 C   0  0  0  0  0  0  0  0  0  0  0  0
   14.5216  -16.9840   24.4509 O   0  0  0  0  0  0  0  0  0  0  0  0
   11.1660  -15.0387   26.5407 C   0  0  0  0  0  0  0  0  0  0  0  0
   11.1460  -14.5678   27.8430 C   0  0  0  0  0  0  0  0  0  0  0  0
   13.2274  -17.9960   22.9155 O   0  0  0  0  0  0  0  0  0  0  0  0
  2  1  1  1
  2  3  1  0
  4  9  1  0
  4  3  1  0
  5  4  2  0
  6  7  2  0
  6  5  1  0
  7  8  1  0
  8  9  2  0
 10  2  1  0
 10 11  2  0
 12 13  1  0
 13 15  1  0
 14 13  2  0
 15 16  1  0
 17 16  1  6
 17 18  1  0
 18 10  1  0
 19 17  1  0
 20 19  2  0
 22 23  2  0
 22 21  1  0
 24 23  1  0
 25 24  2  0
 26 25  1  0
 27 26  1  1
 27 28  1  0
 28 19  1  0
 29 27  1  0
 30 29  1  0
 31 25  1  0
 31 32  2  0
 32 22  1  0
 33 29  2  0
M  END
$$$$
