FQY.pdb
     RDKit          3D

 33 34  0  0  1  0  0  0  0  0999 V2000
    7.1318  -18.1024   20.0404 N   0  0  0  0  0  0  0  0  0  0  0  0
    7.9389  -17.2070   20.8247 C   0  0  1  0  0  0  0  0  0  0  0  0
    7.1207  -16.1655   21.5575 C   0  0  0  0  0  0  0  0  0  0  0  0
    7.4135  -14.7981   21.1073 C   0  0  0  0  0  0  0  0  0  0  0  0
    7.7527  -13.8276   22.0222 C   0  0  0  0  0  0  0  0  0  0  0  0
    8.0330  -12.5216   21.5980 C   0  0  0  0  0  0  0  0  0  0  0  0
    7.9724  -12.1992   20.2738 C   0  0  0  0  0  0  0  0  0  0  0  0
    7.6343  -13.1626   19.3536 C   0  0  0  0  0  0  0  0  0  0  0  0
    7.3561  -14.4601   19.7773 C   0  0  0  0  0  0  0  0  0  0  0  0
    8.6917  -17.9765   21.8628 C   0  0  0  0  0  0  0  0  0  0  0  0
    8.5916  -19.2226   21.9711 O   0  0  0  0  0  0  0  0  0  0  0  0
   13.0341  -19.0848   19.7350 N   0  0  0  0  0  0  0  0  0  0  0  0
   13.7258  -18.6278   20.8800 C   0  0  0  0  0  0  0  0  0  0  0  0
   14.9182  -18.2452   20.8594 O   0  0  0  0  0  0  0  0  0  0  0  0
   12.9973  -18.6013   22.1734 C   0  0  0  0  0  0  0  0  0  0  0  0
   11.6325  -18.0555   21.9568 C   0  0  0  0  0  0  0  0  0  0  0  0
   10.7727  -17.9860   23.1927 C   0  0  2  0  0  0  0  0  0  0  0  0
    9.5472  -17.2905   22.7577 N   0  0  0  0  0  0  0  0  0  0  0  0
   11.4480  -17.1349   24.1988 C   0  0  0  0  0  0  0  0  0  0  0  0
   12.3055  -16.2538   23.9298 O   0  0  0  0  0  0  0  0  0  0  0  0
    5.9895  -11.6638   27.1885 O   0  0  0  0  0  0  0  0  0  0  0  0
    6.7956  -12.6999   26.7137 C   0  0  0  0  0  0  0  0  0  0  0  0
    6.2437  -13.9185   26.3755 C   0  0  0  0  0  0  0  0  0  0  0  0
    7.0251  -14.9764   25.8968 C   0  0  0  0  0  0  0  0  0  0  0  0
    8.3844  -14.8092   25.7549 C   0  0  0  0  0  0  0  0  0  0  0  0
    9.2345  -15.9155   25.2517 C   0  0  0  0  0  0  0  0  0  0  0  0
   10.2939  -16.3174   26.2482 C   0  0  2  0  0  0  0  0  0  0  0  0
   11.1378  -17.2880   25.5805 N   0  0  0  0  0  0  0  0  0  0  0  0
    9.7827  -16.8958   27.4870 C   0  0  0  0  0  0  0  0  0  0  0  0
    9.8823  -16.2734   28.7269 O   0  0  0  0  0  0  0  0  0  0  0  0
    8.9351  -13.5864   26.0947 C   0  0  0  0  0  0  0  0  0  0  0  0
    8.1584  -12.5420   26.5680 C   0  0  0  0  0  0  0  0  0  0  0  0
    9.2159  -18.0159   27.4715 O   0  0  0  0  0  0  0  0  0  0  0  0
  2  1  1  1
  2  3  1  0
  4  9  1  0
  4  3  1  0
  5  4  2  0
  6  7  2  0
  6  5  1  0
  7  8  1  0
  8  9  2  0
 10  2  1  0
 10 11  2  0
 12 13  1  0
 13 15  1  0
 14 13  2  0
 15 16  1  0
 17 16  1  6
 17 18  1  0
 18 10  1  0
 19 17  1  0
 20 19  2  0
 22 23  2  0
 22 21  1  0
 24 23  1  0
 25 24  2  0
 26 25  1  0
 27 26  1  6
 27 28  1  0
 28 19  1  0
 29 27  1  0
 30 29  1  0
 31 25  1  0
 31 32  2  0
 32 22  1  0
 33 29  2  0
M  END
$$$$
