FQY.pdb
     RDKit          3D

 33 34  0  0  1  0  0  0  0  0999 V2000
    5.4717  -17.5009   25.0447 N   0  0  0  0  0  0  0  0  0  0  0  0
    6.2695  -16.3594   24.6864 C   0  0  1  0  0  0  0  0  0  0  0  0
    6.8469  -15.6435   25.8886 C   0  0  0  0  0  0  0  0  0  0  0  0
    6.5531  -14.2042   25.8837 C   0  0  0  0  0  0  0  0  0  0  0  0
    5.3380  -13.7458   26.3389 C   0  0  0  0  0  0  0  0  0  0  0  0
    5.0527  -12.3737   26.3363 C   0  0  0  0  0  0  0  0  0  0  0  0
    5.9768  -11.4785   25.8826 C   0  0  0  0  0  0  0  0  0  0  0  0
    7.1928  -11.9280   25.4263 C   0  0  0  0  0  0  0  0  0  0  0  0
    7.4744  -13.2923   25.4296 C   0  0  0  0  0  0  0  0  0  0  0  0
    7.4259  -16.7908   23.8417 C   0  0  0  0  0  0  0  0  0  0  0  0
    8.0571  -17.8512   24.0684 O   0  0  0  0  0  0  0  0  0  0  0  0
   10.3150  -14.3855   17.8140 N   0  0  0  0  0  0  0  0  0  0  0  0
    9.5540  -15.4604   18.3278 C   0  0  0  0  0  0  0  0  0  0  0  0
    8.5851  -15.9723   17.7213 O   0  0  0  0  0  0  0  0  0  0  0  0
    9.9256  -16.0086   19.6565 C   0  0  0  0  0  0  0  0  0  0  0  0
    8.7913  -15.8238   20.5983 C   0  0  0  0  0  0  0  0  0  0  0  0
    8.9823  -16.4542   21.9539 C   0  0  2  0  0  0  0  0  0  0  0  0
    7.8315  -15.9873   22.7493 N   0  0  0  0  0  0  0  0  0  0  0  0
   10.2136  -15.9067   22.5676 C   0  0  0  0  0  0  0  0  0  0  0  0
   10.6252  -14.7273   22.4142 O   0  0  0  0  0  0  0  0  0  0  0  0
   11.0316  -16.6525   30.5086 O   0  0  0  0  0  0  0  0  0  0  0  0
   11.1221  -16.2792   29.1665 C   0  0  0  0  0  0  0  0  0  0  0  0
   11.7411  -15.0994   28.8075 C   0  0  0  0  0  0  0  0  0  0  0  0
   11.8478  -14.6977   27.4711 C   0  0  0  0  0  0  0  0  0  0  0  0
   11.3242  -15.4934   26.4769 C   0  0  0  0  0  0  0  0  0  0  0  0
   11.4226  -15.0889   25.0533 C   0  0  0  0  0  0  0  0  0  0  0  0
   12.0747  -16.1516   24.2037 C   0  0  2  0  0  0  0  0  0  0  0  0
   11.0214  -16.7357   23.3976 N   0  0  0  0  0  0  0  0  0  0  0  0
   12.7488  -17.2075   24.9527 C   0  0  0  0  0  0  0  0  0  0  0  0
   12.3282  -18.5333   24.9642 O   0  0  0  0  0  0  0  0  0  0  0  0
   10.7042  -16.6756   26.8396 C   0  0  0  0  0  0  0  0  0  0  0  0
   10.6007  -17.0698   28.1633 C   0  0  0  0  0  0  0  0  0  0  0  0
   13.7678  -16.9420   25.6362 O   0  0  0  0  0  0  0  0  0  0  0  0
  2  1  1  1
  2  3  1  0
  4  9  1  0
  4  3  1  0
  5  4  2  0
  6  7  2  0
  6  5  1  0
  7  8  1  0
  8  9  2  0
 10  2  1  0
 10 11  2  0
 12 13  1  0
 13 15  1  0
 14 13  2  0
 15 16  1  0
 17 16  1  6
 17 18  1  0
 18 10  1  0
 19 17  1  0
 20 19  2  0
 22 23  2  0
 22 21  1  0
 24 23  1  0
 25 24  2  0
 26 25  1  0
 27 26  1  1
 27 28  1  0
 28 19  1  0
 29 27  1  0
 30 29  1  0
 31 25  1  0
 31 32  2  0
 32 22  1  0
 33 29  2  0
M  END
$$$$
