FQY.pdb
     RDKit          3D

 33 34  0  0  1  0  0  0  0  0999 V2000
    7.8193  -17.3164   21.3813 N   0  0  0  0  0  0  0  0  0  0  0  0
    9.0592  -17.1987   20.6624 C   0  0  1  0  0  0  0  0  0  0  0  0
    9.6795  -15.8229   20.7792 C   0  0  0  0  0  0  0  0  0  0  0  0
    8.8249  -14.7687   20.2166 C   0  0  0  0  0  0  0  0  0  0  0  0
    8.3105  -13.7876   21.0332 C   0  0  0  0  0  0  0  0  0  0  0  0
    7.4948  -12.7796   20.5016 C   0  0  0  0  0  0  0  0  0  0  0  0
    7.2026  -12.7607   19.1692 C   0  0  0  0  0  0  0  0  0  0  0  0
    7.7123  -13.7368   18.3467 C   0  0  0  0  0  0  0  0  0  0  0  0
    8.5229  -14.7378   18.8771 C   0  0  0  0  0  0  0  0  0  0  0  0
   10.0570  -18.1719   21.2047 C   0  0  0  0  0  0  0  0  0  0  0  0
   10.0640  -18.5156   22.4115 O   0  0  0  0  0  0  0  0  0  0  0  0
   11.8005  -22.9755   20.6679 N   0  0  0  0  0  0  0  0  0  0  0  0
   13.0663  -22.4953   21.0745 C   0  0  0  0  0  0  0  0  0  0  0  0
   13.7031  -22.9639   22.0459 O   0  0  0  0  0  0  0  0  0  0  0  0
   13.6697  -21.3765   20.3074 C   0  0  0  0  0  0  0  0  0  0  0  0
   12.5991  -20.4351   19.8887 C   0  0  0  0  0  0  0  0  0  0  0  0
   12.1360  -19.4824   20.9609 C   0  0  2  0  0  0  0  0  0  0  0  0
   11.0293  -18.7302   20.3410 N   0  0  0  0  0  0  0  0  0  0  0  0
   13.2279  -18.5270   21.2569 C   0  0  0  0  0  0  0  0  0  0  0  0
   14.0911  -18.1475   20.4234 O   0  0  0  0  0  0  0  0  0  0  0  0
   12.7195  -13.3554   17.7894 O   0  0  0  0  0  0  0  0  0  0  0  0
   12.9295  -13.9158   19.0506 C   0  0  0  0  0  0  0  0  0  0  0  0
   14.1947  -14.3007   19.4445 C   0  0  0  0  0  0  0  0  0  0  0  0
   14.4374  -14.8653   20.7019 C   0  0  0  0  0  0  0  0  0  0  0  0
   13.3926  -15.0472   21.5800 C   0  0  0  0  0  0  0  0  0  0  0  0
   13.6234  -15.6453   22.9175 C   0  0  0  0  0  0  0  0  0  0  0  0
   14.3543  -16.9627   22.8331 C   0  0  2  0  0  0  0  0  0  0  0  0
   13.3502  -17.9721   22.5630 N   0  0  0  0  0  0  0  0  0  0  0  0
   15.0953  -17.3310   24.0355 C   0  0  0  0  0  0  0  0  0  0  0  0
   16.1831  -16.6126   24.5208 O   0  0  0  0  0  0  0  0  0  0  0  0
   12.1253  -14.6604   21.1825 C   0  0  0  0  0  0  0  0  0  0  0  0
   11.8891  -14.1020   19.9372 C   0  0  0  0  0  0  0  0  0  0  0  0
   14.7615  -18.3463   24.6941 O   0  0  0  0  0  0  0  0  0  0  0  0
  2  1  1  1
  2  3  1  0
  4  9  1  0
  4  3  1  0
  5  4  2  0
  6  7  2  0
  6  5  1  0
  7  8  1  0
  8  9  2  0
 10  2  1  0
 10 11  2  0
 12 13  1  0
 13 15  1  0
 14 13  2  0
 15 16  1  0
 17 16  1  6
 17 18  1  0
 18 10  1  0
 19 17  1  0
 20 19  2  0
 22 23  2  0
 22 21  1  0
 24 23  1  0
 25 24  2  0
 26 25  1  0
 27 26  1  1
 27 28  1  0
 28 19  1  0
 29 27  1  0
 30 29  1  0
 31 25  1  0
 31 32  2  0
 32 22  1  0
 33 29  2  0
M  END
$$$$
