FQY.pdb
     RDKit          3D

 33 34  0  0  1  0  0  0  0  0999 V2000
    5.8633  -17.4104   21.0684 N   0  0  0  0  0  0  0  0  0  0  0  0
    6.9880  -16.5604   21.3526 C   0  0  1  0  0  0  0  0  0  0  0  0
    6.5864  -15.2410   21.9763 C   0  0  0  0  0  0  0  0  0  0  0  0
    7.1459  -14.0854   21.2624 C   0  0  0  0  0  0  0  0  0  0  0  0
    7.5423  -12.9679   21.9610 C   0  0  0  0  0  0  0  0  0  0  0  0
    8.0768  -11.8628   21.2849 C   0  0  0  0  0  0  0  0  0  0  0  0
    8.2094  -11.8837   19.9272 C   0  0  0  0  0  0  0  0  0  0  0  0
    7.8158  -12.9958   19.2220 C   0  0  0  0  0  0  0  0  0  0  0  0
    7.2849  -14.0932   19.8960 C   0  0  0  0  0  0  0  0  0  0  0  0
    7.9058  -17.2364   22.3207 C   0  0  0  0  0  0  0  0  0  0  0  0
    7.4767  -17.9690   23.2447 O   0  0  0  0  0  0  0  0  0  0  0  0
   13.4756  -19.3058   22.4605 N   0  0  0  0  0  0  0  0  0  0  0  0
   12.8561  -18.9204   21.2496 C   0  0  0  0  0  0  0  0  0  0  0  0
   13.1743  -19.3876   20.1320 O   0  0  0  0  0  0  0  0  0  0  0  0
   11.7715  -17.9083   21.3098 C   0  0  0  0  0  0  0  0  0  0  0  0
   11.5652  -17.4935   22.7215 C   0  0  0  0  0  0  0  0  0  0  0  0
   10.1590  -17.6673   23.2355 C   0  0  2  0  0  0  0  0  0  0  0  0
    9.3043  -17.0527   22.2028 N   0  0  0  0  0  0  0  0  0  0  0  0
   10.0043  -16.8832   24.4821 C   0  0  0  0  0  0  0  0  0  0  0  0
    9.3593  -15.8064   24.5738 O   0  0  0  0  0  0  0  0  0  0  0  0
    6.2688  -11.7507   26.3271 O   0  0  0  0  0  0  0  0  0  0  0  0
    6.9138  -12.9705   26.5388 C   0  0  0  0  0  0  0  0  0  0  0  0
    6.3560  -14.1469   26.0814 C   0  0  0  0  0  0  0  0  0  0  0  0
    6.9780  -15.3851   26.2779 C   0  0  0  0  0  0  0  0  0  0  0  0
    8.1809  -15.4448   26.9452 C   0  0  0  0  0  0  0  0  0  0  0  0
    8.8591  -16.7449   27.1680 C   0  0  0  0  0  0  0  0  0  0  0  0
   10.3477  -16.6568   26.9379 C   0  0  2  0  0  0  0  0  0  0  0  0
   10.6104  -17.3403   25.6873 N   0  0  0  0  0  0  0  0  0  0  0  0
   11.1671  -17.2488   27.9908 C   0  0  0  0  0  0  0  0  0  0  0  0
   11.9673  -18.3713   27.8054 O   0  0  0  0  0  0  0  0  0  0  0  0
    8.7379  -14.2639   27.4026 C   0  0  0  0  0  0  0  0  0  0  0  0
    8.1192  -13.0405   27.2061 C   0  0  0  0  0  0  0  0  0  0  0  0
   11.1753  -16.7443   29.1404 O   0  0  0  0  0  0  0  0  0  0  0  0
  2  1  1  1
  2  3  1  0
  4  9  1  0
  4  3  1  0
  5  4  2  0
  6  7  2  0
  6  5  1  0
  7  8  1  0
  8  9  2  0
 10  2  1  0
 10 11  2  0
 12 13  1  0
 13 15  1  0
 14 13  2  0
 15 16  1  0
 17 16  1  6
 17 18  1  0
 18 10  1  0
 19 17  1  0
 20 19  2  0
 22 23  2  0
 22 21  1  0
 24 23  1  0
 25 24  2  0
 26 25  1  0
 27 26  1  1
 27 28  1  0
 28 19  1  0
 29 27  1  0
 30 29  1  0
 31 25  1  0
 31 32  2  0
 32 22  1  0
 33 29  2  0
M  END
$$$$
