FQY.pdb
     RDKit          3D

 33 34  0  0  1  0  0  0  0  0999 V2000
    6.7859  -20.9276   24.6312 N   0  0  0  0  0  0  0  0  0  0  0  0
    6.9258  -19.5163   24.3928 C   0  0  1  0  0  0  0  0  0  0  0  0
    7.3770  -18.7536   25.6199 C   0  0  0  0  0  0  0  0  0  0  0  0
    6.9818  -17.3391   25.5826 C   0  0  0  0  0  0  0  0  0  0  0  0
    5.9811  -16.9239   24.7341 C   0  0  0  0  0  0  0  0  0  0  0  0
    5.6003  -15.5757   24.6946 C   0  0  0  0  0  0  0  0  0  0  0  0
    6.2179  -14.6614   25.4970 C   0  0  0  0  0  0  0  0  0  0  0  0
    7.2183  -15.0679   26.3473 C   0  0  0  0  0  0  0  0  0  0  0  0
    7.5953  -16.4084   26.3850 C   0  0  0  0  0  0  0  0  0  0  0  0
    7.9527  -19.2781   23.3320 C   0  0  0  0  0  0  0  0  0  0  0  0
    9.1218  -19.7244   23.4247 O   0  0  0  0  0  0  0  0  0  0  0  0
    6.2216  -17.5751   17.7803 N   0  0  0  0  0  0  0  0  0  0  0  0
    7.5842  -17.7856   17.4683 C   0  0  0  0  0  0  0  0  0  0  0  0
    8.0478  -17.7012   16.3079 O   0  0  0  0  0  0  0  0  0  0  0  0
    8.5117  -18.1244   18.5770 C   0  0  0  0  0  0  0  0  0  0  0  0
    7.7607  -18.1351   19.8590 C   0  0  0  0  0  0  0  0  0  0  0  0
    8.5769  -18.5078   21.0701 C   0  0  2  0  0  0  0  0  0  0  0  0
    7.6088  -18.5274   22.1824 N   0  0  0  0  0  0  0  0  0  0  0  0
    9.5572  -17.4306   21.3370 C   0  0  0  0  0  0  0  0  0  0  0  0
   10.6152  -17.2481   20.6802 O   0  0  0  0  0  0  0  0  0  0  0  0
    7.7768  -13.1244   17.2211 O   0  0  0  0  0  0  0  0  0  0  0  0
    8.1871  -13.3792   18.5309 C   0  0  0  0  0  0  0  0  0  0  0  0
    9.5107  -13.2319   18.8918 C   0  0  0  0  0  0  0  0  0  0  0  0
    9.9530  -13.4796   20.1964 C   0  0  0  0  0  0  0  0  0  0  0  0
    9.0516  -13.8823   21.1561 C   0  0  0  0  0  0  0  0  0  0  0  0
    9.4956  -14.1531   22.5452 C   0  0  0  0  0  0  0  0  0  0  0  0
   10.2734  -15.4416   22.6528 C   0  0  2  0  0  0  0  0  0  0  0  0
    9.3297  -16.5124   22.4019 N   0  0  0  0  0  0  0  0  0  0  0  0
   10.9192  -15.6621   23.9431 C   0  0  0  0  0  0  0  0  0  0  0  0
   10.6495  -16.7524   24.7636 O   0  0  0  0  0  0  0  0  0  0  0  0
    7.7252  -14.0292   20.7915 C   0  0  0  0  0  0  0  0  0  0  0  0
    7.2915  -13.7831   19.4994 C   0  0  0  0  0  0  0  0  0  0  0  0
   11.7703  -14.8434   24.3689 O   0  0  0  0  0  0  0  0  0  0  0  0
  2  1  1  1
  2  3  1  0
  4  9  1  0
  4  3  1  0
  5  4  2  0
  6  7  2  0
  6  5  1  0
  7  8  1  0
  8  9  2  0
 10  2  1  0
 10 11  2  0
 12 13  1  0
 13 15  1  0
 14 13  2  0
 15 16  1  0
 17 16  1  6
 17 18  1  0
 18 10  1  0
 19 17  1  0
 20 19  2  0
 22 23  2  0
 22 21  1  0
 24 23  1  0
 25 24  2  0
 26 25  1  0
 27 26  1  1
 27 28  1  0
 28 19  1  0
 29 27  1  0
 30 29  1  0
 31 25  1  0
 31 32  2  0
 32 22  1  0
 33 29  2  0
M  END
$$$$
