FQY.pdb
     RDKit          3D

 33 34  0  0  1  0  0  0  0  0999 V2000
    5.7913  -17.3679   24.6604 N   0  0  0  0  0  0  0  0  0  0  0  0
    6.7221  -16.2772   24.5498 C   0  0  1  0  0  0  0  0  0  0  0  0
    7.3566  -15.9080   25.8736 C   0  0  0  0  0  0  0  0  0  0  0  0
    7.2843  -14.4674   26.1522 C   0  0  0  0  0  0  0  0  0  0  0  0
    8.3721  -13.6611   25.9065 C   0  0  0  0  0  0  0  0  0  0  0  0
    8.3083  -12.2862   26.1705 C   0  0  0  0  0  0  0  0  0  0  0  0
    7.1672  -11.7332   26.6736 C   0  0  0  0  0  0  0  0  0  0  0  0
    6.0762  -12.5315   26.9218 C   0  0  0  0  0  0  0  0  0  0  0  0
    6.1417  -13.8979   26.6587 C   0  0  0  0  0  0  0  0  0  0  0  0
    7.8359  -16.6497   23.6238 C   0  0  0  0  0  0  0  0  0  0  0  0
    8.3765  -17.7816   23.6538 O   0  0  0  0  0  0  0  0  0  0  0  0
    8.9574  -17.6139   18.9870 N   0  0  0  0  0  0  0  0  0  0  0  0
    7.7849  -16.8461   19.1717 C   0  0  0  0  0  0  0  0  0  0  0  0
    6.6825  -17.1332   18.6510 O   0  0  0  0  0  0  0  0  0  0  0  0
    7.8682  -15.6365   20.0284 C   0  0  0  0  0  0  0  0  0  0  0  0
    9.2585  -15.4856   20.5305 C   0  0  0  0  0  0  0  0  0  0  0  0
    9.5050  -16.0630   21.9007 C   0  0  2  0  0  0  0  0  0  0  0  0
    8.3046  -15.7056   22.6792 N   0  0  0  0  0  0  0  0  0  0  0  0
   10.6657  -15.3737   22.5092 C   0  0  0  0  0  0  0  0  0  0  0  0
   10.8189  -14.1249   22.5417 O   0  0  0  0  0  0  0  0  0  0  0  0
   10.9135  -15.2584   30.8198 O   0  0  0  0  0  0  0  0  0  0  0  0
   10.8291  -15.4142   29.4351 C   0  0  0  0  0  0  0  0  0  0  0  0
   10.7918  -16.6737   28.8726 C   0  0  0  0  0  0  0  0  0  0  0  0
   10.7074  -16.8626   27.4884 C   0  0  0  0  0  0  0  0  0  0  0  0
   10.6595  -15.7689   26.6534 C   0  0  0  0  0  0  0  0  0  0  0  0
   10.5719  -15.9427   25.1830 C   0  0  0  0  0  0  0  0  0  0  0  0
   11.9329  -16.0555   24.5414 C   0  0  2  0  0  0  0  0  0  0  0  0
   11.7071  -16.1358   23.1121 N   0  0  0  0  0  0  0  0  0  0  0  0
   12.7191  -17.2083   24.9696 C   0  0  0  0  0  0  0  0  0  0  0  0
   13.9338  -17.1069   25.6395 O   0  0  0  0  0  0  0  0  0  0  0  0
   10.6969  -14.5075   27.2200 C   0  0  0  0  0  0  0  0  0  0  0  0
   10.7805  -14.3246   28.5903 C   0  0  0  0  0  0  0  0  0  0  0  0
   12.3080  -18.3716   24.7376 O   0  0  0  0  0  0  0  0  0  0  0  0
  2  1  1  1
  2  3  1  0
  4  9  1  0
  4  3  1  0
  5  4  2  0
  6  7  2  0
  6  5  1  0
  7  8  1  0
  8  9  2  0
 10  2  1  0
 10 11  2  0
 12 13  1  0
 13 15  1  0
 14 13  2  0
 15 16  1  0
 17 16  1  6
 17 18  1  0
 18 10  1  0
 19 17  1  0
 20 19  2  0
 22 23  2  0
 22 21  1  0
 24 23  1  0
 25 24  2  0
 26 25  1  0
 27 26  1  1
 27 28  1  0
 28 19  1  0
 29 27  1  0
 30 29  1  0
 31 25  1  0
 31 32  2  0
 32 22  1  0
 33 29  2  0
M  END
$$$$
