FQY.pdb
     RDKit          3D

 33 34  0  0  1  0  0  0  0  0999 V2000
    6.2425  -18.0807   18.6898 N   0  0  0  0  0  0  0  0  0  0  0  0
    6.9345  -16.9722   19.2901 C   0  0  1  0  0  0  0  0  0  0  0  0
    6.0203  -16.0730   20.0945 C   0  0  0  0  0  0  0  0  0  0  0  0
    6.7331  -14.9413   20.7021 C   0  0  0  0  0  0  0  0  0  0  0  0
    6.8198  -14.8347   22.0715 C   0  0  0  0  0  0  0  0  0  0  0  0
    7.4987  -13.7571   22.6562 C   0  0  0  0  0  0  0  0  0  0  0  0
    8.0805  -12.8028   21.8739 C   0  0  0  0  0  0  0  0  0  0  0  0
    7.9985  -12.9018   20.5054 C   0  0  0  0  0  0  0  0  0  0  0  0
    7.3232  -13.9738   19.9262 C   0  0  0  0  0  0  0  0  0  0  0  0
    7.9844  -17.4750   20.2291 C   0  0  0  0  0  0  0  0  0  0  0  0
    7.7216  -18.2870   21.1489 O   0  0  0  0  0  0  0  0  0  0  0  0
   13.9320  -18.8451   18.7091 N   0  0  0  0  0  0  0  0  0  0  0  0
   13.9770  -18.0575   19.8821 C   0  0  0  0  0  0  0  0  0  0  0  0
   14.9385  -17.3106   20.1758 O   0  0  0  0  0  0  0  0  0  0  0  0
   12.8220  -18.1217   20.8127 C   0  0  0  0  0  0  0  0  0  0  0  0
   11.6194  -17.5644   20.1414 C   0  0  0  0  0  0  0  0  0  0  0  0
   10.3429  -17.6686   20.9359 C   0  0  2  0  0  0  0  0  0  0  0  0
    9.3203  -17.0293   20.0871 N   0  0  0  0  0  0  0  0  0  0  0  0
   10.4800  -16.8630   22.1707 C   0  0  0  0  0  0  0  0  0  0  0  0
   10.6695  -15.6190   22.1951 O   0  0  0  0  0  0  0  0  0  0  0  0
    5.4320  -20.2192   26.0522 O   0  0  0  0  0  0  0  0  0  0  0  0
    6.3745  -19.2214   25.7974 C   0  0  0  0  0  0  0  0  0  0  0  0
    7.3657  -18.9427   26.7160 C   0  0  0  0  0  0  0  0  0  0  0  0
    8.3248  -17.9488   26.4897 C   0  0  0  0  0  0  0  0  0  0  0  0
    8.2891  -17.2214   25.3212 C   0  0  0  0  0  0  0  0  0  0  0  0
    9.2928  -16.1614   25.0586 C   0  0  0  0  0  0  0  0  0  0  0  0
   10.6295  -16.7317   24.6528 C   0  0  2  0  0  0  0  0  0  0  0  0
   10.3989  -17.4967   23.4437 N   0  0  0  0  0  0  0  0  0  0  0  0
   11.2591  -17.5895   25.6519 C   0  0  0  0  0  0  0  0  0  0  0  0
   11.6217  -17.1549   26.9225 O   0  0  0  0  0  0  0  0  0  0  0  0
    7.2943  -17.5030   24.4020 C   0  0  0  0  0  0  0  0  0  0  0  0
    6.3470  -18.4874   24.6296 C   0  0  0  0  0  0  0  0  0  0  0  0
   11.5027  -18.7919   25.3854 O   0  0  0  0  0  0  0  0  0  0  0  0
  2  1  1  1
  2  3  1  0
  4  9  1  0
  4  3  1  0
  5  4  2  0
  6  7  2  0
  6  5  1  0
  7  8  1  0
  8  9  2  0
 10  2  1  0
 10 11  2  0
 12 13  1  0
 13 15  1  0
 14 13  2  0
 15 16  1  0
 17 16  1  6
 17 18  1  0
 18 10  1  0
 19 17  1  0
 20 19  2  0
 22 23  2  0
 22 21  1  0
 24 23  1  0
 25 24  2  0
 26 25  1  0
 27 26  1  1
 27 28  1  0
 28 19  1  0
 29 27  1  0
 30 29  1  0
 31 25  1  0
 31 32  2  0
 32 22  1  0
 33 29  2  0
M  END
$$$$
