PHS.pdb
     RDKit          3D

 24 25  0  0  1  0  0  0  0  0999 V2000
   14.7267  -24.4580   -2.9736 N   0  0  0  0  0  0  0  0  0  0  0  0
   14.5153  -25.3882   -4.0589 C   0  0  0  0  0  0  0  0  0  0  0  0
   13.5584  -24.7632   -5.0182 C   0  0  0  0  0  0  0  0  0  0  0  0
   13.1701  -23.4776   -4.3616 C   0  0  0  0  0  0  0  0  0  0  0  0
   14.3226  -23.1584   -3.4485 C   0  0  1  0  0  0  0  0  0  0  0  0
   13.9279  -22.3064   -2.3085 C   0  0  0  0  0  0  0  0  0  0  0  0
   13.5755  -21.1015   -2.5140 O   0  0  0  0  0  0  0  0  0  0  0  0
   13.9110  -22.7403   -0.9642 N   0  0  0  0  0  0  0  0  0  0  0  0
   13.5252  -21.8812    0.1315 C   0  0  1  0  0  0  0  0  0  0  0  0
   12.2107  -22.3045    0.7468 C   0  0  0  0  0  0  0  0  0  0  0  0
   11.0523  -21.9288   -0.0838 C   0  0  0  0  0  0  0  0  0  0  0  0
   10.9900  -21.1085   -1.1944 C   0  0  0  0  0  0  0  0  0  0  0  0
    9.7246  -21.0417   -1.6439 N   0  0  0  0  0  0  0  0  0  0  0  0
    8.9737  -21.8090   -0.8356 C   0  0  0  0  0  0  0  0  0  0  0  0
    9.7883  -22.3443    0.1097 N   0  0  0  0  0  0  0  0  0  0  0  0
   14.5751  -21.8685    1.1990 C   0  0  0  0  0  0  0  0  0  0  0  0
   15.3109  -22.8757    1.3989 O   0  0  0  0  0  0  0  0  0  0  0  0
   15.4746  -18.2523    3.1961 O   0  0  0  0  0  0  0  0  0  0  0  0
   16.4702  -19.1996    2.8632 C   0  0  0  0  0  0  0  0  0  0  0  0
   15.8114  -20.5521    2.9835 C   0  0  2  0  0  0  0  0  0  0  0  0
   14.7583  -20.7219    2.0024 N   0  0  0  0  0  0  0  0  0  0  0  0
   15.3691  -20.8582    4.3724 C   0  0  0  0  0  0  0  0  0  0  0  0
   16.2958  -21.1779    5.3367 O   0  0  0  0  0  0  0  0  0  0  0  0
   14.1340  -20.8037    4.5918 O   0  0  0  0  0  0  0  0  0  0  0  0
  1  2  1  0
  1  5  1  0
  2  3  1  0
  3  4  1  0
  5  6  1  1
  5  4  1  0
  6  8  1  0
  7  6  2  0
  8  9  1  0
  9 16  1  0
 10 11  1  0
  9 10  1  1
 11 12  2  0
 13 12  1  0
 14 13  1  0
 15 14  2  0
 15 11  1  0
 16 21  1  0
 16 17  2  0
 18 19  1  0
 20 19  1  1
 20 22  1  0
 21 20  1  0
 22 24  2  0
 22 23  1  0
M  END
$$$$
