PHS.pdb
     RDKit          3D

 24 25  0  0  1  0  0  0  0  0999 V2000
   21.8753  -10.7689  -20.2910 N   0  0  0  0  0  0  0  0  0  0  0  0
   22.2123  -11.9238  -21.0914 C   0  0  0  0  0  0  0  0  0  0  0  0
   21.5697  -13.1170  -20.4672 C   0  0  0  0  0  0  0  0  0  0  0  0
   20.9393  -12.5828  -19.2215 C   0  0  0  0  0  0  0  0  0  0  0  0
   20.7177  -11.1226  -19.5084 C   0  0  1  0  0  0  0  0  0  0  0  0
   20.6695  -10.3014  -18.2817 C   0  0  0  0  0  0  0  0  0  0  0  0
   19.7635  -10.5154  -17.4148 O   0  0  0  0  0  0  0  0  0  0  0  0
   21.5812   -9.2632  -17.9875 N   0  0  0  0  0  0  0  0  0  0  0  0
   21.5297   -8.4992  -16.7623 C   0  0  1  0  0  0  0  0  0  0  0  0
   22.8677   -8.4661  -16.0594 C   0  0  0  0  0  0  0  0  0  0  0  0
   23.3154   -9.8052  -15.6356 C   0  0  0  0  0  0  0  0  0  0  0  0
   22.8999  -10.5793  -14.5687 C   0  0  0  0  0  0  0  0  0  0  0  0
   23.5777  -11.7404  -14.5541 N   0  0  0  0  0  0  0  0  0  0  0  0
   24.4232  -11.7212  -15.5985 C   0  0  0  0  0  0  0  0  0  0  0  0
   24.2573  -10.5417  -16.2503 N   0  0  0  0  0  0  0  0  0  0  0  0
   21.0884   -7.0927  -17.0251 C   0  0  0  0  0  0  0  0  0  0  0  0
   21.6003   -6.4148  -17.9601 O   0  0  0  0  0  0  0  0  0  0  0  0
   17.9829   -5.5357  -14.7201 O   0  0  0  0  0  0  0  0  0  0  0  0
   18.0652   -5.1299  -16.0722 C   0  0  0  0  0  0  0  0  0  0  0  0
   19.5305   -5.1783  -16.4304 C   0  0  2  0  0  0  0  0  0  0  0  0
   20.0866   -6.5008  -16.2252 N   0  0  0  0  0  0  0  0  0  0  0  0
   20.3228   -4.1037  -15.7702 C   0  0  0  0  0  0  0  0  0  0  0  0
   21.3588   -4.4297  -14.9268 O   0  0  0  0  0  0  0  0  0  0  0  0
   19.9896   -2.9215  -16.0308 O   0  0  0  0  0  0  0  0  0  0  0  0
  1  2  1  0
  1  5  1  0
  2  3  1  0
  3  4  1  0
  5  6  1  1
  5  4  1  0
  6  8  1  0
  7  6  2  0
  8  9  1  0
  9 16  1  0
 10 11  1  0
  9 10  1  6
 11 12  2  0
 13 12  1  0
 14 13  1  0
 15 14  2  0
 15 11  1  0
 16 21  1  0
 16 17  2  0
 18 19  1  0
 20 19  1  1
 20 22  1  0
 21 20  1  0
 22 24  2  0
 22 23  1  0
M  END
$$$$
