PHS.pdb
     RDKit          3D

 24 25  0  0  1  0  0  0  0  0999 V2000
   26.8924  -22.5336  -16.5828 N   0  0  0  0  0  0  0  0  0  0  0  0
   27.9862  -23.0538  -17.3708 C   0  0  0  0  0  0  0  0  0  0  0  0
   29.1502  -22.1358  -17.2011 C   0  0  0  0  0  0  0  0  0  0  0  0
   28.6179  -21.0229  -16.3569 C   0  0  0  0  0  0  0  0  0  0  0  0
   27.4639  -21.6355  -15.6107 C   0  0  1  0  0  0  0  0  0  0  0  0
   26.4582  -20.6366  -15.1962 C   0  0  0  0  0  0  0  0  0  0  0  0
   26.7455  -19.7908  -14.2904 O   0  0  0  0  0  0  0  0  0  0  0  0
   25.1599  -20.5448  -15.7455 N   0  0  0  0  0  0  0  0  0  0  0  0
   24.2362  -19.4888  -15.4007 C   0  0  1  0  0  0  0  0  0  0  0  0
   23.9394  -18.5894  -16.5790 C   0  0  0  0  0  0  0  0  0  0  0  0
   25.0959  -17.7582  -16.9594 C   0  0  0  0  0  0  0  0  0  0  0  0
   26.3326  -17.6349  -16.3548 C   0  0  0  0  0  0  0  0  0  0  0  0
   27.0914  -16.7606  -17.0387 N   0  0  0  0  0  0  0  0  0  0  0  0
   26.3571  -16.3212  -18.0749 C   0  0  0  0  0  0  0  0  0  0  0  0
   25.1459  -16.9324  -18.0192 N   0  0  0  0  0  0  0  0  0  0  0  0
   22.9469  -20.0502  -14.8862 C   0  0  0  0  0  0  0  0  0  0  0  0
   22.6048  -21.2378  -15.1478 O   0  0  0  0  0  0  0  0  0  0  0  0
   19.1774  -19.3880  -11.9245 O   0  0  0  0  0  0  0  0  0  0  0  0
   20.3456  -18.7844  -12.4446 C   0  0  0  0  0  0  0  0  0  0  0  0
   20.8091  -19.6796  -13.5677 C   0  0  2  0  0  0  0  0  0  0  0  0
   22.0900  -19.2538  -14.0956 N   0  0  0  0  0  0  0  0  0  0  0  0
   19.7754  -19.8641  -14.6241 C   0  0  0  0  0  0  0  0  0  0  0  0
   18.8989  -20.9213  -14.5543 O   0  0  0  0  0  0  0  0  0  0  0  0
   19.7615  -19.0147  -15.5487 O   0  0  0  0  0  0  0  0  0  0  0  0
  1  2  1  0
  1  5  1  0
  2  3  1  0
  3  4  1  0
  5  6  1  6
  5  4  1  0
  6  8  1  0
  7  6  2  0
  8  9  1  0
  9 16  1  0
 10 11  1  0
  9 10  1  6
 11 12  2  0
 13 12  1  0
 14 13  1  0
 15 14  2  0
 15 11  1  0
 16 21  1  0
 16 17  2  0
 18 19  1  0
 20 19  1  1
 20 22  1  0
 21 20  1  0
 22 24  2  0
 22 23  1  0
M  END
$$$$
