PHS.pdb
     RDKit          3D

 24 25  0  0  1  0  0  0  0  0999 V2000
   18.6118  -16.2304    2.7442 N   0  0  0  0  0  0  0  0  0  0  0  0
   18.1669  -16.2118    1.3696 C   0  0  0  0  0  0  0  0  0  0  0  0
   16.8311  -15.5481    1.3294 C   0  0  0  0  0  0  0  0  0  0  0  0
   16.5095  -15.2867    2.7656 C   0  0  0  0  0  0  0  0  0  0  0  0
   17.8498  -15.2285    3.4467 C   0  0  1  0  0  0  0  0  0  0  0  0
   17.7753  -15.5678    4.8822 C   0  0  0  0  0  0  0  0  0  0  0  0
   17.2061  -14.7673    5.6906 O   0  0  0  0  0  0  0  0  0  0  0  0
   18.3043  -16.7507    5.4448 N   0  0  0  0  0  0  0  0  0  0  0  0
   18.2041  -17.0616    6.8522 C   0  0  1  0  0  0  0  0  0  0  0  0
   17.5738  -18.4151    7.0892 C   0  0  0  0  0  0  0  0  0  0  0  0
   16.2235  -18.5182    6.5069 C   0  0  0  0  0  0  0  0  0  0  0  0
   15.2204  -17.5707    6.4280 C   0  0  0  0  0  0  0  0  0  0  0  0
   14.1450  -18.0926    5.8123 N   0  0  0  0  0  0  0  0  0  0  0  0
   14.4454  -19.3633    5.4950 C   0  0  0  0  0  0  0  0  0  0  0  0
   15.7102  -19.6138    5.9206 N   0  0  0  0  0  0  0  0  0  0  0  0
   19.5516  -17.0366    7.5047 C   0  0  0  0  0  0  0  0  0  0  0  0
   20.5736  -17.4707    6.9022 O   0  0  0  0  0  0  0  0  0  0  0  0
   21.0064  -14.0603    9.3966 O   0  0  0  0  0  0  0  0  0  0  0  0
   21.0079  -15.1212   10.3315 C   0  0  0  0  0  0  0  0  0  0  0  0
   20.9583  -16.3908    9.5171 C   0  0  2  0  0  0  0  0  0  0  0  0
   19.6991  -16.5235    8.8118 N   0  0  0  0  0  0  0  0  0  0  0  0
   21.3125  -17.6006   10.3104 C   0  0  0  0  0  0  0  0  0  0  0  0
   22.5307  -17.6781   10.9434 O   0  0  0  0  0  0  0  0  0  0  0  0
   20.4492  -18.5112   10.3590 O   0  0  0  0  0  0  0  0  0  0  0  0
  1  2  1  0
  1  5  1  0
  2  3  1  0
  3  4  1  0
  5  6  1  1
  5  4  1  0
  6  8  1  0
  7  6  2  0
  8  9  1  0
  9 16  1  0
 10 11  1  0
  9 10  1  6
 11 12  2  0
 13 12  1  0
 14 13  1  0
 15 14  2  0
 15 11  1  0
 16 21  1  0
 16 17  2  0
 18 19  1  0
 20 19  1  1
 20 22  1  0
 21 20  1  0
 22 24  2  0
 22 23  1  0
M  END
$$$$
