KNA.pdb
     RDKit          3D

 23 22  0  0  1  0  0  0  0  0999 V2000
    8.4566  -16.6650   21.9291 N   0  0  0  0  0  0  0  0  0  0  0  0
    9.5574  -15.7430   21.9399 C   0  0  1  0  0  0  0  0  0  0  0  0
    9.7767  -15.0995   20.6206 C   0  0  0  0  0  0  0  0  0  0  0  0
    8.5477  -14.9932   19.8054 C   0  0  0  0  0  0  0  0  0  0  0  0
    8.6887  -14.2870   18.4905 C   0  0  0  0  0  0  0  0  0  0  0  0
    7.2773  -14.1121   17.8968 C   0  0  0  0  0  0  0  0  0  0  0  0
    7.4071  -13.4731   16.6303 N   0  0  0  0  0  0  0  0  0  0  0  0
    9.3329  -14.7547   23.0272 C   0  0  0  0  0  0  0  0  0  0  0  0
   10.1374  -13.7764   23.0583 O   0  0  0  0  0  0  0  0  0  0  0  0
    5.2162  -12.5615   27.0595 N   0  0  0  0  0  0  0  0  0  0  0  0
    6.2989  -12.5872   26.1403 C   0  0  0  0  0  0  0  0  0  0  0  0
    6.9884  -11.5199   26.0886 O   0  0  0  0  0  0  0  0  0  0  0  0
    6.6153  -13.7568   25.2993 C   0  0  0  0  0  0  0  0  0  0  0  0
    8.0677  -13.8573   24.9297 C   0  0  2  0  0  0  0  0  0  0  0  0
    8.2916  -14.9098   23.9524 N   0  0  0  0  0  0  0  0  0  0  0  0
    8.8766  -14.0237   26.1334 C   0  0  0  0  0  0  0  0  0  0  0  0
    9.0021  -13.0567   26.9196 O   0  0  0  0  0  0  0  0  0  0  0  0
    9.6616  -14.5615   28.8340 C   0  0  0  0  0  0  0  0  0  0  0  0
   10.2957  -15.3467   27.7000 C   0  0  2  0  0  0  0  0  0  0  0  0
    9.5423  -15.2281   26.4792 N   0  0  0  0  0  0  0  0  0  0  0  0
   10.3027  -16.7874   28.0786 C   0  0  0  0  0  0  0  0  0  0  0  0
    9.7056  -17.7792   27.3339 O   0  0  0  0  0  0  0  0  0  0  0  0
   10.8960  -17.0919   29.1471 O   0  0  0  0  0  0  0  0  0  0  0  0
  2  1  1  6
  2  3  1  0
  4  3  1  0
  5  4  1  0
  6  5  1  0
  6  7  1  0
  8  2  1  0
  9  8  2  0
 10 11  1  0
 11 12  2  0
 13 11  1  0
 14 13  1  1
 14 15  1  0
 15  8  1  0
 16 14  1  0
 16 20  1  0
 17 16  2  0
 19 18  1  1
 19 21  1  0
 19 20  1  0
 21 22  1  0
 23 21  2  0
M  END
$$$$
