KNA.pdb
     RDKit          3D

 23 22  0  0  1  0  0  0  0  0999 V2000
    9.1091  -16.0679   20.5404 N   0  0  0  0  0  0  0  0  0  0  0  0
    8.8522  -14.7847   21.1314 C   0  0  1  0  0  0  0  0  0  0  0  0
    7.8484  -13.9970   20.3733 C   0  0  0  0  0  0  0  0  0  0  0  0
    7.8320  -14.3007   18.9262 C   0  0  0  0  0  0  0  0  0  0  0  0
    8.0167  -13.1317   18.0059 C   0  0  0  0  0  0  0  0  0  0  0  0
    7.9884  -13.6628   16.5595 C   0  0  0  0  0  0  0  0  0  0  0  0
    8.0531  -12.5459   15.6777 N   0  0  0  0  0  0  0  0  0  0  0  0
    8.4633  -14.9897   22.5513 C   0  0  0  0  0  0  0  0  0  0  0  0
    8.1210  -13.9477   23.1856 O   0  0  0  0  0  0  0  0  0  0  0  0
    6.1111  -16.9599   26.3956 N   0  0  0  0  0  0  0  0  0  0  0  0
    6.9316  -18.0163   25.9172 C   0  0  0  0  0  0  0  0  0  0  0  0
    6.6371  -19.1713   26.3604 O   0  0  0  0  0  0  0  0  0  0  0  0
    8.0473  -17.8078   24.9755 C   0  0  0  0  0  0  0  0  0  0  0  0
    8.2285  -16.3745   24.5644 C   0  0  2  0  0  0  0  0  0  0  0  0
    8.4798  -16.2630   23.1371 N   0  0  0  0  0  0  0  0  0  0  0  0
    9.2748  -15.7543   25.3716 C   0  0  0  0  0  0  0  0  0  0  0  0
   10.0817  -14.9698   24.8218 O   0  0  0  0  0  0  0  0  0  0  0  0
    9.4132  -13.7232   27.7054 C   0  0  0  0  0  0  0  0  0  0  0  0
   10.1465  -15.0482   27.5988 C   0  0  2  0  0  0  0  0  0  0  0  0
    9.4427  -15.9842   26.7617 N   0  0  0  0  0  0  0  0  0  0  0  0
   10.2281  -15.6457   28.9609 C   0  0  0  0  0  0  0  0  0  0  0  0
   10.9867  -15.1229   29.9837 O   0  0  0  0  0  0  0  0  0  0  0  0
    9.5549  -16.6904   29.1651 O   0  0  0  0  0  0  0  0  0  0  0  0
  2  1  1  6
  2  3  1  0
  4  3  1  0
  5  4  1  0
  6  5  1  0
  6  7  1  0
  8  2  1  0
  9  8  2  0
 10 11  1  0
 11 12  2  0
 13 11  1  0
 14 13  1  1
 14 15  1  0
 15  8  1  0
 16 14  1  0
 16 20  1  0
 17 16  2  0
 19 18  1  1
 19 21  1  0
 19 20  1  0
 21 22  1  0
 23 21  2  0
M  END
$$$$
