KNA.pdb
     RDKit          3D

 23 22  0  0  1  0  0  0  0  0999 V2000
    6.7076  -19.4948   25.9735 N   0  0  0  0  0  0  0  0  0  0  0  0
    7.6084  -20.1506   25.0677 C   0  0  1  0  0  0  0  0  0  0  0  0
    6.9116  -20.7483   23.9016 C   0  0  0  0  0  0  0  0  0  0  0  0
    5.4834  -21.0371   24.1532 C   0  0  0  0  0  0  0  0  0  0  0  0
    5.0135  -22.4107   23.7791 C   0  0  0  0  0  0  0  0  0  0  0  0
    3.4929  -22.4701   24.0224 C   0  0  0  0  0  0  0  0  0  0  0  0
    3.0529  -23.7965   23.7459 N   0  0  0  0  0  0  0  0  0  0  0  0
    8.6622  -19.1815   24.6682 C   0  0  0  0  0  0  0  0  0  0  0  0
    9.5467  -19.6237   23.8761 O   0  0  0  0  0  0  0  0  0  0  0  0
   11.8259  -15.3999   23.5761 N   0  0  0  0  0  0  0  0  0  0  0  0
   10.5289  -15.4121   22.9970 C   0  0  0  0  0  0  0  0  0  0  0  0
   10.4166  -14.7598   21.9111 O   0  0  0  0  0  0  0  0  0  0  0  0
    9.3845  -16.1234   23.5966 C   0  0  0  0  0  0  0  0  0  0  0  0
    9.7588  -16.9875   24.7668 C   0  0  2  0  0  0  0  0  0  0  0  0
    8.6633  -17.8641   25.1468 N   0  0  0  0  0  0  0  0  0  0  0  0
   10.2238  -16.1542   25.8715 C   0  0  0  0  0  0  0  0  0  0  0  0
   11.3931  -16.3036   26.2950 O   0  0  0  0  0  0  0  0  0  0  0  0
    8.9073  -13.3993   28.1227 C   0  0  0  0  0  0  0  0  0  0  0  0
    9.8924  -14.4642   27.6750 C   0  0  2  0  0  0  0  0  0  0  0  0
    9.4266  -15.1688   26.5093 N   0  0  0  0  0  0  0  0  0  0  0  0
   10.0283  -15.4628   28.7719 C   0  0  0  0  0  0  0  0  0  0  0  0
    9.6368  -16.7781   28.6648 O   0  0  0  0  0  0  0  0  0  0  0  0
   10.5341  -15.0566   29.8516 O   0  0  0  0  0  0  0  0  0  0  0  0
  2  1  1  1
  2  3  1  0
  4  3  1  0
  5  4  1  0
  6  5  1  0
  6  7  1  0
  8  2  1  0
  9  8  2  0
 10 11  1  0
 11 12  2  0
 13 11  1  0
 14 13  1  6
 14 15  1  0
 15  8  1  0
 16 14  1  0
 16 20  1  0
 17 16  2  0
 19 18  1  1
 19 21  1  0
 19 20  1  0
 21 22  1  0
 23 21  2  0
M  END
$$$$
