KNA.pdb
     RDKit          3D

 23 22  0  0  1  0  0  0  0  0999 V2000
    7.2829  -16.6016   20.2670 N   0  0  0  0  0  0  0  0  0  0  0  0
    7.8578  -15.6513   21.1772 C   0  0  1  0  0  0  0  0  0  0  0  0
    7.7775  -14.2574   20.6740 C   0  0  0  0  0  0  0  0  0  0  0  0
    8.4244  -14.0679   19.3579 C   0  0  0  0  0  0  0  0  0  0  0  0
    7.6044  -13.3685   18.3157 C   0  0  0  0  0  0  0  0  0  0  0  0
    8.4758  -13.2198   17.0534 C   0  0  0  0  0  0  0  0  0  0  0  0
    7.7034  -12.5525   16.0597 N   0  0  0  0  0  0  0  0  0  0  0  0
    7.2085  -15.8179   22.5038 C   0  0  0  0  0  0  0  0  0  0  0  0
    6.1491  -16.5128   22.5161 O   0  0  0  0  0  0  0  0  0  0  0  0
    7.2223  -17.6105   27.2136 N   0  0  0  0  0  0  0  0  0  0  0  0
    7.2498  -18.2043   25.9235 C   0  0  0  0  0  0  0  0  0  0  0  0
    7.1015  -19.4672   25.9075 O   0  0  0  0  0  0  0  0  0  0  0  0
    7.4357  -17.4292   24.6826 C   0  0  0  0  0  0  0  0  0  0  0  0
    7.6417  -15.9597   24.9158 C   0  0  2  0  0  0  0  0  0  0  0  0
    7.7472  -15.2361   23.6595 N   0  0  0  0  0  0  0  0  0  0  0  0
    8.7955  -15.7513   25.7855 C   0  0  0  0  0  0  0  0  0  0  0  0
    9.9328  -16.0784   25.3749 O   0  0  0  0  0  0  0  0  0  0  0  0
    9.6385  -13.4141   28.4961 C   0  0  0  0  0  0  0  0  0  0  0  0
    9.8876  -14.7300   27.7811 C   0  0  2  0  0  0  0  0  0  0  0  0
    8.7145  -15.1934   27.0876 N   0  0  0  0  0  0  0  0  0  0  0  0
   10.2330  -15.7568   28.8035 C   0  0  0  0  0  0  0  0  0  0  0  0
   11.3016  -15.6525   29.6650 O   0  0  0  0  0  0  0  0  0  0  0  0
    9.4893  -16.7715   28.8646 O   0  0  0  0  0  0  0  0  0  0  0  0
  2  1  1  6
  2  3  1  0
  4  3  1  0
  5  4  1  0
  6  5  1  0
  6  7  1  0
  8  2  1  0
  9  8  2  0
 10 11  1  0
 11 12  2  0
 13 11  1  0
 14 13  1  6
 14 15  1  0
 15  8  1  0
 16 14  1  0
 16 20  1  0
 17 16  2  0
 19 18  1  1
 19 21  1  0
 19 20  1  0
 21 22  1  0
 23 21  2  0
M  END
$$$$
