KNA.pdb
     RDKit          3D

 23 22  0  0  1  0  0  0  0  0999 V2000
    8.4054  -16.5594   21.1169 N   0  0  0  0  0  0  0  0  0  0  0  0
    8.4661  -15.1585   21.4266 C   0  0  1  0  0  0  0  0  0  0  0  0
    7.6769  -14.3297   20.4818 C   0  0  0  0  0  0  0  0  0  0  0  0
    7.8464  -14.7258   19.0673 C   0  0  0  0  0  0  0  0  0  0  0  0
    8.1900  -13.6232   18.1113 C   0  0  0  0  0  0  0  0  0  0  0  0
    8.1475  -14.2067   16.6856 C   0  0  0  0  0  0  0  0  0  0  0  0
    8.3842  -13.1443   15.7665 N   0  0  0  0  0  0  0  0  0  0  0  0
    8.0457  -14.9704   22.8398 C   0  0  0  0  0  0  0  0  0  0  0  0
    8.0229  -13.7732   23.2539 O   0  0  0  0  0  0  0  0  0  0  0  0
    8.4591  -18.4671   24.9614 N   0  0  0  0  0  0  0  0  0  0  0  0
    7.1815  -18.2481   25.5424 C   0  0  0  0  0  0  0  0  0  0  0  0
    6.6083  -19.2896   25.9939 O   0  0  0  0  0  0  0  0  0  0  0  0
    6.5502  -16.9177   25.6248 C   0  0  0  0  0  0  0  0  0  0  0  0
    7.3927  -15.8149   25.0503 C   0  0  2  0  0  0  0  0  0  0  0  0
    7.6994  -16.0599   23.6507 N   0  0  0  0  0  0  0  0  0  0  0  0
    8.5891  -15.6272   25.8655 C   0  0  0  0  0  0  0  0  0  0  0  0
    9.6607  -16.1664   25.5051 O   0  0  0  0  0  0  0  0  0  0  0  0
    9.7825  -13.3315   28.5806 C   0  0  0  0  0  0  0  0  0  0  0  0
    9.8548  -14.6030   27.7543 C   0  0  2  0  0  0  0  0  0  0  0  0
    8.6208  -14.8616   27.0597 N   0  0  0  0  0  0  0  0  0  0  0  0
   10.0908  -15.7463   28.6797 C   0  0  0  0  0  0  0  0  0  0  0  0
   11.2449  -15.9161   29.4104 O   0  0  0  0  0  0  0  0  0  0  0  0
    9.1657  -16.5949   28.7830 O   0  0  0  0  0  0  0  0  0  0  0  0
  2  1  1  6
  2  3  1  0
  4  3  1  0
  5  4  1  0
  6  5  1  0
  6  7  1  0
  8  2  1  0
  9  8  2  0
 10 11  1  0
 11 12  2  0
 13 11  1  0
 14 13  1  1
 14 15  1  0
 15  8  1  0
 16 14  1  0
 16 20  1  0
 17 16  2  0
 19 18  1  1
 19 21  1  0
 19 20  1  0
 21 22  1  0
 23 21  2  0
M  END
$$$$
