KNA.pdb
     RDKit          3D

 23 22  0  0  1  0  0  0  0  0999 V2000
   10.1976  -15.3489   20.4197 N   0  0  0  0  0  0  0  0  0  0  0  0
    9.3895  -14.3120   20.9975 C   0  0  1  0  0  0  0  0  0  0  0  0
    8.3211  -13.8423   20.0806 C   0  0  0  0  0  0  0  0  0  0  0  0
    8.5961  -14.1338   18.6573 C   0  0  0  0  0  0  0  0  0  0  0  0
    7.6751  -13.4917   17.6637 C   0  0  0  0  0  0  0  0  0  0  0  0
    8.1145  -13.9408   16.2565 C   0  0  0  0  0  0  0  0  0  0  0  0
    7.1908  -13.4052   15.3136 N   0  0  0  0  0  0  0  0  0  0  0  0
    8.8544  -14.8004   22.2953 C   0  0  0  0  0  0  0  0  0  0  0  0
    7.8986  -14.1287   22.7858 O   0  0  0  0  0  0  0  0  0  0  0  0
   11.2593  -17.5719   23.2745 N   0  0  0  0  0  0  0  0  0  0  0  0
   10.2994  -18.3331   23.9934 C   0  0  0  0  0  0  0  0  0  0  0  0
   10.6065  -19.5534   24.1776 O   0  0  0  0  0  0  0  0  0  0  0  0
    9.0340  -17.7671   24.4970 C   0  0  0  0  0  0  0  0  0  0  0  0
    8.8905  -16.2936   24.2433 C   0  0  2  0  0  0  0  0  0  0  0  0
    9.3852  -15.9349   22.9244 N   0  0  0  0  0  0  0  0  0  0  0  0
    9.5376  -15.5396   25.3128 C   0  0  0  0  0  0  0  0  0  0  0  0
   10.7830  -15.4070   25.2952 O   0  0  0  0  0  0  0  0  0  0  0  0
    8.5910  -13.1306   28.0281 C   0  0  0  0  0  0  0  0  0  0  0  0
    9.5206  -14.1377   27.3751 C   0  0  2  0  0  0  0  0  0  0  0  0
    8.8389  -14.9361   26.3902 N   0  0  0  0  0  0  0  0  0  0  0  0
   10.0178  -15.0642   28.4302 C   0  0  0  0  0  0  0  0  0  0  0  0
   10.8662  -14.6854   29.4460 O   0  0  0  0  0  0  0  0  0  0  0  0
    9.6255  -16.2595   28.3687 O   0  0  0  0  0  0  0  0  0  0  0  0
  2  1  1  6
  2  3  1  0
  4  3  1  0
  5  4  1  0
  6  5  1  0
  6  7  1  0
  8  2  1  0
  9  8  2  0
 10 11  1  0
 11 12  2  0
 13 11  1  0
 14 13  1  1
 14 15  1  0
 15  8  1  0
 16 14  1  0
 16 20  1  0
 17 16  2  0
 19 18  1  1
 19 21  1  0
 19 20  1  0
 21 22  1  0
 23 21  2  0
M  END
$$$$
