GEP.pdb
     RDKit          3D

 21 21  0  0  1  0  0  0  0  0999 V2000
   18.5613  -20.8663  -10.9885 N   0  0  0  0  0  0  0  0  0  0  0  0
   19.2670  -22.1431  -10.8828 C   0  0  0  0  0  0  0  0  0  0  0  0
   18.4210  -23.1149  -10.1391 C   0  0  0  0  0  0  0  0  0  0  0  0
   17.1975  -22.9093   -9.9053 O   0  0  0  0  0  0  0  0  0  0  0  0
   19.0181  -24.3087   -9.6820 N   0  0  0  0  0  0  0  0  0  0  0  0
   18.2944  -25.3740   -9.0125 C   0  0  1  0  0  0  0  0  0  0  0  0
   18.7280  -26.6536   -9.6667 C   0  0  0  0  0  0  0  0  0  0  0  0
   18.0080  -26.7377  -10.9999 C   0  0  0  0  0  0  0  0  0  0  0  0
   17.2640  -27.9874  -11.1624 C   0  0  0  0  0  0  0  0  0  0  0  0
   16.0598  -28.0011  -11.5051 O   0  0  0  0  0  0  0  0  0  0  0  0
   18.6021  -25.3064   -7.5622 C   0  0  0  0  0  0  0  0  0  0  0  0
   19.8128  -25.4800   -7.3016 O   0  0  0  0  0  0  0  0  0  0  0  0
   17.8892  -29.2042  -10.9360 O   0  0  0  0  0  0  0  0  0  0  0  0
   17.6679  -25.0744   -6.5580 N   0  0  0  0  0  0  0  0  0  0  0  0
   16.4260  -24.2733   -6.6408 C   0  0  0  0  0  0  0  0  0  0  0  0
   15.4266  -25.2641   -6.0860 C   0  0  0  0  0  0  0  0  0  0  0  0
   16.2465  -26.2459   -5.2310 C   0  0  0  0  0  0  0  0  0  0  0  0
   17.5840  -25.4947   -5.2042 C   0  0  1  0  0  0  0  0  0  0  0  0
   18.6253  -26.1832   -4.5301 C   0  0  0  0  0  0  0  0  0  0  0  0
   19.1658  -27.1872   -5.1243 O   0  0  0  0  0  0  0  0  0  0  0  0
   19.1311  -25.9049   -3.3037 O   0  0  0  0  0  0  0  0  0  0  0  0
  2  1  1  0
  3  2  1  0
  4  3  2  0
  5  3  1  0
  6  5  1  0
  6 11  1  0
  6  7  1  6
  8  7  1  0
  9  8  1  0
 10  9  2  0
 11 12  2  0
 13  9  1  0
 14 11  1  0
 14 18  1  0
 15 14  1  0
 16 15  1  0
 16 17  1  0
 17 18  1  0
 18 19  1  6
 19 20  2  0
 19 21  1  0
M  END
$$$$
