GEP.pdb
     RDKit          3D

 21 21  0  0  1  0  0  0  0  0999 V2000
   13.8612  -11.7016  -14.1761 N   0  0  0  0  0  0  0  0  0  0  0  0
   14.5444  -10.4457  -14.4846 C   0  0  0  0  0  0  0  0  0  0  0  0
   15.9033  -10.7397  -15.0139 C   0  0  0  0  0  0  0  0  0  0  0  0
   16.2171  -11.8666  -15.4888 O   0  0  0  0  0  0  0  0  0  0  0  0
   16.8710   -9.7136  -14.9792 N   0  0  0  0  0  0  0  0  0  0  0  0
   18.1733   -9.8038  -15.6140 C   0  0  1  0  0  0  0  0  0  0  0  0
   17.9149  -10.0360  -17.0743 C   0  0  0  0  0  0  0  0  0  0  0  0
   16.9807   -8.9350  -17.5412 C   0  0  0  0  0  0  0  0  0  0  0  0
   17.1962   -8.5671  -18.9412 C   0  0  0  0  0  0  0  0  0  0  0  0
   18.3447   -8.4163  -19.4167 O   0  0  0  0  0  0  0  0  0  0  0  0
   18.9190   -8.5531  -15.3272 C   0  0  0  0  0  0  0  0  0  0  0  0
   18.3113   -7.5190  -15.6813 O   0  0  0  0  0  0  0  0  0  0  0  0
   16.1130   -8.3744  -19.7850 O   0  0  0  0  0  0  0  0  0  0  0  0
   20.1715   -8.4908  -14.7254 N   0  0  0  0  0  0  0  0  0  0  0  0
   20.8824   -9.5643  -13.9952 C   0  0  0  0  0  0  0  0  0  0  0  0
   22.2232   -9.5260  -14.6945 C   0  0  0  0  0  0  0  0  0  0  0  0
   22.3357   -8.1157  -15.2993 C   0  0  0  0  0  0  0  0  0  0  0  0
   21.1350   -7.4539  -14.6108 C   0  0  1  0  0  0  0  0  0  0  0  0
   20.8981   -6.1143  -15.0136 C   0  0  0  0  0  0  0  0  0  0  0  0
   20.5225   -5.9082  -16.2259 O   0  0  0  0  0  0  0  0  0  0  0  0
   21.0247   -4.9970  -14.2568 O   0  0  0  0  0  0  0  0  0  0  0  0
  2  1  1  0
  3  2  1  0
  4  3  2  0
  5  3  1  0
  6  5  1  0
  6 11  1  0
  6  7  1  6
  8  7  1  0
  9  8  1  0
 10  9  2  0
 11 12  2  0
 13  9  1  0
 14 11  1  0
 14 18  1  0
 15 14  1  0
 16 15  1  0
 16 17  1  0
 17 18  1  0
 18 19  1  6
 19 20  2  0
 19 21  1  0
M  END
$$$$
