GEP.pdb
     RDKit          3D

 21 21  0  0  1  0  0  0  0  0999 V2000
   15.8288  -22.2746    1.3824 N   0  0  0  0  0  0  0  0  0  0  0  0
   15.3335  -21.5333    2.5420 C   0  0  0  0  0  0  0  0  0  0  0  0
   16.4253  -20.6827    3.0876 C   0  0  0  0  0  0  0  0  0  0  0  0
   17.6022  -20.7143    2.6315 O   0  0  0  0  0  0  0  0  0  0  0  0
   16.1240  -19.8110    4.1553 N   0  0  0  0  0  0  0  0  0  0  0  0
   17.1043  -18.9714    4.8195 C   0  0  1  0  0  0  0  0  0  0  0  0
   16.3555  -17.7768    5.3348 C   0  0  0  0  0  0  0  0  0  0  0  0
   17.3819  -16.8335    5.9346 C   0  0  0  0  0  0  0  0  0  0  0  0
   16.7819  -15.6077    6.4629 C   0  0  0  0  0  0  0  0  0  0  0  0
   15.5458  -15.4100    6.4340 O   0  0  0  0  0  0  0  0  0  0  0  0
   17.7609  -19.7731    5.8819 C   0  0  0  0  0  0  0  0  0  0  0  0
   16.9570  -20.2583    6.7078 O   0  0  0  0  0  0  0  0  0  0  0  0
   17.5849  -14.6221    7.0164 O   0  0  0  0  0  0  0  0  0  0  0  0
   19.1310  -19.9898    5.9865 N   0  0  0  0  0  0  0  0  0  0  0  0
   20.1608  -19.8133    4.9380 C   0  0  0  0  0  0  0  0  0  0  0  0
   21.1602  -18.9547    5.6812 C   0  0  0  0  0  0  0  0  0  0  0  0
   20.9054  -19.2203    7.1752 C   0  0  0  0  0  0  0  0  0  0  0  0
   19.9592  -20.4221    7.0559 C   0  0  1  0  0  0  0  0  0  0  0  0
   19.4574  -20.8936    8.2963 C   0  0  0  0  0  0  0  0  0  0  0  0
   18.4592  -20.2722    8.8167 O   0  0  0  0  0  0  0  0  0  0  0  0
   19.9153  -21.9453    9.0185 O   0  0  0  0  0  0  0  0  0  0  0  0
  2  1  1  0
  3  2  1  0
  4  3  2  0
  5  3  1  0
  6  5  1  0
  6 11  1  0
  6  7  1  1
  8  7  1  0
  9  8  1  0
 10  9  2  0
 11 12  2  0
 13  9  1  0
 14 11  1  0
 14 18  1  0
 15 14  1  0
 16 15  1  0
 16 17  1  0
 17 18  1  0
 18 19  1  1
 19 20  2  0
 19 21  1  0
M  END
$$$$
