GEP.pdb
     RDKit          3D

 21 21  0  0  1  0  0  0  0  0999 V2000
   14.9147   -8.2491   -8.1077 N   0  0  0  0  0  0  0  0  0  0  0  0
   15.6282   -7.1220   -8.7077 C   0  0  0  0  0  0  0  0  0  0  0  0
   16.4281   -7.6039   -9.8658 C   0  0  0  0  0  0  0  0  0  0  0  0
   16.6117   -8.8309  -10.0998 O   0  0  0  0  0  0  0  0  0  0  0  0
   16.9990   -6.6454  -10.7295 N   0  0  0  0  0  0  0  0  0  0  0  0
   17.6002   -6.9637  -12.0117 C   0  0  1  0  0  0  0  0  0  0  0  0
   16.6584   -6.4445  -13.0590 C   0  0  0  0  0  0  0  0  0  0  0  0
   17.1909   -6.9044  -14.4035 C   0  0  0  0  0  0  0  0  0  0  0  0
   16.1579   -6.9358  -15.4396 C   0  0  0  0  0  0  0  0  0  0  0  0
   15.5437   -5.9037  -15.7935 O   0  0  0  0  0  0  0  0  0  0  0  0
   18.9498   -6.3482  -12.0591 C   0  0  0  0  0  0  0  0  0  0  0  0
   18.9417   -5.1145  -11.8545 O   0  0  0  0  0  0  0  0  0  0  0  0
   15.8324   -8.1313  -16.0620 O   0  0  0  0  0  0  0  0  0  0  0  0
   20.1332   -7.0373  -12.3031 N   0  0  0  0  0  0  0  0  0  0  0  0
   20.4196   -8.4675  -12.0508 C   0  0  0  0  0  0  0  0  0  0  0  0
   20.9691   -8.8761  -13.3996 C   0  0  0  0  0  0  0  0  0  0  0  0
   21.4763   -7.5781  -14.0516 C   0  0  0  0  0  0  0  0  0  0  0  0
   21.3862   -6.6403  -12.8407 C   0  0  1  0  0  0  0  0  0  0  0  0
   21.7284   -5.2923  -13.1211 C   0  0  0  0  0  0  0  0  0  0  0  0
   20.9124   -4.6006  -13.8345 O   0  0  0  0  0  0  0  0  0  0  0  0
   22.8401   -4.6291  -12.7195 O   0  0  0  0  0  0  0  0  0  0  0  0
  2  1  1  0
  3  2  1  0
  4  3  2  0
  5  3  1  0
  6  5  1  0
  6 11  1  0
  6  7  1  6
  8  7  1  0
  9  8  1  0
 10  9  2  0
 11 12  2  0
 13  9  1  0
 14 11  1  0
 14 18  1  0
 15 14  1  0
 16 15  1  0
 16 17  1  0
 17 18  1  0
 18 19  1  6
 19 20  2  0
 19 21  1  0
M  END
$$$$
