GEP.pdb
     RDKit          3D

 21 21  0  0  1  0  0  0  0  0999 V2000
   23.9321  -19.7668  -14.7916 N   0  0  0  0  0  0  0  0  0  0  0  0
   22.7871  -18.9443  -14.4019 C   0  0  0  0  0  0  0  0  0  0  0  0
   22.3459  -18.1288  -15.5654 C   0  0  0  0  0  0  0  0  0  0  0  0
   22.8955  -18.2114  -16.6990 O   0  0  0  0  0  0  0  0  0  0  0  0
   21.2717  -17.2321  -15.3848 N   0  0  0  0  0  0  0  0  0  0  0  0
   20.6873  -16.4398  -16.4514 C   0  0  1  0  0  0  0  0  0  0  0  0
   19.4111  -17.1293  -16.8376 C   0  0  0  0  0  0  0  0  0  0  0  0
   18.8705  -16.4118  -18.0606 C   0  0  0  0  0  0  0  0  0  0  0  0
   19.4440  -16.9141  -19.3098 C   0  0  0  0  0  0  0  0  0  0  0  0
   19.1667  -18.0509  -19.7555 O   0  0  0  0  0  0  0  0  0  0  0  0
   20.4950  -15.0556  -15.9518 C   0  0  0  0  0  0  0  0  0  0  0  0
   19.5848  -14.9559  -15.1000 O   0  0  0  0  0  0  0  0  0  0  0  0
   20.3222  -16.1267  -20.0388 O   0  0  0  0  0  0  0  0  0  0  0  0
   21.2318  -13.9493  -16.3620 N   0  0  0  0  0  0  0  0  0  0  0  0
   22.5366  -13.9358  -17.0606 C   0  0  0  0  0  0  0  0  0  0  0  0
   22.2172  -13.0112  -18.2143 C   0  0  0  0  0  0  0  0  0  0  0  0
   21.0208  -12.1635  -17.7477 C   0  0  0  0  0  0  0  0  0  0  0  0
   21.0061  -12.5508  -16.2632 C   0  0  1  0  0  0  0  0  0  0  0  0
   19.9403  -11.9781  -15.5224 C   0  0  0  0  0  0  0  0  0  0  0  0
   18.7690  -12.4906  -15.6594 O   0  0  0  0  0  0  0  0  0  0  0  0
   20.0084  -10.9285  -14.6675 O   0  0  0  0  0  0  0  0  0  0  0  0
  2  1  1  0
  3  2  1  0
  4  3  2  0
  5  3  1  0
  6  5  1  0
  6 11  1  0
  6  7  1  1
  8  7  1  0
  9  8  1  0
 10  9  2  0
 11 12  2  0
 13  9  1  0
 14 11  1  0
 14 18  1  0
 15 14  1  0
 16 15  1  0
 16 17  1  0
 17 18  1  0
 18 19  1  6
 19 20  2  0
 19 21  1  0
M  END
$$$$
