GEP.pdb
     RDKit          3D

 21 21  0  0  1  0  0  0  0  0999 V2000
   16.4128  -11.7970  -14.4612 N   0  0  0  0  0  0  0  0  0  0  0  0
   16.3873  -10.3392  -14.3449 C   0  0  0  0  0  0  0  0  0  0  0  0
   17.5384   -9.7640  -15.0917 C   0  0  0  0  0  0  0  0  0  0  0  0
   18.3541  -10.4797  -15.7369 O   0  0  0  0  0  0  0  0  0  0  0  0
   17.7164   -8.3646  -15.0718 N   0  0  0  0  0  0  0  0  0  0  0  0
   18.7126   -7.6615  -15.8593 C   0  0  1  0  0  0  0  0  0  0  0  0
   17.9538   -6.8089  -16.8343 C   0  0  0  0  0  0  0  0  0  0  0  0
   17.3687   -7.7413  -17.8790 C   0  0  0  0  0  0  0  0  0  0  0  0
   15.9448   -7.5011  -18.1167 C   0  0  0  0  0  0  0  0  0  0  0  0
   15.3581   -6.4939  -17.6594 O   0  0  0  0  0  0  0  0  0  0  0  0
   19.5786   -6.8898  -14.9336 C   0  0  0  0  0  0  0  0  0  0  0  0
   18.9484   -6.0724  -14.2274 O   0  0  0  0  0  0  0  0  0  0  0  0
   15.2029   -8.4006  -18.8671 O   0  0  0  0  0  0  0  0  0  0  0  0
   20.9586   -7.0299  -14.8282 N   0  0  0  0  0  0  0  0  0  0  0  0
   21.7846   -8.1968  -15.2114 C   0  0  0  0  0  0  0  0  0  0  0  0
   22.8324   -7.5185  -16.0659 C   0  0  0  0  0  0  0  0  0  0  0  0
   22.8491   -6.0482  -15.6129 C   0  0  0  0  0  0  0  0  0  0  0  0
   21.9812   -6.1666  -14.3533 C   0  0  1  0  0  0  0  0  0  0  0  0
   21.7267   -4.9316  -13.7031 C   0  0  0  0  0  0  0  0  0  0  0  0
   20.8157   -4.1692  -14.1951 O   0  0  0  0  0  0  0  0  0  0  0  0
   22.3444   -4.4448  -12.5991 O   0  0  0  0  0  0  0  0  0  0  0  0
  2  1  1  0
  3  2  1  0
  4  3  2  0
  5  3  1  0
  6  5  1  0
  6 11  1  0
  6  7  1  6
  8  7  1  0
  9  8  1  0
 10  9  2  0
 11 12  2  0
 13  9  1  0
 14 11  1  0
 14 18  1  0
 15 14  1  0
 16 15  1  0
 16 17  1  0
 17 18  1  0
 18 19  1  6
 19 20  2  0
 19 21  1  0
M  END
$$$$
