GEP.pdb
     RDKit          3D

 21 21  0  0  1  0  0  0  0  0999 V2000
   17.9724  -12.9768  -15.9396 N   0  0  0  0  0  0  0  0  0  0  0  0
   18.1602  -11.7988  -15.0932 C   0  0  0  0  0  0  0  0  0  0  0  0
   18.4914  -10.6256  -15.9460 C   0  0  0  0  0  0  0  0  0  0  0  0
   18.1756  -10.5636  -17.1668 O   0  0  0  0  0  0  0  0  0  0  0  0
   19.1849   -9.5464  -15.3587 N   0  0  0  0  0  0  0  0  0  0  0  0
   19.2195   -8.2053  -15.9131 C   0  0  1  0  0  0  0  0  0  0  0  0
   17.8024   -7.7105  -15.9072 C   0  0  0  0  0  0  0  0  0  0  0  0
   17.8079   -6.3379  -16.5546 C   0  0  0  0  0  0  0  0  0  0  0  0
   16.7243   -5.4811  -16.0716 C   0  0  0  0  0  0  0  0  0  0  0  0
   16.6782   -4.2586  -16.3384 O   0  0  0  0  0  0  0  0  0  0  0  0
   20.1455   -7.3857  -15.0925 C   0  0  0  0  0  0  0  0  0  0  0  0
   19.6640   -7.0441  -13.9901 O   0  0  0  0  0  0  0  0  0  0  0  0
   15.7079   -6.0155  -15.2944 O   0  0  0  0  0  0  0  0  0  0  0  0
   21.4303   -7.0117  -15.4725 N   0  0  0  0  0  0  0  0  0  0  0  0
   22.2923   -7.6390  -16.4993 C   0  0  0  0  0  0  0  0  0  0  0  0
   22.6798   -6.4214  -17.3089 C   0  0  0  0  0  0  0  0  0  0  0  0
   22.5050   -5.2210  -16.3624 C   0  0  0  0  0  0  0  0  0  0  0  0
   22.2989   -5.9741  -15.0418 C   0  0  1  0  0  0  0  0  0  0  0  0
   22.0293   -5.1360  -13.9292 C   0  0  0  0  0  0  0  0  0  0  0  0
   22.6736   -5.3578  -12.8389 O   0  0  0  0  0  0  0  0  0  0  0  0
   21.1512   -4.1049  -13.8745 O   0  0  0  0  0  0  0  0  0  0  0  0
  2  1  1  0
  3  2  1  0
  4  3  2  0
  5  3  1  0
  6  5  1  0
  6 11  1  0
  6  7  1  1
  8  7  1  0
  9  8  1  0
 10  9  2  0
 11 12  2  0
 13  9  1  0
 14 11  1  0
 14 18  1  0
 15 14  1  0
 16 15  1  0
 16 17  1  0
 17 18  1  0
 18 19  1  1
 19 20  2  0
 19 21  1  0
M  END
$$$$
