GEP.pdb
     RDKit          3D

 21 21  0  0  1  0  0  0  0  0999 V2000
   19.0930  -18.6275  -13.6063 N   0  0  0  0  0  0  0  0  0  0  0  0
   20.3163  -18.9025  -14.3594 C   0  0  0  0  0  0  0  0  0  0  0  0
   21.1687  -19.8477  -13.5891 C   0  0  0  0  0  0  0  0  0  0  0  0
   20.8940  -20.2009  -12.4085 O   0  0  0  0  0  0  0  0  0  0  0  0
   22.3257  -20.3634  -14.2103 N   0  0  0  0  0  0  0  0  0  0  0  0
   23.2745  -21.2453  -13.5553 C   0  0  1  0  0  0  0  0  0  0  0  0
   23.3990  -22.4565  -14.4332 C   0  0  0  0  0  0  0  0  0  0  0  0
   24.2689  -23.4552  -13.6923 C   0  0  0  0  0  0  0  0  0  0  0  0
   24.6227  -24.6143  -14.5128 C   0  0  0  0  0  0  0  0  0  0  0  0
   24.9590  -25.7077  -14.0037 O   0  0  0  0  0  0  0  0  0  0  0  0
   24.5471  -20.5047  -13.3692 C   0  0  0  0  0  0  0  0  0  0  0  0
   25.0435  -20.0912  -14.4400 O   0  0  0  0  0  0  0  0  0  0  0  0
   24.5920  -24.5234  -15.8960 O   0  0  0  0  0  0  0  0  0  0  0  0
   25.1621  -20.2700  -12.1438 N   0  0  0  0  0  0  0  0  0  0  0  0
   24.5171  -20.0946  -10.8231 C   0  0  0  0  0  0  0  0  0  0  0  0
   25.3082  -21.0877  -10.0009 C   0  0  0  0  0  0  0  0  0  0  0  0
   26.6421  -21.2733  -10.7451 C   0  0  0  0  0  0  0  0  0  0  0  0
   26.5218  -20.1286  -11.7595 C   0  0  1  0  0  0  0  0  0  0  0  0
   27.5952  -20.0546  -12.6842 C   0  0  0  0  0  0  0  0  0  0  0  0
   28.2712  -18.9620  -12.7350 O   0  0  0  0  0  0  0  0  0  0  0  0
   28.0038  -21.0198  -13.5437 O   0  0  0  0  0  0  0  0  0  0  0  0
  2  1  1  0
  3  2  1  0
  4  3  2  0
  5  3  1  0
  6  5  1  0
  6 11  1  0
  6  7  1  6
  8  7  1  0
  9  8  1  0
 10  9  2  0
 11 12  2  0
 13  9  1  0
 14 11  1  0
 14 18  1  0
 15 14  1  0
 16 15  1  0
 16 17  1  0
 17 18  1  0
 18 19  1  6
 19 20  2  0
 19 21  1  0
M  END
$$$$
