GEP.pdb
     RDKit          3D

 21 21  0  0  1  0  0  0  0  0999 V2000
   17.3631  -14.6726  -16.3210 N   0  0  0  0  0  0  0  0  0  0  0  0
   17.5743  -13.2611  -16.6414 C   0  0  0  0  0  0  0  0  0  0  0  0
   17.8397  -12.5045  -15.3882 C   0  0  0  0  0  0  0  0  0  0  0  0
   17.6408  -12.9976  -14.2431 O   0  0  0  0  0  0  0  0  0  0  0  0
   18.3323  -11.1867  -15.4942 N   0  0  0  0  0  0  0  0  0  0  0  0
   18.6314  -10.3376  -14.3556 C   0  0  1  0  0  0  0  0  0  0  0  0
   19.8149   -9.5035  -14.7516 C   0  0  0  0  0  0  0  0  0  0  0  0
   20.2667   -8.7552  -13.5111 C   0  0  0  0  0  0  0  0  0  0  0  0
   21.3511   -7.8112  -13.7843 C   0  0  0  0  0  0  0  0  0  0  0  0
   22.5519   -8.1660  -13.7901 O   0  0  0  0  0  0  0  0  0  0  0  0
   17.4185   -9.5451  -14.0340 C   0  0  0  0  0  0  0  0  0  0  0  0
   17.0470   -8.8022  -14.9688 O   0  0  0  0  0  0  0  0  0  0  0  0
   21.0655   -6.4800  -14.0471 O   0  0  0  0  0  0  0  0  0  0  0  0
   16.7308   -9.5932  -12.8258 N   0  0  0  0  0  0  0  0  0  0  0  0
   16.7845  -10.6512  -11.7920 C   0  0  0  0  0  0  0  0  0  0  0  0
   17.0548   -9.8144  -10.5612 C   0  0  0  0  0  0  0  0  0  0  0  0
   16.5530   -8.4005  -10.9024 C   0  0  0  0  0  0  0  0  0  0  0  0
   15.8071   -8.7098  -12.2069 C   0  0  1  0  0  0  0  0  0  0  0  0
   15.2604   -7.5694  -12.8498 C   0  0  0  0  0  0  0  0  0  0  0  0
   16.0772   -6.6973  -13.3248 O   0  0  0  0  0  0  0  0  0  0  0  0
   13.9482   -7.2794  -13.0268 O   0  0  0  0  0  0  0  0  0  0  0  0
  2  1  1  0
  3  2  1  0
  4  3  2  0
  5  3  1  0
  6  5  1  0
  6 11  1  0
  6  7  1  6
  8  7  1  0
  9  8  1  0
 10  9  2  0
 11 12  2  0
 13  9  1  0
 14 11  1  0
 14 18  1  0
 15 14  1  0
 16 15  1  0
 16 17  1  0
 17 18  1  0
 18 19  1  6
 19 20  2  0
 19 21  1  0
M  END
$$$$
