GEP.pdb
     RDKit          3D

 21 21  0  0  1  0  0  0  0  0999 V2000
   19.6766  -20.4044  -12.9679 N   0  0  0  0  0  0  0  0  0  0  0  0
   20.5666  -20.4974  -14.1249 C   0  0  0  0  0  0  0  0  0  0  0  0
   21.8615  -19.8380  -13.8062 C   0  0  0  0  0  0  0  0  0  0  0  0
   21.9280  -18.7158  -13.2316 O   0  0  0  0  0  0  0  0  0  0  0  0
   23.0551  -20.4999  -14.1639 N   0  0  0  0  0  0  0  0  0  0  0  0
   24.3836  -19.9818  -13.8927 C   0  0  1  0  0  0  0  0  0  0  0  0
   25.0518  -20.9840  -12.9970 C   0  0  0  0  0  0  0  0  0  0  0  0
   26.4143  -20.4207  -12.6377 C   0  0  0  0  0  0  0  0  0  0  0  0
   27.1459  -21.2688  -11.6959 C   0  0  0  0  0  0  0  0  0  0  0  0
   26.6045  -22.2414  -11.1226 O   0  0  0  0  0  0  0  0  0  0  0  0
   25.0775  -19.7776  -15.1886 C   0  0  0  0  0  0  0  0  0  0  0  0
   25.1227  -20.8073  -15.8968 O   0  0  0  0  0  0  0  0  0  0  0  0
   28.4783  -21.0078  -11.4142 O   0  0  0  0  0  0  0  0  0  0  0  0
   25.6363  -18.5769  -15.6143 N   0  0  0  0  0  0  0  0  0  0  0  0
   25.4400  -17.2286  -15.0358 C   0  0  0  0  0  0  0  0  0  0  0  0
   26.8788  -16.7907  -14.8741 C   0  0  0  0  0  0  0  0  0  0  0  0
   27.6845  -17.6340  -15.8777 C   0  0  0  0  0  0  0  0  0  0  0  0
   26.5251  -18.2492  -16.6722 C   0  0  1  0  0  0  0  0  0  0  0  0
   26.9287  -19.1710  -17.6722 C   0  0  0  0  0  0  0  0  0  0  0  0
   27.3351  -20.3304  -17.2929 O   0  0  0  0  0  0  0  0  0  0  0  0
   26.9399  -18.9720  -19.0129 O   0  0  0  0  0  0  0  0  0  0  0  0
  2  1  1  0
  3  2  1  0
  4  3  2  0
  5  3  1  0
  6  5  1  0
  6 11  1  0
  6  7  1  1
  8  7  1  0
  9  8  1  0
 10  9  2  0
 11 12  2  0
 13  9  1  0
 14 11  1  0
 14 18  1  0
 15 14  1  0
 16 15  1  0
 16 17  1  0
 17 18  1  0
 18 19  1  1
 19 20  2  0
 19 21  1  0
M  END
$$$$
