KYL.pdb
     RDKit          3D

 30 30  0  0  1  0  0  0  0  0999 V2000
    4.8353  -19.9989   20.9767 N   0  0  0  0  0  0  0  0  0  0  0  0
    4.2809  -18.8024   21.5131 C   0  0  1  0  0  0  0  0  0  0  0  0
    2.8238  -18.6610   21.5664 C   0  0  0  0  0  0  0  0  0  0  0  0
    1.9609  -19.0972   20.4655 C   0  0  0  0  0  0  0  0  0  0  0  0
    2.3988  -19.4655   19.1322 C   0  0  0  0  0  0  0  0  0  0  0  0
    1.4854  -19.8314   18.0442 C   0  0  0  0  0  0  0  0  0  0  0  0
    0.4217  -20.7445   18.4185 N   0  0  0  0  0  0  0  0  0  0  0  0
    4.9423  -18.4237   22.8113 C   0  0  0  0  0  0  0  0  0  0  0  0
    4.4405  -17.4991   23.4984 O   0  0  0  0  0  0  0  0  0  0  0  0
    9.7890  -19.0422   30.2419 O   0  0  0  0  0  0  0  0  0  0  0  0
    9.2531  -19.2273   28.9545 C   0  0  0  0  0  0  0  0  0  0  0  0
    8.1908  -18.4779   28.5021 C   0  0  0  0  0  0  0  0  0  0  0  0
    7.6566  -18.6580   27.2272 C   0  0  0  0  0  0  0  0  0  0  0  0
    8.1926  -19.6037   26.3878 C   0  0  0  0  0  0  0  0  0  0  0  0
    7.6412  -19.7995   25.0492 C   0  0  0  0  0  0  0  0  0  0  0  0
    6.7049  -18.7314   24.5892 C   0  0  2  0  0  0  0  0  0  0  0  0
    6.1018  -19.0563   23.2982 N   0  0  0  0  0  0  0  0  0  0  0  0
    7.3194  -17.3809   24.5432 C   0  0  0  0  0  0  0  0  0  0  0  0
    8.1521  -17.0696   23.6232 O   0  0  0  0  0  0  0  0  0  0  0  0
    9.2580  -20.3540   26.8439 C   0  0  0  0  0  0  0  0  0  0  0  0
    9.7909  -20.1746   28.1156 C   0  0  0  0  0  0  0  0  0  0  0  0
    5.5599  -11.9231   26.4531 C   0  0  0  0  0  0  0  0  0  0  0  0
    6.7524  -12.6721   25.9579 C   0  0  1  0  0  0  0  0  0  0  0  0
    7.9952  -12.3212   26.7835 C   0  0  0  0  0  0  0  0  0  0  0  0
    6.5601  -14.1106   25.8099 C   0  0  0  0  0  0  0  0  0  0  0  0
    7.6498  -15.0110   25.3306 C   0  0  2  0  0  0  0  0  0  0  0  0
    7.0249  -16.3738   25.4938 N   0  0  0  0  0  0  0  0  0  0  0  0
    8.9001  -14.9781   26.0639 C   0  0  0  0  0  0  0  0  0  0  0  0
    9.1268  -15.4641   27.1921 O   0  0  0  0  0  0  0  0  0  0  0  0
   10.0139  -14.3365   25.4745 O   0  0  0  0  0  0  0  0  0  0  0  0
  2  8  1  0
  2  1  1  1
  3  2  1  0
  4  3  1  0
  5  4  1  0
  6  5  1  0
  6  7  1  0
  8  9  2  0
 10 11  1  0
 11 12  2  0
 12 13  1  0
 14 13  2  0
 14 15  1  0
 16 17  1  0
 16 15  1  6
 17  8  1  0
 18 16  1  0
 19 18  2  0
 20 14  1  0
 21 11  1  0
 21 20  2  0
 23 22  1  1
 23 25  1  0
 24 23  1  0
 26 25  1  1
 26 27  1  0
 27 18  1  0
 28 26  1  0
 28 30  1  0
 29 28  2  0
M  END
$$$$
