KYL.pdb
     RDKit          3D

 30 30  0  0  1  0  0  0  0  0999 V2000
    7.7247  -17.3185   20.1173 N   0  0  0  0  0  0  0  0  0  0  0  0
    7.5810  -16.0745   20.7945 C   0  0  1  0  0  0  0  0  0  0  0  0
    6.5823  -15.1182   20.3108 C   0  0  0  0  0  0  0  0  0  0  0  0
    6.5979  -14.6075   18.9375 C   0  0  0  0  0  0  0  0  0  0  0  0
    7.5054  -13.6063   18.4094 C   0  0  0  0  0  0  0  0  0  0  0  0
    7.4588  -13.1070   17.0308 C   0  0  0  0  0  0  0  0  0  0  0  0
    8.3077  -11.9606   16.7655 N   0  0  0  0  0  0  0  0  0  0  0  0
    7.5183  -16.2648   22.2864 C   0  0  0  0  0  0  0  0  0  0  0  0
    6.9877  -15.3679   22.9886 O   0  0  0  0  0  0  0  0  0  0  0  0
    8.1498  -20.0065   30.3595 O   0  0  0  0  0  0  0  0  0  0  0  0
    8.2128  -19.7447   28.9788 C   0  0  0  0  0  0  0  0  0  0  0  0
    7.0748  -19.6616   28.2089 C   0  0  0  0  0  0  0  0  0  0  0  0
    7.1325  -19.4024   26.8405 C   0  0  0  0  0  0  0  0  0  0  0  0
    8.3490  -19.2227   26.2287 C   0  0  0  0  0  0  0  0  0  0  0  0
    8.4206  -18.9491   24.7954 C   0  0  0  0  0  0  0  0  0  0  0  0
    7.9549  -17.5905   24.3874 C   0  0  2  0  0  0  0  0  0  0  0  0
    8.0270  -17.4032   22.9397 N   0  0  0  0  0  0  0  0  0  0  0  0
    8.6608  -16.4857   25.0836 C   0  0  0  0  0  0  0  0  0  0  0  0
    9.8846  -16.2204   24.8215 O   0  0  0  0  0  0  0  0  0  0  0  0
    9.4889  -19.3065   27.0029 C   0  0  0  0  0  0  0  0  0  0  0  0
    9.4314  -19.5651   28.3680 C   0  0  0  0  0  0  0  0  0  0  0  0
    7.2457  -12.6431   24.7995 C   0  0  0  0  0  0  0  0  0  0  0  0
    7.2682  -12.4344   26.2774 C   0  0  1  0  0  0  0  0  0  0  0  0
    5.9437  -11.8337   26.7611 C   0  0  0  0  0  0  0  0  0  0  0  0
    7.6806  -13.5955   27.0585 C   0  0  0  0  0  0  0  0  0  0  0  0
    8.7892  -14.4933   26.6195 C   0  0  2  0  0  0  0  0  0  0  0  0
    8.0344  -15.6722   26.0585 N   0  0  0  0  0  0  0  0  0  0  0  0
    9.6988  -14.9647   27.6454 C   0  0  0  0  0  0  0  0  0  0  0  0
   10.6882  -14.3619   28.1124 O   0  0  0  0  0  0  0  0  0  0  0  0
    9.4792  -16.2427   28.2096 O   0  0  0  0  0  0  0  0  0  0  0  0
  2  8  1  0
  2  1  1  6
  3  2  1  0
  4  3  1  0
  5  4  1  0
  6  5  1  0
  6  7  1  0
  8  9  2  0
 10 11  1  0
 11 12  2  0
 12 13  1  0
 14 13  2  0
 14 15  1  0
 16 17  1  0
 16 15  1  6
 17  8  1  0
 18 16  1  0
 19 18  2  0
 20 14  1  0
 21 11  1  0
 21 20  2  0
 23 22  1  6
 23 25  1  0
 24 23  1  0
 26 25  1  1
 26 27  1  0
 27 18  1  0
 28 26  1  0
 28 30  1  0
 29 28  2  0
M  END
$$$$
