KYL.pdb
     RDKit          3D

 30 30  0  0  1  0  0  0  0  0999 V2000
    8.6530  -16.9316   19.9226 N   0  0  0  0  0  0  0  0  0  0  0  0
    8.4980  -15.7640   20.7223 C   0  0  1  0  0  0  0  0  0  0  0  0
    7.4060  -14.8371   20.4148 C   0  0  0  0  0  0  0  0  0  0  0  0
    7.3367  -14.1142   19.1422 C   0  0  0  0  0  0  0  0  0  0  0  0
    8.3188  -14.1677   18.0756 C   0  0  0  0  0  0  0  0  0  0  0  0
    8.1312  -13.5460   16.7602 C   0  0  0  0  0  0  0  0  0  0  0  0
    8.5099  -12.1473   16.6843 N   0  0  0  0  0  0  0  0  0  0  0  0
    8.5798  -16.0880   22.1901 C   0  0  0  0  0  0  0  0  0  0  0  0
    7.5382  -16.0007   22.8876 O   0  0  0  0  0  0  0  0  0  0  0  0
   11.4960  -18.9726   30.0833 O   0  0  0  0  0  0  0  0  0  0  0  0
   11.3774  -18.6368   28.7224 C   0  0  0  0  0  0  0  0  0  0  0  0
   10.4242  -19.2186   27.9175 C   0  0  0  0  0  0  0  0  0  0  0  0
   10.3032  -18.8888   26.5686 C   0  0  0  0  0  0  0  0  0  0  0  0
   11.1492  -17.9609   26.0122 C   0  0  0  0  0  0  0  0  0  0  0  0
   11.0299  -17.6071   24.5998 C   0  0  0  0  0  0  0  0  0  0  0  0
    9.8618  -16.7407   24.2619 C   0  0  2  0  0  0  0  0  0  0  0  0
    9.7710  -16.4865   22.8256 N   0  0  0  0  0  0  0  0  0  0  0  0
    9.8341  -15.4603   25.0125 C   0  0  0  0  0  0  0  0  0  0  0  0
   10.7073  -14.5515   24.7929 O   0  0  0  0  0  0  0  0  0  0  0  0
   12.1043  -17.3788   26.8215 C   0  0  0  0  0  0  0  0  0  0  0  0
   12.2252  -17.7077   28.1671 C   0  0  0  0  0  0  0  0  0  0  0  0
    5.6411  -12.1857   26.0144 C   0  0  0  0  0  0  0  0  0  0  0  0
    7.0505  -12.6289   25.8019 C   0  0  1  0  0  0  0  0  0  0  0  0
    7.9344  -11.4475   25.3867 C   0  0  0  0  0  0  0  0  0  0  0  0
    7.6242  -13.4073   26.8943 C   0  0  0  0  0  0  0  0  0  0  0  0
    9.0194  -13.9351   26.8444 C   0  0  2  0  0  0  0  0  0  0  0  0
    8.8569  -15.1708   25.9954 N   0  0  0  0  0  0  0  0  0  0  0  0
    9.6259  -14.3104   28.1066 C   0  0  0  0  0  0  0  0  0  0  0  0
   10.3025  -13.5841   28.8649 O   0  0  0  0  0  0  0  0  0  0  0  0
    9.4577  -15.6355   28.5710 O   0  0  0  0  0  0  0  0  0  0  0  0
  2  8  1  0
  2  1  1  6
  3  2  1  0
  4  3  1  0
  5  4  1  0
  6  5  1  0
  6  7  1  0
  8  9  2  0
 10 11  1  0
 11 12  2  0
 12 13  1  0
 14 13  2  0
 14 15  1  0
 16 17  1  0
 16 15  1  6
 17  8  1  0
 18 16  1  0
 19 18  2  0
 20 14  1  0
 21 11  1  0
 21 20  2  0
 23 22  1  1
 23 25  1  0
 24 23  1  0
 26 25  1  1
 26 27  1  0
 27 18  1  0
 28 26  1  0
 28 30  1  0
 29 28  2  0
M  END
$$$$
