KYL.pdb
     RDKit          3D

 30 30  0  0  1  0  0  0  0  0999 V2000
    9.7013  -18.2614   19.6404 N   0  0  0  0  0  0  0  0  0  0  0  0
   10.1364  -16.9122   19.5088 C   0  0  1  0  0  0  0  0  0  0  0  0
    9.7460  -16.1574   18.3155 C   0  0  0  0  0  0  0  0  0  0  0  0
   10.2887  -16.4659   16.9900 C   0  0  0  0  0  0  0  0  0  0  0  0
    9.7313  -17.4077   16.0374 C   0  0  0  0  0  0  0  0  0  0  0  0
   10.3389  -17.7111   14.7372 C   0  0  0  0  0  0  0  0  0  0  0  0
    9.6926  -18.7756   13.9925 N   0  0  0  0  0  0  0  0  0  0  0  0
    9.9113  -16.1356   20.7785 C   0  0  0  0  0  0  0  0  0  0  0  0
   10.4035  -14.9837   20.8781 O   0  0  0  0  0  0  0  0  0  0  0  0
    5.8716  -11.9062   27.1964 O   0  0  0  0  0  0  0  0  0  0  0  0
    6.2447  -12.8328   26.2059 C   0  0  0  0  0  0  0  0  0  0  0  0
    5.9448  -14.1712   26.3222 C   0  0  0  0  0  0  0  0  0  0  0  0
    6.3126  -15.0928   25.3432 C   0  0  0  0  0  0  0  0  0  0  0  0
    6.9923  -14.6708   24.2268 C   0  0  0  0  0  0  0  0  0  0  0  0
    7.3811  -15.6283   23.1941 C   0  0  0  0  0  0  0  0  0  0  0  0
    8.8521  -15.8378   23.0482 C   0  0  2  0  0  0  0  0  0  0  0  0
    9.1729  -16.6367   21.8672 N   0  0  0  0  0  0  0  0  0  0  0  0
    9.4920  -16.4230   24.2531 C   0  0  0  0  0  0  0  0  0  0  0  0
   10.0785  -17.5586   24.1988 O   0  0  0  0  0  0  0  0  0  0  0  0
    7.2918  -13.3280   24.1124 C   0  0  0  0  0  0  0  0  0  0  0  0
    6.9251  -12.4086   25.0890 C   0  0  0  0  0  0  0  0  0  0  0  0
    9.9855  -13.1599   28.8110 C   0  0  0  0  0  0  0  0  0  0  0  0
   10.3092  -13.9902   27.6135 C   0  0  1  0  0  0  0  0  0  0  0  0
   11.7393  -13.7176   27.1342 C   0  0  0  0  0  0  0  0  0  0  0  0
   10.0219  -15.4137   27.7535 C   0  0  0  0  0  0  0  0  0  0  0  0
   10.2714  -16.3853   26.6482 C   0  0  2  0  0  0  0  0  0  0  0  0
    9.4951  -15.7716   25.5102 N   0  0  0  0  0  0  0  0  0  0  0  0
    9.8095  -17.7445   26.8510 C   0  0  0  0  0  0  0  0  0  0  0  0
   10.4143  -18.6684   27.4349 O   0  0  0  0  0  0  0  0  0  0  0  0
    8.5383  -18.1093   26.3502 O   0  0  0  0  0  0  0  0  0  0  0  0
  2  8  1  0
  2  1  1  1
  3  2  1  0
  4  3  1  0
  5  4  1  0
  6  5  1  0
  6  7  1  0
  8  9  2  0
 10 11  1  0
 11 12  2  0
 12 13  1  0
 14 13  2  0
 14 15  1  0
 16 17  1  0
 16 15  1  1
 17  8  1  0
 18 16  1  0
 19 18  2  0
 20 14  1  0
 21 11  1  0
 21 20  2  0
 23 22  1  1
 23 25  1  0
 24 23  1  0
 26 25  1  1
 26 27  1  0
 27 18  1  0
 28 26  1  0
 28 30  1  0
 29 28  2  0
M  END
$$$$
