KYL.pdb
     RDKit          3D

 30 30  0  0  1  0  0  0  0  0999 V2000
    7.2891  -19.1703   20.5617 N   0  0  0  0  0  0  0  0  0  0  0  0
    7.0671  -18.4295   21.7570 C   0  0  1  0  0  0  0  0  0  0  0  0
    6.7110  -19.1526   22.9802 C   0  0  0  0  0  0  0  0  0  0  0  0
    6.0420  -20.4558   22.9446 C   0  0  0  0  0  0  0  0  0  0  0  0
    5.5113  -21.1743   24.0879 C   0  0  0  0  0  0  0  0  0  0  0  0
    4.8079  -22.4580   23.9915 C   0  0  0  0  0  0  0  0  0  0  0  0
    4.2667  -22.9552   25.2426 N   0  0  0  0  0  0  0  0  0  0  0  0
    8.1561  -17.4157   21.9859 C   0  0  0  0  0  0  0  0  0  0  0  0
    9.3535  -17.7945   21.9432 O   0  0  0  0  0  0  0  0  0  0  0  0
    8.1343  -13.8568   16.2475 O   0  0  0  0  0  0  0  0  0  0  0  0
    8.2718  -13.8353   17.6473 C   0  0  0  0  0  0  0  0  0  0  0  0
    9.4081  -14.3047   18.2665 C   0  0  0  0  0  0  0  0  0  0  0  0
    9.5486  -14.2853   19.6532 C   0  0  0  0  0  0  0  0  0  0  0  0
    8.5362  -13.7882   20.4369 C   0  0  0  0  0  0  0  0  0  0  0  0
    8.6740  -13.7621   21.8911 C   0  0  0  0  0  0  0  0  0  0  0  0
    8.9569  -15.0850   22.5229 C   0  0  2  0  0  0  0  0  0  0  0  0
    7.9004  -16.0563   22.2468 N   0  0  0  0  0  0  0  0  0  0  0  0
    9.2115  -15.0045   23.9831 C   0  0  0  0  0  0  0  0  0  0  0  0
   10.2565  -14.4220   24.4362 O   0  0  0  0  0  0  0  0  0  0  0  0
    7.3976  -13.3182   19.8136 C   0  0  0  0  0  0  0  0  0  0  0  0
    7.2573  -13.3374   18.4303 C   0  0  0  0  0  0  0  0  0  0  0  0
    5.9379  -12.7225   26.8960 C   0  0  0  0  0  0  0  0  0  0  0  0
    7.2879  -13.2564   26.5488 C   0  0  1  0  0  0  0  0  0  0  0  0
    8.3890  -12.3109   27.0419 C   0  0  0  0  0  0  0  0  0  0  0  0
    7.5207  -14.6441   26.9339 C   0  0  0  0  0  0  0  0  0  0  0  0
    8.6752  -15.4301   26.4073 C   0  0  2  0  0  0  0  0  0  0  0  0
    8.3292  -15.5538   24.9447 N   0  0  0  0  0  0  0  0  0  0  0  0
    8.8717  -16.7576   26.9560 C   0  0  0  0  0  0  0  0  0  0  0  0
    8.5725  -17.8470   26.4230 O   0  0  0  0  0  0  0  0  0  0  0  0
    9.4659  -16.8811   28.2333 O   0  0  0  0  0  0  0  0  0  0  0  0
  2  8  1  0
  2  1  1  6
  3  2  1  0
  4  3  1  0
  5  4  1  0
  6  5  1  0
  6  7  1  0
  8  9  2  0
 10 11  1  0
 11 12  2  0
 12 13  1  0
 14 13  2  0
 14 15  1  0
 16 17  1  0
 16 15  1  1
 17  8  1  0
 18 16  1  0
 19 18  2  0
 20 14  1  0
 21 11  1  0
 21 20  2  0
 23 22  1  1
 23 25  1  0
 24 23  1  0
 26 25  1  1
 26 27  1  0
 27 18  1  0
 28 26  1  0
 28 30  1  0
 29 28  2  0
M  END
$$$$
