KYL.pdb
     RDKit          3D

 30 30  0  0  1  0  0  0  0  0999 V2000
    9.8261  -18.8752   20.8028 N   0  0  0  0  0  0  0  0  0  0  0  0
   10.8777  -17.9206   20.9015 C   0  0  1  0  0  0  0  0  0  0  0  0
   11.4822  -17.4058   19.6704 C   0  0  0  0  0  0  0  0  0  0  0  0
   11.5343  -18.2002   18.4403 C   0  0  0  0  0  0  0  0  0  0  0  0
   10.4318  -18.4304   17.5256 C   0  0  0  0  0  0  0  0  0  0  0  0
   10.5332  -19.2513   16.3141 C   0  0  0  0  0  0  0  0  0  0  0  0
   11.6070  -20.2272   16.3235 N   0  0  0  0  0  0  0  0  0  0  0  0
   10.5355  -16.8245   21.8750 C   0  0  0  0  0  0  0  0  0  0  0  0
   11.3472  -15.8777   22.0292 O   0  0  0  0  0  0  0  0  0  0  0  0
    5.7949  -11.3272   27.0093 O   0  0  0  0  0  0  0  0  0  0  0  0
    6.2213  -12.4045   26.2114 C   0  0  0  0  0  0  0  0  0  0  0  0
    6.0276  -13.7103   26.6015 C   0  0  0  0  0  0  0  0  0  0  0  0
    6.4485  -14.7808   25.8141 C   0  0  0  0  0  0  0  0  0  0  0  0
    7.0744  -14.5438   24.6148 C   0  0  0  0  0  0  0  0  0  0  0  0
    7.5181  -15.6586   23.7813 C   0  0  0  0  0  0  0  0  0  0  0  0
    8.9883  -15.7114   23.5270 C   0  0  2  0  0  0  0  0  0  0  0  0
    9.3452  -16.8056   22.6263 N   0  0  0  0  0  0  0  0  0  0  0  0
    9.8042  -15.7791   24.7653 C   0  0  0  0  0  0  0  0  0  0  0  0
   10.7046  -14.9030   25.0069 O   0  0  0  0  0  0  0  0  0  0  0  0
    7.2674  -13.2334   24.2258 C   0  0  0  0  0  0  0  0  0  0  0  0
    6.8477  -12.1654   25.0111 C   0  0  0  0  0  0  0  0  0  0  0  0
   10.4666  -13.3687   28.3856 C   0  0  0  0  0  0  0  0  0  0  0  0
   10.9523  -14.4492   27.4775 C   0  0  1  0  0  0  0  0  0  0  0  0
   12.4843  -14.4945   27.4584 C   0  0  0  0  0  0  0  0  0  0  0  0
   10.3511  -15.7596   27.7004 C   0  0  0  0  0  0  0  0  0  0  0  0
   10.6635  -16.9333   26.8328 C   0  0  2  0  0  0  0  0  0  0  0  0
    9.6368  -16.7952   25.7369 N   0  0  0  0  0  0  0  0  0  0  0  0
   10.5347  -18.2469   27.4326 C   0  0  0  0  0  0  0  0  0  0  0  0
   11.2838  -18.7629   28.2887 O   0  0  0  0  0  0  0  0  0  0  0  0
    9.4553  -19.0696   27.0353 O   0  0  0  0  0  0  0  0  0  0  0  0
  2  8  1  0
  2  1  1  6
  3  2  1  0
  4  3  1  0
  5  4  1  0
  6  5  1  0
  6  7  1  0
  8  9  2  0
 10 11  1  0
 11 12  2  0
 12 13  1  0
 14 13  2  0
 14 15  1  0
 16 17  1  0
 16 15  1  1
 17  8  1  0
 18 16  1  0
 19 18  2  0
 20 14  1  0
 21 11  1  0
 21 20  2  0
 23 22  1  1
 23 25  1  0
 24 23  1  0
 26 25  1  1
 26 27  1  0
 27 18  1  0
 28 26  1  0
 28 30  1  0
 29 28  2  0
M  END
$$$$
