KYL.pdb
     RDKit          3D

 30 30  0  0  1  0  0  0  0  0999 V2000
    6.6843  -17.3358   19.8376 N   0  0  0  0  0  0  0  0  0  0  0  0
    7.6397  -16.4395   20.3949 C   0  0  1  0  0  0  0  0  0  0  0  0
    7.5146  -15.0078   20.1110 C   0  0  0  0  0  0  0  0  0  0  0  0
    7.4819  -14.4881   18.7414 C   0  0  0  0  0  0  0  0  0  0  0  0
    8.5534  -13.7729   18.0741 C   0  0  0  0  0  0  0  0  0  0  0  0
    8.4567  -13.2440   16.7092 C   0  0  0  0  0  0  0  0  0  0  0  0
    9.6808  -12.6641   16.1889 N   0  0  0  0  0  0  0  0  0  0  0  0
    7.8668  -16.7172   21.8569 C   0  0  0  0  0  0  0  0  0  0  0  0
    6.8770  -16.7288   22.6309 O   0  0  0  0  0  0  0  0  0  0  0  0
   11.9202  -18.4191   29.6146 O   0  0  0  0  0  0  0  0  0  0  0  0
   11.5907  -18.2974   28.2525 C   0  0  0  0  0  0  0  0  0  0  0  0
   10.7121  -19.1648   27.6439 C   0  0  0  0  0  0  0  0  0  0  0  0
   10.3827  -19.0480   26.2945 C   0  0  0  0  0  0  0  0  0  0  0  0
   10.9405  -18.0466   25.5380 C   0  0  0  0  0  0  0  0  0  0  0  0
   10.6010  -17.9144   24.1232 C   0  0  0  0  0  0  0  0  0  0  0  0
    9.3746  -17.1113   23.8401 C   0  0  2  0  0  0  0  0  0  0  0  0
    9.1392  -16.9661   22.4050 N   0  0  0  0  0  0  0  0  0  0  0  0
    9.3699  -15.7806   24.4981 C   0  0  0  0  0  0  0  0  0  0  0  0
    9.9113  -14.7677   23.9346 O   0  0  0  0  0  0  0  0  0  0  0  0
   11.8215  -17.1779   26.1506 C   0  0  0  0  0  0  0  0  0  0  0  0
   12.1501  -17.2943   27.4967 C   0  0  0  0  0  0  0  0  0  0  0  0
    7.3708  -11.3863   26.5396 C   0  0  0  0  0  0  0  0  0  0  0  0
    6.9339  -12.6406   27.2207 C   0  0  1  0  0  0  0  0  0  0  0  0
    5.4232  -12.6203   27.4788 C   0  0  0  0  0  0  0  0  0  0  0  0
    7.3822  -13.8757   26.5866 C   0  0  0  0  0  0  0  0  0  0  0  0
    8.8274  -14.1700   26.3574 C   0  0  2  0  0  0  0  0  0  0  0  0
    8.7748  -15.5549   25.7629 N   0  0  0  0  0  0  0  0  0  0  0  0
    9.6867  -14.1938   27.5250 C   0  0  0  0  0  0  0  0  0  0  0  0
   10.3964  -13.2622   27.9594 O   0  0  0  0  0  0  0  0  0  0  0  0
    9.7594  -15.3823   28.2879 O   0  0  0  0  0  0  0  0  0  0  0  0
  2  8  1  0
  2  1  1  1
  3  2  1  0
  4  3  1  0
  5  4  1  0
  6  5  1  0
  6  7  1  0
  8  9  2  0
 10 11  1  0
 11 12  2  0
 12 13  1  0
 14 13  2  0
 14 15  1  0
 16 17  1  0
 16 15  1  6
 17  8  1  0
 18 16  1  0
 19 18  2  0
 20 14  1  0
 21 11  1  0
 21 20  2  0
 23 22  1  6
 23 25  1  0
 24 23  1  0
 26 25  1  1
 26 27  1  0
 27 18  1  0
 28 26  1  0
 28 30  1  0
 29 28  2  0
M  END
$$$$
