KYL.pdb
     RDKit          3D

 30 30  0  0  1  0  0  0  0  0999 V2000
    8.6211  -18.2776   19.4021 N   0  0  0  0  0  0  0  0  0  0  0  0
    8.2404  -18.2039   20.7720 C   0  0  1  0  0  0  0  0  0  0  0  0
    8.4498  -19.3746   21.6272 C   0  0  0  0  0  0  0  0  0  0  0  0
    7.9080  -20.6924   21.2855 C   0  0  0  0  0  0  0  0  0  0  0  0
    8.2297  -21.4666   20.1013 C   0  0  0  0  0  0  0  0  0  0  0  0
    7.7246  -22.8204   19.8481 C   0  0  0  0  0  0  0  0  0  0  0  0
    8.2735  -23.4688   18.6718 N   0  0  0  0  0  0  0  0  0  0  0  0
    8.7291  -16.9314   21.4107 C   0  0  0  0  0  0  0  0  0  0  0  0
    9.9550  -16.8120   21.6598 O   0  0  0  0  0  0  0  0  0  0  0  0
    8.6798  -13.9914   15.9118 O   0  0  0  0  0  0  0  0  0  0  0  0
    8.5024  -13.8532   17.3004 C   0  0  0  0  0  0  0  0  0  0  0  0
    9.5054  -14.1672   18.1893 C   0  0  0  0  0  0  0  0  0  0  0  0
    9.3340  -14.0317   19.5660 C   0  0  0  0  0  0  0  0  0  0  0  0
    8.1391  -13.5742   20.0652 C   0  0  0  0  0  0  0  0  0  0  0  0
    7.9496  -13.4271   21.5063 C   0  0  0  0  0  0  0  0  0  0  0  0
    8.3614  -14.6082   22.3215 C   0  0  2  0  0  0  0  0  0  0  0  0
    7.8780  -15.8614   21.7456 N   0  0  0  0  0  0  0  0  0  0  0  0
    7.9655  -14.5130   23.7490 C   0  0  0  0  0  0  0  0  0  0  0  0
    7.2419  -13.5440   24.1663 O   0  0  0  0  0  0  0  0  0  0  0  0
    7.1348  -13.2599   19.1717 C   0  0  0  0  0  0  0  0  0  0  0  0
    7.3056  -13.3950   17.7984 C   0  0  0  0  0  0  0  0  0  0  0  0
    6.0229  -12.4659   26.8743 C   0  0  0  0  0  0  0  0  0  0  0  0
    7.4173  -12.9098   26.5799 C   0  0  1  0  0  0  0  0  0  0  0  0
    8.4261  -12.1320   27.4323 C   0  0  0  0  0  0  0  0  0  0  0  0
    7.6293  -14.3523   26.6294 C   0  0  0  0  0  0  0  0  0  0  0  0
    8.8497  -14.9944   26.0581 C   0  0  2  0  0  0  0  0  0  0  0  0
    8.3539  -15.4714   24.7161 N   0  0  0  0  0  0  0  0  0  0  0  0
    9.3989  -16.1236   26.7829 C   0  0  0  0  0  0  0  0  0  0  0  0
    9.2690  -17.3345   26.5053 O   0  0  0  0  0  0  0  0  0  0  0  0
   10.1757  -15.8737   27.9379 O   0  0  0  0  0  0  0  0  0  0  0  0
  2  8  1  0
  2  1  1  6
  3  2  1  0
  4  3  1  0
  5  4  1  0
  6  5  1  0
  6  7  1  0
  8  9  2  0
 10 11  1  0
 11 12  2  0
 12 13  1  0
 14 13  2  0
 14 15  1  0
 16 17  1  0
 16 15  1  6
 17  8  1  0
 18 16  1  0
 19 18  2  0
 20 14  1  0
 21 11  1  0
 21 20  2  0
 23 22  1  1
 23 25  1  0
 24 23  1  0
 26 25  1  1
 26 27  1  0
 27 18  1  0
 28 26  1  0
 28 30  1  0
 29 28  2  0
M  END
$$$$
