KYL.pdb
     RDKit          3D

 30 30  0  0  1  0  0  0  0  0999 V2000
    6.1611  -17.7148   19.6793 N   0  0  0  0  0  0  0  0  0  0  0  0
    7.0654  -16.9202   20.4393 C   0  0  1  0  0  0  0  0  0  0  0  0
    7.1084  -15.4755   20.2008 C   0  0  0  0  0  0  0  0  0  0  0  0
    7.4445  -14.9150   18.8893 C   0  0  0  0  0  0  0  0  0  0  0  0
    7.5131  -13.5046   18.5560 C   0  0  0  0  0  0  0  0  0  0  0  0
    7.6815  -12.9949   17.1908 C   0  0  0  0  0  0  0  0  0  0  0  0
    7.5926  -11.5525   17.0602 N   0  0  0  0  0  0  0  0  0  0  0  0
    6.9965  -17.2583   21.9046 C   0  0  0  0  0  0  0  0  0  0  0  0
    5.8723  -17.2935   22.4648 O   0  0  0  0  0  0  0  0  0  0  0  0
    8.5738  -20.1479   30.0903 O   0  0  0  0  0  0  0  0  0  0  0  0
    8.6168  -19.8653   28.7128 C   0  0  0  0  0  0  0  0  0  0  0  0
    7.4766  -19.8658   27.9417 C   0  0  0  0  0  0  0  0  0  0  0  0
    7.5146  -19.5864   26.5766 C   0  0  0  0  0  0  0  0  0  0  0  0
    8.7131  -19.3011   25.9694 C   0  0  0  0  0  0  0  0  0  0  0  0
    8.7638  -19.0055   24.5396 C   0  0  0  0  0  0  0  0  0  0  0  0
    8.0789  -17.7434   24.1306 C   0  0  2  0  0  0  0  0  0  0  0  0
    8.1343  -17.5389   22.6846 N   0  0  0  0  0  0  0  0  0  0  0  0
    8.5793  -16.5386   24.8389 C   0  0  0  0  0  0  0  0  0  0  0  0
    9.7310  -16.0505   24.5707 O   0  0  0  0  0  0  0  0  0  0  0  0
    9.8552  -19.3012   26.7450 C   0  0  0  0  0  0  0  0  0  0  0  0
    9.8175  -19.5799   28.1067 C   0  0  0  0  0  0  0  0  0  0  0  0
    8.1842  -11.9647   25.3176 C   0  0  0  0  0  0  0  0  0  0  0  0
    7.4822  -12.3562   26.5754 C   0  0  1  0  0  0  0  0  0  0  0  0
    6.1592  -11.5956   26.7180 C   0  0  0  0  0  0  0  0  0  0  0  0
    7.3323  -13.7933   26.7769 C   0  0  0  0  0  0  0  0  0  0  0  0
    8.4713  -14.7417   26.6010 C   0  0  2  0  0  0  0  0  0  0  0  0
    7.8261  -15.8674   25.8323 N   0  0  0  0  0  0  0  0  0  0  0  0
    9.0703  -15.2806   27.8064 C   0  0  0  0  0  0  0  0  0  0  0  0
    8.7317  -16.3141   28.4209 O   0  0  0  0  0  0  0  0  0  0  0  0
   10.1627  -14.5937   28.3849 O   0  0  0  0  0  0  0  0  0  0  0  0
  2  8  1  0
  2  1  1  6
  3  2  1  0
  4  3  1  0
  5  4  1  0
  6  5  1  0
  6  7  1  0
  8  9  2  0
 10 11  1  0
 11 12  2  0
 12 13  1  0
 14 13  2  0
 14 15  1  0
 16 17  1  0
 16 15  1  6
 17  8  1  0
 18 16  1  0
 19 18  2  0
 20 14  1  0
 21 11  1  0
 21 20  2  0
 23 22  1  6
 23 25  1  0
 24 23  1  0
 26 25  1  1
 26 27  1  0
 27 18  1  0
 28 26  1  0
 28 30  1  0
 29 28  2  0
M  END
$$$$
