KYL.pdb
     RDKit          3D

 30 30  0  0  1  0  0  0  0  0999 V2000
   10.0916  -19.0007   20.2899 N   0  0  0  0  0  0  0  0  0  0  0  0
   10.8732  -17.8108   20.2757 C   0  0  1  0  0  0  0  0  0  0  0  0
   11.1104  -17.1368   18.9969 C   0  0  0  0  0  0  0  0  0  0  0  0
   11.6880  -17.8363   17.8463 C   0  0  0  0  0  0  0  0  0  0  0  0
   12.9419  -17.5125   17.1920 C   0  0  0  0  0  0  0  0  0  0  0  0
   13.4755  -18.2465   16.0394 C   0  0  0  0  0  0  0  0  0  0  0  0
   14.6771  -17.6802   15.4556 N   0  0  0  0  0  0  0  0  0  0  0  0
   10.4409  -16.8561   21.3564 C   0  0  0  0  0  0  0  0  0  0  0  0
   11.0807  -15.7854   21.5087 O   0  0  0  0  0  0  0  0  0  0  0  0
    5.9695  -11.8020   26.9068 O   0  0  0  0  0  0  0  0  0  0  0  0
    6.3575  -12.8263   26.0241 C   0  0  0  0  0  0  0  0  0  0  0  0
    7.0652  -12.5568   24.8747 C   0  0  0  0  0  0  0  0  0  0  0  0
    7.4517  -13.5686   23.9973 C   0  0  0  0  0  0  0  0  0  0  0  0
    7.1258  -14.8743   24.2720 C   0  0  0  0  0  0  0  0  0  0  0  0
    7.5272  -15.9424   23.3598 C   0  0  0  0  0  0  0  0  0  0  0  0
    8.9929  -16.2240   23.3226 C   0  0  2  0  0  0  0  0  0  0  0  0
    9.3496  -17.1028   22.2106 N   0  0  0  0  0  0  0  0  0  0  0  0
    9.5270  -16.7664   24.5971 C   0  0  0  0  0  0  0  0  0  0  0  0
   10.0207  -17.9453   24.6531 O   0  0  0  0  0  0  0  0  0  0  0  0
    6.4159  -15.1420   25.4254 C   0  0  0  0  0  0  0  0  0  0  0  0
    6.0303  -14.1328   26.3007 C   0  0  0  0  0  0  0  0  0  0  0  0
    9.3713  -13.3680   29.0116 C   0  0  0  0  0  0  0  0  0  0  0  0
    9.8983  -14.1834   27.8777 C   0  0  1  0  0  0  0  0  0  0  0  0
   11.2880  -13.6930   27.4564 C   0  0  0  0  0  0  0  0  0  0  0  0
    9.8457  -15.6273   28.0790 C   0  0  0  0  0  0  0  0  0  0  0  0
   10.2347  -16.5918   27.0083 C   0  0  2  0  0  0  0  0  0  0  0  0
    9.5258  -16.0256   25.8037 N   0  0  0  0  0  0  0  0  0  0  0  0
    9.8266  -17.9715   27.1864 C   0  0  0  0  0  0  0  0  0  0  0  0
   10.4245  -18.8586   27.8313 O   0  0  0  0  0  0  0  0  0  0  0  0
    8.6240  -18.4052   26.5819 O   0  0  0  0  0  0  0  0  0  0  0  0
  2  8  1  0
  2  1  1  6
  3  2  1  0
  4  3  1  0
  5  4  1  0
  6  5  1  0
  6  7  1  0
  8  9  2  0
 10 11  1  0
 11 12  2  0
 12 13  1  0
 14 13  2  0
 14 15  1  0
 16 17  1  0
 16 15  1  1
 17  8  1  0
 18 16  1  0
 19 18  2  0
 20 14  1  0
 21 11  1  0
 21 20  2  0
 23 22  1  1
 23 25  1  0
 24 23  1  0
 26 25  1  1
 26 27  1  0
 27 18  1  0
 28 26  1  0
 28 30  1  0
 29 28  2  0
M  END
$$$$
