KYL.pdb
     RDKit          3D

 30 30  0  0  1  0  0  0  0  0999 V2000
    9.4473  -18.8092   20.3808 N   0  0  0  0  0  0  0  0  0  0  0  0
   10.4863  -17.8360   20.3641 C   0  0  1  0  0  0  0  0  0  0  0  0
   10.9864  -17.3588   19.0726 C   0  0  0  0  0  0  0  0  0  0  0  0
   10.7340  -18.0859   17.8258 C   0  0  0  0  0  0  0  0  0  0  0  0
   11.2404  -17.7311   16.5133 C   0  0  0  0  0  0  0  0  0  0  0  0
   11.6871  -18.7113   15.5175 C   0  0  0  0  0  0  0  0  0  0  0  0
   10.7785  -19.8217   15.3007 N   0  0  0  0  0  0  0  0  0  0  0  0
   10.1998  -16.7095   21.3206 C   0  0  0  0  0  0  0  0  0  0  0  0
   11.0651  -15.8113   21.4736 O   0  0  0  0  0  0  0  0  0  0  0  0
    6.0262  -11.4730   27.2137 O   0  0  0  0  0  0  0  0  0  0  0  0
    6.3423  -12.4705   26.2734 C   0  0  0  0  0  0  0  0  0  0  0  0
    5.7926  -13.7303   26.3477 C   0  0  0  0  0  0  0  0  0  0  0  0
    6.1029  -14.7216   25.4181 C   0  0  0  0  0  0  0  0  0  0  0  0
    6.9782  -14.4507   24.3950 C   0  0  0  0  0  0  0  0  0  0  0  0
    7.3091  -15.4821   23.4147 C   0  0  0  0  0  0  0  0  0  0  0  0
    8.7477  -15.5401   23.0195 C   0  0  2  0  0  0  0  0  0  0  0  0
    9.0044  -16.6099   22.0574 N   0  0  0  0  0  0  0  0  0  0  0  0
    9.6770  -15.6521   24.1716 C   0  0  0  0  0  0  0  0  0  0  0  0
   10.6338  -14.8171   24.3269 O   0  0  0  0  0  0  0  0  0  0  0  0
    7.5282  -13.1865   24.3227 C   0  0  0  0  0  0  0  0  0  0  0  0
    7.2188  -12.1975   25.2499 C   0  0  0  0  0  0  0  0  0  0  0  0
   11.8021  -14.5097   28.3033 C   0  0  0  0  0  0  0  0  0  0  0  0
   10.3194  -14.6612   28.2193 C   0  0  1  0  0  0  0  0  0  0  0  0
    9.6179  -13.3494   28.5885 C   0  0  0  0  0  0  0  0  0  0  0  0
    9.8272  -15.2331   26.9707 C   0  0  0  0  0  0  0  0  0  0  0  0
   10.3361  -16.5313   26.4384 C   0  0  2  0  0  0  0  0  0  0  0  0
    9.5617  -16.6676   25.1515 N   0  0  0  0  0  0  0  0  0  0  0  0
   10.1063  -17.7103   27.2504 C   0  0  0  0  0  0  0  0  0  0  0  0
    9.0276  -18.3201   27.4080 O   0  0  0  0  0  0  0  0  0  0  0  0
   11.1959  -18.2669   27.9593 O   0  0  0  0  0  0  0  0  0  0  0  0
  2  8  1  0
  2  1  1  6
  3  2  1  0
  4  3  1  0
  5  4  1  0
  6  5  1  0
  6  7  1  0
  8  9  2  0
 10 11  1  0
 11 12  2  0
 12 13  1  0
 14 13  2  0
 14 15  1  0
 16 17  1  0
 16 15  1  1
 17  8  1  0
 18 16  1  0
 19 18  2  0
 20 14  1  0
 21 11  1  0
 21 20  2  0
 23 22  1  6
 23 25  1  0
 24 23  1  0
 26 25  1  1
 26 27  1  0
 27 18  1  0
 28 26  1  0
 28 30  1  0
 29 28  2  0
M  END
$$$$
