KYL.pdb
     RDKit          3D

 30 30  0  0  1  0  0  0  0  0999 V2000
   10.3208  -17.7949   20.4230 N   0  0  0  0  0  0  0  0  0  0  0  0
   10.1529  -16.6787   21.2906 C   0  0  1  0  0  0  0  0  0  0  0  0
    8.9830  -15.8153   21.1124 C   0  0  0  0  0  0  0  0  0  0  0  0
    8.6004  -15.2878   19.8001 C   0  0  0  0  0  0  0  0  0  0  0  0
    8.5267  -13.8863   19.4319 C   0  0  0  0  0  0  0  0  0  0  0  0
    8.1214  -13.4104   18.1048 C   0  0  0  0  0  0  0  0  0  0  0  0
    8.3089  -11.9891   17.8802 N   0  0  0  0  0  0  0  0  0  0  0  0
   10.3684  -17.0638   22.7298 C   0  0  0  0  0  0  0  0  0  0  0  0
   10.0451  -18.2198   23.1014 O   0  0  0  0  0  0  0  0  0  0  0  0
   10.9846  -15.7686   31.5391 O   0  0  0  0  0  0  0  0  0  0  0  0
   11.0727  -15.6411   30.1410 C   0  0  0  0  0  0  0  0  0  0  0  0
   11.6320  -16.6283   29.3617 C   0  0  0  0  0  0  0  0  0  0  0  0
   11.7213  -16.5062   27.9760 C   0  0  0  0  0  0  0  0  0  0  0  0
   11.2434  -15.3776   27.3561 C   0  0  0  0  0  0  0  0  0  0  0  0
   11.3309  -15.2402   25.9043 C   0  0  0  0  0  0  0  0  0  0  0  0
   10.7273  -16.3623   25.1259 C   0  0  2  0  0  0  0  0  0  0  0  0
   10.9170  -16.1896   23.6872 N   0  0  0  0  0  0  0  0  0  0  0  0
    9.2928  -16.5934   25.4303 C   0  0  0  0  0  0  0  0  0  0  0  0
    8.9380  -17.4610   26.3009 O   0  0  0  0  0  0  0  0  0  0  0  0
   10.6829  -14.3889   28.1399 C   0  0  0  0  0  0  0  0  0  0  0  0
   10.5938  -14.5106   29.5222 C   0  0  0  0  0  0  0  0  0  0  0  0
    6.1276  -12.2368   24.8351 C   0  0  0  0  0  0  0  0  0  0  0  0
    6.6961  -13.4576   25.4791 C   0  0  1  0  0  0  0  0  0  0  0  0
    6.5452  -13.3879   27.0029 C   0  0  0  0  0  0  0  0  0  0  0  0
    6.2299  -14.7230   24.9226 C   0  0  0  0  0  0  0  0  0  0  0  0
    6.8408  -16.0302   25.3048 C   0  0  2  0  0  0  0  0  0  0  0  0
    8.2506  -15.8796   24.7909 N   0  0  0  0  0  0  0  0  0  0  0  0
    6.2560  -17.2236   24.7253 C   0  0  0  0  0  0  0  0  0  0  0  0
    6.6942  -17.8883   23.7628 O   0  0  0  0  0  0  0  0  0  0  0  0
    5.0569  -17.7279   25.2801 O   0  0  0  0  0  0  0  0  0  0  0  0
  2  8  1  0
  2  1  1  6
  3  2  1  0
  4  3  1  0
  5  4  1  0
  6  5  1  0
  6  7  1  0
  8  9  2  0
 10 11  1  0
 11 12  2  0
 12 13  1  0
 14 13  2  0
 14 15  1  0
 16 17  1  0
 16 15  1  1
 17  8  1  0
 18 16  1  0
 19 18  2  0
 20 14  1  0
 21 11  1  0
 21 20  2  0
 23 22  1  6
 23 25  1  0
 24 23  1  0
 26 25  1  6
 26 27  1  0
 27 18  1  0
 28 26  1  0
 28 30  1  0
 29 28  2  0
M  END
$$$$
