DWT.pdb
     RDKit          3D

 30 31  0  0  1  0  0  0  0  0999 V2000
   29.1514  -20.4370  -14.6524 N   0  0  0  0  0  0  0  0  0  0  0  0
   27.7237  -20.5653  -14.8081 C   0  0  1  0  0  0  0  0  0  0  0  0
   27.4879  -21.4931  -15.9977 C   0  0  0  0  0  0  0  0  0  0  0  0
   28.7008  -22.3170  -16.1466 C   0  0  0  0  0  0  0  0  0  0  0  0
   29.6512  -22.1620  -15.3555 O   0  0  0  0  0  0  0  0  0  0  0  0
   27.0663  -21.0925  -13.5721 C   0  0  0  0  0  0  0  0  0  0  0  0
   26.0128  -21.7487  -13.7224 O   0  0  0  0  0  0  0  0  0  0  0  0
   28.7915  -23.2534  -17.1501 O   0  0  0  0  0  0  0  0  0  0  0  0
   27.6041  -20.8643  -12.2817 N   0  0  0  0  0  0  0  0  0  0  0  0
   26.8789  -20.8975  -11.0405 C   0  0  1  0  0  0  0  0  0  0  0  0
   27.7127  -20.5210   -9.8229 C   0  0  0  0  0  0  0  0  0  0  0  0
   26.8808  -20.5713   -8.6083 C   0  0  0  0  0  0  0  0  0  0  0  0
   25.6023  -20.9555   -8.4486 C   0  0  0  0  0  0  0  0  0  0  0  0
   25.2474  -20.8391   -7.1350 N   0  0  0  0  0  0  0  0  0  0  0  0
   26.3056  -20.3772   -6.4463 C   0  0  0  0  0  0  0  0  0  0  0  0
   26.5173  -20.0778   -5.1148 C   0  0  0  0  0  0  0  0  0  0  0  0
   27.7448  -19.6095   -4.6796 C   0  0  0  0  0  0  0  0  0  0  0  0
   28.7658  -19.4386   -5.5725 C   0  0  0  0  0  0  0  0  0  0  0  0
   28.5728  -19.7357   -6.9272 C   0  0  0  0  0  0  0  0  0  0  0  0
   27.3475  -20.2002   -7.3478 C   0  0  0  0  0  0  0  0  0  0  0  0
   25.5596  -20.2861  -11.0699 C   0  0  0  0  0  0  0  0  0  0  0  0
   25.3792  -19.0188  -11.0907 O   0  0  0  0  0  0  0  0  0  0  0  0
   21.3447  -20.6070  -13.2421 C   0  0  0  0  0  0  0  0  0  0  0  0
   22.7304  -20.9302  -12.7990 C   0  0  1  0  0  0  0  0  0  0  0  0
   23.6515  -20.3384  -13.6815 O   0  0  0  0  0  0  0  0  0  0  0  0
   23.0764  -20.5100  -11.4013 C   0  0  2  0  0  0  0  0  0  0  0  0
   24.3865  -21.0559  -11.0780 N   0  0  0  0  0  0  0  0  0  0  0  0
   22.0640  -20.8544  -10.4043 C   0  0  0  0  0  0  0  0  0  0  0  0
   21.0458  -20.0119   -9.9936 O   0  0  0  0  0  0  0  0  0  0  0  0
   22.1029  -21.9936   -9.8689 O   0  0  0  0  0  0  0  0  0  0  0  0
  2  1  1  1
  2  3  1  0
  4  3  1  0
  5  4  2  0
  6  9  1  0
  6  2  1  0
  7  6  2  0
  8  4  1  0
 10  9  1  0
 11 12  1  0
 10 11  1  1
 12 13  2  0
 12 20  1  0
 13 14  1  0
 14 15  1  0
 15 16  2  0
 16 17  1  0
 18 17  2  0
 19 18  1  0
 20 19  2  0
 20 15  1  0
 21 22  2  0
 21 10  1  0
 24 23  1  6
 24 25  1  0
 24 26  1  0
 26 27  1  1
 26 28  1  0
 27 21  1  0
 28 29  1  0
 30 28  2  0
M  END
$$$$
