DWT.pdb
     RDKit          3D

 30 31  0  0  1  0  0  0  0  0999 V2000
   28.2715  -22.0565  -15.2650 N   0  0  0  0  0  0  0  0  0  0  0  0
   27.4619  -20.9704  -14.7712 C   0  0  1  0  0  0  0  0  0  0  0  0
   26.6732  -20.4275  -15.9607 C   0  0  0  0  0  0  0  0  0  0  0  0
   27.5879  -19.5573  -16.7211 C   0  0  0  0  0  0  0  0  0  0  0  0
   28.6609  -19.1908  -16.2039 O   0  0  0  0  0  0  0  0  0  0  0  0
   26.5484  -21.4033  -13.6685 C   0  0  0  0  0  0  0  0  0  0  0  0
   25.9319  -22.4791  -13.8282 O   0  0  0  0  0  0  0  0  0  0  0  0
   27.2667  -19.1475  -17.9943 O   0  0  0  0  0  0  0  0  0  0  0  0
   26.3804  -20.6360  -12.4898 N   0  0  0  0  0  0  0  0  0  0  0  0
   25.3482  -20.8077  -11.5035 C   0  0  1  0  0  0  0  0  0  0  0  0
   25.7105  -20.2724  -10.1245 C   0  0  0  0  0  0  0  0  0  0  0  0
   27.0618  -20.7226   -9.7491 C   0  0  0  0  0  0  0  0  0  0  0  0
   27.9132  -21.5401  -10.3929 C   0  0  0  0  0  0  0  0  0  0  0  0
   29.0629  -21.6710   -9.6674 N   0  0  0  0  0  0  0  0  0  0  0  0
   28.9490  -20.9321   -8.5501 C   0  0  0  0  0  0  0  0  0  0  0  0
   29.7864  -20.6925   -7.4783 C   0  0  0  0  0  0  0  0  0  0  0  0
   29.3941  -19.8609   -6.4438 C   0  0  0  0  0  0  0  0  0  0  0  0
   28.1640  -19.2653   -6.4759 C   0  0  0  0  0  0  0  0  0  0  0  0
   27.2990  -19.4947   -7.5528 C   0  0  0  0  0  0  0  0  0  0  0  0
   27.7004  -20.3240   -8.5753 C   0  0  0  0  0  0  0  0  0  0  0  0
   24.0032  -20.4668  -11.9393 C   0  0  0  0  0  0  0  0  0  0  0  0
   23.5281  -19.2800  -11.8697 O   0  0  0  0  0  0  0  0  0  0  0  0
   22.5866  -20.9476  -15.3349 C   0  0  0  0  0  0  0  0  0  0  0  0
   21.6689  -21.5965  -14.3563 C   0  0  1  0  0  0  0  0  0  0  0  0
   21.8787  -22.9868  -14.3723 O   0  0  0  0  0  0  0  0  0  0  0  0
   21.7890  -21.1155  -12.9406 C   0  0  2  0  0  0  0  0  0  0  0  0
   23.1307  -21.4285  -12.4707 N   0  0  0  0  0  0  0  0  0  0  0  0
   20.7493  -21.6213  -12.0458 C   0  0  0  0  0  0  0  0  0  0  0  0
   19.4113  -21.2754  -12.1195 O   0  0  0  0  0  0  0  0  0  0  0  0
   21.0726  -22.4304  -11.1365 O   0  0  0  0  0  0  0  0  0  0  0  0
  2  1  1  6
  2  3  1  0
  4  3  1  0
  5  4  2  0
  6  9  1  0
  6  2  1  0
  7  6  2  0
  8  4  1  0
 10  9  1  0
 11 12  1  0
 10 11  1  1
 12 13  2  0
 12 20  1  0
 13 14  1  0
 14 15  1  0
 15 16  2  0
 16 17  1  0
 18 17  2  0
 19 18  1  0
 20 19  2  0
 20 15  1  0
 21 22  2  0
 21 10  1  0
 24 23  1  6
 24 25  1  0
 24 26  1  0
 26 27  1  1
 26 28  1  0
 27 21  1  0
 28 29  1  0
 30 28  2  0
M  END
$$$$
