DWT.pdb
     RDKit          3D

 30 31  0  0  1  0  0  0  0  0999 V2000
   34.2149  -34.4786    5.0106 N   0  0  0  0  0  0  0  0  0  0  0  0
   34.3234  -33.3440    4.1276 C   0  0  1  0  0  0  0  0  0  0  0  0
   35.3703  -32.4100    4.7305 C   0  0  0  0  0  0  0  0  0  0  0  0
   34.7115  -31.6773    5.8265 C   0  0  0  0  0  0  0  0  0  0  0  0
   35.1322  -30.5509    6.1541 O   0  0  0  0  0  0  0  0  0  0  0  0
   34.6945  -33.7457    2.7352 C   0  0  0  0  0  0  0  0  0  0  0  0
   34.9026  -32.8272    1.9131 O   0  0  0  0  0  0  0  0  0  0  0  0
   33.6384  -32.2264    6.4892 O   0  0  0  0  0  0  0  0  0  0  0  0
   34.8079  -35.1048    2.3525 N   0  0  0  0  0  0  0  0  0  0  0  0
   35.1833  -35.5937    1.0534 C   0  0  1  0  0  0  0  0  0  0  0  0
   36.6224  -36.0844    0.9656 C   0  0  0  0  0  0  0  0  0  0  0  0
   37.5489  -34.9414    1.0368 C   0  0  0  0  0  0  0  0  0  0  0  0
   37.9528  -34.2176    2.0954 C   0  0  0  0  0  0  0  0  0  0  0  0
   38.8269  -33.2515    1.6858 N   0  0  0  0  0  0  0  0  0  0  0  0
   38.9857  -33.3560    0.3550 C   0  0  0  0  0  0  0  0  0  0  0  0
   39.7360  -32.6588   -0.5715 C   0  0  0  0  0  0  0  0  0  0  0  0
   39.7043  -33.0012   -1.9121 C   0  0  0  0  0  0  0  0  0  0  0  0
   38.9232  -34.0413   -2.3327 C   0  0  0  0  0  0  0  0  0  0  0  0
   38.1542  -34.7615   -1.4104 C   0  0  0  0  0  0  0  0  0  0  0  0
   38.1938  -34.4111   -0.0800 C   0  0  0  0  0  0  0  0  0  0  0  0
   34.2161  -36.4693    0.4106 C   0  0  0  0  0  0  0  0  0  0  0  0
   33.6088  -37.4107    1.0304 O   0  0  0  0  0  0  0  0  0  0  0  0
   31.3594  -35.2062   -1.9148 C   0  0  0  0  0  0  0  0  0  0  0  0
   32.1102  -36.3252   -2.5513 C   0  0  1  0  0  0  0  0  0  0  0  0
   32.9800  -35.8067   -3.5271 O   0  0  0  0  0  0  0  0  0  0  0  0
   32.9071  -37.1840   -1.6146 C   0  0  2  0  0  0  0  0  0  0  0  0
   33.8829  -36.3360   -0.9457 N   0  0  0  0  0  0  0  0  0  0  0  0
   33.5188  -38.3519   -2.2465 C   0  0  0  0  0  0  0  0  0  0  0  0
   32.8170  -39.4406   -2.7339 O   0  0  0  0  0  0  0  0  0  0  0  0
   34.7718  -38.3901   -2.3660 O   0  0  0  0  0  0  0  0  0  0  0  0
  2  1  1  1
  2  3  1  0
  4  3  1  0
  5  4  2  0
  6  9  1  0
  6  2  1  0
  7  6  2  0
  8  4  1  0
 10  9  1  0
 11 12  1  0
 10 11  1  1
 12 13  2  0
 12 20  1  0
 13 14  1  0
 14 15  1  0
 15 16  2  0
 16 17  1  0
 18 17  2  0
 19 18  1  0
 20 19  2  0
 20 15  1  0
 21 22  2  0
 21 10  1  0
 24 23  1  1
 24 25  1  0
 24 26  1  0
 26 27  1  6
 26 28  1  0
 27 21  1  0
 28 29  1  0
 30 28  2  0
M  END
$$$$
