DWT.pdb
     RDKit          3D

 30 31  0  0  1  0  0  0  0  0999 V2000
   21.3046  -11.8614  -18.8247 N   0  0  0  0  0  0  0  0  0  0  0  0
   20.9624  -10.5452  -19.3038 C   0  0  1  0  0  0  0  0  0  0  0  0
   19.7594  -10.7082  -20.2300 C   0  0  0  0  0  0  0  0  0  0  0  0
   20.2666  -11.2580  -21.4998 C   0  0  0  0  0  0  0  0  0  0  0  0
   19.4897  -11.3972  -22.4643 O   0  0  0  0  0  0  0  0  0  0  0  0
   20.6603   -9.5985  -18.1858 C   0  0  0  0  0  0  0  0  0  0  0  0
   19.6560   -9.8470  -17.4839 O   0  0  0  0  0  0  0  0  0  0  0  0
   21.5880  -11.6180  -21.6281 O   0  0  0  0  0  0  0  0  0  0  0  0
   21.4692   -8.4655  -17.9238 N   0  0  0  0  0  0  0  0  0  0  0  0
   21.3189   -7.5492  -16.8260 C   0  0  1  0  0  0  0  0  0  0  0  0
   22.6102   -7.2687  -16.0687 C   0  0  0  0  0  0  0  0  0  0  0  0
   22.9852   -8.4425  -15.2618 C   0  0  0  0  0  0  0  0  0  0  0  0
   23.8976   -9.4014  -15.4982 C   0  0  0  0  0  0  0  0  0  0  0  0
   23.9055  -10.2941  -14.4646 N   0  0  0  0  0  0  0  0  0  0  0  0
   22.9921   -9.9054  -13.5580 C   0  0  0  0  0  0  0  0  0  0  0  0
   22.5811  -10.4158  -12.3422 C   0  0  0  0  0  0  0  0  0  0  0  0
   21.5949   -9.7841  -11.6047 C   0  0  0  0  0  0  0  0  0  0  0  0
   21.0155   -8.6401  -12.0784 C   0  0  0  0  0  0  0  0  0  0  0  0
   21.4167   -8.1056  -13.3089 C   0  0  0  0  0  0  0  0  0  0  0  0
   22.3981   -8.7432  -14.0332 C   0  0  0  0  0  0  0  0  0  0  0  0
   20.5234   -6.3639  -17.1045 C   0  0  0  0  0  0  0  0  0  0  0  0
   20.9551   -5.3842  -17.8066 O   0  0  0  0  0  0  0  0  0  0  0  0
   17.4242   -6.1585  -18.9888 C   0  0  0  0  0  0  0  0  0  0  0  0
   17.1642   -5.5555  -17.6511 C   0  0  1  0  0  0  0  0  0  0  0  0
   16.5002   -6.4922  -16.8391 O   0  0  0  0  0  0  0  0  0  0  0  0
   18.3768   -5.0666  -16.9159 C   0  0  2  0  0  0  0  0  0  0  0  0
   19.2163   -6.2174  -16.6160 N   0  0  0  0  0  0  0  0  0  0  0  0
   18.0762   -4.2675  -15.7291 C   0  0  0  0  0  0  0  0  0  0  0  0
   18.3221   -4.6686  -14.4276 O   0  0  0  0  0  0  0  0  0  0  0  0
   17.5564   -3.1304  -15.8794 O   0  0  0  0  0  0  0  0  0  0  0  0
  2  1  1  1
  2  3  1  0
  4  3  1  0
  5  4  2  0
  6  9  1  0
  6  2  1  0
  7  6  2  0
  8  4  1  0
 10  9  1  0
 11 12  1  0
 10 11  1  6
 12 13  2  0
 12 20  1  0
 13 14  1  0
 14 15  1  0
 15 16  2  0
 16 17  1  0
 18 17  2  0
 19 18  1  0
 20 19  2  0
 20 15  1  0
 21 22  2  0
 21 10  1  0
 24 23  1  6
 24 25  1  0
 24 26  1  0
 26 27  1  1
 26 28  1  0
 27 21  1  0
 28 29  1  0
 30 28  2  0
M  END
$$$$
