DWT.pdb
     RDKit          3D

 30 31  0  0  1  0  0  0  0  0999 V2000
   28.0226  -22.4474  -15.5533 N   0  0  0  0  0  0  0  0  0  0  0  0
   27.8541  -21.2084  -14.8354 C   0  0  1  0  0  0  0  0  0  0  0  0
   27.0958  -20.2586  -15.7597 C   0  0  0  0  0  0  0  0  0  0  0  0
   28.0119  -19.9074  -16.8595 C   0  0  0  0  0  0  0  0  0  0  0  0
   29.1706  -19.5301  -16.5987 O   0  0  0  0  0  0  0  0  0  0  0  0
   27.1273  -21.3999  -13.5420 C   0  0  0  0  0  0  0  0  0  0  0  0
   25.9733  -21.8770  -13.6017 O   0  0  0  0  0  0  0  0  0  0  0  0
   27.5983  -19.9926  -18.1687 O   0  0  0  0  0  0  0  0  0  0  0  0
   27.7105  -21.0587  -12.2970 N   0  0  0  0  0  0  0  0  0  0  0  0
   27.0444  -21.0404  -11.0228 C   0  0  1  0  0  0  0  0  0  0  0  0
   27.9728  -20.8020   -9.8392 C   0  0  0  0  0  0  0  0  0  0  0  0
   27.2013  -20.8136   -8.5844 C   0  0  0  0  0  0  0  0  0  0  0  0
   25.9287  -21.1801   -8.3526 C   0  0  0  0  0  0  0  0  0  0  0  0
   25.6401  -21.0276   -7.0265 N   0  0  0  0  0  0  0  0  0  0  0  0
   26.7352  -20.5603   -6.4023 C   0  0  0  0  0  0  0  0  0  0  0  0
   27.0151  -20.2305   -5.0907 C   0  0  0  0  0  0  0  0  0  0  0  0
   28.2669  -19.7647   -4.7281 C   0  0  0  0  0  0  0  0  0  0  0  0
   29.2442  -19.6266   -5.6741 C   0  0  0  0  0  0  0  0  0  0  0  0
   28.9820  -19.9549   -7.0098 C   0  0  0  0  0  0  0  0  0  0  0  0
   27.7330  -20.4166   -7.3580 C   0  0  0  0  0  0  0  0  0  0  0  0
   25.8090  -20.2746  -10.9733 C   0  0  0  0  0  0  0  0  0  0  0  0
   25.7784  -18.9964  -11.0396 O   0  0  0  0  0  0  0  0  0  0  0  0
   23.6634  -20.8866  -13.6246 C   0  0  0  0  0  0  0  0  0  0  0  0
   23.4006  -19.8037  -12.6352 C   0  0  1  0  0  0  0  0  0  0  0  0
   22.2085  -19.1404  -12.9764 O   0  0  0  0  0  0  0  0  0  0  0  0
   23.3046  -20.2446  -11.2047 C   0  0  2  0  0  0  0  0  0  0  0  0
   24.5570  -20.8957  -10.8489 N   0  0  0  0  0  0  0  0  0  0  0  0
   22.1378  -21.0750  -10.9108 C   0  0  0  0  0  0  0  0  0  0  0  0
   22.1938  -22.4056  -10.5344 O   0  0  0  0  0  0  0  0  0  0  0  0
   20.9908  -20.5628  -11.0003 O   0  0  0  0  0  0  0  0  0  0  0  0
  2  1  1  6
  2  3  1  0
  4  3  1  0
  5  4  2  0
  6  9  1  0
  6  2  1  0
  7  6  2  0
  8  4  1  0
 10  9  1  0
 11 12  1  0
 10 11  1  1
 12 13  2  0
 12 20  1  0
 13 14  1  0
 14 15  1  0
 15 16  2  0
 16 17  1  0
 18 17  2  0
 19 18  1  0
 20 19  2  0
 20 15  1  0
 21 22  2  0
 21 10  1  0
 24 23  1  6
 24 25  1  0
 24 26  1  0
 26 27  1  6
 26 28  1  0
 27 21  1  0
 28 29  1  0
 30 28  2  0
M  END
$$$$
