DWT.pdb
     RDKit          3D

 30 31  0  0  1  0  0  0  0  0999 V2000
   20.3461  -20.0656  -11.7000 N   0  0  0  0  0  0  0  0  0  0  0  0
   20.9159  -20.8301  -12.7816 C   0  0  1  0  0  0  0  0  0  0  0  0
   19.9641  -20.6987  -13.9684 C   0  0  0  0  0  0  0  0  0  0  0  0
   18.7179  -21.3929  -13.5980 C   0  0  0  0  0  0  0  0  0  0  0  0
   18.7531  -22.6010  -13.2942 O   0  0  0  0  0  0  0  0  0  0  0  0
   22.2923  -20.3649  -13.1378 C   0  0  0  0  0  0  0  0  0  0  0  0
   22.3811  -19.3756  -13.8969 O   0  0  0  0  0  0  0  0  0  0  0  0
   17.5188  -20.7188  -13.5856 O   0  0  0  0  0  0  0  0  0  0  0  0
   23.4526  -21.0094  -12.6431 N   0  0  0  0  0  0  0  0  0  0  0  0
   24.8141  -20.6470  -12.9303 C   0  0  1  0  0  0  0  0  0  0  0  0
   25.8136  -21.0965  -11.8727 C   0  0  0  0  0  0  0  0  0  0  0  0
   27.1568  -20.5897  -12.2022 C   0  0  0  0  0  0  0  0  0  0  0  0
   27.5470  -19.7218  -13.1520 C   0  0  0  0  0  0  0  0  0  0  0  0
   28.8992  -19.5424  -13.0842 N   0  0  0  0  0  0  0  0  0  0  0  0
   29.3806  -20.3003  -12.0836 C   0  0  0  0  0  0  0  0  0  0  0  0
   30.6461  -20.5073  -11.5708 C   0  0  0  0  0  0  0  0  0  0  0  0
   30.8474  -21.3656  -10.5039 C   0  0  0  0  0  0  0  0  0  0  0  0
   29.7855  -22.0204   -9.9448 C   0  0  0  0  0  0  0  0  0  0  0  0
   28.4939  -21.8254  -10.4493 C   0  0  0  0  0  0  0  0  0  0  0  0
   28.3067  -20.9697  -11.5109 C   0  0  0  0  0  0  0  0  0  0  0  0
   25.2493  -20.8822  -14.2980 C   0  0  0  0  0  0  0  0  0  0  0  0
   25.5515  -22.0440  -14.7429 O   0  0  0  0  0  0  0  0  0  0  0  0
   23.3719  -20.5157  -17.3880 C   0  0  0  0  0  0  0  0  0  0  0  0
   24.5736  -19.6387  -17.4757 C   0  0  1  0  0  0  0  0  0  0  0  0
   24.2147  -18.3219  -17.1372 O   0  0  0  0  0  0  0  0  0  0  0  0
   25.7359  -20.0477  -16.6202 C   0  0  2  0  0  0  0  0  0  0  0  0
   25.3664  -19.8382  -15.2280 N   0  0  0  0  0  0  0  0  0  0  0  0
   26.9963  -19.3948  -16.9702 C   0  0  0  0  0  0  0  0  0  0  0  0
   27.7657  -19.7113  -18.0761 O   0  0  0  0  0  0  0  0  0  0  0  0
   27.4307  -18.4764  -16.2259 O   0  0  0  0  0  0  0  0  0  0  0  0
  2  1  1  1
  2  3  1  0
  4  3  1  0
  5  4  2  0
  6  9  1  0
  6  2  1  0
  7  6  2  0
  8  4  1  0
 10  9  1  0
 11 12  1  0
 10 11  1  1
 12 13  2  0
 12 20  1  0
 13 14  1  0
 14 15  1  0
 15 16  2  0
 16 17  1  0
 18 17  2  0
 19 18  1  0
 20 19  2  0
 20 15  1  0
 21 22  2  0
 21 10  1  0
 24 23  1  1
 24 25  1  0
 24 26  1  0
 26 27  1  1
 26 28  1  0
 27 21  1  0
 28 29  1  0
 30 28  2  0
M  END
$$$$
