DWT.pdb
     RDKit          3D

 30 31  0  0  1  0  0  0  0  0999 V2000
   27.8247  -24.4649  -15.9397 N   0  0  0  0  0  0  0  0  0  0  0  0
   26.7109  -23.8224  -16.5920 C   0  0  1  0  0  0  0  0  0  0  0  0
   25.9698  -24.9041  -17.3745 C   0  0  0  0  0  0  0  0  0  0  0  0
   26.1539  -24.6013  -18.8051 C   0  0  0  0  0  0  0  0  0  0  0  0
   26.6814  -23.5240  -19.1433 O   0  0  0  0  0  0  0  0  0  0  0  0
   25.8028  -23.1410  -15.6180 C   0  0  0  0  0  0  0  0  0  0  0  0
   25.1234  -23.8717  -14.8647 O   0  0  0  0  0  0  0  0  0  0  0  0
   25.7486  -25.4966  -19.7675 O   0  0  0  0  0  0  0  0  0  0  0  0
   25.7076  -21.7297  -15.5430 N   0  0  0  0  0  0  0  0  0  0  0  0
   24.9291  -20.9793  -14.5952 C   0  0  1  0  0  0  0  0  0  0  0  0
   25.6604  -19.7848  -13.9968 C   0  0  0  0  0  0  0  0  0  0  0  0
   26.6465  -20.2445  -13.0039 C   0  0  0  0  0  0  0  0  0  0  0  0
   27.9519  -20.5323  -13.1477 C   0  0  0  0  0  0  0  0  0  0  0  0
   28.4730  -20.9190  -11.9459 N   0  0  0  0  0  0  0  0  0  0  0  0
   27.4954  -20.8789  -11.0240 C   0  0  0  0  0  0  0  0  0  0  0  0
   27.4504  -21.1571   -9.6720 C   0  0  0  0  0  0  0  0  0  0  0  0
   26.2726  -21.0196   -8.9584 C   0  0  0  0  0  0  0  0  0  0  0  0
   25.1350  -20.6035   -9.5923 C   0  0  0  0  0  0  0  0  0  0  0  0
   25.1580  -20.3164  -10.9626 C   0  0  0  0  0  0  0  0  0  0  0  0
   26.3354  -20.4575  -11.6614 C   0  0  0  0  0  0  0  0  0  0  0  0
   23.5585  -20.6991  -14.9932 C   0  0  0  0  0  0  0  0  0  0  0  0
   23.2600  -20.0640  -16.0641 O   0  0  0  0  0  0  0  0  0  0  0  0
   20.9786  -23.0172  -15.8560 C   0  0  0  0  0  0  0  0  0  0  0  0
   20.3864  -22.1460  -14.8019 C   0  0  1  0  0  0  0  0  0  0  0  0
   20.3587  -22.8444  -13.5817 O   0  0  0  0  0  0  0  0  0  0  0  0
   21.0810  -20.8349  -14.5816 C   0  0  2  0  0  0  0  0  0  0  0  0
   22.4634  -21.1126  -14.2198 N   0  0  0  0  0  0  0  0  0  0  0  0
   20.4150  -19.9583  -13.6196 C   0  0  0  0  0  0  0  0  0  0  0  0
   19.1474  -19.4279  -13.7848 O   0  0  0  0  0  0  0  0  0  0  0  0
   21.0199  -19.6517  -12.5584 O   0  0  0  0  0  0  0  0  0  0  0  0
  2  1  1  1
  2  3  1  0
  4  3  1  0
  5  4  2  0
  6  9  1  0
  6  2  1  0
  7  6  2  0
  8  4  1  0
 10  9  1  0
 11 12  1  0
 10 11  1  6
 12 13  2  0
 12 20  1  0
 13 14  1  0
 14 15  1  0
 15 16  2  0
 16 17  1  0
 18 17  2  0
 19 18  1  0
 20 19  2  0
 20 15  1  0
 21 22  2  0
 21 10  1  0
 24 23  1  6
 24 25  1  0
 24 26  1  0
 26 27  1  1
 26 28  1  0
 27 21  1  0
 28 29  1  0
 30 28  2  0
M  END
$$$$
