DWT.pdb
     RDKit          3D

 30 31  0  0  1  0  0  0  0  0999 V2000
   28.0324  -22.5725  -15.9082 N   0  0  0  0  0  0  0  0  0  0  0  0
   27.2053  -21.4506  -15.5393 C   0  0  1  0  0  0  0  0  0  0  0  0
   26.3587  -21.1016  -16.7613 C   0  0  0  0  0  0  0  0  0  0  0  0
   27.2652  -20.4952  -17.7526 C   0  0  0  0  0  0  0  0  0  0  0  0
   28.0164  -19.5618  -17.4098 O   0  0  0  0  0  0  0  0  0  0  0  0
   26.3451  -21.7495  -14.3526 C   0  0  0  0  0  0  0  0  0  0  0  0
   25.7578  -22.8530  -14.3376 O   0  0  0  0  0  0  0  0  0  0  0  0
   27.2880  -20.9506  -19.0504 O   0  0  0  0  0  0  0  0  0  0  0  0
   26.1941  -20.8299  -13.2857 N   0  0  0  0  0  0  0  0  0  0  0  0
   25.1986  -20.8858  -12.2497 C   0  0  1  0  0  0  0  0  0  0  0  0
   25.5863  -20.1490  -10.9744 C   0  0  0  0  0  0  0  0  0  0  0  0
   26.8983  -20.6212  -10.4996 C   0  0  0  0  0  0  0  0  0  0  0  0
   27.8792  -21.2623  -11.1586 C   0  0  0  0  0  0  0  0  0  0  0  0
   28.9240  -21.4996  -10.3116 N   0  0  0  0  0  0  0  0  0  0  0  0
   28.6117  -21.0070   -9.1003 C   0  0  0  0  0  0  0  0  0  0  0  0
   29.2771  -20.9624   -7.8909 C   0  0  0  0  0  0  0  0  0  0  0  0
   28.6952  -20.3716   -6.7827 C   0  0  0  0  0  0  0  0  0  0  0  0
   27.4467  -19.8229   -6.8782 C   0  0  0  0  0  0  0  0  0  0  0  0
   26.7542  -19.8574   -8.0947 C   0  0  0  0  0  0  0  0  0  0  0  0
   27.3432  -20.4482   -9.1894 C   0  0  0  0  0  0  0  0  0  0  0  0
   23.8308  -20.6466  -12.6824 C   0  0  0  0  0  0  0  0  0  0  0  0
   23.4235  -19.5099  -13.1080 O   0  0  0  0  0  0  0  0  0  0  0  0
   19.8590  -22.4840  -14.7749 C   0  0  0  0  0  0  0  0  0  0  0  0
   21.2518  -22.4483  -14.2462 C   0  0  1  0  0  0  0  0  0  0  0  0
   22.1416  -22.1633  -15.2971 O   0  0  0  0  0  0  0  0  0  0  0  0
   21.4975  -21.4676  -13.1382 C   0  0  2  0  0  0  0  0  0  0  0  0
   22.8594  -21.6587  -12.6611 N   0  0  0  0  0  0  0  0  0  0  0  0
   20.5125  -21.5234  -12.0594 C   0  0  0  0  0  0  0  0  0  0  0  0
   19.3156  -20.8286  -12.0501 O   0  0  0  0  0  0  0  0  0  0  0  0
   20.7501  -22.2493  -11.0581 O   0  0  0  0  0  0  0  0  0  0  0  0
  2  1  1  6
  2  3  1  0
  4  3  1  0
  5  4  2  0
  6  9  1  0
  6  2  1  0
  7  6  2  0
  8  4  1  0
 10  9  1  0
 11 12  1  0
 10 11  1  1
 12 13  2  0
 12 20  1  0
 13 14  1  0
 14 15  1  0
 15 16  2  0
 16 17  1  0
 18 17  2  0
 19 18  1  0
 20 19  2  0
 20 15  1  0
 21 22  2  0
 21 10  1  0
 24 23  1  6
 24 25  1  0
 24 26  1  0
 26 27  1  1
 26 28  1  0
 27 21  1  0
 28 29  1  0
 30 28  2  0
M  END
$$$$
