NAL.pdb
     RDKit          3D

 22 21  0  0  1  0  0  0  0  0999 V2000
    7.5112  -12.5809   16.1398 N   0  0  0  0  0  0  0  0  0  0  0  0
    8.1051  -13.5402   17.0047 C   0  0  0  0  0  0  0  0  0  0  0  0
    8.9325  -14.3269   16.4884 O   0  0  0  0  0  0  0  0  0  0  0  0
    7.7531  -13.5908   18.4294 C   0  0  0  0  0  0  0  0  0  0  0  0
    8.8653  -14.0202   19.3508 C   0  0  2  0  0  0  0  0  0  0  0  0
    9.5486  -15.1258   18.6363 N   0  0  0  0  0  0  0  0  0  0  0  0
    8.2635  -14.5697   20.5954 C   0  0  0  0  0  0  0  0  0  0  0  0
    7.5320  -13.9078   21.3538 O   0  0  0  0  0  0  0  0  0  0  0  0
    8.2442  -17.9500   22.2404 C   0  0  0  0  0  0  0  0  0  0  0  0
    8.0294  -16.4636   22.2624 C   0  0  2  0  0  0  0  0  0  0  0  0
    8.4986  -15.9262   21.0005 N   0  0  0  0  0  0  0  0  0  0  0  0
    8.6687  -15.8062   23.4166 C   0  0  0  0  0  0  0  0  0  0  0  0
    9.8723  -15.4408   23.3086 O   0  0  0  0  0  0  0  0  0  0  0  0
    5.8680  -12.4672   26.7418 C   0  0  0  0  0  0  0  0  0  0  0  0
    6.9200  -13.0812   25.8813 C   0  0  1  0  0  0  0  0  0  0  0  0
    7.6820  -12.0526   25.0484 C   0  0  0  0  0  0  0  0  0  0  0  0
    7.8518  -14.0014   26.5705 C   0  0  0  0  0  0  0  0  0  0  0  0
    8.7081  -14.8497   25.6952 C   0  0  2  0  0  0  0  0  0  0  0  0
    8.0234  -15.5488   24.6603 N   0  0  0  0  0  0  0  0  0  0  0  0
    9.4030  -15.8275   26.5686 C   0  0  0  0  0  0  0  0  0  0  0  0
    9.1077  -17.0416   26.4560 O   0  0  0  0  0  0  0  0  0  0  0  0
   10.3555  -15.4715   27.4966 O   0  0  0  0  0  0  0  0  0  0  0  0
  2  1  1  0
  3  2  2  0
  4  2  1  0
  4  5  1  0
  5  6  1  6
  7  5  1  0
  7 11  1  0
  8  7  2  0
 10  9  1  6
 10 11  1  0
 10 12  1  0
 12 19  1  0
 13 12  2  0
 15 14  1  1
 16 15  1  0
 17 15  1  0
 18 17  1  1
 19 18  1  0
 20 22  1  0
 20 18  1  0
 21 20  2  0
M  END
$$$$
