NAL.pdb
     RDKit          3D

 22 21  0  0  1  0  0  0  0  0999 V2000
    7.9366  -12.4297   17.4171 N   0  0  0  0  0  0  0  0  0  0  0  0
    7.8202  -13.8310   17.6269 C   0  0  0  0  0  0  0  0  0  0  0  0
    7.9506  -14.5633   16.6186 O   0  0  0  0  0  0  0  0  0  0  0  0
    7.5599  -14.3737   18.9663 C   0  0  0  0  0  0  0  0  0  0  0  0
    8.7653  -14.4713   19.8650 C   0  0  2  0  0  0  0  0  0  0  0  0
    9.6352  -15.4903   19.2290 N   0  0  0  0  0  0  0  0  0  0  0  0
    8.3282  -14.9907   21.1887 C   0  0  0  0  0  0  0  0  0  0  0  0
    7.4475  -14.4492   21.8812 O   0  0  0  0  0  0  0  0  0  0  0  0
    9.1093  -18.0669   23.1945 C   0  0  0  0  0  0  0  0  0  0  0  0
    8.5567  -16.6761   23.0669 C   0  0  2  0  0  0  0  0  0  0  0  0
    8.9117  -16.1735   21.7545 N   0  0  0  0  0  0  0  0  0  0  0  0
    9.0062  -15.7767   24.1450 C   0  0  0  0  0  0  0  0  0  0  0  0
   10.1451  -15.2413   24.0445 O   0  0  0  0  0  0  0  0  0  0  0  0
    5.7929  -12.3111   26.6715 C   0  0  0  0  0  0  0  0  0  0  0  0
    7.0402  -12.8734   26.0779 C   0  0  1  0  0  0  0  0  0  0  0  0
    7.8921  -11.8186   25.3751 C   0  0  0  0  0  0  0  0  0  0  0  0
    7.8636  -13.7007   26.9876 C   0  0  0  0  0  0  0  0  0  0  0  0
    8.8038  -14.6569   26.3390 C   0  0  2  0  0  0  0  0  0  0  0  0
    8.2434  -15.4619   25.3062 N   0  0  0  0  0  0  0  0  0  0  0  0
    9.3462  -15.5362   27.4041 C   0  0  0  0  0  0  0  0  0  0  0  0
    9.9269  -15.0016   28.3793 O   0  0  0  0  0  0  0  0  0  0  0  0
    9.2453  -16.9089   27.3779 O   0  0  0  0  0  0  0  0  0  0  0  0
  2  1  1  0
  3  2  2  0
  4  2  1  0
  4  5  1  0
  5  6  1  6
  7  5  1  0
  7 11  1  0
  8  7  2  0
 10  9  1  1
 10 11  1  0
 10 12  1  0
 12 19  1  0
 13 12  2  0
 15 14  1  1
 16 15  1  0
 17 15  1  0
 18 17  1  1
 19 18  1  0
 20 22  1  0
 20 18  1  0
 21 20  2  0
M  END
$$$$
