NAL.pdb
     RDKit          3D

 22 21  0  0  1  0  0  0  0  0999 V2000
    8.5993  -15.4923   19.0182 N   0  0  0  0  0  0  0  0  0  0  0  0
    8.0945  -15.0560   20.2736 C   0  0  0  0  0  0  0  0  0  0  0  0
    7.1088  -14.2831   20.2455 O   0  0  0  0  0  0  0  0  0  0  0  0
    8.7117  -15.5003   21.5298 C   0  0  0  0  0  0  0  0  0  0  0  0
    9.9268  -16.3772   21.3734 C   0  0  2  0  0  0  0  0  0  0  0  0
    9.4923  -17.4770   20.4782 N   0  0  0  0  0  0  0  0  0  0  0  0
   10.2640  -16.9601   22.6999 C   0  0  0  0  0  0  0  0  0  0  0  0
    9.7794  -18.0247   23.1245 O   0  0  0  0  0  0  0  0  0  0  0  0
   12.7072  -16.0730   25.4116 C   0  0  0  0  0  0  0  0  0  0  0  0
   11.5129  -16.8271   24.9006 C   0  0  2  0  0  0  0  0  0  0  0  0
   11.1891  -16.3118   23.5850 N   0  0  0  0  0  0  0  0  0  0  0  0
   10.3600  -16.7697   25.8174 C   0  0  0  0  0  0  0  0  0  0  0  0
   10.4271  -17.4040   26.9069 O   0  0  0  0  0  0  0  0  0  0  0  0
    6.3875  -13.2472   25.6644 C   0  0  0  0  0  0  0  0  0  0  0  0
    7.7591  -13.5283   26.1780 C   0  0  1  0  0  0  0  0  0  0  0  0
    8.4584  -12.2830   26.7188 C   0  0  0  0  0  0  0  0  0  0  0  0
    7.8650  -14.6535   27.1333 C   0  0  0  0  0  0  0  0  0  0  0  0
    8.1278  -15.9961   26.5437 C   0  0  2  0  0  0  0  0  0  0  0  0
    9.1608  -16.0435   25.5642 N   0  0  0  0  0  0  0  0  0  0  0  0
    6.8586  -16.4705   25.9390 C   0  0  0  0  0  0  0  0  0  0  0  0
    6.8495  -16.7497   24.7159 O   0  0  0  0  0  0  0  0  0  0  0  0
    5.6898  -16.6205   26.6507 O   0  0  0  0  0  0  0  0  0  0  0  0
  2  1  1  0
  3  2  2  0
  4  2  1  0
  4  5  1  0
  5  6  1  6
  7  5  1  0
  7 11  1  0
  8  7  2  0
 10  9  1  1
 10 11  1  0
 10 12  1  0
 12 19  1  0
 13 12  2  0
 15 14  1  1
 16 15  1  0
 17 15  1  0
 18 17  1  6
 19 18  1  0
 20 22  1  0
 20 18  1  0
 21 20  2  0
M  END
$$$$
