NAL.pdb
     RDKit          3D

 22 21  0  0  1  0  0  0  0  0999 V2000
    7.3067  -21.1577   20.5415 N   0  0  0  0  0  0  0  0  0  0  0  0
    8.4010  -20.5967   19.8282 C   0  0  0  0  0  0  0  0  0  0  0  0
    8.8115  -21.2377   18.8328 O   0  0  0  0  0  0  0  0  0  0  0  0
    9.0066  -19.3280   20.2526 C   0  0  0  0  0  0  0  0  0  0  0  0
    8.4365  -18.7348   21.5148 C   0  0  2  0  0  0  0  0  0  0  0  0
    6.9675  -18.7405   21.3106 N   0  0  0  0  0  0  0  0  0  0  0  0
    8.8882  -17.3213   21.6197 C   0  0  0  0  0  0  0  0  0  0  0  0
   10.0850  -16.9867   21.6843 O   0  0  0  0  0  0  0  0  0  0  0  0
    7.2647  -14.0115   21.1318 C   0  0  0  0  0  0  0  0  0  0  0  0
    8.3474  -14.8493   21.7499 C   0  0  2  0  0  0  0  0  0  0  0  0
    7.9465  -16.2389   21.6532 N   0  0  0  0  0  0  0  0  0  0  0  0
    8.6580  -14.4573   23.1367 C   0  0  0  0  0  0  0  0  0  0  0  0
    9.2930  -13.3832   23.3291 O   0  0  0  0  0  0  0  0  0  0  0  0
    5.4061  -12.7707   26.5246 C   0  0  0  0  0  0  0  0  0  0  0  0
    6.7679  -13.0148   25.9677 C   0  0  1  0  0  0  0  0  0  0  0  0
    7.7070  -11.8244   26.1503 C   0  0  0  0  0  0  0  0  0  0  0  0
    7.4169  -14.2736   26.3967 C   0  0  0  0  0  0  0  0  0  0  0  0
    8.5907  -14.7168   25.5936 C   0  0  2  0  0  0  0  0  0  0  0  0
    8.2914  -15.2079   24.2907 N   0  0  0  0  0  0  0  0  0  0  0  0
    9.2830  -15.7762   26.3683 C   0  0  0  0  0  0  0  0  0  0  0  0
    9.6558  -15.5123   27.5367 O   0  0  0  0  0  0  0  0  0  0  0  0
    9.5374  -17.0345   25.8713 O   0  0  0  0  0  0  0  0  0  0  0  0
  2  1  1  0
  3  2  2  0
  4  2  1  0
  4  5  1  0
  5  6  1  6
  7  5  1  0
  7 11  1  0
  8  7  2  0
 10  9  1  1
 10 11  1  0
 10 12  1  0
 12 19  1  0
 13 12  2  0
 15 14  1  1
 16 15  1  0
 17 15  1  0
 18 17  1  1
 19 18  1  0
 20 22  1  0
 20 18  1  0
 21 20  2  0
M  END
$$$$
