NAL.pdb
     RDKit          3D

 22 21  0  0  1  0  0  0  0  0999 V2000
    5.7938  -21.5907   22.4306 N   0  0  0  0  0  0  0  0  0  0  0  0
    5.8782  -20.9422   21.1683 C   0  0  0  0  0  0  0  0  0  0  0  0
    5.6321  -21.6423   20.1588 O   0  0  0  0  0  0  0  0  0  0  0  0
    6.2376  -19.5215   21.0732 C   0  0  0  0  0  0  0  0  0  0  0  0
    6.5803  -18.8569   22.3812 C   0  0  2  0  0  0  0  0  0  0  0  0
    5.3056  -18.2653   22.8553 N   0  0  0  0  0  0  0  0  0  0  0  0
    7.5379  -17.7503   22.1134 C   0  0  0  0  0  0  0  0  0  0  0  0
    8.7647  -17.9194   21.9911 O   0  0  0  0  0  0  0  0  0  0  0  0
    7.2606  -14.2000   21.0527 C   0  0  0  0  0  0  0  0  0  0  0  0
    7.9979  -15.2793   21.7927 C   0  0  2  0  0  0  0  0  0  0  0  0
    7.0897  -16.3938   21.9779 N   0  0  0  0  0  0  0  0  0  0  0  0
    8.5717  -14.8142   23.0685 C   0  0  0  0  0  0  0  0  0  0  0  0
    9.5957  -14.0766   23.0327 O   0  0  0  0  0  0  0  0  0  0  0  0
    5.7227  -12.4143   26.6743 C   0  0  0  0  0  0  0  0  0  0  0  0
    6.9770  -12.7630   25.9467 C   0  0  1  0  0  0  0  0  0  0  0  0
    7.9044  -11.5652   25.7526 C   0  0  0  0  0  0  0  0  0  0  0  0
    7.7194  -13.9286   26.4762 C   0  0  0  0  0  0  0  0  0  0  0  0
    8.6524  -14.6011   25.5295 C   0  0  2  0  0  0  0  0  0  0  0  0
    8.0519  -15.1377   24.3548 N   0  0  0  0  0  0  0  0  0  0  0  0
    9.3294  -15.6915   26.2742 C   0  0  0  0  0  0  0  0  0  0  0  0
    9.9106  -15.4069   27.3489 O   0  0  0  0  0  0  0  0  0  0  0  0
    9.3527  -16.9999   25.8470 O   0  0  0  0  0  0  0  0  0  0  0  0
  2  1  1  0
  3  2  2  0
  4  2  1  0
  4  5  1  0
  5  6  1  6
  7  5  1  0
  7 11  1  0
  8  7  2  0
 10  9  1  1
 10 11  1  0
 10 12  1  0
 12 19  1  0
 13 12  2  0
 15 14  1  1
 16 15  1  0
 17 15  1  0
 18 17  1  1
 19 18  1  0
 20 22  1  0
 20 18  1  0
 21 20  2  0
M  END
$$$$
