NAL.pdb
     RDKit          3D

 22 21  0  0  1  0  0  0  0  0999 V2000
    9.4115  -21.5993   19.4952 N   0  0  0  0  0  0  0  0  0  0  0  0
    8.5755  -20.4863   19.2061 C   0  0  0  0  0  0  0  0  0  0  0  0
    7.4965  -20.7312   18.6182 O   0  0  0  0  0  0  0  0  0  0  0  0
    8.9745  -19.1251   19.5858 C   0  0  0  0  0  0  0  0  0  0  0  0
    8.4650  -18.6563   20.9240 C   0  0  2  0  0  0  0  0  0  0  0  0
    6.9875  -18.6656   20.7955 N   0  0  0  0  0  0  0  0  0  0  0  0
    8.9069  -17.2513   21.1332 C   0  0  0  0  0  0  0  0  0  0  0  0
   10.1020  -16.9095   21.1910 O   0  0  0  0  0  0  0  0  0  0  0  0
    7.2034  -13.9292   21.0938 C   0  0  0  0  0  0  0  0  0  0  0  0
    8.3478  -14.8087   21.5096 C   0  0  2  0  0  0  0  0  0  0  0  0
    7.9570  -16.1862   21.2836 N   0  0  0  0  0  0  0  0  0  0  0  0
    8.7776  -14.5756   22.9003 C   0  0  0  0  0  0  0  0  0  0  0  0
    9.8511  -13.9416   23.0986 O   0  0  0  0  0  0  0  0  0  0  0  0
    5.6988  -12.3617   26.5364 C   0  0  0  0  0  0  0  0  0  0  0  0
    6.9855  -12.7562   25.8938 C   0  0  1  0  0  0  0  0  0  0  0  0
    8.0710  -11.6910   26.0336 C   0  0  0  0  0  0  0  0  0  0  0  0
    7.5019  -14.0922   26.2658 C   0  0  0  0  0  0  0  0  0  0  0  0
    8.5253  -14.6797   25.3567 C   0  0  2  0  0  0  0  0  0  0  0  0
    8.0645  -15.0169   24.0519 N   0  0  0  0  0  0  0  0  0  0  0  0
    9.0576  -15.8973   26.0169 C   0  0  0  0  0  0  0  0  0  0  0  0
    8.9497  -16.9947   25.4185 O   0  0  0  0  0  0  0  0  0  0  0  0
    9.6642  -15.8855   27.2526 O   0  0  0  0  0  0  0  0  0  0  0  0
  2  1  1  0
  3  2  2  0
  4  2  1  0
  4  5  1  0
  5  6  1  6
  7  5  1  0
  7 11  1  0
  8  7  2  0
 10  9  1  1
 10 11  1  0
 10 12  1  0
 12 19  1  0
 13 12  2  0
 15 14  1  1
 16 15  1  0
 17 15  1  0
 18 17  1  1
 19 18  1  0
 20 22  1  0
 20 18  1  0
 21 20  2  0
M  END
$$$$
