CYP.pdb
     RDKit          3D

 26 27  0  0  1  0  0  0  0  0999 V2000
   20.9025  -26.1361  -16.1780 N   0  0  0  0  0  0  0  0  0  0  0  0
   19.7779  -26.6668  -15.4240 C   0  0  1  0  0  0  0  0  0  0  0  0
   19.4933  -28.0447  -16.0215 C   0  0  0  0  0  0  0  0  0  0  0  0
   20.6804  -29.2691  -15.3670 S   0  0  0  0  0  0  0  0  0  0  0  0
   20.1214  -26.7966  -13.9747 C   0  0  0  0  0  0  0  0  0  0  0  0
   20.9936  -25.9826  -13.5564 O   0  0  0  0  0  0  0  0  0  0  0  0
   18.0042  -25.1495   -5.8760 O   0  0  0  0  0  0  0  0  0  0  0  0
   18.2195  -25.4559   -7.2268 C   0  0  0  0  0  0  0  0  0  0  0  0
   17.5651  -26.4961   -7.8465 C   0  0  0  0  0  0  0  0  0  0  0  0
   17.8049  -26.7675   -9.1825 C   0  0  0  0  0  0  0  0  0  0  0  0
   18.6839  -26.0409   -9.9571 C   0  0  0  0  0  0  0  0  0  0  0  0
   18.9912  -26.3201  -11.3499 C   0  0  0  0  0  0  0  0  0  0  0  0
   19.6648  -27.6273  -11.6745 C   0  0  2  0  0  0  0  0  0  0  0  0
   19.5268  -27.7460  -13.1327 N   0  0  0  0  0  0  0  0  0  0  0  0
   19.0735  -28.8143  -11.0249 C   0  0  0  0  0  0  0  0  0  0  0  0
   17.9616  -29.2121  -11.5506 O   0  0  0  0  0  0  0  0  0  0  0  0
   19.3364  -24.9869   -9.3004 C   0  0  0  0  0  0  0  0  0  0  0  0
   19.1033  -24.7136   -7.9778 C   0  0  0  0  0  0  0  0  0  0  0  0
   19.6286  -29.4981   -9.9330 N   0  0  0  0  0  0  0  0  0  0  0  0
   20.7924  -29.0818   -9.1783 C   0  0  0  0  0  0  0  0  0  0  0  0
   21.5780  -30.3785   -8.9636 C   0  0  0  0  0  0  0  0  0  0  0  0
   20.5943  -31.4657   -9.3041 C   0  0  0  0  0  0  0  0  0  0  0  0
   19.2695  -30.7364   -9.2899 C   0  0  1  0  0  0  0  0  0  0  0  0
   18.6904  -30.6534   -7.9707 C   0  0  0  0  0  0  0  0  0  0  0  0
   18.2397  -31.8747   -7.4220 O   0  0  0  0  0  0  0  0  0  0  0  0
   18.5250  -29.6728   -7.2383 O   0  0  0  0  0  0  0  0  0  0  0  0
  2  5  1  0
  2  1  1  6
  3  2  1  0
  4  3  1  0
  5  6  2  0
  7  8  1  0
  8  9  2  0
  8 18  1  0
  9 10  1  0
 10 11  2  0
 11 12  1  0
 13 12  1  1
 14 13  1  0
 14  5  1  0
 15 16  2  0
 15 13  1  0
 17 11  1  0
 18 17  2  0
 19 15  1  0
 20 19  1  0
 21 22  1  0
 21 20  1  0
 22 23  1  0
 23 19  1  0
 23 24  1  1
 24 25  1  0
 26 24  2  0
M  END
$$$$
