CYP.pdb
     RDKit          3D

 26 27  0  0  1  0  0  0  0  0999 V2000
   25.4232  -28.9573  -17.8416 N   0  0  0  0  0  0  0  0  0  0  0  0
   24.3690  -29.8385  -17.3651 C   0  0  1  0  0  0  0  0  0  0  0  0
   25.0245  -31.2078  -17.1862 C   0  0  0  0  0  0  0  0  0  0  0  0
   26.3535  -31.1081  -15.9370 S   0  0  0  0  0  0  0  0  0  0  0  0
   23.8210  -29.3571  -16.0600 C   0  0  0  0  0  0  0  0  0  0  0  0
   24.5003  -28.4526  -15.4952 O   0  0  0  0  0  0  0  0  0  0  0  0
   18.3958  -25.3116  -10.6515 O   0  0  0  0  0  0  0  0  0  0  0  0
   19.1204  -26.0067  -11.6297 C   0  0  0  0  0  0  0  0  0  0  0  0
   20.3166  -25.5326  -12.1181 C   0  0  0  0  0  0  0  0  0  0  0  0
   21.0025  -26.2480  -13.0844 C   0  0  0  0  0  0  0  0  0  0  0  0
   20.5514  -27.4419  -13.6058 C   0  0  0  0  0  0  0  0  0  0  0  0
   21.2227  -28.2004  -14.6481 C   0  0  0  0  0  0  0  0  0  0  0  0
   22.1399  -29.3179  -14.2265 C   0  0  2  0  0  0  0  0  0  0  0  0
   22.6425  -29.8631  -15.4952 N   0  0  0  0  0  0  0  0  0  0  0  0
   21.4969  -30.3950  -13.4472 C   0  0  0  0  0  0  0  0  0  0  0  0
   21.0576  -31.3800  -14.1596 O   0  0  0  0  0  0  0  0  0  0  0  0
   19.3305  -27.9015  -13.0901 C   0  0  0  0  0  0  0  0  0  0  0  0
   18.6467  -27.1975  -12.1334 C   0  0  0  0  0  0  0  0  0  0  0  0
   21.3529  -30.4068  -12.0519 N   0  0  0  0  0  0  0  0  0  0  0  0
   21.6807  -29.3145  -11.1592 C   0  0  0  0  0  0  0  0  0  0  0  0
   22.3748  -29.9974   -9.9775 C   0  0  0  0  0  0  0  0  0  0  0  0
   22.0443  -31.4558  -10.1488 C   0  0  0  0  0  0  0  0  0  0  0  0
   20.9022  -31.4271  -11.1398 C   0  0  1  0  0  0  0  0  0  0  0  0
   19.6190  -31.2312  -10.5093 C   0  0  0  0  0  0  0  0  0  0  0  0
   19.0772  -29.9308  -10.6149 O   0  0  0  0  0  0  0  0  0  0  0  0
   18.9124  -32.0296   -9.8857 O   0  0  0  0  0  0  0  0  0  0  0  0
  2  5  1  0
  2  1  1  1
  3  2  1  0
  4  3  1  0
  5  6  2  0
  7  8  1  0
  8  9  2  0
  8 18  1  0
  9 10  1  0
 10 11  2  0
 11 12  1  0
 13 12  1  6
 14 13  1  0
 14  5  1  0
 15 16  2  0
 15 13  1  0
 17 11  1  0
 18 17  2  0
 19 15  1  0
 20 19  1  0
 21 22  1  0
 21 20  1  0
 22 23  1  0
 23 19  1  0
 23 24  1  1
 24 25  1  0
 26 24  2  0
M  END
$$$$
