CYP.pdb
     RDKit          3D

 26 27  0  0  1  0  0  0  0  0999 V2000
   30.1162  -22.6433  -17.8038 N   0  0  0  0  0  0  0  0  0  0  0  0
   29.0020  -21.7166  -17.6837 C   0  0  1  0  0  0  0  0  0  0  0  0
   28.1969  -21.8688  -18.9741 C   0  0  0  0  0  0  0  0  0  0  0  0
   26.6580  -20.8901  -18.8720 S   0  0  0  0  0  0  0  0  0  0  0  0
   28.1498  -22.0575  -16.5035 C   0  0  0  0  0  0  0  0  0  0  0  0
   28.0004  -23.2947  -16.2907 O   0  0  0  0  0  0  0  0  0  0  0  0
   23.7511  -20.5324   -8.8187 O   0  0  0  0  0  0  0  0  0  0  0  0
   24.5795  -20.5684   -9.9490 C   0  0  0  0  0  0  0  0  0  0  0  0
   25.8181  -21.1678   -9.9201 C   0  0  0  0  0  0  0  0  0  0  0  0
   26.6070  -21.1826  -11.0573 C   0  0  0  0  0  0  0  0  0  0  0  0
   26.2209  -20.6185  -12.2545 C   0  0  0  0  0  0  0  0  0  0  0  0
   27.0368  -20.5794  -13.4566 C   0  0  0  0  0  0  0  0  0  0  0  0
   26.6581  -21.4894  -14.5951 C   0  0  2  0  0  0  0  0  0  0  0  0
   27.5558  -21.0861  -15.6865 N   0  0  0  0  0  0  0  0  0  0  0  0
   25.2556  -21.3797  -15.0442 C   0  0  0  0  0  0  0  0  0  0  0  0
   25.0351  -20.4141  -15.8747 O   0  0  0  0  0  0  0  0  0  0  0  0
   24.9545  -20.0151  -12.2556 C   0  0  0  0  0  0  0  0  0  0  0  0
   24.1689  -19.9971  -11.1327 C   0  0  0  0  0  0  0  0  0  0  0  0
   24.2109  -22.2260  -14.6439 N   0  0  0  0  0  0  0  0  0  0  0  0
   24.3189  -23.3074  -13.6868 C   0  0  0  0  0  0  0  0  0  0  0  0
   23.5064  -24.4422  -14.3167 C   0  0  0  0  0  0  0  0  0  0  0  0
   22.7109  -23.7673  -15.4017 C   0  0  0  0  0  0  0  0  0  0  0  0
   22.8285  -22.3029  -15.0429 C   0  0  1  0  0  0  0  0  0  0  0  0
   21.8380  -21.8807  -14.0821 C   0  0  0  0  0  0  0  0  0  0  0  0
   20.5359  -21.6814  -14.5926 O   0  0  0  0  0  0  0  0  0  0  0  0
   21.9503  -21.6641  -12.8714 O   0  0  0  0  0  0  0  0  0  0  0  0
  2  5  1  0
  2  1  1  6
  3  2  1  0
  4  3  1  0
  5  6  2  0
  7  8  1  0
  8  9  2  0
  8 18  1  0
  9 10  1  0
 10 11  2  0
 11 12  1  0
 13 12  1  1
 14 13  1  0
 14  5  1  0
 15 16  2  0
 15 13  1  0
 17 11  1  0
 18 17  2  0
 19 15  1  0
 20 19  1  0
 21 22  1  0
 21 20  1  0
 22 23  1  0
 23 19  1  0
 23 24  1  1
 24 25  1  0
 26 24  2  0
M  END
$$$$
