CYP.pdb
     RDKit          3D

 26 27  0  0  1  0  0  0  0  0999 V2000
   26.9094  -11.6917  -17.1066 N   0  0  0  0  0  0  0  0  0  0  0  0
   26.4701  -10.4872  -16.4204 C   0  0  1  0  0  0  0  0  0  0  0  0
   27.2002   -9.3319  -17.1051 C   0  0  0  0  0  0  0  0  0  0  0  0
   28.9761   -9.3727  -16.6796 S   0  0  0  0  0  0  0  0  0  0  0  0
   24.9914  -10.3089  -16.5500 C   0  0  0  0  0  0  0  0  0  0  0  0
   24.5174  -10.5806  -17.6901 O   0  0  0  0  0  0  0  0  0  0  0  0
   21.4489  -16.0029  -16.6904 O   0  0  0  0  0  0  0  0  0  0  0  0
   21.6377  -14.6995  -16.2104 C   0  0  0  0  0  0  0  0  0  0  0  0
   22.5763  -14.4120  -15.2456 C   0  0  0  0  0  0  0  0  0  0  0  0
   22.7326  -13.1119  -14.7971 C   0  0  0  0  0  0  0  0  0  0  0  0
   21.9862  -12.0530  -15.2685 C   0  0  0  0  0  0  0  0  0  0  0  0
   22.0939  -10.6835  -14.7941 C   0  0  0  0  0  0  0  0  0  0  0  0
   22.7404   -9.6718  -15.7033 C   0  0  2  0  0  0  0  0  0  0  0  0
   24.1807   -9.8738  -15.4929 N   0  0  0  0  0  0  0  0  0  0  0  0
   22.3934   -8.2645  -15.4208 C   0  0  0  0  0  0  0  0  0  0  0  0
   23.1221   -7.7076  -14.5100 O   0  0  0  0  0  0  0  0  0  0  0  0
   21.0378  -12.3745  -16.2509 C   0  0  0  0  0  0  0  0  0  0  0  0
   20.8782  -13.6599  -16.6988 C   0  0  0  0  0  0  0  0  0  0  0  0
   21.3758   -7.5399  -16.0590 N   0  0  0  0  0  0  0  0  0  0  0  0
   20.5311   -8.0314  -17.1277 C   0  0  0  0  0  0  0  0  0  0  0  0
   20.4514   -6.8569  -18.1070 C   0  0  0  0  0  0  0  0  0  0  0  0
   20.9630   -5.6828  -17.3163 C   0  0  0  0  0  0  0  0  0  0  0  0
   20.9076   -6.1875  -15.8917 C   0  0  1  0  0  0  0  0  0  0  0  0
   19.6115   -6.0064  -15.2837 C   0  0  0  0  0  0  0  0  0  0  0  0
   19.2557   -4.6719  -14.9866 O   0  0  0  0  0  0  0  0  0  0  0  0
   18.7553   -6.8429  -14.9791 O   0  0  0  0  0  0  0  0  0  0  0  0
  2  5  1  0
  2  1  1  6
  3  2  1  0
  4  3  1  0
  5  6  2  0
  7  8  1  0
  8  9  2  0
  8 18  1  0
  9 10  1  0
 10 11  2  0
 11 12  1  0
 13 12  1  1
 14 13  1  0
 14  5  1  0
 15 16  2  0
 15 13  1  0
 17 11  1  0
 18 17  2  0
 19 15  1  0
 20 19  1  0
 21 22  1  0
 21 20  1  0
 22 23  1  0
 23 19  1  0
 23 24  1  6
 24 25  1  0
 26 24  2  0
M  END
$$$$
