CYP.pdb
     RDKit          3D

 26 27  0  0  1  0  0  0  0  0999 V2000
   26.4324  -20.3850  -14.0931 N   0  0  0  0  0  0  0  0  0  0  0  0
   27.5091  -20.3931  -13.1157 C   0  0  1  0  0  0  0  0  0  0  0  0
   28.4749  -19.2930  -13.5556 C   0  0  0  0  0  0  0  0  0  0  0  0
   29.2464  -19.7373  -15.1506 S   0  0  0  0  0  0  0  0  0  0  0  0
   26.9875  -20.1006  -11.7454 C   0  0  0  0  0  0  0  0  0  0  0  0
   26.3863  -18.9949  -11.6262 O   0  0  0  0  0  0  0  0  0  0  0  0
   20.7864  -20.0292  -12.0956 O   0  0  0  0  0  0  0  0  0  0  0  0
   21.9182  -20.3692  -11.3417 C   0  0  0  0  0  0  0  0  0  0  0  0
   22.2140  -19.7382  -10.1548 C   0  0  0  0  0  0  0  0  0  0  0  0
   23.3415  -20.1022   -9.4391 C   0  0  0  0  0  0  0  0  0  0  0  0
   24.2148  -21.0865   -9.8504 C   0  0  0  0  0  0  0  0  0  0  0  0
   25.4281  -21.4683   -9.1473 C   0  0  0  0  0  0  0  0  0  0  0  0
   26.6504  -20.6085   -9.3333 C   0  0  2  0  0  0  0  0  0  0  0  0
   27.1469  -20.9797  -10.6657 N   0  0  0  0  0  0  0  0  0  0  0  0
   27.7182  -20.8141   -8.3342 C   0  0  0  0  0  0  0  0  0  0  0  0
   28.5929  -21.7069   -8.6638 O   0  0  0  0  0  0  0  0  0  0  0  0
   23.8890  -21.7129  -11.0626 C   0  0  0  0  0  0  0  0  0  0  0  0
   22.7742  -21.3566  -11.7758 C   0  0  0  0  0  0  0  0  0  0  0  0
   27.8297  -20.1243   -7.1178 N   0  0  0  0  0  0  0  0  0  0  0  0
   27.0279  -18.9879   -6.7141 C   0  0  0  0  0  0  0  0  0  0  0  0
   28.0362  -18.0341   -6.0673 C   0  0  0  0  0  0  0  0  0  0  0  0
   29.2556  -18.8866   -5.8391 C   0  0  0  0  0  0  0  0  0  0  0  0
   28.7172  -20.2912   -5.9950 C   0  0  1  0  0  0  0  0  0  0  0  0
   28.1497  -20.8118   -4.7746 C   0  0  0  0  0  0  0  0  0  0  0  0
   29.0617  -21.0229   -3.7166 O   0  0  0  0  0  0  0  0  0  0  0  0
   26.9802  -21.1048   -4.5065 O   0  0  0  0  0  0  0  0  0  0  0  0
  2  5  1  0
  2  1  1  6
  3  2  1  0
  4  3  1  0
  5  6  2  0
  7  8  1  0
  8  9  2  0
  8 18  1  0
  9 10  1  0
 10 11  2  0
 11 12  1  0
 13 12  1  1
 14 13  1  0
 14  5  1  0
 15 16  2  0
 15 13  1  0
 17 11  1  0
 18 17  2  0
 19 15  1  0
 20 19  1  0
 21 22  1  0
 21 20  1  0
 22 23  1  0
 23 19  1  0
 23 24  1  1
 24 25  1  0
 26 24  2  0
M  END
$$$$
