CYP.pdb
     RDKit          3D

 26 27  0  0  1  0  0  0  0  0999 V2000
   27.0580  -19.0913  -20.5123 N   0  0  0  0  0  0  0  0  0  0  0  0
   26.7802  -20.1611  -19.5672 C   0  0  1  0  0  0  0  0  0  0  0  0
   27.8621  -21.2143  -19.8055 C   0  0  0  0  0  0  0  0  0  0  0  0
   27.2221  -22.5354  -20.8926 S   0  0  0  0  0  0  0  0  0  0  0  0
   26.8514  -19.6611  -18.1600 C   0  0  0  0  0  0  0  0  0  0  0  0
   27.4535  -18.5592  -18.0132 O   0  0  0  0  0  0  0  0  0  0  0  0
   19.8161  -19.1845  -16.2524 O   0  0  0  0  0  0  0  0  0  0  0  0
   21.2033  -19.0291  -16.1234 C   0  0  0  0  0  0  0  0  0  0  0  0
   21.7927  -18.7682  -14.9074 C   0  0  0  0  0  0  0  0  0  0  0  0
   23.1664  -18.6210  -14.8209 C   0  0  0  0  0  0  0  0  0  0  0  0
   24.0089  -18.7218  -15.9075 C   0  0  0  0  0  0  0  0  0  0  0  0
   25.4494  -18.5343  -15.8627 C   0  0  0  0  0  0  0  0  0  0  0  0
   26.3157  -19.7592  -15.7324 C   0  0  2  0  0  0  0  0  0  0  0  0
   26.2951  -20.3538  -17.0761 N   0  0  0  0  0  0  0  0  0  0  0  0
   25.8487  -20.7539  -14.7459 C   0  0  0  0  0  0  0  0  0  0  0  0
   25.3014  -21.8038  -15.2644 O   0  0  0  0  0  0  0  0  0  0  0  0
   23.3816  -18.9884  -17.1336 C   0  0  0  0  0  0  0  0  0  0  0  0
   22.0220  -19.1349  -17.2255 C   0  0  0  0  0  0  0  0  0  0  0  0
   25.9684  -20.6283  -13.3538 N   0  0  0  0  0  0  0  0  0  0  0  0
   26.5741  -19.5140  -12.6547 C   0  0  0  0  0  0  0  0  0  0  0  0
   27.3991  -20.1756  -11.5474 C   0  0  0  0  0  0  0  0  0  0  0  0
   26.8862  -21.5900  -11.5010 C   0  0  0  0  0  0  0  0  0  0  0  0
   25.5886  -21.5020  -12.2728 C   0  0  1  0  0  0  0  0  0  0  0  0
   24.4751  -21.0927  -11.4511 C   0  0  0  0  0  0  0  0  0  0  0  0
   23.9591  -19.8047  -11.7168 O   0  0  0  0  0  0  0  0  0  0  0  0
   23.8962  -21.6972  -10.5429 O   0  0  0  0  0  0  0  0  0  0  0  0
  2  5  1  0
  2  1  1  6
  3  2  1  0
  4  3  1  0
  5  6  2  0
  7  8  1  0
  8  9  2  0
  8 18  1  0
  9 10  1  0
 10 11  2  0
 11 12  1  0
 13 12  1  6
 14 13  1  0
 14  5  1  0
 15 16  2  0
 15 13  1  0
 17 11  1  0
 18 17  2  0
 19 15  1  0
 20 19  1  0
 21 22  1  0
 21 20  1  0
 22 23  1  0
 23 19  1  0
 23 24  1  1
 24 25  1  0
 26 24  2  0
M  END
$$$$
