CYP.pdb
     RDKit          3D

 26 27  0  0  1  0  0  0  0  0999 V2000
   29.1335  -20.0266  -18.9237 N   0  0  0  0  0  0  0  0  0  0  0  0
   28.4527  -19.1497  -17.9844 C   0  0  1  0  0  0  0  0  0  0  0  0
   27.3283  -18.4859  -18.7792 C   0  0  0  0  0  0  0  0  0  0  0  0
   26.1059  -19.7387  -19.3016 S   0  0  0  0  0  0  0  0  0  0  0  0
   27.8833  -19.9300  -16.8432 C   0  0  0  0  0  0  0  0  0  0  0  0
   27.7761  -21.1733  -17.0455 O   0  0  0  0  0  0  0  0  0  0  0  0
   24.8018  -21.1592   -8.4611 O   0  0  0  0  0  0  0  0  0  0  0  0
   25.4238  -20.7598   -9.6522 C   0  0  0  0  0  0  0  0  0  0  0  0
   26.7228  -21.1093   -9.9432 C   0  0  0  0  0  0  0  0  0  0  0  0
   27.3021  -20.6952  -11.1302 C   0  0  0  0  0  0  0  0  0  0  0  0
   26.6420  -19.9317  -12.0693 C   0  0  0  0  0  0  0  0  0  0  0  0
   27.2289  -19.4453  -13.3067 C   0  0  0  0  0  0  0  0  0  0  0  0
   26.8609  -20.1498  -14.5858 C   0  0  2  0  0  0  0  0  0  0  0  0
   27.4944  -19.3378  -15.6340 N   0  0  0  0  0  0  0  0  0  0  0  0
   25.4115  -20.2518  -14.8494 C   0  0  0  0  0  0  0  0  0  0  0  0
   24.9269  -19.2802  -15.5509 O   0  0  0  0  0  0  0  0  0  0  0  0
   25.3200  -19.5905  -11.7472 C   0  0  0  0  0  0  0  0  0  0  0  0
   24.7411  -19.9973  -10.5734 C   0  0  0  0  0  0  0  0  0  0  0  0
   24.5818  -21.2936  -14.4088 N   0  0  0  0  0  0  0  0  0  0  0  0
   24.9950  -22.4144  -13.5899 C   0  0  0  0  0  0  0  0  0  0  0  0
   24.2908  -23.6167  -14.2248 C   0  0  0  0  0  0  0  0  0  0  0  0
   23.2519  -23.0023  -15.1242 C   0  0  0  0  0  0  0  0  0  0  0  0
   23.1863  -21.5731  -14.6341 C   0  0  1  0  0  0  0  0  0  0  0  0
   22.2889  -21.4052  -13.5165 C   0  0  0  0  0  0  0  0  0  0  0  0
   20.9207  -21.2774  -13.8439 O   0  0  0  0  0  0  0  0  0  0  0  0
   22.5311  -21.3553  -12.3064 O   0  0  0  0  0  0  0  0  0  0  0  0
  2  5  1  0
  2  1  1  6
  3  2  1  0
  4  3  1  0
  5  6  2  0
  7  8  1  0
  8  9  2  0
  8 18  1  0
  9 10  1  0
 10 11  2  0
 11 12  1  0
 13 12  1  1
 14 13  1  0
 14  5  1  0
 15 16  2  0
 15 13  1  0
 17 11  1  0
 18 17  2  0
 19 15  1  0
 20 19  1  0
 21 22  1  0
 21 20  1  0
 22 23  1  0
 23 19  1  0
 23 24  1  1
 24 25  1  0
 26 24  2  0
M  END
$$$$
