CYP.pdb
     RDKit          3D

 26 27  0  0  1  0  0  0  0  0999 V2000
   22.0847  -15.0334  -17.5712 N   0  0  0  0  0  0  0  0  0  0  0  0
   22.6470  -13.9106  -18.3046 C   0  0  1  0  0  0  0  0  0  0  0  0
   22.0913  -14.0243  -19.7240 C   0  0  0  0  0  0  0  0  0  0  0  0
   22.5982  -12.5749  -20.7135 S   0  0  0  0  0  0  0  0  0  0  0  0
   22.2306  -12.6117  -17.6926 C   0  0  0  0  0  0  0  0  0  0  0  0
   21.0230  -12.5573  -17.3222 O   0  0  0  0  0  0  0  0  0  0  0  0
   22.3027   -4.8795  -13.3761 O   0  0  0  0  0  0  0  0  0  0  0  0
   22.5146   -6.1306  -13.9720 C   0  0  0  0  0  0  0  0  0  0  0  0
   21.9156   -7.2725  -13.4910 C   0  0  0  0  0  0  0  0  0  0  0  0
   22.1500   -8.4897  -14.1070 C   0  0  0  0  0  0  0  0  0  0  0  0
   22.9701   -8.6373  -15.2053 C   0  0  0  0  0  0  0  0  0  0  0  0
   23.2714   -9.9026  -15.8537 C   0  0  0  0  0  0  0  0  0  0  0  0
   22.5827  -10.2076  -17.1578 C   0  0  2  0  0  0  0  0  0  0  0  0
   23.1053  -11.5281  -17.5356 N   0  0  0  0  0  0  0  0  0  0  0  0
   22.8460   -9.2436  -18.2450 C   0  0  0  0  0  0  0  0  0  0  0  0
   23.9236   -9.4799  -18.9186 O   0  0  0  0  0  0  0  0  0  0  0  0
   23.5670   -7.4577  -15.6744 C   0  0  0  0  0  0  0  0  0  0  0  0
   23.3389   -6.2497  -15.0686 C   0  0  0  0  0  0  0  0  0  0  0  0
   22.0291   -8.1506  -18.5706 N   0  0  0  0  0  0  0  0  0  0  0  0
   20.7822   -7.8042  -17.9205 C   0  0  0  0  0  0  0  0  0  0  0  0
   19.8570   -7.4156  -19.0770 C   0  0  0  0  0  0  0  0  0  0  0  0
   20.7868   -7.2283  -20.2458 C   0  0  0  0  0  0  0  0  0  0  0  0
   22.1432   -7.1324  -19.5837 C   0  0  1  0  0  0  0  0  0  0  0  0
   22.4583   -5.7943  -19.1446 C   0  0  0  0  0  0  0  0  0  0  0  0
   22.3026   -5.5513  -17.7617 O   0  0  0  0  0  0  0  0  0  0  0  0
   22.8467   -4.8181  -19.7939 O   0  0  0  0  0  0  0  0  0  0  0  0
  2  5  1  0
  2  1  1  1
  3  2  1  0
  4  3  1  0
  5  6  2  0
  7  8  1  0
  8  9  2  0
  8 18  1  0
  9 10  1  0
 10 11  2  0
 11 12  1  0
 13 12  1  1
 14 13  1  0
 14  5  1  0
 15 16  2  0
 15 13  1  0
 17 11  1  0
 18 17  2  0
 19 15  1  0
 20 19  1  0
 21 22  1  0
 21 20  1  0
 22 23  1  0
 23 19  1  0
 23 24  1  1
 24 25  1  0
 26 24  2  0
M  END
$$$$
