CYP.pdb
     RDKit          3D

 26 27  0  0  1  0  0  0  0  0999 V2000
   30.3830  -14.8082  -20.6429 N   0  0  0  0  0  0  0  0  0  0  0  0
   31.7405  -15.2184  -20.3204 C   0  0  1  0  0  0  0  0  0  0  0  0
   32.2292  -16.0164  -21.5290 C   0  0  0  0  0  0  0  0  0  0  0  0
   33.9699  -16.5150  -21.2887 S   0  0  0  0  0  0  0  0  0  0  0  0
   32.6191  -14.0286  -20.1013 C   0  0  0  0  0  0  0  0  0  0  0  0
   32.5676  -13.1507  -21.0096 O   0  0  0  0  0  0  0  0  0  0  0  0
   29.1870   -8.8056  -17.7728 O   0  0  0  0  0  0  0  0  0  0  0  0
   30.3222   -9.6273  -17.7411 C   0  0  0  0  0  0  0  0  0  0  0  0
   30.2222  -10.9998  -17.7170 C   0  0  0  0  0  0  0  0  0  0  0  0
   31.3670  -11.7773  -17.6857 C   0  0  0  0  0  0  0  0  0  0  0  0
   32.6408  -11.2499  -17.6770 C   0  0  0  0  0  0  0  0  0  0  0  0
   33.8638  -12.0317  -17.6044 C   0  0  0  0  0  0  0  0  0  0  0  0
   34.3331  -12.7235  -18.8570 C   0  0  2  0  0  0  0  0  0  0  0  0
   33.4423  -13.8862  -18.9762 N   0  0  0  0  0  0  0  0  0  0  0  0
   35.7376  -13.1790  -18.8316 C   0  0  0  0  0  0  0  0  0  0  0  0
   35.8946  -14.4044  -18.4515 O   0  0  0  0  0  0  0  0  0  0  0  0
   32.7132   -9.8492  -17.7024 C   0  0  0  0  0  0  0  0  0  0  0  0
   31.5832   -9.0742  -17.7331 C   0  0  0  0  0  0  0  0  0  0  0  0
   36.8469  -12.3966  -19.1858 N   0  0  0  0  0  0  0  0  0  0  0  0
   36.7993  -11.0309  -19.6654 C   0  0  0  0  0  0  0  0  0  0  0  0
   37.8192  -11.0035  -20.8072 C   0  0  0  0  0  0  0  0  0  0  0  0
   38.6135  -12.2686  -20.6220 C   0  0  0  0  0  0  0  0  0  0  0  0
   38.2584  -12.6846  -19.2120 C   0  0  1  0  0  0  0  0  0  0  0  0
   39.0830  -12.0450  -18.2152 C   0  0  0  0  0  0  0  0  0  0  0  0
   38.4485  -11.0440  -17.4464 O   0  0  0  0  0  0  0  0  0  0  0  0
   40.2681  -12.2369  -17.9253 O   0  0  0  0  0  0  0  0  0  0  0  0
  2  5  1  0
  2  1  1  6
  3  2  1  0
  4  3  1  0
  5  6  2  0
  7  8  1  0
  8  9  2  0
  8 18  1  0
  9 10  1  0
 10 11  2  0
 11 12  1  0
 13 12  1  1
 14 13  1  0
 14  5  1  0
 15 16  2  0
 15 13  1  0
 17 11  1  0
 18 17  2  0
 19 15  1  0
 20 19  1  0
 21 22  1  0
 21 20  1  0
 22 23  1  0
 23 19  1  0
 23 24  1  1
 24 25  1  0
 26 24  2  0
M  END
$$$$
