CKG.pdb
     RDKit          3D

 20 19  0  0  1  0  0  0  0  0999 V2000
    8.3696  -15.1675   19.0816 N   0  0  0  0  0  0  0  0  0  0  0  0
    8.1353  -14.0823   19.9847 C   0  0  1  0  0  0  0  0  0  0  0  0
    6.9472  -13.2346   19.5326 C   0  0  0  0  0  0  0  0  0  0  0  0
    7.2802  -12.5028   17.9230 S   0  0  0  0  0  0  0  0  0  0  0  0
    7.8738  -14.5619   21.3763 C   0  0  0  0  0  0  0  0  0  0  0  0
    7.6616  -13.7021   22.2675 O   0  0  0  0  0  0  0  0  0  0  0  0
    7.8577  -15.9374   21.7186 N   0  0  0  0  0  0  0  0  0  0  0  0
    7.5011  -16.3190   23.0888 C   0  0  1  0  0  0  0  0  0  0  0  0
    6.6529  -17.5556   23.0688 C   0  0  0  0  0  0  0  0  0  0  0  0
    5.4654  -17.4218   22.1770 C   0  0  0  0  0  0  0  0  0  0  0  0
    4.7189  -18.7544   22.0569 C   0  0  0  0  0  0  0  0  0  0  0  0
    3.5049  -18.4966   21.1914 C   0  0  0  0  0  0  0  0  0  0  0  0
    2.7488  -19.7077   20.9683 N   0  0  0  0  0  0  0  0  0  0  0  0
    8.6979  -16.5241   23.9056 C   0  0  0  0  0  0  0  0  0  0  0  0
    8.6046  -16.8442   25.1023 O   0  0  0  0  0  0  0  0  0  0  0  0
   10.0314  -16.3753   23.4005 N   0  0  0  0  0  0  0  0  0  0  0  0
   11.1660  -16.5799   24.2665 C   0  0  0  0  0  0  0  0  0  0  0  0
   12.4554  -16.4904   23.5768 C   0  0  0  0  0  0  0  0  0  0  0  0
   13.6102  -16.5702   24.3444 O   0  0  0  0  0  0  0  0  0  0  0  0
   12.5830  -16.3461   22.3361 O   0  0  0  0  0  0  0  0  0  0  0  0
  2  3  1  0
  2  1  1  6
  4  3  1  0
  5  2  1  0
  6  5  2  0
  7  5  1  0
  8  9  1  6
  8  7  1  0
 10  9  1  0
 11 12  1  0
 11 10  1  0
 13 12  1  0
 14  8  1  0
 14 15  2  0
 16 14  1  0
 17 18  1  0
 17 16  1  0
 18 19  1  0
 20 18  2  0
M  END
$$$$
