CKG.pdb
     RDKit          3D

 20 19  0  0  1  0  0  0  0  0999 V2000
    6.6119  -16.2696   26.8289 N   0  0  0  0  0  0  0  0  0  0  0  0
    6.5448  -15.1770   25.9070 C   0  0  1  0  0  0  0  0  0  0  0  0
    7.0855  -13.8924   26.5332 C   0  0  0  0  0  0  0  0  0  0  0  0
    8.7475  -14.1602   27.1682 S   0  0  0  0  0  0  0  0  0  0  0  0
    7.3142  -15.4554   24.6558 C   0  0  0  0  0  0  0  0  0  0  0  0
    8.0537  -16.4708   24.6305 O   0  0  0  0  0  0  0  0  0  0  0  0
    7.2376  -14.6217   23.5119 N   0  0  0  0  0  0  0  0  0  0  0  0
    8.0037  -14.9913   22.3175 C   0  0  1  0  0  0  0  0  0  0  0  0
    7.6077  -14.1148   21.1668 C   0  0  0  0  0  0  0  0  0  0  0  0
    8.2339  -14.5382   19.8816 C   0  0  0  0  0  0  0  0  0  0  0  0
    7.8207  -13.6053   18.7386 C   0  0  0  0  0  0  0  0  0  0  0  0
    8.5108  -14.1131   17.4915 C   0  0  0  0  0  0  0  0  0  0  0  0
    8.3222  -13.2103   16.3790 N   0  0  0  0  0  0  0  0  0  0  0  0
    9.4428  -14.9006   22.5672 C   0  0  0  0  0  0  0  0  0  0  0  0
    9.9207  -13.9412   23.1952 O   0  0  0  0  0  0  0  0  0  0  0  0
   10.3837  -15.8849   22.1184 N   0  0  0  0  0  0  0  0  0  0  0  0
   11.7735  -15.7877   22.4902 C   0  0  0  0  0  0  0  0  0  0  0  0
   12.6152  -16.8289   21.8954 C   0  0  0  0  0  0  0  0  0  0  0  0
   13.9894  -16.6280   21.8871 O   0  0  0  0  0  0  0  0  0  0  0  0
   12.1733  -17.8912   21.3928 O   0  0  0  0  0  0  0  0  0  0  0  0
  2  3  1  0
  2  1  1  1
  4  3  1  0
  5  2  1  0
  6  5  2  0
  7  5  1  0
  8  9  1  6
  8  7  1  0
 10  9  1  0
 11 12  1  0
 11 10  1  0
 13 12  1  0
 14  8  1  0
 14 15  2  0
 16 14  1  0
 17 18  1  0
 17 16  1  0
 18 19  1  0
 20 18  2  0
M  END
$$$$
