CKG.pdb
     RDKit          3D

 20 19  0  0  1  0  0  0  0  0999 V2000
    6.5168  -15.1076   27.2462 N   0  0  0  0  0  0  0  0  0  0  0  0
    7.0634  -14.2606   26.2302 C   0  0  1  0  0  0  0  0  0  0  0  0
    8.2909  -13.5076   26.7409 C   0  0  0  0  0  0  0  0  0  0  0  0
    7.8340  -11.8436   27.2503 S   0  0  0  0  0  0  0  0  0  0  0  0
    7.4537  -15.0331   25.0112 C   0  0  0  0  0  0  0  0  0  0  0  0
    7.7045  -16.2571   25.1426 O   0  0  0  0  0  0  0  0  0  0  0  0
    7.5488  -14.4369   23.7286 N   0  0  0  0  0  0  0  0  0  0  0  0
    7.8492  -15.2907   22.5749 C   0  0  1  0  0  0  0  0  0  0  0  0
    7.3002  -14.6697   21.3250 C   0  0  0  0  0  0  0  0  0  0  0  0
    7.6473  -15.4449   20.0995 C   0  0  0  0  0  0  0  0  0  0  0  0
    6.7142  -16.6484   19.9313 C   0  0  0  0  0  0  0  0  0  0  0  0
    7.1653  -17.3778   18.6848 C   0  0  0  0  0  0  0  0  0  0  0  0
    6.4393  -18.6143   18.5047 N   0  0  0  0  0  0  0  0  0  0  0  0
    9.2893  -15.5195   22.4510 C   0  0  0  0  0  0  0  0  0  0  0  0
    9.7450  -16.2279   21.5380 O   0  0  0  0  0  0  0  0  0  0  0  0
   10.2560  -14.9588   23.3491 N   0  0  0  0  0  0  0  0  0  0  0  0
   11.6662  -15.1038   23.0853 C   0  0  0  0  0  0  0  0  0  0  0  0
   12.2156  -16.3913   23.5178 C   0  0  0  0  0  0  0  0  0  0  0  0
   13.5893  -16.5751   23.4280 O   0  0  0  0  0  0  0  0  0  0  0  0
   11.5237  -17.3390   23.9645 O   0  0  0  0  0  0  0  0  0  0  0  0
  2  3  1  0
  2  1  1  1
  4  3  1  0
  5  2  1  0
  6  5  2  0
  7  5  1  0
  8  9  1  6
  8  7  1  0
 10  9  1  0
 11 12  1  0
 11 10  1  0
 13 12  1  0
 14  8  1  0
 14 15  2  0
 16 14  1  0
 17 18  1  0
 17 16  1  0
 18 19  1  0
 20 18  2  0
M  END
$$$$
