CKG.pdb
     RDKit          3D

 20 19  0  0  1  0  0  0  0  0999 V2000
    7.3595  -13.1074   18.2688 N   0  0  0  0  0  0  0  0  0  0  0  0
    8.6307  -13.5167   18.7833 C   0  0  1  0  0  0  0  0  0  0  0  0
    9.4036  -12.3287   19.3541 C   0  0  0  0  0  0  0  0  0  0  0  0
   10.0308  -11.2950   18.0218 S   0  0  0  0  0  0  0  0  0  0  0  0
    8.4917  -14.5509   19.8539 C   0  0  0  0  0  0  0  0  0  0  0  0
    7.5366  -14.4397   20.6625 O   0  0  0  0  0  0  0  0  0  0  0  0
    9.3910  -15.6390   19.9846 N   0  0  0  0  0  0  0  0  0  0  0  0
    9.1541  -16.6262   21.0426 C   0  0  1  0  0  0  0  0  0  0  0  0
    9.1546  -18.0079   20.4594 C   0  0  0  0  0  0  0  0  0  0  0  0
    7.9091  -18.3087   19.6968 C   0  0  0  0  0  0  0  0  0  0  0  0
    8.0104  -19.6689   18.9989 C   0  0  0  0  0  0  0  0  0  0  0  0
    6.7240  -19.8576   18.2249 C   0  0  0  0  0  0  0  0  0  0  0  0
    6.7355  -21.0927   17.4748 N   0  0  0  0  0  0  0  0  0  0  0  0
   10.1557  -16.5106   22.1033 C   0  0  0  0  0  0  0  0  0  0  0  0
   11.3376  -16.2373   21.8356 O   0  0  0  0  0  0  0  0  0  0  0  0
    9.8568  -16.6988   23.4928 N   0  0  0  0  0  0  0  0  0  0  0  0
   10.8790  -16.5045   24.4911 C   0  0  0  0  0  0  0  0  0  0  0  0
   11.7530  -17.6664   24.6712 C   0  0  0  0  0  0  0  0  0  0  0  0
   12.6820  -17.6274   25.7029 O   0  0  0  0  0  0  0  0  0  0  0  0
   11.7156  -18.6952   23.9523 O   0  0  0  0  0  0  0  0  0  0  0  0
  2  3  1  0
  2  1  1  1
  4  3  1  0
  5  2  1  0
  6  5  2  0
  7  5  1  0
  8  9  1  6
  8  7  1  0
 10  9  1  0
 11 12  1  0
 11 10  1  0
 13 12  1  0
 14  8  1  0
 14 15  2  0
 16 14  1  0
 17 18  1  0
 17 16  1  0
 18 19  1  0
 20 18  2  0
M  END
$$$$
