YMW.pdb
     RDKit          3D

 35 37  0  0  1  0  0  0  0  0999 V2000
    6.2496  -21.5875   17.4160 O   0  0  0  0  0  0  0  0  0  0  0  0
    6.8401  -20.9449   18.4922 C   0  0  0  0  0  0  0  0  0  0  0  0
    8.2064  -20.9728   18.6142 C   0  0  0  0  0  0  0  0  0  0  0  0
    8.8454  -20.3575   19.6557 C   0  0  0  0  0  0  0  0  0  0  0  0
    8.1198  -19.6808   20.6290 C   0  0  0  0  0  0  0  0  0  0  0  0
    8.8332  -19.0203   21.7638 C   0  0  0  0  0  0  0  0  0  0  0  0
    8.9996  -17.5696   21.3733 C   0  0  2  0  0  0  0  0  0  0  0  0
    9.9698  -17.5622   20.2905 N   0  0  0  0  0  0  0  0  0  0  0  0
    9.4049  -16.7031   22.4906 C   0  0  0  0  0  0  0  0  0  0  0  0
   10.5382  -16.7905   23.0689 O   0  0  0  0  0  0  0  0  0  0  0  0
    6.7605  -19.6576   20.4984 C   0  0  0  0  0  0  0  0  0  0  0  0
    6.1340  -20.2782   19.4492 C   0  0  0  0  0  0  0  0  0  0  0  0
    6.6804  -11.3459   27.7372 C   0  0  0  0  0  0  0  0  0  0  0  0
    6.5340  -12.0028   26.0359 S   0  0  0  0  0  0  0  0  0  0  0  0
    7.7258  -13.3884   25.8469 C   0  0  0  0  0  0  0  0  0  0  0  0
    7.6815  -13.9424   24.4627 C   0  0  0  0  0  0  0  0  0  0  0  0
    8.5653  -15.1235   24.2865 C   0  0  2  0  0  0  0  0  0  0  0  0
    8.4685  -15.7109   22.9442 N   0  0  0  0  0  0  0  0  0  0  0  0
    8.5673  -16.1312   25.3540 C   0  0  0  0  0  0  0  0  0  0  0  0
    7.6485  -16.9461   25.4731 O   0  0  0  0  0  0  0  0  0  0  0  0
    9.6310  -16.1878   26.2733 N   0  0  0  0  0  0  0  0  0  0  0  0
    9.7599  -17.1508   27.3552 C   0  0  1  0  0  0  0  0  0  0  0  0
   10.1276  -18.4728   26.7265 C   0  0  0  0  0  0  0  0  0  0  0  0
   11.4706  -18.4273   26.0839 C   0  0  0  0  0  0  0  0  0  0  0  0
   12.5592  -17.6319   26.3697 C   0  0  0  0  0  0  0  0  0  0  0  0
   13.5672  -17.9370   25.5364 N   0  0  0  0  0  0  0  0  0  0  0  0
   13.1871  -18.9158   24.6938 C   0  0  0  0  0  0  0  0  0  0  0  0
   13.8609  -19.5449   23.6692 C   0  0  0  0  0  0  0  0  0  0  0  0
   13.1766  -20.5157   22.9749 C   0  0  0  0  0  0  0  0  0  0  0  0
   11.8630  -20.8594   23.2801 C   0  0  0  0  0  0  0  0  0  0  0  0
   11.2272  -20.2076   24.3085 C   0  0  0  0  0  0  0  0  0  0  0  0
   11.8838  -19.2304   25.0238 C   0  0  0  0  0  0  0  0  0  0  0  0
   10.7669  -16.7086   28.3486 C   0  0  0  0  0  0  0  0  0  0  0  0
   11.4498  -15.5065   28.1005 O   0  0  0  0  0  0  0  0  0  0  0  0
   11.0516  -17.3342   29.3894 O   0  0  0  0  0  0  0  0  0  0  0  0
  2  1  1  0
  3  2  2  0
  4  3  1  0
  5  4  2  0
  5 11  1  0
  6  7  1  0
  6  5  1  0
  7  8  1  6
  9  7  1  0
 10  9  2  0
 11 12  2  0
 12  2  1  0
 14 13  1  0
 14 15  1  0
 15 16  1  0
 17 16  1  1
 17 19  1  0
 17 18  1  0
 18  9  1  0
 19 21  1  0
 20 19  2  0
 21 22  1  0
 22 23  1  6
 22 33  1  0
 24 23  1  0
 25 24  2  0
 26 25  1  0
 27 26  1  0
 27 32  2  0
 28 27  1  0
 29 28  2  0
 29 30  1  0
 30 31  2  0
 31 32  1  0
 32 24  1  0
 33 35  2  0
 33 34  1  0
M  END
$$$$
