YMW.pdb
     RDKit          3D

 35 37  0  0  1  0  0  0  0  0999 V2000
   12.7555  -22.8728   16.4738 O   0  0  0  0  0  0  0  0  0  0  0  0
   12.4307  -21.6670   17.0740 C   0  0  0  0  0  0  0  0  0  0  0  0
   12.6330  -20.5026   16.3771 C   0  0  0  0  0  0  0  0  0  0  0  0
   12.3323  -19.2825   16.9181 C   0  0  0  0  0  0  0  0  0  0  0  0
   11.8089  -19.1887   18.2022 C   0  0  0  0  0  0  0  0  0  0  0  0
   11.4929  -17.8475   18.7805 C   0  0  0  0  0  0  0  0  0  0  0  0
   11.0893  -18.0895   20.2170 C   0  0  2  0  0  0  0  0  0  0  0  0
    9.8410  -18.8322   20.1553 N   0  0  0  0  0  0  0  0  0  0  0  0
   10.9654  -16.8559   21.0082 C   0  0  0  0  0  0  0  0  0  0  0  0
   11.9450  -16.0744   21.2447 O   0  0  0  0  0  0  0  0  0  0  0  0
   11.6101  -20.3532   18.8875 C   0  0  0  0  0  0  0  0  0  0  0  0
   11.9155  -21.5686   18.3325 C   0  0  0  0  0  0  0  0  0  0  0  0
    6.1933  -12.9866   19.6910 C   0  0  0  0  0  0  0  0  0  0  0  0
    7.9212  -13.1910   19.1252 S   0  0  0  0  0  0  0  0  0  0  0  0
    8.6779  -14.5749   20.0676 C   0  0  0  0  0  0  0  0  0  0  0  0
    8.9353  -14.1767   21.4818 C   0  0  0  0  0  0  0  0  0  0  0  0
    9.4495  -15.2969   22.3111 C   0  0  2  0  0  0  0  0  0  0  0  0
    9.6696  -16.5242   21.5355 N   0  0  0  0  0  0  0  0  0  0  0  0
    8.7883  -15.5437   23.5984 C   0  0  0  0  0  0  0  0  0  0  0  0
    7.7592  -14.9437   23.9200 O   0  0  0  0  0  0  0  0  0  0  0  0
    9.3223  -16.4813   24.5013 N   0  0  0  0  0  0  0  0  0  0  0  0
   10.0575  -16.1598   25.7140 C   0  0  1  0  0  0  0  0  0  0  0  0
    9.0402  -16.0090   26.8188 C   0  0  0  0  0  0  0  0  0  0  0  0
    7.8829  -15.1714   26.3969 C   0  0  0  0  0  0  0  0  0  0  0  0
    6.6388  -15.5506   25.9410 C   0  0  0  0  0  0  0  0  0  0  0  0
    5.9050  -14.4563   25.6813 N   0  0  0  0  0  0  0  0  0  0  0  0
    6.6216  -13.3481   25.9475 C   0  0  0  0  0  0  0  0  0  0  0  0
    6.3059  -12.0118   25.8286 C   0  0  0  0  0  0  0  0  0  0  0  0
    7.2810  -11.1061   26.1775 C   0  0  0  0  0  0  0  0  0  0  0  0
    8.5348  -11.5040   26.6320 C   0  0  0  0  0  0  0  0  0  0  0  0
    8.8092  -12.8459   26.7354 C   0  0  0  0  0  0  0  0  0  0  0  0
    7.8551  -13.7791   26.3940 C   0  0  0  0  0  0  0  0  0  0  0  0
   11.0632  -17.2036   26.0232 C   0  0  0  0  0  0  0  0  0  0  0  0
   11.8371  -17.0457   27.1848 O   0  0  0  0  0  0  0  0  0  0  0  0
   11.2713  -18.2120   25.3193 O   0  0  0  0  0  0  0  0  0  0  0  0
  2  1  1  0
  3  2  2  0
  4  3  1  0
  5  4  2  0
  5 11  1  0
  6  7  1  0
  6  5  1  0
  7  8  1  6
  9  7  1  0
 10  9  2  0
 11 12  2  0
 12  2  1  0
 14 13  1  0
 14 15  1  0
 15 16  1  0
 17 16  1  6
 17 19  1  0
 17 18  1  0
 18  9  1  0
 19 21  1  0
 20 19  2  0
 21 22  1  0
 22 23  1  1
 22 33  1  0
 24 23  1  0
 25 24  2  0
 26 25  1  0
 27 26  1  0
 27 32  2  0
 28 27  1  0
 29 28  2  0
 29 30  1  0
 30 31  2  0
 31 32  1  0
 32 24  1  0
 33 35  2  0
 33 34  1  0
M  END
$$$$
