YMW.pdb
     RDKit          3D

 35 37  0  0  1  0  0  0  0  0999 V2000
    6.5525  -14.3039   14.6110 O   0  0  0  0  0  0  0  0  0  0  0  0
    7.5524  -14.2796   15.5699 C   0  0  0  0  0  0  0  0  0  0  0  0
    8.5764  -15.1888   15.4848 C   0  0  0  0  0  0  0  0  0  0  0  0
    9.5904  -15.2137   16.4028 C   0  0  0  0  0  0  0  0  0  0  0  0
    9.6105  -14.3094   17.4580 C   0  0  0  0  0  0  0  0  0  0  0  0
   10.7218  -14.3551   18.4559 C   0  0  0  0  0  0  0  0  0  0  0  0
   10.4351  -15.5350   19.3562 C   0  0  2  0  0  0  0  0  0  0  0  0
    9.1798  -16.0952   18.8829 N   0  0  0  0  0  0  0  0  0  0  0  0
   10.3866  -15.1863   20.7842 C   0  0  0  0  0  0  0  0  0  0  0  0
   11.4153  -14.8477   21.4577 O   0  0  0  0  0  0  0  0  0  0  0  0
    8.5875  -13.4076   17.5337 C   0  0  0  0  0  0  0  0  0  0  0  0
    7.5784  -13.3941   16.6063 C   0  0  0  0  0  0  0  0  0  0  0  0
    8.7668  -11.8245   26.3647 C   0  0  0  0  0  0  0  0  0  0  0  0
    7.5670  -12.1325   25.0183 S   0  0  0  0  0  0  0  0  0  0  0  0
    7.5610  -13.9325   24.6502 C   0  0  0  0  0  0  0  0  0  0  0  0
    7.7341  -14.1767   23.1889 C   0  0  0  0  0  0  0  0  0  0  0  0
    8.9747  -14.9310   22.8740 C   0  0  2  0  0  0  0  0  0  0  0  0
    9.1095  -15.2320   21.4431 N   0  0  0  0  0  0  0  0  0  0  0  0
    9.3074  -16.0736   23.7335 C   0  0  0  0  0  0  0  0  0  0  0  0
    8.6010  -17.0849   23.7637 O   0  0  0  0  0  0  0  0  0  0  0  0
   10.4530  -16.0369   24.5495 N   0  0  0  0  0  0  0  0  0  0  0  0
   10.9944  -17.1627   25.2938 C   0  0  1  0  0  0  0  0  0  0  0  0
    9.8343  -17.8242   25.9973 C   0  0  0  0  0  0  0  0  0  0  0  0
    9.0109  -16.8409   26.7549 C   0  0  0  0  0  0  0  0  0  0  0  0
    7.6714  -16.5378   26.6407 C   0  0  0  0  0  0  0  0  0  0  0  0
    7.3501  -15.5878   27.5339 N   0  0  0  0  0  0  0  0  0  0  0  0
    8.4379  -15.2398   28.2466 C   0  0  0  0  0  0  0  0  0  0  0  0
    8.6062  -14.3141   29.2537 C   0  0  0  0  0  0  0  0  0  0  0  0
    9.8712  -14.1856   29.7792 C   0  0  0  0  0  0  0  0  0  0  0  0
   10.9437  -14.9479   29.3260 C   0  0  0  0  0  0  0  0  0  0  0  0
   10.7335  -15.8590   28.3199 C   0  0  0  0  0  0  0  0  0  0  0  0
    9.4791  -16.0125   27.7718 C   0  0  0  0  0  0  0  0  0  0  0  0
   11.7102  -18.1021   24.3985 C   0  0  0  0  0  0  0  0  0  0  0  0
   12.3908  -19.1805   24.9876 O   0  0  0  0  0  0  0  0  0  0  0  0
   11.7521  -17.9978   23.1563 O   0  0  0  0  0  0  0  0  0  0  0  0
  2  1  1  0
  3  2  2  0
  4  3  1  0
  5  4  2  0
  5 11  1  0
  6  7  1  0
  6  5  1  0
  7  8  1  6
  9  7  1  0
 10  9  2  0
 11 12  2  0
 12  2  1  0
 14 13  1  0
 14 15  1  0
 15 16  1  0
 17 16  1  6
 17 19  1  0
 17 18  1  0
 18  9  1  0
 19 21  1  0
 20 19  2  0
 21 22  1  0
 22 23  1  6
 22 33  1  0
 24 23  1  0
 25 24  2  0
 26 25  1  0
 27 26  1  0
 27 32  2  0
 28 27  1  0
 29 28  2  0
 29 30  1  0
 30 31  2  0
 31 32  1  0
 32 24  1  0
 33 35  2  0
 33 34  1  0
M  END
$$$$
