YMW.pdb
     RDKit          3D

 35 37  0  0  1  0  0  0  0  0999 V2000
   14.8878  -23.6547   16.9980 O   0  0  0  0  0  0  0  0  0  0  0  0
   14.7107  -22.6141   17.8956 C   0  0  0  0  0  0  0  0  0  0  0  0
   13.4821  -22.4452   18.4825 C   0  0  0  0  0  0  0  0  0  0  0  0
   13.2475  -21.4354   19.3752 C   0  0  0  0  0  0  0  0  0  0  0  0
   14.2579  -20.5435   19.7146 C   0  0  0  0  0  0  0  0  0  0  0  0
   13.9823  -19.4419   20.6860 C   0  0  0  0  0  0  0  0  0  0  0  0
   12.9778  -18.5301   20.0194 C   0  0  2  0  0  0  0  0  0  0  0  0
   13.6745  -17.9357   18.8902 N   0  0  0  0  0  0  0  0  0  0  0  0
   12.4145  -17.5158   20.9234 C   0  0  0  0  0  0  0  0  0  0  0  0
   13.1268  -16.6638   21.5504 O   0  0  0  0  0  0  0  0  0  0  0  0
   15.4776  -20.7203   19.1260 C   0  0  0  0  0  0  0  0  0  0  0  0
   15.6983  -21.7370   18.2337 C   0  0  0  0  0  0  0  0  0  0  0  0
    6.6981  -12.4888   22.2152 C   0  0  0  0  0  0  0  0  0  0  0  0
    7.1630  -14.0088   21.3092 S   0  0  0  0  0  0  0  0  0  0  0  0
    8.5639  -14.8031   22.1937 C   0  0  0  0  0  0  0  0  0  0  0  0
    9.0791  -15.9755   21.4289 C   0  0  0  0  0  0  0  0  0  0  0  0
   10.3422  -16.5197   21.9906 C   0  0  2  0  0  0  0  0  0  0  0  0
   10.9879  -17.4926   21.1001 N   0  0  0  0  0  0  0  0  0  0  0  0
   10.3277  -16.9495   23.3942 C   0  0  0  0  0  0  0  0  0  0  0  0
   10.3614  -18.1436   23.7032 O   0  0  0  0  0  0  0  0  0  0  0  0
   10.2745  -15.9955   24.4271 N   0  0  0  0  0  0  0  0  0  0  0  0
   10.3573  -16.2873   25.8492 C   0  0  1  0  0  0  0  0  0  0  0  0
    9.7566  -15.1087   26.5762 C   0  0  0  0  0  0  0  0  0  0  0  0
    8.2977  -14.9753   26.3069 C   0  0  0  0  0  0  0  0  0  0  0  0
    7.3679  -15.9403   25.9847 C   0  0  0  0  0  0  0  0  0  0  0  0
    6.1625  -15.3675   25.8349 N   0  0  0  0  0  0  0  0  0  0  0  0
    6.2543  -14.0409   26.0451 C   0  0  0  0  0  0  0  0  0  0  0  0
    5.3028  -13.0451   25.9938 C   0  0  0  0  0  0  0  0  0  0  0  0
    5.7268  -11.7621   26.2524 C   0  0  0  0  0  0  0  0  0  0  0  0
    7.0528  -11.4654   26.5537 C   0  0  0  0  0  0  0  0  0  0  0  0
    7.9698  -12.4872   26.5940 C   0  0  0  0  0  0  0  0  0  0  0  0
    7.5784  -13.7833   26.3399 C   0  0  0  0  0  0  0  0  0  0  0  0
    9.6632  -17.5550   26.1771 C   0  0  0  0  0  0  0  0  0  0  0  0
    8.9027  -18.1672   25.1671 O   0  0  0  0  0  0  0  0  0  0  0  0
    9.7060  -18.1139   27.2913 O   0  0  0  0  0  0  0  0  0  0  0  0
  2  1  1  0
  3  2  2  0
  4  3  1  0
  5  4  2  0
  5 11  1  0
  6  7  1  0
  6  5  1  0
  7  8  1  6
  9  7  1  0
 10  9  2  0
 11 12  2  0
 12  2  1  0
 14 13  1  0
 14 15  1  0
 15 16  1  0
 17 16  1  6
 17 19  1  0
 17 18  1  0
 18  9  1  0
 19 21  1  0
 20 19  2  0
 21 22  1  0
 22 23  1  1
 22 33  1  0
 24 23  1  0
 25 24  2  0
 26 25  1  0
 27 26  1  0
 27 32  2  0
 28 27  1  0
 29 28  2  0
 29 30  1  0
 30 31  2  0
 31 32  1  0
 32 24  1  0
 33 35  2  0
 33 34  1  0
M  END
$$$$
