YMW.pdb
     RDKit          3D

 35 37  0  0  1  0  0  0  0  0999 V2000
   14.5952  -22.5221   16.2028 O   0  0  0  0  0  0  0  0  0  0  0  0
   14.3125  -21.5537   17.1526 C   0  0  0  0  0  0  0  0  0  0  0  0
   15.0664  -20.4076   17.1771 C   0  0  0  0  0  0  0  0  0  0  0  0
   14.8347  -19.4172   18.0921 C   0  0  0  0  0  0  0  0  0  0  0  0
   13.8190  -19.5471   19.0318 C   0  0  0  0  0  0  0  0  0  0  0  0
   13.5843  -18.4589   20.0287 C   0  0  0  0  0  0  0  0  0  0  0  0
   12.2239  -17.8805   19.7127 C   0  0  2  0  0  0  0  0  0  0  0  0
   12.3592  -17.2440   18.4126 N   0  0  0  0  0  0  0  0  0  0  0  0
   11.7276  -16.9514   20.7392 C   0  0  0  0  0  0  0  0  0  0  0  0
   12.3885  -15.9392   21.1458 O   0  0  0  0  0  0  0  0  0  0  0  0
   13.0734  -20.6909   18.9988 C   0  0  0  0  0  0  0  0  0  0  0  0
   13.3167  -21.6746   18.0759 C   0  0  0  0  0  0  0  0  0  0  0  0
    7.6717  -12.4537   19.1077 C   0  0  0  0  0  0  0  0  0  0  0  0
    7.2776  -13.8852   20.1768 S   0  0  0  0  0  0  0  0  0  0  0  0
    8.8539  -14.5825   20.8130 C   0  0  0  0  0  0  0  0  0  0  0  0
    8.5938  -15.6526   21.8191 C   0  0  0  0  0  0  0  0  0  0  0  0
    9.8386  -16.3048   22.3010 C   0  0  2  0  0  0  0  0  0  0  0  0
   10.4306  -17.2065   21.3047 N   0  0  0  0  0  0  0  0  0  0  0  0
    9.8221  -16.8768   23.6530 C   0  0  0  0  0  0  0  0  0  0  0  0
    9.7257  -18.0931   23.8373 O   0  0  0  0  0  0  0  0  0  0  0  0
    9.9172  -16.0381   24.7786 N   0  0  0  0  0  0  0  0  0  0  0  0
    9.8387  -16.4739   26.1637 C   0  0  1  0  0  0  0  0  0  0  0  0
    9.3490  -15.2951   26.9692 C   0  0  0  0  0  0  0  0  0  0  0  0
    7.9869  -14.8630   26.5487 C   0  0  0  0  0  0  0  0  0  0  0  0
    6.9222  -15.6141   26.0997 C   0  0  0  0  0  0  0  0  0  0  0  0
    5.8827  -14.8050   25.8385 N   0  0  0  0  0  0  0  0  0  0  0  0
    6.2182  -13.5270   26.0970 C   0  0  0  0  0  0  0  0  0  0  0  0
    5.5008  -12.3567   25.9737 C   0  0  0  0  0  0  0  0  0  0  0  0
    6.1452  -11.1900   26.3146 C   0  0  0  0  0  0  0  0  0  0  0  0
    7.4618  -11.1742   26.7654 C   0  0  0  0  0  0  0  0  0  0  0  0
    8.1418  -12.3627   26.8734 C   0  0  0  0  0  0  0  0  0  0  0  0
    7.5258  -13.5489   26.5400 C   0  0  0  0  0  0  0  0  0  0  0  0
    8.9499  -17.6513   26.3051 C   0  0  0  0  0  0  0  0  0  0  0  0
    9.0234  -18.3897   27.4979 O   0  0  0  0  0  0  0  0  0  0  0  0
    8.1427  -18.0333   25.4344 O   0  0  0  0  0  0  0  0  0  0  0  0
  2  1  1  0
  3  2  2  0
  4  3  1  0
  5  4  2  0
  5 11  1  0
  6  7  1  0
  6  5  1  0
  7  8  1  6
  9  7  1  0
 10  9  2  0
 11 12  2  0
 12  2  1  0
 14 13  1  0
 14 15  1  0
 15 16  1  0
 17 16  1  6
 17 19  1  0
 17 18  1  0
 18  9  1  0
 19 21  1  0
 20 19  2  0
 21 22  1  0
 22 23  1  1
 22 33  1  0
 24 23  1  0
 25 24  2  0
 26 25  1  0
 27 26  1  0
 27 32  2  0
 28 27  1  0
 29 28  2  0
 29 30  1  0
 30 31  2  0
 31 32  1  0
 32 24  1  0
 33 35  2  0
 33 34  1  0
M  END
$$$$
