HQC.pdb
     RDKit          3D

 26 26  0  0  1  0  0  0  0  0999 V2000
   20.9282  -14.7125  -18.6966 N   0  0  0  0  0  0  0  0  0  0  0  0
   21.5296  -13.5397  -19.2333 C   0  0  1  0  0  0  0  0  0  0  0  0
   20.5535  -12.7821  -20.1000 C   0  0  0  0  0  0  0  0  0  0  0  0
   20.0773  -13.5478  -21.2470 C   0  0  0  0  0  0  0  0  0  0  0  0
   18.7692  -13.8943  -21.4886 C   0  0  0  0  0  0  0  0  0  0  0  0
   18.6972  -14.5919  -22.6254 N   0  0  0  0  0  0  0  0  0  0  0  0
   19.9467  -14.6853  -23.0972 C   0  0  0  0  0  0  0  0  0  0  0  0
   20.7999  -14.0477  -22.2581 N   0  0  0  0  0  0  0  0  0  0  0  0
   22.0171  -12.6080  -18.1684 C   0  0  0  0  0  0  0  0  0  0  0  0
   21.3721  -12.5032  -17.0942 O   0  0  0  0  0  0  0  0  0  0  0  0
   27.9401  -11.1958  -17.5340 N   0  0  0  0  0  0  0  0  0  0  0  0
   27.3855  -10.4864  -16.4469 C   0  0  0  0  0  0  0  0  0  0  0  0
   28.2024  -10.0299  -15.5876 O   0  0  0  0  0  0  0  0  0  0  0  0
   25.9168  -10.2887  -16.3231 C   0  0  0  0  0  0  0  0  0  0  0  0
   25.2533  -11.0327  -17.4253 C   0  0  0  0  0  0  0  0  0  0  0  0
   23.7536  -11.0019  -17.3812 C   0  0  2  0  0  0  0  0  0  0  0  0
   23.2000  -11.8642  -18.4004 N   0  0  0  0  0  0  0  0  0  0  0  0
   23.1712   -9.6718  -17.4969 C   0  0  0  0  0  0  0  0  0  0  0  0
   23.0240   -9.0452  -18.5833 O   0  0  0  0  0  0  0  0  0  0  0  0
   22.7287   -9.0082  -16.3222 N   0  0  0  0  0  0  0  0  0  0  0  0
   22.0797   -7.7196  -16.3939 C   0  0  1  0  0  0  0  0  0  0  0  0
   20.6613   -7.8479  -16.9061 C   0  0  0  0  0  0  0  0  0  0  0  0
   19.8560   -6.2422  -16.6752 S   0  0  0  0  0  0  0  0  0  0  0  0
   22.0738   -7.1146  -15.0416 C   0  0  0  0  0  0  0  0  0  0  0  0
   22.3937   -7.7994  -14.0487 O   0  0  0  0  0  0  0  0  0  0  0  0
   21.7187   -5.7857  -14.8278 O   0  0  0  0  0  0  0  0  0  0  0  0
  2  1  1  1
  3  4  1  0
  3  2  1  0
  4  8  1  0
  5  6  1  0
  5  4  2  0
  6  7  1  0
  7  8  2  0
  9  2  1  0
  9 17  1  0
 10  9  2  0
 11 12  1  0
 12 14  1  0
 13 12  2  0
 15 14  1  0
 16 15  1  6
 16 18  1  0
 17 16  1  0
 18 19  2  0
 18 20  1  0
 20 21  1  0
 21 24  1  0
 22 23  1  0
 21 22  1  1
 24 25  2  0
 24 26  1  0
M  END
$$$$
