HQC.pdb
     RDKit          3D

 26 26  0  0  1  0  0  0  0  0999 V2000
   20.0990  -11.4719  -18.3936 N   0  0  0  0  0  0  0  0  0  0  0  0
   21.0195  -10.8015  -17.5400 C   0  0  1  0  0  0  0  0  0  0  0  0
   22.2709  -10.4187  -18.2919 C   0  0  0  0  0  0  0  0  0  0  0  0
   22.9726  -11.5584  -18.8729 C   0  0  0  0  0  0  0  0  0  0  0  0
   23.0613  -11.8421  -20.2150 C   0  0  0  0  0  0  0  0  0  0  0  0
   23.7763  -12.9571  -20.3869 N   0  0  0  0  0  0  0  0  0  0  0  0
   24.1357  -13.3736  -19.1663 C   0  0  0  0  0  0  0  0  0  0  0  0
   23.6471  -12.5216  -18.2314 N   0  0  0  0  0  0  0  0  0  0  0  0
   20.4435   -9.5560  -16.9430 C   0  0  0  0  0  0  0  0  0  0  0  0
   19.7809   -8.7706  -17.6677 O   0  0  0  0  0  0  0  0  0  0  0  0
   17.8003   -8.7194  -11.5066 N   0  0  0  0  0  0  0  0  0  0  0  0
   17.2597   -9.2120  -12.7140 C   0  0  0  0  0  0  0  0  0  0  0  0
   16.1281   -9.7852  -12.6401 O   0  0  0  0  0  0  0  0  0  0  0  0
   17.9864   -9.0625  -14.0027 C   0  0  0  0  0  0  0  0  0  0  0  0
   19.3269   -8.4883  -13.7163 C   0  0  0  0  0  0  0  0  0  0  0  0
   20.1158   -8.1132  -14.9365 C   0  0  2  0  0  0  0  0  0  0  0  0
   20.6614   -9.2931  -15.5683 N   0  0  0  0  0  0  0  0  0  0  0  0
   21.1819   -7.1500  -14.6964 C   0  0  0  0  0  0  0  0  0  0  0  0
   22.3945   -7.4524  -14.5155 O   0  0  0  0  0  0  0  0  0  0  0  0
   20.8653   -5.7664  -14.6575 N   0  0  0  0  0  0  0  0  0  0  0  0
   21.9055   -4.7643  -14.6379 C   0  0  1  0  0  0  0  0  0  0  0  0
   22.7920   -4.8702  -15.8600 C   0  0  0  0  0  0  0  0  0  0  0  0
   23.9797   -3.5049  -15.7862 S   0  0  0  0  0  0  0  0  0  0  0  0
   21.2742   -3.4249  -14.5886 C   0  0  0  0  0  0  0  0  0  0  0  0
   20.2718   -3.1799  -15.2903 O   0  0  0  0  0  0  0  0  0  0  0  0
   21.7630   -2.4067  -13.7750 O   0  0  0  0  0  0  0  0  0  0  0  0
  2  1  1  6
  3  4  1  0
  3  2  1  0
  4  8  1  0
  5  6  1  0
  5  4  2  0
  6  7  1  0
  7  8  2  0
  9  2  1  0
  9 17  1  0
 10  9  2  0
 11 12  1  0
 12 14  1  0
 13 12  2  0
 15 14  1  0
 16 15  1  1
 16 18  1  0
 17 16  1  0
 18 19  2  0
 18 20  1  0
 20 21  1  0
 21 24  1  0
 22 23  1  0
 21 22  1  6
 24 25  2  0
 24 26  1  0
M  END
$$$$
