HQC.pdb
     RDKit          3D

 26 26  0  0  1  0  0  0  0  0999 V2000
   22.8377  -16.0056  -16.9094 N   0  0  0  0  0  0  0  0  0  0  0  0
   23.8817  -16.7469  -16.2884 C   0  0  1  0  0  0  0  0  0  0  0  0
   24.8861  -15.8244  -15.6415 C   0  0  0  0  0  0  0  0  0  0  0  0
   25.7430  -15.1333  -16.5990 C   0  0  0  0  0  0  0  0  0  0  0  0
   26.9467  -15.5974  -17.0738 C   0  0  0  0  0  0  0  0  0  0  0  0
   27.4571  -14.7107  -17.9324 N   0  0  0  0  0  0  0  0  0  0  0  0
   26.5852  -13.6968  -17.9995 C   0  0  0  0  0  0  0  0  0  0  0  0
   25.5306  -13.9475  -17.1848 N   0  0  0  0  0  0  0  0  0  0  0  0
   23.3724  -17.6813  -15.2362 C   0  0  0  0  0  0  0  0  0  0  0  0
   22.4100  -17.3288  -14.5078 O   0  0  0  0  0  0  0  0  0  0  0  0
   20.1413  -21.1017  -14.7437 N   0  0  0  0  0  0  0  0  0  0  0  0
   20.8136  -22.0098  -13.8975 C   0  0  0  0  0  0  0  0  0  0  0  0
   20.0871  -22.7533  -13.1670 O   0  0  0  0  0  0  0  0  0  0  0  0
   22.2985  -22.0846  -13.8700 C   0  0  0  0  0  0  0  0  0  0  0  0
   22.8330  -21.0509  -14.7944 C   0  0  0  0  0  0  0  0  0  0  0  0
   23.5175  -19.9023  -14.1132 C   0  0  2  0  0  0  0  0  0  0  0  0
   23.9920  -18.9464  -15.0879 N   0  0  0  0  0  0  0  0  0  0  0  0
   24.6118  -20.2856  -13.2315 C   0  0  0  0  0  0  0  0  0  0  0  0
   25.8127  -20.4232  -13.5967 O   0  0  0  0  0  0  0  0  0  0  0  0
   24.3391  -20.5282  -11.8593 N   0  0  0  0  0  0  0  0  0  0  0  0
   25.3731  -20.9957  -10.9654 C   0  0  1  0  0  0  0  0  0  0  0  0
   24.8667  -21.0890   -9.5423 C   0  0  0  0  0  0  0  0  0  0  0  0
   24.0296  -19.5283   -9.1630 S   0  0  0  0  0  0  0  0  0  0  0  0
   25.8320  -22.3273  -11.4247 C   0  0  0  0  0  0  0  0  0  0  0  0
   25.2668  -22.8860  -12.3868 O   0  0  0  0  0  0  0  0  0  0  0  0
   26.8899  -22.9956  -10.8149 O   0  0  0  0  0  0  0  0  0  0  0  0
  2  1  1  1
  3  4  1  0
  3  2  1  0
  4  8  1  0
  5  6  1  0
  5  4  2  0
  6  7  1  0
  7  8  2  0
  9  2  1  0
  9 17  1  0
 10  9  2  0
 11 12  1  0
 12 14  1  0
 13 12  2  0
 15 14  1  0
 16 15  1  6
 16 18  1  0
 17 16  1  0
 18 19  2  0
 18 20  1  0
 20 21  1  0
 21 24  1  0
 22 23  1  0
 21 22  1  1
 24 25  2  0
 24 26  1  0
M  END
$$$$
