HQC.pdb
     RDKit          3D

 26 26  0  0  1  0  0  0  0  0999 V2000
   28.0280  -21.6337  -16.4525 N   0  0  0  0  0  0  0  0  0  0  0  0
   27.3988  -20.6623  -15.6244 C   0  0  1  0  0  0  0  0  0  0  0  0
   26.9249  -19.4844  -16.4404 C   0  0  0  0  0  0  0  0  0  0  0  0
   28.0104  -18.7256  -17.0525 C   0  0  0  0  0  0  0  0  0  0  0  0
   28.2868  -18.6707  -18.3979 C   0  0  0  0  0  0  0  0  0  0  0  0
   29.3468  -17.8840  -18.6018 N   0  0  0  0  0  0  0  0  0  0  0  0
   29.7361  -17.4464  -17.3978 C   0  0  0  0  0  0  0  0  0  0  0  0
   28.9221  -17.9576  -16.4415 N   0  0  0  0  0  0  0  0  0  0  0  0
   26.2190  -21.2156  -14.8885 C   0  0  0  0  0  0  0  0  0  0  0  0
   25.4480  -22.0208  -15.4701 O   0  0  0  0  0  0  0  0  0  0  0  0
   25.2022  -20.5121   -8.7093 N   0  0  0  0  0  0  0  0  0  0  0  0
   26.3985  -20.7878   -9.4063 C   0  0  0  0  0  0  0  0  0  0  0  0
   27.4719  -20.7672   -8.7268 O   0  0  0  0  0  0  0  0  0  0  0  0
   26.3917  -21.0861  -10.8631 C   0  0  0  0  0  0  0  0  0  0  0  0
   24.9928  -20.9777  -11.3531 C   0  0  0  0  0  0  0  0  0  0  0  0
   24.8263  -21.2412  -12.8210 C   0  0  2  0  0  0  0  0  0  0  0  0
   26.0007  -20.8149  -13.5476 N   0  0  0  0  0  0  0  0  0  0  0  0
   23.6395  -20.6397  -13.4139 C   0  0  0  0  0  0  0  0  0  0  0  0
   23.5477  -19.4304  -13.7657 O   0  0  0  0  0  0  0  0  0  0  0  0
   22.4892  -21.4455  -13.6230 N   0  0  0  0  0  0  0  0  0  0  0  0
   21.2990  -20.9008  -14.2341 C   0  0  1  0  0  0  0  0  0  0  0  0
   20.8810  -21.7134  -15.4405 C   0  0  0  0  0  0  0  0  0  0  0  0
   20.8736  -23.4548  -14.9430 S   0  0  0  0  0  0  0  0  0  0  0  0
   20.2098  -20.8940  -13.2299 C   0  0  0  0  0  0  0  0  0  0  0  0
   20.3733  -21.4529  -12.1261 O   0  0  0  0  0  0  0  0  0  0  0  0
   18.9856  -20.2770  -13.4712 O   0  0  0  0  0  0  0  0  0  0  0  0
  2  1  1  6
  3  4  1  0
  3  2  1  0
  4  8  1  0
  5  6  1  0
  5  4  2  0
  6  7  1  0
  7  8  2  0
  9  2  1  0
  9 17  1  0
 10  9  2  0
 11 12  1  0
 12 14  1  0
 13 12  2  0
 15 14  1  0
 16 15  1  1
 16 18  1  0
 17 16  1  0
 18 19  2  0
 18 20  1  0
 20 21  1  0
 21 24  1  0
 22 23  1  0
 21 22  1  6
 24 25  2  0
 24 26  1  0
M  END
$$$$
