HQC.pdb
     RDKit          3D

 26 26  0  0  1  0  0  0  0  0999 V2000
   18.1599  -23.1332  -14.7154 N   0  0  0  0  0  0  0  0  0  0  0  0
   18.9434  -22.5558  -13.6771 C   0  0  1  0  0  0  0  0  0  0  0  0
   18.5733  -23.1390  -12.3351 C   0  0  0  0  0  0  0  0  0  0  0  0
   17.2153  -22.8125  -11.9130 C   0  0  0  0  0  0  0  0  0  0  0  0
   16.3346  -22.0139  -12.6032 C   0  0  0  0  0  0  0  0  0  0  0  0
   15.1858  -21.9320  -11.9269 N   0  0  0  0  0  0  0  0  0  0  0  0
   15.3388  -22.6710  -10.8209 C   0  0  0  0  0  0  0  0  0  0  0  0
   16.5808  -23.2149  -10.8040 N   0  0  0  0  0  0  0  0  0  0  0  0
   20.4105  -22.7690  -13.8814 C   0  0  0  0  0  0  0  0  0  0  0  0
   20.8396  -23.9236  -14.1339 O   0  0  0  0  0  0  0  0  0  0  0  0
   24.9264  -19.9846  -16.7604 N   0  0  0  0  0  0  0  0  0  0  0  0
   23.7433  -19.2645  -16.4872 C   0  0  0  0  0  0  0  0  0  0  0  0
   23.7013  -18.0616  -16.8942 O   0  0  0  0  0  0  0  0  0  0  0  0
   22.6088  -19.8917  -15.7587 C   0  0  0  0  0  0  0  0  0  0  0  0
   22.9496  -21.3160  -15.5057 C   0  0  0  0  0  0  0  0  0  0  0  0
   22.6873  -21.7778  -14.1022 C   0  0  2  0  0  0  0  0  0  0  0  0
   21.2826  -21.6570  -13.7844 N   0  0  0  0  0  0  0  0  0  0  0  0
   23.4790  -21.1012  -13.0837 C   0  0  0  0  0  0  0  0  0  0  0  0
   23.1403  -20.0310  -12.5054 O   0  0  0  0  0  0  0  0  0  0  0  0
   24.7240  -21.6613  -12.6931 N   0  0  0  0  0  0  0  0  0  0  0  0
   25.6897  -20.8854  -11.9500 C   0  0  1  0  0  0  0  0  0  0  0  0
   26.0142  -21.5386  -10.6239 C   0  0  0  0  0  0  0  0  0  0  0  0
   26.3711  -20.2136   -9.4418 S   0  0  0  0  0  0  0  0  0  0  0  0
   26.9219  -20.7563  -12.7624 C   0  0  0  0  0  0  0  0  0  0  0  0
   27.2377  -21.6565  -13.5669 O   0  0  0  0  0  0  0  0  0  0  0  0
   27.7598  -19.6492  -12.6637 O   0  0  0  0  0  0  0  0  0  0  0  0
  2  1  1  6
  3  4  1  0
  3  2  1  0
  4  8  1  0
  5  6  1  0
  5  4  2  0
  6  7  1  0
  7  8  2  0
  9  2  1  0
  9 17  1  0
 10  9  2  0
 11 12  1  0
 12 14  1  0
 13 12  2  0
 15 14  1  0
 16 15  1  6
 16 18  1  0
 17 16  1  0
 18 19  2  0
 18 20  1  0
 20 21  1  0
 21 24  1  0
 22 23  1  0
 21 22  1  1
 24 25  2  0
 24 26  1  0
M  END
$$$$
