HQC.pdb
     RDKit          3D

 26 26  0  0  1  0  0  0  0  0999 V2000
   17.5704  -11.9877  -17.4654 N   0  0  0  0  0  0  0  0  0  0  0  0
   18.6687  -11.5926  -16.6513 C   0  0  1  0  0  0  0  0  0  0  0  0
   19.9489  -11.5650  -17.4503 C   0  0  0  0  0  0  0  0  0  0  0  0
   20.3291  -12.8677  -17.9860 C   0  0  0  0  0  0  0  0  0  0  0  0
   21.0038  -13.8482  -17.2981 C   0  0  0  0  0  0  0  0  0  0  0  0
   21.1837  -14.9056  -18.0942 N   0  0  0  0  0  0  0  0  0  0  0  0
   20.6287  -14.5965  -19.2727 C   0  0  0  0  0  0  0  0  0  0  0  0
   20.1020  -13.3483  -19.2156 N   0  0  0  0  0  0  0  0  0  0  0  0
   18.4750  -10.2371  -16.0475 C   0  0  0  0  0  0  0  0  0  0  0  0
   18.0964   -9.2834  -16.7743 O   0  0  0  0  0  0  0  0  0  0  0  0
   16.7378   -9.1351  -10.2738 N   0  0  0  0  0  0  0  0  0  0  0  0
   15.8712   -9.1046  -11.3877 C   0  0  0  0  0  0  0  0  0  0  0  0
   14.6263   -9.1760  -11.1439 O   0  0  0  0  0  0  0  0  0  0  0  0
   16.3992   -8.9940  -12.7735 C   0  0  0  0  0  0  0  0  0  0  0  0
   17.8821   -8.9248  -12.7015 C   0  0  0  0  0  0  0  0  0  0  0  0
   18.5624   -8.7744  -14.0306 C   0  0  2  0  0  0  0  0  0  0  0  0
   18.7249  -10.0632  -14.6641 N   0  0  0  0  0  0  0  0  0  0  0  0
   19.8468   -8.0890  -13.9799 C   0  0  0  0  0  0  0  0  0  0  0  0
   20.9663   -8.6682  -13.9047 O   0  0  0  0  0  0  0  0  0  0  0  0
   19.8730   -6.6699  -14.0158 N   0  0  0  0  0  0  0  0  0  0  0  0
   21.1214   -5.9500  -14.1159 C   0  0  1  0  0  0  0  0  0  0  0  0
   21.8750   -6.3314  -15.3718 C   0  0  0  0  0  0  0  0  0  0  0  0
   23.3600   -5.2973  -15.4462 S   0  0  0  0  0  0  0  0  0  0  0  0
   20.8328   -4.4969  -14.1238 C   0  0  0  0  0  0  0  0  0  0  0  0
   19.8901   -4.0503  -14.8088 O   0  0  0  0  0  0  0  0  0  0  0  0
   21.5853   -3.5897  -13.3833 O   0  0  0  0  0  0  0  0  0  0  0  0
  2  1  1  6
  3  4  1  0
  3  2  1  0
  4  8  1  0
  5  6  1  0
  5  4  2  0
  6  7  1  0
  7  8  2  0
  9  2  1  0
  9 17  1  0
 10  9  2  0
 11 12  1  0
 12 14  1  0
 13 12  2  0
 15 14  1  0
 16 15  1  1
 16 18  1  0
 17 16  1  0
 18 19  2  0
 18 20  1  0
 20 21  1  0
 21 24  1  0
 22 23  1  0
 21 22  1  6
 24 25  2  0
 24 26  1  0
M  END
$$$$
