HQC.pdb
     RDKit          3D

 26 26  0  0  1  0  0  0  0  0999 V2000
   17.3678  -11.7471  -17.5977 N   0  0  0  0  0  0  0  0  0  0  0  0
   18.1520  -11.3785  -16.4688 C   0  0  1  0  0  0  0  0  0  0  0  0
   19.4692  -12.1152  -16.4641 C   0  0  0  0  0  0  0  0  0  0  0  0
   19.3244  -13.5668  -16.4386 C   0  0  0  0  0  0  0  0  0  0  0  0
   18.7995  -14.2989  -15.4003 C   0  0  0  0  0  0  0  0  0  0  0  0
   18.8196  -15.5964  -15.7170 N   0  0  0  0  0  0  0  0  0  0  0  0
   19.3516  -15.6832  -16.9426 C   0  0  0  0  0  0  0  0  0  0  0  0
   19.6643  -14.4431  -17.3931 N   0  0  0  0  0  0  0  0  0  0  0  0
   18.4461   -9.9116  -16.4308 C   0  0  0  0  0  0  0  0  0  0  0  0
   19.0786   -9.3818  -17.3796 O   0  0  0  0  0  0  0  0  0  0  0  0
   14.6233   -5.7951  -14.2388 N   0  0  0  0  0  0  0  0  0  0  0  0
   14.7171   -6.2761  -15.5627 C   0  0  0  0  0  0  0  0  0  0  0  0
   13.7155   -6.0695  -16.3167 O   0  0  0  0  0  0  0  0  0  0  0  0
   15.9320   -6.9878  -16.0410 C   0  0  0  0  0  0  0  0  0  0  0  0
   16.9164   -7.0262  -14.9282 C   0  0  0  0  0  0  0  0  0  0  0  0
   18.2027   -7.7241  -15.2602 C   0  0  2  0  0  0  0  0  0  0  0  0
   18.0013   -9.1541  -15.3197 N   0  0  0  0  0  0  0  0  0  0  0  0
   19.3059   -7.4229  -14.3579 C   0  0  0  0  0  0  0  0  0  0  0  0
   19.4617   -7.9415  -13.2172 O   0  0  0  0  0  0  0  0  0  0  0  0
   20.2909   -6.4836  -14.7626 N   0  0  0  0  0  0  0  0  0  0  0  0
   21.4253   -6.1838  -13.9199 C   0  0  1  0  0  0  0  0  0  0  0  0
   22.6755   -6.8773  -14.4164 C   0  0  0  0  0  0  0  0  0  0  0  0
   22.8697   -6.4541  -16.1666 S   0  0  0  0  0  0  0  0  0  0  0  0
   21.6342   -4.7172  -13.9083 C   0  0  0  0  0  0  0  0  0  0  0  0
   20.9745   -3.9854  -14.6743 O   0  0  0  0  0  0  0  0  0  0  0  0
   22.5551   -4.1083  -13.0605 O   0  0  0  0  0  0  0  0  0  0  0  0
  2  1  1  6
  3  4  1  0
  3  2  1  0
  4  8  1  0
  5  6  1  0
  5  4  2  0
  6  7  1  0
  7  8  2  0
  9  2  1  0
  9 17  1  0
 10  9  2  0
 11 12  1  0
 12 14  1  0
 13 12  2  0
 15 14  1  0
 16 15  1  1
 16 18  1  0
 17 16  1  0
 18 19  2  0
 18 20  1  0
 20 21  1  0
 21 24  1  0
 22 23  1  0
 21 22  1  6
 24 25  2  0
 24 26  1  0
M  END
$$$$
