MGH.pdb
     RDKit          3D

 23 23  0  0  1  0  0  0  0  0999 V2000
   30.3589  -20.0401   -6.1257 C   0  0  0  0  0  0  0  0  0  0  0  0
   29.0789  -19.4888   -4.9365 S   0  0  0  0  0  0  0  0  0  0  0  0
   27.4688  -20.1325   -5.4573 C   0  0  0  0  0  0  0  0  0  0  0  0
   27.5655  -20.7294   -6.8674 C   0  0  0  0  0  0  0  0  0  0  0  0
   26.9777  -19.7870   -7.8807 C   0  0  2  0  0  0  0  0  0  0  0  0
   25.7727  -19.1561   -7.3818 N   0  0  0  0  0  0  0  0  0  0  0  0
   26.7248  -20.4881   -9.1673 C   0  0  0  0  0  0  0  0  0  0  0  0
   27.6026  -21.2110   -9.7044 O   0  0  0  0  0  0  0  0  0  0  0  0
   25.4911  -20.3696   -9.8349 N   0  0  0  0  0  0  0  0  0  0  0  0
   25.2652  -20.8199  -11.1868 C   0  0  0  0  0  0  0  0  0  0  0  0
   23.8494  -20.6604  -11.5584 C   0  0  0  0  0  0  0  0  0  0  0  0
   23.0132  -20.3415  -10.6775 O   0  0  0  0  0  0  0  0  0  0  0  0
   23.3470  -20.8449  -12.8711 N   0  0  0  0  0  0  0  0  0  0  0  0
   21.9769  -20.5512  -13.2545 C   0  0  1  0  0  0  0  0  0  0  0  0
   21.8163  -20.3280  -14.7135 C   0  0  0  0  0  0  0  0  0  0  0  0
   22.4989  -19.0796  -15.1056 C   0  0  0  0  0  0  0  0  0  0  0  0
   22.0729  -17.8170  -14.6916 C   0  0  0  0  0  0  0  0  0  0  0  0
   22.8783  -16.8735  -15.1993 N   0  0  0  0  0  0  0  0  0  0  0  0
   23.8087  -17.5032  -15.9277 C   0  0  0  0  0  0  0  0  0  0  0  0
   23.5680  -18.8466  -15.8636 N   0  0  0  0  0  0  0  0  0  0  0  0
   21.1616  -21.7228  -12.8503 C   0  0  0  0  0  0  0  0  0  0  0  0
   19.8148  -21.6895  -12.5579 O   0  0  0  0  0  0  0  0  0  0  0  0
   21.6981  -22.8821  -12.7464 O   0  0  0  0  0  0  0  0  0  0  0  0
  2  1  1  0
  3  4  1  0
  3  2  1  0
  5  7  1  0
  5  4  1  0
  5  6  1  1
  7  9  1  0
  8  7  2  0
  9 10  1  0
 11 10  1  0
 11 12  2  0
 13 11  1  0
 14 13  1  0
 14 15  1  6
 15 16  1  0
 16 20  1  0
 16 17  2  0
 17 18  1  0
 19 18  1  0
 20 19  2  0
 21 14  1  0
 22 21  1  0
 23 21  2  0
M  END
$$$$
