MGH.pdb
     RDKit          3D

 23 23  0  0  1  0  0  0  0  0999 V2000
   27.6479  -20.2271   -7.1016 C   0  0  0  0  0  0  0  0  0  0  0  0
   26.1062  -19.6957   -7.9365 S   0  0  0  0  0  0  0  0  0  0  0  0
   25.4040  -21.1014   -8.8360 C   0  0  0  0  0  0  0  0  0  0  0  0
   26.2515  -21.4167  -10.0755 C   0  0  0  0  0  0  0  0  0  0  0  0
   25.9187  -20.4717  -11.1965 C   0  0  2  0  0  0  0  0  0  0  0  0
   24.5475  -20.6321  -11.6360 N   0  0  0  0  0  0  0  0  0  0  0  0
   26.8693  -20.6406  -12.3272 C   0  0  0  0  0  0  0  0  0  0  0  0
   28.0933  -20.8512  -12.1297 O   0  0  0  0  0  0  0  0  0  0  0  0
   26.4353  -20.5712  -13.6646 N   0  0  0  0  0  0  0  0  0  0  0  0
   26.4947  -21.6808  -14.5848 C   0  0  0  0  0  0  0  0  0  0  0  0
   25.1457  -22.0430  -15.0506 C   0  0  0  0  0  0  0  0  0  0  0  0
   25.0141  -22.9384  -15.9211 O   0  0  0  0  0  0  0  0  0  0  0  0
   23.9532  -21.4403  -14.5769 N   0  0  0  0  0  0  0  0  0  0  0  0
   22.6324  -21.7654  -15.0870 C   0  0  1  0  0  0  0  0  0  0  0  0
   21.8064  -22.5291  -14.1181 C   0  0  0  0  0  0  0  0  0  0  0  0
   21.6282  -21.7403  -12.8835 C   0  0  0  0  0  0  0  0  0  0  0  0
   22.3900  -20.6097  -12.5861 C   0  0  0  0  0  0  0  0  0  0  0  0
   22.0112  -20.1006  -11.4055 N   0  0  0  0  0  0  0  0  0  0  0  0
   21.0253  -20.8789  -10.9416 C   0  0  0  0  0  0  0  0  0  0  0  0
   20.8003  -21.8744  -11.8498 N   0  0  0  0  0  0  0  0  0  0  0  0
   21.9623  -20.4760  -15.3854 C   0  0  0  0  0  0  0  0  0  0  0  0
   20.7627  -20.3405  -16.0510 O   0  0  0  0  0  0  0  0  0  0  0  0
   22.4947  -19.3684  -15.0215 O   0  0  0  0  0  0  0  0  0  0  0  0
  2  1  1  0
  3  4  1  0
  3  2  1  0
  5  7  1  0
  5  4  1  0
  5  6  1  6
  7  9  1  0
  8  7  2  0
  9 10  1  0
 11 10  1  0
 11 12  2  0
 13 11  1  0
 14 13  1  0
 14 15  1  1
 15 16  1  0
 16 20  1  0
 16 17  2  0
 17 18  1  0
 19 18  1  0
 20 19  2  0
 21 14  1  0
 22 21  1  0
 23 21  2  0
M  END
$$$$
