MGH.pdb
     RDKit          3D

 23 23  0  0  1  0  0  0  0  0999 V2000
   26.0963  -18.7573   -7.8938 C   0  0  0  0  0  0  0  0  0  0  0  0
   26.2304  -20.5627   -8.1749 S   0  0  0  0  0  0  0  0  0  0  0  0
   25.5274  -20.9647   -9.7944 C   0  0  0  0  0  0  0  0  0  0  0  0
   26.3375  -20.2890  -10.9084 C   0  0  0  0  0  0  0  0  0  0  0  0
   25.7540  -20.6127  -12.2557 C   0  0  2  0  0  0  0  0  0  0  0  0
   25.1233  -21.9170  -12.2610 N   0  0  0  0  0  0  0  0  0  0  0  0
   26.7910  -20.5123  -13.3165 C   0  0  0  0  0  0  0  0  0  0  0  0
   28.0149  -20.6277  -13.0509 O   0  0  0  0  0  0  0  0  0  0  0  0
   26.4425  -20.2840  -14.6611 N   0  0  0  0  0  0  0  0  0  0  0  0
   25.3249  -20.9174  -15.3178 C   0  0  0  0  0  0  0  0  0  0  0  0
   24.0624  -20.2534  -14.9526 C   0  0  0  0  0  0  0  0  0  0  0  0
   24.0668  -19.0271  -14.6825 O   0  0  0  0  0  0  0  0  0  0  0  0
   22.8096  -20.9130  -14.8817 N   0  0  0  0  0  0  0  0  0  0  0  0
   21.5998  -20.2853  -14.3787 C   0  0  1  0  0  0  0  0  0  0  0  0
   20.4860  -20.2996  -15.3603 C   0  0  0  0  0  0  0  0  0  0  0  0
   20.6081  -19.1446  -16.2708 C   0  0  0  0  0  0  0  0  0  0  0  0
   21.5752  -18.1508  -16.1141 C   0  0  0  0  0  0  0  0  0  0  0  0
   21.4478  -17.2321  -17.0817 N   0  0  0  0  0  0  0  0  0  0  0  0
   20.4225  -17.6153  -17.8530 C   0  0  0  0  0  0  0  0  0  0  0  0
   19.9186  -18.7813  -17.3499 N   0  0  0  0  0  0  0  0  0  0  0  0
   21.1940  -21.0486  -13.1732 C   0  0  0  0  0  0  0  0  0  0  0  0
   21.7275  -22.2585  -12.7833 O   0  0  0  0  0  0  0  0  0  0  0  0
   20.2795  -20.5976  -12.3968 O   0  0  0  0  0  0  0  0  0  0  0  0
  2  1  1  0
  3  4  1  0
  3  2  1  0
  5  7  1  0
  5  4  1  0
  5  6  1  1
  7  9  1  0
  8  7  2  0
  9 10  1  0
 11 10  1  0
 11 12  2  0
 13 11  1  0
 14 13  1  0
 14 15  1  6
 15 16  1  0
 16 20  1  0
 16 17  2  0
 17 18  1  0
 19 18  1  0
 20 19  2  0
 21 14  1  0
 22 21  1  0
 23 21  2  0
M  END
$$$$
