MGH.pdb
     RDKit          3D

 23 23  0  0  1  0  0  0  0  0999 V2000
   26.2312  -24.5621  -16.5186 C   0  0  0  0  0  0  0  0  0  0  0  0
   27.5657  -23.3099  -16.6052 S   0  0  0  0  0  0  0  0  0  0  0  0
   26.9898  -21.7751  -15.8363 C   0  0  0  0  0  0  0  0  0  0  0  0
   28.0678  -20.6888  -15.9447 C   0  0  0  0  0  0  0  0  0  0  0  0
   27.6253  -19.4346  -15.2436 C   0  0  2  0  0  0  0  0  0  0  0  0
   27.1928  -19.7091  -13.8883 N   0  0  0  0  0  0  0  0  0  0  0  0
   26.5601  -18.7457  -16.0191 C   0  0  0  0  0  0  0  0  0  0  0  0
   26.7772  -18.2905  -17.1712 O   0  0  0  0  0  0  0  0  0  0  0  0
   25.2654  -18.5763  -15.4930 N   0  0  0  0  0  0  0  0  0  0  0  0
   24.1817  -17.9559  -16.2157 C   0  0  0  0  0  0  0  0  0  0  0  0
   22.9520  -17.9506  -15.4059 C   0  0  0  0  0  0  0  0  0  0  0  0
   22.9214  -18.5938  -14.3278 O   0  0  0  0  0  0  0  0  0  0  0  0
   21.7693  -17.2552  -15.7621 N   0  0  0  0  0  0  0  0  0  0  0  0
   20.5557  -17.2747  -14.9637 C   0  0  1  0  0  0  0  0  0  0  0  0
   19.5723  -16.2412  -15.3748 C   0  0  0  0  0  0  0  0  0  0  0  0
   18.3937  -16.2928  -14.4881 C   0  0  0  0  0  0  0  0  0  0  0  0
   18.4296  -15.8967  -13.1505 C   0  0  0  0  0  0  0  0  0  0  0  0
   17.2201  -16.0530  -12.5947 N   0  0  0  0  0  0  0  0  0  0  0  0
   16.4121  -16.5393  -13.5452 C   0  0  0  0  0  0  0  0  0  0  0  0
   17.1374  -16.6814  -14.6943 N   0  0  0  0  0  0  0  0  0  0  0  0
   19.9511  -18.6176  -15.1415 C   0  0  0  0  0  0  0  0  0  0  0  0
   19.2553  -19.3093  -14.1729 O   0  0  0  0  0  0  0  0  0  0  0  0
   20.0530  -19.2322  -16.2616 O   0  0  0  0  0  0  0  0  0  0  0  0
  2  1  1  0
  3  4  1  0
  3  2  1  0
  5  7  1  0
  5  4  1  0
  5  6  1  1
  7  9  1  0
  8  7  2  0
  9 10  1  0
 11 10  1  0
 11 12  2  0
 13 11  1  0
 14 13  1  0
 14 15  1  6
 15 16  1  0
 16 20  1  0
 16 17  2  0
 17 18  1  0
 19 18  1  0
 20 19  2  0
 21 14  1  0
 22 21  1  0
 23 21  2  0
M  END
$$$$
