MGH.pdb
     RDKit          3D

 23 23  0  0  1  0  0  0  0  0999 V2000
   28.1647  -15.7402  -15.1510 C   0  0  0  0  0  0  0  0  0  0  0  0
   28.2476  -13.9314  -15.4303 S   0  0  0  0  0  0  0  0  0  0  0  0
   28.0696  -13.5959  -17.2007 C   0  0  0  0  0  0  0  0  0  0  0  0
   28.3492  -12.1158  -17.4923 C   0  0  0  0  0  0  0  0  0  0  0  0
   27.4994  -11.2361  -16.6179 C   0  0  2  0  0  0  0  0  0  0  0  0
   26.0972  -11.5876  -16.7151 N   0  0  0  0  0  0  0  0  0  0  0  0
   27.7182   -9.8018  -16.9429 C   0  0  0  0  0  0  0  0  0  0  0  0
   28.8640   -9.2855  -16.8951 O   0  0  0  0  0  0  0  0  0  0  0  0
   26.6498   -8.9652  -17.3174 N   0  0  0  0  0  0  0  0  0  0  0  0
   26.7878   -7.5500  -17.5614 C   0  0  0  0  0  0  0  0  0  0  0  0
   25.4842   -6.8740  -17.4537 C   0  0  0  0  0  0  0  0  0  0  0  0
   25.4198   -5.6303  -17.6145 O   0  0  0  0  0  0  0  0  0  0  0  0
   24.2645   -7.5404  -17.1749 N   0  0  0  0  0  0  0  0  0  0  0  0
   22.9662   -6.8900  -17.2203 C   0  0  1  0  0  0  0  0  0  0  0  0
   22.0468   -7.4957  -18.2163 C   0  0  0  0  0  0  0  0  0  0  0  0
   21.9756   -8.9550  -18.0073 C   0  0  0  0  0  0  0  0  0  0  0  0
   23.1069   -9.7669  -17.9165 C   0  0  0  0  0  0  0  0  0  0  0  0
   22.7404  -11.0423  -17.7281 N   0  0  0  0  0  0  0  0  0  0  0  0
   21.4020  -11.0646  -17.6963 C   0  0  0  0  0  0  0  0  0  0  0  0
   20.9468   -9.7879  -17.8674 N   0  0  0  0  0  0  0  0  0  0  0  0
   22.3740   -7.0272  -15.8671 C   0  0  0  0  0  0  0  0  0  0  0  0
   22.8692   -7.8302  -14.8619 O   0  0  0  0  0  0  0  0  0  0  0  0
   21.3180   -6.3732  -15.5514 O   0  0  0  0  0  0  0  0  0  0  0  0
  2  1  1  0
  3  4  1  0
  3  2  1  0
  5  7  1  0
  5  4  1  0
  5  6  1  6
  7  9  1  0
  8  7  2  0
  9 10  1  0
 11 10  1  0
 11 12  2  0
 13 11  1  0
 14 13  1  0
 14 15  1  6
 15 16  1  0
 16 20  1  0
 16 17  2  0
 17 18  1  0
 19 18  1  0
 20 19  2  0
 21 14  1  0
 22 21  1  0
 23 21  2  0
M  END
$$$$
