MGH.pdb
     RDKit          3D

 23 23  0  0  1  0  0  0  0  0999 V2000
   28.3474  -21.8634  -17.1418 C   0  0  0  0  0  0  0  0  0  0  0  0
   28.6818  -22.1922  -18.9128 S   0  0  0  0  0  0  0  0  0  0  0  0
   28.0582  -20.8091  -19.9009 C   0  0  0  0  0  0  0  0  0  0  0  0
   26.5242  -20.7879  -19.8777 C   0  0  0  0  0  0  0  0  0  0  0  0
   26.0182  -19.3796  -19.7330 C   0  0  2  0  0  0  0  0  0  0  0  0
   26.9436  -18.5583  -18.9792 N   0  0  0  0  0  0  0  0  0  0  0  0
   24.6643  -19.3671  -19.1184 C   0  0  0  0  0  0  0  0  0  0  0  0
   23.7474  -20.1202  -19.5353 O   0  0  0  0  0  0  0  0  0  0  0  0
   24.3562  -18.5106  -18.0445 N   0  0  0  0  0  0  0  0  0  0  0  0
   23.0871  -18.5108  -17.3582 C   0  0  0  0  0  0  0  0  0  0  0  0
   23.1275  -19.4064  -16.1902 C   0  0  0  0  0  0  0  0  0  0  0  0
   23.2376  -20.6448  -16.3668 O   0  0  0  0  0  0  0  0  0  0  0  0
   23.0494  -18.9629  -14.8460 N   0  0  0  0  0  0  0  0  0  0  0  0
   23.2721  -19.8290  -13.7011 C   0  0  1  0  0  0  0  0  0  0  0  0
   23.9216  -19.1322  -12.5624 C   0  0  0  0  0  0  0  0  0  0  0  0
   24.1058  -20.0735  -11.4406 C   0  0  0  0  0  0  0  0  0  0  0  0
   24.8673  -21.2384  -11.5420 C   0  0  0  0  0  0  0  0  0  0  0  0
   24.8563  -21.8949  -10.3735 N   0  0  0  0  0  0  0  0  0  0  0  0
   24.1062  -21.1771   -9.5279 C   0  0  0  0  0  0  0  0  0  0  0  0
   23.6542  -20.0698  -10.1885 N   0  0  0  0  0  0  0  0  0  0  0  0
   21.9392  -20.3197  -13.2732 C   0  0  0  0  0  0  0  0  0  0  0  0
   21.7059  -21.5036  -12.6066 O   0  0  0  0  0  0  0  0  0  0  0  0
   20.8855  -19.6319  -13.5167 O   0  0  0  0  0  0  0  0  0  0  0  0
  2  1  1  0
  3  4  1  0
  3  2  1  0
  5  7  1  0
  5  4  1  0
  5  6  1  1
  7  9  1  0
  8  7  2  0
  9 10  1  0
 11 10  1  0
 11 12  2  0
 13 11  1  0
 14 13  1  0
 14 15  1  1
 15 16  1  0
 16 20  1  0
 16 17  2  0
 17 18  1  0
 19 18  1  0
 20 19  2  0
 21 14  1  0
 22 21  1  0
 23 21  2  0
M  END
$$$$
