MGH.pdb
     RDKit          3D

 23 23  0  0  1  0  0  0  0  0999 V2000
   29.2759  -14.9376  -16.7090 C   0  0  0  0  0  0  0  0  0  0  0  0
   28.4271  -13.6384  -15.7353 S   0  0  0  0  0  0  0  0  0  0  0  0
   26.8819  -13.1894  -16.5655 C   0  0  0  0  0  0  0  0  0  0  0  0
   26.1498  -12.0986  -15.7728 C   0  0  0  0  0  0  0  0  0  0  0  0
   24.9023  -11.6697  -16.4940 C   0  0  2  0  0  0  0  0  0  0  0  0
   25.2008  -11.1791  -17.8242 N   0  0  0  0  0  0  0  0  0  0  0  0
   24.1580  -10.6558  -15.7012 C   0  0  0  0  0  0  0  0  0  0  0  0
   23.7391  -10.9072  -14.5423 O   0  0  0  0  0  0  0  0  0  0  0  0
   23.8931   -9.3734  -16.2177 N   0  0  0  0  0  0  0  0  0  0  0  0
   23.2515   -8.3231  -15.4649 C   0  0  0  0  0  0  0  0  0  0  0  0
   21.8593   -8.1411  -15.9083 C   0  0  0  0  0  0  0  0  0  0  0  0
   21.5526   -8.4002  -17.0981 O   0  0  0  0  0  0  0  0  0  0  0  0
   20.8120   -7.6833  -15.0698 N   0  0  0  0  0  0  0  0  0  0  0  0
   19.4470   -7.4856  -15.5261 C   0  0  1  0  0  0  0  0  0  0  0  0
   18.4625   -8.3232  -14.7957 C   0  0  0  0  0  0  0  0  0  0  0  0
   18.6697   -9.7451  -15.1323 C   0  0  0  0  0  0  0  0  0  0  0  0
   18.6168  -10.2335  -16.4384 C   0  0  0  0  0  0  0  0  0  0  0  0
   18.8406  -11.5550  -16.4418 N   0  0  0  0  0  0  0  0  0  0  0  0
   19.0354  -11.9226  -15.1691 C   0  0  0  0  0  0  0  0  0  0  0  0
   18.9290  -10.8123  -14.3801 N   0  0  0  0  0  0  0  0  0  0  0  0
   19.1268   -6.0545  -15.3028 C   0  0  0  0  0  0  0  0  0  0  0  0
   17.9734   -5.4249  -15.7199 O   0  0  0  0  0  0  0  0  0  0  0  0
   19.9502   -5.2945  -14.6807 O   0  0  0  0  0  0  0  0  0  0  0  0
  2  1  1  0
  3  4  1  0
  3  2  1  0
  5  7  1  0
  5  4  1  0
  5  6  1  6
  7  9  1  0
  8  7  2  0
  9 10  1  0
 11 10  1  0
 11 12  2  0
 13 11  1  0
 14 13  1  0
 14 15  1  1
 15 16  1  0
 16 20  1  0
 16 17  2  0
 17 18  1  0
 19 18  1  0
 20 19  2  0
 21 14  1  0
 22 21  1  0
 23 21  2  0
M  END
$$$$
