MGH.pdb
     RDKit          3D

 23 23  0  0  1  0  0  0  0  0999 V2000
   19.3772  -24.8984  -17.5386 C   0  0  0  0  0  0  0  0  0  0  0  0
   18.3040  -23.4689  -17.1369 S   0  0  0  0  0  0  0  0  0  0  0  0
   18.7144  -22.8665  -15.4795 C   0  0  0  0  0  0  0  0  0  0  0  0
   18.4804  -23.9699  -14.4394 C   0  0  0  0  0  0  0  0  0  0  0  0
   18.8222  -23.4767  -13.0609 C   0  0  2  0  0  0  0  0  0  0  0  0
   20.2274  -23.1414  -12.9509 N   0  0  0  0  0  0  0  0  0  0  0  0
   18.4247  -24.4732  -12.0315 C   0  0  0  0  0  0  0  0  0  0  0  0
   17.2216  -24.7985  -11.8631 O   0  0  0  0  0  0  0  0  0  0  0  0
   19.3811  -25.0921  -11.2045 N   0  0  0  0  0  0  0  0  0  0  0  0
   19.0489  -26.0197  -10.1506 C   0  0  0  0  0  0  0  0  0  0  0  0
   18.5431  -25.3036   -8.9677 C   0  0  0  0  0  0  0  0  0  0  0  0
   18.9129  -24.1222   -8.7577 O   0  0  0  0  0  0  0  0  0  0  0  0
   17.6460  -25.8636   -8.0236 N   0  0  0  0  0  0  0  0  0  0  0  0
   17.1480  -25.1430   -6.8646 C   0  0  1  0  0  0  0  0  0  0  0  0
   15.8737  -25.6953   -6.3399 C   0  0  0  0  0  0  0  0  0  0  0  0
   15.4010  -24.8725   -5.2094 C   0  0  0  0  0  0  0  0  0  0  0  0
   14.9599  -23.5570   -5.3577 C   0  0  0  0  0  0  0  0  0  0  0  0
   14.5940  -23.0606   -4.1677 N   0  0  0  0  0  0  0  0  0  0  0  0
   14.7907  -24.0276   -3.2626 C   0  0  0  0  0  0  0  0  0  0  0  0
   15.2825  -25.1267   -3.9082 N   0  0  0  0  0  0  0  0  0  0  0  0
   18.1917  -25.2506   -5.8160 C   0  0  0  0  0  0  0  0  0  0  0  0
   18.4338  -24.3097   -4.8379 O   0  0  0  0  0  0  0  0  0  0  0  0
   18.9596  -26.2756   -5.7672 O   0  0  0  0  0  0  0  0  0  0  0  0
  2  1  1  0
  3  4  1  0
  3  2  1  0
  5  7  1  0
  5  4  1  0
  5  6  1  6
  7  9  1  0
  8  7  2  0
  9 10  1  0
 11 10  1  0
 11 12  2  0
 13 11  1  0
 14 13  1  0
 14 15  1  1
 15 16  1  0
 16 20  1  0
 16 17  2  0
 17 18  1  0
 19 18  1  0
 20 19  2  0
 21 14  1  0
 22 21  1  0
 23 21  2  0
M  END
$$$$
