MGH.pdb
     RDKit          3D

 23 23  0  0  1  0  0  0  0  0999 V2000
   27.7925  -18.8453   -6.4726 C   0  0  0  0  0  0  0  0  0  0  0  0
   28.3252  -20.5956   -6.5690 S   0  0  0  0  0  0  0  0  0  0  0  0
   28.5954  -21.0387   -8.3036 C   0  0  0  0  0  0  0  0  0  0  0  0
   27.2518  -21.2105   -9.0242 C   0  0  0  0  0  0  0  0  0  0  0  0
   27.4695  -21.5779  -10.4658 C   0  0  2  0  0  0  0  0  0  0  0  0
   28.4300  -20.6968  -11.0984 N   0  0  0  0  0  0  0  0  0  0  0  0
   26.1804  -21.5893  -11.2067 C   0  0  0  0  0  0  0  0  0  0  0  0
   25.1572  -22.1476  -10.7347 O   0  0  0  0  0  0  0  0  0  0  0  0
   26.0554  -20.9745  -12.4668 N   0  0  0  0  0  0  0  0  0  0  0  0
   25.1024  -19.9313  -12.7584 C   0  0  0  0  0  0  0  0  0  0  0  0
   23.9354  -20.4772  -13.4711 C   0  0  0  0  0  0  0  0  0  0  0  0
   24.0621  -20.8556  -14.6617 O   0  0  0  0  0  0  0  0  0  0  0  0
   22.6457  -20.6108  -12.8981 N   0  0  0  0  0  0  0  0  0  0  0  0
   21.5139  -21.1953  -13.5966 C   0  0  1  0  0  0  0  0  0  0  0  0
   20.3145  -21.3480  -12.7351 C   0  0  0  0  0  0  0  0  0  0  0  0
   19.2810  -22.1212  -13.4508 C   0  0  0  0  0  0  0  0  0  0  0  0
   19.5475  -22.8663  -14.6002 C   0  0  0  0  0  0  0  0  0  0  0  0
   18.4254  -23.4595  -15.0309 N   0  0  0  0  0  0  0  0  0  0  0  0
   17.4484  -23.1114  -14.1841 C   0  0  0  0  0  0  0  0  0  0  0  0
   17.9807  -22.2962  -13.2256 N   0  0  0  0  0  0  0  0  0  0  0  0
   21.1907  -20.2832  -14.7210 C   0  0  0  0  0  0  0  0  0  0  0  0
   20.9226  -20.6808  -16.0135 O   0  0  0  0  0  0  0  0  0  0  0  0
   21.1445  -19.0158  -14.5359 O   0  0  0  0  0  0  0  0  0  0  0  0
  2  1  1  0
  3  4  1  0
  3  2  1  0
  5  7  1  0
  5  4  1  0
  5  6  1  6
  7  9  1  0
  8  7  2  0
  9 10  1  0
 11 10  1  0
 11 12  2  0
 13 11  1  0
 14 13  1  0
 14 15  1  1
 15 16  1  0
 16 20  1  0
 16 17  2  0
 17 18  1  0
 19 18  1  0
 20 19  2  0
 21 14  1  0
 22 21  1  0
 23 21  2  0
M  END
$$$$
