MGH.pdb
     RDKit          3D

 23 23  0  0  1  0  0  0  0  0999 V2000
   25.5208  -13.9459  -19.4673 C   0  0  0  0  0  0  0  0  0  0  0  0
   25.5000  -15.7231  -19.0224 S   0  0  0  0  0  0  0  0  0  0  0  0
   26.8453  -16.0587  -17.8580 C   0  0  0  0  0  0  0  0  0  0  0  0
   26.9450  -17.5643  -17.5800 C   0  0  0  0  0  0  0  0  0  0  0  0
   26.2892  -17.9035  -16.2703 C   0  0  2  0  0  0  0  0  0  0  0  0
   26.2200  -16.7494  -15.3972 N   0  0  0  0  0  0  0  0  0  0  0  0
   26.9887  -19.0369  -15.6092 C   0  0  0  0  0  0  0  0  0  0  0  0
   27.1579  -20.1360  -16.1966 O   0  0  0  0  0  0  0  0  0  0  0  0
   27.4894  -18.9232  -14.2985 N   0  0  0  0  0  0  0  0  0  0  0  0
   28.0963  -20.0141  -13.5752 C   0  0  0  0  0  0  0  0  0  0  0  0
   27.0753  -20.7908  -12.8525 C   0  0  0  0  0  0  0  0  0  0  0  0
   26.8476  -21.9775  -13.1941 O   0  0  0  0  0  0  0  0  0  0  0  0
   26.3105  -20.2853  -11.7712 N   0  0  0  0  0  0  0  0  0  0  0  0
   25.3201  -21.0691  -11.0534 C   0  0  1  0  0  0  0  0  0  0  0  0
   25.1385  -20.6296   -9.6470 C   0  0  0  0  0  0  0  0  0  0  0  0
   26.4492  -20.5616   -8.9720 C   0  0  0  0  0  0  0  0  0  0  0  0
   27.5347  -21.3597   -9.3354 C   0  0  0  0  0  0  0  0  0  0  0  0
   28.5873  -21.0838   -8.5528 N   0  0  0  0  0  0  0  0  0  0  0  0
   28.2003  -20.1284   -7.6982 C   0  0  0  0  0  0  0  0  0  0  0  0
   26.8963  -19.8180   -7.9625 N   0  0  0  0  0  0  0  0  0  0  0  0
   24.0384  -20.9056  -11.7822 C   0  0  0  0  0  0  0  0  0  0  0  0
   22.8919  -21.6332  -11.5443 O   0  0  0  0  0  0  0  0  0  0  0  0
   23.9301  -20.0362  -12.7176 O   0  0  0  0  0  0  0  0  0  0  0  0
  2  1  1  0
  3  4  1  0
  3  2  1  0
  5  7  1  0
  5  4  1  0
  5  6  1  1
  7  9  1  0
  8  7  2  0
  9 10  1  0
 11 10  1  0
 11 12  2  0
 13 11  1  0
 14 13  1  0
 14 15  1  1
 15 16  1  0
 16 20  1  0
 16 17  2  0
 17 18  1  0
 19 18  1  0
 20 19  2  0
 21 14  1  0
 22 21  1  0
 23 21  2  0
M  END
$$$$
