MGH.pdb
     RDKit          3D

 23 23  0  0  1  0  0  0  0  0999 V2000
   29.1249  -19.5645   -3.2593 C   0  0  0  0  0  0  0  0  0  0  0  0
   29.2000  -20.2874   -4.9410 S   0  0  0  0  0  0  0  0  0  0  0  0
   27.8252  -19.6412   -5.9263 C   0  0  0  0  0  0  0  0  0  0  0  0
   27.8301  -20.2726   -7.3246 C   0  0  0  0  0  0  0  0  0  0  0  0
   26.6520  -19.7912   -8.1250 C   0  0  2  0  0  0  0  0  0  0  0  0
   25.4343  -19.8100   -7.3402 N   0  0  0  0  0  0  0  0  0  0  0  0
   26.5011  -20.5880   -9.3713 C   0  0  0  0  0  0  0  0  0  0  0  0
   27.5011  -20.9642  -10.0347 O   0  0  0  0  0  0  0  0  0  0  0  0
   25.2313  -20.9526   -9.8573 N   0  0  0  0  0  0  0  0  0  0  0  0
   25.0125  -21.5710  -11.1423 C   0  0  0  0  0  0  0  0  0  0  0  0
   24.9909  -20.5576  -12.2103 C   0  0  0  0  0  0  0  0  0  0  0  0
   24.9483  -19.3405  -11.9043 O   0  0  0  0  0  0  0  0  0  0  0  0
   25.0155  -20.8619  -13.5947 N   0  0  0  0  0  0  0  0  0  0  0  0
   25.0364  -19.8513  -14.6381 C   0  0  1  0  0  0  0  0  0  0  0  0
   25.4562  -20.3864  -15.9578 C   0  0  0  0  0  0  0  0  0  0  0  0
   25.3526  -19.3283  -16.9814 C   0  0  0  0  0  0  0  0  0  0  0  0
   24.2176  -18.5323  -17.1409 C   0  0  0  0  0  0  0  0  0  0  0  0
   24.4065  -17.6621  -18.1427 N   0  0  0  0  0  0  0  0  0  0  0  0
   25.6351  -17.8831  -18.6270 C   0  0  0  0  0  0  0  0  0  0  0  0
   26.2023  -18.9000  -17.9123 N   0  0  0  0  0  0  0  0  0  0  0  0
   23.6545  -19.3228  -14.7462 C   0  0  0  0  0  0  0  0  0  0  0  0
   22.5063  -20.0505  -14.5166 O   0  0  0  0  0  0  0  0  0  0  0  0
   23.4507  -18.1014  -15.0770 O   0  0  0  0  0  0  0  0  0  0  0  0
  2  1  1  0
  3  4  1  0
  3  2  1  0
  5  7  1  0
  5  4  1  0
  5  6  1  1
  7  9  1  0
  8  7  2  0
  9 10  1  0
 11 10  1  0
 11 12  2  0
 13 11  1  0
 14 13  1  0
 14 15  1  6
 15 16  1  0
 16 20  1  0
 16 17  2  0
 17 18  1  0
 19 18  1  0
 20 19  2  0
 21 14  1  0
 22 21  1  0
 23 21  2  0
M  END
$$$$
