MGH.pdb
     RDKit          3D

 23 23  0  0  1  0  0  0  0  0999 V2000
   27.2900  -14.8517  -19.1042 C   0  0  0  0  0  0  0  0  0  0  0  0
   28.8225  -15.8531  -19.1783 S   0  0  0  0  0  0  0  0  0  0  0  0
   28.7171  -17.1896  -17.9614 C   0  0  0  0  0  0  0  0  0  0  0  0
   27.5614  -16.9309  -16.9859 C   0  0  0  0  0  0  0  0  0  0  0  0
   27.4861  -18.0232  -15.9556 C   0  0  2  0  0  0  0  0  0  0  0  0
   27.5639  -19.3347  -16.5664 N   0  0  0  0  0  0  0  0  0  0  0  0
   26.2562  -17.8858  -15.1314 C   0  0  0  0  0  0  0  0  0  0  0  0
   25.9937  -16.8203  -14.5169 O   0  0  0  0  0  0  0  0  0  0  0  0
   25.3367  -18.9444  -15.0070 N   0  0  0  0  0  0  0  0  0  0  0  0
   24.1161  -18.8598  -14.2427 C   0  0  0  0  0  0  0  0  0  0  0  0
   22.9465  -18.8006  -15.1352 C   0  0  0  0  0  0  0  0  0  0  0  0
   21.7952  -18.9346  -14.6521 O   0  0  0  0  0  0  0  0  0  0  0  0
   23.0257  -18.5983  -16.5361 N   0  0  0  0  0  0  0  0  0  0  0  0
   21.8734  -18.6434  -17.4197 C   0  0  1  0  0  0  0  0  0  0  0  0
   21.6721  -17.3828  -18.1777 C   0  0  0  0  0  0  0  0  0  0  0  0
   21.4053  -16.2741  -17.2409 C   0  0  0  0  0  0  0  0  0  0  0  0
   20.1376  -16.0021  -16.7250 C   0  0  0  0  0  0  0  0  0  0  0  0
   20.1950  -14.9430  -15.9055 N   0  0  0  0  0  0  0  0  0  0  0  0
   21.4691  -14.5319  -15.8855 C   0  0  0  0  0  0  0  0  0  0  0  0
   22.1974  -15.3498  -16.7023 N   0  0  0  0  0  0  0  0  0  0  0  0
   22.1138  -19.7516  -18.3761 C   0  0  0  0  0  0  0  0  0  0  0  0
   23.2637  -20.5093  -18.4399 O   0  0  0  0  0  0  0  0  0  0  0  0
   21.2185  -20.0736  -19.2348 O   0  0  0  0  0  0  0  0  0  0  0  0
  2  1  1  0
  3  4  1  0
  3  2  1  0
  5  7  1  0
  5  4  1  0
  5  6  1  6
  7  9  1  0
  8  7  2  0
  9 10  1  0
 11 10  1  0
 11 12  2  0
 13 11  1  0
 14 13  1  0
 14 15  1  6
 15 16  1  0
 16 20  1  0
 16 17  2  0
 17 18  1  0
 19 18  1  0
 20 19  2  0
 21 14  1  0
 22 21  1  0
 23 21  2  0
M  END
$$$$
