MGH.pdb
     RDKit          3D

 23 23  0  0  1  0  0  0  0  0999 V2000
   26.8440  -18.5316   -7.1618 C   0  0  0  0  0  0  0  0  0  0  0  0
   26.7933  -20.3207   -6.7705 S   0  0  0  0  0  0  0  0  0  0  0  0
   26.1870  -21.2270   -8.2160 C   0  0  0  0  0  0  0  0  0  0  0  0
   26.2106  -20.3255   -9.4573 C   0  0  0  0  0  0  0  0  0  0  0  0
   25.7214  -21.0767  -10.6643 C   0  0  2  0  0  0  0  0  0  0  0  0
   26.4476  -22.3170  -10.8472 N   0  0  0  0  0  0  0  0  0  0  0  0
   25.7965  -20.2250  -11.8807 C   0  0  0  0  0  0  0  0  0  0  0  0
   25.0071  -19.2620  -12.0572 O   0  0  0  0  0  0  0  0  0  0  0  0
   26.7554  -20.4640  -12.8832 N   0  0  0  0  0  0  0  0  0  0  0  0
   26.8732  -19.6732  -14.0841 C   0  0  0  0  0  0  0  0  0  0  0  0
   25.8719  -20.0884  -15.0807 C   0  0  0  0  0  0  0  0  0  0  0  0
   25.8139  -19.4890  -16.1826 O   0  0  0  0  0  0  0  0  0  0  0  0
   24.9443  -21.1421  -14.8834 N   0  0  0  0  0  0  0  0  0  0  0  0
   24.0905  -21.6669  -15.9351 C   0  0  1  0  0  0  0  0  0  0  0  0
   23.7952  -23.1132  -15.7771 C   0  0  0  0  0  0  0  0  0  0  0  0
   25.0110  -23.9038  -16.0509 C   0  0  0  0  0  0  0  0  0  0  0  0
   26.1817  -23.3458  -16.5659 C   0  0  0  0  0  0  0  0  0  0  0  0
   27.1155  -24.2962  -16.7119 N   0  0  0  0  0  0  0  0  0  0  0  0
   26.5693  -25.4481  -16.3024 C   0  0  0  0  0  0  0  0  0  0  0  0
   25.2874  -25.1974  -15.9020 N   0  0  0  0  0  0  0  0  0  0  0  0
   22.8205  -20.9027  -15.8731 C   0  0  0  0  0  0  0  0  0  0  0  0
   22.4212  -20.1116  -14.8171 O   0  0  0  0  0  0  0  0  0  0  0  0
   21.9896  -20.9446  -16.8480 O   0  0  0  0  0  0  0  0  0  0  0  0
  2  1  1  0
  3  4  1  0
  3  2  1  0
  5  7  1  0
  5  4  1  0
  5  6  1  6
  7  9  1  0
  8  7  2  0
  9 10  1  0
 11 10  1  0
 11 12  2  0
 13 11  1  0
 14 13  1  0
 14 15  1  1
 15 16  1  0
 16 20  1  0
 16 17  2  0
 17 18  1  0
 19 18  1  0
 20 19  2  0
 21 14  1  0
 22 21  1  0
 23 21  2  0
M  END
$$$$
