MGH.pdb
     RDKit          3D

 23 23  0  0  1  0  0  0  0  0999 V2000
   19.9361  -17.2031  -12.5396 C   0  0  0  0  0  0  0  0  0  0  0  0
   19.8973  -17.6904  -14.3052 S   0  0  0  0  0  0  0  0  0  0  0  0
   19.4629  -16.2476  -15.3093 C   0  0  0  0  0  0  0  0  0  0  0  0
   18.2326  -15.5427  -14.7231 C   0  0  0  0  0  0  0  0  0  0  0  0
   17.3270  -15.0610  -15.8222 C   0  0  2  0  0  0  0  0  0  0  0  0
   18.0188  -15.0069  -17.0940 N   0  0  0  0  0  0  0  0  0  0  0  0
   16.7340  -13.7422  -15.4759 C   0  0  0  0  0  0  0  0  0  0  0  0
   16.0618  -13.5805  -14.4253 O   0  0  0  0  0  0  0  0  0  0  0  0
   16.9023  -12.6221  -16.3117 N   0  0  0  0  0  0  0  0  0  0  0  0
   16.3845  -11.3103  -16.0075 C   0  0  0  0  0  0  0  0  0  0  0  0
   17.2912  -10.2640  -16.5086 C   0  0  0  0  0  0  0  0  0  0  0  0
   18.4300  -10.5851  -16.9290 O   0  0  0  0  0  0  0  0  0  0  0  0
   16.9654   -8.8851  -16.5529 N   0  0  0  0  0  0  0  0  0  0  0  0
   17.8106   -7.8806  -17.1753 C   0  0  1  0  0  0  0  0  0  0  0  0
   17.0486   -6.7096  -17.6776 C   0  0  0  0  0  0  0  0  0  0  0  0
   17.9506   -5.8088  -18.4214 C   0  0  0  0  0  0  0  0  0  0  0  0
   18.0765   -5.8352  -19.8109 C   0  0  0  0  0  0  0  0  0  0  0  0
   18.9631   -4.9115  -20.2073 N   0  0  0  0  0  0  0  0  0  0  0  0
   19.4066   -4.2955  -19.1043 C   0  0  0  0  0  0  0  0  0  0  0  0
   18.7832   -4.8500  -18.0223 N   0  0  0  0  0  0  0  0  0  0  0  0
   18.7678   -7.4272  -16.1367 C   0  0  0  0  0  0  0  0  0  0  0  0
   19.9028   -6.6817  -16.3747 O   0  0  0  0  0  0  0  0  0  0  0  0
   18.5770   -7.7235  -14.9044 O   0  0  0  0  0  0  0  0  0  0  0  0
  2  1  1  0
  3  4  1  0
  3  2  1  0
  5  7  1  0
  5  4  1  0
  5  6  1  6
  7  9  1  0
  8  7  2  0
  9 10  1  0
 11 10  1  0
 11 12  2  0
 13 11  1  0
 14 13  1  0
 14 15  1  1
 15 16  1  0
 16 20  1  0
 16 17  2  0
 17 18  1  0
 19 18  1  0
 20 19  2  0
 21 14  1  0
 22 21  1  0
 23 21  2  0
M  END
$$$$
