VLH.pdb
     RDKit          3D

 26 26  0  0  1  0  0  0  0  0999 V2000
    6.3650  -16.9117   20.8030 C   0  0  0  0  0  0  0  0  0  0  0  0
    7.3349  -16.1935   19.9068 C   0  0  1  0  0  0  0  0  0  0  0  0
    7.0118  -16.3641   18.4634 C   0  0  0  0  0  0  0  0  0  0  0  0
    7.5973  -14.7728   20.3103 C   0  0  2  0  0  0  0  0  0  0  0  0
    8.6484  -14.3012   19.3790 N   0  0  0  0  0  0  0  0  0  0  0  0
    8.0663  -14.6066   21.6941 C   0  0  0  0  0  0  0  0  0  0  0  0
    9.2694  -14.8918   22.0386 O   0  0  0  0  0  0  0  0  0  0  0  0
    8.0171  -11.9654   26.6371 C   0  0  0  0  0  0  0  0  0  0  0  0
    6.9373  -12.9300   26.2884 C   0  0  1  0  0  0  0  0  0  0  0  0
    5.6339  -12.3516   26.8647 C   0  0  0  0  0  0  0  0  0  0  0  0
    6.6961  -13.1448   24.8355 C   0  0  0  0  0  0  0  0  0  0  0  0
    7.6727  -13.9793   24.1051 C   0  0  2  0  0  0  0  0  0  0  0  0
    7.2251  -14.1260   22.7149 N   0  0  0  0  0  0  0  0  0  0  0  0
    8.0390  -15.2633   24.6785 C   0  0  0  0  0  0  0  0  0  0  0  0
    7.1213  -16.1450   24.8161 O   0  0  0  0  0  0  0  0  0  0  0  0
    9.3139  -15.6544   25.1066 N   0  0  0  0  0  0  0  0  0  0  0  0
    9.6062  -16.9879   25.6978 C   0  0  1  0  0  0  0  0  0  0  0  0
   10.8673  -17.4175   24.9938 C   0  0  0  0  0  0  0  0  0  0  0  0
   10.6981  -17.9549   23.6454 C   0  0  0  0  0  0  0  0  0  0  0  0
    9.6377  -18.2317   22.8465 C   0  0  0  0  0  0  0  0  0  0  0  0
   10.0807  -18.6805   21.6525 N   0  0  0  0  0  0  0  0  0  0  0  0
   11.4076  -18.6827   21.7057 C   0  0  0  0  0  0  0  0  0  0  0  0
   11.8111  -18.2498   22.8956 N   0  0  0  0  0  0  0  0  0  0  0  0
    9.9882  -16.7238   27.1220 C   0  0  0  0  0  0  0  0  0  0  0  0
   10.0550  -15.5204   27.7442 O   0  0  0  0  0  0  0  0  0  0  0  0
   10.2840  -17.7464   27.8302 O   0  0  0  0  0  0  0  0  0  0  0  0
  2  1  1  1
  2  3  1  0
  4  6  1  0
  4  2  1  0
  4  5  1  6
  6 13  1  0
  7  6  2  0
  9 10  1  1
  9  8  1  0
 11  9  1  0
 12 11  1  1
 13 12  1  0
 14 15  2  0
 14 12  1  0
 16 14  1  0
 17 24  1  0
 17 16  1  0
 17 18  1  6
 19 18  1  0
 19 23  1  0
 20 19  2  0
 21 20  1  0
 21 22  1  0
 22 23  2  0
 24 25  1  0
 26 24  2  0
M  END
$$$$
