VLH.pdb
     RDKit          3D

 26 26  0  0  1  0  0  0  0  0999 V2000
    7.1233  -17.5886   21.7008 C   0  0  0  0  0  0  0  0  0  0  0  0
    7.5029  -16.5147   20.7197 C   0  0  1  0  0  0  0  0  0  0  0  0
    6.9181  -16.7427   19.3695 C   0  0  0  0  0  0  0  0  0  0  0  0
    7.3121  -15.1210   21.2406 C   0  0  2  0  0  0  0  0  0  0  0  0
    7.8655  -14.2415   20.1847 N   0  0  0  0  0  0  0  0  0  0  0  0
    7.9989  -14.8435   22.5110 C   0  0  0  0  0  0  0  0  0  0  0  0
    9.2760  -14.7344   22.5790 O   0  0  0  0  0  0  0  0  0  0  0  0
    5.8241  -11.6237   26.4104 C   0  0  0  0  0  0  0  0  0  0  0  0
    6.7802  -12.3487   25.5282 C   0  0  1  0  0  0  0  0  0  0  0  0
    8.1057  -11.5710   25.5904 C   0  0  0  0  0  0  0  0  0  0  0  0
    7.0960  -13.7500   25.9179 C   0  0  0  0  0  0  0  0  0  0  0  0
    7.9728  -14.5214   25.0124 C   0  0  2  0  0  0  0  0  0  0  0  0
    7.2962  -14.6812   23.7196 N   0  0  0  0  0  0  0  0  0  0  0  0
    8.5035  -15.7874   25.4889 C   0  0  0  0  0  0  0  0  0  0  0  0
    7.6862  -16.7585   25.6553 O   0  0  0  0  0  0  0  0  0  0  0  0
    9.8408  -16.0718   25.7928 N   0  0  0  0  0  0  0  0  0  0  0  0
   10.3185  -17.4190   26.2050 C   0  0  1  0  0  0  0  0  0  0  0  0
   11.7925  -17.3815   25.8943 C   0  0  0  0  0  0  0  0  0  0  0  0
   12.5751  -18.5255   26.3572 C   0  0  0  0  0  0  0  0  0  0  0  0
   12.2905  -19.6988   26.9748 C   0  0  0  0  0  0  0  0  0  0  0  0
   13.4259  -20.4141   27.1244 N   0  0  0  0  0  0  0  0  0  0  0  0
   14.4115  -19.6929   26.6030 C   0  0  0  0  0  0  0  0  0  0  0  0
   13.9303  -18.5475   26.1313 N   0  0  0  0  0  0  0  0  0  0  0  0
   10.2037  -17.4493   27.6983 C   0  0  0  0  0  0  0  0  0  0  0  0
   10.1458  -18.5456   28.4950 O   0  0  0  0  0  0  0  0  0  0  0  0
   10.1551  -16.3157   28.2878 O   0  0  0  0  0  0  0  0  0  0  0  0
  2  1  1  1
  2  3  1  0
  4  6  1  0
  4  2  1  0
  4  5  1  6
  6 13  1  0
  7  6  2  0
  9 10  1  1
  9  8  1  0
 11  9  1  0
 12 11  1  1
 13 12  1  0
 14 15  2  0
 14 12  1  0
 16 14  1  0
 17 24  1  0
 17 16  1  0
 17 18  1  1
 19 18  1  0
 19 23  1  0
 20 19  2  0
 21 20  1  0
 21 22  1  0
 22 23  2  0
 24 25  1  0
 26 24  2  0
M  END
$$$$
