VLH.pdb
     RDKit          3D

 26 26  0  0  1  0  0  0  0  0999 V2000
    6.1761  -17.4367   20.3360 C   0  0  0  0  0  0  0  0  0  0  0  0
    7.0356  -16.8808   21.4369 C   0  0  1  0  0  0  0  0  0  0  0  0
    8.3472  -17.5774   21.5439 C   0  0  0  0  0  0  0  0  0  0  0  0
    7.1375  -15.3842   21.4311 C   0  0  2  0  0  0  0  0  0  0  0  0
    7.8515  -15.0568   20.1751 N   0  0  0  0  0  0  0  0  0  0  0  0
    7.8753  -14.8169   22.5696 C   0  0  0  0  0  0  0  0  0  0  0  0
    9.0963  -14.4360   22.4612 O   0  0  0  0  0  0  0  0  0  0  0  0
    5.6229  -11.4357   26.4164 C   0  0  0  0  0  0  0  0  0  0  0  0
    6.5731  -12.0997   25.4813 C   0  0  1  0  0  0  0  0  0  0  0  0
    7.8128  -11.1927   25.4034 C   0  0  0  0  0  0  0  0  0  0  0  0
    7.0610  -13.4449   25.8906 C   0  0  0  0  0  0  0  0  0  0  0  0
    8.0183  -14.1191   24.9891 C   0  0  2  0  0  0  0  0  0  0  0  0
    7.2854  -14.6591   23.8376 N   0  0  0  0  0  0  0  0  0  0  0  0
    8.9099  -15.1146   25.5596 C   0  0  0  0  0  0  0  0  0  0  0  0
    9.6496  -14.7664   26.5446 O   0  0  0  0  0  0  0  0  0  0  0  0
    9.0536  -16.4443   25.1439 N   0  0  0  0  0  0  0  0  0  0  0  0
    9.9871  -17.4074   25.7873 C   0  0  1  0  0  0  0  0  0  0  0  0
    9.3281  -18.7434   25.5604 C   0  0  0  0  0  0  0  0  0  0  0  0
    8.2565  -19.0961   26.4893 C   0  0  0  0  0  0  0  0  0  0  0  0
    7.8001  -18.5977   27.6651 C   0  0  0  0  0  0  0  0  0  0  0  0
    6.7256  -19.3096   28.0674 N   0  0  0  0  0  0  0  0  0  0  0  0
    6.5125  -20.2448   27.1488 C   0  0  0  0  0  0  0  0  0  0  0  0
    7.4197  -20.1421   26.1831 N   0  0  0  0  0  0  0  0  0  0  0  0
   11.2234  -17.3988   24.9413 C   0  0  0  0  0  0  0  0  0  0  0  0
   12.3919  -18.0414   25.1891 O   0  0  0  0  0  0  0  0  0  0  0  0
   11.1715  -16.7093   23.8659 O   0  0  0  0  0  0  0  0  0  0  0  0
  2  1  1  6
  2  3  1  0
  4  6  1  0
  4  2  1  0
  4  5  1  6
  6 13  1  0
  7  6  2  0
  9 10  1  1
  9  8  1  0
 11  9  1  0
 12 11  1  1
 13 12  1  0
 14 15  2  0
 14 12  1  0
 16 14  1  0
 17 24  1  0
 17 16  1  0
 17 18  1  6
 19 18  1  0
 19 23  1  0
 20 19  2  0
 21 20  1  0
 21 22  1  0
 22 23  2  0
 24 25  1  0
 26 24  2  0
M  END
$$$$
