VLH.pdb
     RDKit          3D

 26 26  0  0  1  0  0  0  0  0999 V2000
    8.2176  -18.4335   19.8540 C   0  0  0  0  0  0  0  0  0  0  0  0
    8.6124  -17.8964   21.2014 C   0  0  1  0  0  0  0  0  0  0  0  0
    9.6029  -18.7658   21.8944 C   0  0  0  0  0  0  0  0  0  0  0  0
    8.9776  -16.4415   21.1922 C   0  0  2  0  0  0  0  0  0  0  0  0
   10.2307  -16.3693   20.4053 N   0  0  0  0  0  0  0  0  0  0  0  0
    9.2073  -15.8601   22.5232 C   0  0  0  0  0  0  0  0  0  0  0  0
   10.3658  -15.8738   23.0757 O   0  0  0  0  0  0  0  0  0  0  0  0
    8.2174  -12.2836   26.6773 C   0  0  0  0  0  0  0  0  0  0  0  0
    7.1854  -13.3036   26.3420 C   0  0  1  0  0  0  0  0  0  0  0  0
    5.8216  -12.6082   26.4896 C   0  0  0  0  0  0  0  0  0  0  0  0
    7.2315  -13.8503   24.9584 C   0  0  0  0  0  0  0  0  0  0  0  0
    8.3774  -14.7168   24.6126 C   0  0  2  0  0  0  0  0  0  0  0  0
    8.1732  -15.2567   23.2629 N   0  0  0  0  0  0  0  0  0  0  0  0
    8.7492  -15.7646   25.5481 C   0  0  0  0  0  0  0  0  0  0  0  0
    7.9046  -16.7006   25.7706 O   0  0  0  0  0  0  0  0  0  0  0  0
    9.9569  -15.8690   26.2497 N   0  0  0  0  0  0  0  0  0  0  0  0
   10.2836  -17.0043   27.1538 C   0  0  1  0  0  0  0  0  0  0  0  0
   11.6864  -17.3819   26.7538 C   0  0  0  0  0  0  0  0  0  0  0  0
   12.3540  -18.3641   27.6054 C   0  0  0  0  0  0  0  0  0  0  0  0
   13.2189  -18.3031   28.6482 C   0  0  0  0  0  0  0  0  0  0  0  0
   13.4756  -19.5522   29.0920 N   0  0  0  0  0  0  0  0  0  0  0  0
   12.7750  -20.3865   28.3324 C   0  0  0  0  0  0  0  0  0  0  0  0
   12.0873  -19.7001   27.4259 N   0  0  0  0  0  0  0  0  0  0  0  0
   10.3820  -16.4125   28.5264 C   0  0  0  0  0  0  0  0  0  0  0  0
   10.3602  -15.0971   28.8566 O   0  0  0  0  0  0  0  0  0  0  0  0
   10.4995  -17.2392   29.4948 O   0  0  0  0  0  0  0  0  0  0  0  0
  2  1  1  6
  2  3  1  0
  4  6  1  0
  4  2  1  0
  4  5  1  6
  6 13  1  0
  7  6  2  0
  9 10  1  6
  9  8  1  0
 11  9  1  0
 12 11  1  1
 13 12  1  0
 14 15  2  0
 14 12  1  0
 16 14  1  0
 17 24  1  0
 17 16  1  0
 17 18  1  6
 19 18  1  0
 19 23  1  0
 20 19  2  0
 21 20  1  0
 21 22  1  0
 22 23  2  0
 24 25  1  0
 26 24  2  0
M  END
$$$$
