VLH.pdb
     RDKit          3D

 26 26  0  0  1  0  0  0  0  0999 V2000
    6.2282  -17.0499   20.2529 C   0  0  0  0  0  0  0  0  0  0  0  0
    7.0749  -16.7664   21.4623 C   0  0  1  0  0  0  0  0  0  0  0  0
    8.1640  -17.7654   21.6433 C   0  0  0  0  0  0  0  0  0  0  0  0
    7.5304  -15.3408   21.5643 C   0  0  2  0  0  0  0  0  0  0  0  0
    8.4537  -15.1542   20.4209 N   0  0  0  0  0  0  0  0  0  0  0  0
    8.2333  -15.0111   22.8132 C   0  0  0  0  0  0  0  0  0  0  0  0
    9.5000  -14.8062   22.8417 O   0  0  0  0  0  0  0  0  0  0  0  0
    5.3739  -12.4190   26.8306 C   0  0  0  0  0  0  0  0  0  0  0  0
    6.4553  -12.8175   25.8872 C   0  0  1  0  0  0  0  0  0  0  0  0
    7.4638  -11.6566   25.8653 C   0  0  0  0  0  0  0  0  0  0  0  0
    7.2256  -14.0374   26.2529 C   0  0  0  0  0  0  0  0  0  0  0  0
    8.2365  -14.5128   25.2856 C   0  0  2  0  0  0  0  0  0  0  0  0
    7.5582  -14.9010   24.0431 N   0  0  0  0  0  0  0  0  0  0  0  0
    9.1683  -15.5399   25.7197 C   0  0  0  0  0  0  0  0  0  0  0  0
   10.1089  -15.2005   26.5190 O   0  0  0  0  0  0  0  0  0  0  0  0
    9.1521  -16.8918   25.3542 N   0  0  0  0  0  0  0  0  0  0  0  0
   10.0542  -17.9128   25.9516 C   0  0  1  0  0  0  0  0  0  0  0  0
   11.4329  -17.3745   25.6689 C   0  0  0  0  0  0  0  0  0  0  0  0
   11.8432  -17.3659   24.2663 C   0  0  0  0  0  0  0  0  0  0  0  0
   11.2452  -17.6690   23.0875 C   0  0  0  0  0  0  0  0  0  0  0  0
   12.1033  -17.4264   22.0736 N   0  0  0  0  0  0  0  0  0  0  0  0
   13.2281  -16.9741   22.6157 C   0  0  0  0  0  0  0  0  0  0  0  0
   13.1028  -16.9258   23.9378 N   0  0  0  0  0  0  0  0  0  0  0  0
    9.8573  -17.8091   27.4329 C   0  0  0  0  0  0  0  0  0  0  0  0
   10.5515  -18.4584   28.4006 O   0  0  0  0  0  0  0  0  0  0  0  0
    8.9323  -17.0206   27.8297 O   0  0  0  0  0  0  0  0  0  0  0  0
  2  1  1  6
  2  3  1  0
  4  6  1  0
  4  2  1  0
  4  5  1  6
  6 13  1  0
  7  6  2  0
  9 10  1  1
  9  8  1  0
 11  9  1  0
 12 11  1  1
 13 12  1  0
 14 15  2  0
 14 12  1  0
 16 14  1  0
 17 24  1  0
 17 16  1  0
 17 18  1  1
 19 18  1  0
 19 23  1  0
 20 19  2  0
 21 20  1  0
 21 22  1  0
 22 23  2  0
 24 25  1  0
 26 24  2  0
M  END
$$$$
