VLH.pdb
     RDKit          3D

 26 26  0  0  1  0  0  0  0  0999 V2000
    7.4879  -18.1811   20.4732 C   0  0  0  0  0  0  0  0  0  0  0  0
    8.0574  -17.4905   21.6810 C   0  0  1  0  0  0  0  0  0  0  0  0
    9.3992  -18.0145   22.0581 C   0  0  0  0  0  0  0  0  0  0  0  0
    7.9820  -15.9938   21.6168 C   0  0  2  0  0  0  0  0  0  0  0  0
    8.8774  -15.6158   20.4987 N   0  0  0  0  0  0  0  0  0  0  0  0
    8.4191  -15.3062   22.8410 C   0  0  0  0  0  0  0  0  0  0  0  0
    9.6207  -14.8781   22.9830 O   0  0  0  0  0  0  0  0  0  0  0  0
    5.5578  -11.7782   26.2890 C   0  0  0  0  0  0  0  0  0  0  0  0
    6.6892  -12.4462   25.5878 C   0  0  1  0  0  0  0  0  0  0  0  0
    7.9696  -11.7251   26.0417 C   0  0  0  0  0  0  0  0  0  0  0  0
    6.8878  -13.8892   25.8940 C   0  0  0  0  0  0  0  0  0  0  0  0
    8.0102  -14.5742   25.2197 C   0  0  2  0  0  0  0  0  0  0  0  0
    7.5466  -15.0788   23.9215 N   0  0  0  0  0  0  0  0  0  0  0  0
    8.7276  -15.6000   25.9575 C   0  0  0  0  0  0  0  0  0  0  0  0
    9.3043  -15.2639   27.0499 O   0  0  0  0  0  0  0  0  0  0  0  0
    8.8614  -16.9476   25.6002 N   0  0  0  0  0  0  0  0  0  0  0  0
    9.6166  -17.9393   26.4121 C   0  0  1  0  0  0  0  0  0  0  0  0
    8.9792  -19.2546   26.0455 C   0  0  0  0  0  0  0  0  0  0  0  0
    8.3519  -19.9910   27.1409 C   0  0  0  0  0  0  0  0  0  0  0  0
    8.3432  -19.8815   28.4926 C   0  0  0  0  0  0  0  0  0  0  0  0
    7.5346  -20.8287   29.0142 N   0  0  0  0  0  0  0  0  0  0  0  0
    7.0415  -21.5234   27.9954 C   0  0  0  0  0  0  0  0  0  0  0  0
    7.5156  -21.0421   26.8511 N   0  0  0  0  0  0  0  0  0  0  0  0
   10.9987  -17.9659   25.8350 C   0  0  0  0  0  0  0  0  0  0  0  0
   11.4327  -17.3355   24.7151 O   0  0  0  0  0  0  0  0  0  0  0  0
   11.8660  -18.6597   26.4683 O   0  0  0  0  0  0  0  0  0  0  0  0
  2  1  1  6
  2  3  1  0
  4  6  1  0
  4  2  1  0
  4  5  1  6
  6 13  1  0
  7  6  2  0
  9 10  1  1
  9  8  1  0
 11  9  1  0
 12 11  1  1
 13 12  1  0
 14 15  2  0
 14 12  1  0
 16 14  1  0
 17 24  1  0
 17 16  1  0
 17 18  1  6
 19 18  1  0
 19 23  1  0
 20 19  2  0
 21 20  1  0
 21 22  1  0
 22 23  2  0
 24 25  1  0
 26 24  2  0
M  END
$$$$
