VLH.pdb
     RDKit          3D

 26 26  0  0  1  0  0  0  0  0999 V2000
   10.7402  -18.5091   28.0311 C   0  0  0  0  0  0  0  0  0  0  0  0
    9.8923  -17.9838   26.9064 C   0  0  1  0  0  0  0  0  0  0  0  0
    9.8552  -18.9084   25.7399 C   0  0  0  0  0  0  0  0  0  0  0  0
    8.5427  -17.4939   27.3408 C   0  0  2  0  0  0  0  0  0  0  0  0
    7.8425  -18.7007   27.8387 N   0  0  0  0  0  0  0  0  0  0  0  0
    7.7431  -16.8763   26.2722 C   0  0  0  0  0  0  0  0  0  0  0  0
    6.8656  -17.5428   25.6138 O   0  0  0  0  0  0  0  0  0  0  0  0
    7.5474  -11.6507   26.7330 C   0  0  0  0  0  0  0  0  0  0  0  0
    7.0080  -13.0132   26.4671 C   0  0  1  0  0  0  0  0  0  0  0  0
    5.5286  -12.9855   26.8869 C   0  0  0  0  0  0  0  0  0  0  0  0
    7.0345  -13.4617   25.0482 C   0  0  0  0  0  0  0  0  0  0  0  0
    7.1558  -14.9136   24.8012 C   0  0  2  0  0  0  0  0  0  0  0  0
    7.8938  -15.5238   25.9137 N   0  0  0  0  0  0  0  0  0  0  0  0
    7.6834  -15.3472   23.5186 C   0  0  0  0  0  0  0  0  0  0  0  0
    6.8672  -15.4605   22.5390 O   0  0  0  0  0  0  0  0  0  0  0  0
    9.0166  -15.6615   23.2262 N   0  0  0  0  0  0  0  0  0  0  0  0
    9.4733  -16.1326   21.8911 C   0  0  1  0  0  0  0  0  0  0  0  0
    9.8111  -14.8573   21.1631 C   0  0  0  0  0  0  0  0  0  0  0  0
    8.7264  -14.2510   20.3940 C   0  0  0  0  0  0  0  0  0  0  0  0
    7.4318  -14.5674   20.1430 C   0  0  0  0  0  0  0  0  0  0  0  0
    6.8718  -13.5994   19.3864 N   0  0  0  0  0  0  0  0  0  0  0  0
    7.8099  -12.6851   19.1678 C   0  0  0  0  0  0  0  0  0  0  0  0
    8.9408  -13.0493   19.7631 N   0  0  0  0  0  0  0  0  0  0  0  0
   10.7735  -16.8360   22.1336 C   0  0  0  0  0  0  0  0  0  0  0  0
   11.4056  -17.0059   23.3216 O   0  0  0  0  0  0  0  0  0  0  0  0
   11.3519  -17.3315   21.1067 O   0  0  0  0  0  0  0  0  0  0  0  0
  2  1  1  1
  2  3  1  0
  4  6  1  0
  4  2  1  0
  4  5  1  6
  6 13  1  0
  7  6  2  0
  9 10  1  6
  9  8  1  0
 11  9  1  0
 12 11  1  1
 13 12  1  0
 14 15  2  0
 14 12  1  0
 16 14  1  0
 17 24  1  0
 17 16  1  0
 17 18  1  6
 19 18  1  0
 19 23  1  0
 20 19  2  0
 21 20  1  0
 21 22  1  0
 22 23  2  0
 24 25  1  0
 26 24  2  0
M  END
$$$$
