VLH.pdb
     RDKit          3D

 26 26  0  0  1  0  0  0  0  0999 V2000
    7.4470  -17.7431   21.4092 C   0  0  0  0  0  0  0  0  0  0  0  0
    8.0732  -16.7291   20.4928 C   0  0  1  0  0  0  0  0  0  0  0  0
    7.6872  -16.9314   19.0691 C   0  0  0  0  0  0  0  0  0  0  0  0
    7.9343  -15.3132   20.9682 C   0  0  2  0  0  0  0  0  0  0  0  0
    8.7770  -14.5180   20.0451 N   0  0  0  0  0  0  0  0  0  0  0  0
    8.3819  -15.0853   22.3503 C   0  0  0  0  0  0  0  0  0  0  0  0
    9.6228  -15.1329   22.6752 O   0  0  0  0  0  0  0  0  0  0  0  0
    5.6950  -11.8380   26.1787 C   0  0  0  0  0  0  0  0  0  0  0  0
    6.7702  -12.5224   25.4083 C   0  0  1  0  0  0  0  0  0  0  0  0
    8.1043  -11.9674   25.9352 C   0  0  0  0  0  0  0  0  0  0  0  0
    6.8416  -14.0016   25.5575 C   0  0  0  0  0  0  0  0  0  0  0  0
    7.8929  -14.7071   24.7955 C   0  0  2  0  0  0  0  0  0  0  0  0
    7.4777  -14.8019   23.3908 N   0  0  0  0  0  0  0  0  0  0  0  0
    8.3549  -15.9908   25.2957 C   0  0  0  0  0  0  0  0  0  0  0  0
    7.5675  -16.9951   25.1947 O   0  0  0  0  0  0  0  0  0  0  0  0
    9.5949  -16.2597   25.8888 N   0  0  0  0  0  0  0  0  0  0  0  0
   10.0019  -17.6109   26.3596 C   0  0  1  0  0  0  0  0  0  0  0  0
   11.3496  -17.8174   25.7179 C   0  0  0  0  0  0  0  0  0  0  0  0
   12.1039  -18.9842   26.1709 C   0  0  0  0  0  0  0  0  0  0  0  0
   11.8794  -19.9929   27.0491 C   0  0  0  0  0  0  0  0  0  0  0  0
   12.9288  -20.8424   27.0345 N   0  0  0  0  0  0  0  0  0  0  0  0
   13.8013  -20.3677   26.1529 C   0  0  0  0  0  0  0  0  0  0  0  0
   13.3324  -19.2470   25.6143 N   0  0  0  0  0  0  0  0  0  0  0  0
   10.2531  -17.4681   27.8295 C   0  0  0  0  0  0  0  0  0  0  0  0
   10.5232  -18.4586   28.7160 O   0  0  0  0  0  0  0  0  0  0  0  0
   10.2082  -16.2805   28.3012 O   0  0  0  0  0  0  0  0  0  0  0  0
  2  1  1  1
  2  3  1  0
  4  6  1  0
  4  2  1  0
  4  5  1  6
  6 13  1  0
  7  6  2  0
  9 10  1  1
  9  8  1  0
 11  9  1  0
 12 11  1  1
 13 12  1  0
 14 15  2  0
 14 12  1  0
 16 14  1  0
 17 24  1  0
 17 16  1  0
 17 18  1  6
 19 18  1  0
 19 23  1  0
 20 19  2  0
 21 20  1  0
 21 22  1  0
 22 23  2  0
 24 25  1  0
 26 24  2  0
M  END
$$$$
