VLH.pdb
     RDKit          3D

 26 26  0  0  1  0  0  0  0  0999 V2000
    7.5275  -18.0417   21.7235 C   0  0  0  0  0  0  0  0  0  0  0  0
    8.2373  -17.0787   20.8132 C   0  0  1  0  0  0  0  0  0  0  0  0
    7.8527  -17.2539   19.3855 C   0  0  0  0  0  0  0  0  0  0  0  0
    8.1992  -15.6556   21.2860 C   0  0  2  0  0  0  0  0  0  0  0  0
    9.0537  -14.9144   20.3294 N   0  0  0  0  0  0  0  0  0  0  0  0
    8.7087  -15.4503   22.6501 C   0  0  0  0  0  0  0  0  0  0  0  0
    9.9581  -15.5495   22.9268 O   0  0  0  0  0  0  0  0  0  0  0  0
    6.2317  -11.9520   26.1938 C   0  0  0  0  0  0  0  0  0  0  0  0
    7.2612  -12.7465   25.4679 C   0  0  1  0  0  0  0  0  0  0  0  0
    8.6162  -12.0857   25.7728 C   0  0  0  0  0  0  0  0  0  0  0  0
    7.3893  -14.1738   25.8698 C   0  0  0  0  0  0  0  0  0  0  0  0
    8.3402  -15.0078   25.1057 C   0  0  2  0  0  0  0  0  0  0  0  0
    7.8575  -15.1335   23.7251 N   0  0  0  0  0  0  0  0  0  0  0  0
    8.7089  -16.3018   25.6544 C   0  0  0  0  0  0  0  0  0  0  0  0
    7.8459  -17.2459   25.6020 O   0  0  0  0  0  0  0  0  0  0  0  0
    9.9317  -16.6408   26.2470 N   0  0  0  0  0  0  0  0  0  0  0  0
   10.2431  -18.0012   26.7622 C   0  0  1  0  0  0  0  0  0  0  0  0
   11.7020  -18.1794   26.4296 C   0  0  0  0  0  0  0  0  0  0  0  0
   12.0108  -18.4640   25.0299 C   0  0  0  0  0  0  0  0  0  0  0  0
   11.2795  -18.6824   23.9088 C   0  0  0  0  0  0  0  0  0  0  0  0
   12.1096  -18.8521   22.8576 N   0  0  0  0  0  0  0  0  0  0  0  0
   13.3498  -18.7395   23.3191 C   0  0  0  0  0  0  0  0  0  0  0  0
   13.3238  -18.5047   24.6268 N   0  0  0  0  0  0  0  0  0  0  0  0
   10.1612  -17.8970   28.2543 C   0  0  0  0  0  0  0  0  0  0  0  0
   10.2714  -18.9055   29.1547 O   0  0  0  0  0  0  0  0  0  0  0  0
    9.9658  -16.7275   28.7327 O   0  0  0  0  0  0  0  0  0  0  0  0
  2  1  1  1
  2  3  1  0
  4  6  1  0
  4  2  1  0
  4  5  1  6
  6 13  1  0
  7  6  2  0
  9 10  1  1
  9  8  1  0
 11  9  1  0
 12 11  1  1
 13 12  1  0
 14 15  2  0
 14 12  1  0
 16 14  1  0
 17 24  1  0
 17 16  1  0
 17 18  1  1
 19 18  1  0
 19 23  1  0
 20 19  2  0
 21 20  1  0
 21 22  1  0
 22 23  2  0
 24 25  1  0
 26 24  2  0
M  END
$$$$
