WCY.pdb
     RDKit          3D

 33 35  0  0  1  0  0  0  0  0999 V2000
    8.6460  -20.8071   26.7870 N   0  0  0  0  0  0  0  0  0  0  0  0
    8.6928  -19.4349   26.3524 C   0  0  1  0  0  0  0  0  0  0  0  0
   10.0825  -18.9144   26.3667 C   0  0  0  0  0  0  0  0  0  0  0  0
   10.4474  -18.1447   27.5710 C   0  0  0  0  0  0  0  0  0  0  0  0
   10.8779  -18.6750   28.7941 C   0  0  0  0  0  0  0  0  0  0  0  0
   11.1412  -17.6686   29.6313 N   0  0  0  0  0  0  0  0  0  0  0  0
   10.9118  -16.4900   29.0412 C   0  0  0  0  0  0  0  0  0  0  0  0
   11.0179  -15.1886   29.4607 C   0  0  0  0  0  0  0  0  0  0  0  0
   10.7038  -14.1146   28.6417 C   0  0  0  0  0  0  0  0  0  0  0  0
   10.2775  -14.4340   27.3785 C   0  0  0  0  0  0  0  0  0  0  0  0
   10.1554  -15.7193   26.9134 C   0  0  0  0  0  0  0  0  0  0  0  0
   10.4749  -16.7820   27.7456 C   0  0  0  0  0  0  0  0  0  0  0  0
    8.0616  -19.3808   25.0073 C   0  0  0  0  0  0  0  0  0  0  0  0
    8.3128  -20.2361   24.1078 O   0  0  0  0  0  0  0  0  0  0  0  0
    7.1328  -18.3659   24.6354 N   0  0  0  0  0  0  0  0  0  0  0  0
    6.9226  -17.9183   23.2722 C   0  0  1  0  0  0  0  0  0  0  0  0
    5.5802  -17.2166   23.2391 C   0  0  0  0  0  0  0  0  0  0  0  0
    5.2293  -16.8628   21.4813 S   0  0  0  0  0  0  0  0  0  0  0  0
    7.9950  -16.9963   22.8203 C   0  0  0  0  0  0  0  0  0  0  0  0
    8.1569  -16.8516   21.5837 O   0  0  0  0  0  0  0  0  0  0  0  0
    4.4313  -12.0958   24.1308 O   0  0  0  0  0  0  0  0  0  0  0  0
    5.7464  -12.5935   24.1286 C   0  0  0  0  0  0  0  0  0  0  0  0
    6.5819  -12.4059   23.0462 C   0  0  0  0  0  0  0  0  0  0  0  0
    7.8522  -12.8995   23.0715 C   0  0  0  0  0  0  0  0  0  0  0  0
    8.3535  -13.5972   24.1601 C   0  0  0  0  0  0  0  0  0  0  0  0
    9.7358  -14.0904   24.0868 C   0  0  0  0  0  0  0  0  0  0  0  0
    9.8740  -15.3800   23.2944 C   0  0  2  0  0  0  0  0  0  0  0  0
    8.8216  -16.2911   23.7025 N   0  0  0  0  0  0  0  0  0  0  0  0
   11.2169  -15.9369   23.6572 C   0  0  0  0  0  0  0  0  0  0  0  0
   12.2582  -15.3592   23.2584 O   0  0  0  0  0  0  0  0  0  0  0  0
    7.5061  -13.7750   25.2316 C   0  0  0  0  0  0  0  0  0  0  0  0
    6.2196  -13.2817   25.2203 C   0  0  0  0  0  0  0  0  0  0  0  0
   11.3646  -17.0812   24.4265 O   0  0  0  0  0  0  0  0  0  0  0  0
  2  1  1  6
  3  2  1  0
  4  5  2  0
  4  3  1  0
  6  5  1  0
  7 12  2  0
  7  6  1  0
  8  7  1  0
  9 10  1  0
  9  8  2  0
 10 11  2  0
 11 12  1  0
 12  4  1  0
 13  2  1  0
 14 13  2  0
 15 13  1  0
 16 17  1  1
 16 15  1  0
 17 18  1  0
 19 16  1  0
 20 19  2  0
 22 23  2  0
 22 21  1  0
 24 23  1  0
 25 24  2  0
 27 26  1  1
 26 25  1  0
 27 28  1  0
 28 19  1  0
 29 27  1  0
 29 33  1  0
 30 29  2  0
 31 25  1  0
 31 32  2  0
 32 22  1  0
M  END
$$$$
