WCY.pdb
     RDKit          3D

 33 35  0  0  1  0  0  0  0  0999 V2000
    5.4668  -18.1775   24.0155 N   0  0  0  0  0  0  0  0  0  0  0  0
    6.3599  -17.0508   24.0967 C   0  0  1  0  0  0  0  0  0  0  0  0
    6.8441  -16.8485   25.4848 C   0  0  0  0  0  0  0  0  0  0  0  0
    6.2815  -15.6732   26.1762 C   0  0  0  0  0  0  0  0  0  0  0  0
    5.4271  -15.6955   27.2862 C   0  0  0  0  0  0  0  0  0  0  0  0
    5.1550  -14.4387   27.6458 N   0  0  0  0  0  0  0  0  0  0  0  0
    5.7776  -13.5707   26.8402 C   0  0  0  0  0  0  0  0  0  0  0  0
    5.8191  -12.2012   26.7813 C   0  0  0  0  0  0  0  0  0  0  0  0
    6.5502  -11.5193   25.8202 C   0  0  0  0  0  0  0  0  0  0  0  0
    7.2336  -12.3019   24.9259 C   0  0  0  0  0  0  0  0  0  0  0  0
    7.2231  -13.6741   24.9445 C   0  0  0  0  0  0  0  0  0  0  0  0
    6.4874  -14.3403   25.9135 C   0  0  0  0  0  0  0  0  0  0  0  0
    7.4578  -17.2925   23.1236 C   0  0  0  0  0  0  0  0  0  0  0  0
    7.4123  -18.2285   22.2718 O   0  0  0  0  0  0  0  0  0  0  0  0
    8.6357  -16.4915   23.0805 N   0  0  0  0  0  0  0  0  0  0  0  0
    9.1325  -15.8424   21.8827 C   0  0  1  0  0  0  0  0  0  0  0  0
    8.0316  -14.9275   21.3862 C   0  0  0  0  0  0  0  0  0  0  0  0
    8.6200  -14.2280   19.8043 S   0  0  0  0  0  0  0  0  0  0  0  0
   10.3678  -15.0624   22.1471 C   0  0  0  0  0  0  0  0  0  0  0  0
   10.2362  -13.8750   22.5334 O   0  0  0  0  0  0  0  0  0  0  0  0
    9.7376  -15.0117   28.8372 O   0  0  0  0  0  0  0  0  0  0  0  0
   10.2788  -15.4834   27.6281 C   0  0  0  0  0  0  0  0  0  0  0  0
    9.8621  -16.6767   27.0737 C   0  0  0  0  0  0  0  0  0  0  0  0
   10.4043  -17.1097   25.9004 C   0  0  0  0  0  0  0  0  0  0  0  0
   11.3771  -16.3890   25.2242 C   0  0  0  0  0  0  0  0  0  0  0  0
   11.8991  -16.9443   23.9678 C   0  0  0  0  0  0  0  0  0  0  0  0
   12.5576  -15.9037   23.0770 C   0  0  2  0  0  0  0  0  0  0  0  0
   11.6551  -15.5876   21.9862 N   0  0  0  0  0  0  0  0  0  0  0  0
   13.8044  -16.5489   22.5530 C   0  0  0  0  0  0  0  0  0  0  0  0
   14.8320  -16.5927   23.2735 O   0  0  0  0  0  0  0  0  0  0  0  0
   11.7810  -15.2005   25.7918 C   0  0  0  0  0  0  0  0  0  0  0  0
   11.2420  -14.7501   26.9772 C   0  0  0  0  0  0  0  0  0  0  0  0
   13.8762  -17.1096   21.2867 O   0  0  0  0  0  0  0  0  0  0  0  0
  2  1  1  1
  3  2  1  0
  4  5  2  0
  4  3  1  0
  6  5  1  0
  7 12  2  0
  7  6  1  0
  8  7  1  0
  9 10  1  0
  9  8  2  0
 10 11  2  0
 11 12  1  0
 12  4  1  0
 13  2  1  0
 14 13  2  0
 15 13  1  0
 16 17  1  1
 16 15  1  0
 17 18  1  0
 19 16  1  0
 20 19  2  0
 22 23  2  0
 22 21  1  0
 24 23  1  0
 25 24  2  0
 27 26  1  1
 26 25  1  0
 27 28  1  0
 28 19  1  0
 29 27  1  0
 29 33  1  0
 30 29  2  0
 31 25  1  0
 31 32  2  0
 32 22  1  0
M  END
$$$$
