WCY.pdb
     RDKit          3D

 33 35  0  0  1  0  0  0  0  0999 V2000
    6.7245  -18.7155   22.4766 N   0  0  0  0  0  0  0  0  0  0  0  0
    7.5806  -17.5579   22.5037 C   0  0  1  0  0  0  0  0  0  0  0  0
    6.7931  -16.3118   22.6753 C   0  0  0  0  0  0  0  0  0  0  0  0
    6.6895  -15.4689   21.4691 C   0  0  0  0  0  0  0  0  0  0  0  0
    5.8121  -15.6646   20.3947 C   0  0  0  0  0  0  0  0  0  0  0  0
    5.9922  -14.6833   19.5071 N   0  0  0  0  0  0  0  0  0  0  0  0
    6.9421  -13.8378   19.9228 C   0  0  0  0  0  0  0  0  0  0  0  0
    7.4928  -12.7012   19.3884 C   0  0  0  0  0  0  0  0  0  0  0  0
    8.4978  -11.9900   20.0265 C   0  0  0  0  0  0  0  0  0  0  0  0
    8.9109  -12.4949   21.2322 C   0  0  0  0  0  0  0  0  0  0  0  0
    8.3907  -13.6273   21.8072 C   0  0  0  0  0  0  0  0  0  0  0  0
    7.3851  -14.3261   21.1558 C   0  0  0  0  0  0  0  0  0  0  0  0
    8.5751  -17.7752   23.5873 C   0  0  0  0  0  0  0  0  0  0  0  0
    8.3244  -18.4910   24.6014 O   0  0  0  0  0  0  0  0  0  0  0  0
    9.8766  -17.1951   23.5625 N   0  0  0  0  0  0  0  0  0  0  0  0
   10.8869  -17.4244   24.5771 C   0  0  1  0  0  0  0  0  0  0  0  0
   12.2316  -17.1656   23.9289 C   0  0  0  0  0  0  0  0  0  0  0  0
   12.5177  -18.5490   22.7703 S   0  0  0  0  0  0  0  0  0  0  0  0
   10.7038  -16.5354   25.7520 C   0  0  0  0  0  0  0  0  0  0  0  0
   10.5471  -15.3085   25.5361 O   0  0  0  0  0  0  0  0  0  0  0  0
    6.8951  -11.9873   25.1530 O   0  0  0  0  0  0  0  0  0  0  0  0
    7.4601  -12.9564   26.0008 C   0  0  0  0  0  0  0  0  0  0  0  0
    8.4319  -12.6233   26.9225 C   0  0  0  0  0  0  0  0  0  0  0  0
    8.9622  -13.5835   27.7317 C   0  0  0  0  0  0  0  0  0  0  0  0
    8.5601  -14.9092   27.6688 C   0  0  0  0  0  0  0  0  0  0  0  0
    9.1959  -15.8675   28.5834 C   0  0  0  0  0  0  0  0  0  0  0  0
   10.6507  -16.1490   28.2451 C   0  0  2  0  0  0  0  0  0  0  0  0
   10.6985  -17.0007   27.0719 N   0  0  0  0  0  0  0  0  0  0  0  0
   11.2123  -16.8663   29.4348 C   0  0  0  0  0  0  0  0  0  0  0  0
   11.5244  -18.0790   29.3396 O   0  0  0  0  0  0  0  0  0  0  0  0
    7.5892  -15.2237   26.7434 C   0  0  0  0  0  0  0  0  0  0  0  0
    7.0440  -14.2639   25.9188 C   0  0  0  0  0  0  0  0  0  0  0  0
   11.4065  -16.2409   30.6571 O   0  0  0  0  0  0  0  0  0  0  0  0
  2  1  1  1
  3  2  1  0
  4  5  2  0
  4  3  1  0
  6  5  1  0
  7 12  2  0
  7  6  1  0
  8  7  1  0
  9 10  1  0
  9  8  2  0
 10 11  2  0
 11 12  1  0
 12  4  1  0
 13  2  1  0
 14 13  2  0
 15 13  1  0
 16 17  1  6
 16 15  1  0
 17 18  1  0
 19 16  1  0
 20 19  2  0
 22 23  2  0
 22 21  1  0
 24 23  1  0
 25 24  2  0
 27 26  1  1
 26 25  1  0
 27 28  1  0
 28 19  1  0
 29 27  1  0
 29 33  1  0
 30 29  2  0
 31 25  1  0
 31 32  2  0
 32 22  1  0
M  END
$$$$
