WCY.pdb
     RDKit          3D

 33 35  0  0  1  0  0  0  0  0999 V2000
    5.9940  -17.8944   24.5442 N   0  0  0  0  0  0  0  0  0  0  0  0
    6.8209  -17.0862   23.6858 C   0  0  1  0  0  0  0  0  0  0  0  0
    7.7180  -16.2075   24.4767 C   0  0  0  0  0  0  0  0  0  0  0  0
    7.0298  -15.2498   25.3628 C   0  0  0  0  0  0  0  0  0  0  0  0
    5.9588  -15.5360   26.2193 C   0  0  0  0  0  0  0  0  0  0  0  0
    5.6257  -14.4239   26.8792 N   0  0  0  0  0  0  0  0  0  0  0  0
    6.4117  -13.4043   26.5149 C   0  0  0  0  0  0  0  0  0  0  0  0
    6.4748  -12.0843   26.8815 C   0  0  0  0  0  0  0  0  0  0  0  0
    7.3984  -11.2042   26.3380 C   0  0  0  0  0  0  0  0  0  0  0  0
    8.2506  -11.7365   25.4054 C   0  0  0  0  0  0  0  0  0  0  0  0
    8.2264  -13.0495   25.0067 C   0  0  0  0  0  0  0  0  0  0  0  0
    7.2967  -13.9166   25.5613 C   0  0  0  0  0  0  0  0  0  0  0  0
    7.5555  -18.0146   22.7864 C   0  0  0  0  0  0  0  0  0  0  0  0
    7.1963  -19.2170   22.6166 O   0  0  0  0  0  0  0  0  0  0  0  0
    8.7125  -17.6192   22.0542 N   0  0  0  0  0  0  0  0  0  0  0  0
    8.9380  -17.9394   20.6579 C   0  0  1  0  0  0  0  0  0  0  0  0
    7.8068  -17.3093   19.8713 C   0  0  0  0  0  0  0  0  0  0  0  0
    8.0078  -17.8706   18.1442 S   0  0  0  0  0  0  0  0  0  0  0  0
   10.2456  -17.4270   20.1764 C   0  0  0  0  0  0  0  0  0  0  0  0
   10.3696  -17.2100   18.9460 O   0  0  0  0  0  0  0  0  0  0  0  0
    7.1473  -12.8828   18.0584 O   0  0  0  0  0  0  0  0  0  0  0  0
    8.0642  -13.3994   18.9909 C   0  0  0  0  0  0  0  0  0  0  0  0
    7.6553  -13.8225   20.2393 C   0  0  0  0  0  0  0  0  0  0  0  0
    8.5662  -14.3190   21.1234 C   0  0  0  0  0  0  0  0  0  0  0  0
    9.9151  -14.4201   20.8178 C   0  0  0  0  0  0  0  0  0  0  0  0
   10.8158  -14.9670   21.8420 C   0  0  0  0  0  0  0  0  0  0  0  0
   11.8995  -15.8677   21.2723 C   0  0  2  0  0  0  0  0  0  0  0  0
   11.3310  -17.1790   21.0244 N   0  0  0  0  0  0  0  0  0  0  0  0
   12.9574  -15.9484   22.3303 C   0  0  0  0  0  0  0  0  0  0  0  0
   13.6694  -14.9435   22.5760 O   0  0  0  0  0  0  0  0  0  0  0  0
   10.3055  -13.9934   19.5675 C   0  0  0  0  0  0  0  0  0  0  0  0
    9.3962  -13.4893   18.6634 C   0  0  0  0  0  0  0  0  0  0  0  0
   13.1900  -17.1025   23.0632 O   0  0  0  0  0  0  0  0  0  0  0  0
  2  1  1  1
  3  2  1  0
  4  5  2  0
  4  3  1  0
  6  5  1  0
  7 12  2  0
  7  6  1  0
  8  7  1  0
  9 10  1  0
  9  8  2  0
 10 11  2  0
 11 12  1  0
 12  4  1  0
 13  2  1  0
 14 13  2  0
 15 13  1  0
 16 17  1  6
 16 15  1  0
 17 18  1  0
 19 16  1  0
 20 19  2  0
 22 23  2  0
 22 21  1  0
 24 23  1  0
 25 24  2  0
 27 26  1  1
 26 25  1  0
 27 28  1  0
 28 19  1  0
 29 27  1  0
 29 33  1  0
 30 29  2  0
 31 25  1  0
 31 32  2  0
 32 22  1  0
M  END
$$$$
