WCY.pdb
     RDKit          3D

 33 35  0  0  1  0  0  0  0  0999 V2000
    6.4926  -18.4636   24.3292 N   0  0  0  0  0  0  0  0  0  0  0  0
    6.8719  -17.0993   24.0676 C   0  0  1  0  0  0  0  0  0  0  0  0
    7.4339  -16.4562   25.2812 C   0  0  0  0  0  0  0  0  0  0  0  0
    6.6724  -15.2960   25.7812 C   0  0  0  0  0  0  0  0  0  0  0  0
    5.4846  -15.3420   26.5225 C   0  0  0  0  0  0  0  0  0  0  0  0
    5.1115  -14.0939   26.8164 N   0  0  0  0  0  0  0  0  0  0  0  0
    5.9810  -13.2096   26.3143 C   0  0  0  0  0  0  0  0  0  0  0  0
    6.0484  -11.8399   26.3300 C   0  0  0  0  0  0  0  0  0  0  0  0
    7.0726  -11.1380   25.7124 C   0  0  0  0  0  0  0  0  0  0  0  0
    8.0203  -11.9007   25.0805 C   0  0  0  0  0  0  0  0  0  0  0  0
    7.9960  -13.2722   25.0378 C   0  0  0  0  0  0  0  0  0  0  0  0
    6.9648  -13.9587   25.6617 C   0  0  0  0  0  0  0  0  0  0  0  0
    7.8218  -17.1215   22.9240 C   0  0  0  0  0  0  0  0  0  0  0  0
    8.6211  -18.0840   22.7277 O   0  0  0  0  0  0  0  0  0  0  0  0
    7.9010  -16.0648   21.9711 N   0  0  0  0  0  0  0  0  0  0  0  0
    8.9133  -15.9792   20.9363 C   0  0  1  0  0  0  0  0  0  0  0  0
    8.4057  -14.9963   19.9011 C   0  0  0  0  0  0  0  0  0  0  0  0
    9.6348  -14.9944   18.5492 S   0  0  0  0  0  0  0  0  0  0  0  0
   10.2203  -15.5268   21.4762 C   0  0  0  0  0  0  0  0  0  0  0  0
   10.5890  -14.3572   21.2072 O   0  0  0  0  0  0  0  0  0  0  0  0
   11.1535  -15.4791   30.0222 O   0  0  0  0  0  0  0  0  0  0  0  0
   10.8969  -15.6419   28.6493 C   0  0  0  0  0  0  0  0  0  0  0  0
   11.1806  -16.8278   28.0029 C   0  0  0  0  0  0  0  0  0  0  0  0
   10.9215  -16.9576   26.6710 C   0  0  0  0  0  0  0  0  0  0  0  0
   10.3736  -15.9286   25.9199 C   0  0  0  0  0  0  0  0  0  0  0  0
   10.1351  -16.1689   24.4901 C   0  0  0  0  0  0  0  0  0  0  0  0
   11.3936  -16.0670   23.6440 C   0  0  2  0  0  0  0  0  0  0  0  0
   11.0473  -16.3379   22.2616 N   0  0  0  0  0  0  0  0  0  0  0  0
   12.3203  -17.1221   24.1668 C   0  0  0  0  0  0  0  0  0  0  0  0
   12.0869  -18.3316   23.9223 O   0  0  0  0  0  0  0  0  0  0  0  0
   10.0966  -14.7522   26.5812 C   0  0  0  0  0  0  0  0  0  0  0  0
   10.3532  -14.6064   27.9271 C   0  0  0  0  0  0  0  0  0  0  0  0
   13.4433  -16.8182   24.9213 O   0  0  0  0  0  0  0  0  0  0  0  0
  2  1  1  1
  3  2  1  0
  4  5  2  0
  4  3  1  0
  6  5  1  0
  7 12  2  0
  7  6  1  0
  8  7  1  0
  9 10  1  0
  9  8  2  0
 10 11  2  0
 11 12  1  0
 12  4  1  0
 13  2  1  0
 14 13  2  0
 15 13  1  0
 16 17  1  6
 16 15  1  0
 17 18  1  0
 19 16  1  0
 20 19  2  0
 22 23  2  0
 22 21  1  0
 24 23  1  0
 25 24  2  0
 27 26  1  1
 26 25  1  0
 27 28  1  0
 28 19  1  0
 29 27  1  0
 29 33  1  0
 30 29  2  0
 31 25  1  0
 31 32  2  0
 32 22  1  0
M  END
$$$$
