WRI.pdb
     RDKit          3D

 34 35  0  0  1  0  0  0  0  0999 V2000
   23.2731  -21.0369  -16.2030 N   0  0  0  0  0  0  0  0  0  0  0  0
   23.9665  -20.3373  -15.1535 C   0  0  1  0  0  0  0  0  0  0  0  0
   23.0070  -19.8994  -14.1023 C   0  0  0  0  0  0  0  0  0  0  0  0
   21.7610  -19.2920  -14.5845 C   0  0  0  0  0  0  0  0  0  0  0  0
   20.4740  -19.8250  -14.3923 C   0  0  0  0  0  0  0  0  0  0  0  0
   19.5881  -19.0083  -14.9279 N   0  0  0  0  0  0  0  0  0  0  0  0
   20.1697  -17.9322  -15.4866 C   0  0  0  0  0  0  0  0  0  0  0  0
   19.6738  -16.8378  -16.1535 C   0  0  0  0  0  0  0  0  0  0  0  0
   20.5482  -15.8907  -16.6237 C   0  0  0  0  0  0  0  0  0  0  0  0
   21.9127  -16.0380  -16.4278 C   0  0  0  0  0  0  0  0  0  0  0  0
   22.3769  -17.1485  -15.7540 C   0  0  0  0  0  0  0  0  0  0  0  0
   21.5431  -18.1167  -15.2672 C   0  0  0  0  0  0  0  0  0  0  0  0
   25.0238  -21.2477  -14.6001 C   0  0  0  0  0  0  0  0  0  0  0  0
   25.4147  -22.2498  -15.2950 O   0  0  0  0  0  0  0  0  0  0  0  0
   27.2640  -23.9470  -16.1663 N   0  0  0  0  0  0  0  0  0  0  0  0
   28.5100  -23.6354  -16.7701 C   0  0  0  0  0  0  0  0  0  0  0  0
   28.8511  -24.1600  -17.8961 N   0  0  0  0  0  0  0  0  0  0  0  0
   29.4458  -22.7343  -16.1732 N   0  0  0  0  0  0  0  0  0  0  0  0
   29.0724  -21.9881  -14.9956 C   0  0  0  0  0  0  0  0  0  0  0  0
   28.0067  -20.9600  -15.2817 C   0  0  0  0  0  0  0  0  0  0  0  0
   27.7782  -20.1697  -14.0031 C   0  0  0  0  0  0  0  0  0  0  0  0
   27.0318  -21.0460  -13.0591 C   0  0  2  0  0  0  0  0  0  0  0  0
   25.6290  -21.0628  -13.3271 N   0  0  0  0  0  0  0  0  0  0  0  0
   27.2917  -20.7627  -11.6217 C   0  0  0  0  0  0  0  0  0  0  0  0
   27.8460  -19.6820  -11.3197 O   0  0  0  0  0  0  0  0  0  0  0  0
   29.7607  -23.9191  -18.3127 C   0  0  0  0  0  0  0  0  0  0  0  0
   28.9455  -19.8201   -7.1970 C   0  0  0  0  0  0  0  0  0  0  0  0
   28.2709  -20.8576   -8.0520 C   0  0  2  0  0  0  0  0  0  0  0  0
   26.9151  -20.3962   -8.4544 C   0  0  0  0  0  0  0  0  0  0  0  0
   26.0699  -20.3379   -7.1723 C   0  0  2  0  0  0  0  0  0  0  0  0
   26.1766  -21.2735   -9.4047 N   0  0  0  0  0  0  0  0  0  0  0  0
   26.9522  -21.6372  -10.5737 C   0  0  0  0  0  0  0  0  0  0  0  0
   24.8153  -20.8275   -9.7531 O   0  0  0  0  0  0  0  0  0  0  0  0
   23.7012  -21.0899   -8.9493 O   0  0  0  0  0  0  0  0  0  0  0  0
  2  1  1  6
  3  2  1  0
  4  3  1  0
  5  4  2  0
  6  5  1  0
  7  6  1  0
  7 12  2  0
  8  7  1  0
  9  8  2  0
  9 10  1  0
 10 11  2  0
 11 12  1  0
 12  4  1  0
 13 14  2  0
 13  2  1  0
 16 17  2  0
 16 15  1  0
 18 16  1  0
 18 19  1  0
 19 20  1  0
 20 21  1  0
 22 21  1  6
 22 23  1  0
 22 24  1  0
 23 13  1  0
 24 31  1  0
 24 25  2  0
 27 26  1  0
 28 27  1  0
 28 29  1  6
 30 28  1  0
 30 31  1  1
 32 33  1  0
 32 30  1  0
 34 32  2  0
M  END
$$$$
