WRI.pdb
     RDKit          3D

 34 35  0  0  1  0  0  0  0  0999 V2000
   30.0983  -32.3559  -18.7802 N   0  0  0  0  0  0  0  0  0  0  0  0
   30.2784  -32.3183  -17.3527 C   0  0  1  0  0  0  0  0  0  0  0  0
   29.0021  -32.6511  -16.6616 C   0  0  0  0  0  0  0  0  0  0  0  0
   27.9186  -31.6722  -16.8096 C   0  0  0  0  0  0  0  0  0  0  0  0
   26.6840  -31.9205  -17.4354 C   0  0  0  0  0  0  0  0  0  0  0  0
   25.9409  -30.8337  -17.3623 N   0  0  0  0  0  0  0  0  0  0  0  0
   26.5743  -29.8335  -16.7244 C   0  0  0  0  0  0  0  0  0  0  0  0
   26.2180  -28.5424  -16.4167 C   0  0  0  0  0  0  0  0  0  0  0  0
   27.1125  -27.7451  -15.7483 C   0  0  0  0  0  0  0  0  0  0  0  0
   28.3579  -28.2371  -15.3895 C   0  0  0  0  0  0  0  0  0  0  0  0
   28.6833  -29.5378  -15.7135 C   0  0  0  0  0  0  0  0  0  0  0  0
   27.8240  -30.3686  -16.3776 C   0  0  0  0  0  0  0  0  0  0  0  0
   31.3754  -33.2768  -16.9915 C   0  0  0  0  0  0  0  0  0  0  0  0
   31.4356  -34.4119  -17.5811 O   0  0  0  0  0  0  0  0  0  0  0  0
   36.3040  -35.0519  -11.3378 N   0  0  0  0  0  0  0  0  0  0  0  0
   35.9959  -33.6672  -11.3806 C   0  0  0  0  0  0  0  0  0  0  0  0
   35.5048  -33.0648  -10.3532 N   0  0  0  0  0  0  0  0  0  0  0  0
   36.2094  -32.8712  -12.5489 N   0  0  0  0  0  0  0  0  0  0  0  0
   36.6495  -33.4967  -13.7728 C   0  0  0  0  0  0  0  0  0  0  0  0
   35.5329  -34.2236  -14.4794 C   0  0  0  0  0  0  0  0  0  0  0  0
   34.4368  -33.2099  -14.7671 C   0  0  0  0  0  0  0  0  0  0  0  0
   33.3916  -33.8941  -15.5768 C   0  0  2  0  0  0  0  0  0  0  0  0
   32.3705  -32.9970  -16.0156 N   0  0  0  0  0  0  0  0  0  0  0  0
   32.7975  -35.0932  -14.9262 C   0  0  0  0  0  0  0  0  0  0  0  0
   31.9878  -34.9204  -13.9877 O   0  0  0  0  0  0  0  0  0  0  0  0
   35.3500  -32.0480  -10.3878 C   0  0  0  0  0  0  0  0  0  0  0  0
   30.7967  -39.4296  -17.5013 C   0  0  0  0  0  0  0  0  0  0  0  0
   31.1069  -38.2747  -16.5890 C   0  0  2  0  0  0  0  0  0  0  0  0
   32.1411  -38.6639  -15.5930 C   0  0  0  0  0  0  0  0  0  0  0  0
   31.5312  -39.7863  -14.7388 C   0  0  2  0  0  0  0  0  0  0  0  0
   32.5731  -37.6010  -14.6434 N   0  0  0  0  0  0  0  0  0  0  0  0
   33.0895  -36.4171  -15.3008 C   0  0  0  0  0  0  0  0  0  0  0  0
   33.4400  -38.0507  -13.5391 O   0  0  0  0  0  0  0  0  0  0  0  0
   32.9482  -38.3708  -12.2695 O   0  0  0  0  0  0  0  0  0  0  0  0
  2  1  1  6
  3  2  1  0
  4  3  1  0
  5  4  2  0
  6  5  1  0
  7  6  1  0
  7 12  2  0
  8  7  1  0
  9  8  2  0
  9 10  1  0
 10 11  2  0
 11 12  1  0
 12  4  1  0
 13 14  2  0
 13  2  1  0
 16 17  2  0
 16 15  1  0
 18 16  1  0
 18 19  1  0
 19 20  1  0
 20 21  1  0
 22 21  1  1
 22 23  1  0
 22 24  1  0
 23 13  1  0
 24 31  1  0
 24 25  2  0
 27 26  1  0
 28 27  1  0
 28 29  1  6
 30 28  1  0
 30 31  1  1
 32 33  1  0
 32 30  1  0
 34 32  2  0
M  END
$$$$
