WRI.pdb
     RDKit          3D

 34 35  0  0  1  0  0  0  0  0999 V2000
   28.5146  -21.5900  -10.7360 N   0  0  0  0  0  0  0  0  0  0  0  0
   27.2767  -21.1916  -10.1191 C   0  0  1  0  0  0  0  0  0  0  0  0
   27.5080  -20.0600   -9.1793 C   0  0  0  0  0  0  0  0  0  0  0  0
   28.4502  -20.3185   -8.0841 C   0  0  0  0  0  0  0  0  0  0  0  0
   29.7471  -20.8396   -8.2388 C   0  0  0  0  0  0  0  0  0  0  0  0
   30.3229  -20.9131   -7.0548 N   0  0  0  0  0  0  0  0  0  0  0  0
   29.5129  -20.4769   -6.0740 C   0  0  0  0  0  0  0  0  0  0  0  0
   29.6619  -20.3699   -4.7120 C   0  0  0  0  0  0  0  0  0  0  0  0
   28.6206  -19.8819   -3.9636 C   0  0  0  0  0  0  0  0  0  0  0  0
   27.4355  -19.5028   -4.5749 C   0  0  0  0  0  0  0  0  0  0  0  0
   27.3195  -19.6229   -5.9442 C   0  0  0  0  0  0  0  0  0  0  0  0
   28.3305  -20.1027   -6.7298 C   0  0  0  0  0  0  0  0  0  0  0  0
   26.3064  -20.8265  -11.2045 C   0  0  0  0  0  0  0  0  0  0  0  0
   26.3984  -19.6804  -11.7684 O   0  0  0  0  0  0  0  0  0  0  0  0
   26.8053  -23.6152  -16.8679 N   0  0  0  0  0  0  0  0  0  0  0  0
   25.9596  -24.5047  -16.1554 C   0  0  0  0  0  0  0  0  0  0  0  0
   26.3168  -25.7216  -15.9293 N   0  0  0  0  0  0  0  0  0  0  0  0
   24.6807  -24.1085  -15.6540 N   0  0  0  0  0  0  0  0  0  0  0  0
   24.1018  -22.8552  -16.0748 C   0  0  0  0  0  0  0  0  0  0  0  0
   24.2477  -21.7765  -15.0310 C   0  0  0  0  0  0  0  0  0  0  0  0
   24.1529  -22.4429  -13.6677 C   0  0  0  0  0  0  0  0  0  0  0  0
   24.2827  -21.3780  -12.6356 C   0  0  2  0  0  0  0  0  0  0  0  0
   25.2711  -21.6912  -11.6533 N   0  0  0  0  0  0  0  0  0  0  0  0
   23.0002  -20.9890  -11.9894 C   0  0  0  0  0  0  0  0  0  0  0  0
   23.0436  -20.2564  -10.9757 O   0  0  0  0  0  0  0  0  0  0  0  0
   25.7212  -26.3246  -15.3458 C   0  0  0  0  0  0  0  0  0  0  0  0
   20.2258  -17.2141  -13.5262 C   0  0  0  0  0  0  0  0  0  0  0  0
   20.4147  -18.7052  -13.5852 C   0  0  2  0  0  0  0  0  0  0  0  0
   20.5268  -19.2684  -12.2130 C   0  0  0  0  0  0  0  0  0  0  0  0
   21.8980  -18.8373  -11.6693 C   0  0  1  0  0  0  0  0  0  0  0  0
   20.4802  -20.7530  -12.1052 N   0  0  0  0  0  0  0  0  0  0  0  0
   21.7338  -21.3946  -12.4476 C   0  0  0  0  0  0  0  0  0  0  0  0
   19.3251  -21.4005  -12.7533 O   0  0  0  0  0  0  0  0  0  0  0  0
   18.0078  -21.2095  -12.3238 O   0  0  0  0  0  0  0  0  0  0  0  0
  2  1  1  6
  3  2  1  0
  4  3  1  0
  5  4  2  0
  6  5  1  0
  7  6  1  0
  7 12  2  0
  8  7  1  0
  9  8  2  0
  9 10  1  0
 10 11  2  0
 11 12  1  0
 12  4  1  0
 13 14  2  0
 13  2  1  0
 16 17  2  0
 16 15  1  0
 18 16  1  0
 18 19  1  0
 19 20  1  0
 20 21  1  0
 22 21  1  6
 22 23  1  0
 22 24  1  0
 23 13  1  0
 24 31  1  0
 24 25  2  0
 27 26  1  0
 28 27  1  0
 28 29  1  1
 30 28  1  0
 30 31  1  6
 32 33  1  0
 32 30  1  0
 34 32  2  0
M  END
$$$$
