WRI.pdb
     RDKit          3D

 34 35  0  0  1  0  0  0  0  0999 V2000
   28.0547  -21.8051  -11.1390 N   0  0  0  0  0  0  0  0  0  0  0  0
   26.9481  -21.1697  -10.4730 C   0  0  1  0  0  0  0  0  0  0  0  0
   27.4271  -20.0206   -9.6559 C   0  0  0  0  0  0  0  0  0  0  0  0
   28.4796  -20.3233   -8.6788 C   0  0  0  0  0  0  0  0  0  0  0  0
   29.8041  -20.6713   -8.9982 C   0  0  0  0  0  0  0  0  0  0  0  0
   30.4824  -20.8447   -7.8808 N   0  0  0  0  0  0  0  0  0  0  0  0
   29.7190  -20.6413   -6.7926 C   0  0  0  0  0  0  0  0  0  0  0  0
   29.9712  -20.7090   -5.4434 C   0  0  0  0  0  0  0  0  0  0  0  0
   28.9536  -20.4479   -4.5608 C   0  0  0  0  0  0  0  0  0  0  0  0
   27.6893  -20.1207   -5.0259 C   0  0  0  0  0  0  0  0  0  0  0  0
   27.4704  -20.0613   -6.3865 C   0  0  0  0  0  0  0  0  0  0  0  0
   28.4540  -20.3125   -7.3025 C   0  0  0  0  0  0  0  0  0  0  0  0
   25.9566  -20.7394  -11.5144 C   0  0  0  0  0  0  0  0  0  0  0  0
   26.1714  -19.6662  -12.1792 O   0  0  0  0  0  0  0  0  0  0  0  0
   27.5803  -24.5549  -16.0233 N   0  0  0  0  0  0  0  0  0  0  0  0
   26.4184  -25.2623  -15.6188 C   0  0  0  0  0  0  0  0  0  0  0  0
   26.4715  -26.5175  -15.3337 N   0  0  0  0  0  0  0  0  0  0  0  0
   25.1396  -24.6329  -15.5054 N   0  0  0  0  0  0  0  0  0  0  0  0
   25.0105  -23.2187  -15.7631 C   0  0  0  0  0  0  0  0  0  0  0  0
   25.1614  -22.3913  -14.5112 C   0  0  0  0  0  0  0  0  0  0  0  0
   23.7852  -22.2647  -13.8776 C   0  0  0  0  0  0  0  0  0  0  0  0
   23.8526  -21.1725  -12.8683 C   0  0  2  0  0  0  0  0  0  0  0  0
   24.7703  -21.4635  -11.8133 N   0  0  0  0  0  0  0  0  0  0  0  0
   22.5321  -20.7595  -12.3209 C   0  0  0  0  0  0  0  0  0  0  0  0
   22.1794  -21.2171  -11.2108 O   0  0  0  0  0  0  0  0  0  0  0  0
   25.6152  -27.0075  -15.0411 C   0  0  0  0  0  0  0  0  0  0  0  0
   18.6081  -16.0493  -12.5667 C   0  0  0  0  0  0  0  0  0  0  0  0
   18.7692  -17.5048  -12.2234 C   0  0  2  0  0  0  0  0  0  0  0  0
   20.0835  -18.0088  -12.7048 C   0  0  0  0  0  0  0  0  0  0  0  0
   20.0955  -17.8236  -14.2303 C   0  0  2  0  0  0  0  0  0  0  0  0
   20.3677  -19.4491  -12.4544 N   0  0  0  0  0  0  0  0  0  0  0  0
   21.6490  -19.8820  -12.9754 C   0  0  0  0  0  0  0  0  0  0  0  0
   19.2791  -20.3806  -12.8016 O   0  0  0  0  0  0  0  0  0  0  0  0
   18.1079  -20.4956  -12.0457 O   0  0  0  0  0  0  0  0  0  0  0  0
  2  1  1  6
  3  2  1  0
  4  3  1  0
  5  4  2  0
  6  5  1  0
  7  6  1  0
  7 12  2  0
  8  7  1  0
  9  8  2  0
  9 10  1  0
 10 11  2  0
 11 12  1  0
 12  4  1  0
 13 14  2  0
 13  2  1  0
 16 17  2  0
 16 15  1  0
 18 16  1  0
 18 19  1  0
 19 20  1  0
 20 21  1  0
 22 21  1  6
 22 23  1  0
 22 24  1  0
 23 13  1  0
 24 31  1  0
 24 25  2  0
 27 26  1  0
 28 27  1  0
 28 29  1  1
 30 28  1  0
 30 31  1  6
 32 33  1  0
 32 30  1  0
 34 32  2  0
M  END
$$$$
