WRI.pdb
     RDKit          3D

 34 35  0  0  1  0  0  0  0  0999 V2000
   24.9783  -24.7975  -18.0050 N   0  0  0  0  0  0  0  0  0  0  0  0
   24.2605  -25.7255  -17.1712 C   0  0  1  0  0  0  0  0  0  0  0  0
   25.0499  -26.0394  -15.9483 C   0  0  0  0  0  0  0  0  0  0  0  0
   26.3928  -26.5863  -16.1748 C   0  0  0  0  0  0  0  0  0  0  0  0
   26.7157  -27.9548  -16.1973 C   0  0  0  0  0  0  0  0  0  0  0  0
   28.0019  -28.0869  -16.4558 N   0  0  0  0  0  0  0  0  0  0  0  0
   28.6072  -26.8969  -16.6166 C   0  0  0  0  0  0  0  0  0  0  0  0
   29.9046  -26.5328  -16.8865 C   0  0  0  0  0  0  0  0  0  0  0  0
   30.2167  -25.2003  -16.9841 C   0  0  0  0  0  0  0  0  0  0  0  0
   29.2354  -24.2363  -16.8122 C   0  0  0  0  0  0  0  0  0  0  0  0
   27.9430  -24.6362  -16.5427 C   0  0  0  0  0  0  0  0  0  0  0  0
   27.5858  -25.9518  -16.4376 C   0  0  0  0  0  0  0  0  0  0  0  0
   22.9274  -25.1228  -16.8360 C   0  0  0  0  0  0  0  0  0  0  0  0
   22.8810  -23.9539  -16.3149 O   0  0  0  0  0  0  0  0  0  0  0  0
   17.3833  -24.3823  -22.4295 N   0  0  0  0  0  0  0  0  0  0  0  0
   18.3504  -25.3550  -22.0651 C   0  0  0  0  0  0  0  0  0  0  0  0
   18.5785  -26.3771  -22.8152 N   0  0  0  0  0  0  0  0  0  0  0  0
   19.1171  -25.2589  -20.8622 N   0  0  0  0  0  0  0  0  0  0  0  0
   19.0584  -24.0552  -20.0681 C   0  0  0  0  0  0  0  0  0  0  0  0
   19.9844  -24.1066  -18.8788 C   0  0  0  0  0  0  0  0  0  0  0  0
   19.5120  -25.2379  -17.9795 C   0  0  0  0  0  0  0  0  0  0  0  0
   20.3924  -25.2569  -16.7792 C   0  0  2  0  0  0  0  0  0  0  0  0
   21.6893  -25.7827  -17.0650 N   0  0  0  0  0  0  0  0  0  0  0  0
   19.7990  -25.9304  -15.5926 C   0  0  0  0  0  0  0  0  0  0  0  0
   19.9661  -27.1640  -15.4639 O   0  0  0  0  0  0  0  0  0  0  0  0
   19.2699  -27.0793  -22.5186 C   0  0  0  0  0  0  0  0  0  0  0  0
   19.5512  -24.0003  -10.4214 C   0  0  0  0  0  0  0  0  0  0  0  0
   19.6961  -24.7818  -11.6984 C   0  0  2  0  0  0  0  0  0  0  0  0
   18.3583  -25.1280  -12.2491 C   0  0  0  0  0  0  0  0  0  0  0  0
   17.6579  -25.9979  -11.1935 C   0  0  2  0  0  0  0  0  0  0  0  0
   18.3508  -25.9147  -13.5137 N   0  0  0  0  0  0  0  0  0  0  0  0
   19.0573  -25.2653  -14.5997 C   0  0  0  0  0  0  0  0  0  0  0  0
   17.0349  -26.4311  -13.9321 O   0  0  0  0  0  0  0  0  0  0  0  0
   16.1206  -25.6718  -14.6696 O   0  0  0  0  0  0  0  0  0  0  0  0
  2  1  1  6
  3  2  1  0
  4  3  1  0
  5  4  2  0
  6  5  1  0
  7  6  1  0
  7 12  2  0
  8  7  1  0
  9  8  2  0
  9 10  1  0
 10 11  2  0
 11 12  1  0
 12  4  1  0
 13 14  2  0
 13  2  1  0
 16 17  2  0
 16 15  1  0
 18 16  1  0
 18 19  1  0
 19 20  1  0
 20 21  1  0
 22 21  1  6
 22 23  1  0
 22 24  1  0
 23 13  1  0
 24 31  1  0
 24 25  2  0
 27 26  1  0
 28 27  1  0
 28 29  1  6
 30 28  1  0
 30 31  1  1
 32 33  1  0
 32 30  1  0
 34 32  2  0
M  END
$$$$
