WRI.pdb
     RDKit          3D

 34 35  0  0  1  0  0  0  0  0999 V2000
   27.3323  -18.9476  -10.1779 N   0  0  0  0  0  0  0  0  0  0  0  0
   26.9042  -20.3216  -10.1551 C   0  0  1  0  0  0  0  0  0  0  0  0
   26.3473  -20.6675   -8.8181 C   0  0  0  0  0  0  0  0  0  0  0  0
   27.1306  -20.2179   -7.6614 C   0  0  0  0  0  0  0  0  0  0  0  0
   26.6515  -19.3856   -6.6341 C   0  0  0  0  0  0  0  0  0  0  0  0
   27.6089  -19.2092   -5.7447 N   0  0  0  0  0  0  0  0  0  0  0  0
   28.7340  -19.8648   -6.0804 C   0  0  0  0  0  0  0  0  0  0  0  0
   29.9684  -19.9751   -5.4866 C   0  0  0  0  0  0  0  0  0  0  0  0
   30.9370  -20.7309   -6.0974 C   0  0  0  0  0  0  0  0  0  0  0  0
   30.6720  -21.3733   -7.2970 C   0  0  0  0  0  0  0  0  0  0  0  0
   29.4222  -21.2418   -7.8657 C   0  0  0  0  0  0  0  0  0  0  0  0
   28.4265  -20.5003   -7.2928 C   0  0  0  0  0  0  0  0  0  0  0  0
   25.8948  -20.5181  -11.2484 C   0  0  0  0  0  0  0  0  0  0  0  0
   24.9600  -19.6563  -11.4009 O   0  0  0  0  0  0  0  0  0  0  0  0
   27.2506  -26.2531  -15.7331 N   0  0  0  0  0  0  0  0  0  0  0  0
   26.3702  -25.4697  -16.5238 C   0  0  0  0  0  0  0  0  0  0  0  0
   25.2908  -25.9747  -17.0130 N   0  0  0  0  0  0  0  0  0  0  0  0
   26.6255  -24.0943  -16.8192 N   0  0  0  0  0  0  0  0  0  0  0  0
   27.2939  -23.2635  -15.8466 C   0  0  0  0  0  0  0  0  0  0  0  0
   26.3823  -22.2104  -15.2682 C   0  0  0  0  0  0  0  0  0  0  0  0
   25.5459  -22.8735  -14.1855 C   0  0  0  0  0  0  0  0  0  0  0  0
   25.0593  -21.8027  -13.2730 C   0  0  2  0  0  0  0  0  0  0  0  0
   25.9125  -21.6238  -12.1417 N   0  0  0  0  0  0  0  0  0  0  0  0
   23.6420  -21.9559  -12.8468 C   0  0  0  0  0  0  0  0  0  0  0  0
   23.3971  -22.6532  -11.8368 O   0  0  0  0  0  0  0  0  0  0  0  0
   24.6708  -25.3869  -17.5867 C   0  0  0  0  0  0  0  0  0  0  0  0
   18.8732  -18.5859  -11.8216 C   0  0  0  0  0  0  0  0  0  0  0  0
   19.2514  -19.9933  -12.1940 C   0  0  2  0  0  0  0  0  0  0  0  0
   20.6681  -20.0476  -12.6444 C   0  0  0  0  0  0  0  0  0  0  0  0
   20.7694  -19.1557  -13.8917 C   0  0  2  0  0  0  0  0  0  0  0  0
   21.1807  -21.3877  -13.0438 N   0  0  0  0  0  0  0  0  0  0  0  0
   22.5526  -21.3635  -13.5105 C   0  0  0  0  0  0  0  0  0  0  0  0
   20.3001  -22.1642  -13.9354 O   0  0  0  0  0  0  0  0  0  0  0  0
   19.0525  -22.6524  -13.5338 O   0  0  0  0  0  0  0  0  0  0  0  0
  2  1  1  1
  3  2  1  0
  4  3  1  0
  5  4  2  0
  6  5  1  0
  7  6  1  0
  7 12  2  0
  8  7  1  0
  9  8  2  0
  9 10  1  0
 10 11  2  0
 11 12  1  0
 12  4  1  0
 13 14  2  0
 13  2  1  0
 16 17  2  0
 16 15  1  0
 18 16  1  0
 18 19  1  0
 19 20  1  0
 20 21  1  0
 22 21  1  1
 22 23  1  0
 22 24  1  0
 23 13  1  0
 24 31  1  0
 24 25  2  0
 27 26  1  0
 28 27  1  0
 28 29  1  1
 30 28  1  0
 30 31  1  6
 32 33  1  0
 32 30  1  0
 34 32  2  0
M  END
$$$$
