WRI.pdb
     RDKit          3D

 34 35  0  0  1  0  0  0  0  0999 V2000
   25.3404  -21.8864  -17.6210 N   0  0  0  0  0  0  0  0  0  0  0  0
   25.4948  -20.8049  -16.6839 C   0  0  1  0  0  0  0  0  0  0  0  0
   24.1692  -20.2102  -16.3576 C   0  0  0  0  0  0  0  0  0  0  0  0
   23.5704  -19.3678  -17.3996 C   0  0  0  0  0  0  0  0  0  0  0  0
   23.0611  -19.8352  -18.6242 C   0  0  0  0  0  0  0  0  0  0  0  0
   22.5740  -18.8148  -19.3025 N   0  0  0  0  0  0  0  0  0  0  0  0
   22.7082  -17.6561  -18.6333 C   0  0  0  0  0  0  0  0  0  0  0  0
   22.3672  -16.3577  -18.9272 C   0  0  0  0  0  0  0  0  0  0  0  0
   22.6523  -15.3711  -18.0174 C   0  0  0  0  0  0  0  0  0  0  0  0
   23.2762  -15.6819  -16.8190 C   0  0  0  0  0  0  0  0  0  0  0  0
   23.6046  -16.9954  -16.5555 C   0  0  0  0  0  0  0  0  0  0  0  0
   23.3390  -18.0112  -17.4314 C   0  0  0  0  0  0  0  0  0  0  0  0
   26.1844  -21.3365  -15.4614 C   0  0  0  0  0  0  0  0  0  0  0  0
   25.9320  -22.5286  -15.0676 O   0  0  0  0  0  0  0  0  0  0  0  0
   33.3350  -21.7972  -10.3838 N   0  0  0  0  0  0  0  0  0  0  0  0
   32.8916  -22.3223  -11.6254 C   0  0  0  0  0  0  0  0  0  0  0  0
   33.5364  -23.2700  -12.2132 N   0  0  0  0  0  0  0  0  0  0  0  0
   31.7204  -21.8377  -12.2871 N   0  0  0  0  0  0  0  0  0  0  0  0
   30.9005  -20.8344  -11.6516 C   0  0  0  0  0  0  0  0  0  0  0  0
   29.4267  -21.1060  -11.8210 C   0  0  0  0  0  0  0  0  0  0  0  0
   29.0515  -20.7238  -13.2440 C   0  0  0  0  0  0  0  0  0  0  0  0
   27.5803  -20.9020  -13.3853 C   0  0  2  0  0  0  0  0  0  0  0  0
   27.1181  -20.5833  -14.6986 N   0  0  0  0  0  0  0  0  0  0  0  0
   26.7739  -20.1933  -12.3550 C   0  0  0  0  0  0  0  0  0  0  0  0
   26.4571  -19.0009  -12.5648 O   0  0  0  0  0  0  0  0  0  0  0  0
   33.1920  -23.6366  -13.1110 C   0  0  0  0  0  0  0  0  0  0  0  0
   21.5615  -19.7346  -11.5308 C   0  0  0  0  0  0  0  0  0  0  0  0
   22.7153  -19.7806  -10.5670 C   0  0  2  0  0  0  0  0  0  0  0  0
   23.9363  -20.2941  -11.2440 C   0  0  0  0  0  0  0  0  0  0  0  0
   23.6188  -21.7267  -11.7004 C   0  0  2  0  0  0  0  0  0  0  0  0
   25.1650  -20.3826  -10.4070 N   0  0  0  0  0  0  0  0  0  0  0  0
   26.3420  -20.7815  -11.1526 C   0  0  0  0  0  0  0  0  0  0  0  0
   25.0211  -21.1324   -9.1458 O   0  0  0  0  0  0  0  0  0  0  0  0
   24.1207  -20.7632   -8.1412 O   0  0  0  0  0  0  0  0  0  0  0  0
  2  1  1  6
  3  2  1  0
  4  3  1  0
  5  4  2  0
  6  5  1  0
  7  6  1  0
  7 12  2  0
  8  7  1  0
  9  8  2  0
  9 10  1  0
 10 11  2  0
 11 12  1  0
 12  4  1  0
 13 14  2  0
 13  2  1  0
 16 17  2  0
 16 15  1  0
 18 16  1  0
 18 19  1  0
 19 20  1  0
 20 21  1  0
 22 21  1  6
 22 23  1  0
 22 24  1  0
 23 13  1  0
 24 31  1  0
 24 25  2  0
 27 26  1  0
 28 27  1  0
 28 29  1  6
 30 28  1  0
 30 31  1  1
 32 33  1  0
 32 30  1  0
 34 32  2  0
M  END
$$$$
