WRI.pdb
     RDKit          3D

 34 35  0  0  1  0  0  0  0  0999 V2000
   24.4604  -17.8036  -15.6581 N   0  0  0  0  0  0  0  0  0  0  0  0
   25.6157  -18.3603  -15.0047 C   0  0  1  0  0  0  0  0  0  0  0  0
   26.3793  -17.2908  -14.3045 C   0  0  0  0  0  0  0  0  0  0  0  0
   27.0282  -16.2965  -15.1672 C   0  0  0  0  0  0  0  0  0  0  0  0
   26.7441  -14.9192  -15.1696 C   0  0  0  0  0  0  0  0  0  0  0  0
   27.5304  -14.3216  -16.0434 N   0  0  0  0  0  0  0  0  0  0  0  0
   28.3513  -15.1913  -16.6582 C   0  0  0  0  0  0  0  0  0  0  0  0
   29.3182  -15.0468  -17.6240 C   0  0  0  0  0  0  0  0  0  0  0  0
   29.9940  -16.1574  -18.0624 C   0  0  0  0  0  0  0  0  0  0  0  0
   29.7037  -17.4072  -17.5373 C   0  0  0  0  0  0  0  0  0  0  0  0
   28.7275  -17.5168  -16.5689 C   0  0  0  0  0  0  0  0  0  0  0  0
   28.0294  -16.4381  -16.1012 C   0  0  0  0  0  0  0  0  0  0  0  0
   25.1514  -19.4271  -14.0564 C   0  0  0  0  0  0  0  0  0  0  0  0
   24.2045  -19.1665  -13.2345 O   0  0  0  0  0  0  0  0  0  0  0  0
   25.9889  -27.3534  -16.5185 N   0  0  0  0  0  0  0  0  0  0  0  0
   24.9430  -26.5145  -16.9836 C   0  0  0  0  0  0  0  0  0  0  0  0
   24.1812  -26.8808  -17.9557 N   0  0  0  0  0  0  0  0  0  0  0  0
   24.6771  -25.2326  -16.4090 N   0  0  0  0  0  0  0  0  0  0  0  0
   25.3908  -24.8143  -15.2264 C   0  0  0  0  0  0  0  0  0  0  0  0
   24.9608  -23.4497  -14.7493 C   0  0  0  0  0  0  0  0  0  0  0  0
   25.7990  -23.1067  -13.5280 C   0  0  0  0  0  0  0  0  0  0  0  0
   25.3879  -21.7528  -13.0653 C   0  0  2  0  0  0  0  0  0  0  0  0
   25.7093  -20.7339  -14.0131 N   0  0  0  0  0  0  0  0  0  0  0  0
   25.8844  -21.3896  -11.7104 C   0  0  0  0  0  0  0  0  0  0  0  0
   27.1005  -21.1278  -11.5735 O   0  0  0  0  0  0  0  0  0  0  0  0
   23.4165  -26.2635  -18.2608 C   0  0  0  0  0  0  0  0  0  0  0  0
   27.9430  -19.0656   -7.2871 C   0  0  0  0  0  0  0  0  0  0  0  0
   27.0715  -20.2730   -7.5001 C   0  0  2  0  0  0  0  0  0  0  0  0
   26.5204  -20.2774   -8.8818 C   0  0  0  0  0  0  0  0  0  0  0  0
   25.7643  -18.9515   -9.0599 C   0  0  2  0  0  0  0  0  0  0  0  0
   25.5490  -21.3608   -9.1993 N   0  0  0  0  0  0  0  0  0  0  0  0
   25.0693  -21.3213  -10.5663 C   0  0  0  0  0  0  0  0  0  0  0  0
   24.4547  -21.5369   -8.2273 O   0  0  0  0  0  0  0  0  0  0  0  0
   24.6778  -21.7630   -6.8652 O   0  0  0  0  0  0  0  0  0  0  0  0
  2  1  1  1
  3  2  1  0
  4  3  1  0
  5  4  2  0
  6  5  1  0
  7  6  1  0
  7 12  2  0
  8  7  1  0
  9  8  2  0
  9 10  1  0
 10 11  2  0
 11 12  1  0
 12  4  1  0
 13 14  2  0
 13  2  1  0
 16 17  2  0
 16 15  1  0
 18 16  1  0
 18 19  1  0
 19 20  1  0
 20 21  1  0
 22 21  1  6
 22 23  1  0
 22 24  1  0
 23 13  1  0
 24 31  1  0
 24 25  2  0
 27 26  1  0
 28 27  1  0
 28 29  1  6
 30 28  1  0
 30 31  1  1
 32 33  1  0
 32 30  1  0
 34 32  2  0
M  END
$$$$
