WRI.pdb
     RDKit          3D

 34 35  0  0  1  0  0  0  0  0999 V2000
   28.7663  -20.6492   -9.3299 N   0  0  0  0  0  0  0  0  0  0  0  0
   27.3396  -20.7396   -9.1626 C   0  0  1  0  0  0  0  0  0  0  0  0
   26.8577  -19.6700   -8.2455 C   0  0  0  0  0  0  0  0  0  0  0  0
   27.6897  -19.4160   -7.0635 C   0  0  0  0  0  0  0  0  0  0  0  0
   28.6547  -18.3988   -6.9570 C   0  0  0  0  0  0  0  0  0  0  0  0
   29.1893  -18.4404   -5.7523 N   0  0  0  0  0  0  0  0  0  0  0  0
   28.6620  -19.4240   -5.0020 C   0  0  0  0  0  0  0  0  0  0  0  0
   28.8960  -19.8525   -3.7175 C   0  0  0  0  0  0  0  0  0  0  0  0
   28.1821  -20.9176   -3.2293 C   0  0  0  0  0  0  0  0  0  0  0  0
   27.2384  -21.5515   -4.0228 C   0  0  0  0  0  0  0  0  0  0  0  0
   27.0283  -21.0957   -5.3077 C   0  0  0  0  0  0  0  0  0  0  0  0
   27.7151  -20.0378   -5.8356 C   0  0  0  0  0  0  0  0  0  0  0  0
   26.7002  -20.6437  -10.5171 C   0  0  0  0  0  0  0  0  0  0  0  0
   27.4157  -20.3126  -11.5262 O   0  0  0  0  0  0  0  0  0  0  0  0
   27.2561  -22.7225  -18.1026 N   0  0  0  0  0  0  0  0  0  0  0  0
   26.3096  -23.2208  -17.1699 C   0  0  0  0  0  0  0  0  0  0  0  0
   25.2844  -23.8955  -17.5613 N   0  0  0  0  0  0  0  0  0  0  0  0
   26.4365  -23.0067  -15.7620 N   0  0  0  0  0  0  0  0  0  0  0  0
   25.4150  -23.4950  -14.8670 C   0  0  0  0  0  0  0  0  0  0  0  0
   24.7259  -22.3806  -14.1201 C   0  0  0  0  0  0  0  0  0  0  0  0
   25.4008  -22.2529  -12.7637 C   0  0  0  0  0  0  0  0  0  0  0  0
   24.7213  -21.1541  -12.0241 C   0  0  2  0  0  0  0  0  0  0  0  0
   25.3223  -20.9019  -10.7532 N   0  0  0  0  0  0  0  0  0  0  0  0
   23.2493  -21.3236  -11.8881 C   0  0  0  0  0  0  0  0  0  0  0  0
   22.8219  -22.1973  -11.1005 O   0  0  0  0  0  0  0  0  0  0  0  0
   24.6044  -24.2331  -16.8666 C   0  0  0  0  0  0  0  0  0  0  0  0
   19.8289  -17.0891  -13.7329 C   0  0  0  0  0  0  0  0  0  0  0  0
   20.5123  -18.4289  -13.7133 C   0  0  2  0  0  0  0  0  0  0  0  0
   20.3614  -19.0686  -12.3787 C   0  0  0  0  0  0  0  0  0  0  0  0
   21.1480  -18.2024  -11.3824 C   0  0  1  0  0  0  0  0  0  0  0  0
   20.8978  -20.4517  -12.2475 N   0  0  0  0  0  0  0  0  0  0  0  0
   22.3012  -20.5599  -12.5924 C   0  0  0  0  0  0  0  0  0  0  0  0
   20.0846  -21.5099  -12.8740 O   0  0  0  0  0  0  0  0  0  0  0  0
   20.5781  -22.3564  -13.8719 O   0  0  0  0  0  0  0  0  0  0  0  0
  2  1  1  6
  3  2  1  0
  4  3  1  0
  5  4  2  0
  6  5  1  0
  7  6  1  0
  7 12  2  0
  8  7  1  0
  9  8  2  0
  9 10  1  0
 10 11  2  0
 11 12  1  0
 12  4  1  0
 13 14  2  0
 13  2  1  0
 16 17  2  0
 16 15  1  0
 18 16  1  0
 18 19  1  0
 19 20  1  0
 20 21  1  0
 22 21  1  1
 22 23  1  0
 22 24  1  0
 23 13  1  0
 24 31  1  0
 24 25  2  0
 27 26  1  0
 28 27  1  0
 28 29  1  1
 30 28  1  0
 30 31  1  6
 32 33  1  0
 32 30  1  0
 34 32  2  0
M  END
$$$$
