WRI.pdb
     RDKit          3D

 34 35  0  0  1  0  0  0  0  0999 V2000
   25.7161  -18.6695   -8.7476 N   0  0  0  0  0  0  0  0  0  0  0  0
   26.4749  -19.8293   -9.1360 C   0  0  1  0  0  0  0  0  0  0  0  0
   26.2586  -20.9376   -8.1654 C   0  0  0  0  0  0  0  0  0  0  0  0
   26.6402  -20.6570   -6.7763 C   0  0  0  0  0  0  0  0  0  0  0  0
   25.7475  -20.3109   -5.7463 C   0  0  0  0  0  0  0  0  0  0  0  0
   26.4253  -20.1599   -4.6253 N   0  0  0  0  0  0  0  0  0  0  0  0
   27.7408  -20.3772   -4.8001 C   0  0  0  0  0  0  0  0  0  0  0  0
   28.8201  -20.3334   -3.9505 C   0  0  0  0  0  0  0  0  0  0  0  0
   30.0705  -20.6037   -4.4465 C   0  0  0  0  0  0  0  0  0  0  0  0
   30.2405  -20.9161   -5.7864 C   0  0  0  0  0  0  0  0  0  0  0  0
   29.1357  -20.9517   -6.6116 C   0  0  0  0  0  0  0  0  0  0  0  0
   27.8713  -20.6906   -6.1614 C   0  0  0  0  0  0  0  0  0  0  0  0
   26.0635  -20.2165  -10.5265 C   0  0  0  0  0  0  0  0  0  0  0  0
   24.8288  -20.1435  -10.8584 O   0  0  0  0  0  0  0  0  0  0  0  0
   27.6336  -20.1055  -18.3006 N   0  0  0  0  0  0  0  0  0  0  0  0
   28.7570  -19.4083  -17.7849 C   0  0  0  0  0  0  0  0  0  0  0  0
   29.1719  -18.3197  -18.3346 N   0  0  0  0  0  0  0  0  0  0  0  0
   29.4834  -19.8662  -16.6417 N   0  0  0  0  0  0  0  0  0  0  0  0
   29.0226  -21.0253  -15.9157 C   0  0  0  0  0  0  0  0  0  0  0  0
   27.7436  -20.7592  -15.1619 C   0  0  0  0  0  0  0  0  0  0  0  0
   28.0530  -20.8807  -13.6783 C   0  0  0  0  0  0  0  0  0  0  0  0
   26.8073  -20.5568  -12.9304 C   0  0  2  0  0  0  0  0  0  0  0  0
   26.9777  -20.6689  -11.5167 N   0  0  0  0  0  0  0  0  0  0  0  0
   25.6069  -21.3126  -13.3794 C   0  0  0  0  0  0  0  0  0  0  0  0
   25.6086  -22.5581  -13.2569 O   0  0  0  0  0  0  0  0  0  0  0  0
   29.9912  -17.8348  -17.9440 C   0  0  0  0  0  0  0  0  0  0  0  0
   19.6948  -21.3976  -12.9859 C   0  0  0  0  0  0  0  0  0  0  0  0
   20.8030  -21.7683  -13.9330 C   0  0  2  0  0  0  0  0  0  0  0  0
   22.0720  -21.1038  -13.5319 C   0  0  0  0  0  0  0  0  0  0  0  0
   21.8417  -19.5909  -13.6720 C   0  0  2  0  0  0  0  0  0  0  0  0
   23.2712  -21.4241  -14.3549 N   0  0  0  0  0  0  0  0  0  0  0  0
   24.4630  -20.7133  -13.9365 C   0  0  0  0  0  0  0  0  0  0  0  0
   23.0718  -21.3711  -15.8146 O   0  0  0  0  0  0  0  0  0  0  0  0
   23.7772  -20.4954  -16.6463 O   0  0  0  0  0  0  0  0  0  0  0  0
  2  1  1  1
  3  2  1  0
  4  3  1  0
  5  4  2  0
  6  5  1  0
  7  6  1  0
  7 12  2  0
  8  7  1  0
  9  8  2  0
  9 10  1  0
 10 11  2  0
 11 12  1  0
 12  4  1  0
 13 14  2  0
 13  2  1  0
 16 17  2  0
 16 15  1  0
 18 16  1  0
 18 19  1  0
 19 20  1  0
 20 21  1  0
 22 21  1  6
 22 23  1  0
 22 24  1  0
 23 13  1  0
 24 31  1  0
 24 25  2  0
 27 26  1  0
 28 27  1  0
 28 29  1  1
 30 28  1  0
 30 31  1  6
 32 33  1  0
 32 30  1  0
 34 32  2  0
M  END
$$$$
