WRI.pdb
     RDKit          3D

 34 35  0  0  1  0  0  0  0  0999 V2000
   28.0593  -19.4786  -10.1654 N   0  0  0  0  0  0  0  0  0  0  0  0
   27.0962  -20.4726   -9.7703 C   0  0  1  0  0  0  0  0  0  0  0  0
   26.3801  -20.0381   -8.5392 C   0  0  0  0  0  0  0  0  0  0  0  0
   27.2166  -19.4587   -7.4816 C   0  0  0  0  0  0  0  0  0  0  0  0
   27.4965  -18.0888   -7.3309 C   0  0  0  0  0  0  0  0  0  0  0  0
   28.2511  -17.9212   -6.2626 N   0  0  0  0  0  0  0  0  0  0  0  0
   28.5217  -19.0874   -5.6502 C   0  0  0  0  0  0  0  0  0  0  0  0
   29.2538  -19.4132   -4.5337 C   0  0  0  0  0  0  0  0  0  0  0  0
   29.3504  -20.7300   -4.1606 C   0  0  0  0  0  0  0  0  0  0  0  0
   28.7177  -21.7165   -4.9012 C   0  0  0  0  0  0  0  0  0  0  0  0
   27.9907  -21.3548   -6.0163 C   0  0  0  0  0  0  0  0  0  0  0  0
   27.8660  -20.0560   -6.4249 C   0  0  0  0  0  0  0  0  0  0  0  0
   26.1525  -20.6948  -10.9161 C   0  0  0  0  0  0  0  0  0  0  0  0
   25.6774  -19.6839  -11.5423 O   0  0  0  0  0  0  0  0  0  0  0  0
   21.8496  -24.9387  -16.3990 N   0  0  0  0  0  0  0  0  0  0  0  0
   23.1798  -25.2456  -16.7871 C   0  0  0  0  0  0  0  0  0  0  0  0
   23.4977  -25.3636  -18.0299 N   0  0  0  0  0  0  0  0  0  0  0  0
   24.2295  -25.4389  -15.8359 N   0  0  0  0  0  0  0  0  0  0  0  0
   23.9539  -25.3035  -14.4257 C   0  0  0  0  0  0  0  0  0  0  0  0
   23.8939  -23.8614  -13.9885 C   0  0  0  0  0  0  0  0  0  0  0  0
   24.9352  -23.6702  -12.8973 C   0  0  0  0  0  0  0  0  0  0  0  0
   24.8501  -22.2575  -12.4358 C   0  0  2  0  0  0  0  0  0  0  0  0
   25.7451  -21.9835  -11.3570 N   0  0  0  0  0  0  0  0  0  0  0  0
   23.4725  -21.8000  -12.1086 C   0  0  0  0  0  0  0  0  0  0  0  0
   23.0647  -21.9356  -10.9332 O   0  0  0  0  0  0  0  0  0  0  0  0
   24.4737  -25.5653  -18.2865 C   0  0  0  0  0  0  0  0  0  0  0  0
   20.2271  -16.9259  -12.8015 C   0  0  0  0  0  0  0  0  0  0  0  0
   20.0895  -18.3980  -12.5250 C   0  0  2  0  0  0  0  0  0  0  0  0
   21.3409  -19.1137  -12.8920 C   0  0  0  0  0  0  0  0  0  0  0  0
   21.5726  -18.8584  -14.3895 C   0  0  2  0  0  0  0  0  0  0  0  0
   21.3293  -20.5924  -12.7150 N   0  0  0  0  0  0  0  0  0  0  0  0
   22.5936  -21.2212  -13.0416 C   0  0  0  0  0  0  0  0  0  0  0  0
   20.1826  -21.2950  -13.3190 O   0  0  0  0  0  0  0  0  0  0  0  0
   18.8978  -21.2661  -12.7671 O   0  0  0  0  0  0  0  0  0  0  0  0
  2  1  1  6
  3  2  1  0
  4  3  1  0
  5  4  2  0
  6  5  1  0
  7  6  1  0
  7 12  2  0
  8  7  1  0
  9  8  2  0
  9 10  1  0
 10 11  2  0
 11 12  1  0
 12  4  1  0
 13 14  2  0
 13  2  1  0
 16 17  2  0
 16 15  1  0
 18 16  1  0
 18 19  1  0
 19 20  1  0
 20 21  1  0
 22 21  1  1
 22 23  1  0
 22 24  1  0
 23 13  1  0
 24 31  1  0
 24 25  2  0
 27 26  1  0
 28 27  1  0
 28 29  1  1
 30 28  1  0
 30 31  1  6
 32 33  1  0
 32 30  1  0
 34 32  2  0
M  END
$$$$
