FYV.pdb
     RDKit          3D

 31 32  0  0  1  0  0  0  0  0999 V2000
    6.6680  -18.3396   19.8468 N   0  0  0  0  0  0  0  0  0  0  0  0
    7.0217  -17.0481   20.3721 C   0  0  1  0  0  0  0  0  0  0  0  0
    6.1447  -15.9495   19.7992 C   0  0  0  0  0  0  0  0  0  0  0  0
    6.8191  -14.6321   19.9446 C   0  0  0  0  0  0  0  0  0  0  0  0
    6.5208  -13.8039   21.0273 C   0  0  0  0  0  0  0  0  0  0  0  0
    7.1405  -12.5888   21.1642 C   0  0  0  0  0  0  0  0  0  0  0  0
    8.0687  -12.1460   20.2496 C   0  0  0  0  0  0  0  0  0  0  0  0
    8.3817  -12.9316   19.1812 C   0  0  0  0  0  0  0  0  0  0  0  0
    7.7528  -14.1510   19.0534 C   0  0  0  0  0  0  0  0  0  0  0  0
    6.9649  -17.0040   21.8397 C   0  0  0  0  0  0  0  0  0  0  0  0
    5.9595  -16.5456   22.4141 O   0  0  0  0  0  0  0  0  0  0  0  0
    8.4036  -18.6845   30.2853 O   0  0  0  0  0  0  0  0  0  0  0  0
    8.5147  -18.6322   28.8876 C   0  0  0  0  0  0  0  0  0  0  0  0
    7.4519  -18.9382   28.0683 C   0  0  0  0  0  0  0  0  0  0  0  0
    7.5786  -18.8817   26.7034 C   0  0  0  0  0  0  0  0  0  0  0  0
    8.7646  -18.5191   26.0786 C   0  0  0  0  0  0  0  0  0  0  0  0
    8.8379  -18.4769   24.5963 C   0  0  0  0  0  0  0  0  0  0  0  0
    8.0506  -17.3009   24.0283 C   0  0  2  0  0  0  0  0  0  0  0  0
    8.0540  -17.4849   22.5980 N   0  0  0  0  0  0  0  0  0  0  0  0
    8.5801  -16.0130   24.4828 C   0  0  0  0  0  0  0  0  0  0  0  0
    9.6765  -15.5401   24.0950 O   0  0  0  0  0  0  0  0  0  0  0  0
    9.8293  -18.2125   26.8946 C   0  0  0  0  0  0  0  0  0  0  0  0
    9.7009  -18.2699   28.2860 C   0  0  0  0  0  0  0  0  0  0  0  0
    7.3380  -11.9186   26.9202 C   0  0  0  0  0  0  0  0  0  0  0  0
    6.9458  -13.2357   26.3268 C   0  0  1  0  0  0  0  0  0  0  0  0
    6.0116  -12.9967   25.1730 C   0  0  0  0  0  0  0  0  0  0  0  0
    8.2282  -13.9447   25.8762 C   0  0  2  0  0  0  0  0  0  0  0  0
    7.8259  -15.2485   25.4075 N   0  0  0  0  0  0  0  0  0  0  0  0
    9.0349  -14.1154   27.1067 C   0  0  0  0  0  0  0  0  0  0  0  0
    9.9753  -13.1739   27.4857 O   0  0  0  0  0  0  0  0  0  0  0  0
    8.8986  -15.1270   27.8607 O   0  0  0  0  0  0  0  0  0  0  0  0
  2  1  1  6
  2  3  1  0
  2 10  1  0
  3  4  1  0
  4  9  1  0
  4  5  2  0
  5  6  1  0
  6  7  2  0
  8  7  1  0
  9  8  2  0
 10 11  2  0
 13 12  1  0
 13 14  2  0
 15 14  1  0
 16 15  2  0
 17 16  1  0
 18 17  1  1
 19 18  1  0
 19 10  1  0
 20 28  1  0
 20 18  1  0
 21 20  2  0
 22 23  2  0
 22 16  1  0
 23 13  1  0
 25 24  1  6
 26 25  1  0
 27 28  1  1
 27 25  1  0
 29 27  1  0
 30 29  1  0
 31 29  2  0
M  END
$$$$
