FYV.pdb
     RDKit          3D

 31 32  0  0  1  0  0  0  0  0999 V2000
    5.8166  -17.6491   20.2320 N   0  0  0  0  0  0  0  0  0  0  0  0
    6.4896  -16.6291   20.9908 C   0  0  1  0  0  0  0  0  0  0  0  0
    5.8842  -15.2582   20.7495 C   0  0  0  0  0  0  0  0  0  0  0  0
    6.8791  -14.3713   20.0898 C   0  0  0  0  0  0  0  0  0  0  0  0
    7.9128  -13.7983   20.8315 C   0  0  0  0  0  0  0  0  0  0  0  0
    8.8315  -12.9802   20.2266 C   0  0  0  0  0  0  0  0  0  0  0  0
    8.7689  -12.6972   18.8812 C   0  0  0  0  0  0  0  0  0  0  0  0
    7.7713  -13.2413   18.1294 C   0  0  0  0  0  0  0  0  0  0  0  0
    6.8534  -14.0622   18.7477 C   0  0  0  0  0  0  0  0  0  0  0  0
    6.4963  -16.9141   22.4323 C   0  0  0  0  0  0  0  0  0  0  0  0
    5.4669  -16.7375   23.1104 O   0  0  0  0  0  0  0  0  0  0  0  0
    9.1161  -18.9477   30.5505 O   0  0  0  0  0  0  0  0  0  0  0  0
    9.0050  -18.8443   29.1556 C   0  0  0  0  0  0  0  0  0  0  0  0
    7.8158  -19.0890   28.5073 C   0  0  0  0  0  0  0  0  0  0  0  0
    7.7255  -18.9832   27.1425 C   0  0  0  0  0  0  0  0  0  0  0  0
    8.8084  -18.6294   26.3483 C   0  0  0  0  0  0  0  0  0  0  0  0
    8.6463  -18.5319   24.8757 C   0  0  0  0  0  0  0  0  0  0  0  0
    7.7910  -17.3319   24.4830 C   0  0  2  0  0  0  0  0  0  0  0  0
    7.6743  -17.3906   23.0469 N   0  0  0  0  0  0  0  0  0  0  0  0
    8.3337  -16.0750   25.0040 C   0  0  0  0  0  0  0  0  0  0  0  0
    9.3953  -15.5530   24.5838 O   0  0  0  0  0  0  0  0  0  0  0  0
    9.9990  -18.3841   26.9931 C   0  0  0  0  0  0  0  0  0  0  0  0
   10.0918  -18.4918   28.3843 C   0  0  0  0  0  0  0  0  0  0  0  0
    7.3486  -12.2903   27.9990 C   0  0  0  0  0  0  0  0  0  0  0  0
    6.8766  -13.4864   27.2327 C   0  0  1  0  0  0  0  0  0  0  0  0
    5.9441  -13.0355   26.1426 C   0  0  0  0  0  0  0  0  0  0  0  0
    8.1120  -14.1918   26.6616 C   0  0  2  0  0  0  0  0  0  0  0  0
    7.6342  -15.4006   26.0355 N   0  0  0  0  0  0  0  0  0  0  0  0
    8.9304  -14.5637   27.8388 C   0  0  0  0  0  0  0  0  0  0  0  0
    9.8693  -13.6941   28.3649 O   0  0  0  0  0  0  0  0  0  0  0  0
    8.8060  -15.6895   28.4111 O   0  0  0  0  0  0  0  0  0  0  0  0
  2  1  1  6
  2  3  1  0
  2 10  1  0
  3  4  1  0
  4  9  1  0
  4  5  2  0
  5  6  1  0
  6  7  2  0
  8  7  1  0
  9  8  2  0
 10 11  2  0
 13 12  1  0
 13 14  2  0
 15 14  1  0
 16 15  2  0
 17 16  1  0
 18 17  1  6
 19 18  1  0
 19 10  1  0
 20 28  1  0
 20 18  1  0
 21 20  2  0
 22 23  2  0
 22 16  1  0
 23 13  1  0
 25 24  1  6
 26 25  1  0
 27 28  1  1
 27 25  1  0
 29 27  1  0
 30 29  1  0
 31 29  2  0
M  END
$$$$
