FYV.pdb
     RDKit          3D

 31 32  0  0  1  0  0  0  0  0999 V2000
    4.8856  -16.6550   25.3406 N   0  0  0  0  0  0  0  0  0  0  0  0
    6.1421  -15.9846   25.1384 C   0  0  1  0  0  0  0  0  0  0  0  0
    6.6500  -15.3456   26.4181 C   0  0  0  0  0  0  0  0  0  0  0  0
    6.3997  -13.8799   26.3894 C   0  0  0  0  0  0  0  0  0  0  0  0
    7.4525  -12.9898   26.1737 C   0  0  0  0  0  0  0  0  0  0  0  0
    7.2253  -11.6381   26.1467 C   0  0  0  0  0  0  0  0  0  0  0  0
    5.9654  -11.1153   26.3292 C   0  0  0  0  0  0  0  0  0  0  0  0
    4.9163  -11.9583   26.5421 C   0  0  0  0  0  0  0  0  0  0  0  0
    5.1560  -13.3151   26.5672 C   0  0  0  0  0  0  0  0  0  0  0  0
    7.1741  -16.8780   24.5946 C   0  0  0  0  0  0  0  0  0  0  0  0
    7.2787  -18.0446   25.0176 O   0  0  0  0  0  0  0  0  0  0  0  0
    8.3160  -11.7975   19.8694 O   0  0  0  0  0  0  0  0  0  0  0  0
    8.5828  -13.0945   20.3336 C   0  0  0  0  0  0  0  0  0  0  0  0
    7.5812  -14.0265   20.4833 C   0  0  0  0  0  0  0  0  0  0  0  0
    7.8605  -15.2902   20.9385 C   0  0  0  0  0  0  0  0  0  0  0  0
    9.1465  -15.6969   21.2692 C   0  0  0  0  0  0  0  0  0  0  0  0
    9.3839  -17.0791   21.7566 C   0  0  0  0  0  0  0  0  0  0  0  0
    9.2271  -17.1754   23.2705 C   0  0  2  0  0  0  0  0  0  0  0  0
    8.0471  -16.4101   23.5890 N   0  0  0  0  0  0  0  0  0  0  0  0
   10.4398  -16.7565   23.9773 C   0  0  0  0  0  0  0  0  0  0  0  0
   11.4559  -16.3008   23.3975 O   0  0  0  0  0  0  0  0  0  0  0  0
   10.1504  -14.7675   21.1207 C   0  0  0  0  0  0  0  0  0  0  0  0
    9.8665  -13.4792   20.6568 C   0  0  0  0  0  0  0  0  0  0  0  0
   11.3056  -14.4678   28.0636 C   0  0  0  0  0  0  0  0  0  0  0  0
   10.4597  -15.1283   27.0201 C   0  0  1  0  0  0  0  0  0  0  0  0
    9.8499  -14.0722   26.1404 C   0  0  0  0  0  0  0  0  0  0  0  0
   11.3609  -16.0763   26.2205 C   0  0  2  0  0  0  0  0  0  0  0  0
   10.4830  -16.8639   25.3896 N   0  0  0  0  0  0  0  0  0  0  0  0
   11.9820  -16.9684   27.2266 C   0  0  0  0  0  0  0  0  0  0  0  0
   13.1186  -16.5895   27.9188 O   0  0  0  0  0  0  0  0  0  0  0  0
   11.5009  -18.1118   27.4943 O   0  0  0  0  0  0  0  0  0  0  0  0
  2  1  1  1
  2  3  1  0
  2 10  1  0
  3  4  1  0
  4  9  1  0
  4  5  2  0
  5  6  1  0
  6  7  2  0
  8  7  1  0
  9  8  2  0
 10 11  2  0
 13 12  1  0
 13 14  2  0
 15 14  1  0
 16 15  2  0
 17 16  1  0
 18 17  1  6
 19 18  1  0
 19 10  1  0
 20 28  1  0
 20 18  1  0
 21 20  2  0
 22 23  2  0
 22 16  1  0
 23 13  1  0
 25 24  1  1
 26 25  1  0
 27 28  1  6
 27 25  1  0
 29 27  1  0
 30 29  1  0
 31 29  2  0
M  END
$$$$
