FYV.pdb
     RDKit          3D

 31 32  0  0  1  0  0  0  0  0999 V2000
    8.1452  -17.5626   19.9560 N   0  0  0  0  0  0  0  0  0  0  0  0
    9.4414  -16.9838   20.1879 C   0  0  1  0  0  0  0  0  0  0  0  0
    9.7807  -15.9315   19.1479 C   0  0  0  0  0  0  0  0  0  0  0  0
    8.8483  -14.7791   19.2668 C   0  0  0  0  0  0  0  0  0  0  0  0
    7.5016  -14.9253   18.9319 C   0  0  0  0  0  0  0  0  0  0  0  0
    6.6394  -13.8650   19.0403 C   0  0  0  0  0  0  0  0  0  0  0  0
    7.0653  -12.6317   19.4782 C   0  0  0  0  0  0  0  0  0  0  0  0
    8.3744  -12.4568   19.8130 C   0  0  0  0  0  0  0  0  0  0  0  0
    9.2322  -13.5292   19.7003 C   0  0  0  0  0  0  0  0  0  0  0  0
    9.5641  -16.4013   21.5313 C   0  0  0  0  0  0  0  0  0  0  0  0
   10.6784  -16.0497   21.9621 O   0  0  0  0  0  0  0  0  0  0  0  0
    7.5017  -12.2393   28.9677 O   0  0  0  0  0  0  0  0  0  0  0  0
    7.4645  -12.8599   27.7098 C   0  0  0  0  0  0  0  0  0  0  0  0
    8.3442  -12.5142   26.7093 C   0  0  0  0  0  0  0  0  0  0  0  0
    8.2932  -13.1316   25.4853 C   0  0  0  0  0  0  0  0  0  0  0  0
    7.3681  -14.1238   25.1881 C   0  0  0  0  0  0  0  0  0  0  0  0
    7.3641  -14.7539   23.8437 C   0  0  0  0  0  0  0  0  0  0  0  0
    8.5523  -15.6920   23.6596 C   0  0  2  0  0  0  0  0  0  0  0  0
    8.4136  -16.2398   22.3329 N   0  0  0  0  0  0  0  0  0  0  0  0
    8.6378  -16.6888   24.7295 C   0  0  0  0  0  0  0  0  0  0  0  0
    7.7157  -17.4980   24.9963 O   0  0  0  0  0  0  0  0  0  0  0  0
    6.4870  -14.4720   26.1860 C   0  0  0  0  0  0  0  0  0  0  0  0
    6.5384  -13.8431   27.4340 C   0  0  0  0  0  0  0  0  0  0  0  0
   11.9452  -19.3558   27.0362 C   0  0  0  0  0  0  0  0  0  0  0  0
   11.5442  -18.3064   26.0470 C   0  0  1  0  0  0  0  0  0  0  0  0
   11.6142  -18.8849   24.6607 C   0  0  0  0  0  0  0  0  0  0  0  0
   10.1221  -17.8539   26.3976 C   0  0  2  0  0  0  0  0  0  0  0  0
    9.8172  -16.7564   25.5122 N   0  0  0  0  0  0  0  0  0  0  0  0
   10.2065  -17.3324   27.7813 C   0  0  0  0  0  0  0  0  0  0  0  0
    9.8904  -18.1269   28.8692 O   0  0  0  0  0  0  0  0  0  0  0  0
   10.5699  -16.1414   28.0262 O   0  0  0  0  0  0  0  0  0  0  0  0
  2  1  1  6
  2  3  1  0
  2 10  1  0
  3  4  1  0
  4  9  1  0
  4  5  2  0
  5  6  1  0
  6  7  2  0
  8  7  1  0
  9  8  2  0
 10 11  2  0
 13 12  1  0
 13 14  2  0
 15 14  1  0
 16 15  2  0
 17 16  1  0
 18 17  1  1
 19 18  1  0
 19 10  1  0
 20 28  1  0
 20 18  1  0
 21 20  2  0
 22 23  2  0
 22 16  1  0
 23 13  1  0
 25 24  1  1
 26 25  1  0
 27 28  1  6
 27 25  1  0
 29 27  1  0
 30 29  1  0
 31 29  2  0
M  END
$$$$
