FYV.pdb
     RDKit          3D

 31 32  0  0  1  0  0  0  0  0999 V2000
    5.5858  -17.5312   23.7981 N   0  0  0  0  0  0  0  0  0  0  0  0
    6.2466  -16.3598   24.3082 C   0  0  1  0  0  0  0  0  0  0  0  0
    5.8646  -16.0830   25.7509 C   0  0  0  0  0  0  0  0  0  0  0  0
    6.2982  -14.7143   26.1387 C   0  0  0  0  0  0  0  0  0  0  0  0
    5.6251  -13.5961   25.6451 C   0  0  0  0  0  0  0  0  0  0  0  0
    6.0222  -12.3330   26.0004 C   0  0  0  0  0  0  0  0  0  0  0  0
    7.0869  -12.1237   26.8471 C   0  0  0  0  0  0  0  0  0  0  0  0
    7.7648  -13.1952   27.3459 C   0  0  0  0  0  0  0  0  0  0  0  0
    7.3571  -14.4602   26.9822 C   0  0  0  0  0  0  0  0  0  0  0  0
    7.7092  -16.4473   24.1976 C   0  0  0  0  0  0  0  0  0  0  0  0
    8.2791  -17.5509   24.2865 O   0  0  0  0  0  0  0  0  0  0  0  0
    7.3843  -14.0727   17.7851 O   0  0  0  0  0  0  0  0  0  0  0  0
    8.0665  -14.0952   19.0110 C   0  0  0  0  0  0  0  0  0  0  0  0
    8.1180  -12.9884   19.8274 C   0  0  0  0  0  0  0  0  0  0  0  0
    8.7898  -13.0285   21.0229 C   0  0  0  0  0  0  0  0  0  0  0  0
    9.4457  -14.1670   21.4723 C   0  0  0  0  0  0  0  0  0  0  0  0
   10.1555  -14.1468   22.7763 C   0  0  0  0  0  0  0  0  0  0  0  0
    9.8515  -15.3933   23.6006 C   0  0  2  0  0  0  0  0  0  0  0  0
    8.4676  -15.2753   23.9884 N   0  0  0  0  0  0  0  0  0  0  0  0
   10.7890  -15.5593   24.7137 C   0  0  0  0  0  0  0  0  0  0  0  0
   12.0151  -15.7800   24.5584 O   0  0  0  0  0  0  0  0  0  0  0  0
    9.3962  -15.2756   20.6586 C   0  0  0  0  0  0  0  0  0  0  0  0
    8.7117  -15.2355   19.4399 C   0  0  0  0  0  0  0  0  0  0  0  0
   10.4597  -13.2993   27.7901 C   0  0  0  0  0  0  0  0  0  0  0  0
   10.4916  -14.7096   28.2909 C   0  0  1  0  0  0  0  0  0  0  0  0
    9.0870  -15.1590   28.5849 C   0  0  0  0  0  0  0  0  0  0  0  0
   11.1449  -15.5747   27.2070 C   0  0  2  0  0  0  0  0  0  0  0  0
   10.3017  -15.4673   26.0412 N   0  0  0  0  0  0  0  0  0  0  0  0
   11.0694  -16.9638   27.7156 C   0  0  0  0  0  0  0  0  0  0  0  0
   10.2060  -17.8883   27.1551 O   0  0  0  0  0  0  0  0  0  0  0  0
   11.7891  -17.3621   28.6820 O   0  0  0  0  0  0  0  0  0  0  0  0
  2  1  1  1
  2  3  1  0
  2 10  1  0
  3  4  1  0
  4  9  1  0
  4  5  2  0
  5  6  1  0
  6  7  2  0
  8  7  1  0
  9  8  2  0
 10 11  2  0
 13 12  1  0
 13 14  2  0
 15 14  1  0
 16 15  2  0
 17 16  1  0
 18 17  1  1
 19 18  1  0
 19 10  1  0
 20 28  1  0
 20 18  1  0
 21 20  2  0
 22 23  2  0
 22 16  1  0
 23 13  1  0
 25 24  1  6
 26 25  1  0
 27 28  1  6
 27 25  1  0
 29 27  1  0
 30 29  1  0
 31 29  2  0
M  END
$$$$
