FYV.pdb
     RDKit          3D

 31 32  0  0  1  0  0  0  0  0999 V2000
    5.7675  -18.3599   19.8362 N   0  0  0  0  0  0  0  0  0  0  0  0
    6.4366  -17.1876   20.3331 C   0  0  1  0  0  0  0  0  0  0  0  0
    5.7837  -15.9129   19.8303 C   0  0  0  0  0  0  0  0  0  0  0  0
    6.6136  -14.7356   20.2005 C   0  0  0  0  0  0  0  0  0  0  0  0
    6.3353  -14.0155   21.3629 C   0  0  0  0  0  0  0  0  0  0  0  0
    7.0982  -12.9297   21.7071 C   0  0  0  0  0  0  0  0  0  0  0  0
    8.1542  -12.5148   20.9281 C   0  0  0  0  0  0  0  0  0  0  0  0
    8.4515  -13.1971   19.7868 C   0  0  0  0  0  0  0  0  0  0  0  0
    7.6781  -14.2869   19.4504 C   0  0  0  0  0  0  0  0  0  0  0  0
    6.5016  -17.1579   21.8008 C   0  0  0  0  0  0  0  0  0  0  0  0
    5.4563  -17.0746   22.4724 O   0  0  0  0  0  0  0  0  0  0  0  0
    8.3673  -19.0583   29.9918 O   0  0  0  0  0  0  0  0  0  0  0  0
    8.4204  -18.9008   28.5985 C   0  0  0  0  0  0  0  0  0  0  0  0
    7.2829  -18.9433   27.8247 C   0  0  0  0  0  0  0  0  0  0  0  0
    7.3536  -18.7872   26.4635 C   0  0  0  0  0  0  0  0  0  0  0  0
    8.5547  -18.5809   25.7975 C   0  0  0  0  0  0  0  0  0  0  0  0
    8.5649  -18.4191   24.3217 C   0  0  0  0  0  0  0  0  0  0  0  0
    7.8048  -17.1701   23.8884 C   0  0  2  0  0  0  0  0  0  0  0  0
    7.7540  -17.2256   22.4483 N   0  0  0  0  0  0  0  0  0  0  0  0
    8.3978  -15.9474   24.4351 C   0  0  0  0  0  0  0  0  0  0  0  0
    9.5538  -15.5508   24.1477 O   0  0  0  0  0  0  0  0  0  0  0  0
    9.6939  -18.5378   26.5681 C   0  0  0  0  0  0  0  0  0  0  0  0
    9.6226  -18.6968   27.9556 C   0  0  0  0  0  0  0  0  0  0  0  0
    7.4103  -11.9884   27.2096 C   0  0  0  0  0  0  0  0  0  0  0  0
    6.9183  -13.1963   26.4751 C   0  0  1  0  0  0  0  0  0  0  0  0
    6.0334  -12.7562   25.3417 C   0  0  0  0  0  0  0  0  0  0  0  0
    8.1438  -13.9649   25.9676 C   0  0  2  0  0  0  0  0  0  0  0  0
    7.6387  -15.1595   25.3358 N   0  0  0  0  0  0  0  0  0  0  0  0
    8.8924  -14.3567   27.1842 C   0  0  0  0  0  0  0  0  0  0  0  0
    9.9530  -13.6001   27.6500 O   0  0  0  0  0  0  0  0  0  0  0  0
    8.5944  -15.3973   27.8465 O   0  0  0  0  0  0  0  0  0  0  0  0
  2  1  1  1
  2  3  1  0
  2 10  1  0
  3  4  1  0
  4  9  1  0
  4  5  2  0
  5  6  1  0
  6  7  2  0
  8  7  1  0
  9  8  2  0
 10 11  2  0
 13 12  1  0
 13 14  2  0
 15 14  1  0
 16 15  2  0
 17 16  1  0
 18 17  1  6
 19 18  1  0
 19 10  1  0
 20 28  1  0
 20 18  1  0
 21 20  2  0
 22 23  2  0
 22 16  1  0
 23 13  1  0
 25 24  1  6
 26 25  1  0
 27 28  1  1
 27 25  1  0
 29 27  1  0
 30 29  1  0
 31 29  2  0
M  END
$$$$
