FYV.pdb
     RDKit          3D

 31 32  0  0  1  0  0  0  0  0999 V2000
    7.9002  -17.6807   19.6011 N   0  0  0  0  0  0  0  0  0  0  0  0
    8.1036  -16.5400   20.4534 C   0  0  1  0  0  0  0  0  0  0  0  0
    6.9300  -15.5791   20.3951 C   0  0  0  0  0  0  0  0  0  0  0  0
    7.2338  -14.3561   21.1848 C   0  0  0  0  0  0  0  0  0  0  0  0
    6.8645  -14.2753   22.5280 C   0  0  0  0  0  0  0  0  0  0  0  0
    7.1429  -13.1493   23.2588 C   0  0  0  0  0  0  0  0  0  0  0  0
    7.7892  -12.0698   22.7012 C   0  0  0  0  0  0  0  0  0  0  0  0
    8.1629  -12.1177   21.3918 C   0  0  0  0  0  0  0  0  0  0  0  0
    7.8781  -13.2543   20.6666 C   0  0  0  0  0  0  0  0  0  0  0  0
    8.3554  -16.9205   21.8502 C   0  0  0  0  0  0  0  0  0  0  0  0
    7.5481  -17.6501   22.4558 O   0  0  0  0  0  0  0  0  0  0  0  0
   11.8909  -20.2354   28.8797 O   0  0  0  0  0  0  0  0  0  0  0  0
   11.6101  -19.7077   27.6102 C   0  0  0  0  0  0  0  0  0  0  0  0
   10.8387  -18.5786   27.4536 C   0  0  0  0  0  0  0  0  0  0  0  0
   10.5743  -18.0767   26.2046 C   0  0  0  0  0  0  0  0  0  0  0  0
   11.0602  -18.6668   25.0451 C   0  0  0  0  0  0  0  0  0  0  0  0
   10.7385  -18.0749   23.7220 C   0  0  0  0  0  0  0  0  0  0  0  0
    9.7855  -16.8916   23.8528 C   0  0  2  0  0  0  0  0  0  0  0  0
    9.5172  -16.4571   22.5042 N   0  0  0  0  0  0  0  0  0  0  0  0
   10.3162  -15.8526   24.7384 C   0  0  0  0  0  0  0  0  0  0  0  0
   11.4615  -15.3543   24.6116 O   0  0  0  0  0  0  0  0  0  0  0  0
   11.8318  -19.7958   25.1980 C   0  0  0  0  0  0  0  0  0  0  0  0
   12.1017  -20.3081   26.4709 C   0  0  0  0  0  0  0  0  0  0  0  0
    8.8041  -12.5905   25.5961 C   0  0  0  0  0  0  0  0  0  0  0  0
    8.8392  -13.3597   26.8798 C   0  0  1  0  0  0  0  0  0  0  0  0
    7.4991  -14.0042   27.1038 C   0  0  0  0  0  0  0  0  0  0  0  0
    9.9553  -14.4044   26.7672 C   0  0  2  0  0  0  0  0  0  0  0  0
    9.5057  -15.3735   25.7975 N   0  0  0  0  0  0  0  0  0  0  0  0
   10.0144  -15.0596   28.0943 C   0  0  0  0  0  0  0  0  0  0  0  0
   10.6547  -14.4595   29.1640 O   0  0  0  0  0  0  0  0  0  0  0  0
    9.4836  -16.1929   28.3048 O   0  0  0  0  0  0  0  0  0  0  0  0
  2  1  1  6
  2  3  1  0
  2 10  1  0
  3  4  1  0
  4  9  1  0
  4  5  2  0
  5  6  1  0
  6  7  2  0
  8  7  1  0
  9  8  2  0
 10 11  2  0
 13 12  1  0
 13 14  2  0
 15 14  1  0
 16 15  2  0
 17 16  1  0
 18 17  1  6
 19 18  1  0
 19 10  1  0
 20 28  1  0
 20 18  1  0
 21 20  2  0
 22 23  2  0
 22 16  1  0
 23 13  1  0
 25 24  1  6
 26 25  1  0
 27 28  1  6
 27 25  1  0
 29 27  1  0
 30 29  1  0
 31 29  2  0
M  END
$$$$
