FYV.pdb
     RDKit          3D

 31 32  0  0  1  0  0  0  0  0999 V2000
   10.6807  -16.5848   19.8575 N   0  0  0  0  0  0  0  0  0  0  0  0
    9.8952  -15.8422   20.8065 C   0  0  1  0  0  0  0  0  0  0  0  0
    8.4076  -16.0547   20.5925 C   0  0  0  0  0  0  0  0  0  0  0  0
    7.7449  -14.7561   20.2989 C   0  0  0  0  0  0  0  0  0  0  0  0
    7.2972  -13.9427   21.3405 C   0  0  0  0  0  0  0  0  0  0  0  0
    6.6858  -12.7450   21.0735 C   0  0  0  0  0  0  0  0  0  0  0  0
    6.4934  -12.3060   19.7834 C   0  0  0  0  0  0  0  0  0  0  0  0
    6.9195  -13.0775   18.7442 C   0  0  0  0  0  0  0  0  0  0  0  0
    7.5326  -14.2793   19.0241 C   0  0  0  0  0  0  0  0  0  0  0  0
   10.2405  -16.1668   22.1974 C   0  0  0  0  0  0  0  0  0  0  0  0
   11.0889  -17.0445   22.4436 O   0  0  0  0  0  0  0  0  0  0  0  0
   10.6719  -15.1432   30.9905 O   0  0  0  0  0  0  0  0  0  0  0  0
   10.3381  -15.0324   29.6321 C   0  0  0  0  0  0  0  0  0  0  0  0
   10.8627  -14.0365   28.8400 C   0  0  0  0  0  0  0  0  0  0  0  0
   10.5250  -13.9434   27.5136 C   0  0  0  0  0  0  0  0  0  0  0  0
    9.6501  -14.8318   26.9023 C   0  0  0  0  0  0  0  0  0  0  0  0
    9.3244  -14.6776   25.4620 C   0  0  0  0  0  0  0  0  0  0  0  0
   10.0455  -15.7158   24.6088 C   0  0  2  0  0  0  0  0  0  0  0  0
    9.6082  -15.4788   23.2553 N   0  0  0  0  0  0  0  0  0  0  0  0
    9.8232  -17.0792   25.0960 C   0  0  0  0  0  0  0  0  0  0  0  0
    8.6952  -17.6298   25.1202 O   0  0  0  0  0  0  0  0  0  0  0  0
    9.1237  -15.8287   27.6912 C   0  0  0  0  0  0  0  0  0  0  0  0
    9.4674  -15.9243   29.0434 C   0  0  0  0  0  0  0  0  0  0  0  0
   11.0952  -20.1916   23.9594 C   0  0  0  0  0  0  0  0  0  0  0  0
   11.7064  -20.0667   25.3201 C   0  0  1  0  0  0  0  0  0  0  0  0
   13.0977  -19.5122   25.1853 C   0  0  0  0  0  0  0  0  0  0  0  0
   10.8094  -19.1424   26.1514 C   0  0  2  0  0  0  0  0  0  0  0  0
   10.9298  -17.8291   25.5664 N   0  0  0  0  0  0  0  0  0  0  0  0
   11.4192  -19.1140   27.5009 C   0  0  0  0  0  0  0  0  0  0  0  0
   11.2533  -20.1639   28.3866 O   0  0  0  0  0  0  0  0  0  0  0  0
   12.1153  -18.1307   27.8996 O   0  0  0  0  0  0  0  0  0  0  0  0
  2  1  1  6
  2  3  1  0
  2 10  1  0
  3  4  1  0
  4  9  1  0
  4  5  2  0
  5  6  1  0
  6  7  2  0
  8  7  1  0
  9  8  2  0
 10 11  2  0
 13 12  1  0
 13 14  2  0
 15 14  1  0
 16 15  2  0
 17 16  1  0
 18 17  1  1
 19 18  1  0
 19 10  1  0
 20 28  1  0
 20 18  1  0
 21 20  2  0
 22 23  2  0
 22 16  1  0
 23 13  1  0
 25 24  1  6
 26 25  1  0
 27 28  1  6
 27 25  1  0
 29 27  1  0
 30 29  1  0
 31 29  2  0
M  END
$$$$
