HQN.pdb
     RDKit          3D

 28 28  0  0  1  0  0  0  0  0999 V2000
   18.5659  -12.6279  -15.6008 N   0  0  0  0  0  0  0  0  0  0  0  0
   19.5059  -12.5883  -16.6528 C   0  0  1  0  0  0  0  0  0  0  0  0
   19.0864  -13.6264  -17.6943 C   0  0  0  0  0  0  0  0  0  0  0  0
   19.1130  -14.9521  -17.0225 C   0  0  0  0  0  0  0  0  0  0  0  0
   20.1698  -15.4628  -16.2634 C   0  0  0  0  0  0  0  0  0  0  0  0
   19.8049  -16.6796  -15.8340 N   0  0  0  0  0  0  0  0  0  0  0  0
   18.5634  -16.9379  -16.2997 C   0  0  0  0  0  0  0  0  0  0  0  0
   18.1568  -15.8927  -17.0129 N   0  0  0  0  0  0  0  0  0  0  0  0
   19.5651  -11.2255  -17.2432 C   0  0  0  0  0  0  0  0  0  0  0  0
   20.2357  -10.9774  -18.2815 O   0  0  0  0  0  0  0  0  0  0  0  0
   14.8513   -8.2288  -17.6237 N   0  0  0  0  0  0  0  0  0  0  0  0
   15.4658   -8.7810  -18.7616 C   0  0  0  0  0  0  0  0  0  0  0  0
   14.7947   -9.1193  -19.7446 O   0  0  0  0  0  0  0  0  0  0  0  0
   16.9363   -8.9532  -18.7673 C   0  0  0  0  0  0  0  0  0  0  0  0
   17.4583   -8.4980  -17.4597 C   0  0  0  0  0  0  0  0  0  0  0  0
   18.8906   -8.7776  -17.1431 C   0  0  2  0  0  0  0  0  0  0  0  0
   18.8625  -10.1758  -16.6427 N   0  0  0  0  0  0  0  0  0  0  0  0
   19.4713   -7.9714  -16.0570 C   0  0  0  0  0  0  0  0  0  0  0  0
   19.1223   -8.1891  -14.8443 O   0  0  0  0  0  0  0  0  0  0  0  0
   21.8643   -4.3954  -13.3128 N   0  0  0  0  0  0  0  0  0  0  0  0
   22.5801   -4.4767  -14.5365 C   0  0  0  0  0  0  0  0  0  0  0  0
   23.6247   -3.7927  -14.6935 O   0  0  0  0  0  0  0  0  0  0  0  0
   22.1143   -5.3574  -15.6341 C   0  0  0  0  0  0  0  0  0  0  0  0
   20.8816   -6.0899  -15.1583 C   0  0  2  0  0  0  0  0  0  0  0  0
   20.4240   -6.9377  -16.2645 N   0  0  0  0  0  0  0  0  0  0  0  0
   19.8298   -5.0853  -14.8645 C   0  0  0  0  0  0  0  0  0  0  0  0
   19.4600   -4.7730  -13.5743 O   0  0  0  0  0  0  0  0  0  0  0  0
   19.2249   -4.4694  -15.7867 O   0  0  0  0  0  0  0  0  0  0  0  0
  2  1  1  1
  2  9  1  0
  3  4  1  0
  3  2  1  0
  4  8  1  0
  5  4  2  0
  5  6  1  0
  6  7  1  0
  8  7  2  0
  9 10  2  0
 12 11  1  0
 13 12  2  0
 14 12  1  0
 15 14  1  0
 16 15  1  1
 17  9  1  0
 17 16  1  0
 18 16  1  0
 18 19  2  0
 20 21  1  0
 21 22  2  0
 23 21  1  0
 24 23  1  6
 24 25  1  0
 25 18  1  0
 26 27  1  0
 26 24  1  0
 28 26  2  0
M  END
$$$$
