HQN.pdb
     RDKit          3D

 28 28  0  0  1  0  0  0  0  0999 V2000
   24.9309  -30.8122   -1.2416 N   0  0  0  0  0  0  0  0  0  0  0  0
   25.2776  -31.7818   -0.2766 C   0  0  1  0  0  0  0  0  0  0  0  0
   26.5416  -32.4930   -0.7611 C   0  0  0  0  0  0  0  0  0  0  0  0
   26.2675  -32.9762   -2.1398 C   0  0  0  0  0  0  0  0  0  0  0  0
   26.9503  -32.5835   -3.2946 C   0  0  0  0  0  0  0  0  0  0  0  0
   26.4047  -33.2418   -4.3276 N   0  0  0  0  0  0  0  0  0  0  0  0
   25.4116  -34.0251   -3.8531 C   0  0  0  0  0  0  0  0  0  0  0  0
   25.3378  -33.8579   -2.5367 N   0  0  0  0  0  0  0  0  0  0  0  0
   25.4933  -31.1410    1.0471 C   0  0  0  0  0  0  0  0  0  0  0  0
   26.4757  -30.3826    1.2684 O   0  0  0  0  0  0  0  0  0  0  0  0
   20.7313  -29.7638    3.9988 N   0  0  0  0  0  0  0  0  0  0  0  0
   21.5432  -29.4227    5.0952 C   0  0  0  0  0  0  0  0  0  0  0  0
   21.0635  -28.8704    6.0932 O   0  0  0  0  0  0  0  0  0  0  0  0
   22.9892  -29.7353    5.0385 C   0  0  0  0  0  0  0  0  0  0  0  0
   23.2821  -30.3206    3.7114 C   0  0  0  0  0  0  0  0  0  0  0  0
   24.6895  -30.7272    3.4219 C   0  0  2  0  0  0  0  0  0  0  0  0
   24.5901  -31.3749    2.0891 N   0  0  0  0  0  0  0  0  0  0  0  0
   25.2564  -31.7434    4.3236 C   0  0  0  0  0  0  0  0  0  0  0  0
   25.3344  -32.9631    3.9414 O   0  0  0  0  0  0  0  0  0  0  0  0
   26.5540  -35.1735    6.7794 N   0  0  0  0  0  0  0  0  0  0  0  0
   27.5578  -34.5341    6.0048 C   0  0  0  0  0  0  0  0  0  0  0  0
   28.5030  -35.2138    5.5271 O   0  0  0  0  0  0  0  0  0  0  0  0
   27.5085  -33.0747    5.7496 C   0  0  0  0  0  0  0  0  0  0  0  0
   26.3107  -32.5103    6.4770 C   0  0  2  0  0  0  0  0  0  0  0  0
   25.7412  -31.4579    5.6285 N   0  0  0  0  0  0  0  0  0  0  0  0
   26.7837  -31.8954    7.7418 C   0  0  0  0  0  0  0  0  0  0  0  0
   27.3812  -32.6399    8.7356 O   0  0  0  0  0  0  0  0  0  0  0  0
   26.6599  -30.6581    7.9646 O   0  0  0  0  0  0  0  0  0  0  0  0
  2  1  1  6
  2  9  1  0
  3  4  1  0
  3  2  1  0
  4  8  1  0
  5  4  2  0
  5  6  1  0
  6  7  1  0
  8  7  2  0
  9 10  2  0
 12 11  1  0
 13 12  2  0
 14 12  1  0
 15 14  1  0
 16 15  1  1
 17  9  1  0
 17 16  1  0
 18 16  1  0
 18 19  2  0
 20 21  1  0
 21 22  2  0
 23 21  1  0
 24 23  1  6
 24 25  1  0
 25 18  1  0
 26 27  1  0
 26 24  1  0
 28 26  2  0
M  END
$$$$
