HQN.pdb
     RDKit          3D

 28 28  0  0  1  0  0  0  0  0999 V2000
   23.5131  -13.4546  -18.1555 N   0  0  0  0  0  0  0  0  0  0  0  0
   23.3430  -12.7670  -16.9348 C   0  0  1  0  0  0  0  0  0  0  0  0
   24.7266  -12.3458  -16.4384 C   0  0  0  0  0  0  0  0  0  0  0  0
   25.4725  -13.5914  -16.1202 C   0  0  0  0  0  0  0  0  0  0  0  0
   26.4419  -14.1929  -16.9280 C   0  0  0  0  0  0  0  0  0  0  0  0
   26.8718  -15.2911  -16.2899 N   0  0  0  0  0  0  0  0  0  0  0  0
   26.2040  -15.3892  -15.1197 C   0  0  0  0  0  0  0  0  0  0  0  0
   25.3654  -14.3623  -15.0276 N   0  0  0  0  0  0  0  0  0  0  0  0
   22.4560  -11.5892  -17.1231 C   0  0  0  0  0  0  0  0  0  0  0  0
   22.6104  -10.7849  -18.0815 O   0  0  0  0  0  0  0  0  0  0  0  0
   16.1215  -12.3226  -16.6657 N   0  0  0  0  0  0  0  0  0  0  0  0
   17.4745  -12.6455  -16.4589 C   0  0  0  0  0  0  0  0  0  0  0  0
   17.7965  -13.6072  -15.7499 O   0  0  0  0  0  0  0  0  0  0  0  0
   18.5148  -11.8138  -17.1052 C   0  0  0  0  0  0  0  0  0  0  0  0
   19.1194  -10.9462  -16.0701 C   0  0  0  0  0  0  0  0  0  0  0  0
   20.4111  -10.2696  -16.3925 C   0  0  2  0  0  0  0  0  0  0  0  0
   21.4146  -11.3509  -16.2203 N   0  0  0  0  0  0  0  0  0  0  0  0
   20.8135   -9.1945  -15.4711 C   0  0  0  0  0  0  0  0  0  0  0  0
   20.9416   -9.4405  -14.2209 O   0  0  0  0  0  0  0  0  0  0  0  0
   22.0777   -4.7933  -13.2658 N   0  0  0  0  0  0  0  0  0  0  0  0
   22.3609   -4.6174  -14.6461 C   0  0  0  0  0  0  0  0  0  0  0  0
   22.8726   -3.5388  -15.0443 O   0  0  0  0  0  0  0  0  0  0  0  0
   22.0626   -5.6879  -15.6272 C   0  0  0  0  0  0  0  0  0  0  0  0
   21.3341   -6.7974  -14.9054 C   0  0  2  0  0  0  0  0  0  0  0  0
   21.0811   -7.8612  -15.8834 N   0  0  0  0  0  0  0  0  0  0  0  0
   20.0309   -6.2668  -14.4344 C   0  0  0  0  0  0  0  0  0  0  0  0
   19.8449   -5.8348  -13.1392 O   0  0  0  0  0  0  0  0  0  0  0  0
   19.0309   -6.1868  -15.2021 O   0  0  0  0  0  0  0  0  0  0  0  0
  2  1  1  6
  2  9  1  0
  3  4  1  0
  3  2  1  0
  4  8  1  0
  5  4  2  0
  5  6  1  0
  6  7  1  0
  8  7  2  0
  9 10  2  0
 12 11  1  0
 13 12  2  0
 14 12  1  0
 15 14  1  0
 16 15  1  1
 17  9  1  0
 17 16  1  0
 18 16  1  0
 18 19  2  0
 20 21  1  0
 21 22  2  0
 23 21  1  0
 24 23  1  6
 24 25  1  0
 25 18  1  0
 26 27  1  0
 26 24  1  0
 28 26  2  0
M  END
$$$$
