HQN.pdb
     RDKit          3D

 28 28  0  0  1  0  0  0  0  0999 V2000
   17.0284  -11.7483  -16.3123 N   0  0  0  0  0  0  0  0  0  0  0  0
   17.6640  -10.4926  -16.4173 C   0  0  1  0  0  0  0  0  0  0  0  0
   16.8897   -9.5021  -15.5468 C   0  0  0  0  0  0  0  0  0  0  0  0
   15.4482   -9.8389  -15.6813 C   0  0  0  0  0  0  0  0  0  0  0  0
   14.9211  -10.8881  -16.4399 C   0  0  0  0  0  0  0  0  0  0  0  0
   13.5879  -10.8542  -16.3009 N   0  0  0  0  0  0  0  0  0  0  0  0
   13.2735   -9.8240  -15.4855 C   0  0  0  0  0  0  0  0  0  0  0  0
   14.3993   -9.2204  -15.1187 N   0  0  0  0  0  0  0  0  0  0  0  0
   19.0834  -10.5930  -15.9877 C   0  0  0  0  0  0  0  0  0  0  0  0
   19.4243  -11.2347  -14.9575 O   0  0  0  0  0  0  0  0  0  0  0  0
   23.0853  -13.3761  -16.7549 N   0  0  0  0  0  0  0  0  0  0  0  0
   23.3430  -12.3090  -17.6338 C   0  0  0  0  0  0  0  0  0  0  0  0
   24.5028  -11.9997  -17.9343 O   0  0  0  0  0  0  0  0  0  0  0  0
   22.2002  -11.5557  -18.1981 C   0  0  0  0  0  0  0  0  0  0  0  0
   22.2272  -10.1877  -17.6348 C   0  0  0  0  0  0  0  0  0  0  0  0
   21.5156   -9.9492  -16.3438 C   0  0  2  0  0  0  0  0  0  0  0  0
   20.0832   -9.9635  -16.7363 N   0  0  0  0  0  0  0  0  0  0  0  0
   21.7506   -8.6364  -15.7208 C   0  0  0  0  0  0  0  0  0  0  0  0
   22.9473   -8.2504  -15.4782 O   0  0  0  0  0  0  0  0  0  0  0  0
   21.6079   -4.0131  -13.7543 N   0  0  0  0  0  0  0  0  0  0  0  0
   22.1894   -4.3638  -15.0014 C   0  0  0  0  0  0  0  0  0  0  0  0
   22.9572   -3.5521  -15.5807 O   0  0  0  0  0  0  0  0  0  0  0  0
   21.9054   -5.6747  -15.6324 C   0  0  0  0  0  0  0  0  0  0  0  0
   21.0040   -6.4570  -14.7060 C   0  0  2  0  0  0  0  0  0  0  0  0
   20.7113   -7.7368  -15.3605 N   0  0  0  0  0  0  0  0  0  0  0  0
   19.7353   -5.7040  -14.5484 C   0  0  0  0  0  0  0  0  0  0  0  0
   19.6715   -4.5230  -13.8413 O   0  0  0  0  0  0  0  0  0  0  0  0
   18.6539   -6.1129  -15.0573 O   0  0  0  0  0  0  0  0  0  0  0  0
  2  1  1  1
  2  9  1  0
  3  4  1  0
  3  2  1  0
  4  8  1  0
  5  4  2  0
  5  6  1  0
  6  7  1  0
  8  7  2  0
  9 10  2  0
 12 11  1  0
 13 12  2  0
 14 12  1  0
 15 14  1  0
 16 15  1  6
 17  9  1  0
 17 16  1  0
 18 16  1  0
 18 19  2  0
 20 21  1  0
 21 22  2  0
 23 21  1  0
 24 23  1  6
 24 25  1  0
 25 18  1  0
 26 27  1  0
 26 24  1  0
 28 26  2  0
M  END
$$$$
