HQN.pdb
     RDKit          3D

 28 28  0  0  1  0  0  0  0  0999 V2000
   15.4850  -10.7042  -14.8328 N   0  0  0  0  0  0  0  0  0  0  0  0
   16.5442  -10.4088  -13.9482 C   0  0  1  0  0  0  0  0  0  0  0  0
   17.8549  -10.7565  -14.6550 C   0  0  0  0  0  0  0  0  0  0  0  0
   17.8491  -12.2251  -14.8844 C   0  0  0  0  0  0  0  0  0  0  0  0
   16.8548  -13.1141  -14.4659 C   0  0  0  0  0  0  0  0  0  0  0  0
   17.2195  -14.3415  -14.8643 N   0  0  0  0  0  0  0  0  0  0  0  0
   18.4007  -14.2424  -15.5123 C   0  0  0  0  0  0  0  0  0  0  0  0
   18.7702  -12.9658  -15.5187 N   0  0  0  0  0  0  0  0  0  0  0  0
   16.5069   -8.9756  -13.5560 C   0  0  0  0  0  0  0  0  0  0  0  0
   16.1564   -8.0725  -14.3627 O   0  0  0  0  0  0  0  0  0  0  0  0
   15.2413   -7.8152   -8.0274 N   0  0  0  0  0  0  0  0  0  0  0  0
   15.4029   -6.4526   -8.3352 C   0  0  0  0  0  0  0  0  0  0  0  0
   15.1015   -5.5764   -7.5152 O   0  0  0  0  0  0  0  0  0  0  0  0
   15.9420   -6.0786   -9.6623 C   0  0  0  0  0  0  0  0  0  0  0  0
   16.2324   -7.3229  -10.4087 C   0  0  0  0  0  0  0  0  0  0  0  0
   16.8325   -7.1973  -11.7703 C   0  0  2  0  0  0  0  0  0  0  0  0
   16.8679   -8.5997  -12.2580 N   0  0  0  0  0  0  0  0  0  0  0  0
   18.2246   -6.7204  -11.8106 C   0  0  0  0  0  0  0  0  0  0  0  0
   19.1701   -7.4759  -11.3925 O   0  0  0  0  0  0  0  0  0  0  0  0
   22.5238   -4.7079  -13.4660 N   0  0  0  0  0  0  0  0  0  0  0  0
   21.8398   -5.8006  -14.0613 C   0  0  0  0  0  0  0  0  0  0  0  0
   22.4265   -6.5094  -14.9199 O   0  0  0  0  0  0  0  0  0  0  0  0
   20.4418   -6.1199  -13.6855 C   0  0  0  0  0  0  0  0  0  0  0  0
   20.0038   -5.1367  -12.6252 C   0  0  2  0  0  0  0  0  0  0  0  0
   18.6066   -5.4415  -12.2984 N   0  0  0  0  0  0  0  0  0  0  0  0
   20.0686   -3.7718  -13.2033 C   0  0  0  0  0  0  0  0  0  0  0  0
   21.1601   -2.9517  -13.0159 O   0  0  0  0  0  0  0  0  0  0  0  0
   19.1234   -3.2992  -13.8955 O   0  0  0  0  0  0  0  0  0  0  0  0
  2  1  1  6
  2  9  1  0
  3  4  1  0
  3  2  1  0
  4  8  1  0
  5  4  2  0
  5  6  1  0
  6  7  1  0
  8  7  2  0
  9 10  2  0
 12 11  1  0
 13 12  2  0
 14 12  1  0
 15 14  1  0
 16 15  1  1
 17  9  1  0
 17 16  1  0
 18 16  1  0
 18 19  2  0
 20 21  1  0
 21 22  2  0
 23 21  1  0
 24 23  1  6
 24 25  1  0
 25 18  1  0
 26 27  1  0
 26 24  1  0
 28 26  2  0
M  END
$$$$
