HQN.pdb
     RDKit          3D

 28 28  0  0  1  0  0  0  0  0999 V2000
   26.2932  -16.6607  -17.1964 N   0  0  0  0  0  0  0  0  0  0  0  0
   25.4073  -15.5825  -17.4069 C   0  0  1  0  0  0  0  0  0  0  0  0
   23.9902  -16.0773  -17.1148 C   0  0  0  0  0  0  0  0  0  0  0  0
   23.6759  -17.1191  -18.1274 C   0  0  0  0  0  0  0  0  0  0  0  0
   23.2702  -18.4286  -17.8544 C   0  0  0  0  0  0  0  0  0  0  0  0
   23.0885  -19.0466  -19.0305 N   0  0  0  0  0  0  0  0  0  0  0  0
   23.3669  -18.1675  -20.0178 C   0  0  0  0  0  0  0  0  0  0  0  0
   23.7188  -17.0118  -19.4638 N   0  0  0  0  0  0  0  0  0  0  0  0
   25.7693  -14.4365  -16.5322 C   0  0  0  0  0  0  0  0  0  0  0  0
   26.2251  -14.6039  -15.3688 O   0  0  0  0  0  0  0  0  0  0  0  0
   29.4086  -10.8525  -18.2388 N   0  0  0  0  0  0  0  0  0  0  0  0
   29.0018   -9.8885  -17.2991 C   0  0  0  0  0  0  0  0  0  0  0  0
   29.6715   -8.8657  -17.1082 O   0  0  0  0  0  0  0  0  0  0  0  0
   27.7533  -10.1158  -16.5366 C   0  0  0  0  0  0  0  0  0  0  0  0
   27.2292  -11.4514  -16.8989 C   0  0  0  0  0  0  0  0  0  0  0  0
   25.9897  -11.9251  -16.2140 C   0  0  2  0  0  0  0  0  0  0  0  0
   25.6059  -13.1275  -16.9969 N   0  0  0  0  0  0  0  0  0  0  0  0
   24.8363  -11.0130  -16.2831 C   0  0  0  0  0  0  0  0  0  0  0  0
   24.1824  -10.8933  -17.3775 O   0  0  0  0  0  0  0  0  0  0  0  0
   20.2693   -8.6692  -13.9943 N   0  0  0  0  0  0  0  0  0  0  0  0
   21.5806   -8.1247  -13.9999 C   0  0  0  0  0  0  0  0  0  0  0  0
   21.7373   -6.8791  -14.0884 O   0  0  0  0  0  0  0  0  0  0  0  0
   22.7705   -9.0033  -13.9025 C   0  0  0  0  0  0  0  0  0  0  0  0
   23.2017   -9.3680  -15.3039 C   0  0  2  0  0  0  0  0  0  0  0  0
   24.3807  -10.2329  -15.1862 N   0  0  0  0  0  0  0  0  0  0  0  0
   23.5961   -8.1221  -16.0066 C   0  0  0  0  0  0  0  0  0  0  0  0
   22.7156   -7.4262  -16.8062 O   0  0  0  0  0  0  0  0  0  0  0  0
   24.7599   -7.6421  -15.9027 O   0  0  0  0  0  0  0  0  0  0  0  0
  2  1  1  1
  2  9  1  0
  3  4  1  0
  3  2  1  0
  4  8  1  0
  5  4  2  0
  5  6  1  0
  6  7  1  0
  8  7  2  0
  9 10  2  0
 12 11  1  0
 13 12  2  0
 14 12  1  0
 15 14  1  0
 16 15  1  6
 17  9  1  0
 17 16  1  0
 18 16  1  0
 18 19  2  0
 20 21  1  0
 21 22  2  0
 23 21  1  0
 24 23  1  1
 24 25  1  0
 25 18  1  0
 26 27  1  0
 26 24  1  0
 28 26  2  0
M  END
$$$$
