HQN.pdb
     RDKit          3D

 28 28  0  0  1  0  0  0  0  0999 V2000
   17.0799  -15.1346    3.3801 N   0  0  0  0  0  0  0  0  0  0  0  0
   17.5877  -15.9167    4.4395 C   0  0  1  0  0  0  0  0  0  0  0  0
   18.0073  -17.2694    3.8629 C   0  0  0  0  0  0  0  0  0  0  0  0
   16.7876  -17.8942    3.2872 C   0  0  0  0  0  0  0  0  0  0  0  0
   16.5648  -18.1558    1.9323 C   0  0  0  0  0  0  0  0  0  0  0  0
   15.3532  -18.7205    1.8259 N   0  0  0  0  0  0  0  0  0  0  0  0
   14.8211  -18.8167    3.0639 C   0  0  0  0  0  0  0  0  0  0  0  0
   15.6918  -18.3172    3.9349 N   0  0  0  0  0  0  0  0  0  0  0  0
   18.7342  -15.2281    5.0881 C   0  0  0  0  0  0  0  0  0  0  0  0
   19.7921  -14.9570    4.4583 O   0  0  0  0  0  0  0  0  0  0  0  0
   21.5455  -11.6572    7.2566 N   0  0  0  0  0  0  0  0  0  0  0  0
   20.5921  -11.2653    6.3001 C   0  0  0  0  0  0  0  0  0  0  0  0
   20.8818  -10.4576    5.4087 O   0  0  0  0  0  0  0  0  0  0  0  0
   19.2281  -11.8362    6.3748 C   0  0  0  0  0  0  0  0  0  0  0  0
   19.2077  -12.8393    7.4625 C   0  0  0  0  0  0  0  0  0  0  0  0
   19.7590  -14.1964    7.1720 C   0  0  2  0  0  0  0  0  0  0  0  0
   18.6544  -14.8628    6.4359 N   0  0  0  0  0  0  0  0  0  0  0  0
   20.0267  -15.0396    8.3486 C   0  0  0  0  0  0  0  0  0  0  0  0
   20.8520  -14.6424    9.2435 O   0  0  0  0  0  0  0  0  0  0  0  0
   16.1836  -16.7082   10.6670 N   0  0  0  0  0  0  0  0  0  0  0  0
   17.5982  -16.6337   10.7657 C   0  0  0  0  0  0  0  0  0  0  0  0
   18.1329  -15.6279   11.3008 O   0  0  0  0  0  0  0  0  0  0  0  0
   18.4563  -17.7254   10.2471 C   0  0  0  0  0  0  0  0  0  0  0  0
   19.7441  -17.1138    9.7467 C   0  0  2  0  0  0  0  0  0  0  0  0
   19.4130  -16.3019    8.5706 N   0  0  0  0  0  0  0  0  0  0  0  0
   20.6464  -18.2135    9.3248 C   0  0  0  0  0  0  0  0  0  0  0  0
   21.0938  -18.3321    8.0268 O   0  0  0  0  0  0  0  0  0  0  0  0
   21.0463  -19.0926   10.1391 O   0  0  0  0  0  0  0  0  0  0  0  0
  2  1  1  6
  2  9  1  0
  3  4  1  0
  3  2  1  0
  4  8  1  0
  5  4  2  0
  5  6  1  0
  6  7  1  0
  8  7  2  0
  9 10  2  0
 12 11  1  0
 13 12  2  0
 14 12  1  0
 15 14  1  0
 16 15  1  1
 17  9  1  0
 17 16  1  0
 18 16  1  0
 18 19  2  0
 20 21  1  0
 21 22  2  0
 23 21  1  0
 24 23  1  6
 24 25  1  0
 25 18  1  0
 26 27  1  0
 26 24  1  0
 28 26  2  0
M  END
$$$$
