MNS.pdb
     RDKit          3D

 23 22  0  0  1  0  0  0  0  0999 V2000
    8.1289  -11.8024   27.2445 C   0  0  0  0  0  0  0  0  0  0  0  0
    6.4819  -11.9649   26.5585 S   0  0  0  0  0  0  0  0  0  0  0  0
    6.3032  -12.9696   25.1130 C   0  0  0  0  0  0  0  0  0  0  0  0
    6.8512  -14.3327   25.0900 C   0  0  0  0  0  0  0  0  0  0  0  0
    8.1755  -14.4884   24.4694 C   0  0  2  0  0  0  0  0  0  0  0  0
    8.1690  -14.0965   23.0917 N   0  0  0  0  0  0  0  0  0  0  0  0
    8.7252  -15.8806   24.6337 C   0  0  0  0  0  0  0  0  0  0  0  0
    8.6069  -16.5013   25.6932 O   0  0  0  0  0  0  0  0  0  0  0  0
    8.1136  -18.8768   21.4059 N   0  0  0  0  0  0  0  0  0  0  0  0
    9.3403  -18.1511   21.2398 C   0  0  0  0  0  0  0  0  0  0  0  0
    9.4641  -17.4234   20.2340 O   0  0  0  0  0  0  0  0  0  0  0  0
   10.4292  -18.2514   22.2176 C   0  0  0  0  0  0  0  0  0  0  0  0
   10.0295  -17.7689   23.5582 C   0  0  2  0  0  0  0  0  0  0  0  0
    9.3899  -16.4656   23.5257 N   0  0  0  0  0  0  0  0  0  0  0  0
   11.1541  -17.7120   24.5067 C   0  0  0  0  0  0  0  0  0  0  0  0
   11.7049  -16.6569   24.8483 O   0  0  0  0  0  0  0  0  0  0  0  0
   10.9352  -18.7213   28.6390 O   0  0  0  0  0  0  0  0  0  0  0  0
   10.7234  -18.5956   27.2773 C   0  0  0  0  0  0  0  0  0  0  0  0
   11.9559  -19.0367   26.5103 C   0  0  2  0  0  0  0  0  0  0  0  0
   11.6735  -18.9357   25.0942 N   0  0  0  0  0  0  0  0  0  0  0  0
   12.4132  -20.3725   26.8977 C   0  0  0  0  0  0  0  0  0  0  0  0
   13.1861  -20.4951   27.8804 O   0  0  0  0  0  0  0  0  0  0  0  0
   12.0242  -21.5124   26.2183 O   0  0  0  0  0  0  0  0  0  0  0  0
  1  2  1  0
  3  2  1  0
  4  3  1  0
  5  4  1  0
  5  6  1  6
  7  5  1  0
  8  7  2  0
  9 10  1  0
 10 12  1  0
 11 10  2  0
 13 12  1  6
 13 15  1  0
 13 14  1  0
 14  7  1  0
 15 20  1  0
 16 15  2  0
 19 18  1  1
 18 17  1  0
 19 21  1  0
 20 19  1  0
 21 22  2  0
 21 23  1  0
M  END
$$$$
