MNS.pdb
     RDKit          3D

 23 22  0  0  1  0  0  0  0  0999 V2000
    6.5027  -10.4352   26.8717 C   0  0  0  0  0  0  0  0  0  0  0  0
    6.6619  -12.1654   27.3083 S   0  0  0  0  0  0  0  0  0  0  0  0
    5.7402  -13.3304   26.3469 C   0  0  0  0  0  0  0  0  0  0  0  0
    6.4403  -14.3533   25.5580 C   0  0  0  0  0  0  0  0  0  0  0  0
    7.6851  -13.9258   24.9015 C   0  0  2  0  0  0  0  0  0  0  0  0
    7.5255  -12.6793   24.2142 N   0  0  0  0  0  0  0  0  0  0  0  0
    8.2413  -14.9825   23.9842 C   0  0  0  0  0  0  0  0  0  0  0  0
    8.2419  -16.1755   24.2980 O   0  0  0  0  0  0  0  0  0  0  0  0
    8.0560  -12.8830   19.7360 N   0  0  0  0  0  0  0  0  0  0  0  0
    8.2090  -14.2940   19.9471 C   0  0  0  0  0  0  0  0  0  0  0  0
    7.2300  -15.0340   19.7223 O   0  0  0  0  0  0  0  0  0  0  0  0
    9.4760  -14.8667   20.4143 C   0  0  0  0  0  0  0  0  0  0  0  0
    9.3610  -15.4659   21.7625 C   0  0  2  0  0  0  0  0  0  0  0  0
    8.7702  -14.5650   22.7362 N   0  0  0  0  0  0  0  0  0  0  0  0
   10.6499  -15.9423   22.2910 C   0  0  0  0  0  0  0  0  0  0  0  0
   11.7455  -15.5170   21.9009 O   0  0  0  0  0  0  0  0  0  0  0  0
   12.8072  -18.9749   25.4637 O   0  0  0  0  0  0  0  0  0  0  0  0
   11.6703  -18.2930   25.0670 C   0  0  0  0  0  0  0  0  0  0  0  0
   11.9225  -17.5656   23.7596 C   0  0  2  0  0  0  0  0  0  0  0  0
   10.6802  -16.9638   23.3243 N   0  0  0  0  0  0  0  0  0  0  0  0
   12.5156  -18.4307   22.7382 C   0  0  0  0  0  0  0  0  0  0  0  0
   13.7662  -18.4921   22.6371 O   0  0  0  0  0  0  0  0  0  0  0  0
   11.7461  -19.1883   21.8743 O   0  0  0  0  0  0  0  0  0  0  0  0
  1  2  1  0
  3  2  1  0
  4  3  1  0
  5  4  1  0
  5  6  1  6
  7  5  1  0
  8  7  2  0
  9 10  1  0
 10 12  1  0
 11 10  2  0
 13 12  1  6
 13 15  1  0
 13 14  1  0
 14  7  1  0
 15 20  1  0
 16 15  2  0
 19 18  1  1
 18 17  1  0
 19 21  1  0
 20 19  1  0
 21 22  2  0
 21 23  1  0
M  END
$$$$
