MNS.pdb
     RDKit          3D

 23 22  0  0  1  0  0  0  0  0999 V2000
    6.6712  -11.3291   19.3317 C   0  0  0  0  0  0  0  0  0  0  0  0
    7.8605  -12.5882   19.7898 S   0  0  0  0  0  0  0  0  0  0  0  0
    7.2491  -13.9972   20.6683 C   0  0  0  0  0  0  0  0  0  0  0  0
    8.1798  -15.0277   21.1485 C   0  0  0  0  0  0  0  0  0  0  0  0
    8.9702  -15.7181   20.1181 C   0  0  2  0  0  0  0  0  0  0  0  0
    8.1527  -16.5486   19.2853 N   0  0  0  0  0  0  0  0  0  0  0  0
   10.1167  -16.4996   20.7031 C   0  0  0  0  0  0  0  0  0  0  0  0
    9.9969  -17.6870   21.0152 O   0  0  0  0  0  0  0  0  0  0  0  0
   14.2714  -16.6068   18.8655 N   0  0  0  0  0  0  0  0  0  0  0  0
   13.9791  -15.5055   19.7376 C   0  0  0  0  0  0  0  0  0  0  0  0
   13.8995  -14.3639   19.2405 O   0  0  0  0  0  0  0  0  0  0  0  0
   13.7765  -15.7001   21.1773 C   0  0  0  0  0  0  0  0  0  0  0  0
   12.5295  -16.4384   21.4767 C   0  0  2  0  0  0  0  0  0  0  0  0
   11.3516  -15.8267   20.8877 N   0  0  0  0  0  0  0  0  0  0  0  0
   12.2942  -16.6066   22.9203 C   0  0  0  0  0  0  0  0  0  0  0  0
   12.4418  -15.6952   23.7455 O   0  0  0  0  0  0  0  0  0  0  0  0
   10.5140  -20.1317   24.3470 O   0  0  0  0  0  0  0  0  0  0  0  0
   10.3976  -18.9373   25.0361 C   0  0  0  0  0  0  0  0  0  0  0  0
   11.6527  -18.1035   24.8592 C   0  0  2  0  0  0  0  0  0  0  0  0
   11.8662  -17.8933   23.4431 N   0  0  0  0  0  0  0  0  0  0  0  0
   12.8185  -18.6916   25.5215 C   0  0  0  0  0  0  0  0  0  0  0  0
   13.8009  -19.0532   24.8270 O   0  0  0  0  0  0  0  0  0  0  0  0
   12.8800  -18.8655   26.8920 O   0  0  0  0  0  0  0  0  0  0  0  0
  1  2  1  0
  3  2  1  0
  4  3  1  0
  5  4  1  0
  5  6  1  1
  7  5  1  0
  8  7  2  0
  9 10  1  0
 10 12  1  0
 11 10  2  0
 13 12  1  1
 13 15  1  0
 13 14  1  0
 14  7  1  0
 15 20  1  0
 16 15  2  0
 19 18  1  6
 18 17  1  0
 19 21  1  0
 20 19  1  0
 21 22  2  0
 21 23  1  0
M  END
$$$$
