MNS.pdb
     RDKit          3D

 23 22  0  0  1  0  0  0  0  0999 V2000
    6.8892  -12.9200   21.3313 C   0  0  0  0  0  0  0  0  0  0  0  0
    7.0143  -12.1022   19.7422 S   0  0  0  0  0  0  0  0  0  0  0  0
    7.9153  -12.9395   18.4702 C   0  0  0  0  0  0  0  0  0  0  0  0
    9.1220  -13.7081   18.8050 C   0  0  0  0  0  0  0  0  0  0  0  0
    9.7468  -14.4481   17.6982 C   0  0  2  0  0  0  0  0  0  0  0  0
    8.8086  -15.2967   17.0264 N   0  0  0  0  0  0  0  0  0  0  0  0
   10.9591  -15.2244   18.1402 C   0  0  0  0  0  0  0  0  0  0  0  0
   10.9057  -16.4375   18.3576 O   0  0  0  0  0  0  0  0  0  0  0  0
   16.9753  -14.3635   19.2346 N   0  0  0  0  0  0  0  0  0  0  0  0
   15.8463  -15.1154   18.7666 C   0  0  0  0  0  0  0  0  0  0  0  0
   15.9278  -16.3604   18.7604 O   0  0  0  0  0  0  0  0  0  0  0  0
   14.6217  -14.4530   18.3047 C   0  0  0  0  0  0  0  0  0  0  0  0
   13.3982  -15.1076   18.8188 C   0  0  2  0  0  0  0  0  0  0  0  0
   12.1771  -14.5159   18.3015 N   0  0  0  0  0  0  0  0  0  0  0  0
   13.3254  -15.1148   20.2892 C   0  0  0  0  0  0  0  0  0  0  0  0
   13.7393  -14.1865   20.9966 O   0  0  0  0  0  0  0  0  0  0  0  0
   10.3356  -16.5152   22.0884 O   0  0  0  0  0  0  0  0  0  0  0  0
   11.3975  -17.0063   22.8274 C   0  0  0  0  0  0  0  0  0  0  0  0
   12.6837  -16.3072   22.4289 C   0  0  2  0  0  0  0  0  0  0  0  0
   12.7452  -16.2519   20.9838 N   0  0  0  0  0  0  0  0  0  0  0  0
   13.8703  -16.9305   23.0179 C   0  0  0  0  0  0  0  0  0  0  0  0
   14.7322  -17.4445   22.2622 O   0  0  0  0  0  0  0  0  0  0  0  0
   14.0800  -16.9754   24.3841 O   0  0  0  0  0  0  0  0  0  0  0  0
  1  2  1  0
  3  2  1  0
  4  3  1  0
  5  4  1  0
  5  6  1  1
  7  5  1  0
  8  7  2  0
  9 10  1  0
 10 12  1  0
 11 10  2  0
 13 12  1  1
 13 15  1  0
 13 14  1  0
 14  7  1  0
 15 20  1  0
 16 15  2  0
 19 18  1  6
 18 17  1  0
 19 21  1  0
 20 19  1  0
 21 22  2  0
 21 23  1  0
M  END
$$$$
