MNS.pdb
     RDKit          3D

 23 22  0  0  1  0  0  0  0  0999 V2000
    7.7124  -11.7393   21.4082 C   0  0  0  0  0  0  0  0  0  0  0  0
    8.2588  -12.4954   19.8787 S   0  0  0  0  0  0  0  0  0  0  0  0
    8.2741  -14.2634   19.8106 C   0  0  0  0  0  0  0  0  0  0  0  0
    8.4915  -15.0467   21.0346 C   0  0  0  0  0  0  0  0  0  0  0  0
    9.6617  -15.9375   21.0345 C   0  0  2  0  0  0  0  0  0  0  0  0
    9.7549  -16.6967   19.8234 N   0  0  0  0  0  0  0  0  0  0  0  0
    9.6971  -16.8372   22.2415 C   0  0  0  0  0  0  0  0  0  0  0  0
    9.2979  -16.4551   23.3444 O   0  0  0  0  0  0  0  0  0  0  0  0
    8.2528  -21.4300   21.6113 N   0  0  0  0  0  0  0  0  0  0  0  0
    9.5502  -20.8419   21.4387 C   0  0  0  0  0  0  0  0  0  0  0  0
    9.9367  -20.5952   20.2784 O   0  0  0  0  0  0  0  0  0  0  0  0
   10.4110  -20.5329   22.5855 C   0  0  0  0  0  0  0  0  0  0  0  0
   10.1833  -19.1681   23.1100 C   0  0  2  0  0  0  0  0  0  0  0  0
   10.2072  -18.1502   22.0747 N   0  0  0  0  0  0  0  0  0  0  0  0
   11.1445  -18.7882   24.1585 C   0  0  0  0  0  0  0  0  0  0  0  0
   12.3094  -18.4412   23.9219 O   0  0  0  0  0  0  0  0  0  0  0  0
    9.8366  -17.8798   27.9809 O   0  0  0  0  0  0  0  0  0  0  0  0
   11.0727  -17.4617   27.5204 C   0  0  0  0  0  0  0  0  0  0  0  0
   11.6827  -18.5179   26.6180 C   0  0  2  0  0  0  0  0  0  0  0  0
   10.7439  -18.8089   25.5554 N   0  0  0  0  0  0  0  0  0  0  0  0
   12.0912  -19.7180   27.3505 C   0  0  0  0  0  0  0  0  0  0  0  0
   11.5318  -20.8131   27.0942 O   0  0  0  0  0  0  0  0  0  0  0  0
   13.0764  -19.6917   28.3206 O   0  0  0  0  0  0  0  0  0  0  0  0
  1  2  1  0
  3  2  1  0
  4  3  1  0
  5  4  1  0
  5  6  1  6
  7  5  1  0
  8  7  2  0
  9 10  1  0
 10 12  1  0
 11 10  2  0
 13 12  1  6
 13 15  1  0
 13 14  1  0
 14  7  1  0
 15 20  1  0
 16 15  2  0
 19 18  1  1
 18 17  1  0
 19 21  1  0
 20 19  1  0
 21 22  2  0
 21 23  1  0
M  END
$$$$
