MNS.pdb
     RDKit          3D

 23 22  0  0  1  0  0  0  0  0999 V2000
    7.7342  -11.8666   20.0750 C   0  0  0  0  0  0  0  0  0  0  0  0
    6.9426  -12.3652   18.5471 S   0  0  0  0  0  0  0  0  0  0  0  0
    7.0895  -14.0647   18.0771 C   0  0  0  0  0  0  0  0  0  0  0  0
    7.5143  -15.0683   19.0625 C   0  0  0  0  0  0  0  0  0  0  0  0
    8.9369  -15.4405   19.0364 C   0  0  2  0  0  0  0  0  0  0  0  0
    9.3209  -15.9944   17.7725 N   0  0  0  0  0  0  0  0  0  0  0  0
    9.3088  -16.3628   20.1672 C   0  0  0  0  0  0  0  0  0  0  0  0
    8.8479  -16.2130   21.3016 O   0  0  0  0  0  0  0  0  0  0  0  0
   10.5384  -20.7278   18.1610 N   0  0  0  0  0  0  0  0  0  0  0  0
   10.3293  -20.3900   19.5398 C   0  0  0  0  0  0  0  0  0  0  0  0
    9.2953  -20.8074   20.0995 O   0  0  0  0  0  0  0  0  0  0  0  0
   11.2958  -19.5766   20.2854 C   0  0  0  0  0  0  0  0  0  0  0  0
   10.6773  -18.3723   20.8830 C   0  0  2  0  0  0  0  0  0  0  0  0
   10.2129  -17.4199   19.8901 N   0  0  0  0  0  0  0  0  0  0  0  0
   11.5726  -17.6709   21.8179 C   0  0  0  0  0  0  0  0  0  0  0  0
   12.6832  -17.2281   21.4954 O   0  0  0  0  0  0  0  0  0  0  0  0
   10.3745  -17.1877   25.8181 O   0  0  0  0  0  0  0  0  0  0  0  0
   11.1557  -16.2008   25.2431 C   0  0  0  0  0  0  0  0  0  0  0  0
   12.0253  -16.7895   24.1481 C   0  0  2  0  0  0  0  0  0  0  0  0
   11.1685  -17.4680   23.1991 N   0  0  0  0  0  0  0  0  0  0  0  0
   13.0812  -17.6580   24.6720 C   0  0  0  0  0  0  0  0  0  0  0  0
   13.0313  -18.8918   24.4412 O   0  0  0  0  0  0  0  0  0  0  0  0
   14.1387  -17.1685   25.4166 O   0  0  0  0  0  0  0  0  0  0  0  0
  1  2  1  0
  3  2  1  0
  4  3  1  0
  5  4  1  0
  5  6  1  6
  7  5  1  0
  8  7  2  0
  9 10  1  0
 10 12  1  0
 11 10  2  0
 13 12  1  6
 13 15  1  0
 13 14  1  0
 14  7  1  0
 15 20  1  0
 16 15  2  0
 19 18  1  1
 18 17  1  0
 19 21  1  0
 20 19  1  0
 21 22  2  0
 21 23  1  0
M  END
$$$$
