MNS.pdb
     RDKit          3D

 23 22  0  0  1  0  0  0  0  0999 V2000
    7.3943  -12.0706   21.3954 C   0  0  0  0  0  0  0  0  0  0  0  0
    7.2455  -12.2068   19.6153 S   0  0  0  0  0  0  0  0  0  0  0  0
    7.8354  -13.6973   18.8660 C   0  0  0  0  0  0  0  0  0  0  0  0
    8.5365  -14.7026   19.6762 C   0  0  0  0  0  0  0  0  0  0  0  0
    8.8929  -15.9539   18.9903 C   0  0  2  0  0  0  0  0  0  0  0  0
    7.7525  -16.5752   18.3860 N   0  0  0  0  0  0  0  0  0  0  0  0
    9.6184  -16.9159   19.8935 C   0  0  0  0  0  0  0  0  0  0  0  0
    9.0318  -17.8476   20.4498 O   0  0  0  0  0  0  0  0  0  0  0  0
   13.4066  -19.6158   21.9887 N   0  0  0  0  0  0  0  0  0  0  0  0
   14.0313  -18.6530   21.1275 C   0  0  0  0  0  0  0  0  0  0  0  0
   15.2551  -18.7616   20.9105 O   0  0  0  0  0  0  0  0  0  0  0  0
   13.2654  -17.5645   20.5109 C   0  0  0  0  0  0  0  0  0  0  0  0
   11.8417  -17.5776   20.9145 C   0  0  2  0  0  0  0  0  0  0  0  0
   11.0094  -16.7201   20.0895 N   0  0  0  0  0  0  0  0  0  0  0  0
   11.6411  -17.2042   22.3244 C   0  0  0  0  0  0  0  0  0  0  0  0
   11.8528  -16.0664   22.7649 O   0  0  0  0  0  0  0  0  0  0  0  0
    9.3563  -19.5796   24.8902 O   0  0  0  0  0  0  0  0  0  0  0  0
    9.5899  -18.2305   25.0910 C   0  0  0  0  0  0  0  0  0  0  0  0
   11.0072  -17.8754   24.6822 C   0  0  2  0  0  0  0  0  0  0  0  0
   11.1718  -18.1937   23.2798 N   0  0  0  0  0  0  0  0  0  0  0  0
   12.0156  -18.5191   25.5262 C   0  0  0  0  0  0  0  0  0  0  0  0
   12.7747  -19.3844   25.0231 O   0  0  0  0  0  0  0  0  0  0  0  0
   12.1654  -18.2087   26.8654 O   0  0  0  0  0  0  0  0  0  0  0  0
  1  2  1  0
  3  2  1  0
  4  3  1  0
  5  4  1  0
  5  6  1  1
  7  5  1  0
  8  7  2  0
  9 10  1  0
 10 12  1  0
 11 10  2  0
 13 12  1  6
 13 15  1  0
 13 14  1  0
 14  7  1  0
 15 20  1  0
 16 15  2  0
 19 18  1  1
 18 17  1  0
 19 21  1  0
 20 19  1  0
 21 22  2  0
 21 23  1  0
M  END
$$$$
