MNS.pdb
     RDKit          3D

 23 22  0  0  1  0  0  0  0  0999 V2000
    8.4707  -12.6621   20.4607 C   0  0  0  0  0  0  0  0  0  0  0  0
    8.2240  -12.5436   18.6902 S   0  0  0  0  0  0  0  0  0  0  0  0
    7.9808  -14.0559   17.8043 C   0  0  0  0  0  0  0  0  0  0  0  0
    9.1293  -14.9122   17.4778 C   0  0  0  0  0  0  0  0  0  0  0  0
    9.2157  -16.1864   18.2073 C   0  0  2  0  0  0  0  0  0  0  0  0
    8.1334  -16.3470   19.1316 N   0  0  0  0  0  0  0  0  0  0  0  0
   10.5444  -16.3652   18.8930 C   0  0  0  0  0  0  0  0  0  0  0  0
   11.3974  -17.1422   18.4568 O   0  0  0  0  0  0  0  0  0  0  0  0
   14.6453  -15.5360   19.1487 N   0  0  0  0  0  0  0  0  0  0  0  0
   13.6614  -14.5087   19.3373 C   0  0  0  0  0  0  0  0  0  0  0  0
   13.4898  -13.6802   18.4204 O   0  0  0  0  0  0  0  0  0  0  0  0
   12.8701  -14.4215   20.5694 C   0  0  0  0  0  0  0  0  0  0  0  0
   12.0463  -15.6295   20.7973 C   0  0  2  0  0  0  0  0  0  0  0  0
   10.7917  -15.6080   20.0665 N   0  0  0  0  0  0  0  0  0  0  0  0
   11.7519  -15.8636   22.2208 C   0  0  0  0  0  0  0  0  0  0  0  0
   10.8657  -15.2613   22.8414 O   0  0  0  0  0  0  0  0  0  0  0  0
   10.1277  -18.7905   24.8811 O   0  0  0  0  0  0  0  0  0  0  0  0
   10.6562  -18.1270   23.7878 C   0  0  0  0  0  0  0  0  0  0  0  0
   11.9814  -17.4846   24.1524 C   0  0  2  0  0  0  0  0  0  0  0  0
   12.5191  -16.8436   22.9712 N   0  0  0  0  0  0  0  0  0  0  0  0
   12.9213  -18.4326   24.7538 C   0  0  0  0  0  0  0  0  0  0  0  0
   13.2971  -19.4294   24.0882 O   0  0  0  0  0  0  0  0  0  0  0  0
   13.4145  -18.2713   26.0356 O   0  0  0  0  0  0  0  0  0  0  0  0
  1  2  1  0
  3  2  1  0
  4  3  1  0
  5  4  1  0
  5  6  1  1
  7  5  1  0
  8  7  2  0
  9 10  1  0
 10 12  1  0
 11 10  2  0
 13 12  1  1
 13 15  1  0
 13 14  1  0
 14  7  1  0
 15 20  1  0
 16 15  2  0
 19 18  1  6
 18 17  1  0
 19 21  1  0
 20 19  1  0
 21 22  2  0
 21 23  1  0
M  END
$$$$
