MNS.pdb
     RDKit          3D

 23 22  0  0  1  0  0  0  0  0999 V2000
    7.3441  -11.7715   27.3876 C   0  0  0  0  0  0  0  0  0  0  0  0
    7.2806  -11.7940   25.5974 S   0  0  0  0  0  0  0  0  0  0  0  0
    6.2928  -13.0507   24.8386 C   0  0  0  0  0  0  0  0  0  0  0  0
    6.7727  -14.4387   24.7933 C   0  0  0  0  0  0  0  0  0  0  0  0
    8.0785  -14.6523   24.1512 C   0  0  2  0  0  0  0  0  0  0  0  0
    8.0486  -14.3225   22.7576 N   0  0  0  0  0  0  0  0  0  0  0  0
    8.6014  -16.0480   24.3662 C   0  0  0  0  0  0  0  0  0  0  0  0
    8.0026  -16.8603   25.0756 O   0  0  0  0  0  0  0  0  0  0  0  0
   11.7735  -16.6851   20.7368 N   0  0  0  0  0  0  0  0  0  0  0  0
   11.2134  -17.7220   21.5554 C   0  0  0  0  0  0  0  0  0  0  0  0
   10.3756  -18.4911   21.0425 O   0  0  0  0  0  0  0  0  0  0  0  0
   11.6050  -17.8866   22.9594 C   0  0  0  0  0  0  0  0  0  0  0  0
   10.4692  -17.6930   23.8881 C   0  0  2  0  0  0  0  0  0  0  0  0
    9.8139  -16.4076   23.7242 N   0  0  0  0  0  0  0  0  0  0  0  0
   10.8514  -17.8437   25.3019 C   0  0  0  0  0  0  0  0  0  0  0  0
   11.3681  -16.9371   25.9686 O   0  0  0  0  0  0  0  0  0  0  0  0
    8.6595  -19.2925   27.8835 O   0  0  0  0  0  0  0  0  0  0  0  0
    9.8387  -19.9898   28.0792 C   0  0  0  0  0  0  0  0  0  0  0  0
   10.9866  -19.2898   27.3761 C   0  0  2  0  0  0  0  0  0  0  0  0
   10.6274  -19.1063   25.9859 N   0  0  0  0  0  0  0  0  0  0  0  0
   12.2605  -19.9929   27.5387 C   0  0  0  0  0  0  0  0  0  0  0  0
   12.9014  -20.3451   26.5173 O   0  0  0  0  0  0  0  0  0  0  0  0
   12.7888  -20.2863   28.7826 O   0  0  0  0  0  0  0  0  0  0  0  0
  1  2  1  0
  3  2  1  0
  4  3  1  0
  5  4  1  0
  5  6  1  6
  7  5  1  0
  8  7  2  0
  9 10  1  0
 10 12  1  0
 11 10  2  0
 13 12  1  6
 13 15  1  0
 13 14  1  0
 14  7  1  0
 15 20  1  0
 16 15  2  0
 19 18  1  1
 18 17  1  0
 19 21  1  0
 20 19  1  0
 21 22  2  0
 21 23  1  0
M  END
$$$$
