RSP.pdb
     RDKit          3D

 25 25  0  0  1  0  0  0  0  0999 V2000
   20.4538  -22.1611   -7.4301 N   0  0  0  0  0  0  0  0  0  0  0  0
   20.2509  -22.7967   -8.6825 C   0  0  0  0  0  0  0  0  0  0  0  0
   19.6615  -23.9644   -8.6636 N   0  0  0  0  0  0  0  0  0  0  0  0
   20.6419  -22.2465   -9.9099 N   0  0  0  0  0  0  0  0  0  0  0  0
   21.4597  -21.0476   -9.9610 C   0  0  0  0  0  0  0  0  0  0  0  0
   22.8202  -21.4143   -9.4918 C   0  0  0  0  0  0  0  0  0  0  0  0
   23.9321  -20.8683  -10.2994 C   0  0  0  0  0  0  0  0  0  0  0  0
   23.7628  -20.9210  -11.7744 C   0  0  2  0  0  0  0  0  0  0  0  0
   23.7637  -22.2120  -12.3712 N   0  0  0  0  0  0  0  0  0  0  0  0
   24.8243  -20.0301  -12.3660 C   0  0  0  0  0  0  0  0  0  0  0  0
   24.8840  -18.8098  -12.0666 O   0  0  0  0  0  0  0  0  0  0  0  0
   19.4625  -24.5273   -9.4974 O   0  0  0  0  0  0  0  0  0  0  0  0
   27.7559  -21.5547  -15.1456 C   0  0  0  0  0  0  0  0  0  0  0  0
   28.0513  -20.5141  -14.2654 C   0  0  1  0  0  0  0  0  0  0  0  0
   26.7990  -19.7225  -13.9181 N   0  0  0  0  0  0  0  0  0  0  0  0
   25.8010  -20.5100  -13.2793 C   0  0  0  0  0  0  0  0  0  0  0  0
   26.2562  -18.9978  -15.0649 O   0  0  0  0  0  0  0  0  0  0  0  0
   25.2171  -19.5629  -15.5967 N   0  0  0  0  0  0  0  0  0  0  0  0
   26.6891  -17.8065  -15.6610 C   0  0  0  0  0  0  0  0  0  0  0  0
   27.8119  -16.9366  -15.4681 C   0  0  0  0  0  0  0  0  0  0  0  0
   27.3658  -15.5517  -15.9599 C   0  0  0  0  0  0  0  0  0  0  0  0
   25.8920  -15.7427  -16.2824 C   0  0  1  0  0  0  0  0  0  0  0  0
   25.9207  -17.1788  -16.7586 C   0  0  0  0  0  0  0  0  0  0  0  0
   26.6594  -17.2274  -18.0303 O   0  0  0  0  0  0  0  0  0  0  0  0
   26.3044  -16.6406  -19.2137 O   0  0  0  0  0  0  0  0  0  0  0  0
  1  2  1  0
  2  4  1  0
  3  2  2  0
  4  5  1  0
  6  7  1  0
  6  5  1  0
  7  8  1  0
  8  9  1  6
 10  8  1  0
 10 11  2  0
 14 13  1  1
 13 12  1  0
 14 15  1  0
 15 10  1  0
 16 14  1  0
 17 16  2  0
 18 19  1  0
 18 16  1  0
 20 19  1  0
 21 20  1  0
 22 21  1  0
 22 18  1  0
 22 23  1  6
 24 23  1  0
 25 23  2  0
M  END
$$$$
