RSP.pdb
     RDKit          3D

 25 25  0  0  1  0  0  0  0  0999 V2000
   22.2868  -10.9283    7.9376 N   0  0  0  0  0  0  0  0  0  0  0  0
   21.3107  -11.0103    6.9110 C   0  0  0  0  0  0  0  0  0  0  0  0
   21.7407  -11.2935    5.7083 N   0  0  0  0  0  0  0  0  0  0  0  0
   19.9403  -10.8078    7.1184 N   0  0  0  0  0  0  0  0  0  0  0  0
   19.2915  -11.2882    8.3255 C   0  0  0  0  0  0  0  0  0  0  0  0
   18.3737  -12.3876    7.9323 C   0  0  0  0  0  0  0  0  0  0  0  0
   17.5861  -12.9745    9.0377 C   0  0  0  0  0  0  0  0  0  0  0  0
   16.7093  -14.1210    8.6856 C   0  0  2  0  0  0  0  0  0  0  0  0
   15.3365  -14.0066    9.0390 N   0  0  0  0  0  0  0  0  0  0  0  0
   17.3408  -15.3511    9.2844 C   0  0  0  0  0  0  0  0  0  0  0  0
   17.0738  -15.7068   10.4610 O   0  0  0  0  0  0  0  0  0  0  0  0
   21.1402  -11.3695    4.8806 O   0  0  0  0  0  0  0  0  0  0  0  0
   17.6746  -18.7626    7.4930 C   0  0  0  0  0  0  0  0  0  0  0  0
   18.9406  -18.4532    7.9895 C   0  0  2  0  0  0  0  0  0  0  0  0
   18.8593  -17.3612    9.0461 N   0  0  0  0  0  0  0  0  0  0  0  0
   18.2575  -16.1647    8.5660 C   0  0  0  0  0  0  0  0  0  0  0  0
   20.1487  -17.0950    9.6796 O   0  0  0  0  0  0  0  0  0  0  0  0
   20.8116  -16.1256    9.1294 N   0  0  0  0  0  0  0  0  0  0  0  0
   20.7598  -17.7246   10.7714 C   0  0  0  0  0  0  0  0  0  0  0  0
   20.3614  -18.7469   11.6939 C   0  0  0  0  0  0  0  0  0  0  0  0
   21.1877  -18.5154   12.9675 C   0  0  0  0  0  0  0  0  0  0  0  0
   21.9296  -17.2186   12.6836 C   0  0  1  0  0  0  0  0  0  0  0  0
   22.1320  -17.3639   11.1909 C   0  0  0  0  0  0  0  0  0  0  0  0
   23.0747  -18.4699   10.9598 O   0  0  0  0  0  0  0  0  0  0  0  0
   22.7928  -19.6954   10.4217 O   0  0  0  0  0  0  0  0  0  0  0  0
  1  2  1  0
  2  4  1  0
  3  2  2  0
  4  5  1  0
  6  7  1  0
  6  5  1  0
  7  8  1  0
  8  9  1  1
 10  8  1  0
 10 11  2  0
 14 13  1  1
 13 12  1  0
 14 15  1  0
 15 10  1  0
 16 14  1  0
 17 16  2  0
 18 19  1  0
 18 16  1  0
 20 19  1  0
 21 20  1  0
 22 21  1  0
 22 18  1  0
 22 23  1  6
 24 23  1  0
 25 23  2  0
M  END
$$$$
