RSP.pdb
     RDKit          3D

 25 25  0  0  1  0  0  0  0  0999 V2000
   25.7204  -14.4561  -14.7815 N   0  0  0  0  0  0  0  0  0  0  0  0
   24.8784  -15.4321  -15.3750 C   0  0  0  0  0  0  0  0  0  0  0  0
   23.6625  -15.5293  -14.9023 N   0  0  0  0  0  0  0  0  0  0  0  0
   25.2772  -16.2768  -16.4188 N   0  0  0  0  0  0  0  0  0  0  0  0
   26.5947  -16.1505  -17.0162 C   0  0  0  0  0  0  0  0  0  0  0  0
   27.5275  -16.9910  -16.2230 C   0  0  0  0  0  0  0  0  0  0  0  0
   26.9321  -18.2129  -15.6408 C   0  0  0  0  0  0  0  0  0  0  0  0
   27.8314  -19.0510  -14.8066 C   0  0  2  0  0  0  0  0  0  0  0  0
   29.0584  -19.4567  -15.4004 N   0  0  0  0  0  0  0  0  0  0  0  0
   27.0179  -20.2308  -14.3407 C   0  0  0  0  0  0  0  0  0  0  0  0
   26.8367  -21.2261  -15.0882 O   0  0  0  0  0  0  0  0  0  0  0  0
   22.9472  -16.1667  -15.2681 O   0  0  0  0  0  0  0  0  0  0  0  0
   24.8608  -20.2292  -10.5565 C   0  0  0  0  0  0  0  0  0  0  0  0
   25.4991  -21.3672  -11.0490 C   0  0  1  0  0  0  0  0  0  0  0  0
   25.5849  -21.3291  -12.5678 N   0  0  0  0  0  0  0  0  0  0  0  0
   26.4204  -20.2847  -13.0529 C   0  0  0  0  0  0  0  0  0  0  0  0
   24.2701  -21.3022  -13.2045 O   0  0  0  0  0  0  0  0  0  0  0  0
   23.9336  -20.1359  -13.6610 N   0  0  0  0  0  0  0  0  0  0  0  0
   23.3395  -22.3331  -13.3870 C   0  0  0  0  0  0  0  0  0  0  0  0
   23.2910  -23.7188  -13.0234 C   0  0  0  0  0  0  0  0  0  0  0  0
   22.3550  -24.3917  -14.0382 C   0  0  0  0  0  0  0  0  0  0  0  0
   22.0437  -23.2822  -15.0304 C   0  0  1  0  0  0  0  0  0  0  0  0
   22.0628  -22.0928  -14.0950 C   0  0  0  0  0  0  0  0  0  0  0  0
   20.9122  -22.2046  -13.1847 O   0  0  0  0  0  0  0  0  0  0  0  0
   20.9463  -22.4160  -11.8338 O   0  0  0  0  0  0  0  0  0  0  0  0
  1  2  1  0
  2  4  1  0
  3  2  2  0
  4  5  1  0
  6  7  1  0
  6  5  1  0
  7  8  1  0
  8  9  1  6
 10  8  1  0
 10 11  2  0
 14 13  1  1
 13 12  1  0
 14 15  1  0
 15 10  1  0
 16 14  1  0
 17 16  2  0
 18 19  1  0
 18 16  1  0
 20 19  1  0
 21 20  1  0
 22 21  1  0
 22 18  1  0
 22 23  1  1
 24 23  1  0
 25 23  2  0
M  END
$$$$
