RSP.pdb
     RDKit          3D

 25 25  0  0  1  0  0  0  0  0999 V2000
   19.8004  -19.8679  -12.8136 N   0  0  0  0  0  0  0  0  0  0  0  0
   20.0296  -18.9118  -13.8369 C   0  0  0  0  0  0  0  0  0  0  0  0
   19.2890  -17.8336  -13.8144 N   0  0  0  0  0  0  0  0  0  0  0  0
   20.9888  -19.0632  -14.8464 N   0  0  0  0  0  0  0  0  0  0  0  0
   21.6325  -20.3446  -15.0750 C   0  0  0  0  0  0  0  0  0  0  0  0
   22.9193  -20.3368  -14.3334 C   0  0  0  0  0  0  0  0  0  0  0  0
   24.1101  -20.0033  -15.1442 C   0  0  0  0  0  0  0  0  0  0  0  0
   24.4177  -20.9207  -16.2714 C   0  0  2  0  0  0  0  0  0  0  0  0
   24.5893  -22.2948  -15.9474 N   0  0  0  0  0  0  0  0  0  0  0  0
   25.6252  -20.3562  -16.9742 C   0  0  0  0  0  0  0  0  0  0  0  0
   26.7328  -20.2673  -16.3847 O   0  0  0  0  0  0  0  0  0  0  0  0
   19.3359  -17.0832  -14.5118 O   0  0  0  0  0  0  0  0  0  0  0  0
   27.5864  -18.8580  -21.2094 C   0  0  0  0  0  0  0  0  0  0  0  0
   26.4673  -19.3609  -20.5464 C   0  0  2  0  0  0  0  0  0  0  0  0
   26.6679  -19.3290  -19.0383 N   0  0  0  0  0  0  0  0  0  0  0  0
   25.5816  -19.9008  -18.3192 C   0  0  0  0  0  0  0  0  0  0  0  0
   26.9941  -17.9937  -18.5429 O   0  0  0  0  0  0  0  0  0  0  0  0
   25.9650  -17.3261  -18.1219 N   0  0  0  0  0  0  0  0  0  0  0  0
   28.2323  -17.3440  -18.4609 C   0  0  0  0  0  0  0  0  0  0  0  0
   29.5837  -17.7154  -18.7617 C   0  0  0  0  0  0  0  0  0  0  0  0
   30.4744  -16.8312  -17.8765 C   0  0  0  0  0  0  0  0  0  0  0  0
   29.4812  -16.0851  -16.9993 C   0  0  1  0  0  0  0  0  0  0  0  0
   28.3325  -15.9501  -17.9752 C   0  0  0  0  0  0  0  0  0  0  0  0
   28.7463  -15.0334  -19.0493 O   0  0  0  0  0  0  0  0  0  0  0  0
   28.9980  -15.3527  -20.3552 O   0  0  0  0  0  0  0  0  0  0  0  0
  1  2  1  0
  2  4  1  0
  3  2  2  0
  4  5  1  0
  6  7  1  0
  6  5  1  0
  7  8  1  0
  8  9  1  1
 10  8  1  0
 10 11  2  0
 14 13  1  6
 13 12  1  0
 14 15  1  0
 15 10  1  0
 16 14  1  0
 17 16  2  0
 18 19  1  0
 18 16  1  0
 20 19  1  0
 21 20  1  0
 22 21  1  0
 22 18  1  0
 22 23  1  6
 24 23  1  0
 25 23  2  0
M  END
$$$$
