RSP.pdb
     RDKit          3D

 25 25  0  0  1  0  0  0  0  0999 V2000
   15.4688  -17.3802  -13.7436 N   0  0  0  0  0  0  0  0  0  0  0  0
   16.1774  -18.0355  -14.7839 C   0  0  0  0  0  0  0  0  0  0  0  0
   16.1442  -19.3433  -14.7884 N   0  0  0  0  0  0  0  0  0  0  0  0
   16.8939  -17.3650  -15.7835 N   0  0  0  0  0  0  0  0  0  0  0  0
   16.9556  -15.9144  -15.8088 C   0  0  0  0  0  0  0  0  0  0  0  0
   17.7005  -15.5201  -17.0317 C   0  0  0  0  0  0  0  0  0  0  0  0
   17.9719  -14.0724  -17.1630 C   0  0  0  0  0  0  0  0  0  0  0  0
   18.7631  -13.6554  -18.3492 C   0  0  2  0  0  0  0  0  0  0  0  0
   19.6538  -14.6211  -18.8939 N   0  0  0  0  0  0  0  0  0  0  0  0
   19.4790  -12.3849  -17.9695 C   0  0  0  0  0  0  0  0  0  0  0  0
   20.6248  -12.4192  -17.4516 O   0  0  0  0  0  0  0  0  0  0  0  0
   16.6635  -19.9344  -15.4460 O   0  0  0  0  0  0  0  0  0  0  0  0
   17.5189   -8.5425  -17.8794 C   0  0  0  0  0  0  0  0  0  0  0  0
   18.7915   -8.6594  -18.4378 C   0  0  1  0  0  0  0  0  0  0  0  0
   19.5314   -9.8574  -17.8609 N   0  0  0  0  0  0  0  0  0  0  0  0
   18.9101  -11.0989  -18.1717 C   0  0  0  0  0  0  0  0  0  0  0  0
   19.7797   -9.7273  -16.4269 O   0  0  0  0  0  0  0  0  0  0  0  0
   19.0924  -10.5527  -15.7000 N   0  0  0  0  0  0  0  0  0  0  0  0
   20.6338   -8.8561  -15.7389 C   0  0  0  0  0  0  0  0  0  0  0  0
   21.4607   -7.7494  -16.1213 C   0  0  0  0  0  0  0  0  0  0  0  0
   22.5726   -7.6650  -15.0652 C   0  0  0  0  0  0  0  0  0  0  0  0
   22.3391   -8.8928  -14.1989 C   0  0  1  0  0  0  0  0  0  0  0  0
   20.8301   -8.9752  -14.2772 C   0  0  0  0  0  0  0  0  0  0  0  0
   20.2682   -7.8186  -13.5618 O   0  0  0  0  0  0  0  0  0  0  0  0
   20.2667   -7.6054  -12.2108 O   0  0  0  0  0  0  0  0  0  0  0  0
  1  2  1  0
  2  4  1  0
  3  2  2  0
  4  5  1  0
  6  7  1  0
  6  5  1  0
  7  8  1  0
  8  9  1  1
 10  8  1  0
 10 11  2  0
 14 13  1  6
 13 12  1  0
 14 15  1  0
 15 10  1  0
 16 14  1  0
 17 16  2  0
 18 19  1  0
 18 16  1  0
 20 19  1  0
 21 20  1  0
 22 21  1  0
 22 18  1  0
 22 23  1  1
 24 23  1  0
 25 23  2  0
M  END
$$$$
