RSP.pdb
     RDKit          3D

 25 25  0  0  1  0  0  0  0  0999 V2000
   22.2131  -10.1122    9.0754 N   0  0  0  0  0  0  0  0  0  0  0  0
   22.1728  -10.5065    7.7128 C   0  0  0  0  0  0  0  0  0  0  0  0
   23.2735  -10.3567    7.0218 N   0  0  0  0  0  0  0  0  0  0  0  0
   21.0376  -11.0368    7.0865 N   0  0  0  0  0  0  0  0  0  0  0  0
   20.5347  -12.3507    7.4464 C   0  0  0  0  0  0  0  0  0  0  0  0
   19.0513  -12.2826    7.4254 C   0  0  0  0  0  0  0  0  0  0  0  0
   18.3599  -13.4574    7.9987 C   0  0  0  0  0  0  0  0  0  0  0  0
   17.5247  -14.2523    7.0620 C   0  0  2  0  0  0  0  0  0  0  0  0
   16.2814  -13.6812    6.6738 N   0  0  0  0  0  0  0  0  0  0  0  0
   17.3456  -15.6121    7.6862 C   0  0  0  0  0  0  0  0  0  0  0  0
   16.7626  -15.7430    8.7930 O   0  0  0  0  0  0  0  0  0  0  0  0
   23.3622  -10.5611    6.0208 O   0  0  0  0  0  0  0  0  0  0  0  0
   18.5971  -18.9827    5.5539 C   0  0  0  0  0  0  0  0  0  0  0  0
   17.6646  -19.2025    6.5674 C   0  0  1  0  0  0  0  0  0  0  0  0
   17.7416  -18.1105    7.6243 N   0  0  0  0  0  0  0  0  0  0  0  0
   17.8168  -16.8024    7.0701 C   0  0  0  0  0  0  0  0  0  0  0  0
   18.8085  -18.3426    8.5953 O   0  0  0  0  0  0  0  0  0  0  0  0
   19.7870  -17.4956    8.5098 N   0  0  0  0  0  0  0  0  0  0  0  0
   18.9250  -19.3289    9.5830 C   0  0  0  0  0  0  0  0  0  0  0  0
   18.1197  -20.4425    9.9907 C   0  0  0  0  0  0  0  0  0  0  0  0
   18.4654  -20.6996   11.4648 C   0  0  0  0  0  0  0  0  0  0  0  0
   19.3952  -19.5503   11.8214 C   0  0  1  0  0  0  0  0  0  0  0  0
   20.0925  -19.3661   10.4911 C   0  0  0  0  0  0  0  0  0  0  0  0
   20.9309  -20.5496   10.2430 O   0  0  0  0  0  0  0  0  0  0  0  0
   22.0959  -20.8830   10.8772 O   0  0  0  0  0  0  0  0  0  0  0  0
  1  2  1  0
  2  4  1  0
  3  2  2  0
  4  5  1  0
  6  7  1  0
  6  5  1  0
  7  8  1  0
  8  9  1  1
 10  8  1  0
 10 11  2  0
 14 13  1  1
 13 12  1  0
 14 15  1  0
 15 10  1  0
 16 14  1  0
 17 16  2  0
 18 19  1  0
 18 16  1  0
 20 19  1  0
 21 20  1  0
 22 21  1  0
 22 18  1  0
 22 23  1  6
 24 23  1  0
 25 23  2  0
M  END
$$$$
