RSP.pdb
     RDKit          3D

 25 25  0  0  1  0  0  0  0  0999 V2000
   16.7607  -22.7708  -14.0800 N   0  0  0  0  0  0  0  0  0  0  0  0
   17.2697  -23.9345  -14.7126 C   0  0  0  0  0  0  0  0  0  0  0  0
   16.4560  -24.5769  -15.5105 N   0  0  0  0  0  0  0  0  0  0  0  0
   18.5717  -24.4172  -14.5287 N   0  0  0  0  0  0  0  0  0  0  0  0
   19.5951  -23.5846  -13.9219 C   0  0  0  0  0  0  0  0  0  0  0  0
   19.8565  -22.4524  -14.8468 C   0  0  0  0  0  0  0  0  0  0  0  0
   21.0747  -21.6679  -14.5515 C   0  0  0  0  0  0  0  0  0  0  0  0
   21.5250  -21.6582  -13.1359 C   0  0  2  0  0  0  0  0  0  0  0  0
   20.5345  -21.3838  -12.1529 N   0  0  0  0  0  0  0  0  0  0  0  0
   22.6784  -20.6919  -13.0532 C   0  0  0  0  0  0  0  0  0  0  0  0
   22.5301  -19.4813  -13.3607 O   0  0  0  0  0  0  0  0  0  0  0  0
   16.6844  -25.4558  -15.9868 O   0  0  0  0  0  0  0  0  0  0  0  0
   26.5868  -22.1362  -12.1520 C   0  0  0  0  0  0  0  0  0  0  0  0
   26.2809  -20.8155  -11.8247 C   0  0  1  0  0  0  0  0  0  0  0  0
   25.1503  -20.2867  -12.6951 N   0  0  0  0  0  0  0  0  0  0  0  0
   23.9759  -21.0871  -12.6305 C   0  0  0  0  0  0  0  0  0  0  0  0
   25.5655  -20.0560  -14.0768 O   0  0  0  0  0  0  0  0  0  0  0  0
   24.9413  -20.7947  -14.9409 N   0  0  0  0  0  0  0  0  0  0  0  0
   26.5222  -19.1717  -14.5912 C   0  0  0  0  0  0  0  0  0  0  0  0
   27.5170  -18.3185  -14.0104 C   0  0  0  0  0  0  0  0  0  0  0  0
   27.7597  -17.1946  -15.0285 C   0  0  0  0  0  0  0  0  0  0  0  0
   26.7166  -17.4532  -16.1045 C   0  0  1  0  0  0  0  0  0  0  0  0
   26.6647  -18.9646  -16.0493 C   0  0  0  0  0  0  0  0  0  0  0  0
   27.9475  -19.4876  -16.5453 O   0  0  0  0  0  0  0  0  0  0  0  0
   28.4547  -19.3658  -17.8096 O   0  0  0  0  0  0  0  0  0  0  0  0
  1  2  1  0
  2  4  1  0
  3  2  2  0
  4  5  1  0
  6  7  1  0
  6  5  1  0
  7  8  1  0
  8  9  1  1
 10  8  1  0
 10 11  2  0
 14 13  1  1
 13 12  1  0
 14 15  1  0
 15 10  1  0
 16 14  1  0
 17 16  2  0
 18 19  1  0
 18 16  1  0
 20 19  1  0
 21 20  1  0
 22 21  1  0
 22 18  1  0
 22 23  1  6
 24 23  1  0
 25 23  2  0
M  END
$$$$
