VLH.pdb
     RDKit          3D

 26 26  0  0  1  0  0  0  0  0999 V2000
   26.5976  -17.4811  -16.5199 C   0  0  0  0  0  0  0  0  0  0  0  0
   27.5784  -18.4606  -17.1018 C   0  0  1  0  0  0  0  0  0  0  0  0
   28.5832  -17.8058  -17.9843 C   0  0  0  0  0  0  0  0  0  0  0  0
   28.1708  -19.3992  -16.0928 C   0  0  2  0  0  0  0  0  0  0  0  0
   28.9208  -20.3943  -16.8939 N   0  0  0  0  0  0  0  0  0  0  0  0
   27.1851  -20.0967  -15.2536 C   0  0  0  0  0  0  0  0  0  0  0  0
   26.4570  -21.0476  -15.7152 O   0  0  0  0  0  0  0  0  0  0  0  0
   25.2854  -22.2099  -10.5013 C   0  0  0  0  0  0  0  0  0  0  0  0
   25.3428  -20.7279  -10.6374 C   0  0  1  0  0  0  0  0  0  0  0  0
   25.8046  -20.1830   -9.2752 C   0  0  0  0  0  0  0  0  0  0  0  0
   26.2999  -20.2005  -11.6479 C   0  0  0  0  0  0  0  0  0  0  0  0
   25.9579  -20.4015  -13.0713 C   0  0  2  0  0  0  0  0  0  0  0  0
   26.9865  -19.7625  -13.9010 N   0  0  0  0  0  0  0  0  0  0  0  0
   24.6228  -20.0343  -13.5122 C   0  0  0  0  0  0  0  0  0  0  0  0
   24.3093  -18.7931  -13.5133 O   0  0  0  0  0  0  0  0  0  0  0  0
   23.6169  -20.9062  -13.9476 N   0  0  0  0  0  0  0  0  0  0  0  0
   22.2659  -20.4510  -14.3728 C   0  0  1  0  0  0  0  0  0  0  0  0
   21.9397  -21.3517  -15.5359 C   0  0  0  0  0  0  0  0  0  0  0  0
   20.6174  -21.1754  -16.1327 C   0  0  0  0  0  0  0  0  0  0  0  0
   19.5572  -20.3626  -15.8987 C   0  0  0  0  0  0  0  0  0  0  0  0
   18.5924  -20.6101  -16.8103 N   0  0  0  0  0  0  0  0  0  0  0  0
   19.0476  -21.5695  -17.6078 C   0  0  0  0  0  0  0  0  0  0  0  0
   20.2675  -21.9319  -17.2251 N   0  0  0  0  0  0  0  0  0  0  0  0
   21.3393  -20.8439  -13.2633 C   0  0  0  0  0  0  0  0  0  0  0  0
   20.1793  -20.2366  -12.9090 O   0  0  0  0  0  0  0  0  0  0  0  0
   21.6792  -21.8654  -12.5735 O   0  0  0  0  0  0  0  0  0  0  0  0
  2  1  1  1
  2  3  1  0
  4  6  1  0
  4  2  1  0
  4  5  1  6
  6 13  1  0
  7  6  2  0
  9 10  1  1
  9  8  1  0
 11  9  1  0
 12 11  1  1
 13 12  1  0
 14 15  2  0
 14 12  1  0
 16 14  1  0
 17 24  1  0
 17 16  1  0
 17 18  1  6
 19 18  1  0
 19 23  1  0
 20 19  2  0
 21 20  1  0
 21 22  1  0
 22 23  2  0
 24 25  1  0
 26 24  2  0
M  END
$$$$
