VLH.pdb
     RDKit          3D

 26 26  0  0  1  0  0  0  0  0999 V2000
   11.3569  -12.7981    7.8968 C   0  0  0  0  0  0  0  0  0  0  0  0
   12.7221  -13.3349    7.5681 C   0  0  1  0  0  0  0  0  0  0  0  0
   12.7758  -14.8223    7.6105 C   0  0  0  0  0  0  0  0  0  0  0  0
   13.3289  -12.7367    6.3335 C   0  0  2  0  0  0  0  0  0  0  0  0
   12.4013  -13.1034    5.2382 N   0  0  0  0  0  0  0  0  0  0  0  0
   14.6763  -13.2310    6.0130 C   0  0  0  0  0  0  0  0  0  0  0  0
   14.8773  -14.0862    5.0773 O   0  0  0  0  0  0  0  0  0  0  0  0
   19.9793  -12.8467    4.8762 C   0  0  0  0  0  0  0  0  0  0  0  0
   19.5677  -12.5930    6.2848 C   0  0  1  0  0  0  0  0  0  0  0  0
   20.3904  -11.3869    6.7685 C   0  0  0  0  0  0  0  0  0  0  0  0
   18.1376  -12.2381    6.4945 C   0  0  0  0  0  0  0  0  0  0  0  0
   17.1559  -13.3421    6.4605 C   0  0  2  0  0  0  0  0  0  0  0  0
   15.8174  -12.7943    6.7114 N   0  0  0  0  0  0  0  0  0  0  0  0
   17.4106  -14.5093    7.2878 C   0  0  0  0  0  0  0  0  0  0  0  0
   17.0844  -14.4536    8.5244 O   0  0  0  0  0  0  0  0  0  0  0  0
   17.9854  -15.7177    6.8742 N   0  0  0  0  0  0  0  0  0  0  0  0
   18.1141  -16.9081    7.7571 C   0  0  1  0  0  0  0  0  0  0  0  0
   17.6719  -18.0492    6.8780 C   0  0  0  0  0  0  0  0  0  0  0  0
   16.3074  -18.5289    7.0874 C   0  0  0  0  0  0  0  0  0  0  0  0
   15.2723  -18.1663    7.8851 C   0  0  0  0  0  0  0  0  0  0  0  0
   14.2055  -18.9504    7.6200 N   0  0  0  0  0  0  0  0  0  0  0  0
   14.5720  -19.7954    6.6632 C   0  0  0  0  0  0  0  0  0  0  0  0
   15.8352  -19.5662    6.3200 N   0  0  0  0  0  0  0  0  0  0  0  0
   19.5845  -17.0913    7.9768 C   0  0  0  0  0  0  0  0  0  0  0  0
   20.1858  -17.7529    8.9970 O   0  0  0  0  0  0  0  0  0  0  0  0
   20.3593  -16.5660    7.1059 O   0  0  0  0  0  0  0  0  0  0  0  0
  2  1  1  6
  2  3  1  0
  4  6  1  0
  4  2  1  0
  4  5  1  6
  6 13  1  0
  7  6  2  0
  9 10  1  6
  9  8  1  0
 11  9  1  0
 12 11  1  1
 13 12  1  0
 14 15  2  0
 14 12  1  0
 16 14  1  0
 17 24  1  0
 17 16  1  0
 17 18  1  6
 19 18  1  0
 19 23  1  0
 20 19  2  0
 21 20  1  0
 21 22  1  0
 22 23  2  0
 24 25  1  0
 26 24  2  0
M  END
$$$$
