VLH.pdb
     RDKit          3D

 26 26  0  0  1  0  0  0  0  0999 V2000
   27.1334  -18.8768  -12.5373 C   0  0  0  0  0  0  0  0  0  0  0  0
   27.9740  -20.0419  -12.9801 C   0  0  1  0  0  0  0  0  0  0  0  0
   28.6027  -19.8186  -14.3112 C   0  0  0  0  0  0  0  0  0  0  0  0
   28.9243  -20.5386  -11.9312 C   0  0  2  0  0  0  0  0  0  0  0  0
   29.5040  -21.7777  -12.4998 N   0  0  0  0  0  0  0  0  0  0  0  0
   28.2994  -20.8463  -10.6360 C   0  0  0  0  0  0  0  0  0  0  0  0
   27.5857  -21.8991  -10.4633 O   0  0  0  0  0  0  0  0  0  0  0  0
   28.0525  -20.8738   -5.0600 C   0  0  0  0  0  0  0  0  0  0  0  0
   27.8245  -19.6075   -5.8101 C   0  0  1  0  0  0  0  0  0  0  0  0
   28.4766  -18.4874   -4.9821 C   0  0  0  0  0  0  0  0  0  0  0  0
   28.4295  -19.5337   -7.1680 C   0  0  0  0  0  0  0  0  0  0  0  0
   27.7142  -20.2198   -8.2640 C   0  0  2  0  0  0  0  0  0  0  0  0
   28.4495  -20.0069   -9.5165 N   0  0  0  0  0  0  0  0  0  0  0  0
   26.2971  -19.9461   -8.4325 C   0  0  0  0  0  0  0  0  0  0  0  0
   25.9596  -18.9201   -9.1196 O   0  0  0  0  0  0  0  0  0  0  0  0
   25.2335  -20.6971   -7.9164 N   0  0  0  0  0  0  0  0  0  0  0  0
   23.8365  -20.5898   -8.4162 C   0  0  1  0  0  0  0  0  0  0  0  0
   23.8623  -21.3680   -9.7063 C   0  0  0  0  0  0  0  0  0  0  0  0
   23.3774  -20.6627  -10.8909 C   0  0  0  0  0  0  0  0  0  0  0  0
   22.4816  -19.6705  -11.1199 C   0  0  0  0  0  0  0  0  0  0  0  0
   22.4673  -19.3743  -12.4372 N   0  0  0  0  0  0  0  0  0  0  0  0
   23.3484  -20.1750  -13.0255 C   0  0  0  0  0  0  0  0  0  0  0  0
   23.9148  -20.9645  -12.1189 N   0  0  0  0  0  0  0  0  0  0  0  0
   23.0027  -21.3868   -7.4604 C   0  0  0  0  0  0  0  0  0  0  0  0
   21.6731  -21.2570   -7.2256 O   0  0  0  0  0  0  0  0  0  0  0  0
   23.6119  -22.2903   -6.7915 O   0  0  0  0  0  0  0  0  0  0  0  0
  2  1  1  1
  2  3  1  0
  4  6  1  0
  4  2  1  0
  4  5  1  6
  6 13  1  0
  7  6  2  0
  9 10  1  1
  9  8  1  0
 11  9  1  0
 12 11  1  1
 13 12  1  0
 14 15  2  0
 14 12  1  0
 16 14  1  0
 17 24  1  0
 17 16  1  0
 17 18  1  6
 19 18  1  0
 19 23  1  0
 20 19  2  0
 21 20  1  0
 21 22  1  0
 22 23  2  0
 24 25  1  0
 26 24  2  0
M  END
$$$$
