VLH.pdb
     RDKit          3D

 26 26  0  0  1  0  0  0  0  0999 V2000
   12.3514  -24.6295   -2.8564 C   0  0  0  0  0  0  0  0  0  0  0  0
   13.1903  -24.2302   -1.6746 C   0  0  1  0  0  0  0  0  0  0  0  0
   13.5321  -25.3863   -0.8008 C   0  0  0  0  0  0  0  0  0  0  0  0
   14.3625  -23.3632   -2.0271 C   0  0  2  0  0  0  0  0  0  0  0  0
   15.1570  -24.1688   -2.9835 N   0  0  0  0  0  0  0  0  0  0  0  0
   15.2119  -22.9895   -0.8863 C   0  0  0  0  0  0  0  0  0  0  0  0
   16.1700  -23.7419   -0.4822 O   0  0  0  0  0  0  0  0  0  0  0  0
   18.3535  -19.8139    2.1636 C   0  0  0  0  0  0  0  0  0  0  0  0
   16.9249  -19.4066    2.0573 C   0  0  1  0  0  0  0  0  0  0  0  0
   16.9208  -17.8827    1.8492 C   0  0  0  0  0  0  0  0  0  0  0  0
   16.1617  -19.9887    0.9198 C   0  0  0  0  0  0  0  0  0  0  0  0
   15.8308  -21.4269    0.9943 C   0  0  2  0  0  0  0  0  0  0  0  0
   15.0230  -21.7889   -0.1767 N   0  0  0  0  0  0  0  0  0  0  0  0
   15.2345  -21.9288    2.2208 C   0  0  0  0  0  0  0  0  0  0  0  0
   13.9750  -21.7709    2.3863 O   0  0  0  0  0  0  0  0  0  0  0  0
   15.8984  -22.5824    3.2665 N   0  0  0  0  0  0  0  0  0  0  0  0
   15.2214  -23.0313    4.5128 C   0  0  1  0  0  0  0  0  0  0  0  0
   15.8675  -24.3605    4.8066 C   0  0  0  0  0  0  0  0  0  0  0  0
   15.4006  -25.0493    6.0080 C   0  0  0  0  0  0  0  0  0  0  0  0
   14.5172  -24.7657    6.9971 C   0  0  0  0  0  0  0  0  0  0  0  0
   14.4463  -25.8111    7.8487 N   0  0  0  0  0  0  0  0  0  0  0  0
   15.2786  -26.7406    7.3936 C   0  0  0  0  0  0  0  0  0  0  0  0
   15.8696  -26.3110    6.2836 N   0  0  0  0  0  0  0  0  0  0  0  0
   15.6837  -22.0925    5.5847 C   0  0  0  0  0  0  0  0  0  0  0  0
   15.0784  -21.8405    6.7721 O   0  0  0  0  0  0  0  0  0  0  0  0
   16.7698  -21.4580    5.3550 O   0  0  0  0  0  0  0  0  0  0  0  0
  2  1  1  6
  2  3  1  0
  4  6  1  0
  4  2  1  0
  4  5  1  6
  6 13  1  0
  7  6  2  0
  9 10  1  6
  9  8  1  0
 11  9  1  0
 12 11  1  1
 13 12  1  0
 14 15  2  0
 14 12  1  0
 16 14  1  0
 17 24  1  0
 17 16  1  0
 17 18  1  1
 19 18  1  0
 19 23  1  0
 20 19  2  0
 21 20  1  0
 21 22  1  0
 22 23  2  0
 24 25  1  0
 26 24  2  0
M  END
$$$$
