VLH.pdb
     RDKit          3D

 26 26  0  0  1  0  0  0  0  0999 V2000
   25.5307  -21.3171  -18.7421 C   0  0  0  0  0  0  0  0  0  0  0  0
   26.0553  -20.3441  -17.7232 C   0  0  1  0  0  0  0  0  0  0  0  0
   27.2061  -19.5488  -18.2333 C   0  0  0  0  0  0  0  0  0  0  0  0
   24.9886  -19.5212  -17.0636 C   0  0  2  0  0  0  0  0  0  0  0  0
   25.7209  -18.4397  -16.3644 N   0  0  0  0  0  0  0  0  0  0  0  0
   24.1638  -20.2544  -16.0917 C   0  0  0  0  0  0  0  0  0  0  0  0
   23.4231  -21.2420  -16.4431 O   0  0  0  0  0  0  0  0  0  0  0  0
   25.8502  -20.8344  -10.7989 C   0  0  0  0  0  0  0  0  0  0  0  0
   25.2782  -21.0480  -12.1573 C   0  0  1  0  0  0  0  0  0  0  0  0
   25.1231  -22.5683  -12.3303 C   0  0  0  0  0  0  0  0  0  0  0  0
   23.9340  -20.4574  -12.4012 C   0  0  0  0  0  0  0  0  0  0  0  0
   23.3426  -20.6552  -13.7409 C   0  0  2  0  0  0  0  0  0  0  0  0
   24.1415  -19.9160  -14.7258 N   0  0  0  0  0  0  0  0  0  0  0  0
   21.9237  -20.3898  -13.9079 C   0  0  0  0  0  0  0  0  0  0  0  0
   21.4869  -19.2290  -13.5908 O   0  0  0  0  0  0  0  0  0  0  0  0
   20.9574  -21.2819  -14.3895 N   0  0  0  0  0  0  0  0  0  0  0  0
   19.5170  -20.9351  -14.5242 C   0  0  1  0  0  0  0  0  0  0  0  0
   19.0905  -21.6739  -15.7663 C   0  0  0  0  0  0  0  0  0  0  0  0
   17.6781  -21.5639  -16.1250 C   0  0  0  0  0  0  0  0  0  0  0  0
   16.6077  -20.8986  -15.6243 C   0  0  0  0  0  0  0  0  0  0  0  0
   15.5297  -21.1324  -16.4031 N   0  0  0  0  0  0  0  0  0  0  0  0
   15.9249  -21.9369  -17.3830 C   0  0  0  0  0  0  0  0  0  0  0  0
   17.2167  -22.2154  -17.2434 N   0  0  0  0  0  0  0  0  0  0  0  0
   18.8298  -21.6093  -13.3765 C   0  0  0  0  0  0  0  0  0  0  0  0
   17.6838  -21.2212  -12.7635 O   0  0  0  0  0  0  0  0  0  0  0  0
   19.3850  -22.6686  -12.9243 O   0  0  0  0  0  0  0  0  0  0  0  0
  2  1  1  6
  2  3  1  0
  4  6  1  0
  4  2  1  0
  4  5  1  1
  6 13  1  0
  7  6  2  0
  9 10  1  1
  9  8  1  0
 11  9  1  0
 12 11  1  1
 13 12  1  0
 14 15  2  0
 14 12  1  0
 16 14  1  0
 17 24  1  0
 17 16  1  0
 17 18  1  6
 19 18  1  0
 19 23  1  0
 20 19  2  0
 21 20  1  0
 21 22  1  0
 22 23  2  0
 24 25  1  0
 26 24  2  0
M  END
$$$$
