VLH.pdb
     RDKit          3D

 26 26  0  0  1  0  0  0  0  0999 V2000
   18.0103  -16.5430  -18.3167 C   0  0  0  0  0  0  0  0  0  0  0  0
   18.5922  -15.5214  -17.3799 C   0  0  1  0  0  0  0  0  0  0  0  0
   19.5721  -16.1131  -16.4277 C   0  0  0  0  0  0  0  0  0  0  0  0
   19.0789  -14.2780  -18.0634 C   0  0  2  0  0  0  0  0  0  0  0  0
   20.1064  -14.7483  -19.0213 N   0  0  0  0  0  0  0  0  0  0  0  0
   19.6761  -13.2795  -17.1641 C   0  0  0  0  0  0  0  0  0  0  0  0
   19.0043  -12.7386  -16.2135 O   0  0  0  0  0  0  0  0  0  0  0  0
   24.9603  -13.6387  -15.6054 C   0  0  0  0  0  0  0  0  0  0  0  0
   23.4959  -13.3678  -15.6263 C   0  0  1  0  0  0  0  0  0  0  0  0
   23.0589  -13.2226  -14.1589 C   0  0  0  0  0  0  0  0  0  0  0  0
   23.0715  -12.1197  -16.3173 C   0  0  0  0  0  0  0  0  0  0  0  0
   21.6198  -11.8598  -16.4104 C   0  0  2  0  0  0  0  0  0  0  0  0
   21.0142  -12.8632  -17.2943 N   0  0  0  0  0  0  0  0  0  0  0  0
   21.1866  -10.5181  -16.7623 C   0  0  0  0  0  0  0  0  0  0  0  0
   21.2725  -10.1599  -17.9883 O   0  0  0  0  0  0  0  0  0  0  0  0
   20.6722   -9.5502  -15.8905 N   0  0  0  0  0  0  0  0  0  0  0  0
   20.2956   -8.1770  -16.3213 C   0  0  1  0  0  0  0  0  0  0  0  0
   18.9079   -7.9993  -15.7616 C   0  0  0  0  0  0  0  0  0  0  0  0
   18.3493   -6.6516  -15.8471 C   0  0  0  0  0  0  0  0  0  0  0  0
   18.7350   -5.4854  -16.4218 C   0  0  0  0  0  0  0  0  0  0  0  0
   17.7850   -4.5481  -16.2161 N   0  0  0  0  0  0  0  0  0  0  0  0
   16.8133   -5.1256  -15.5190 C   0  0  0  0  0  0  0  0  0  0  0  0
   17.1239   -6.3956  -15.2807 N   0  0  0  0  0  0  0  0  0  0  0  0
   21.1837   -7.2524  -15.5465 C   0  0  0  0  0  0  0  0  0  0  0  0
   21.5515   -5.9916  -15.8858 O   0  0  0  0  0  0  0  0  0  0  0  0
   21.6464   -7.7011  -14.4423 O   0  0  0  0  0  0  0  0  0  0  0  0
  2  1  1  6
  2  3  1  0
  4  6  1  0
  4  2  1  0
  4  5  1  6
  6 13  1  0
  7  6  2  0
  9 10  1  1
  9  8  1  0
 11  9  1  0
 12 11  1  6
 13 12  1  0
 14 15  2  0
 14 12  1  0
 16 14  1  0
 17 24  1  0
 17 16  1  0
 17 18  1  1
 19 18  1  0
 19 23  1  0
 20 19  2  0
 21 20  1  0
 21 22  1  0
 22 23  2  0
 24 25  1  0
 26 24  2  0
M  END
$$$$
