VWC.pdb
     RDKit          3D

 28 29  0  0  1  0  0  0  0  0999 V2000
    8.3065  -12.4510   20.3701 C   0  0  0  0  0  0  0  0  0  0  0  0
    7.5593  -13.7426   20.4440 C   0  0  1  0  0  0  0  0  0  0  0  0
    6.8058  -13.9062   19.1303 C   0  0  0  0  0  0  0  0  0  0  0  0
    8.4435  -14.9515   20.5920 C   0  0  2  0  0  0  0  0  0  0  0  0
    7.5800  -16.1221   20.4531 N   0  0  0  0  0  0  0  0  0  0  0  0
    9.1443  -15.0108   21.8891 C   0  0  0  0  0  0  0  0  0  0  0  0
   10.0361  -14.1461   22.1527 O   0  0  0  0  0  0  0  0  0  0  0  0
    8.8995  -15.9783   22.8939 N   0  0  0  0  0  0  0  0  0  0  0  0
    9.6156  -16.0351   24.1628 C   0  0  1  0  0  0  0  0  0  0  0  0
    8.6980  -16.3018   25.3027 C   0  0  0  0  0  0  0  0  0  0  0  0
    7.6234  -15.3289   25.5140 C   0  0  0  0  0  0  0  0  0  0  0  0
    6.2766  -15.6171   25.4051 C   0  0  0  0  0  0  0  0  0  0  0  0
    5.5540  -14.5355   25.6889 N   0  0  0  0  0  0  0  0  0  0  0  0
    6.3983  -13.5215   25.9872 C   0  0  0  0  0  0  0  0  0  0  0  0
    6.1049  -12.2200   26.3340 C   0  0  0  0  0  0  0  0  0  0  0  0
    7.1436  -11.3579   26.5857 C   0  0  0  0  0  0  0  0  0  0  0  0
    8.4356  -11.8314   26.4804 C   0  0  0  0  0  0  0  0  0  0  0  0
    8.7149  -13.1325   26.1336 C   0  0  0  0  0  0  0  0  0  0  0  0
    7.6932  -14.0195   25.8767 C   0  0  0  0  0  0  0  0  0  0  0  0
   10.8326  -16.8497   24.1233 C   0  0  0  0  0  0  0  0  0  0  0  0
   10.8593  -17.9653   23.5491 O   0  0  0  0  0  0  0  0  0  0  0  0
   12.0462  -16.4232   24.7306 N   0  0  0  0  0  0  0  0  0  0  0  0
   13.2222  -17.2640   24.7300 C   0  0  1  0  0  0  0  0  0  0  0  0
   14.4982  -16.4519   24.7419 C   0  0  0  0  0  0  0  0  0  0  0  0
   14.5067  -15.4328   23.2403 S   0  0  0  0  0  0  0  0  0  0  0  0
   13.2335  -18.2198   25.8404 C   0  0  0  0  0  0  0  0  0  0  0  0
   12.3100  -18.1596   26.6872 O   0  0  0  0  0  0  0  0  0  0  0  0
   14.2056  -19.1935   26.0171 O   0  0  0  0  0  0  0  0  0  0  0  0
  2  1  1  6
  2  3  1  0
  4  2  1  0
  4  5  1  1
  6  4  1  0
  6  7  2  0
  8  6  1  0
  9  8  1  0
 10 11  1  0
  9 10  1  1
 11 19  1  0
 12 11  2  0
 12 13  1  0
 13 14  1  0
 14 15  1  0
 15 16  2  0
 17 16  1  0
 18 17  2  0
 19 14  2  0
 19 18  1  0
 20  9  1  0
 20 22  1  0
 21 20  2  0
 23 22  1  0
 23 26  1  0
 23 24  1  1
 25 24  1  0
 26 27  2  0
 26 28  1  0
M  END
$$$$
