VWC.pdb
     RDKit          3D

 28 29  0  0  1  0  0  0  0  0999 V2000
    8.1958  -12.5230   20.4064 C   0  0  0  0  0  0  0  0  0  0  0  0
    7.3703  -13.7583   20.5634 C   0  0  1  0  0  0  0  0  0  0  0  0
    6.5325  -13.9073   19.3000 C   0  0  0  0  0  0  0  0  0  0  0  0
    8.1797  -15.0198   20.7002 C   0  0  2  0  0  0  0  0  0  0  0  0
    7.2344  -16.1326   20.6441 N   0  0  0  0  0  0  0  0  0  0  0  0
    8.9468  -15.0914   21.9585 C   0  0  0  0  0  0  0  0  0  0  0  0
    9.8715  -14.2473   22.1704 O   0  0  0  0  0  0  0  0  0  0  0  0
    8.7329  -16.0494   22.9794 N   0  0  0  0  0  0  0  0  0  0  0  0
    9.5248  -16.1296   24.2011 C   0  0  1  0  0  0  0  0  0  0  0  0
    8.6699  -16.3401   25.4000 C   0  0  0  0  0  0  0  0  0  0  0  0
    7.5999  -15.3631   25.6153 C   0  0  0  0  0  0  0  0  0  0  0  0
    6.2516  -15.6453   25.5084 C   0  0  0  0  0  0  0  0  0  0  0  0
    5.5341  -14.5612   25.7959 N   0  0  0  0  0  0  0  0  0  0  0  0
    6.3834  -13.5515   26.0946 C   0  0  0  0  0  0  0  0  0  0  0  0
    6.0962  -12.2495   26.4447 C   0  0  0  0  0  0  0  0  0  0  0  0
    7.1390  -11.3924   26.6963 C   0  0  0  0  0  0  0  0  0  0  0  0
    8.4288  -11.8712   26.5875 C   0  0  0  0  0  0  0  0  0  0  0  0
    8.7019  -13.1727   26.2375 C   0  0  0  0  0  0  0  0  0  0  0  0
    7.6760  -14.0548   25.9807 C   0  0  0  0  0  0  0  0  0  0  0  0
   10.6957  -17.0037   24.0948 C   0  0  0  0  0  0  0  0  0  0  0  0
   10.6072  -18.1700   23.6401 O   0  0  0  0  0  0  0  0  0  0  0  0
   11.9923  -16.5806   24.4991 N   0  0  0  0  0  0  0  0  0  0  0  0
   13.1201  -17.4846   24.4704 C   0  0  1  0  0  0  0  0  0  0  0  0
   14.4062  -16.7735   24.1126 C   0  0  0  0  0  0  0  0  0  0  0  0
   14.1103  -15.8595   22.5728 S   0  0  0  0  0  0  0  0  0  0  0  0
   13.2916  -18.2137   25.7296 C   0  0  0  0  0  0  0  0  0  0  0  0
   12.4605  -18.0181   26.6487 O   0  0  0  0  0  0  0  0  0  0  0  0
   14.3201  -19.1122   25.9730 O   0  0  0  0  0  0  0  0  0  0  0  0
  2  1  1  6
  2  3  1  0
  4  2  1  0
  4  5  1  1
  6  4  1  0
  6  7  2  0
  8  6  1  0
  9  8  1  0
 10 11  1  0
  9 10  1  1
 11 19  1  0
 12 11  2  0
 12 13  1  0
 13 14  1  0
 14 15  1  0
 15 16  2  0
 17 16  1  0
 18 17  2  0
 19 14  2  0
 19 18  1  0
 20  9  1  0
 20 22  1  0
 21 20  2  0
 23 22  1  0
 23 26  1  0
 23 24  1  1
 25 24  1  0
 26 27  2  0
 26 28  1  0
M  END
$$$$
