VWC.pdb
     RDKit          3D

 28 29  0  0  1  0  0  0  0  0999 V2000
    8.6936  -12.5961   20.4369 C   0  0  0  0  0  0  0  0  0  0  0  0
    7.6273  -13.6310   20.5920 C   0  0  1  0  0  0  0  0  0  0  0  0
    6.7506  -13.5685   19.3478 C   0  0  0  0  0  0  0  0  0  0  0  0
    8.1519  -15.0386   20.6844 C   0  0  2  0  0  0  0  0  0  0  0  0
    6.9868  -15.9143   20.7884 N   0  0  0  0  0  0  0  0  0  0  0  0
    9.0365  -15.2602   21.8442 C   0  0  0  0  0  0  0  0  0  0  0  0
   10.1655  -14.6804   21.8834 O   0  0  0  0  0  0  0  0  0  0  0  0
    8.7240  -16.0889   22.9494 N   0  0  0  0  0  0  0  0  0  0  0  0
    9.5714  -16.2306   24.1276 C   0  0  1  0  0  0  0  0  0  0  0  0
    8.7687  -16.3301   25.3759 C   0  0  0  0  0  0  0  0  0  0  0  0
    7.7153  -15.3278   25.5533 C   0  0  0  0  0  0  0  0  0  0  0  0
    6.3688  -15.5669   25.3569 C   0  0  0  0  0  0  0  0  0  0  0  0
    5.6656  -14.4699   25.6307 N   0  0  0  0  0  0  0  0  0  0  0  0
    6.5229  -13.4941   26.0087 C   0  0  0  0  0  0  0  0  0  0  0  0
    6.2513  -12.1938   26.3771 C   0  0  0  0  0  0  0  0  0  0  0  0
    7.3004  -11.3750   26.7155 C   0  0  0  0  0  0  0  0  0  0  0  0
    8.5804  -11.8888   26.6718 C   0  0  0  0  0  0  0  0  0  0  0  0
    8.8379  -13.1882   26.3025 C   0  0  0  0  0  0  0  0  0  0  0  0
    7.8054  -14.0324   25.9592 C   0  0  0  0  0  0  0  0  0  0  0  0
   10.6378  -17.2239   23.9775 C   0  0  0  0  0  0  0  0  0  0  0  0
   10.4052  -18.3789   23.5455 O   0  0  0  0  0  0  0  0  0  0  0  0
   11.9901  -16.9353   24.3115 N   0  0  0  0  0  0  0  0  0  0  0  0
   13.0255  -17.9360   24.1820 C   0  0  1  0  0  0  0  0  0  0  0  0
   13.7385  -17.8433   22.8513 C   0  0  0  0  0  0  0  0  0  0  0  0
   14.3160  -16.1332   22.6631 S   0  0  0  0  0  0  0  0  0  0  0  0
   14.0030  -17.8814   25.2720 C   0  0  0  0  0  0  0  0  0  0  0  0
   13.9180  -16.9442   26.1015 O   0  0  0  0  0  0  0  0  0  0  0  0
   15.0230  -18.8050   25.4474 O   0  0  0  0  0  0  0  0  0  0  0  0
  2  1  1  6
  2  3  1  0
  4  2  1  0
  4  5  1  1
  6  4  1  0
  6  7  2  0
  8  6  1  0
  9  8  1  0
 10 11  1  0
  9 10  1  1
 11 19  1  0
 12 11  2  0
 12 13  1  0
 13 14  1  0
 14 15  1  0
 15 16  2  0
 17 16  1  0
 18 17  2  0
 19 14  2  0
 19 18  1  0
 20  9  1  0
 20 22  1  0
 21 20  2  0
 23 22  1  0
 23 26  1  0
 23 24  1  6
 25 24  1  0
 26 27  2  0
 26 28  1  0
M  END
$$$$
