VWC.pdb
     RDKit          3D

 28 29  0  0  1  0  0  0  0  0999 V2000
   13.6681  -17.3047   21.0319 C   0  0  0  0  0  0  0  0  0  0  0  0
   12.6481  -16.8621   20.0342 C   0  0  1  0  0  0  0  0  0  0  0  0
   12.9673  -17.5611   18.7189 C   0  0  0  0  0  0  0  0  0  0  0  0
   11.2367  -17.2392   20.3961 C   0  0  2  0  0  0  0  0  0  0  0  0
   10.4254  -17.0243   19.1999 N   0  0  0  0  0  0  0  0  0  0  0  0
   10.6850  -16.4461   21.5113 C   0  0  0  0  0  0  0  0  0  0  0  0
   10.9607  -15.2091   21.5890 O   0  0  0  0  0  0  0  0  0  0  0  0
    9.8499  -16.9627   22.5318 N   0  0  0  0  0  0  0  0  0  0  0  0
    9.3516  -16.1759   23.6538 C   0  0  1  0  0  0  0  0  0  0  0  0
    7.8655  -16.1138   23.6674 C   0  0  0  0  0  0  0  0  0  0  0  0
    7.2572  -15.3324   24.7469 C   0  0  0  0  0  0  0  0  0  0  0  0
    6.6526  -15.8799   25.8621 C   0  0  0  0  0  0  0  0  0  0  0  0
    6.2287  -14.9125   26.6727 N   0  0  0  0  0  0  0  0  0  0  0  0
    6.5400  -13.7193   26.1163 C   0  0  0  0  0  0  0  0  0  0  0  0
    6.2925  -12.4487   26.5899 C   0  0  0  0  0  0  0  0  0  0  0  0
    6.6994  -11.3762   25.8352 C   0  0  0  0  0  0  0  0  0  0  0  0
    7.3379  -11.6166   24.6356 C   0  0  0  0  0  0  0  0  0  0  0  0
    7.5790  -12.8895   24.1742 C   0  0  0  0  0  0  0  0  0  0  0  0
    7.1832  -13.9839   24.9106 C   0  0  0  0  0  0  0  0  0  0  0  0
    9.9854  -16.4986   24.9347 C   0  0  0  0  0  0  0  0  0  0  0  0
   10.3276  -17.6711   25.2227 O   0  0  0  0  0  0  0  0  0  0  0  0
   10.2471  -15.5050   25.9185 N   0  0  0  0  0  0  0  0  0  0  0  0
   10.9256  -15.8308   27.1528 C   0  0  1  0  0  0  0  0  0  0  0  0
   11.1423  -14.6096   28.0186 C   0  0  0  0  0  0  0  0  0  0  0  0
    9.5117  -13.8881   28.3568 S   0  0  0  0  0  0  0  0  0  0  0  0
   10.2313  -16.8662   27.9225 C   0  0  0  0  0  0  0  0  0  0  0  0
    9.0629  -17.1752   27.5861 O   0  0  0  0  0  0  0  0  0  0  0  0
   10.7858  -17.5314   29.0061 O   0  0  0  0  0  0  0  0  0  0  0  0
  2  1  1  1
  2  3  1  0
  4  2  1  0
  4  5  1  6
  6  4  1  0
  6  7  2  0
  8  6  1  0
  9  8  1  0
 10 11  1  0
  9 10  1  1
 11 19  1  0
 12 11  2  0
 12 13  1  0
 13 14  1  0
 14 15  1  0
 15 16  2  0
 17 16  1  0
 18 17  2  0
 19 14  2  0
 19 18  1  0
 20  9  1  0
 20 22  1  0
 21 20  2  0
 23 22  1  0
 23 26  1  0
 23 24  1  1
 25 24  1  0
 26 27  2  0
 26 28  1  0
M  END
$$$$
