VWC.pdb
     RDKit          3D

 28 29  0  0  1  0  0  0  0  0999 V2000
    7.5830  -14.0042   18.2505 C   0  0  0  0  0  0  0  0  0  0  0  0
    8.1324  -14.0001   19.6398 C   0  0  1  0  0  0  0  0  0  0  0  0
    7.9939  -12.5817   20.1778 C   0  0  0  0  0  0  0  0  0  0  0  0
    7.3918  -14.9007   20.5914 C   0  0  2  0  0  0  0  0  0  0  0  0
    6.0288  -14.3824   20.6845 N   0  0  0  0  0  0  0  0  0  0  0  0
    7.9905  -14.9497   21.9390 C   0  0  0  0  0  0  0  0  0  0  0  0
    8.1520  -13.8691   22.5859 O   0  0  0  0  0  0  0  0  0  0  0  0
    8.4124  -16.1341   22.5909 N   0  0  0  0  0  0  0  0  0  0  0  0
    9.2465  -16.1537   23.7868 C   0  0  1  0  0  0  0  0  0  0  0  0
    8.4509  -16.4433   25.0097 C   0  0  0  0  0  0  0  0  0  0  0  0
    7.4697  -15.4291   25.4026 C   0  0  0  0  0  0  0  0  0  0  0  0
    6.1004  -15.6033   25.3441 C   0  0  0  0  0  0  0  0  0  0  0  0
    5.4819  -14.5159   25.7999 N   0  0  0  0  0  0  0  0  0  0  0  0
    6.4187  -13.6106   26.1642 C   0  0  0  0  0  0  0  0  0  0  0  0
    6.2484  -12.3444   26.6820 C   0  0  0  0  0  0  0  0  0  0  0  0
    7.3641  -11.5977   26.9700 C   0  0  0  0  0  0  0  0  0  0  0  0
    8.6070  -12.1466   26.7284 C   0  0  0  0  0  0  0  0  0  0  0  0
    8.7634  -13.4114   26.2116 C   0  0  0  0  0  0  0  0  0  0  0  0
    7.6624  -14.1834   25.9144 C   0  0  0  0  0  0  0  0  0  0  0  0
   10.4835  -16.9242   23.6368 C   0  0  0  0  0  0  0  0  0  0  0  0
   10.8130  -17.4325   22.5377 O   0  0  0  0  0  0  0  0  0  0  0  0
   11.3759  -17.1377   24.7237 N   0  0  0  0  0  0  0  0  0  0  0  0
   12.7797  -17.4029   24.5019 C   0  0  1  0  0  0  0  0  0  0  0  0
   13.4134  -16.3728   23.5936 C   0  0  0  0  0  0  0  0  0  0  0  0
   15.1243  -16.8965   23.2900 S   0  0  0  0  0  0  0  0  0  0  0  0
   13.5408  -17.4968   25.7503 C   0  0  0  0  0  0  0  0  0  0  0  0
   13.2512  -16.7114   26.6846 O   0  0  0  0  0  0  0  0  0  0  0  0
   14.5674  -18.4040   25.9677 O   0  0  0  0  0  0  0  0  0  0  0  0
  2  1  1  6
  2  3  1  0
  4  2  1  0
  4  5  1  1
  6  4  1  0
  6  7  2  0
  8  6  1  0
  9  8  1  0
 10 11  1  0
  9 10  1  1
 11 19  1  0
 12 11  2  0
 12 13  1  0
 13 14  1  0
 14 15  1  0
 15 16  2  0
 17 16  1  0
 18 17  2  0
 19 14  2  0
 19 18  1  0
 20  9  1  0
 20 22  1  0
 21 20  2  0
 23 22  1  0
 23 26  1  0
 23 24  1  6
 25 24  1  0
 26 27  2  0
 26 28  1  0
M  END
$$$$
