VLT.pdb
     RDKit          3D

 23 22  0  0  1  0  0  0  0  0999 V2000
    7.6915  -12.4503   20.8963 C   0  0  0  0  0  0  0  0  0  0  0  0
    8.3072  -13.6744   20.3078 C   0  0  2  0  0  0  0  0  0  0  0  0
    7.6368  -13.9523   18.9726 C   0  0  0  0  0  0  0  0  0  0  0  0
    8.1509  -14.8975   21.1577 C   0  0  2  0  0  0  0  0  0  0  0  0
    6.7859  -15.3698   21.1281 N   0  0  0  0  0  0  0  0  0  0  0  0
    8.6353  -14.7368   22.5322 C   0  0  0  0  0  0  0  0  0  0  0  0
    9.8412  -14.5078   22.7613 O   0  0  0  0  0  0  0  0  0  0  0  0
    5.6567  -12.1144   26.4526 C   0  0  0  0  0  0  0  0  0  0  0  0
    6.8114  -12.6521   25.6435 C   0  0  1  0  0  0  0  0  0  0  0  0
    8.0487  -11.8936   26.1928 C   0  0  0  0  0  0  0  0  0  0  0  0
    7.0205  -14.1055   25.7799 C   0  0  0  0  0  0  0  0  0  0  0  0
    8.1383  -14.7380   25.0289 C   0  0  2  0  0  0  0  0  0  0  0  0
    7.7271  -14.8421   23.6089 N   0  0  0  0  0  0  0  0  0  0  0  0
    8.5604  -16.0747   25.4981 C   0  0  0  0  0  0  0  0  0  0  0  0
    7.6591  -16.9832   25.5397 O   0  0  0  0  0  0  0  0  0  0  0  0
   11.6648  -19.8121   25.9255 C   0  0  0  0  0  0  0  0  0  0  0  0
   11.3991  -18.3597   25.5705 C   0  0  1  0  0  0  0  0  0  0  0  0
   11.2902  -18.2617   24.1880 O   0  0  0  0  0  0  0  0  0  0  0  0
   10.1892  -17.8262   26.2941 C   0  0  2  0  0  0  0  0  0  0  0  0
    9.8371  -16.4717   25.9027 N   0  0  0  0  0  0  0  0  0  0  0  0
   10.3220  -17.9967   27.7567 C   0  0  0  0  0  0  0  0  0  0  0  0
   10.2503  -19.2315   28.3422 O   0  0  0  0  0  0  0  0  0  0  0  0
   10.5054  -16.9841   28.4677 O   0  0  0  0  0  0  0  0  0  0  0  0
  2  1  1  1
  2  3  1  0
  4  2  1  0
  4  6  1  0
  4  5  1  1
  6  7  2  0
  6 13  1  0
  9  8  1  1
  9 11  1  0
  9 10  1  0
 12 11  1  1
 13 12  1  0
 14 12  1  0
 14 20  1  0
 15 14  2  0
 17 16  1  6
 18 17  1  0
 19 20  1  1
 19 17  1  0
 19 21  1  0
 21 22  1  0
 23 21  2  0
M  END
$$$$
