VLT.pdb
     RDKit          3D

 23 22  0  0  1  0  0  0  0  0999 V2000
    7.0670  -13.4560   18.9845 C   0  0  0  0  0  0  0  0  0  0  0  0
    7.6014  -13.3130   20.3694 C   0  0  2  0  0  0  0  0  0  0  0  0
    8.8883  -12.5073   20.3047 C   0  0  0  0  0  0  0  0  0  0  0  0
    7.9154  -14.6180   21.0335 C   0  0  2  0  0  0  0  0  0  0  0  0
    6.7819  -15.5114   20.9669 N   0  0  0  0  0  0  0  0  0  0  0  0
    8.4170  -14.4860   22.4048 C   0  0  0  0  0  0  0  0  0  0  0  0
    9.5788  -14.0838   22.6235 O   0  0  0  0  0  0  0  0  0  0  0  0
    5.5489  -12.1586   26.4342 C   0  0  0  0  0  0  0  0  0  0  0  0
    6.7198  -12.6678   25.6299 C   0  0  1  0  0  0  0  0  0  0  0  0
    7.9508  -11.9629   26.2588 C   0  0  0  0  0  0  0  0  0  0  0  0
    6.9031  -14.1300   25.6879 C   0  0  0  0  0  0  0  0  0  0  0  0
    8.0111  -14.7406   24.9050 C   0  0  2  0  0  0  0  0  0  0  0  0
    7.5763  -14.8176   23.4904 N   0  0  0  0  0  0  0  0  0  0  0  0
    8.4480  -16.0844   25.3391 C   0  0  0  0  0  0  0  0  0  0  0  0
    7.5297  -16.9549   25.5350 O   0  0  0  0  0  0  0  0  0  0  0  0
   10.3703  -18.6031   23.5297 C   0  0  0  0  0  0  0  0  0  0  0  0
   11.0161  -18.5481   24.9030 C   0  0  1  0  0  0  0  0  0  0  0  0
   12.2463  -17.9120   24.7812 O   0  0  0  0  0  0  0  0  0  0  0  0
   10.1118  -17.8890   25.9131 C   0  0  2  0  0  0  0  0  0  0  0  0
    9.7549  -16.5252   25.5606 N   0  0  0  0  0  0  0  0  0  0  0  0
   10.6560  -18.0163   27.2819 C   0  0  0  0  0  0  0  0  0  0  0  0
   10.8547  -19.2398   27.8617 O   0  0  0  0  0  0  0  0  0  0  0  0
   10.9399  -16.9768   27.9170 O   0  0  0  0  0  0  0  0  0  0  0  0
  2  1  1  6
  2  3  1  0
  4  2  1  0
  4  6  1  0
  4  5  1  1
  6  7  2  0
  6 13  1  0
  9  8  1  1
  9 11  1  0
  9 10  1  0
 12 11  1  1
 13 12  1  0
 14 12  1  0
 14 20  1  0
 15 14  2  0
 17 16  1  6
 18 17  1  0
 19 20  1  6
 19 17  1  0
 19 21  1  0
 21 22  1  0
 23 21  2  0
M  END
$$$$
