VLT.pdb
     RDKit          3D

 23 22  0  0  1  0  0  0  0  0999 V2000
    8.1261  -17.7103   20.7092 C   0  0  0  0  0  0  0  0  0  0  0  0
    7.0117  -16.7371   20.5223 C   0  0  2  0  0  0  0  0  0  0  0  0
    6.3322  -17.0369   19.1965 C   0  0  0  0  0  0  0  0  0  0  0  0
    7.4570  -15.3075   20.4914 C   0  0  2  0  0  0  0  0  0  0  0  0
    8.3077  -15.0616   19.3499 N   0  0  0  0  0  0  0  0  0  0  0  0
    8.0801  -14.8480   21.7364 C   0  0  0  0  0  0  0  0  0  0  0  0
    9.3225  -14.7772   21.8401 O   0  0  0  0  0  0  0  0  0  0  0  0
    8.1993  -11.8437   26.3615 C   0  0  0  0  0  0  0  0  0  0  0  0
    7.0823  -12.8511   26.2407 C   0  0  1  0  0  0  0  0  0  0  0  0
    5.8416  -12.1164   26.8141 C   0  0  0  0  0  0  0  0  0  0  0  0
    6.8061  -13.2850   24.8586 C   0  0  0  0  0  0  0  0  0  0  0  0
    7.8087  -14.1387   24.1662 C   0  0  2  0  0  0  0  0  0  0  0  0
    7.2655  -14.4814   22.8306 N   0  0  0  0  0  0  0  0  0  0  0  0
    8.1846  -15.3893   24.8588 C   0  0  0  0  0  0  0  0  0  0  0  0
    7.2364  -16.2049   25.1330 O   0  0  0  0  0  0  0  0  0  0  0  0
   10.3197  -18.0503   23.5044 C   0  0  0  0  0  0  0  0  0  0  0  0
   10.8053  -17.8460   24.9287 C   0  0  1  0  0  0  0  0  0  0  0  0
   12.0311  -17.1919   24.8819 O   0  0  0  0  0  0  0  0  0  0  0  0
    9.7823  -17.1171   25.7622 C   0  0  2  0  0  0  0  0  0  0  0  0
    9.4623  -15.7948   25.2516 N   0  0  0  0  0  0  0  0  0  0  0  0
   10.1589  -17.1169   27.1919 C   0  0  0  0  0  0  0  0  0  0  0  0
   10.3047  -18.2828   27.8934 O   0  0  0  0  0  0  0  0  0  0  0  0
   10.3481  -16.0216   27.7655 O   0  0  0  0  0  0  0  0  0  0  0  0
  2  1  1  6
  2  3  1  0
  4  2  1  0
  4  6  1  0
  4  5  1  6
  6  7  2  0
  6 13  1  0
  9  8  1  6
  9 11  1  0
  9 10  1  0
 12 11  1  1
 13 12  1  0
 14 12  1  0
 14 20  1  0
 15 14  2  0
 17 16  1  6
 18 17  1  0
 19 20  1  6
 19 17  1  0
 19 21  1  0
 21 22  1  0
 23 21  2  0
M  END
$$$$
