VLT.pdb
     RDKit          3D

 23 22  0  0  1  0  0  0  0  0999 V2000
    8.5693  -18.3981   20.9476 C   0  0  0  0  0  0  0  0  0  0  0  0
    7.4944  -17.3945   20.7001 C   0  0  2  0  0  0  0  0  0  0  0  0
    6.8557  -17.6995   19.3553 C   0  0  0  0  0  0  0  0  0  0  0  0
    7.9860  -15.9805   20.6591 C   0  0  2  0  0  0  0  0  0  0  0  0
    8.9484  -15.8044   19.5960 N   0  0  0  0  0  0  0  0  0  0  0  0
    8.5030  -15.4895   21.9402 C   0  0  0  0  0  0  0  0  0  0  0  0
    9.7297  -15.4840   22.1736 O   0  0  0  0  0  0  0  0  0  0  0  0
    6.0274  -12.3011   26.6816 C   0  0  0  0  0  0  0  0  0  0  0  0
    7.2149  -12.6450   25.8163 C   0  0  1  0  0  0  0  0  0  0  0  0
    8.2485  -13.2440   26.8067 C   0  0  0  0  0  0  0  0  0  0  0  0
    6.9244  -13.6233   24.7517 C   0  0  0  0  0  0  0  0  0  0  0  0
    8.0421  -14.4462   24.2161 C   0  0  2  0  0  0  0  0  0  0  0  0
    7.6029  -15.0175   22.9212 N   0  0  0  0  0  0  0  0  0  0  0  0
    8.5104  -15.5474   25.0840 C   0  0  0  0  0  0  0  0  0  0  0  0
    7.6379  -16.4156   25.4368 O   0  0  0  0  0  0  0  0  0  0  0  0
   12.0369  -18.8040   26.0614 C   0  0  0  0  0  0  0  0  0  0  0  0
   11.5091  -17.5423   25.4015 C   0  0  1  0  0  0  0  0  0  0  0  0
   11.2886  -17.8135   24.0559 O   0  0  0  0  0  0  0  0  0  0  0  0
   10.2812  -17.0228   26.1047 C   0  0  2  0  0  0  0  0  0  0  0  0
    9.8034  -15.7597   25.5682 N   0  0  0  0  0  0  0  0  0  0  0  0
   10.4731  -17.0007   27.5705 C   0  0  0  0  0  0  0  0  0  0  0  0
   10.3662  -18.1386   28.3231 O   0  0  0  0  0  0  0  0  0  0  0  0
   10.7405  -15.9131   28.1274 O   0  0  0  0  0  0  0  0  0  0  0  0
  2  1  1  6
  2  3  1  0
  4  2  1  0
  4  6  1  0
  4  5  1  6
  6  7  2  0
  6 13  1  0
  9  8  1  1
  9 11  1  0
  9 10  1  0
 12 11  1  1
 13 12  1  0
 14 12  1  0
 14 20  1  0
 15 14  2  0
 17 16  1  1
 18 17  1  0
 19 20  1  6
 19 17  1  0
 19 21  1  0
 21 22  1  0
 23 21  2  0
M  END
$$$$
