VLT.pdb
     RDKit          3D

 23 22  0  0  1  0  0  0  0  0999 V2000
    8.1222  -18.2333   20.9230 C   0  0  0  0  0  0  0  0  0  0  0  0
    7.2877  -17.0547   20.5505 C   0  0  2  0  0  0  0  0  0  0  0  0
    6.8039  -17.2434   19.1223 C   0  0  0  0  0  0  0  0  0  0  0  0
    8.0218  -15.7509   20.6128 C   0  0  2  0  0  0  0  0  0  0  0  0
    9.0925  -15.7201   19.6433 N   0  0  0  0  0  0  0  0  0  0  0  0
    8.4988  -15.3964   21.9531 C   0  0  0  0  0  0  0  0  0  0  0  0
    9.7100  -15.4844   22.2436 O   0  0  0  0  0  0  0  0  0  0  0  0
    8.0900  -12.1548   26.4523 C   0  0  0  0  0  0  0  0  0  0  0  0
    6.9936  -13.1623   26.2073 C   0  0  1  0  0  0  0  0  0  0  0  0
    5.6915  -12.4112   26.5922 C   0  0  0  0  0  0  0  0  0  0  0  0
    6.9020  -13.6290   24.8114 C   0  0  0  0  0  0  0  0  0  0  0  0
    7.9815  -14.5046   24.2807 C   0  0  2  0  0  0  0  0  0  0  0  0
    7.5774  -14.9504   22.9264 N   0  0  0  0  0  0  0  0  0  0  0  0
    8.3083  -15.6958   25.0927 C   0  0  0  0  0  0  0  0  0  0  0  0
    7.3470  -16.5023   25.3474 O   0  0  0  0  0  0  0  0  0  0  0  0
   10.3012  -18.5059   24.0871 C   0  0  0  0  0  0  0  0  0  0  0  0
   10.8252  -18.1685   25.4719 C   0  0  1  0  0  0  0  0  0  0  0  0
   12.0645  -17.5544   25.3315 O   0  0  0  0  0  0  0  0  0  0  0  0
    9.8397  -17.3317   26.2471 C   0  0  2  0  0  0  0  0  0  0  0  0
    9.5521  -16.0537   25.6183 N   0  0  0  0  0  0  0  0  0  0  0  0
   10.2405  -17.2092   27.6649 C   0  0  0  0  0  0  0  0  0  0  0  0
   10.3707  -18.3088   28.4690 O   0  0  0  0  0  0  0  0  0  0  0  0
   10.4652  -16.0708   28.1319 O   0  0  0  0  0  0  0  0  0  0  0  0
  2  1  1  6
  2  3  1  0
  4  2  1  0
  4  6  1  0
  4  5  1  6
  6  7  2  0
  6 13  1  0
  9  8  1  6
  9 11  1  0
  9 10  1  0
 12 11  1  1
 13 12  1  0
 14 12  1  0
 14 20  1  0
 15 14  2  0
 17 16  1  6
 18 17  1  0
 19 20  1  6
 19 17  1  0
 19 21  1  0
 21 22  1  0
 23 21  2  0
M  END
$$$$
