VLT.pdb
     RDKit          3D

 23 22  0  0  1  0  0  0  0  0999 V2000
    8.0865  -17.6718   21.0796 C   0  0  0  0  0  0  0  0  0  0  0  0
    7.0884  -16.5649   21.0317 C   0  0  2  0  0  0  0  0  0  0  0  0
    6.4023  -16.5977   19.6761 C   0  0  0  0  0  0  0  0  0  0  0  0
    7.6876  -15.2033   21.2046 C   0  0  2  0  0  0  0  0  0  0  0  0
    8.6085  -14.9099   20.1308 N   0  0  0  0  0  0  0  0  0  0  0  0
    8.3028  -14.9828   22.5170 C   0  0  0  0  0  0  0  0  0  0  0  0
    9.5448  -14.9634   22.6446 O   0  0  0  0  0  0  0  0  0  0  0  0
    5.7423  -11.9054   26.5131 C   0  0  0  0  0  0  0  0  0  0  0  0
    6.7919  -12.5268   25.6247 C   0  0  1  0  0  0  0  0  0  0  0  0
    8.0916  -11.7525   25.9698 C   0  0  0  0  0  0  0  0  0  0  0  0
    6.9995  -13.9691   25.8517 C   0  0  0  0  0  0  0  0  0  0  0  0
    8.0136  -14.6811   25.0282 C   0  0  2  0  0  0  0  0  0  0  0  0
    7.4809  -14.7901   23.6496 N   0  0  0  0  0  0  0  0  0  0  0  0
    8.3967  -16.0304   25.4950 C   0  0  0  0  0  0  0  0  0  0  0  0
    7.4440  -16.8563   25.7179 O   0  0  0  0  0  0  0  0  0  0  0  0
   10.4382  -18.5708   23.7135 C   0  0  0  0  0  0  0  0  0  0  0  0
   10.9645  -18.5538   25.1379 C   0  0  1  0  0  0  0  0  0  0  0  0
   12.2124  -17.9410   25.1343 O   0  0  0  0  0  0  0  0  0  0  0  0
    9.9894  -17.8947   26.0797 C   0  0  2  0  0  0  0  0  0  0  0  0
    9.6853  -16.5196   25.7215 N   0  0  0  0  0  0  0  0  0  0  0  0
   10.4147  -18.0524   27.4869 C   0  0  0  0  0  0  0  0  0  0  0  0
   10.6610  -16.9688   28.2854 O   0  0  0  0  0  0  0  0  0  0  0  0
   10.5486  -19.2064   27.9506 O   0  0  0  0  0  0  0  0  0  0  0  0
  2  1  1  6
  2  3  1  0
  4  2  1  0
  4  6  1  0
  4  5  1  6
  6  7  2  0
  6 13  1  0
  9  8  1  1
  9 11  1  0
  9 10  1  0
 12 11  1  1
 13 12  1  0
 14 12  1  0
 14 20  1  0
 15 14  2  0
 17 16  1  6
 18 17  1  0
 19 20  1  6
 19 17  1  0
 19 21  1  0
 21 22  1  0
 23 21  2  0
M  END
$$$$
