VLT.pdb
     RDKit          3D

 23 22  0  0  1  0  0  0  0  0999 V2000
    8.7237  -18.5885   20.2191 C   0  0  0  0  0  0  0  0  0  0  0  0
    9.1400  -17.8658   21.4554 C   0  0  2  0  0  0  0  0  0  0  0  0
    8.3446  -18.4215   22.6250 C   0  0  0  0  0  0  0  0  0  0  0  0
    8.8977  -16.3889   21.4022 C   0  0  2  0  0  0  0  0  0  0  0  0
    9.5754  -15.8000   20.2703 N   0  0  0  0  0  0  0  0  0  0  0  0
    9.2182  -15.6849   22.6477 C   0  0  0  0  0  0  0  0  0  0  0  0
   10.4041  -15.4555   22.9642 O   0  0  0  0  0  0  0  0  0  0  0  0
    8.1493  -11.9580   26.5733 C   0  0  0  0  0  0  0  0  0  0  0  0
    7.1536  -13.0811   26.4173 C   0  0  1  0  0  0  0  0  0  0  0  0
    5.7725  -12.3922   26.5775 C   0  0  0  0  0  0  0  0  0  0  0  0
    7.2163  -13.7681   25.1139 C   0  0  0  0  0  0  0  0  0  0  0  0
    8.4090  -14.6020   24.8048 C   0  0  2  0  0  0  0  0  0  0  0  0
    8.1733  -15.2616   23.4988 N   0  0  0  0  0  0  0  0  0  0  0  0
    8.7525  -15.6375   25.8023 C   0  0  0  0  0  0  0  0  0  0  0  0
    7.8526  -16.5108   26.0613 O   0  0  0  0  0  0  0  0  0  0  0  0
   11.0498  -18.3089   25.4293 C   0  0  0  0  0  0  0  0  0  0  0  0
   11.3853  -17.7743   26.8105 C   0  0  1  0  0  0  0  0  0  0  0  0
   12.6015  -17.1051   26.7355 O   0  0  0  0  0  0  0  0  0  0  0  0
   10.2740  -16.9135   27.3550 C   0  0  2  0  0  0  0  0  0  0  0  0
    9.9532  -15.7822   26.5012 N   0  0  0  0  0  0  0  0  0  0  0  0
   10.5322  -16.5317   28.7598 C   0  0  0  0  0  0  0  0  0  0  0  0
   10.6146  -15.2200   29.1409 O   0  0  0  0  0  0  0  0  0  0  0  0
   10.6759  -17.4346   29.6134 O   0  0  0  0  0  0  0  0  0  0  0  0
  2  1  1  6
  2  3  1  0
  4  2  1  0
  4  6  1  0
  4  5  1  6
  6  7  2  0
  6 13  1  0
  9  8  1  6
  9 11  1  0
  9 10  1  0
 12 11  1  1
 13 12  1  0
 14 12  1  0
 14 20  1  0
 15 14  2  0
 17 16  1  6
 18 17  1  0
 19 20  1  6
 19 17  1  0
 19 21  1  0
 21 22  1  0
 23 21  2  0
M  END
$$$$
