VLT.pdb
     RDKit          3D

 23 22  0  0  1  0  0  0  0  0999 V2000
    9.0708  -12.9918   19.7095 C   0  0  0  0  0  0  0  0  0  0  0  0
    7.7365  -13.5843   20.0138 C   0  0  2  0  0  0  0  0  0  0  0  0
    6.9442  -12.5816   20.8362 C   0  0  0  0  0  0  0  0  0  0  0  0
    7.8060  -14.8594   20.7961 C   0  0  2  0  0  0  0  0  0  0  0  0
    6.5125  -15.5011   20.8440 N   0  0  0  0  0  0  0  0  0  0  0  0
    8.3821  -14.7086   22.1358 C   0  0  0  0  0  0  0  0  0  0  0  0
    9.5786  -14.3829   22.2832 O   0  0  0  0  0  0  0  0  0  0  0  0
    5.5203  -12.3664   26.1911 C   0  0  0  0  0  0  0  0  0  0  0  0
    6.7059  -12.8253   25.3781 C   0  0  1  0  0  0  0  0  0  0  0  0
    7.8937  -11.9949   25.9325 C   0  0  0  0  0  0  0  0  0  0  0  0
    7.0054  -14.2637   25.5044 C   0  0  0  0  0  0  0  0  0  0  0  0
    8.0850  -14.8433   24.6606 C   0  0  2  0  0  0  0  0  0  0  0  0
    7.5742  -14.9342   23.2724 N   0  0  0  0  0  0  0  0  0  0  0  0
    8.5836  -16.1737   25.0689 C   0  0  0  0  0  0  0  0  0  0  0  0
    7.7025  -17.0642   25.3339 O   0  0  0  0  0  0  0  0  0  0  0  0
   10.8103  -18.6167   23.2260 C   0  0  0  0  0  0  0  0  0  0  0  0
   11.3451  -18.5204   24.6441 C   0  0  1  0  0  0  0  0  0  0  0  0
   12.5369  -17.8053   24.6130 O   0  0  0  0  0  0  0  0  0  0  0  0
   10.3257  -17.9225   25.5798 C   0  0  2  0  0  0  0  0  0  0  0  0
    9.9131  -16.5822   25.1988 N   0  0  0  0  0  0  0  0  0  0  0  0
   10.7686  -18.0205   26.9870 C   0  0  0  0  0  0  0  0  0  0  0  0
   10.9254  -19.2314   27.6048 O   0  0  0  0  0  0  0  0  0  0  0  0
   11.0047  -16.9675   27.6196 O   0  0  0  0  0  0  0  0  0  0  0  0
  2  1  1  1
  2  3  1  0
  4  2  1  0
  4  6  1  0
  4  5  1  1
  6  7  2  0
  6 13  1  0
  9  8  1  1
  9 11  1  0
  9 10  1  0
 12 11  1  1
 13 12  1  0
 14 12  1  0
 14 20  1  0
 15 14  2  0
 17 16  1  6
 18 17  1  0
 19 20  1  6
 19 17  1  0
 19 21  1  0
 21 22  1  0
 23 21  2  0
M  END
$$$$
