VLT.pdb
     RDKit          3D

 23 22  0  0  1  0  0  0  0  0999 V2000
    9.0635  -21.4429   17.2061 C   0  0  0  0  0  0  0  0  0  0  0  0
    9.6004  -20.2719   17.9573 C   0  0  2  0  0  0  0  0  0  0  0  0
    9.0944  -20.3489   19.3882 C   0  0  0  0  0  0  0  0  0  0  0  0
    9.1776  -18.9492   17.3966 C   0  0  2  0  0  0  0  0  0  0  0  0
    9.5971  -18.8196   16.0202 N   0  0  0  0  0  0  0  0  0  0  0  0
    9.5996  -17.7969   18.1989 C   0  0  0  0  0  0  0  0  0  0  0  0
   10.7938  -17.4325   18.2139 O   0  0  0  0  0  0  0  0  0  0  0  0
    8.5322  -12.7601   20.3236 C   0  0  0  0  0  0  0  0  0  0  0  0
    7.7951  -13.9485   20.8906 C   0  0  1  0  0  0  0  0  0  0  0  0
    6.3555  -13.4237   21.1358 C   0  0  0  0  0  0  0  0  0  0  0  0
    7.7499  -15.1171   19.9921 C   0  0  0  0  0  0  0  0  0  0  0  0
    8.9860  -15.9253   19.8118 C   0  0  2  0  0  0  0  0  0  0  0  0
    8.6440  -17.0913   18.9635 N   0  0  0  0  0  0  0  0  0  0  0  0
    9.6277  -16.4139   21.0506 C   0  0  0  0  0  0  0  0  0  0  0  0
    9.0132  -17.3339   21.6950 O   0  0  0  0  0  0  0  0  0  0  0  0
   13.6278  -17.2867   23.8501 C   0  0  0  0  0  0  0  0  0  0  0  0
   12.9858  -16.4997   22.7210 C   0  0  1  0  0  0  0  0  0  0  0  0
   13.5478  -16.9210   21.5213 O   0  0  0  0  0  0  0  0  0  0  0  0
   11.4839  -16.6273   22.7427 C   0  0  2  0  0  0  0  0  0  0  0  0
   10.8373  -15.9915   21.6072 N   0  0  0  0  0  0  0  0  0  0  0  0
   10.9295  -16.2016   24.0455 C   0  0  0  0  0  0  0  0  0  0  0  0
   10.1143  -15.1078   24.1530 O   0  0  0  0  0  0  0  0  0  0  0  0
   11.2160  -16.8629   25.0678 O   0  0  0  0  0  0  0  0  0  0  0  0
  2  1  1  6
  2  3  1  0
  4  2  1  0
  4  6  1  0
  4  5  1  6
  6  7  2  0
  6 13  1  0
  9  8  1  6
  9 11  1  0
  9 10  1  0
 12 11  1  1
 13 12  1  0
 14 12  1  0
 14 20  1  0
 15 14  2  0
 17 16  1  1
 18 17  1  0
 19 20  1  6
 19 17  1  0
 19 21  1  0
 21 22  1  0
 23 21  2  0
M  END
$$$$
