CWN.pdb
     RDKit          3D

 29 30  0  0  1  0  0  0  0  0999 V2000
    6.6787  -15.0524   20.0886 N   0  0  0  0  0  0  0  0  0  0  0  0
    7.0060  -15.9916   21.0991 C   0  0  1  0  0  0  0  0  0  0  0  0
    7.4723  -17.2738   20.4072 C   0  0  0  0  0  0  0  0  0  0  0  0
    9.0726  -16.9859   19.5907 S   0  0  0  0  0  0  0  0  0  0  0  0
    8.1208  -15.5642   21.9997 C   0  0  0  0  0  0  0  0  0  0  0  0
    8.8943  -14.6678   21.5949 O   0  0  0  0  0  0  0  0  0  0  0  0
    8.2631  -16.1770   23.2692 N   0  0  0  0  0  0  0  0  0  0  0  0
    9.2728  -15.8082   24.2191 C   0  0  1  0  0  0  0  0  0  0  0  0
    8.7816  -16.0147   25.6341 C   0  0  0  0  0  0  0  0  0  0  0  0
    7.5570  -15.1816   25.8039 C   0  0  0  0  0  0  0  0  0  0  0  0
    6.2595  -15.6232   25.7302 C   0  0  0  0  0  0  0  0  0  0  0  0
    5.4684  -14.5462   25.9477 N   0  0  0  0  0  0  0  0  0  0  0  0
    6.1849  -13.4435   26.1567 C   0  0  0  0  0  0  0  0  0  0  0  0
    5.9412  -12.1150   26.4229 C   0  0  0  0  0  0  0  0  0  0  0  0
    6.9165  -11.1631   26.6042 C   0  0  0  0  0  0  0  0  0  0  0  0
    8.2502  -11.5720   26.5121 C   0  0  0  0  0  0  0  0  0  0  0  0
    8.5417  -12.8983   26.2461 C   0  0  0  0  0  0  0  0  0  0  0  0
    7.5151  -13.8094   26.0728 C   0  0  0  0  0  0  0  0  0  0  0  0
   10.5309  -16.4504   23.8987 C   0  0  0  0  0  0  0  0  0  0  0  0
   10.5119  -17.6875   23.5571 O   0  0  0  0  0  0  0  0  0  0  0  0
   16.4670  -15.8959   23.5562 N   0  0  0  0  0  0  0  0  0  0  0  0
   15.2870  -16.0873   22.7717 C   0  0  0  0  0  0  0  0  0  0  0  0
   15.3475  -16.8439   21.7870 O   0  0  0  0  0  0  0  0  0  0  0  0
   14.0232  -15.4093   23.1156 C   0  0  0  0  0  0  0  0  0  0  0  0
   12.9894  -16.4156   23.6191 C   0  0  2  0  0  0  0  0  0  0  0  0
   11.7624  -15.7527   23.9558 N   0  0  0  0  0  0  0  0  0  0  0  0
   13.5154  -17.0759   24.8390 C   0  0  0  0  0  0  0  0  0  0  0  0
   14.4833  -18.0524   24.6804 O   0  0  0  0  0  0  0  0  0  0  0  0
   13.1131  -16.7745   25.9569 O   0  0  0  0  0  0  0  0  0  0  0  0
  2  1  1  6
  2  3  1  0
  3  4  1  0
  5  6  2  0
  5  2  1  0
  7  5  1  0
  8  7  1  0
  8  9  1  1
 10  9  1  0
 10 18  1  0
 11 12  1  0
 11 10  2  0
 12 13  1  0
 13 18  2  0
 13 14  1  0
 14 15  2  0
 15 16  1  0
 17 16  2  0
 18 17  1  0
 19  8  1  0
 19 20  2  0
 22 24  1  0
 22 21  1  0
 23 22  2  0
 25 26  1  0
 25 24  1  1
 26 19  1  0
 27 25  1  0
 28 27  1  0
 29 27  2  0
M  END
$$$$
