CWN.pdb
     RDKit          3D

 29 30  0  0  1  0  0  0  0  0999 V2000
    8.0681  -15.2388   19.8498 N   0  0  0  0  0  0  0  0  0  0  0  0
    7.9400  -16.2112   20.8737 C   0  0  1  0  0  0  0  0  0  0  0  0
    8.4001  -17.5525   20.2998 C   0  0  0  0  0  0  0  0  0  0  0  0
   10.1906  -17.5038   19.9797 S   0  0  0  0  0  0  0  0  0  0  0  0
    8.7858  -15.9514   22.0794 C   0  0  0  0  0  0  0  0  0  0  0  0
    9.8063  -15.2408   21.9409 O   0  0  0  0  0  0  0  0  0  0  0  0
    8.4084  -16.5077   23.3265 N   0  0  0  0  0  0  0  0  0  0  0  0
    9.1599  -16.3275   24.5351 C   0  0  1  0  0  0  0  0  0  0  0  0
    8.2543  -16.3815   25.7448 C   0  0  0  0  0  0  0  0  0  0  0  0
    7.2637  -15.2761   25.6063 C   0  0  0  0  0  0  0  0  0  0  0  0
    5.9853  -15.3894   25.1195 C   0  0  0  0  0  0  0  0  0  0  0  0
    5.4370  -14.1526   25.1728 N   0  0  0  0  0  0  0  0  0  0  0  0
    6.2901  -13.2570   25.6657 C   0  0  0  0  0  0  0  0  0  0  0  0
    6.2908  -11.9092   25.9459 C   0  0  0  0  0  0  0  0  0  0  0  0
    7.3566  -11.2226   26.4778 C   0  0  0  0  0  0  0  0  0  0  0  0
    8.5224  -11.9430   26.7542 C   0  0  0  0  0  0  0  0  0  0  0  0
    8.5663  -13.3003   26.4884 C   0  0  0  0  0  0  0  0  0  0  0  0
    7.4601  -13.9349   25.9520 C   0  0  0  0  0  0  0  0  0  0  0  0
   10.2938  -17.2280   24.5677 C   0  0  0  0  0  0  0  0  0  0  0  0
   10.1169  -18.4417   24.1894 O   0  0  0  0  0  0  0  0  0  0  0  0
   14.3690  -15.1556   23.5667 N   0  0  0  0  0  0  0  0  0  0  0  0
   14.1688  -16.5570   23.7683 C   0  0  0  0  0  0  0  0  0  0  0  0
   14.1532  -17.3016   22.7728 O   0  0  0  0  0  0  0  0  0  0  0  0
   13.9864  -17.1155   25.1211 C   0  0  0  0  0  0  0  0  0  0  0  0
   12.6093  -17.7633   25.2575 C   0  0  2  0  0  0  0  0  0  0  0  0
   11.5731  -16.8039   25.0038 N   0  0  0  0  0  0  0  0  0  0  0  0
   12.4507  -18.2689   26.6431 C   0  0  0  0  0  0  0  0  0  0  0  0
   13.3367  -19.2362   27.0847 O   0  0  0  0  0  0  0  0  0  0  0  0
   11.5669  -17.8509   27.3823 O   0  0  0  0  0  0  0  0  0  0  0  0
  2  1  1  6
  2  3  1  0
  3  4  1  0
  5  6  2  0
  5  2  1  0
  7  5  1  0
  8  7  1  0
  8  9  1  1
 10  9  1  0
 10 18  1  0
 11 12  1  0
 11 10  2  0
 12 13  1  0
 13 18  2  0
 13 14  1  0
 14 15  2  0
 15 16  1  0
 17 16  2  0
 18 17  1  0
 19  8  1  0
 19 20  2  0
 22 24  1  0
 22 21  1  0
 23 22  2  0
 25 26  1  0
 25 24  1  1
 26 19  1  0
 27 25  1  0
 28 27  1  0
 29 27  2  0
M  END
$$$$
