CWN.pdb
     RDKit          3D

 29 30  0  0  1  0  0  0  0  0999 V2000
   11.2026  -16.1662   20.0161 N   0  0  0  0  0  0  0  0  0  0  0  0
   10.3196  -16.7589   20.9539 C   0  0  1  0  0  0  0  0  0  0  0  0
   10.6728  -18.2442   21.0491 C   0  0  0  0  0  0  0  0  0  0  0  0
   12.3619  -18.4352   21.6979 S   0  0  0  0  0  0  0  0  0  0  0  0
   10.4298  -16.2053   22.3388 C   0  0  0  0  0  0  0  0  0  0  0  0
   11.4149  -15.4821   22.6074 O   0  0  0  0  0  0  0  0  0  0  0  0
    9.4262  -16.5100   23.2913 N   0  0  0  0  0  0  0  0  0  0  0  0
    9.4930  -16.1130   24.6682 C   0  0  1  0  0  0  0  0  0  0  0  0
    8.1069  -15.9763   25.2567 C   0  0  0  0  0  0  0  0  0  0  0  0
    7.5223  -14.7126   24.7241 C   0  0  0  0  0  0  0  0  0  0  0  0
    7.1403  -14.4799   23.4263 C   0  0  0  0  0  0  0  0  0  0  0  0
    6.6617  -13.2142   23.3820 N   0  0  0  0  0  0  0  0  0  0  0  0
    6.7149  -12.6259   24.5754 C   0  0  0  0  0  0  0  0  0  0  0  0
    6.3810  -11.4048   25.1162 C   0  0  0  0  0  0  0  0  0  0  0  0
    6.5501  -11.0630   26.4370 C   0  0  0  0  0  0  0  0  0  0  0  0
    7.0999  -12.0225   27.2924 C   0  0  0  0  0  0  0  0  0  0  0  0
    7.4504  -13.2639   26.7916 C   0  0  0  0  0  0  0  0  0  0  0  0
    7.2558  -13.5479   25.4517 C   0  0  0  0  0  0  0  0  0  0  0  0
   10.3970  -16.9743   25.4023 C   0  0  0  0  0  0  0  0  0  0  0  0
   10.4566  -16.8462   26.6781 O   0  0  0  0  0  0  0  0  0  0  0  0
   13.3423  -20.9204   26.7867 N   0  0  0  0  0  0  0  0  0  0  0  0
   12.1787  -21.3009   26.0479 C   0  0  0  0  0  0  0  0  0  0  0  0
   11.8353  -22.4958   26.0591 O   0  0  0  0  0  0  0  0  0  0  0  0
   11.3967  -20.3066   25.2896 C   0  0  0  0  0  0  0  0  0  0  0  0
   11.9479  -18.8993   25.5149 C   0  0  2  0  0  0  0  0  0  0  0  0
   11.2052  -17.9383   24.7512 N   0  0  0  0  0  0  0  0  0  0  0  0
   13.3624  -18.8597   25.0697 C   0  0  0  0  0  0  0  0  0  0  0  0
   13.6542  -18.1803   23.8997 O   0  0  0  0  0  0  0  0  0  0  0  0
   14.2528  -19.4076   25.7095 O   0  0  0  0  0  0  0  0  0  0  0  0
  2  1  1  6
  2  3  1  0
  3  4  1  0
  5  6  2  0
  5  2  1  0
  7  5  1  0
  8  7  1  0
  8  9  1  1
 10  9  1  0
 10 18  1  0
 11 12  1  0
 11 10  2  0
 12 13  1  0
 13 18  2  0
 13 14  1  0
 14 15  2  0
 15 16  1  0
 17 16  2  0
 18 17  1  0
 19  8  1  0
 19 20  2  0
 22 24  1  0
 22 21  1  0
 23 22  2  0
 25 26  1  0
 25 24  1  6
 26 19  1  0
 27 25  1  0
 28 27  1  0
 29 27  2  0
M  END
$$$$
