CWN.pdb
     RDKit          3D

 29 30  0  0  1  0  0  0  0  0999 V2000
    6.4052  -14.2600   20.4701 N   0  0  0  0  0  0  0  0  0  0  0  0
    7.1105  -15.4346   20.8349 C   0  0  1  0  0  0  0  0  0  0  0  0
    7.9738  -15.8469   19.6412 C   0  0  0  0  0  0  0  0  0  0  0  0
    8.3535  -17.6235   19.7401 S   0  0  0  0  0  0  0  0  0  0  0  0
    8.0406  -15.2602   21.9929 C   0  0  0  0  0  0  0  0  0  0  0  0
    8.7166  -14.2089   22.0521 O   0  0  0  0  0  0  0  0  0  0  0  0
    8.1241  -16.2760   22.9769 N   0  0  0  0  0  0  0  0  0  0  0  0
    8.9569  -16.1855   24.1415 C   0  0  1  0  0  0  0  0  0  0  0  0
    8.1620  -16.4731   25.3951 C   0  0  0  0  0  0  0  0  0  0  0  0
    7.2140  -15.3389   25.5885 C   0  0  0  0  0  0  0  0  0  0  0  0
    5.8585  -15.3698   25.3747 C   0  0  0  0  0  0  0  0  0  0  0  0
    5.3885  -14.1360   25.6746 N   0  0  0  0  0  0  0  0  0  0  0  0
    6.3643  -13.3199   26.0681 C   0  0  0  0  0  0  0  0  0  0  0  0
    6.4829  -12.0130   26.4838 C   0  0  0  0  0  0  0  0  0  0  0  0
    7.6653  -11.4134   26.8477 C   0  0  0  0  0  0  0  0  0  0  0  0
    8.8302  -12.1844   26.7921 C   0  0  0  0  0  0  0  0  0  0  0  0
    8.7578  -13.5034   26.3799 C   0  0  0  0  0  0  0  0  0  0  0  0
    7.5372  -14.0500   26.0258 C   0  0  0  0  0  0  0  0  0  0  0  0
   10.1567  -16.9789   23.9713 C   0  0  0  0  0  0  0  0  0  0  0  0
   10.0284  -18.2064   23.6189 O   0  0  0  0  0  0  0  0  0  0  0  0
   13.6451  -14.7380   21.7484 N   0  0  0  0  0  0  0  0  0  0  0  0
   13.6031  -16.1056   22.1635 C   0  0  0  0  0  0  0  0  0  0  0  0
   13.3921  -16.9787   21.3039 O   0  0  0  0  0  0  0  0  0  0  0  0
   13.8062  -16.4816   23.5751 C   0  0  0  0  0  0  0  0  0  0  0  0
   12.6102  -17.2740   24.1011 C   0  0  2  0  0  0  0  0  0  0  0  0
   11.4479  -16.4370   24.1848 N   0  0  0  0  0  0  0  0  0  0  0  0
   12.9258  -17.7752   25.4612 C   0  0  0  0  0  0  0  0  0  0  0  0
   12.1501  -17.3223   26.5142 O   0  0  0  0  0  0  0  0  0  0  0  0
   13.8419  -18.5653   25.6581 O   0  0  0  0  0  0  0  0  0  0  0  0
  2  1  1  6
  2  3  1  0
  3  4  1  0
  5  6  2  0
  5  2  1  0
  7  5  1  0
  8  7  1  0
  8  9  1  1
 10  9  1  0
 10 18  1  0
 11 12  1  0
 11 10  2  0
 12 13  1  0
 13 18  2  0
 13 14  1  0
 14 15  2  0
 15 16  1  0
 17 16  2  0
 18 17  1  0
 19  8  1  0
 19 20  2  0
 22 24  1  0
 22 21  1  0
 23 22  2  0
 25 26  1  0
 25 24  1  1
 26 19  1  0
 27 25  1  0
 28 27  1  0
 29 27  2  0
M  END
$$$$
