CWN.pdb
     RDKit          3D

 29 30  0  0  1  0  0  0  0  0999 V2000
    7.3311  -17.2019   21.6621 N   0  0  0  0  0  0  0  0  0  0  0  0
    7.9710  -15.9658   21.3921 C   0  0  1  0  0  0  0  0  0  0  0  0
    6.8825  -14.8993   21.2593 C   0  0  0  0  0  0  0  0  0  0  0  0
    5.3665  -15.6470   20.5860 S   0  0  0  0  0  0  0  0  0  0  0  0
    8.8934  -15.5004   22.4733 C   0  0  0  0  0  0  0  0  0  0  0  0
    9.5317  -14.4403   22.2872 O   0  0  0  0  0  0  0  0  0  0  0  0
    9.0123  -16.2625   23.6617 N   0  0  0  0  0  0  0  0  0  0  0  0
    9.8256  -15.8710   24.7768 C   0  0  1  0  0  0  0  0  0  0  0  0
    9.0990  -16.1065   26.0817 C   0  0  0  0  0  0  0  0  0  0  0  0
    7.8102  -15.3604   26.0119 C   0  0  0  0  0  0  0  0  0  0  0  0
    6.5760  -15.8976   25.7430 C   0  0  0  0  0  0  0  0  0  0  0  0
    5.6892  -14.8753   25.7819 N   0  0  0  0  0  0  0  0  0  0  0  0
    6.2848  -13.7175   26.0607 C   0  0  0  0  0  0  0  0  0  0  0  0
    5.9114  -12.4031   26.2276 C   0  0  0  0  0  0  0  0  0  0  0  0
    6.7763  -11.3776   26.5281 C   0  0  0  0  0  0  0  0  0  0  0  0
    8.1309  -11.6904   26.6750 C   0  0  0  0  0  0  0  0  0  0  0  0
    8.5513  -12.9992   26.5160 C   0  0  0  0  0  0  0  0  0  0  0  0
    7.6318  -13.9876   26.2132 C   0  0  0  0  0  0  0  0  0  0  0  0
   11.1409  -16.4701   24.6817 C   0  0  0  0  0  0  0  0  0  0  0  0
   11.9358  -16.3528   25.6827 O   0  0  0  0  0  0  0  0  0  0  0  0
   10.8930  -20.0177   21.5039 N   0  0  0  0  0  0  0  0  0  0  0  0
   11.8839  -19.8117   22.5139 C   0  0  0  0  0  0  0  0  0  0  0  0
   11.8366  -20.5112   23.5406 O   0  0  0  0  0  0  0  0  0  0  0  0
   12.9422  -18.7977   22.3497 C   0  0  0  0  0  0  0  0  0  0  0  0
   12.8702  -17.7556   23.4649 C   0  0  2  0  0  0  0  0  0  0  0  0
   11.5620  -17.1695   23.5241 N   0  0  0  0  0  0  0  0  0  0  0  0
   13.8530  -16.6807   23.1830 C   0  0  0  0  0  0  0  0  0  0  0  0
   15.1973  -17.0081   23.2138 O   0  0  0  0  0  0  0  0  0  0  0  0
   13.4973  -15.5354   22.9297 O   0  0  0  0  0  0  0  0  0  0  0  0
  2  1  1  1
  2  3  1  0
  3  4  1  0
  5  6  2  0
  5  2  1  0
  7  5  1  0
  8  7  1  0
  8  9  1  1
 10  9  1  0
 10 18  1  0
 11 12  1  0
 11 10  2  0
 12 13  1  0
 13 18  2  0
 13 14  1  0
 14 15  2  0
 15 16  1  0
 17 16  2  0
 18 17  1  0
 19  8  1  0
 19 20  2  0
 22 24  1  0
 22 21  1  0
 23 22  2  0
 25 26  1  0
 25 24  1  6
 26 19  1  0
 27 25  1  0
 28 27  1  0
 29 27  2  0
M  END
$$$$
