CWN.pdb
     RDKit          3D

 29 30  0  0  1  0  0  0  0  0999 V2000
    9.7460  -18.8105   18.8435 N   0  0  0  0  0  0  0  0  0  0  0  0
    8.8895  -18.3839   19.8897 C   0  0  1  0  0  0  0  0  0  0  0  0
    8.7054  -19.5620   20.8479 C   0  0  0  0  0  0  0  0  0  0  0  0
   10.2608  -19.8824   21.7361 S   0  0  0  0  0  0  0  0  0  0  0  0
    9.4291  -17.2522   20.7050 C   0  0  0  0  0  0  0  0  0  0  0  0
   10.6399  -16.9620   20.5810 O   0  0  0  0  0  0  0  0  0  0  0  0
    8.5630  -16.5500   21.5789 N   0  0  0  0  0  0  0  0  0  0  0  0
    8.9248  -15.3314   22.2438 C   0  0  1  0  0  0  0  0  0  0  0  0
    7.7265  -14.4207   22.3880 C   0  0  0  0  0  0  0  0  0  0  0  0
    7.1787  -14.6231   23.7596 C   0  0  0  0  0  0  0  0  0  0  0  0
    6.6020  -15.7720   24.2408 C   0  0  0  0  0  0  0  0  0  0  0  0
    6.2506  -15.5235   25.5245 N   0  0  0  0  0  0  0  0  0  0  0  0
    6.5700  -14.2838   25.8910 C   0  0  0  0  0  0  0  0  0  0  0  0
    6.4662  -13.5056   27.0217 C   0  0  0  0  0  0  0  0  0  0  0  0
    6.9042  -12.2060   27.1183 C   0  0  0  0  0  0  0  0  0  0  0  0
    7.4971  -11.6333   25.9892 C   0  0  0  0  0  0  0  0  0  0  0  0
    7.6223  -12.3792   24.8304 C   0  0  0  0  0  0  0  0  0  0  0  0
    7.1612  -13.6831   24.7954 C   0  0  0  0  0  0  0  0  0  0  0  0
    9.6403  -15.6150   23.4709 C   0  0  0  0  0  0  0  0  0  0  0  0
   10.1066  -14.6269   24.1445 O   0  0  0  0  0  0  0  0  0  0  0  0
   11.8367  -16.8259   27.8425 N   0  0  0  0  0  0  0  0  0  0  0  0
   10.4483  -17.0751   27.6090 C   0  0  0  0  0  0  0  0  0  0  0  0
    9.7944  -17.6552   28.4932 O   0  0  0  0  0  0  0  0  0  0  0  0
    9.7979  -16.6560   26.3534 C   0  0  0  0  0  0  0  0  0  0  0  0
   10.5658  -17.1864   25.1435 C   0  0  2  0  0  0  0  0  0  0  0  0
    9.8347  -16.9394   23.9340 N   0  0  0  0  0  0  0  0  0  0  0  0
   10.7450  -18.6515   25.2920 C   0  0  0  0  0  0  0  0  0  0  0  0
   11.5941  -19.1023   26.2877 O   0  0  0  0  0  0  0  0  0  0  0  0
   10.1648  -19.4469   24.5620 O   0  0  0  0  0  0  0  0  0  0  0  0
  2  1  1  6
  2  3  1  0
  3  4  1  0
  5  6  2  0
  5  2  1  0
  7  5  1  0
  8  7  1  0
  8  9  1  1
 10  9  1  0
 10 18  1  0
 11 12  1  0
 11 10  2  0
 12 13  1  0
 13 18  2  0
 13 14  1  0
 14 15  2  0
 15 16  1  0
 17 16  2  0
 18 17  1  0
 19  8  1  0
 19 20  2  0
 22 24  1  0
 22 21  1  0
 23 22  2  0
 25 26  1  0
 25 24  1  1
 26 19  1  0
 27 25  1  0
 28 27  1  0
 29 27  2  0
M  END
$$$$
