CWN.pdb
     RDKit          3D

 29 30  0  0  1  0  0  0  0  0999 V2000
    7.4703  -15.0143   20.5924 N   0  0  0  0  0  0  0  0  0  0  0  0
    7.8342  -16.0261   21.5167 C   0  0  1  0  0  0  0  0  0  0  0  0
    8.5943  -17.1068   20.7459 C   0  0  0  0  0  0  0  0  0  0  0  0
    8.9235  -18.5252   21.8369 S   0  0  0  0  0  0  0  0  0  0  0  0
    8.7436  -15.5635   22.6100 C   0  0  0  0  0  0  0  0  0  0  0  0
    9.4829  -14.5794   22.3844 O   0  0  0  0  0  0  0  0  0  0  0  0
    8.7379  -16.2428   23.8533 N   0  0  0  0  0  0  0  0  0  0  0  0
    9.5482  -15.8558   24.9721 C   0  0  1  0  0  0  0  0  0  0  0  0
    8.7662  -15.9545   26.2624 C   0  0  0  0  0  0  0  0  0  0  0  0
    7.5599  -15.0907   26.1165 C   0  0  0  0  0  0  0  0  0  0  0  0
    6.2737  -15.5228   25.9092 C   0  0  0  0  0  0  0  0  0  0  0  0
    5.4970  -14.4159   25.8409 N   0  0  0  0  0  0  0  0  0  0  0  0
    6.2119  -13.3029   25.9933 C   0  0  0  0  0  0  0  0  0  0  0  0
    5.9776  -11.9467   26.0201 C   0  0  0  0  0  0  0  0  0  0  0  0
    6.9470  -10.9901   26.2076 C   0  0  0  0  0  0  0  0  0  0  0  0
    8.2642  -11.4241   26.3838 C   0  0  0  0  0  0  0  0  0  0  0  0
    8.5459  -12.7787   26.3643 C   0  0  0  0  0  0  0  0  0  0  0  0
    7.5260  -13.6933   26.1707 C   0  0  0  0  0  0  0  0  0  0  0  0
   10.8105  -16.5658   24.9553 C   0  0  0  0  0  0  0  0  0  0  0  0
   11.4726  -16.6540   26.0514 O   0  0  0  0  0  0  0  0  0  0  0  0
   10.8549  -19.8870   21.3915 N   0  0  0  0  0  0  0  0  0  0  0  0
   11.6946  -19.7187   22.5365 C   0  0  0  0  0  0  0  0  0  0  0  0
   11.5079  -20.4552   23.5206 O   0  0  0  0  0  0  0  0  0  0  0  0
   12.7608  -18.6999   22.5583 C   0  0  0  0  0  0  0  0  0  0  0  0
   12.6101  -17.7854   23.7732 C   0  0  2  0  0  0  0  0  0  0  0  0
   11.3221  -17.1536   23.7723 N   0  0  0  0  0  0  0  0  0  0  0  0
   13.6502  -16.7294   23.7122 C   0  0  0  0  0  0  0  0  0  0  0  0
   14.9764  -17.1248   23.7325 O   0  0  0  0  0  0  0  0  0  0  0  0
   13.3563  -15.5412   23.6459 O   0  0  0  0  0  0  0  0  0  0  0  0
  2  1  1  6
  2  3  1  0
  3  4  1  0
  5  6  2  0
  5  2  1  0
  7  5  1  0
  8  7  1  0
  8  9  1  1
 10  9  1  0
 10 18  1  0
 11 12  1  0
 11 10  2  0
 12 13  1  0
 13 18  2  0
 13 14  1  0
 14 15  2  0
 15 16  1  0
 17 16  2  0
 18 17  1  0
 19  8  1  0
 19 20  2  0
 22 24  1  0
 22 21  1  0
 23 22  2  0
 25 26  1  0
 25 24  1  6
 26 19  1  0
 27 25  1  0
 28 27  1  0
 29 27  2  0
M  END
$$$$
