CWN.pdb
     RDKit          3D

 29 30  0  0  1  0  0  0  0  0999 V2000
    9.2308  -15.1203   17.9676 N   0  0  0  0  0  0  0  0  0  0  0  0
    8.7053  -16.0592   18.8911 C   0  0  1  0  0  0  0  0  0  0  0  0
    9.3999  -17.3982   18.6372 C   0  0  0  0  0  0  0  0  0  0  0  0
    8.6809  -18.1963   17.1686 S   0  0  0  0  0  0  0  0  0  0  0  0
    8.9522  -15.7167   20.3257 C   0  0  0  0  0  0  0  0  0  0  0  0
   10.0217  -15.1360   20.6170 O   0  0  0  0  0  0  0  0  0  0  0  0
    7.9785  -16.0527   21.2984 N   0  0  0  0  0  0  0  0  0  0  0  0
    8.0920  -15.7077   22.6863 C   0  0  1  0  0  0  0  0  0  0  0  0
    6.7272  -15.6082   23.3294 C   0  0  0  0  0  0  0  0  0  0  0  0
    6.9358  -15.2207   24.7537 C   0  0  0  0  0  0  0  0  0  0  0  0
    7.0485  -16.0788   25.8191 C   0  0  0  0  0  0  0  0  0  0  0  0
    7.2320  -15.3117   26.9196 N   0  0  0  0  0  0  0  0  0  0  0  0
    7.2438  -14.0146   26.6188 C   0  0  0  0  0  0  0  0  0  0  0  0
    7.3901  -12.8224   27.2913 C   0  0  0  0  0  0  0  0  0  0  0  0
    7.3633  -11.5825   26.6978 C   0  0  0  0  0  0  0  0  0  0  0  0
    7.1743  -11.5274   25.3137 C   0  0  0  0  0  0  0  0  0  0  0  0
    7.0228  -12.7015   24.5972 C   0  0  0  0  0  0  0  0  0  0  0  0
    7.0587  -13.9195   25.2523 C   0  0  0  0  0  0  0  0  0  0  0  0
    9.0301  -16.5868   23.3534 C   0  0  0  0  0  0  0  0  0  0  0  0
    8.8784  -17.8540   23.2162 O   0  0  0  0  0  0  0  0  0  0  0  0
   12.3514  -17.1779   22.3076 N   0  0  0  0  0  0  0  0  0  0  0  0
   13.0350  -16.4889   23.3577 C   0  0  0  0  0  0  0  0  0  0  0  0
   14.1435  -15.9834   23.1101 O   0  0  0  0  0  0  0  0  0  0  0  0
   12.4461  -16.3737   24.7051 C   0  0  0  0  0  0  0  0  0  0  0  0
   11.0442  -16.9806   24.7361 C   0  0  2  0  0  0  0  0  0  0  0  0
   10.0933  -16.0847   24.1434 N   0  0  0  0  0  0  0  0  0  0  0  0
   10.6520  -17.2134   26.1478 C   0  0  0  0  0  0  0  0  0  0  0  0
   10.1526  -16.1410   26.8663 O   0  0  0  0  0  0  0  0  0  0  0  0
   10.7622  -18.3159   26.6718 O   0  0  0  0  0  0  0  0  0  0  0  0
  2  1  1  6
  2  3  1  0
  3  4  1  0
  5  6  2  0
  5  2  1  0
  7  5  1  0
  8  7  1  0
  8  9  1  1
 10  9  1  0
 10 18  1  0
 11 12  1  0
 11 10  2  0
 12 13  1  0
 13 18  2  0
 13 14  1  0
 14 15  2  0
 15 16  1  0
 17 16  2  0
 18 17  1  0
 19  8  1  0
 19 20  2  0
 22 24  1  0
 22 21  1  0
 23 22  2  0
 25 26  1  0
 25 24  1  1
 26 19  1  0
 27 25  1  0
 28 27  1  0
 29 27  2  0
M  END
$$$$
