CWN.pdb
     RDKit          3D

 29 30  0  0  1  0  0  0  0  0999 V2000
    6.8742  -15.3391   19.7300 N   0  0  0  0  0  0  0  0  0  0  0  0
    7.0801  -16.2272   20.8159 C   0  0  1  0  0  0  0  0  0  0  0  0
    7.5624  -17.5599   20.2401 C   0  0  0  0  0  0  0  0  0  0  0  0
    9.2295  -17.3607   19.5390 S   0  0  0  0  0  0  0  0  0  0  0  0
    8.1252  -15.7801   21.7877 C   0  0  0  0  0  0  0  0  0  0  0  0
    8.9137  -14.8766   21.4304 O   0  0  0  0  0  0  0  0  0  0  0  0
    8.1875  -16.3832   23.0682 N   0  0  0  0  0  0  0  0  0  0  0  0
    9.1515  -16.0237   24.0679 C   0  0  1  0  0  0  0  0  0  0  0  0
    8.6042  -16.2688   25.4559 C   0  0  0  0  0  0  0  0  0  0  0  0
    7.4569  -15.3370   25.6506 C   0  0  0  0  0  0  0  0  0  0  0  0
    6.1261  -15.6564   25.5445 C   0  0  0  0  0  0  0  0  0  0  0  0
    5.4317  -14.5230   25.8020 N   0  0  0  0  0  0  0  0  0  0  0  0
    6.2411  -13.4994   26.0670 C   0  0  0  0  0  0  0  0  0  0  0  0
    6.1137  -12.1673   26.3897 C   0  0  0  0  0  0  0  0  0  0  0  0
    7.1676  -11.3159   26.6229 C   0  0  0  0  0  0  0  0  0  0  0  0
    8.4605  -11.8388   26.5259 C   0  0  0  0  0  0  0  0  0  0  0  0
    8.6358  -13.1731   26.2039 C   0  0  0  0  0  0  0  0  0  0  0  0
    7.5343  -13.9797   25.9800 C   0  0  0  0  0  0  0  0  0  0  0  0
   10.4305  -16.6426   23.7866 C   0  0  0  0  0  0  0  0  0  0  0  0
   10.4365  -17.8233   23.2831 O   0  0  0  0  0  0  0  0  0  0  0  0
   15.3863  -17.5807   22.9891 N   0  0  0  0  0  0  0  0  0  0  0  0
   15.2074  -16.1638   22.9202 C   0  0  0  0  0  0  0  0  0  0  0  0
   16.1742  -15.4613   22.5774 O   0  0  0  0  0  0  0  0  0  0  0  0
   13.9101  -15.5413   23.2440 C   0  0  0  0  0  0  0  0  0  0  0  0
   12.9031  -16.5962   23.7001 C   0  0  2  0  0  0  0  0  0  0  0  0
   11.6552  -15.9829   24.0537 N   0  0  0  0  0  0  0  0  0  0  0  0
   13.4407  -17.2886   24.8969 C   0  0  0  0  0  0  0  0  0  0  0  0
   12.7609  -17.1366   26.0929 O   0  0  0  0  0  0  0  0  0  0  0  0
   14.4539  -17.9762   24.8403 O   0  0  0  0  0  0  0  0  0  0  0  0
  2  1  1  6
  2  3  1  0
  3  4  1  0
  5  6  2  0
  5  2  1  0
  7  5  1  0
  8  7  1  0
  8  9  1  1
 10  9  1  0
 10 18  1  0
 11 12  1  0
 11 10  2  0
 12 13  1  0
 13 18  2  0
 13 14  1  0
 14 15  2  0
 15 16  1  0
 17 16  2  0
 18 17  1  0
 19  8  1  0
 19 20  2  0
 22 24  1  0
 22 21  1  0
 23 22  2  0
 25 26  1  0
 25 24  1  1
 26 19  1  0
 27 25  1  0
 28 27  1  0
 29 27  2  0
M  END
$$$$
