WVS.pdb
     RDKit          3D

 28 29  0  0  1  0  0  0  0  0999 V2000
   26.6391  -18.5675   -9.0412 N   0  0  0  0  0  0  0  0  0  0  0  0
   26.4410  -19.9574   -9.3698 C   0  0  1  0  0  0  0  0  0  0  0  0
   26.1089  -20.7575   -8.1664 C   0  0  0  0  0  0  0  0  0  0  0  0
   26.8368  -20.3363   -6.9463 C   0  0  0  0  0  0  0  0  0  0  0  0
   26.3585  -19.5802   -5.8916 C   0  0  0  0  0  0  0  0  0  0  0  0
   27.3181  -19.3726   -4.9842 N   0  0  0  0  0  0  0  0  0  0  0  0
   28.4190  -19.9966   -5.4532 C   0  0  0  0  0  0  0  0  0  0  0  0
   29.7014  -20.1135   -4.9141 C   0  0  0  0  0  0  0  0  0  0  0  0
   30.6968  -20.8138   -5.5576 C   0  0  0  0  0  0  0  0  0  0  0  0
   30.4040  -21.4120   -6.7685 C   0  0  0  0  0  0  0  0  0  0  0  0
   29.1567  -21.3182   -7.3281 C   0  0  0  0  0  0  0  0  0  0  0  0
   28.1769  -20.6082   -6.6610 C   0  0  0  0  0  0  0  0  0  0  0  0
   25.5352  -20.1148  -10.5216 C   0  0  0  0  0  0  0  0  0  0  0  0
   24.5328  -19.3568  -10.5777 O   0  0  0  0  0  0  0  0  0  0  0  0
   26.3617  -22.7574  -13.8999 C   0  0  0  0  0  0  0  0  0  0  0  0
   26.0056  -21.3038  -13.9012 C   0  0  2  0  0  0  0  0  0  0  0  0
   27.2266  -20.4049  -13.8526 C   0  0  0  0  0  0  0  0  0  0  0  0
   25.0173  -20.8990  -12.8436 C   0  0  2  0  0  0  0  0  0  0  0  0
   25.6933  -21.0396  -11.5709 N   0  0  0  0  0  0  0  0  0  0  0  0
   23.7401  -21.5721  -12.8882 C   0  0  0  0  0  0  0  0  0  0  0  0
   23.6880  -22.6603  -12.2023 O   0  0  0  0  0  0  0  0  0  0  0  0
   18.9581  -21.9484  -13.5071 O   0  0  0  0  0  0  0  0  0  0  0  0
   20.1122  -21.1784  -13.6157 C   0  0  0  0  0  0  0  0  0  0  0  0
   21.3620  -22.0121  -13.4273 C   0  0  2  0  0  0  0  0  0  0  0  0
   22.5636  -21.2215  -13.5571 N   0  0  0  0  0  0  0  0  0  0  0  0
   21.3253  -23.0889  -14.4241 C   0  0  0  0  0  0  0  0  0  0  0  0
   20.5578  -24.2201  -14.3503 O   0  0  0  0  0  0  0  0  0  0  0  0
   22.0708  -22.9615  -15.4468 O   0  0  0  0  0  0  0  0  0  0  0  0
  2 13  1  0
  2  1  1  1
  3  4  1  0
  3  2  1  0
  4  5  2  0
  4 12  1  0
  5  6  1  0
  6  7  1  0
  7  8  2  0
  8  9  1  0
 10  9  2  0
 11 10  1  0
 12 11  2  0
 12  7  1  0
 13 14  2  0
 16 18  1  0
 16 15  1  1
 17 16  1  0
 19 13  1  0
 18 19  1  1
 20 18  1  0
 20 21  2  0
 22 23  1  0
 24 23  1  6
 24 25  1  0
 24 26  1  0
 25 20  1  0
 26 27  1  0
 28 26  2  0
M  END
$$$$
