WVS.pdb
     RDKit          3D

 28 29  0  0  1  0  0  0  0  0999 V2000
   26.5242  -21.6287  -13.1813 N   0  0  0  0  0  0  0  0  0  0  0  0
   25.6659  -21.2262  -12.0949 C   0  0  1  0  0  0  0  0  0  0  0  0
   26.2916  -20.1608  -11.2752 C   0  0  0  0  0  0  0  0  0  0  0  0
   27.4597  -20.6186  -10.4866 C   0  0  0  0  0  0  0  0  0  0  0  0
   28.5994  -21.2516  -10.9483 C   0  0  0  0  0  0  0  0  0  0  0  0
   29.4217  -21.5444   -9.9357 N   0  0  0  0  0  0  0  0  0  0  0  0
   28.8123  -21.0990   -8.8170 C   0  0  0  0  0  0  0  0  0  0  0  0
   29.2179  -21.1322   -7.4817 C   0  0  0  0  0  0  0  0  0  0  0  0
   28.4406  -20.6052   -6.4750 C   0  0  0  0  0  0  0  0  0  0  0  0
   27.2291  -20.0310   -6.8104 C   0  0  0  0  0  0  0  0  0  0  0  0
   26.7983  -19.9807   -8.1102 C   0  0  0  0  0  0  0  0  0  0  0  0
   27.5982  -20.5183   -9.1004 C   0  0  0  0  0  0  0  0  0  0  0  0
   24.2936  -20.9610  -12.5624 C   0  0  0  0  0  0  0  0  0  0  0  0
   24.0755  -19.8544  -13.1197 O   0  0  0  0  0  0  0  0  0  0  0  0
   22.4045  -22.3423  -15.2154 C   0  0  0  0  0  0  0  0  0  0  0  0
   21.9831  -21.1863  -14.3636 C   0  0  2  0  0  0  0  0  0  0  0  0
   22.8489  -19.9591  -14.5771 C   0  0  0  0  0  0  0  0  0  0  0  0
   21.8695  -21.4959  -12.8971 C   0  0  2  0  0  0  0  0  0  0  0  0
   23.2007  -21.8399  -12.4432 N   0  0  0  0  0  0  0  0  0  0  0  0
   20.8733  -22.4786  -12.5390 C   0  0  0  0  0  0  0  0  0  0  0  0
   21.3453  -23.5305  -11.9665 O   0  0  0  0  0  0  0  0  0  0  0  0
   17.8849  -23.3134   -9.5198 O   0  0  0  0  0  0  0  0  0  0  0  0
   18.7692  -22.6735  -10.3832 C   0  0  0  0  0  0  0  0  0  0  0  0
   18.6020  -23.1497  -11.8107 C   0  0  2  0  0  0  0  0  0  0  0  0
   19.4869  -22.4577  -12.7183 N   0  0  0  0  0  0  0  0  0  0  0  0
   17.1965  -22.9438  -12.1800 C   0  0  0  0  0  0  0  0  0  0  0  0
   16.7432  -22.1054  -13.1629 O   0  0  0  0  0  0  0  0  0  0  0  0
   16.3216  -23.6010  -11.5316 O   0  0  0  0  0  0  0  0  0  0  0  0
  2 13  1  0
  2  1  1  6
  3  4  1  0
  3  2  1  0
  4  5  2  0
  4 12  1  0
  5  6  1  0
  6  7  1  0
  7  8  2  0
  8  9  1  0
 10  9  2  0
 11 10  1  0
 12 11  2  0
 12  7  1  0
 13 14  2  0
 16 18  1  0
 16 15  1  6
 17 16  1  0
 19 13  1  0
 18 19  1  6
 20 18  1  0
 20 21  2  0
 22 23  1  0
 24 23  1  1
 24 25  1  0
 24 26  1  0
 25 20  1  0
 26 27  1  0
 28 26  2  0
M  END
$$$$
