WVS.pdb
     RDKit          3D

 28 29  0  0  1  0  0  0  0  0999 V2000
   28.3019  -21.6743  -10.5996 N   0  0  0  0  0  0  0  0  0  0  0  0
   27.0903  -21.0159  -10.1780 C   0  0  1  0  0  0  0  0  0  0  0  0
   27.3776  -19.8833   -9.2652 C   0  0  0  0  0  0  0  0  0  0  0  0
   28.3711  -20.1989   -8.2120 C   0  0  0  0  0  0  0  0  0  0  0  0
   29.6224  -20.7666   -8.3689 C   0  0  0  0  0  0  0  0  0  0  0  0
   30.2195  -20.9318   -7.1843 N   0  0  0  0  0  0  0  0  0  0  0  0
   29.3523  -20.4690   -6.2595 C   0  0  0  0  0  0  0  0  0  0  0  0
   29.4564  -20.3891   -4.8697 C   0  0  0  0  0  0  0  0  0  0  0  0
   28.4452  -19.8653   -4.0963 C   0  0  0  0  0  0  0  0  0  0  0  0
   27.3026  -19.4099   -4.7265 C   0  0  0  0  0  0  0  0  0  0  0  0
   27.1651  -19.4726   -6.0884 C   0  0  0  0  0  0  0  0  0  0  0  0
   28.1954  -20.0042   -6.8400 C   0  0  0  0  0  0  0  0  0  0  0  0
   26.2129  -20.7168  -11.3239 C   0  0  0  0  0  0  0  0  0  0  0  0
   26.5440  -19.7617  -12.0727 O   0  0  0  0  0  0  0  0  0  0  0  0
   23.6543  -22.3711  -14.9996 C   0  0  0  0  0  0  0  0  0  0  0  0
   24.2694  -22.4558  -13.6380 C   0  0  2  0  0  0  0  0  0  0  0  0
   23.6488  -23.5460  -12.7851 C   0  0  0  0  0  0  0  0  0  0  0  0
   24.3018  -21.1569  -12.8822 C   0  0  2  0  0  0  0  0  0  0  0  0
   25.0340  -21.4090  -11.6587 N   0  0  0  0  0  0  0  0  0  0  0  0
   23.0204  -20.5282  -12.6606 C   0  0  0  0  0  0  0  0  0  0  0  0
   22.4554  -20.8494  -11.5494 O   0  0  0  0  0  0  0  0  0  0  0  0
   20.8608  -18.0543  -15.2077 O   0  0  0  0  0  0  0  0  0  0  0  0
   20.6430  -17.8732  -13.8451 C   0  0  0  0  0  0  0  0  0  0  0  0
   21.0333  -19.0994  -13.0473 C   0  0  2  0  0  0  0  0  0  0  0  0
   22.3098  -19.6313  -13.4638 N   0  0  0  0  0  0  0  0  0  0  0  0
   19.9647  -20.0913  -13.2167 C   0  0  0  0  0  0  0  0  0  0  0  0
   18.7597  -20.0864  -12.5669 O   0  0  0  0  0  0  0  0  0  0  0  0
   20.1746  -21.0389  -14.0388 O   0  0  0  0  0  0  0  0  0  0  0  0
  2 13  1  0
  2  1  1  6
  3  4  1  0
  3  2  1  0
  4  5  2  0
  4 12  1  0
  5  6  1  0
  6  7  1  0
  7  8  2  0
  8  9  1  0
 10  9  2  0
 11 10  1  0
 12 11  2  0
 12  7  1  0
 13 14  2  0
 16 18  1  0
 16 15  1  6
 17 16  1  0
 19 13  1  0
 18 19  1  1
 20 18  1  0
 20 21  2  0
 22 23  1  0
 24 23  1  6
 24 25  1  0
 24 26  1  0
 25 20  1  0
 26 27  1  0
 28 26  2  0
M  END
$$$$
