WVS.pdb
     RDKit          3D

 28 29  0  0  1  0  0  0  0  0999 V2000
   22.8007  -18.2540  -16.3673 N   0  0  0  0  0  0  0  0  0  0  0  0
   21.6315  -18.2451  -15.5235 C   0  0  1  0  0  0  0  0  0  0  0  0
   20.4300  -17.7939  -16.2661 C   0  0  0  0  0  0  0  0  0  0  0  0
   20.4485  -16.3549  -16.6195 C   0  0  0  0  0  0  0  0  0  0  0  0
   20.9438  -15.7706  -17.7710 C   0  0  0  0  0  0  0  0  0  0  0  0
   20.8173  -14.4407  -17.7194 N   0  0  0  0  0  0  0  0  0  0  0  0
   20.2381  -14.1649  -16.5320 C   0  0  0  0  0  0  0  0  0  0  0  0
   19.8661  -12.9478  -15.9586 C   0  0  0  0  0  0  0  0  0  0  0  0
   19.2690  -12.8828  -14.7199 C   0  0  0  0  0  0  0  0  0  0  0  0
   19.0378  -14.0622  -14.0376 C   0  0  0  0  0  0  0  0  0  0  0  0
   19.3897  -15.2753  -14.5689 C   0  0  0  0  0  0  0  0  0  0  0  0
   19.9884  -15.3109  -15.8137 C   0  0  0  0  0  0  0  0  0  0  0  0
   21.4948  -19.5096  -14.7789 C   0  0  0  0  0  0  0  0  0  0  0  0
   21.7961  -20.5718  -15.3816 O   0  0  0  0  0  0  0  0  0  0  0  0
   20.7715  -19.7532  -10.5223 C   0  0  0  0  0  0  0  0  0  0  0  0
   21.5868  -20.6660  -11.3836 C   0  0  2  0  0  0  0  0  0  0  0  0
   23.0373  -20.2330  -11.4818 C   0  0  0  0  0  0  0  0  0  0  0  0
   21.0202  -20.9069  -12.7548 C   0  0  2  0  0  0  0  0  0  0  0  0
   21.0583  -19.6355  -13.4467 N   0  0  0  0  0  0  0  0  0  0  0  0
   19.7222  -21.5392  -12.7948 C   0  0  0  0  0  0  0  0  0  0  0  0
   18.7332  -20.7191  -12.8748 O   0  0  0  0  0  0  0  0  0  0  0  0
   18.8134  -25.2993  -13.9517 O   0  0  0  0  0  0  0  0  0  0  0  0
   17.7928  -24.3535  -13.9269 C   0  0  0  0  0  0  0  0  0  0  0  0
   18.0067  -23.3266  -12.8350 C   0  0  2  0  0  0  0  0  0  0  0  0
   19.3829  -22.8951  -12.7613 N   0  0  0  0  0  0  0  0  0  0  0  0
   17.5727  -23.9335  -11.5710 C   0  0  0  0  0  0  0  0  0  0  0  0
   16.3201  -24.4183  -11.3060 O   0  0  0  0  0  0  0  0  0  0  0  0
   18.4345  -24.0176  -10.6392 O   0  0  0  0  0  0  0  0  0  0  0  0
  2 13  1  0
  2  1  1  6
  3  4  1  0
  3  2  1  0
  4  5  2  0
  4 12  1  0
  5  6  1  0
  6  7  1  0
  7  8  2  0
  8  9  1  0
 10  9  2  0
 11 10  1  0
 12 11  2  0
 12  7  1  0
 13 14  2  0
 16 18  1  0
 16 15  1  6
 17 16  1  0
 19 13  1  0
 18 19  1  1
 20 18  1  0
 20 21  2  0
 22 23  1  0
 24 23  1  6
 24 25  1  0
 24 26  1  0
 25 20  1  0
 26 27  1  0
 28 26  2  0
M  END
$$$$
