WVS.pdb
     RDKit          3D

 28 29  0  0  1  0  0  0  0  0999 V2000
   28.0552  -20.5780   -9.5122 N   0  0  0  0  0  0  0  0  0  0  0  0
   26.6540  -20.9139   -9.4558 C   0  0  1  0  0  0  0  0  0  0  0  0
   26.0089  -20.3490   -8.2461 C   0  0  0  0  0  0  0  0  0  0  0  0
   26.9635  -19.7672   -7.2734 C   0  0  0  0  0  0  0  0  0  0  0  0
   27.5596  -18.5198   -7.3122 C   0  0  0  0  0  0  0  0  0  0  0  0
   28.3917  -18.3601   -6.2781 N   0  0  0  0  0  0  0  0  0  0  0  0
   28.3327  -19.5068   -5.5689 C   0  0  0  0  0  0  0  0  0  0  0  0
   28.9843  -19.8885   -4.3948 C   0  0  0  0  0  0  0  0  0  0  0  0
   28.7746  -21.1205   -3.8174 C   0  0  0  0  0  0  0  0  0  0  0  0
   27.8925  -21.9921   -4.4274 C   0  0  0  0  0  0  0  0  0  0  0  0
   27.2351  -21.6519   -5.5806 C   0  0  0  0  0  0  0  0  0  0  0  0
   27.4654  -20.4092   -6.1390 C   0  0  0  0  0  0  0  0  0  0  0  0
   25.9814  -20.6360  -10.7373 C   0  0  0  0  0  0  0  0  0  0  0  0
   26.3288  -19.6001  -11.3608 O   0  0  0  0  0  0  0  0  0  0  0  0
   24.4591  -23.5122  -13.3163 C   0  0  0  0  0  0  0  0  0  0  0  0
   24.8633  -22.0989  -13.5969 C   0  0  2  0  0  0  0  0  0  0  0  0
   26.3598  -21.9492  -13.7944 C   0  0  0  0  0  0  0  0  0  0  0  0
   24.3659  -21.0936  -12.5962 C   0  0  2  0  0  0  0  0  0  0  0  0
   24.9826  -21.4310  -11.3303 N   0  0  0  0  0  0  0  0  0  0  0  0
   22.9312  -20.9503  -12.5113 C   0  0  0  0  0  0  0  0  0  0  0  0
   22.3905  -21.5834  -11.5295 O   0  0  0  0  0  0  0  0  0  0  0  0
   20.3984  -19.0167  -15.1427 O   0  0  0  0  0  0  0  0  0  0  0  0
   19.9182  -19.1373  -13.8421 C   0  0  0  0  0  0  0  0  0  0  0  0
   20.6276  -20.2384  -13.0826 C   0  0  2  0  0  0  0  0  0  0  0  0
   22.0510  -20.2330  -13.3270 N   0  0  0  0  0  0  0  0  0  0  0  0
   20.0241  -21.5124  -13.4914 C   0  0  0  0  0  0  0  0  0  0  0  0
   18.8010  -21.9813  -13.0932 O   0  0  0  0  0  0  0  0  0  0  0  0
   20.6943  -22.2462  -14.2853 O   0  0  0  0  0  0  0  0  0  0  0  0
  2 13  1  0
  2  1  1  6
  3  4  1  0
  3  2  1  0
  4  5  2  0
  4 12  1  0
  5  6  1  0
  6  7  1  0
  7  8  2  0
  8  9  1  0
 10  9  2  0
 11 10  1  0
 12 11  2  0
 12  7  1  0
 13 14  2  0
 16 18  1  0
 16 15  1  1
 17 16  1  0
 19 13  1  0
 18 19  1  1
 20 18  1  0
 20 21  2  0
 22 23  1  0
 24 23  1  6
 24 25  1  0
 24 26  1  0
 25 20  1  0
 26 27  1  0
 28 26  2  0
M  END
$$$$
