NNC.pdb
     RDKit          3D

 23 22  0  0  1  0  0  0  0  0999 V2000
   13.9783  -12.5805  -10.2120 N   0  0  0  0  0  0  0  0  0  0  0  0
   15.2178  -12.4250  -10.8823 C   0  0  0  0  0  0  0  0  0  0  0  0
   15.8506  -13.4754  -11.1341 O   0  0  0  0  0  0  0  0  0  0  0  0
   15.6376  -11.0594  -11.2139 C   0  0  0  0  0  0  0  0  0  0  0  0
   14.7833   -9.9623  -10.6467 C   0  0  2  0  0  0  0  0  0  0  0  0
   13.5333  -10.0318  -11.4012 N   0  0  0  0  0  0  0  0  0  0  0  0
   15.3920   -8.6051  -10.7807 C   0  0  0  0  0  0  0  0  0  0  0  0
   15.4440   -8.1318  -11.9347 O   0  0  0  0  0  0  0  0  0  0  0  0
   14.2020   -5.3895   -9.5324 N   0  0  0  0  0  0  0  0  0  0  0  0
   14.9470   -5.3489   -8.3329 C   0  0  0  0  0  0  0  0  0  0  0  0
   14.4355   -4.8017   -7.3009 O   0  0  0  0  0  0  0  0  0  0  0  0
   16.3063   -5.9364   -8.2832 C   0  0  0  0  0  0  0  0  0  0  0  0
   16.5582   -6.6318   -9.6347 C   0  0  2  0  0  0  0  0  0  0  0  0
   15.8831   -7.8771   -9.7024 N   0  0  0  0  0  0  0  0  0  0  0  0
   17.9569   -6.6220  -10.0153 C   0  0  0  0  0  0  0  0  0  0  0  0
   18.8183   -7.2083   -9.3297 O   0  0  0  0  0  0  0  0  0  0  0  0
   18.3873   -5.9444  -11.1867 N   0  0  0  0  0  0  0  0  0  0  0  0
   19.7247   -6.0917  -11.7395 C   0  0  1  0  0  0  0  0  0  0  0  0
   19.9731   -7.5417  -12.1378 C   0  0  0  0  0  0  0  0  0  0  0  0
   21.6504   -7.6868  -12.7942 S   0  0  0  0  0  0  0  0  0  0  0  0
   19.9853   -5.2183  -12.8872 C   0  0  0  0  0  0  0  0  0  0  0  0
   21.2417   -4.6601  -13.0301 O   0  0  0  0  0  0  0  0  0  0  0  0
   19.0670   -5.0003  -13.7061 O   0  0  0  0  0  0  0  0  0  0  0  0
  2  3  2  0
  2  1  1  0
  4  2  1  0
  5  4  1  0
  5  6  1  6
  7  5  1  0
  8  7  2  0
  9 10  1  0
 10 12  1  0
 10 11  2  0
 13 12  1  1
 13 14  1  0
 14  7  1  0
 15 13  1  0
 15 17  1  0
 16 15  2  0
 18 17  1  0
 18 19  1  6
 18 21  1  0
 20 19  1  0
 21 23  2  0
 21 22  1  0
M  END
$$$$
