NNC.pdb
     RDKit          3D

 23 22  0  0  1  0  0  0  0  0999 V2000
   18.2406  -16.9605  -15.6232 N   0  0  0  0  0  0  0  0  0  0  0  0
   19.0587  -16.1670  -14.7799 C   0  0  0  0  0  0  0  0  0  0  0  0
   19.5869  -16.7508  -13.8064 O   0  0  0  0  0  0  0  0  0  0  0  0
   19.2067  -14.7493  -15.1250 C   0  0  0  0  0  0  0  0  0  0  0  0
   18.2931  -14.2458  -16.2053 C   0  0  2  0  0  0  0  0  0  0  0  0
   18.7534  -14.9076  -17.4246 N   0  0  0  0  0  0  0  0  0  0  0  0
   18.3352  -12.7627  -16.3761 C   0  0  0  0  0  0  0  0  0  0  0  0
   19.1653  -12.3221  -17.1978 O   0  0  0  0  0  0  0  0  0  0  0  0
   13.8529  -10.7002  -15.0274 N   0  0  0  0  0  0  0  0  0  0  0  0
   15.0512  -10.2824  -15.6478 C   0  0  0  0  0  0  0  0  0  0  0  0
   15.0883  -10.1706  -16.9177 O   0  0  0  0  0  0  0  0  0  0  0  0
   16.2466   -9.9807  -14.8260 C   0  0  0  0  0  0  0  0  0  0  0  0
   17.4799  -10.4724  -15.6076 C   0  0  2  0  0  0  0  0  0  0  0  0
   17.5096  -11.8885  -15.6773 N   0  0  0  0  0  0  0  0  0  0  0  0
   18.7018   -9.8098  -15.1964 C   0  0  0  0  0  0  0  0  0  0  0  0
   19.5888  -10.4203  -14.5668 O   0  0  0  0  0  0  0  0  0  0  0  0
   18.9261   -8.4416  -15.5033 N   0  0  0  0  0  0  0  0  0  0  0  0
   20.1638   -7.7503  -15.1774 C   0  0  1  0  0  0  0  0  0  0  0  0
   21.3509   -8.4728  -15.8033 C   0  0  0  0  0  0  0  0  0  0  0  0
   22.8525   -7.5246  -15.4693 S   0  0  0  0  0  0  0  0  0  0  0  0
   20.1764   -6.3434  -15.5878 C   0  0  0  0  0  0  0  0  0  0  0  0
   19.6894   -6.0076  -16.8370 O   0  0  0  0  0  0  0  0  0  0  0  0
   20.6263   -5.4843  -14.7998 O   0  0  0  0  0  0  0  0  0  0  0  0
  2  3  2  0
  2  1  1  0
  4  2  1  0
  5  4  1  0
  5  6  1  6
  7  5  1  0
  8  7  2  0
  9 10  1  0
 10 12  1  0
 10 11  2  0
 13 12  1  1
 13 14  1  0
 14  7  1  0
 15 13  1  0
 15 17  1  0
 16 15  2  0
 18 17  1  0
 18 19  1  6
 18 21  1  0
 20 19  1  0
 21 23  2  0
 21 22  1  0
M  END
$$$$
