NNC.pdb
     RDKit          3D

 23 22  0  0  1  0  0  0  0  0999 V2000
   19.6604  -17.6561  -16.1965 N   0  0  0  0  0  0  0  0  0  0  0  0
   19.3758  -17.2505  -17.5248 C   0  0  0  0  0  0  0  0  0  0  0  0
   19.1206  -18.1628  -18.3433 O   0  0  0  0  0  0  0  0  0  0  0  0
   19.4077  -15.8125  -17.8114 C   0  0  0  0  0  0  0  0  0  0  0  0
   19.6518  -14.9205  -16.6283 C   0  0  2  0  0  0  0  0  0  0  0  0
   18.5592  -15.2163  -15.7035 N   0  0  0  0  0  0  0  0  0  0  0  0
   19.6582  -13.4668  -16.9710 C   0  0  0  0  0  0  0  0  0  0  0  0
   20.5175  -13.0951  -17.7967 O   0  0  0  0  0  0  0  0  0  0  0  0
   17.0257   -8.6910  -18.2064 N   0  0  0  0  0  0  0  0  0  0  0  0
   17.1042   -9.2786  -16.9243 C   0  0  0  0  0  0  0  0  0  0  0  0
   17.1306   -8.5258  -15.8953 O   0  0  0  0  0  0  0  0  0  0  0  0
   17.1559  -10.7528  -16.7853 C   0  0  0  0  0  0  0  0  0  0  0  0
   18.6336  -11.1473  -16.5998 C   0  0  2  0  0  0  0  0  0  0  0  0
   18.7703  -12.5478  -16.4225 N   0  0  0  0  0  0  0  0  0  0  0  0
   19.3240  -10.2953  -15.6520 C   0  0  0  0  0  0  0  0  0  0  0  0
   19.1199  -10.3934  -14.4254 O   0  0  0  0  0  0  0  0  0  0  0  0
   20.2591   -9.3228  -16.0950 N   0  0  0  0  0  0  0  0  0  0  0  0
   21.0431   -8.5056  -15.1820 C   0  0  1  0  0  0  0  0  0  0  0  0
   22.4758   -8.3794  -15.6863 C   0  0  0  0  0  0  0  0  0  0  0  0
   23.2812   -9.9924  -15.5637 S   0  0  0  0  0  0  0  0  0  0  0  0
   20.4832   -7.1693  -14.9614 C   0  0  0  0  0  0  0  0  0  0  0  0
   21.0872   -6.3359  -14.0388 O   0  0  0  0  0  0  0  0  0  0  0  0
   19.4758   -6.8174  -15.6115 O   0  0  0  0  0  0  0  0  0  0  0  0
  2  3  2  0
  2  1  1  0
  4  2  1  0
  5  4  1  0
  5  6  1  1
  7  5  1  0
  8  7  2  0
  9 10  1  0
 10 12  1  0
 10 11  2  0
 13 12  1  1
 13 14  1  0
 14  7  1  0
 15 13  1  0
 15 17  1  0
 16 15  2  0
 18 17  1  0
 18 19  1  6
 18 21  1  0
 20 19  1  0
 21 23  2  0
 21 22  1  0
M  END
$$$$
