NNC.pdb
     RDKit          3D

 23 22  0  0  1  0  0  0  0  0999 V2000
   28.2090  -21.8284  -15.5644 N   0  0  0  0  0  0  0  0  0  0  0  0
   27.4949  -20.6313  -15.8229 C   0  0  0  0  0  0  0  0  0  0  0  0
   28.1135  -19.7360  -16.4420 O   0  0  0  0  0  0  0  0  0  0  0  0
   26.1107  -20.5559  -15.3440 C   0  0  0  0  0  0  0  0  0  0  0  0
   25.6301  -21.7428  -14.5595 C   0  0  2  0  0  0  0  0  0  0  0  0
   25.5098  -22.8183  -15.5421 N   0  0  0  0  0  0  0  0  0  0  0  0
   24.3195  -21.5156  -13.8804 C   0  0  0  0  0  0  0  0  0  0  0  0
   23.3219  -22.0509  -14.4064 O   0  0  0  0  0  0  0  0  0  0  0  0
   25.2148  -21.0682   -9.5096 N   0  0  0  0  0  0  0  0  0  0  0  0
   23.8493  -20.9347   -9.8459 C   0  0  0  0  0  0  0  0  0  0  0  0
   23.0239  -21.8282   -9.4629 O   0  0  0  0  0  0  0  0  0  0  0  0
   23.3899  -19.7682  -10.6355 C   0  0  0  0  0  0  0  0  0  0  0  0
   23.0299  -20.2773  -12.0443 C   0  0  2  0  0  0  0  0  0  0  0  0
   24.1788  -20.7570  -12.7234 N   0  0  0  0  0  0  0  0  0  0  0  0
   22.1755  -19.3575  -12.7689 C   0  0  0  0  0  0  0  0  0  0  0  0
   22.1798  -18.1358  -12.5175 O   0  0  0  0  0  0  0  0  0  0  0  0
   21.3082  -19.8229  -13.7923 N   0  0  0  0  0  0  0  0  0  0  0  0
   20.4022  -18.9480  -14.5200 C   0  0  1  0  0  0  0  0  0  0  0  0
   21.0619  -18.4566  -15.8030 C   0  0  0  0  0  0  0  0  0  0  0  0
   22.0369  -19.8038  -16.5102 S   0  0  0  0  0  0  0  0  0  0  0  0
   19.1148  -19.5709  -14.8402 C   0  0  0  0  0  0  0  0  0  0  0  0
   18.9492  -20.9225  -14.6028 O   0  0  0  0  0  0  0  0  0  0  0  0
   18.2008  -18.8660  -15.3190 O   0  0  0  0  0  0  0  0  0  0  0  0
  2  3  2  0
  2  1  1  0
  4  2  1  0
  5  4  1  0
  5  6  1  6
  7  5  1  0
  8  7  2  0
  9 10  1  0
 10 12  1  0
 10 11  2  0
 13 12  1  1
 13 14  1  0
 14  7  1  0
 15 13  1  0
 15 17  1  0
 16 15  2  0
 18 17  1  0
 18 19  1  6
 18 21  1  0
 20 19  1  0
 21 23  2  0
 21 22  1  0
M  END
$$$$
