NNC.pdb
     RDKit          3D

 23 22  0  0  1  0  0  0  0  0999 V2000
   16.5684  -13.9728  -14.1312 N   0  0  0  0  0  0  0  0  0  0  0  0
   16.3928  -13.3188  -12.8857 C   0  0  0  0  0  0  0  0  0  0  0  0
   16.1583  -14.0530  -11.8991 O   0  0  0  0  0  0  0  0  0  0  0  0
   16.5012  -11.8562  -12.8716 C   0  0  0  0  0  0  0  0  0  0  0  0
   15.4911  -11.1390  -12.0228 C   0  0  2  0  0  0  0  0  0  0  0  0
   14.2161  -11.3356  -12.7100 N   0  0  0  0  0  0  0  0  0  0  0  0
   15.7736   -9.6808  -11.8669 C   0  0  0  0  0  0  0  0  0  0  0  0
   15.5390   -8.9609  -12.8594 O   0  0  0  0  0  0  0  0  0  0  0  0
   14.2861   -6.2345   -8.1762 N   0  0  0  0  0  0  0  0  0  0  0  0
   14.8771   -7.3593   -8.7934 C   0  0  0  0  0  0  0  0  0  0  0  0
   14.1277   -8.2893   -9.2405 O   0  0  0  0  0  0  0  0  0  0  0  0
   16.3510   -7.4504   -8.9150 C   0  0  0  0  0  0  0  0  0  0  0  0
   16.6726   -7.7957  -10.3816 C   0  0  2  0  0  0  0  0  0  0  0  0
   16.2693   -9.1187  -10.6954 N   0  0  0  0  0  0  0  0  0  0  0  0
   18.0170   -7.4114  -10.7637 C   0  0  0  0  0  0  0  0  0  0  0  0
   18.9841   -7.5912   -9.9967 O   0  0  0  0  0  0  0  0  0  0  0  0
   18.2726   -6.8199  -12.0290 N   0  0  0  0  0  0  0  0  0  0  0  0
   19.5958   -6.3808  -12.4442 C   0  0  1  0  0  0  0  0  0  0  0  0
   20.2428   -7.4316  -13.3386 C   0  0  0  0  0  0  0  0  0  0  0  0
   20.6586   -8.8755  -12.3346 S   0  0  0  0  0  0  0  0  0  0  0  0
   19.5961   -5.0866  -13.1320 C   0  0  0  0  0  0  0  0  0  0  0  0
   20.8028   -4.4532  -13.3630 O   0  0  0  0  0  0  0  0  0  0  0  0
   18.5078   -4.5890  -13.4916 O   0  0  0  0  0  0  0  0  0  0  0  0
  2  3  2  0
  2  1  1  0
  4  2  1  0
  5  4  1  0
  5  6  1  6
  7  5  1  0
  8  7  2  0
  9 10  1  0
 10 12  1  0
 10 11  2  0
 13 12  1  1
 13 14  1  0
 14  7  1  0
 15 13  1  0
 15 17  1  0
 16 15  2  0
 18 17  1  0
 18 19  1  6
 18 21  1  0
 20 19  1  0
 21 23  2  0
 21 22  1  0
M  END
$$$$
