NNC.pdb
     RDKit          3D

 23 22  0  0  1  0  0  0  0  0999 V2000
   28.7920  -25.7636  -18.3450 N   0  0  0  0  0  0  0  0  0  0  0  0
   28.8058  -26.7335  -17.3111 C   0  0  0  0  0  0  0  0  0  0  0  0
   29.8226  -27.4608  -17.2429 O   0  0  0  0  0  0  0  0  0  0  0  0
   27.6369  -26.7925  -16.4271 C   0  0  0  0  0  0  0  0  0  0  0  0
   26.5739  -25.7643  -16.6878 C   0  0  2  0  0  0  0  0  0  0  0  0
   26.8542  -25.2676  -18.0337 N   0  0  0  0  0  0  0  0  0  0  0  0
   26.5851  -24.6363  -15.7090 C   0  0  0  0  0  0  0  0  0  0  0  0
   26.3638  -24.9337  -14.5170 O   0  0  0  0  0  0  0  0  0  0  0  0
   28.3032  -19.3323  -14.7336 N   0  0  0  0  0  0  0  0  0  0  0  0
   27.0803  -19.6931  -15.3416 C   0  0  0  0  0  0  0  0  0  0  0  0
   26.0438  -18.9827  -15.1242 O   0  0  0  0  0  0  0  0  0  0  0  0
   27.0108  -20.8850  -16.2190 C   0  0  0  0  0  0  0  0  0  0  0  0
   26.8100  -22.1144  -15.3125 C   0  0  2  0  0  0  0  0  0  0  0  0
   26.8267  -23.3146  -16.0678 N   0  0  0  0  0  0  0  0  0  0  0  0
   25.7176  -21.9441  -14.3750 C   0  0  0  0  0  0  0  0  0  0  0  0
   24.5340  -22.1361  -14.7186 O   0  0  0  0  0  0  0  0  0  0  0  0
   25.9656  -21.5556  -13.0319 N   0  0  0  0  0  0  0  0  0  0  0  0
   24.9064  -21.3823  -12.0501 C   0  0  1  0  0  0  0  0  0  0  0  0
   25.4962  -20.9712  -10.7062 C   0  0  0  0  0  0  0  0  0  0  0  0
   24.1557  -20.8145   -9.5046 S   0  0  0  0  0  0  0  0  0  0  0  0
   23.8852  -20.4113  -12.4529 C   0  0  0  0  0  0  0  0  0  0  0  0
   22.5520  -20.7576  -12.3379 O   0  0  0  0  0  0  0  0  0  0  0  0
   24.2445  -19.2970  -12.8896 O   0  0  0  0  0  0  0  0  0  0  0  0
  2  3  2  0
  2  1  1  0
  4  2  1  0
  5  4  1  0
  5  6  1  6
  7  5  1  0
  8  7  2  0
  9 10  1  0
 10 12  1  0
 10 11  2  0
 13 12  1  6
 13 14  1  0
 14  7  1  0
 15 13  1  0
 15 17  1  0
 16 15  2  0
 18 17  1  0
 18 19  1  1
 18 21  1  0
 20 19  1  0
 21 23  2  0
 21 22  1  0
M  END
$$$$
