NNC.pdb
     RDKit          3D

 23 22  0  0  1  0  0  0  0  0999 V2000
   13.5739   -9.3432   -9.4419 N   0  0  0  0  0  0  0  0  0  0  0  0
   14.9827   -9.4027   -9.2951 C   0  0  0  0  0  0  0  0  0  0  0  0
   15.4113   -9.7854   -8.1827 O   0  0  0  0  0  0  0  0  0  0  0  0
   15.7975   -9.0131  -10.4507 C   0  0  0  0  0  0  0  0  0  0  0  0
   15.0335   -8.6736  -11.6982 C   0  0  2  0  0  0  0  0  0  0  0  0
   14.5780   -9.9603  -12.2211 N   0  0  0  0  0  0  0  0  0  0  0  0
   15.8544   -7.9618  -12.7229 C   0  0  0  0  0  0  0  0  0  0  0  0
   16.3548   -8.6687  -13.6218 O   0  0  0  0  0  0  0  0  0  0  0  0
   16.8586   -3.6541  -16.0223 N   0  0  0  0  0  0  0  0  0  0  0  0
   17.1255   -3.6083  -14.6359 C   0  0  0  0  0  0  0  0  0  0  0  0
   18.1091   -2.9148  -14.2142 O   0  0  0  0  0  0  0  0  0  0  0  0
   16.2687   -4.3606  -13.6898 C   0  0  0  0  0  0  0  0  0  0  0  0
   16.8960   -5.7561  -13.5088 C   0  0  2  0  0  0  0  0  0  0  0  0
   16.0703   -6.5880  -12.7105 N   0  0  0  0  0  0  0  0  0  0  0  0
   18.3012   -5.6952  -13.1579 C   0  0  0  0  0  0  0  0  0  0  0  0
   18.6664   -5.4857  -11.9838 O   0  0  0  0  0  0  0  0  0  0  0  0
   19.3059   -5.8767  -14.1447 N   0  0  0  0  0  0  0  0  0  0  0  0
   20.7216   -5.9719  -13.8242 C   0  0  1  0  0  0  0  0  0  0  0  0
   21.3451   -7.1629  -14.5422 C   0  0  0  0  0  0  0  0  0  0  0  0
   22.6681   -7.8371  -13.5124 S   0  0  0  0  0  0  0  0  0  0  0  0
   21.4788   -4.7581  -14.1427 C   0  0  0  0  0  0  0  0  0  0  0  0
   22.6041   -4.4582  -13.3981 O   0  0  0  0  0  0  0  0  0  0  0  0
   21.0890   -4.0261  -15.0774 O   0  0  0  0  0  0  0  0  0  0  0  0
  2  3  2  0
  2  1  1  0
  4  2  1  0
  5  4  1  0
  5  6  1  6
  7  5  1  0
  8  7  2  0
  9 10  1  0
 10 12  1  0
 10 11  2  0
 13 12  1  1
 13 14  1  0
 14  7  1  0
 15 13  1  0
 15 17  1  0
 16 15  2  0
 18 17  1  0
 18 19  1  6
 18 21  1  0
 20 19  1  0
 21 23  2  0
 21 22  1  0
M  END
$$$$
