NNC.pdb
     RDKit          3D

 23 22  0  0  1  0  0  0  0  0999 V2000
   20.8528  -14.2810  -16.4829 N   0  0  0  0  0  0  0  0  0  0  0  0
   20.0385  -13.9832  -17.6046 C   0  0  0  0  0  0  0  0  0  0  0  0
   20.0348  -14.8264  -18.5300 O   0  0  0  0  0  0  0  0  0  0  0  0
   19.2844  -12.7256  -17.5747 C   0  0  0  0  0  0  0  0  0  0  0  0
   19.3960  -11.9324  -16.3044 C   0  0  2  0  0  0  0  0  0  0  0  0
   18.2293  -12.3222  -15.5148 N   0  0  0  0  0  0  0  0  0  0  0  0
   19.3998  -10.4552  -16.5244 C   0  0  0  0  0  0  0  0  0  0  0  0
   20.3442   -9.9972  -17.2003 O   0  0  0  0  0  0  0  0  0  0  0  0
   16.5874   -7.9154  -18.7553 N   0  0  0  0  0  0  0  0  0  0  0  0
   16.2939   -8.4648  -17.4875 C   0  0  0  0  0  0  0  0  0  0  0  0
   15.5983   -9.5313  -17.4173 O   0  0  0  0  0  0  0  0  0  0  0  0
   16.7911   -7.8030  -16.2586 C   0  0  0  0  0  0  0  0  0  0  0  0
   18.2712   -8.1958  -16.0895 C   0  0  2  0  0  0  0  0  0  0  0  0
   18.4215   -9.6044  -16.0214 N   0  0  0  0  0  0  0  0  0  0  0  0
   18.9433   -7.4141  -15.0704 C   0  0  0  0  0  0  0  0  0  0  0  0
   18.6912   -7.5758  -13.8596 O   0  0  0  0  0  0  0  0  0  0  0  0
   19.9145   -6.4402  -15.4234 N   0  0  0  0  0  0  0  0  0  0  0  0
   20.5987   -5.6132  -14.4416 C   0  0  1  0  0  0  0  0  0  0  0  0
   22.0617   -6.0264  -14.3329 C   0  0  0  0  0  0  0  0  0  0  0  0
   22.8815   -4.9573  -13.1286 S   0  0  0  0  0  0  0  0  0  0  0  0
   20.5161   -4.1773  -14.7232 C   0  0  0  0  0  0  0  0  0  0  0  0
   20.2051   -3.3112  -13.6919 O   0  0  0  0  0  0  0  0  0  0  0  0
   20.7285   -3.7728  -15.8863 O   0  0  0  0  0  0  0  0  0  0  0  0
  2  3  2  0
  2  1  1  0
  4  2  1  0
  5  4  1  0
  5  6  1  1
  7  5  1  0
  8  7  2  0
  9 10  1  0
 10 12  1  0
 10 11  2  0
 13 12  1  1
 13 14  1  0
 14  7  1  0
 15 13  1  0
 15 17  1  0
 16 15  2  0
 18 17  1  0
 18 19  1  6
 18 21  1  0
 20 19  1  0
 21 23  2  0
 21 22  1  0
M  END
$$$$
