NNC.pdb
     RDKit          3D

 23 22  0  0  1  0  0  0  0  0999 V2000
   29.1294  -20.6428  -18.9817 N   0  0  0  0  0  0  0  0  0  0  0  0
   28.3233  -19.4908  -19.1634 C   0  0  0  0  0  0  0  0  0  0  0  0
   28.6252  -18.7453  -20.1228 O   0  0  0  0  0  0  0  0  0  0  0  0
   27.2217  -19.2835  -18.2176 C   0  0  0  0  0  0  0  0  0  0  0  0
   27.1207  -20.2908  -17.1085 C   0  0  2  0  0  0  0  0  0  0  0  0
   26.4931  -21.4607  -17.7201 N   0  0  0  0  0  0  0  0  0  0  0  0
   26.3088  -19.8177  -15.9477 C   0  0  0  0  0  0  0  0  0  0  0  0
   26.7930  -18.8836  -15.2759 O   0  0  0  0  0  0  0  0  0  0  0  0
   23.0141  -17.3333  -15.7040 N   0  0  0  0  0  0  0  0  0  0  0  0
   22.8804  -18.6689  -16.1439 C   0  0  0  0  0  0  0  0  0  0  0  0
   22.8716  -18.9141  -17.3953 O   0  0  0  0  0  0  0  0  0  0  0  0
   22.7512  -19.7662  -15.1566 C   0  0  0  0  0  0  0  0  0  0  0  0
   24.1537  -20.0337  -14.5778 C   0  0  2  0  0  0  0  0  0  0  0  0
   25.0760  -20.3617  -15.6041 N   0  0  0  0  0  0  0  0  0  0  0  0
   24.1229  -20.9053  -13.4200 C   0  0  0  0  0  0  0  0  0  0  0  0
   23.7422  -22.0896  -13.5115 O   0  0  0  0  0  0  0  0  0  0  0  0
   24.5302  -20.4343  -12.1439 N   0  0  0  0  0  0  0  0  0  0  0  0
   24.1843  -21.1107  -10.9034 C   0  0  1  0  0  0  0  0  0  0  0  0
   25.1660  -20.7266   -9.8027 C   0  0  0  0  0  0  0  0  0  0  0  0
   26.8447  -21.0855  -10.3675 S   0  0  0  0  0  0  0  0  0  0  0  0
   22.8155  -20.8456  -10.4517 C   0  0  0  0  0  0  0  0  0  0  0  0
   22.3043  -21.5833   -9.4005 O   0  0  0  0  0  0  0  0  0  0  0  0
   22.1461  -19.9611  -11.0271 O   0  0  0  0  0  0  0  0  0  0  0  0
  2  3  2  0
  2  1  1  0
  4  2  1  0
  5  4  1  0
  5  6  1  6
  7  5  1  0
  8  7  2  0
  9 10  1  0
 10 12  1  0
 10 11  2  0
 13 12  1  6
 13 14  1  0
 14  7  1  0
 15 13  1  0
 15 17  1  0
 16 15  2  0
 18 17  1  0
 18 19  1  1
 18 21  1  0
 20 19  1  0
 21 23  2  0
 21 22  1  0
M  END
$$$$
