NNC.pdb
     RDKit          3D

 23 22  0  0  1  0  0  0  0  0999 V2000
   12.7891  -13.0422   -9.7526 N   0  0  0  0  0  0  0  0  0  0  0  0
   13.1215  -11.8754  -10.4861 C   0  0  0  0  0  0  0  0  0  0  0  0
   12.5805  -11.7496  -11.6081 O   0  0  0  0  0  0  0  0  0  0  0  0
   14.0604  -10.9346   -9.8661 C   0  0  0  0  0  0  0  0  0  0  0  0
   15.2514  -10.5614  -10.7011 C   0  0  2  0  0  0  0  0  0  0  0  0
   15.9944  -11.8084  -10.8735 N   0  0  0  0  0  0  0  0  0  0  0  0
   16.1213   -9.5261  -10.0671 C   0  0  0  0  0  0  0  0  0  0  0  0
   17.2929   -9.8695   -9.8068 O   0  0  0  0  0  0  0  0  0  0  0  0
   17.8743   -4.8096   -9.5070 N   0  0  0  0  0  0  0  0  0  0  0  0
   18.1558   -5.6193  -10.6298 C   0  0  0  0  0  0  0  0  0  0  0  0
   19.0575   -5.2503  -11.4527 O   0  0  0  0  0  0  0  0  0  0  0  0
   17.4072   -6.8801  -10.8422 C   0  0  0  0  0  0  0  0  0  0  0  0
   16.3764   -7.0022   -9.7036 C   0  0  2  0  0  0  0  0  0  0  0  0
   15.6861   -8.2393   -9.7697 N   0  0  0  0  0  0  0  0  0  0  0  0
   15.5696   -5.8077   -9.5507 C   0  0  0  0  0  0  0  0  0  0  0  0
   15.1095   -5.2063  -10.5419 O   0  0  0  0  0  0  0  0  0  0  0  0
   15.2760   -5.2882   -8.2622 N   0  0  0  0  0  0  0  0  0  0  0  0
   14.2177   -4.3196   -8.0220 C   0  0  1  0  0  0  0  0  0  0  0  0
   13.5185   -4.6202   -6.7016 C   0  0  0  0  0  0  0  0  0  0  0  0
   12.7675   -6.2609   -6.7999 S   0  0  0  0  0  0  0  0  0  0  0  0
   14.6822   -2.9295   -8.0236 C   0  0  0  0  0  0  0  0  0  0  0  0
   13.7539   -1.9149   -7.8848 O   0  0  0  0  0  0  0  0  0  0  0  0
   15.9034   -2.6968   -8.1503 O   0  0  0  0  0  0  0  0  0  0  0  0
  2  3  2  0
  2  1  1  0
  4  2  1  0
  5  4  1  0
  5  6  1  1
  7  5  1  0
  8  7  2  0
  9 10  1  0
 10 12  1  0
 10 11  2  0
 13 12  1  6
 13 14  1  0
 14  7  1  0
 15 13  1  0
 15 17  1  0
 16 15  2  0
 18 17  1  0
 18 19  1  1
 18 21  1  0
 20 19  1  0
 21 23  2  0
 21 22  1  0
M  END
$$$$
