FLV.pdb
     RDKit          3D

 27 27  0  0  1  0  0  0  0  0999 V2000
   28.2628  -19.8830   -9.6123 N   0  0  0  0  0  0  0  0  0  0  0  0
   27.0190  -20.5063   -9.2948 C   0  0  1  0  0  0  0  0  0  0  0  0
   26.3132  -19.8820   -8.1202 C   0  0  0  0  0  0  0  0  0  0  0  0
   27.2521  -19.8457   -6.9795 C   0  0  0  0  0  0  0  0  0  0  0  0
   27.6560  -18.6431   -6.4399 C   0  0  0  0  0  0  0  0  0  0  0  0
   28.5323  -18.6396   -5.3765 C   0  0  0  0  0  0  0  0  0  0  0  0
   29.0152  -19.8102   -4.8386 C   0  0  0  0  0  0  0  0  0  0  0  0
   28.6161  -21.0250   -5.3729 C   0  0  0  0  0  0  0  0  0  0  0  0
   27.7368  -21.0156   -6.4394 C   0  0  0  0  0  0  0  0  0  0  0  0
   26.1161  -20.3736  -10.4705 C   0  0  0  0  0  0  0  0  0  0  0  0
   25.8540  -19.2553  -10.9767 O   0  0  0  0  0  0  0  0  0  0  0  0
   25.2803  -24.5756  -14.5912 C   0  0  0  0  0  0  0  0  0  0  0  0
   24.7674  -23.2098  -14.2425 C   0  0  2  0  0  0  0  0  0  0  0  0
   25.2767  -22.2045  -15.3012 C   0  0  0  0  0  0  0  0  0  0  0  0
   25.2461  -22.7416  -12.9459 C   0  0  0  0  0  0  0  0  0  0  0  0
   24.8495  -21.4536  -12.3533 C   0  0  2  0  0  0  0  0  0  0  0  0
   25.5536  -21.5146  -11.0163 N   0  0  0  0  0  0  0  0  0  0  0  0
   23.4639  -21.1897  -12.0091 C   0  0  0  0  0  0  0  0  0  0  0  0
   23.0122  -21.6276  -10.8908 O   0  0  0  0  0  0  0  0  0  0  0  0
   19.1331  -18.8960  -12.3727 C   0  0  0  0  0  0  0  0  0  0  0  0
   20.5868  -18.9658  -12.7818 C   0  0  1  0  0  0  0  0  0  0  0  0
   21.3479  -17.8153  -12.1720 C   0  0  0  0  0  0  0  0  0  0  0  0
   21.1249  -20.3065  -12.3222 C   0  0  2  0  0  0  0  0  0  0  0  0
   22.5152  -20.4733  -12.7752 N   0  0  0  0  0  0  0  0  0  0  0  0
   20.2896  -21.3815  -12.8482 C   0  0  0  0  0  0  0  0  0  0  0  0
   19.3151  -21.9610  -12.0533 O   0  0  0  0  0  0  0  0  0  0  0  0
   20.4236  -21.8044  -14.0060 O   0  0  0  0  0  0  0  0  0  0  0  0
  2  1  1  6
  2  3  1  0
  3  4  1  0
  4  5  2  0
  5  6  1  0
  7  6  2  0
  8  7  1  0
  9  8  2  0
  9  4  1  0
 10 11  2  0
 10  2  1  0
 13 12  1  6
 14 13  1  0
 15 13  1  0
 16 15  1  1
 16 17  1  0
 17 10  1  0
 18 24  1  0
 18 16  1  0
 19 18  2  0
 21 20  1  1
 21 22  1  0
 23 21  1  0
 23 24  1  6
 25 26  1  0
 25 23  1  0
 27 25  2  0
M  END
$$$$
