FLV.pdb
     RDKit          3D

 27 27  0  0  1  0  0  0  0  0999 V2000
   28.0775  -25.2206  -16.7642 N   0  0  0  0  0  0  0  0  0  0  0  0
   26.8357  -24.5184  -16.7302 C   0  0  1  0  0  0  0  0  0  0  0  0
   25.6726  -25.3693  -16.2934 C   0  0  0  0  0  0  0  0  0  0  0  0
   25.1755  -26.1154  -17.4681 C   0  0  0  0  0  0  0  0  0  0  0  0
   24.5197  -25.4617  -18.4896 C   0  0  0  0  0  0  0  0  0  0  0  0
   24.0670  -26.1831  -19.5729 C   0  0  0  0  0  0  0  0  0  0  0  0
   24.2541  -27.5434  -19.6602 C   0  0  0  0  0  0  0  0  0  0  0  0
   24.9120  -28.2109  -18.6393 C   0  0  0  0  0  0  0  0  0  0  0  0
   25.3613  -27.4765  -17.5580 C   0  0  0  0  0  0  0  0  0  0  0  0
   26.9559  -23.4035  -15.7514 C   0  0  0  0  0  0  0  0  0  0  0  0
   27.7899  -23.4372  -14.8140 O   0  0  0  0  0  0  0  0  0  0  0  0
   28.6357  -19.1683  -15.3353 C   0  0  0  0  0  0  0  0  0  0  0  0
   27.6627  -19.5614  -16.4071 C   0  0  2  0  0  0  0  0  0  0  0  0
   27.3720  -18.3252  -17.2894 C   0  0  0  0  0  0  0  0  0  0  0  0
   26.3828  -20.0112  -15.8697 C   0  0  0  0  0  0  0  0  0  0  0  0
   26.2498  -21.1362  -14.9294 C   0  0  2  0  0  0  0  0  0  0  0  0
   26.1252  -22.3040  -15.8821 N   0  0  0  0  0  0  0  0  0  0  0  0
   25.0830  -21.2548  -14.0734 C   0  0  0  0  0  0  0  0  0  0  0  0
   23.9761  -21.6465  -14.5907 O   0  0  0  0  0  0  0  0  0  0  0  0
   24.7831  -22.3418  -10.1591 C   0  0  0  0  0  0  0  0  0  0  0  0
   23.9986  -21.0849  -10.4591 C   0  0  1  0  0  0  0  0  0  0  0  0
   24.7727  -19.8743  -10.0006 C   0  0  0  0  0  0  0  0  0  0  0  0
   23.7376  -21.0568  -11.9522 C   0  0  2  0  0  0  0  0  0  0  0  0
   25.0122  -20.9938  -12.6852 N   0  0  0  0  0  0  0  0  0  0  0  0
   22.9046  -19.9063  -12.2872 C   0  0  0  0  0  0  0  0  0  0  0  0
   21.5562  -19.9054  -11.9725 O   0  0  0  0  0  0  0  0  0  0  0  0
   23.3701  -18.9078  -12.8561 O   0  0  0  0  0  0  0  0  0  0  0  0
  2  1  1  1
  2  3  1  0
  3  4  1  0
  4  5  2  0
  5  6  1  0
  7  6  2  0
  8  7  1  0
  9  8  2  0
  9  4  1  0
 10 11  2  0
 10  2  1  0
 13 12  1  1
 14 13  1  0
 15 13  1  0
 16 15  1  6
 16 17  1  0
 17 10  1  0
 18 24  1  0
 18 16  1  0
 19 18  2  0
 21 20  1  6
 21 22  1  0
 23 21  1  0
 23 24  1  6
 25 26  1  0
 25 23  1  0
 27 25  2  0
M  END
$$$$
