FLV.pdb
     RDKit          3D

 27 27  0  0  1  0  0  0  0  0999 V2000
   28.0574  -19.1315  -15.5801 N   0  0  0  0  0  0  0  0  0  0  0  0
   27.0181  -18.5234  -14.8144 C   0  0  1  0  0  0  0  0  0  0  0  0
   26.1470  -17.5898  -15.6127 C   0  0  0  0  0  0  0  0  0  0  0  0
   26.9056  -16.3465  -15.8631 C   0  0  0  0  0  0  0  0  0  0  0  0
   27.3696  -16.0489  -17.1267 C   0  0  0  0  0  0  0  0  0  0  0  0
   28.0741  -14.8823  -17.3308 C   0  0  0  0  0  0  0  0  0  0  0  0
   28.3262  -14.0049  -16.3014 C   0  0  0  0  0  0  0  0  0  0  0  0
   27.8646  -14.2938  -15.0270 C   0  0  0  0  0  0  0  0  0  0  0  0
   27.1593  -15.4669  -14.8349 C   0  0  0  0  0  0  0  0  0  0  0  0
   26.1374  -19.5997  -14.2841 C   0  0  0  0  0  0  0  0  0  0  0  0
   25.9695  -20.6783  -14.9037 O   0  0  0  0  0  0  0  0  0  0  0  0
   26.5540  -21.9999  -10.3652 C   0  0  0  0  0  0  0  0  0  0  0  0
   26.1895  -20.5467  -10.2920 C   0  0  2  0  0  0  0  0  0  0  0  0
   25.9725  -20.1649   -8.8094 C   0  0  0  0  0  0  0  0  0  0  0  0
   24.9489  -20.2401  -10.9965 C   0  0  0  0  0  0  0  0  0  0  0  0
   24.7330  -20.5362  -12.4224 C   0  0  2  0  0  0  0  0  0  0  0  0
   25.4892  -19.4019  -13.0771 N   0  0  0  0  0  0  0  0  0  0  0  0
   23.4055  -20.4561  -13.0048 C   0  0  0  0  0  0  0  0  0  0  0  0
   22.8685  -19.3010  -13.1590 O   0  0  0  0  0  0  0  0  0  0  0  0
   19.7276  -21.9492  -15.8286 C   0  0  0  0  0  0  0  0  0  0  0  0
   21.1285  -22.1608  -15.3015 C   0  0  1  0  0  0  0  0  0  0  0  0
   22.1371  -21.7947  -16.3616 C   0  0  0  0  0  0  0  0  0  0  0  0
   21.2805  -21.3072  -14.0579 C   0  0  2  0  0  0  0  0  0  0  0  0
   22.6027  -21.5313  -13.4516 N   0  0  0  0  0  0  0  0  0  0  0  0
   20.2253  -21.6317  -13.1033 C   0  0  0  0  0  0  0  0  0  0  0  0
   19.1300  -20.7963  -12.9627 O   0  0  0  0  0  0  0  0  0  0  0  0
   20.2749  -22.6500  -12.3977 O   0  0  0  0  0  0  0  0  0  0  0  0
  2  1  1  6
  2  3  1  0
  3  4  1  0
  4  5  2  0
  5  6  1  0
  7  6  2  0
  8  7  1  0
  9  8  2  0
  9  4  1  0
 10 11  2  0
 10  2  1  0
 13 12  1  1
 14 13  1  0
 15 13  1  0
 16 15  1  1
 16 17  1  0
 17 10  1  0
 18 24  1  0
 18 16  1  0
 19 18  2  0
 21 20  1  6
 21 22  1  0
 23 21  1  0
 23 24  1  1
 25 26  1  0
 25 23  1  0
 27 25  2  0
M  END
$$$$
