FLV.pdb
     RDKit          3D

 27 27  0  0  1  0  0  0  0  0999 V2000
   27.8919  -21.2677  -16.4364 N   0  0  0  0  0  0  0  0  0  0  0  0
   27.2328  -20.2469  -15.6882 C   0  0  1  0  0  0  0  0  0  0  0  0
   26.3757  -19.3390  -16.5302 C   0  0  0  0  0  0  0  0  0  0  0  0
   27.2633  -18.4282  -17.2828 C   0  0  0  0  0  0  0  0  0  0  0  0
   27.8178  -17.3237  -16.6717 C   0  0  0  0  0  0  0  0  0  0  0  0
   28.6418  -16.4917  -17.3981 C   0  0  0  0  0  0  0  0  0  0  0  0
   28.9255  -16.7372  -18.7219 C   0  0  0  0  0  0  0  0  0  0  0  0
   28.3736  -17.8444  -19.3464 C   0  0  0  0  0  0  0  0  0  0  0  0
   27.5488  -18.6714  -18.6074 C   0  0  0  0  0  0  0  0  0  0  0  0
   26.3369  -20.8999  -14.6952 C   0  0  0  0  0  0  0  0  0  0  0  0
   25.7876  -22.0039  -14.9296 O   0  0  0  0  0  0  0  0  0  0  0  0
   25.8541  -19.8308   -8.8048 C   0  0  0  0  0  0  0  0  0  0  0  0
   25.1767  -20.6117   -9.8916 C   0  0  2  0  0  0  0  0  0  0  0  0
   25.3225  -22.1197   -9.5821 C   0  0  0  0  0  0  0  0  0  0  0  0
   25.7739  -20.3869  -11.2039 C   0  0  0  0  0  0  0  0  0  0  0  0
   25.1969  -20.9044  -12.4556 C   0  0  2  0  0  0  0  0  0  0  0  0
   26.1063  -20.2702  -13.4842 N   0  0  0  0  0  0  0  0  0  0  0  0
   23.8635  -20.5128  -12.8763 C   0  0  0  0  0  0  0  0  0  0  0  0
   23.6998  -19.3575  -13.4099 O   0  0  0  0  0  0  0  0  0  0  0  0
   21.6144  -22.7000  -14.9540 C   0  0  0  0  0  0  0  0  0  0  0  0
   21.3980  -21.2066  -14.8639 C   0  0  1  0  0  0  0  0  0  0  0  0
   20.0917  -20.8362  -15.5208 C   0  0  0  0  0  0  0  0  0  0  0  0
   21.4185  -20.8315  -13.3952 C   0  0  2  0  0  0  0  0  0  0  0  0
   22.6782  -21.2781  -12.7789 N   0  0  0  0  0  0  0  0  0  0  0  0
   20.2796  -21.4384  -12.7137 C   0  0  0  0  0  0  0  0  0  0  0  0
   19.0153  -20.8884  -12.8420 O   0  0  0  0  0  0  0  0  0  0  0  0
   20.4052  -22.4503  -12.0084 O   0  0  0  0  0  0  0  0  0  0  0  0
  2  1  1  6
  2  3  1  0
  3  4  1  0
  4  5  2  0
  5  6  1  0
  7  6  2  0
  8  7  1  0
  9  8  2  0
  9  4  1  0
 10 11  2  0
 10  2  1  0
 13 12  1  1
 14 13  1  0
 15 13  1  0
 16 15  1  1
 16 17  1  0
 17 10  1  0
 18 24  1  0
 18 16  1  0
 19 18  2  0
 21 20  1  1
 21 22  1  0
 23 21  1  0
 23 24  1  1
 25 26  1  0
 25 23  1  0
 27 25  2  0
M  END
$$$$
