FLV.pdb
     RDKit          3D

 27 27  0  0  1  0  0  0  0  0999 V2000
   28.5594  -20.1441  -15.6294 N   0  0  0  0  0  0  0  0  0  0  0  0
   27.6994  -19.3489  -14.8143 C   0  0  1  0  0  0  0  0  0  0  0  0
   26.7506  -18.4843  -15.6016 C   0  0  0  0  0  0  0  0  0  0  0  0
   27.4903  -17.2972  -16.0784 C   0  0  0  0  0  0  0  0  0  0  0  0
   28.0828  -17.2918  -17.3233 C   0  0  0  0  0  0  0  0  0  0  0  0
   28.7663  -16.1709  -17.7418 C   0  0  0  0  0  0  0  0  0  0  0  0
   28.8721  -15.0539  -16.9454 C   0  0  0  0  0  0  0  0  0  0  0  0
   28.2805  -15.0481  -15.6922 C   0  0  0  0  0  0  0  0  0  0  0  0
   27.5977  -16.1783  -15.2837 C   0  0  0  0  0  0  0  0  0  0  0  0
   26.8717  -20.2615  -13.9793 C   0  0  0  0  0  0  0  0  0  0  0  0
   26.6464  -21.4471  -14.3244 O   0  0  0  0  0  0  0  0  0  0  0  0
   25.8791  -19.9653   -8.1246 C   0  0  0  0  0  0  0  0  0  0  0  0
   25.3657  -20.7083   -9.3222 C   0  0  2  0  0  0  0  0  0  0  0  0
   25.6842  -22.2112   -9.1464 C   0  0  0  0  0  0  0  0  0  0  0  0
   25.9997  -20.2815  -10.5653 C   0  0  0  0  0  0  0  0  0  0  0  0
   25.5349  -20.7022  -11.8974 C   0  0  2  0  0  0  0  0  0  0  0  0
   26.3388  -19.7866  -12.7932 N   0  0  0  0  0  0  0  0  0  0  0  0
   24.1606  -20.4790  -12.3092 C   0  0  0  0  0  0  0  0  0  0  0  0
   23.7902  -19.2855  -12.6002 O   0  0  0  0  0  0  0  0  0  0  0  0
   22.4273  -21.0544  -15.2026 C   0  0  0  0  0  0  0  0  0  0  0  0
   21.4624  -21.6678  -14.2137 C   0  0  1  0  0  0  0  0  0  0  0  0
   21.5992  -23.1698  -14.2264 C   0  0  0  0  0  0  0  0  0  0  0  0
   21.7751  -21.0832  -12.8503 C   0  0  2  0  0  0  0  0  0  0  0  0
   23.1418  -21.4503  -12.4463 N   0  0  0  0  0  0  0  0  0  0  0  0
   20.8102  -21.5708  -11.8699 C   0  0  0  0  0  0  0  0  0  0  0  0
   19.5162  -21.0779  -11.8591 O   0  0  0  0  0  0  0  0  0  0  0  0
   21.1132  -22.4286  -11.0276 O   0  0  0  0  0  0  0  0  0  0  0  0
  2  1  1  6
  2  3  1  0
  3  4  1  0
  4  5  2  0
  5  6  1  0
  7  6  2  0
  8  7  1  0
  9  8  2  0
  9  4  1  0
 10 11  2  0
 10  2  1  0
 13 12  1  1
 14 13  1  0
 15 13  1  0
 16 15  1  1
 16 17  1  0
 17 10  1  0
 18 24  1  0
 18 16  1  0
 19 18  2  0
 21 20  1  6
 21 22  1  0
 23 21  1  0
 23 24  1  1
 25 26  1  0
 25 23  1  0
 27 25  2  0
M  END
$$$$
