FLV.pdb
     RDKit          3D

 27 27  0  0  1  0  0  0  0  0999 V2000
   24.5094  -22.2225  -12.9318 N   0  0  0  0  0  0  0  0  0  0  0  0
   24.5356  -21.1516  -11.9890 C   0  0  1  0  0  0  0  0  0  0  0  0
   23.2291  -20.9501  -11.2677 C   0  0  0  0  0  0  0  0  0  0  0  0
   22.2277  -20.4735  -12.2443 C   0  0  0  0  0  0  0  0  0  0  0  0
   21.1641  -21.2723  -12.6066 C   0  0  0  0  0  0  0  0  0  0  0  0
   20.2455  -20.8018  -13.5197 C   0  0  0  0  0  0  0  0  0  0  0  0
   20.3644  -19.5508  -14.0801 C   0  0  0  0  0  0  0  0  0  0  0  0
   21.4295  -18.7392  -13.7233 C   0  0  0  0  0  0  0  0  0  0  0  0
   22.3442  -19.2223  -12.8065 C   0  0  0  0  0  0  0  0  0  0  0  0
   25.5630  -21.4618  -10.9578 C   0  0  0  0  0  0  0  0  0  0  0  0
   25.8119  -22.6420  -10.6102 O   0  0  0  0  0  0  0  0  0  0  0  0
   29.6452  -22.0901  -11.4524 C   0  0  0  0  0  0  0  0  0  0  0  0
   29.0061  -20.7586  -11.7141 C   0  0  2  0  0  0  0  0  0  0  0  0
   30.0571  -19.8222  -12.3540 C   0  0  0  0  0  0  0  0  0  0  0  0
   28.5416  -20.1063  -10.4941 C   0  0  0  0  0  0  0  0  0  0  0  0
   27.5307  -20.6912   -9.5978 C   0  0  2  0  0  0  0  0  0  0  0  0
   26.2591  -20.4196  -10.3700 N   0  0  0  0  0  0  0  0  0  0  0  0
   27.2768  -20.1161   -8.2890 C   0  0  0  0  0  0  0  0  0  0  0  0
   26.4702  -19.1224   -8.1981 O   0  0  0  0  0  0  0  0  0  0  0  0
   27.3709  -21.8458   -4.5605 C   0  0  0  0  0  0  0  0  0  0  0  0
   28.1334  -20.5421   -4.6246 C   0  0  1  0  0  0  0  0  0  0  0  0
   29.6120  -20.8168   -4.7401 C   0  0  0  0  0  0  0  0  0  0  0  0
   27.6080  -19.7656   -5.8159 C   0  0  2  0  0  0  0  0  0  0  0  0
   27.8185  -20.5361   -7.0520 N   0  0  0  0  0  0  0  0  0  0  0  0
   28.2848  -18.4756   -5.9031 C   0  0  0  0  0  0  0  0  0  0  0  0
   28.0333  -17.4903   -4.9632 O   0  0  0  0  0  0  0  0  0  0  0  0
   29.0943  -18.2237   -6.8079 O   0  0  0  0  0  0  0  0  0  0  0  0
  2  1  1  6
  2  3  1  0
  3  4  1  0
  4  5  2  0
  5  6  1  0
  7  6  2  0
  8  7  1  0
  9  8  2  0
  9  4  1  0
 10 11  2  0
 10  2  1  0
 13 12  1  1
 14 13  1  0
 15 13  1  0
 16 15  1  6
 16 17  1  0
 17 10  1  0
 18 24  1  0
 18 16  1  0
 19 18  2  0
 21 20  1  6
 21 22  1  0
 23 21  1  0
 23 24  1  6
 25 26  1  0
 25 23  1  0
 27 25  2  0
M  END
$$$$
