FGL.pdb
     RDKit          3D

 24 24  0  0  1  0  0  0  0  0999 V2000
    6.8449  -17.7247   21.7951 N   0  0  0  0  0  0  0  0  0  0  0  0
    7.3208  -16.7300   22.7020 C   0  0  1  0  0  0  0  0  0  0  0  0
    6.4088  -16.5792   23.9158 C   0  0  0  0  0  0  0  0  0  0  0  0
    6.6295  -15.2890   24.6156 C   0  0  0  0  0  0  0  0  0  0  0  0
    6.3059  -15.0398   25.9235 C   0  0  0  0  0  0  0  0  0  0  0  0
    6.5357  -13.8088   26.5273 C   0  0  0  0  0  0  0  0  0  0  0  0
    7.1073  -12.8037   25.7908 C   0  0  0  0  0  0  0  0  0  0  0  0
    7.4384  -13.0379   24.4758 C   0  0  0  0  0  0  0  0  0  0  0  0
    7.2038  -14.2680   23.8880 C   0  0  0  0  0  0  0  0  0  0  0  0
    8.6716  -17.0630   23.1596 C   0  0  0  0  0  0  0  0  0  0  0  0
    8.9538  -18.1893   23.6415 O   0  0  0  0  0  0  0  0  0  0  0  0
    9.7630  -16.1186   23.0855 N   0  0  0  0  0  0  0  0  0  0  0  0
   11.0849  -16.5444   23.4493 C   0  0  0  0  0  0  0  0  0  0  0  0
   11.4225  -16.4188   24.8670 C   0  0  0  0  0  0  0  0  0  0  0  0
   12.6332  -16.6700   25.2131 O   0  0  0  0  0  0  0  0  0  0  0  0
    9.9828  -12.9903   29.1170 C   0  0  0  0  0  0  0  0  0  0  0  0
   10.6090  -13.8620   28.0404 C   0  0  2  0  0  0  0  0  0  0  0  0
   10.3065  -13.2959   26.6969 C   0  0  0  0  0  0  0  0  0  0  0  0
   10.2578  -15.2919   28.2080 C   0  0  0  0  0  0  0  0  0  0  0  0
   10.9454  -16.2631   27.3113 C   0  0  2  0  0  0  0  0  0  0  0  0
   10.5453  -16.0450   25.9113 N   0  0  0  0  0  0  0  0  0  0  0  0
   10.5678  -17.6607   27.6169 C   0  0  0  0  0  0  0  0  0  0  0  0
    9.8031  -18.4421   26.7640 O   0  0  0  0  0  0  0  0  0  0  0  0
   10.9447  -18.1845   28.6901 O   0  0  0  0  0  0  0  0  0  0  0  0
  2  1  1  6
  3  2  1  0
  4  3  1  0
  5  4  2  0
  6  5  1  0
  7  8  1  0
  7  6  2  0
  8  9  2  0
  9  4  1  0
 10  2  1  0
 10 12  1  0
 11 10  2  0
 13 12  1  0
 13 14  1  0
 14 21  1  0
 15 14  2  0
 17 16  1  1
 17 19  1  0
 18 17  1  0
 20 19  1  1
 20 22  1  0
 21 20  1  0
 22 24  2  0
 22 23  1  0
M  END
$$$$
