FGL.pdb
     RDKit          3D

 24 24  0  0  1  0  0  0  0  0999 V2000
    7.5525  -19.4988   28.6407 N   0  0  0  0  0  0  0  0  0  0  0  0
    8.0962  -18.9249   27.4518 C   0  0  1  0  0  0  0  0  0  0  0  0
    9.4492  -18.2655   27.7020 C   0  0  0  0  0  0  0  0  0  0  0  0
    9.3027  -16.9062   28.2798 C   0  0  0  0  0  0  0  0  0  0  0  0
    8.1082  -16.2772   28.5143 C   0  0  0  0  0  0  0  0  0  0  0  0
    8.0318  -15.0001   29.0582 C   0  0  0  0  0  0  0  0  0  0  0  0
    9.1921  -14.3415   29.3734 C   0  0  0  0  0  0  0  0  0  0  0  0
   10.4001  -14.9594   29.1440 C   0  0  0  0  0  0  0  0  0  0  0  0
   10.4609  -16.2307   28.6021 C   0  0  0  0  0  0  0  0  0  0  0  0
    8.2497  -19.9492   26.4163 C   0  0  0  0  0  0  0  0  0  0  0  0
    8.8535  -21.0305   26.6322 O   0  0  0  0  0  0  0  0  0  0  0  0
    7.7168  -19.7809   25.0835 N   0  0  0  0  0  0  0  0  0  0  0  0
    6.7322  -18.7636   24.8451 C   0  0  0  0  0  0  0  0  0  0  0  0
    7.2459  -17.4932   24.3337 C   0  0  0  0  0  0  0  0  0  0  0  0
    6.8205  -17.0994   23.1879 O   0  0  0  0  0  0  0  0  0  0  0  0
    6.9805  -12.1177   25.9552 C   0  0  0  0  0  0  0  0  0  0  0  0
    7.4234  -13.0575   24.8453 C   0  0  2  0  0  0  0  0  0  0  0  0
    6.2665  -13.3722   23.9624 C   0  0  0  0  0  0  0  0  0  0  0  0
    8.1455  -14.2394   25.3720 C   0  0  0  0  0  0  0  0  0  0  0  0
    8.4691  -15.3193   24.3977 C   0  0  2  0  0  0  0  0  0  0  0  0
    8.1739  -16.6409   24.9755 N   0  0  0  0  0  0  0  0  0  0  0  0
    9.9101  -15.3478   24.0625 C   0  0  0  0  0  0  0  0  0  0  0  0
   10.4399  -14.7210   22.9448 O   0  0  0  0  0  0  0  0  0  0  0  0
   10.7083  -15.9603   24.8081 O   0  0  0  0  0  0  0  0  0  0  0  0
  2  1  1  1
  3  2  1  0
  4  3  1  0
  5  4  2  0
  6  5  1  0
  7  8  1  0
  7  6  2  0
  8  9  2  0
  9  4  1  0
 10  2  1  0
 10 12  1  0
 11 10  2  0
 13 12  1  0
 13 14  1  0
 14 21  1  0
 15 14  2  0
 17 16  1  1
 17 19  1  0
 18 17  1  0
 20 19  1  1
 20 22  1  0
 21 20  1  0
 22 24  2  0
 22 23  1  0
M  END
$$$$
