FGL.pdb
     RDKit          3D

 24 24  0  0  1  0  0  0  0  0999 V2000
    8.3660  -18.4739   27.7347 N   0  0  0  0  0  0  0  0  0  0  0  0
    8.0567  -17.4899   26.7475 C   0  0  1  0  0  0  0  0  0  0  0  0
    9.2950  -16.7188   26.3008 C   0  0  0  0  0  0  0  0  0  0  0  0
    9.4039  -15.4054   26.9836 C   0  0  0  0  0  0  0  0  0  0  0  0
    8.6966  -14.2824   26.6432 C   0  0  0  0  0  0  0  0  0  0  0  0
    8.8406  -13.0765   27.3197 C   0  0  0  0  0  0  0  0  0  0  0  0
    9.7218  -13.0032   28.3673 C   0  0  0  0  0  0  0  0  0  0  0  0
   10.4400  -14.1223   28.7219 C   0  0  0  0  0  0  0  0  0  0  0  0
   10.2864  -15.3157   28.0395 C   0  0  0  0  0  0  0  0  0  0  0  0
    7.4395  -18.1190   25.5778 C   0  0  0  0  0  0  0  0  0  0  0  0
    7.8376  -19.2227   25.1263 O   0  0  0  0  0  0  0  0  0  0  0  0
    6.3355  -17.5109   24.8707 N   0  0  0  0  0  0  0  0  0  0  0  0
    6.1030  -17.8621   23.4982 C   0  0  0  0  0  0  0  0  0  0  0  0
    6.9719  -17.2064   22.5212 C   0  0  0  0  0  0  0  0  0  0  0  0
    6.7531  -17.4446   21.2786 O   0  0  0  0  0  0  0  0  0  0  0  0
    6.8098  -14.0372   20.1634 C   0  0  0  0  0  0  0  0  0  0  0  0
    7.4646  -13.7647   21.5081 C   0  0  2  0  0  0  0  0  0  0  0  0
    7.3978  -12.3089   21.8134 C   0  0  0  0  0  0  0  0  0  0  0  0
    8.8190  -14.3592   21.5983 C   0  0  0  0  0  0  0  0  0  0  0  0
    8.8964  -15.8433   21.7060 C   0  0  2  0  0  0  0  0  0  0  0  0
    8.0420  -16.3261   22.8035 N   0  0  0  0  0  0  0  0  0  0  0  0
   10.2631  -16.3028   22.0381 C   0  0  0  0  0  0  0  0  0  0  0  0
   10.5783  -16.9447   23.2262 O   0  0  0  0  0  0  0  0  0  0  0  0
   11.1957  -16.1146   21.2239 O   0  0  0  0  0  0  0  0  0  0  0  0
  2  1  1  1
  3  2  1  0
  4  3  1  0
  5  4  2  0
  6  5  1  0
  7  8  1  0
  7  6  2  0
  8  9  2  0
  9  4  1  0
 10  2  1  0
 10 12  1  0
 11 10  2  0
 13 12  1  0
 13 14  1  0
 14 21  1  0
 15 14  2  0
 17 16  1  6
 17 19  1  0
 18 17  1  0
 20 19  1  1
 20 22  1  0
 21 20  1  0
 22 24  2  0
 22 23  1  0
M  END
$$$$
