FGL.pdb
     RDKit          3D

 24 24  0  0  1  0  0  0  0  0999 V2000
    7.6319  -16.7264   21.9549 N   0  0  0  0  0  0  0  0  0  0  0  0
    8.6162  -16.9925   20.9554 C   0  0  1  0  0  0  0  0  0  0  0  0
    8.5926  -15.9535   19.8384 C   0  0  0  0  0  0  0  0  0  0  0  0
    8.0684  -14.6474   20.3101 C   0  0  0  0  0  0  0  0  0  0  0  0
    6.7565  -14.3898   20.6097 C   0  0  0  0  0  0  0  0  0  0  0  0
    6.3221  -13.1439   21.0476 C   0  0  0  0  0  0  0  0  0  0  0  0
    7.2367  -12.1322   21.1864 C   0  0  0  0  0  0  0  0  0  0  0  0
    8.5584  -12.3746   20.8896 C   0  0  0  0  0  0  0  0  0  0  0  0
    8.9764  -13.6196   20.4547 C   0  0  0  0  0  0  0  0  0  0  0  0
    9.9532  -17.0198   21.5525 C   0  0  0  0  0  0  0  0  0  0  0  0
   10.9961  -16.9207   20.8575 O   0  0  0  0  0  0  0  0  0  0  0  0
   10.1566  -17.1619   22.9763 N   0  0  0  0  0  0  0  0  0  0  0  0
   11.2583  -16.4835   23.5985 C   0  0  0  0  0  0  0  0  0  0  0  0
   10.9628  -15.8375   24.8772 C   0  0  0  0  0  0  0  0  0  0  0  0
   11.8777  -15.0998   25.3945 O   0  0  0  0  0  0  0  0  0  0  0  0
    8.6677  -12.4844   26.6753 C   0  0  0  0  0  0  0  0  0  0  0  0
    7.8782  -13.7613   26.4361 C   0  0  2  0  0  0  0  0  0  0  0  0
    6.4200  -13.4753   26.5303 C   0  0  0  0  0  0  0  0  0  0  0  0
    8.3514  -14.8764   27.2897 C   0  0  0  0  0  0  0  0  0  0  0  0
    9.7047  -15.4241   26.9920 C   0  0  2  0  0  0  0  0  0  0  0  0
    9.7605  -15.9405   25.6144 N   0  0  0  0  0  0  0  0  0  0  0  0
   10.0380  -16.5756   27.8593 C   0  0  0  0  0  0  0  0  0  0  0  0
   10.1768  -17.8694   27.3798 O   0  0  0  0  0  0  0  0  0  0  0  0
   10.2075  -16.3987   29.0873 O   0  0  0  0  0  0  0  0  0  0  0  0
  2  1  1  1
  3  2  1  0
  4  3  1  0
  5  4  2  0
  6  5  1  0
  7  8  1  0
  7  6  2  0
  8  9  2  0
  9  4  1  0
 10  2  1  0
 10 12  1  0
 11 10  2  0
 13 12  1  0
 13 14  1  0
 14 21  1  0
 15 14  2  0
 17 16  1  1
 17 19  1  0
 18 17  1  0
 20 19  1  1
 20 22  1  0
 21 20  1  0
 22 24  2  0
 22 23  1  0
M  END
$$$$
