FGL.pdb
     RDKit          3D

 24 24  0  0  1  0  0  0  0  0999 V2000
    6.8633  -16.3751   22.9034 N   0  0  0  0  0  0  0  0  0  0  0  0
    7.7366  -15.4275   22.2888 C   0  0  1  0  0  0  0  0  0  0  0  0
    7.3874  -13.9934   22.6749 C   0  0  0  0  0  0  0  0  0  0  0  0
    6.8721  -13.9054   24.0641 C   0  0  0  0  0  0  0  0  0  0  0  0
    6.9651  -12.7994   24.8675 C   0  0  0  0  0  0  0  0  0  0  0  0
    6.4637  -12.7748   26.1639 C   0  0  0  0  0  0  0  0  0  0  0  0
    5.8525  -13.8965   26.6615 C   0  0  0  0  0  0  0  0  0  0  0  0
    5.7510  -15.0158   25.8673 C   0  0  0  0  0  0  0  0  0  0  0  0
    6.2546  -15.0258   24.5790 C   0  0  0  0  0  0  0  0  0  0  0  0
    9.1261  -15.6973   22.6650 C   0  0  0  0  0  0  0  0  0  0  0  0
   10.0869  -15.0494   22.1777 O   0  0  0  0  0  0  0  0  0  0  0  0
    9.4786  -16.7239   23.6192 N   0  0  0  0  0  0  0  0  0  0  0  0
   10.8583  -17.0860   23.7822 C   0  0  0  0  0  0  0  0  0  0  0  0
   11.4197  -16.8563   25.1132 C   0  0  0  0  0  0  0  0  0  0  0  0
   12.6203  -17.2580   25.3280 O   0  0  0  0  0  0  0  0  0  0  0  0
   12.8367  -13.9457   26.8004 C   0  0  0  0  0  0  0  0  0  0  0  0
   11.5105  -13.9246   27.5432 C   0  0  2  0  0  0  0  0  0  0  0  0
   11.3904  -12.6605   28.3208 C   0  0  0  0  0  0  0  0  0  0  0  0
   11.2924  -15.1625   28.3279 C   0  0  0  0  0  0  0  0  0  0  0  0
   11.2758  -16.4453   27.5701 C   0  0  2  0  0  0  0  0  0  0  0  0
   10.7722  -16.2304   26.2034 N   0  0  0  0  0  0  0  0  0  0  0  0
   10.3586  -17.4346   28.1780 C   0  0  0  0  0  0  0  0  0  0  0  0
    9.1973  -17.8710   27.5585 O   0  0  0  0  0  0  0  0  0  0  0  0
   10.6222  -17.9146   29.3041 O   0  0  0  0  0  0  0  0  0  0  0  0
  2  1  1  1
  3  2  1  0
  4  3  1  0
  5  4  2  0
  6  5  1  0
  7  8  1  0
  7  6  2  0
  8  9  2  0
  9  4  1  0
 10  2  1  0
 10 12  1  0
 11 10  2  0
 13 12  1  0
 13 14  1  0
 14 21  1  0
 15 14  2  0
 17 16  1  1
 17 19  1  0
 18 17  1  0
 20 19  1  1
 20 22  1  0
 21 20  1  0
 22 24  2  0
 22 23  1  0
M  END
$$$$
