FGL.pdb
     RDKit          3D

 24 24  0  0  1  0  0  0  0  0999 V2000
    6.4990  -16.7902   21.2408 N   0  0  0  0  0  0  0  0  0  0  0  0
    7.7217  -16.3575   21.8377 C   0  0  1  0  0  0  0  0  0  0  0  0
    7.7423  -14.8498   22.0706 C   0  0  0  0  0  0  0  0  0  0  0  0
    7.7080  -14.0933   20.7940 C   0  0  0  0  0  0  0  0  0  0  0  0
    8.7662  -13.9545   19.9349 C   0  0  0  0  0  0  0  0  0  0  0  0
    8.6759  -13.2318   18.7507 C   0  0  0  0  0  0  0  0  0  0  0  0
    7.4857  -12.6340   18.4261 C   0  0  0  0  0  0  0  0  0  0  0  0
    6.4131  -12.7639   19.2783 C   0  0  0  0  0  0  0  0  0  0  0  0
    6.5176  -13.4861   20.4535 C   0  0  0  0  0  0  0  0  0  0  0  0
    7.9333  -17.0399   23.1161 C   0  0  0  0  0  0  0  0  0  0  0  0
    7.0225  -17.1416   23.9767 O   0  0  0  0  0  0  0  0  0  0  0  0
    9.2009  -17.6386   23.4674 N   0  0  0  0  0  0  0  0  0  0  0  0
   10.3464  -16.7944   23.6580 C   0  0  0  0  0  0  0  0  0  0  0  0
   10.4022  -16.0823   24.9344 C   0  0  0  0  0  0  0  0  0  0  0  0
   11.5016  -15.4916   25.2365 O   0  0  0  0  0  0  0  0  0  0  0  0
    8.4343  -12.4756   26.4217 C   0  0  0  0  0  0  0  0  0  0  0  0
    7.6029  -13.7103   26.7307 C   0  0  2  0  0  0  0  0  0  0  0  0
    6.2473  -13.3008   27.1906 C   0  0  0  0  0  0  0  0  0  0  0  0
    8.3116  -14.6466   27.6345 C   0  0  0  0  0  0  0  0  0  0  0  0
    9.5883  -15.2288   27.1333 C   0  0  2  0  0  0  0  0  0  0  0  0
    9.3602  -15.9736   25.8840 N   0  0  0  0  0  0  0  0  0  0  0  0
   10.1571  -16.2122   28.0813 C   0  0  0  0  0  0  0  0  0  0  0  0
    9.9017  -17.5730   28.0046 O   0  0  0  0  0  0  0  0  0  0  0  0
   10.9073  -15.8214   29.0046 O   0  0  0  0  0  0  0  0  0  0  0  0
  2  1  1  1
  3  2  1  0
  4  3  1  0
  5  4  2  0
  6  5  1  0
  7  8  1  0
  7  6  2  0
  8  9  2  0
  9  4  1  0
 10  2  1  0
 10 12  1  0
 11 10  2  0
 13 12  1  0
 13 14  1  0
 14 21  1  0
 15 14  2  0
 17 16  1  1
 17 19  1  0
 18 17  1  0
 20 19  1  1
 20 22  1  0
 21 20  1  0
 22 24  2  0
 22 23  1  0
M  END
$$$$
