ISL.pdb
     RDKit          3D

 23 22  0  0  1  0  0  0  0  0999 V2000
    7.9851  -11.8576   19.5478 C   0  0  0  0  0  0  0  0  0  0  0  0
    8.0898  -13.3497   19.2689 C   0  0  0  0  0  0  0  0  0  0  0  0
    8.0792  -14.1514   20.5374 C   0  0  2  0  0  0  0  0  0  0  0  0
    9.0770  -13.5912   21.5298 C   0  0  0  0  0  0  0  0  0  0  0  0
    8.2713  -15.6195   20.3056 C   0  0  2  0  0  0  0  0  0  0  0  0
    7.2436  -16.1039   19.4028 N   0  0  0  0  0  0  0  0  0  0  0  0
    8.2736  -16.4078   21.5773 C   0  0  0  0  0  0  0  0  0  0  0  0
    7.2307  -16.6184   22.2454 O   0  0  0  0  0  0  0  0  0  0  0  0
   11.4323  -18.7369   22.5204 O   0  0  0  0  0  0  0  0  0  0  0  0
   10.1894  -19.0213   23.0547 C   0  0  0  0  0  0  0  0  0  0  0  0
    9.4665  -17.7226   23.3403 C   0  0  2  0  0  0  0  0  0  0  0  0
    9.4714  -16.9685   22.1040 N   0  0  0  0  0  0  0  0  0  0  0  0
   10.1051  -16.9363   24.3918 C   0  0  0  0  0  0  0  0  0  0  0  0
   11.0224  -16.1424   24.0831 O   0  0  0  0  0  0  0  0  0  0  0  0
    8.6817  -13.7147   28.9687 C   0  0  0  0  0  0  0  0  0  0  0  0
    9.9092  -14.5261   28.5087 C   0  0  2  0  0  0  0  0  0  0  0  0
   10.9040  -13.4656   28.0456 C   0  0  0  0  0  0  0  0  0  0  0  0
    9.4548  -15.3523   27.3650 C   0  0  0  0  0  0  0  0  0  0  0  0
   10.4176  -16.3115   26.7789 C   0  0  2  0  0  0  0  0  0  0  0  0
    9.7092  -17.0569   25.7286 N   0  0  0  0  0  0  0  0  0  0  0  0
   11.0344  -17.2810   27.6817 C   0  0  0  0  0  0  0  0  0  0  0  0
   12.1592  -17.0743   28.1771 O   0  0  0  0  0  0  0  0  0  0  0  0
   10.3772  -18.4520   28.0049 O   0  0  0  0  0  0  0  0  0  0  0  0
  2  1  1  0
  3  2  1  0
  3  4  1  1
  5  3  1  0
  5  6  1  6
  7  5  1  0
  7  8  2  0
  9 10  1  0
 11 10  1  6
 12 11  1  0
 12  7  1  0
 13 14  2  0
 13 11  1  0
 16 17  1  6
 16 15  1  0
 18 16  1  0
 19 20  1  0
 19 18  1  1
 20 13  1  0
 21 19  1  0
 22 21  2  0
 23 21  1  0
M  END
$$$$
