ISL.pdb
     RDKit          3D

 23 22  0  0  1  0  0  0  0  0999 V2000
    7.9395  -11.8517   18.1922 C   0  0  0  0  0  0  0  0  0  0  0  0
    8.3681  -13.3100   18.1232 C   0  0  0  0  0  0  0  0  0  0  0  0
    8.0651  -14.0365   19.4008 C   0  0  2  0  0  0  0  0  0  0  0  0
    8.6502  -13.2966   20.5859 C   0  0  0  0  0  0  0  0  0  0  0  0
    8.4785  -15.4766   19.3694 C   0  0  2  0  0  0  0  0  0  0  0  0
    7.8096  -16.1468   18.2698 N   0  0  0  0  0  0  0  0  0  0  0  0
    8.2092  -16.1813   20.6615 C   0  0  0  0  0  0  0  0  0  0  0  0
    7.0488  -16.4710   21.0460 O   0  0  0  0  0  0  0  0  0  0  0  0
   11.2505  -17.7891   22.9098 O   0  0  0  0  0  0  0  0  0  0  0  0
    9.9569  -18.2557   23.0515 C   0  0  0  0  0  0  0  0  0  0  0  0
    8.9932  -17.1061   22.8501 C   0  0  2  0  0  0  0  0  0  0  0  0
    9.2659  -16.5664   21.5343 N   0  0  0  0  0  0  0  0  0  0  0  0
    9.1485  -16.0529   23.8494 C   0  0  0  0  0  0  0  0  0  0  0  0
   10.0273  -15.1783   23.6770 O   0  0  0  0  0  0  0  0  0  0  0  0
    6.0060  -12.4165   27.0832 C   0  0  0  0  0  0  0  0  0  0  0  0
    7.4013  -13.0693   27.1478 C   0  0  2  0  0  0  0  0  0  0  0  0
    8.3576  -11.9411   26.7718 C   0  0  0  0  0  0  0  0  0  0  0  0
    7.4107  -14.1301   26.1126 C   0  0  0  0  0  0  0  0  0  0  0  0
    8.5938  -15.0166   26.0413 C   0  0  2  0  0  0  0  0  0  0  0  0
    8.3354  -16.0082   24.9874 N   0  0  0  0  0  0  0  0  0  0  0  0
    8.9678  -15.7372   27.2563 C   0  0  0  0  0  0  0  0  0  0  0  0
    8.4434  -16.8308   27.5433 O   0  0  0  0  0  0  0  0  0  0  0  0
    9.9162  -15.2160   28.1144 O   0  0  0  0  0  0  0  0  0  0  0  0
  2  1  1  0
  3  2  1  0
  3  4  1  1
  5  3  1  0
  5  6  1  6
  7  5  1  0
  7  8  2  0
  9 10  1  0
 11 10  1  1
 12 11  1  0
 12  7  1  0
 13 14  2  0
 13 11  1  0
 16 17  1  6
 16 15  1  0
 18 16  1  0
 19 20  1  0
 19 18  1  1
 20 13  1  0
 21 19  1  0
 22 21  2  0
 23 21  1  0
M  END
$$$$
