ISL.pdb
     RDKit          3D

 23 22  0  0  1  0  0  0  0  0999 V2000
    7.6165  -11.9866   19.0486 C   0  0  0  0  0  0  0  0  0  0  0  0
    7.9421  -13.4729   19.0414 C   0  0  0  0  0  0  0  0  0  0  0  0
    7.8584  -14.0640   20.4181 C   0  0  2  0  0  0  0  0  0  0  0  0
    8.6951  -13.2625   21.3937 C   0  0  0  0  0  0  0  0  0  0  0  0
    8.1907  -15.5250   20.4508 C   0  0  2  0  0  0  0  0  0  0  0  0
    7.3433  -16.2338   19.5100 N   0  0  0  0  0  0  0  0  0  0  0  0
    8.0679  -16.1129   21.8212 C   0  0  0  0  0  0  0  0  0  0  0  0
    6.9601  -16.2793   22.3900 O   0  0  0  0  0  0  0  0  0  0  0  0
   11.2552  -17.9506   23.4974 O   0  0  0  0  0  0  0  0  0  0  0  0
    9.9856  -18.3260   23.8952 C   0  0  0  0  0  0  0  0  0  0  0  0
    9.0840  -17.1104   23.8785 C   0  0  2  0  0  0  0  0  0  0  0  0
    9.2130  -16.5205   22.5623 N   0  0  0  0  0  0  0  0  0  0  0  0
    9.4438  -16.1223   24.8915 C   0  0  0  0  0  0  0  0  0  0  0  0
   10.4237  -15.3714   24.6850 O   0  0  0  0  0  0  0  0  0  0  0  0
    8.3117  -12.3814   25.9574 C   0  0  0  0  0  0  0  0  0  0  0  0
    7.3221  -13.4780   26.3993 C   0  0  2  0  0  0  0  0  0  0  0  0
    6.1247  -12.7023   26.9409 C   0  0  0  0  0  0  0  0  0  0  0  0
    7.9941  -14.2290   27.4862 C   0  0  0  0  0  0  0  0  0  0  0  0
    9.1559  -15.0732   27.1281 C   0  0  2  0  0  0  0  0  0  0  0  0
    8.7144  -16.0043   26.0799 N   0  0  0  0  0  0  0  0  0  0  0  0
    9.7720  -15.8567   28.1967 C   0  0  0  0  0  0  0  0  0  0  0  0
   10.4879  -15.3152   29.0612 O   0  0  0  0  0  0  0  0  0  0  0  0
    9.5702  -17.2212   28.2686 O   0  0  0  0  0  0  0  0  0  0  0  0
  2  1  1  0
  3  2  1  0
  3  4  1  1
  5  3  1  0
  5  6  1  6
  7  5  1  0
  7  8  2  0
  9 10  1  0
 11 10  1  6
 12 11  1  0
 12  7  1  0
 13 14  2  0
 13 11  1  0
 16 17  1  1
 16 15  1  0
 18 16  1  0
 19 20  1  0
 19 18  1  1
 20 13  1  0
 21 19  1  0
 22 21  2  0
 23 21  1  0
M  END
$$$$
