ISL.pdb
     RDKit          3D

 23 22  0  0  1  0  0  0  0  0999 V2000
    7.7125  -12.0472   18.7803 C   0  0  0  0  0  0  0  0  0  0  0  0
    7.9939  -13.5405   18.8577 C   0  0  0  0  0  0  0  0  0  0  0  0
    7.8492  -14.0585   20.2587 C   0  0  2  0  0  0  0  0  0  0  0  0
    8.7616  -13.3031   21.2027 C   0  0  0  0  0  0  0  0  0  0  0  0
    8.0320  -15.5426   20.3575 C   0  0  2  0  0  0  0  0  0  0  0  0
    7.0742  -16.2055   19.4921 N   0  0  0  0  0  0  0  0  0  0  0  0
    7.9132  -16.0452   21.7619 C   0  0  0  0  0  0  0  0  0  0  0  0
    6.8092  -16.1525   22.3517 O   0  0  0  0  0  0  0  0  0  0  0  0
   11.1023  -17.8176   23.5235 O   0  0  0  0  0  0  0  0  0  0  0  0
    9.8302  -18.1727   23.9322 C   0  0  0  0  0  0  0  0  0  0  0  0
    8.9311  -16.9574   23.8575 C   0  0  2  0  0  0  0  0  0  0  0  0
    9.0582  -16.4337   22.5134 N   0  0  0  0  0  0  0  0  0  0  0  0
    9.2954  -15.9213   24.8195 C   0  0  0  0  0  0  0  0  0  0  0  0
   10.2525  -15.1588   24.5561 O   0  0  0  0  0  0  0  0  0  0  0  0
    8.0367  -12.2417   25.6553 C   0  0  0  0  0  0  0  0  0  0  0  0
    7.1160  -13.3242   26.2531 C   0  0  2  0  0  0  0  0  0  0  0  0
    5.9207  -12.5415   26.7891 C   0  0  0  0  0  0  0  0  0  0  0  0
    7.8749  -13.9462   27.3641 C   0  0  0  0  0  0  0  0  0  0  0  0
    9.0428  -14.7871   27.0186 C   0  0  2  0  0  0  0  0  0  0  0  0
    8.5952  -15.7702   26.0216 N   0  0  0  0  0  0  0  0  0  0  0  0
    9.6936  -15.5133   28.1070 C   0  0  0  0  0  0  0  0  0  0  0  0
   10.3514  -14.9126   28.9786 O   0  0  0  0  0  0  0  0  0  0  0  0
    9.5903  -16.8880   28.1903 O   0  0  0  0  0  0  0  0  0  0  0  0
  2  1  1  0
  3  2  1  0
  3  4  1  1
  5  3  1  0
  5  6  1  6
  7  5  1  0
  7  8  2  0
  9 10  1  0
 11 10  1  6
 12 11  1  0
 12  7  1  0
 13 14  2  0
 13 11  1  0
 16 17  1  1
 16 15  1  0
 18 16  1  0
 19 20  1  0
 19 18  1  1
 20 13  1  0
 21 19  1  0
 22 21  2  0
 23 21  1  0
M  END
$$$$
