ISL.pdb
     RDKit          3D

 23 22  0  0  1  0  0  0  0  0999 V2000
    7.7563  -12.1625   18.3771 C   0  0  0  0  0  0  0  0  0  0  0  0
    7.9185  -13.6744   18.4323 C   0  0  0  0  0  0  0  0  0  0  0  0
    7.8136  -14.1908   19.8373 C   0  0  2  0  0  0  0  0  0  0  0  0
    8.8130  -13.4937   20.7370 C   0  0  0  0  0  0  0  0  0  0  0  0
    7.9158  -15.6835   19.9232 C   0  0  2  0  0  0  0  0  0  0  0  0
    6.9090  -16.2861   19.0695 N   0  0  0  0  0  0  0  0  0  0  0  0
    7.7925  -16.1893   21.3259 C   0  0  0  0  0  0  0  0  0  0  0  0
    6.7168  -16.1365   21.9728 O   0  0  0  0  0  0  0  0  0  0  0  0
   11.0308  -17.9152   23.2606 O   0  0  0  0  0  0  0  0  0  0  0  0
    9.7501  -18.3154   23.5937 C   0  0  0  0  0  0  0  0  0  0  0  0
    8.8039  -17.1494   23.4032 C   0  0  2  0  0  0  0  0  0  0  0  0
    8.9001  -16.7649   22.0103 N   0  0  0  0  0  0  0  0  0  0  0  0
    9.1352  -16.0052   24.2474 C   0  0  0  0  0  0  0  0  0  0  0  0
    9.9856  -15.1800   23.8440 O   0  0  0  0  0  0  0  0  0  0  0  0
    7.7904  -12.8919   28.5913 C   0  0  0  0  0  0  0  0  0  0  0  0
    7.6979  -12.5159   27.0990 C   0  0  2  0  0  0  0  0  0  0  0  0
    6.3818  -11.7515   26.9887 C   0  0  0  0  0  0  0  0  0  0  0  0
    7.6243  -13.7948   26.3532 C   0  0  0  0  0  0  0  0  0  0  0  0
    8.8398  -14.6378   26.3038 C   0  0  2  0  0  0  0  0  0  0  0  0
    8.5205  -15.8199   25.4907 N   0  0  0  0  0  0  0  0  0  0  0  0
    9.3885  -15.1009   27.5766 C   0  0  0  0  0  0  0  0  0  0  0  0
    8.9572  -16.1330   28.1260 O   0  0  0  0  0  0  0  0  0  0  0  0
   10.4026  -14.3985   28.1977 O   0  0  0  0  0  0  0  0  0  0  0  0
  2  1  1  0
  3  2  1  0
  3  4  1  1
  5  3  1  0
  5  6  1  6
  7  5  1  0
  7  8  2  0
  9 10  1  0
 11 10  1  6
 12 11  1  0
 12  7  1  0
 13 14  2  0
 13 11  1  0
 16 17  1  1
 16 15  1  0
 18 16  1  0
 19 20  1  0
 19 18  1  1
 20 13  1  0
 21 19  1  0
 22 21  2  0
 23 21  1  0
M  END
$$$$
