ISL.pdb
     RDKit          3D

 23 22  0  0  1  0  0  0  0  0999 V2000
    7.4768  -20.0661   29.0312 C   0  0  0  0  0  0  0  0  0  0  0  0
    6.9431  -20.4191   27.6507 C   0  0  0  0  0  0  0  0  0  0  0  0
    7.4400  -19.4643   26.6051 C   0  0  2  0  0  0  0  0  0  0  0  0
    7.1228  -18.0354   26.9947 C   0  0  0  0  0  0  0  0  0  0  0  0
    6.9553  -19.7988   25.2270 C   0  0  2  0  0  0  0  0  0  0  0  0
    7.1697  -21.2106   24.9694 N   0  0  0  0  0  0  0  0  0  0  0  0
    7.6047  -18.9629   24.1695 C   0  0  0  0  0  0  0  0  0  0  0  0
    8.7877  -19.1498   23.7901 O   0  0  0  0  0  0  0  0  0  0  0  0
    5.3363  -16.3015   22.2633 O   0  0  0  0  0  0  0  0  0  0  0  0
    6.4531  -16.6821   21.5427 C   0  0  0  0  0  0  0  0  0  0  0  0
    7.5448  -17.0946   22.5065 C   0  0  2  0  0  0  0  0  0  0  0  0
    6.9086  -17.8993   23.5287 N   0  0  0  0  0  0  0  0  0  0  0  0
    8.2124  -15.9555   23.1299 C   0  0  0  0  0  0  0  0  0  0  0  0
    8.8746  -15.1732   22.4113 O   0  0  0  0  0  0  0  0  0  0  0  0
    7.3866  -12.0592   24.5029 C   0  0  0  0  0  0  0  0  0  0  0  0
    6.8383  -13.2369   25.3332 C   0  0  2  0  0  0  0  0  0  0  0  0
    5.9399  -12.5728   26.3727 C   0  0  0  0  0  0  0  0  0  0  0  0
    8.0118  -13.8680   25.9825 C   0  0  0  0  0  0  0  0  0  0  0  0
    8.9244  -14.6677   25.1350 C   0  0  2  0  0  0  0  0  0  0  0  0
    8.1230  -15.7284   24.5078 N   0  0  0  0  0  0  0  0  0  0  0  0
   10.0708  -15.2956   25.7884 C   0  0  0  0  0  0  0  0  0  0  0  0
   10.0732  -16.5133   26.0536 O   0  0  0  0  0  0  0  0  0  0  0  0
   11.1804  -14.5456   26.1259 O   0  0  0  0  0  0  0  0  0  0  0  0
  2  1  1  0
  3  2  1  0
  3  4  1  1
  5  3  1  0
  5  6  1  6
  7  5  1  0
  7  8  2  0
  9 10  1  0
 11 10  1  6
 12 11  1  0
 12  7  1  0
 13 14  2  0
 13 11  1  0
 16 17  1  1
 16 15  1  0
 18 16  1  0
 19 20  1  0
 19 18  1  1
 20 13  1  0
 21 19  1  0
 22 21  2  0
 23 21  1  0
M  END
$$$$
