VET.pdb
     RDKit          3D

 24 23  0  0  1  0  0  0  0  0999 V2000
   15.8258   -7.4054   -7.9883 C   0  0  0  0  0  0  0  0  0  0  0  0
   14.6701   -6.4837   -8.4177 C   0  0  2  0  0  0  0  0  0  0  0  0
   13.7086   -6.2801   -7.2937 C   0  0  0  0  0  0  0  0  0  0  0  0
   13.9653   -7.2550   -9.5300 C   0  0  2  0  0  0  0  0  0  0  0  0
   13.5883   -8.5878   -8.9887 N   0  0  0  0  0  0  0  0  0  0  0  0
   14.8914   -7.5488  -10.6516 C   0  0  0  0  0  0  0  0  0  0  0  0
   15.2671   -8.7589  -10.8674 O   0  0  0  0  0  0  0  0  0  0  0  0
   15.4227   -6.5915  -11.5452 N   0  0  0  0  0  0  0  0  0  0  0  0
   16.2899   -7.0080  -12.6825 C   0  0  1  0  0  0  0  0  0  0  0  0
   15.5457   -6.6002  -13.9328 C   0  0  0  0  0  0  0  0  0  0  0  0
   16.2806   -6.8895  -15.1854 C   0  0  0  0  0  0  0  0  0  0  0  0
   15.5246   -6.4748  -16.4044 C   0  0  0  0  0  0  0  0  0  0  0  0
   14.5726   -7.1580  -16.8006 O   0  0  0  0  0  0  0  0  0  0  0  0
   17.6208   -6.4074  -12.5415 C   0  0  0  0  0  0  0  0  0  0  0  0
   17.7090   -5.3004  -11.9154 O   0  0  0  0  0  0  0  0  0  0  0  0
   15.9219   -5.3336  -17.0480 O   0  0  0  0  0  0  0  0  0  0  0  0
   22.5120   -6.4509  -13.2524 C   0  0  0  0  0  0  0  0  0  0  0  0
   21.1809   -7.1295  -13.4600 C   0  0  1  0  0  0  0  0  0  0  0  0
   21.1628   -8.4064  -12.9397 O   0  0  0  0  0  0  0  0  0  0  0  0
   20.1149   -6.2455  -12.8305 C   0  0  2  0  0  0  0  0  0  0  0  0
   18.8373   -6.9385  -13.0306 N   0  0  0  0  0  0  0  0  0  0  0  0
   20.0258   -4.9422  -13.5228 C   0  0  0  0  0  0  0  0  0  0  0  0
   20.4146   -3.8825  -13.0045 O   0  0  0  0  0  0  0  0  0  0  0  0
   19.4816   -4.9307  -14.8027 O   0  0  0  0  0  0  0  0  0  0  0  0
  2  1  1  1
  2  3  1  0
  4  2  1  0
  4  5  1  1
  6  4  1  0
  7  6  2  0
  8  6  1  0
  9  8  1  0
 10 11  1  0
  9 10  1  6
 12 16  1  0
 12 11  1  0
 13 12  2  0
 14 15  2  0
 14  9  1  0
 18 20  1  0
 18 17  1  1
 19 18  1  0
 20 21  1  6
 21 14  1  0
 22 20  1  0
 23 22  2  0
 24 22  1  0
M  END
$$$$
