VET.pdb
     RDKit          3D

 24 23  0  0  1  0  0  0  0  0999 V2000
   15.9209  -12.2896  -15.8027 C   0  0  0  0  0  0  0  0  0  0  0  0
   17.1345  -11.3789  -15.5425 C   0  0  2  0  0  0  0  0  0  0  0  0
   16.7332   -9.9410  -15.5672 C   0  0  0  0  0  0  0  0  0  0  0  0
   18.0667  -11.6465  -16.7208 C   0  0  2  0  0  0  0  0  0  0  0  0
   18.7380  -12.9515  -16.4804 N   0  0  0  0  0  0  0  0  0  0  0  0
   19.1699  -10.6553  -16.7703 C   0  0  0  0  0  0  0  0  0  0  0  0
   20.2675  -10.8919  -16.1448 O   0  0  0  0  0  0  0  0  0  0  0  0
   19.1340   -9.4263  -17.4670 N   0  0  0  0  0  0  0  0  0  0  0  0
   20.3274   -8.5356  -17.5052 C   0  0  1  0  0  0  0  0  0  0  0  0
   20.3508   -7.9454  -18.8960 C   0  0  0  0  0  0  0  0  0  0  0  0
   21.4507   -6.9785  -19.1152 C   0  0  0  0  0  0  0  0  0  0  0  0
   21.4700   -6.4349  -20.5057 C   0  0  0  0  0  0  0  0  0  0  0  0
   21.6384   -5.2236  -20.6910 O   0  0  0  0  0  0  0  0  0  0  0  0
   20.2474   -7.5472  -16.4242 C   0  0  0  0  0  0  0  0  0  0  0  0
   19.0983   -7.0786  -16.1324 O   0  0  0  0  0  0  0  0  0  0  0  0
   21.2974   -7.3146  -21.5406 O   0  0  0  0  0  0  0  0  0  0  0  0
   21.8181   -5.6930  -12.2449 C   0  0  0  0  0  0  0  0  0  0  0  0
   21.7928   -6.7382  -13.3322 C   0  0  1  0  0  0  0  0  0  0  0  0
   21.1578   -7.8932  -12.9269 O   0  0  0  0  0  0  0  0  0  0  0  0
   21.1194   -6.1172  -14.5468 C   0  0  2  0  0  0  0  0  0  0  0  0
   21.3282   -7.0552  -15.6554 N   0  0  0  0  0  0  0  0  0  0  0  0
   21.7640   -4.8398  -14.9190 C   0  0  0  0  0  0  0  0  0  0  0  0
   22.6576   -4.7681  -15.7787 O   0  0  0  0  0  0  0  0  0  0  0  0
   21.3343   -3.6894  -14.2660 O   0  0  0  0  0  0  0  0  0  0  0  0
  2  1  1  6
  2  3  1  0
  4  2  1  0
  4  5  1  1
  6  4  1  0
  7  6  2  0
  8  6  1  0
  9  8  1  0
 10 11  1  0
  9 10  1  6
 12 16  1  0
 12 11  1  0
 13 12  2  0
 14 15  2  0
 14  9  1  0
 18 20  1  0
 18 17  1  1
 19 18  1  0
 20 21  1  6
 21 14  1  0
 22 20  1  0
 23 22  2  0
 24 22  1  0
M  END
$$$$
