VET.pdb
     RDKit          3D

 24 23  0  0  1  0  0  0  0  0999 V2000
   12.6233  -12.5709  -10.9732 C   0  0  0  0  0  0  0  0  0  0  0  0
   12.2868  -12.5619  -12.4753 C   0  0  2  0  0  0  0  0  0  0  0  0
   11.2232  -13.5625  -12.7863 C   0  0  0  0  0  0  0  0  0  0  0  0
   13.5818  -12.9980  -13.1548 C   0  0  2  0  0  0  0  0  0  0  0  0
   13.9283  -14.3510  -12.6441 N   0  0  0  0  0  0  0  0  0  0  0  0
   14.7194  -12.1360  -12.7490 C   0  0  0  0  0  0  0  0  0  0  0  0
   15.5186  -12.5300  -11.8228 O   0  0  0  0  0  0  0  0  0  0  0  0
   15.0264  -10.8728  -13.3034 N   0  0  0  0  0  0  0  0  0  0  0  0
   16.1148  -10.0323  -12.7308 C   0  0  1  0  0  0  0  0  0  0  0  0
   16.9694   -9.6167  -13.9057 C   0  0  0  0  0  0  0  0  0  0  0  0
   18.1156   -8.7558  -13.5346 C   0  0  0  0  0  0  0  0  0  0  0  0
   18.9682   -8.3968  -14.7065 C   0  0  0  0  0  0  0  0  0  0  0  0
   20.1845   -8.6194  -14.6743 O   0  0  0  0  0  0  0  0  0  0  0  0
   15.5377   -8.9176  -11.9716 C   0  0  0  0  0  0  0  0  0  0  0  0
   14.4423   -8.4182  -12.3908 O   0  0  0  0  0  0  0  0  0  0  0  0
   18.3594   -7.8245  -15.7912 O   0  0  0  0  0  0  0  0  0  0  0  0
   15.4593   -5.9157   -8.0498 C   0  0  0  0  0  0  0  0  0  0  0  0
   16.1204   -7.0590   -8.7787 C   0  0  1  0  0  0  0  0  0  0  0  0
   16.1346   -8.2148   -8.0268 O   0  0  0  0  0  0  0  0  0  0  0  0
   15.3826   -7.2482  -10.0957 C   0  0  2  0  0  0  0  0  0  0  0  0
   16.0751   -8.3324  -10.8011 N   0  0  0  0  0  0  0  0  0  0  0  0
   15.4783   -6.0378  -10.9392 C   0  0  0  0  0  0  0  0  0  0  0  0
   16.4616   -5.8024  -11.6606 O   0  0  0  0  0  0  0  0  0  0  0  0
   14.4123   -5.1451  -10.9049 O   0  0  0  0  0  0  0  0  0  0  0  0
  2  1  1  1
  2  3  1  0
  4  2  1  0
  4  5  1  1
  6  4  1  0
  7  6  2  0
  8  6  1  0
  9  8  1  0
 10 11  1  0
  9 10  1  6
 12 16  1  0
 12 11  1  0
 13 12  2  0
 14 15  2  0
 14  9  1  0
 18 20  1  0
 18 17  1  1
 19 18  1  0
 20 21  1  6
 21 14  1  0
 22 20  1  0
 23 22  2  0
 24 22  1  0
M  END
$$$$
