VET.pdb
     RDKit          3D

 24 23  0  0  1  0  0  0  0  0999 V2000
   24.0834  -13.7152  -15.3139 C   0  0  0  0  0  0  0  0  0  0  0  0
   23.4927  -12.3585  -15.7380 C   0  0  2  0  0  0  0  0  0  0  0  0
   23.4262  -11.4228  -14.5764 C   0  0  0  0  0  0  0  0  0  0  0  0
   22.0703  -12.6883  -16.1819 C   0  0  2  0  0  0  0  0  0  0  0  0
   22.1598  -13.4929  -17.4293 N   0  0  0  0  0  0  0  0  0  0  0  0
   21.3306  -11.4627  -16.5727 C   0  0  0  0  0  0  0  0  0  0  0  0
   21.5969  -10.8871  -17.6906 O   0  0  0  0  0  0  0  0  0  0  0  0
   20.3186  -10.8397  -15.8079 N   0  0  0  0  0  0  0  0  0  0  0  0
   19.7313   -9.5389  -16.2344 C   0  0  1  0  0  0  0  0  0  0  0  0
   18.2500   -9.7926  -16.3907 C   0  0  0  0  0  0  0  0  0  0  0  0
   17.4817   -8.5990  -16.8123 C   0  0  0  0  0  0  0  0  0  0  0  0
   16.0436   -8.9037  -17.0738 C   0  0  0  0  0  0  0  0  0  0  0  0
   15.3413   -9.3794  -16.1735 O   0  0  0  0  0  0  0  0  0  0  0  0
   20.0723   -8.4946  -15.2623 C   0  0  0  0  0  0  0  0  0  0  0  0
   19.9067   -8.7578  -14.0260 O   0  0  0  0  0  0  0  0  0  0  0  0
   15.5490   -8.6398  -18.3230 O   0  0  0  0  0  0  0  0  0  0  0  0
   22.6692   -5.6506  -16.0689 C   0  0  0  0  0  0  0  0  0  0  0  0
   22.3849   -5.9538  -14.6188 C   0  0  1  0  0  0  0  0  0  0  0  0
   22.7782   -4.9265  -13.7872 O   0  0  0  0  0  0  0  0  0  0  0  0
   20.8967   -6.2443  -14.4965 C   0  0  2  0  0  0  0  0  0  0  0  0
   20.5786   -7.2069  -15.5570 N   0  0  0  0  0  0  0  0  0  0  0  0
   20.0937   -5.0283  -14.7456 C   0  0  0  0  0  0  0  0  0  0  0  0
   19.3626   -4.9030  -15.7419 O   0  0  0  0  0  0  0  0  0  0  0  0
   20.1786   -4.0002  -13.8128 O   0  0  0  0  0  0  0  0  0  0  0  0
  2  1  1  1
  2  3  1  0
  4  2  1  0
  4  5  1  6
  6  4  1  0
  7  6  2  0
  8  6  1  0
  9  8  1  0
 10 11  1  0
  9 10  1  1
 12 16  1  0
 12 11  1  0
 13 12  2  0
 14 15  2  0
 14  9  1  0
 18 20  1  0
 18 17  1  6
 19 18  1  0
 20 21  1  6
 21 14  1  0
 22 20  1  0
 23 22  2  0
 24 22  1  0
M  END
$$$$
