VET.pdb
     RDKit          3D

 24 23  0  0  1  0  0  0  0  0999 V2000
   16.0309   -8.7144  -15.1251 C   0  0  0  0  0  0  0  0  0  0  0  0
   16.0009   -9.6272  -16.3643 C   0  0  2  0  0  0  0  0  0  0  0  0
   14.6433  -10.2189  -16.5542 C   0  0  0  0  0  0  0  0  0  0  0  0
   16.9805  -10.7488  -16.0308 C   0  0  2  0  0  0  0  0  0  0  0  0
   16.4978  -11.4194  -14.7943 N   0  0  0  0  0  0  0  0  0  0  0  0
   18.3157  -10.2087  -15.6734 C   0  0  0  0  0  0  0  0  0  0  0  0
   18.7158  -10.2552  -14.4529 O   0  0  0  0  0  0  0  0  0  0  0  0
   19.2308   -9.6257  -16.5789 N   0  0  0  0  0  0  0  0  0  0  0  0
   20.5224   -9.0592  -16.0996 C   0  0  1  0  0  0  0  0  0  0  0  0
   21.5693   -9.5540  -17.0704 C   0  0  0  0  0  0  0  0  0  0  0  0
   22.9448   -9.1179  -16.7378 C   0  0  0  0  0  0  0  0  0  0  0  0
   23.9667   -9.6752  -17.6729 C   0  0  0  0  0  0  0  0  0  0  0  0
   23.6764  -10.6292  -18.4047 O   0  0  0  0  0  0  0  0  0  0  0  0
   20.4217   -7.5989  -16.0028 C   0  0  0  0  0  0  0  0  0  0  0  0
   19.9471   -6.9691  -17.0044 O   0  0  0  0  0  0  0  0  0  0  0  0
   25.2082   -9.0979  -17.6843 O   0  0  0  0  0  0  0  0  0  0  0  0
   19.7738   -5.7358  -12.6742 C   0  0  0  0  0  0  0  0  0  0  0  0
   19.5172   -5.0088  -13.9707 C   0  0  1  0  0  0  0  0  0  0  0  0
   19.3838   -3.6489  -13.7853 O   0  0  0  0  0  0  0  0  0  0  0  0
   20.6618   -5.3428  -14.9156 C   0  0  2  0  0  0  0  0  0  0  0  0
   20.7972   -6.8035  -14.8949 N   0  0  0  0  0  0  0  0  0  0  0  0
   21.9368   -4.7721  -14.4314 C   0  0  0  0  0  0  0  0  0  0  0  0
   22.8308   -5.4693  -13.9240 O   0  0  0  0  0  0  0  0  0  0  0  0
   22.1162   -3.3990  -14.5611 O   0  0  0  0  0  0  0  0  0  0  0  0
  2  1  1  1
  2  3  1  0
  4  2  1  0
  4  5  1  1
  6  4  1  0
  7  6  2  0
  8  6  1  0
  9  8  1  0
 10 11  1  0
  9 10  1  6
 12 16  1  0
 12 11  1  0
 13 12  2  0
 14 15  2  0
 14  9  1  0
 18 20  1  0
 18 17  1  1
 19 18  1  0
 20 21  1  1
 21 14  1  0
 22 20  1  0
 23 22  2  0
 24 22  1  0
M  END
$$$$
