VET.pdb
     RDKit          3D

 24 23  0  0  1  0  0  0  0  0999 V2000
   22.6157  -13.2470  -19.9937 C   0  0  0  0  0  0  0  0  0  0  0  0
   22.0188  -11.8754  -19.6299 C   0  0  2  0  0  0  0  0  0  0  0  0
   23.0708  -10.8162  -19.6541 C   0  0  0  0  0  0  0  0  0  0  0  0
   21.5293  -12.0455  -18.1945 C   0  0  2  0  0  0  0  0  0  0  0  0
   20.5351  -13.1513  -18.1827 N   0  0  0  0  0  0  0  0  0  0  0  0
   20.7752  -10.8518  -17.7380 C   0  0  0  0  0  0  0  0  0  0  0  0
   19.9896  -10.2442  -18.5538 O   0  0  0  0  0  0  0  0  0  0  0  0
   20.8351  -10.2937  -16.4410 N   0  0  0  0  0  0  0  0  0  0  0  0
   20.1539   -9.0055  -16.1324 C   0  0  1  0  0  0  0  0  0  0  0  0
   18.9306   -9.3746  -15.3259 C   0  0  0  0  0  0  0  0  0  0  0  0
   18.1649   -8.2062  -14.8350 C   0  0  0  0  0  0  0  0  0  0  0  0
   17.0125   -8.5962  -13.9694 C   0  0  0  0  0  0  0  0  0  0  0  0
   15.9034   -8.8023  -14.4768 O   0  0  0  0  0  0  0  0  0  0  0  0
   21.0843   -8.0998  -15.4497 C   0  0  0  0  0  0  0  0  0  0  0  0
   21.8034   -8.5824  -14.5143 O   0  0  0  0  0  0  0  0  0  0  0  0
   17.2323   -8.7129  -12.6231 O   0  0  0  0  0  0  0  0  0  0  0  0
   23.8130   -5.9653  -16.9268 C   0  0  0  0  0  0  0  0  0  0  0  0
   22.9552   -5.0623  -16.0758 C   0  0  1  0  0  0  0  0  0  0  0  0
   22.0347   -4.3622  -16.8269 O   0  0  0  0  0  0  0  0  0  0  0  0
   22.2846   -5.9304  -15.0218 C   0  0  2  0  0  0  0  0  0  0  0  0
   21.2744   -6.7259  -15.7283 N   0  0  0  0  0  0  0  0  0  0  0  0
   21.5776   -5.1034  -14.0208 C   0  0  0  0  0  0  0  0  0  0  0  0
   20.3394   -5.0130  -13.9834 O   0  0  0  0  0  0  0  0  0  0  0  0
   22.3529   -4.4105  -13.0971 O   0  0  0  0  0  0  0  0  0  0  0  0
  2  1  1  1
  2  3  1  0
  4  2  1  0
  4  5  1  6
  6  4  1  0
  7  6  2  0
  8  6  1  0
  9  8  1  0
 10 11  1  0
  9 10  1  1
 12 16  1  0
 12 11  1  0
 13 12  2  0
 14 15  2  0
 14  9  1  0
 18 20  1  0
 18 17  1  6
 19 18  1  0
 20 21  1  6
 21 14  1  0
 22 20  1  0
 23 22  2  0
 24 22  1  0
M  END
$$$$
