VET.pdb
     RDKit          3D

 24 23  0  0  1  0  0  0  0  0999 V2000
   15.5913   -8.7343   -9.7381 C   0  0  0  0  0  0  0  0  0  0  0  0
   14.4937   -8.7761  -10.8167 C   0  0  2  0  0  0  0  0  0  0  0  0
   13.1552   -9.0199  -10.2017 C   0  0  0  0  0  0  0  0  0  0  0  0
   14.8604   -9.9786  -11.6818 C   0  0  2  0  0  0  0  0  0  0  0  0
   14.9395  -11.1687  -10.7936 N   0  0  0  0  0  0  0  0  0  0  0  0
   16.2240   -9.8373  -12.2498 C   0  0  0  0  0  0  0  0  0  0  0  0
   17.2086  -10.4582  -11.7049 O   0  0  0  0  0  0  0  0  0  0  0  0
   16.5626   -9.0572  -13.3786 N   0  0  0  0  0  0  0  0  0  0  0  0
   17.9766   -8.9481  -13.8343 C   0  0  1  0  0  0  0  0  0  0  0  0
   17.9863   -9.4572  -15.2570 C   0  0  0  0  0  0  0  0  0  0  0  0
   19.3153   -9.3874  -15.9063 C   0  0  0  0  0  0  0  0  0  0  0  0
   19.3185   -9.9833  -17.2753 C   0  0  0  0  0  0  0  0  0  0  0  0
   19.7312   -9.3203  -18.2345 O   0  0  0  0  0  0  0  0  0  0  0  0
   18.4465   -7.5673  -13.6771 C   0  0  0  0  0  0  0  0  0  0  0  0
   17.5817   -6.6338  -13.7532 O   0  0  0  0  0  0  0  0  0  0  0  0
   18.8558  -11.2640  -17.4184 O   0  0  0  0  0  0  0  0  0  0  0  0
   22.3977   -6.6385  -13.4470 C   0  0  0  0  0  0  0  0  0  0  0  0
   21.5128   -5.7139  -12.6485 C   0  0  1  0  0  0  0  0  0  0  0  0
   22.0240   -4.4349  -12.5828 O   0  0  0  0  0  0  0  0  0  0  0  0
   20.1317   -5.7406  -13.2858 C   0  0  2  0  0  0  0  0  0  0  0  0
   19.7794   -7.1563  -13.4410 N   0  0  0  0  0  0  0  0  0  0  0  0
   20.1557   -5.1389  -14.6360 C   0  0  0  0  0  0  0  0  0  0  0  0
   20.2357   -5.8217  -15.6704 O   0  0  0  0  0  0  0  0  0  0  0  0
   20.0846   -3.7525  -14.7227 O   0  0  0  0  0  0  0  0  0  0  0  0
  2  1  1  1
  2  3  1  0
  4  2  1  0
  4  5  1  1
  6  4  1  0
  7  6  2  0
  8  6  1  0
  9  8  1  0
 10 11  1  0
  9 10  1  6
 12 16  1  0
 12 11  1  0
 13 12  2  0
 14 15  2  0
 14  9  1  0
 18 20  1  0
 18 17  1  6
 19 18  1  0
 20 21  1  6
 21 14  1  0
 22 20  1  0
 23 22  2  0
 24 22  1  0
M  END
$$$$
