VET.pdb
     RDKit          3D

 24 23  0  0  1  0  0  0  0  0999 V2000
   25.8481  -17.8958  -16.4638 C   0  0  0  0  0  0  0  0  0  0  0  0
   27.1094  -17.4966  -15.6769 C   0  0  2  0  0  0  0  0  0  0  0  0
   28.0111  -16.6508  -16.5140 C   0  0  0  0  0  0  0  0  0  0  0  0
   27.8100  -18.8215  -15.3894 C   0  0  2  0  0  0  0  0  0  0  0  0
   28.0165  -19.5162  -16.6880 N   0  0  0  0  0  0  0  0  0  0  0  0
   26.9389  -19.7322  -14.6059 C   0  0  0  0  0  0  0  0  0  0  0  0
   26.2487  -20.6313  -15.2117 O   0  0  0  0  0  0  0  0  0  0  0  0
   26.7871  -19.7104  -13.2010 N   0  0  0  0  0  0  0  0  0  0  0  0
   25.7783  -20.5762  -12.5289 C   0  0  1  0  0  0  0  0  0  0  0  0
   26.0471  -20.4406  -11.0482 C   0  0  0  0  0  0  0  0  0  0  0  0
   25.0256  -21.0894  -10.1947 C   0  0  0  0  0  0  0  0  0  0  0  0
   25.3736  -21.0409   -8.7436 C   0  0  0  0  0  0  0  0  0  0  0  0
   24.5869  -21.4988   -7.9061 O   0  0  0  0  0  0  0  0  0  0  0  0
   24.4272  -20.1817  -12.9424 C   0  0  0  0  0  0  0  0  0  0  0  0
   24.1620  -18.9358  -12.9926 O   0  0  0  0  0  0  0  0  0  0  0  0
   26.5720  -20.4812   -8.3898 O   0  0  0  0  0  0  0  0  0  0  0  0
   22.0825  -22.3826  -15.2889 C   0  0  0  0  0  0  0  0  0  0  0  0
   21.8643  -20.8965  -15.1505 C   0  0  1  0  0  0  0  0  0  0  0  0
   20.6277  -20.5076  -15.6206 O   0  0  0  0  0  0  0  0  0  0  0  0
   22.0499  -20.5428  -13.6825 C   0  0  2  0  0  0  0  0  0  0  0  0
   23.3720  -21.0525  -13.3022 N   0  0  0  0  0  0  0  0  0  0  0  0
   21.0497  -21.2297  -12.8379 C   0  0  0  0  0  0  0  0  0  0  0  0
   21.3482  -22.1622  -12.0736 O   0  0  0  0  0  0  0  0  0  0  0  0
   19.7311  -20.7953  -12.9217 O   0  0  0  0  0  0  0  0  0  0  0  0
  2  1  1  6
  2  3  1  0
  4  2  1  0
  4  5  1  6
  6  4  1  0
  7  6  2  0
  8  6  1  0
  9  8  1  0
 10 11  1  0
  9 10  1  1
 12 16  1  0
 12 11  1  0
 13 12  2  0
 14 15  2  0
 14  9  1  0
 18 20  1  0
 18 17  1  1
 19 18  1  0
 20 21  1  1
 21 14  1  0
 22 20  1  0
 23 22  2  0
 24 22  1  0
M  END
$$$$
