VET.pdb
     RDKit          3D

 24 23  0  0  1  0  0  0  0  0999 V2000
   17.4294  -11.2785  -16.2413 C   0  0  0  0  0  0  0  0  0  0  0  0
   16.4144  -10.9788  -15.1233 C   0  0  2  0  0  0  0  0  0  0  0  0
   15.0225  -11.2683  -15.5795 C   0  0  0  0  0  0  0  0  0  0  0  0
   16.5482   -9.4774  -14.8848 C   0  0  2  0  0  0  0  0  0  0  0  0
   16.1813   -8.7833  -16.1478 N   0  0  0  0  0  0  0  0  0  0  0  0
   17.9606   -9.0953  -14.6378 C   0  0  0  0  0  0  0  0  0  0  0  0
   18.5212   -9.4121  -13.5255 O   0  0  0  0  0  0  0  0  0  0  0  0
   18.7867   -8.3900  -15.5419 N   0  0  0  0  0  0  0  0  0  0  0  0
   20.1947   -8.0565  -15.1880 C   0  0  1  0  0  0  0  0  0  0  0  0
   21.0547   -8.9165  -16.0846 C   0  0  0  0  0  0  0  0  0  0  0  0
   22.5085   -8.7138  -15.8899 C   0  0  0  0  0  0  0  0  0  0  0  0
   23.3337   -9.6881  -16.6639 C   0  0  0  0  0  0  0  0  0  0  0  0
   23.3725   -9.6183  -17.8983 O   0  0  0  0  0  0  0  0  0  0  0  0
   20.4169   -6.6135  -15.3307 C   0  0  0  0  0  0  0  0  0  0  0  0
   20.2672   -6.1017  -16.4886 O   0  0  0  0  0  0  0  0  0  0  0  0
   24.0282  -10.6384  -15.9644 O   0  0  0  0  0  0  0  0  0  0  0  0
   18.6407   -3.8806  -14.9024 C   0  0  0  0  0  0  0  0  0  0  0  0
   19.8199   -3.5436  -14.0241 C   0  0  1  0  0  0  0  0  0  0  0  0
   19.5835   -3.8462  -12.6997 O   0  0  0  0  0  0  0  0  0  0  0  0
   21.0253   -4.2935  -14.5709 C   0  0  2  0  0  0  0  0  0  0  0  0
   20.7808   -5.7146  -14.3007 N   0  0  0  0  0  0  0  0  0  0  0  0
   22.2608   -3.9118  -13.8543 C   0  0  0  0  0  0  0  0  0  0  0  0
   22.8271   -4.6691  -13.0490 O   0  0  0  0  0  0  0  0  0  0  0  0
   22.7881   -2.6505  -14.1103 O   0  0  0  0  0  0  0  0  0  0  0  0
  2  1  1  6
  2  3  1  0
  4  2  1  0
  4  5  1  6
  6  4  1  0
  7  6  2  0
  8  6  1  0
  9  8  1  0
 10 11  1  0
  9 10  1  6
 12 16  1  0
 12 11  1  0
 13 12  2  0
 14 15  2  0
 14  9  1  0
 18 20  1  0
 18 17  1  6
 19 18  1  0
 20 21  1  1
 21 14  1  0
 22 20  1  0
 23 22  2  0
 24 22  1  0
M  END
$$$$
