VET.pdb
     RDKit          3D

 24 23  0  0  1  0  0  0  0  0999 V2000
   18.1734  -12.3408  -17.6108 C   0  0  0  0  0  0  0  0  0  0  0  0
   19.6014  -12.4681  -18.1714 C   0  0  2  0  0  0  0  0  0  0  0  0
   20.0199  -13.9000  -18.2360 C   0  0  0  0  0  0  0  0  0  0  0  0
   20.4747  -11.7495  -17.1468 C   0  0  2  0  0  0  0  0  0  0  0  0
   20.3549  -12.4802  -15.8572 N   0  0  0  0  0  0  0  0  0  0  0  0
   19.9593  -10.3876  -16.8610 C   0  0  0  0  0  0  0  0  0  0  0  0
   19.9795   -9.4924  -17.7830 O   0  0  0  0  0  0  0  0  0  0  0  0
   19.4242   -9.9587  -15.6253 N   0  0  0  0  0  0  0  0  0  0  0  0
   19.0037   -8.5437  -15.4259 C   0  0  1  0  0  0  0  0  0  0  0  0
   17.6676   -8.6110  -14.7234 C   0  0  0  0  0  0  0  0  0  0  0  0
   16.5228   -8.8230  -15.6383 C   0  0  0  0  0  0  0  0  0  0  0  0
   15.2165   -8.8917  -14.9185 C   0  0  0  0  0  0  0  0  0  0  0  0
   14.1926   -9.2190  -15.5305 O   0  0  0  0  0  0  0  0  0  0  0  0
   20.0427   -7.8128  -14.6922 C   0  0  0  0  0  0  0  0  0  0  0  0
   20.4977   -8.3404  -13.6246 O   0  0  0  0  0  0  0  0  0  0  0  0
   15.2024   -8.5842  -13.5843 O   0  0  0  0  0  0  0  0  0  0  0  0
   22.4865   -5.4096  -16.5197 C   0  0  0  0  0  0  0  0  0  0  0  0
   22.9141   -5.9594  -15.1817 C   0  0  1  0  0  0  0  0  0  0  0  0
   23.9584   -5.2428  -14.6362 O   0  0  0  0  0  0  0  0  0  0  0  0
   21.6917   -5.9588  -14.2761 C   0  0  2  0  0  0  0  0  0  0  0  0
   20.6058   -6.5663  -15.0533 N   0  0  0  0  0  0  0  0  0  0  0  0
   21.2784   -4.5799  -13.9391 C   0  0  0  0  0  0  0  0  0  0  0  0
   21.9679   -3.8310  -13.2274 O   0  0  0  0  0  0  0  0  0  0  0  0
   20.0666   -4.1292  -14.4517 O   0  0  0  0  0  0  0  0  0  0  0  0
  2  1  1  1
  2  3  1  0
  4  2  1  0
  4  5  1  1
  6  4  1  0
  7  6  2  0
  8  6  1  0
  9  8  1  0
 10 11  1  0
  9 10  1  1
 12 16  1  0
 12 11  1  0
 13 12  2  0
 14 15  2  0
 14  9  1  0
 18 20  1  0
 18 17  1  6
 19 18  1  0
 20 21  1  6
 21 14  1  0
 22 20  1  0
 23 22  2  0
 24 22  1  0
M  END
$$$$
