RQC.pdb
     RDKit          3D

 27 26  0  0  1  0  0  0  0  0999 V2000
   23.3887  -25.5535  -13.5805 N   0  0  0  0  0  0  0  0  0  0  0  0
   22.8099  -25.3370  -14.8591 C   0  0  0  0  0  0  0  0  0  0  0  0
   21.5387  -25.2312  -14.9849 N   0  0  0  0  0  0  0  0  0  0  0  0
   23.6806  -25.2412  -15.9928 N   0  0  0  0  0  0  0  0  0  0  0  0
   25.1286  -25.3323  -15.7937 C   0  0  0  0  0  0  0  0  0  0  0  0
   25.7321  -23.9703  -15.6941 C   0  0  0  0  0  0  0  0  0  0  0  0
   25.4322  -23.0316  -16.7979 C   0  0  0  0  0  0  0  0  0  0  0  0
   26.1057  -21.7063  -16.7687 C   0  0  2  0  0  0  0  0  0  0  0  0
   27.4817  -21.7742  -16.3847 N   0  0  0  0  0  0  0  0  0  0  0  0
   25.3433  -20.6861  -15.9994 C   0  0  0  0  0  0  0  0  0  0  0  0
   25.7528  -20.3915  -14.8421 O   0  0  0  0  0  0  0  0  0  0  0  0
   21.1334  -25.0997  -15.9346 N   0  0  0  0  0  0  0  0  0  0  0  0
   22.1324  -16.4236  -18.7689 C   0  0  0  0  0  0  0  0  0  0  0  0
   21.7258  -16.0834  -17.4611 O   0  0  0  0  0  0  0  0  0  0  0  0
   21.0336  -15.0452  -17.3113 C   0  0  0  0  0  0  0  0  0  0  0  0
   22.1070  -16.9370  -16.2684 C   0  0  0  0  0  0  0  0  0  0  0  0
   23.0126  -18.0181  -16.7161 C   0  0  1  0  0  0  0  0  0  0  0  0
   23.5041  -18.9798  -15.6925 N   0  0  0  0  0  0  0  0  0  0  0  0
   24.1978  -20.0320  -16.4821 C   0  0  0  0  0  0  0  0  0  0  0  0
   22.4835  -19.5991  -14.8408 O   0  0  0  0  0  0  0  0  0  0  0  0
   21.7949  -20.6000  -15.2589 N   0  0  0  0  0  0  0  0  0  0  0  0
   22.1747  -19.1737  -13.5294 C   0  0  1  0  0  0  0  0  0  0  0  0
   21.1144  -19.8366  -12.7656 C   0  0  0  0  0  0  0  0  0  0  0  0
   21.0869  -19.3401  -11.3378 S   0  0  0  0  0  0  0  0  0  0  0  0
   19.8391  -20.1284  -10.3233 C   0  0  0  0  0  0  0  0  0  0  0  0
   19.8117  -19.4819  -13.3639 O   0  0  0  0  0  0  0  0  0  0  0  0
   18.7466  -20.3673  -13.4168 O   0  0  0  0  0  0  0  0  0  0  0  0
  1  2  1  0
  2  3  2  0
  4  2  1  0
  5  4  1  0
  6  5  1  0
  7  6  1  0
  8  7  1  0
  8  9  1  1
 10  8  1  0
 10 18  1  0
 11 10  2  0
 13 12  1  0
 14 13  2  0
 15 13  1  0
 17 16  1  1
 16 15  1  0
 17 18  1  0
 19 17  1  0
 20 19  2  0
 21 19  1  0
 22 25  1  0
 22 21  1  0
 23 24  1  0
 22 23  1  6
 25 26  1  0
 27 25  2  0
M  END
$$$$
