RQC.pdb
     RDKit          3D

 27 26  0  0  1  0  0  0  0  0999 V2000
   25.6918  -17.7972  -18.2746 N   0  0  0  0  0  0  0  0  0  0  0  0
   26.3272  -18.9039  -18.8976 C   0  0  0  0  0  0  0  0  0  0  0  0
   25.9266  -19.3207  -20.0416 N   0  0  0  0  0  0  0  0  0  0  0  0
   27.4185  -19.5342  -18.2161 N   0  0  0  0  0  0  0  0  0  0  0  0
   27.5452  -19.3749  -16.7658 C   0  0  0  0  0  0  0  0  0  0  0  0
   26.2554  -19.6986  -16.0869 C   0  0  0  0  0  0  0  0  0  0  0  0
   26.1382  -19.3026  -14.6660 C   0  0  0  0  0  0  0  0  0  0  0  0
   26.6534  -20.2552  -13.6472 C   0  0  2  0  0  0  0  0  0  0  0  0
   26.1986  -21.5975  -13.8401 N   0  0  0  0  0  0  0  0  0  0  0  0
   26.4552  -19.7753  -12.2529 C   0  0  0  0  0  0  0  0  0  0  0  0
   26.7939  -18.5894  -11.9827 O   0  0  0  0  0  0  0  0  0  0  0  0
   26.4118  -20.1283  -20.4843 N   0  0  0  0  0  0  0  0  0  0  0  0
   21.7374  -21.4751   -8.9618 C   0  0  0  0  0  0  0  0  0  0  0  0
   21.8711  -20.8688  -10.2290 O   0  0  0  0  0  0  0  0  0  0  0  0
   20.8489  -20.7929  -10.9560 C   0  0  0  0  0  0  0  0  0  0  0  0
   23.2017  -20.3232  -10.7069 C   0  0  0  0  0  0  0  0  0  0  0  0
   24.1983  -20.4574   -9.6215 C   0  0  2  0  0  0  0  0  0  0  0  0
   25.5839  -19.9857   -9.8897 N   0  0  0  0  0  0  0  0  0  0  0  0
   25.9149  -20.5602  -11.2209 C   0  0  0  0  0  0  0  0  0  0  0  0
   26.6053  -20.3848   -8.9159 O   0  0  0  0  0  0  0  0  0  0  0  0
   27.1200  -21.5617   -8.9457 N   0  0  0  0  0  0  0  0  0  0  0  0
   27.1041  -19.5454   -7.8950 C   0  0  1  0  0  0  0  0  0  0  0  0
   27.7494  -20.1206   -6.7117 C   0  0  0  0  0  0  0  0  0  0  0  0
   28.4940  -19.0594   -5.9337 S   0  0  0  0  0  0  0  0  0  0  0  0
   30.2112  -19.4628   -5.6240 C   0  0  0  0  0  0  0  0  0  0  0  0
   26.7018  -20.6485   -5.8147 O   0  0  0  0  0  0  0  0  0  0  0  0
   26.9829  -21.4902   -4.7499 O   0  0  0  0  0  0  0  0  0  0  0  0
  1  2  1  0
  2  3  2  0
  4  2  1  0
  5  4  1  0
  6  5  1  0
  7  6  1  0
  8  7  1  0
  8  9  1  1
 10  8  1  0
 10 18  1  0
 11 10  2  0
 13 12  1  0
 14 13  2  0
 15 13  1  0
 17 16  1  6
 16 15  1  0
 17 18  1  0
 19 17  1  0
 20 19  2  0
 21 19  1  0
 22 25  1  0
 22 21  1  0
 23 24  1  0
 22 23  1  1
 25 26  1  0
 27 25  2  0
M  END
$$$$
