RQC.pdb
     RDKit          3D

 27 26  0  0  1  0  0  0  0  0999 V2000
   18.1395  -24.6455   -6.7438 N   0  0  0  0  0  0  0  0  0  0  0  0
   17.2768  -25.7656   -6.8772 C   0  0  0  0  0  0  0  0  0  0  0  0
   16.2673  -25.9017   -6.0993 N   0  0  0  0  0  0  0  0  0  0  0  0
   17.5658  -26.7293   -7.8973 N   0  0  0  0  0  0  0  0  0  0  0  0
   18.6620  -26.4738   -8.8342 C   0  0  0  0  0  0  0  0  0  0  0  0
   18.2402  -25.4986   -9.8831 C   0  0  0  0  0  0  0  0  0  0  0  0
   19.2429  -25.1670  -10.9197 C   0  0  0  0  0  0  0  0  0  0  0  0
   18.8914  -25.4726  -12.3317 C   0  0  2  0  0  0  0  0  0  0  0  0
   18.4208  -26.8092  -12.5258 N   0  0  0  0  0  0  0  0  0  0  0  0
   19.9651  -25.0957  -13.2903 C   0  0  0  0  0  0  0  0  0  0  0  0
   20.8721  -25.9423  -13.5240 O   0  0  0  0  0  0  0  0  0  0  0  0
   15.6934  -26.7679   -6.1617 N   0  0  0  0  0  0  0  0  0  0  0  0
   19.4430  -23.2835  -18.6034 C   0  0  0  0  0  0  0  0  0  0  0  0
   20.7714  -22.8162  -18.5135 O   0  0  0  0  0  0  0  0  0  0  0  0
   21.4001  -22.6199  -19.5839 C   0  0  0  0  0  0  0  0  0  0  0  0
   21.4281  -22.5562  -17.1727 C   0  0  0  0  0  0  0  0  0  0  0  0
   20.5427  -23.0515  -16.0956 C   0  0  1  0  0  0  0  0  0  0  0  0
   21.1773  -23.4940  -14.8245 N   0  0  0  0  0  0  0  0  0  0  0  0
   20.0305  -23.8573  -13.9500 C   0  0  0  0  0  0  0  0  0  0  0  0
   22.0206  -22.5072  -14.1421 O   0  0  0  0  0  0  0  0  0  0  0  0
   21.4985  -21.5094  -13.5235 N   0  0  0  0  0  0  0  0  0  0  0  0
   23.4317  -22.5594  -14.0980 C   0  0  1  0  0  0  0  0  0  0  0  0
   24.1955  -21.4627  -13.4969 C   0  0  0  0  0  0  0  0  0  0  0  0
   25.6269  -21.8779  -13.2427 S   0  0  0  0  0  0  0  0  0  0  0  0
   25.7883  -23.2601  -12.1155 C   0  0  0  0  0  0  0  0  0  0  0  0
   24.2425  -20.3412  -14.4565 O   0  0  0  0  0  0  0  0  0  0  0  0
   24.8241  -19.1203  -14.1527 O   0  0  0  0  0  0  0  0  0  0  0  0
  1  2  1  0
  2  3  2  0
  4  2  1  0
  5  4  1  0
  6  5  1  0
  7  6  1  0
  8  7  1  0
  8  9  1  1
 10  8  1  0
 10 18  1  0
 11 10  2  0
 13 12  1  0
 14 13  2  0
 15 13  1  0
 17 16  1  6
 16 15  1  0
 17 18  1  0
 19 17  1  0
 20 19  2  0
 21 19  1  0
 22 25  1  0
 22 21  1  0
 23 24  1  0
 22 23  1  6
 25 26  1  0
 27 25  2  0
M  END
$$$$
