RQC.pdb
     RDKit          3D

 27 26  0  0  1  0  0  0  0  0999 V2000
   30.1478  -12.6243  -17.5097 N   0  0  0  0  0  0  0  0  0  0  0  0
   29.7439  -11.2810  -17.2887 C   0  0  0  0  0  0  0  0  0  0  0  0
   30.4595  -10.3100  -17.7224 N   0  0  0  0  0  0  0  0  0  0  0  0
   28.5247  -11.0457  -16.5739 N   0  0  0  0  0  0  0  0  0  0  0  0
   27.7871  -12.1840  -16.0215 C   0  0  0  0  0  0  0  0  0  0  0  0
   26.4262  -12.2730  -16.6290 C   0  0  0  0  0  0  0  0  0  0  0  0
   25.3140  -11.6857  -15.8493 C   0  0  0  0  0  0  0  0  0  0  0  0
   23.9301  -12.0433  -16.2588 C   0  0  2  0  0  0  0  0  0  0  0  0
   23.8787  -12.9615  -17.3541 N   0  0  0  0  0  0  0  0  0  0  0  0
   23.0613  -10.8530  -16.4646 C   0  0  0  0  0  0  0  0  0  0  0  0
   23.0849  -10.2931  -17.5958 O   0  0  0  0  0  0  0  0  0  0  0  0
   30.1466   -9.3329  -17.5467 N   0  0  0  0  0  0  0  0  0  0  0  0
   17.5227  -10.2167  -14.4277 C   0  0  0  0  0  0  0  0  0  0  0  0
   17.9906  -10.8696  -15.5879 O   0  0  0  0  0  0  0  0  0  0  0  0
   17.2555  -11.7472  -16.1064 C   0  0  0  0  0  0  0  0  0  0  0  0
   19.3360  -10.5299  -16.1969 C   0  0  0  0  0  0  0  0  0  0  0  0
   20.0111   -9.5225  -15.3490 C   0  0  2  0  0  0  0  0  0  0  0  0
   21.3885   -9.1069  -15.7288 N   0  0  0  0  0  0  0  0  0  0  0  0
   22.2177  -10.3158  -15.4782 C   0  0  0  0  0  0  0  0  0  0  0  0
   21.9485   -7.9677  -14.9944 O   0  0  0  0  0  0  0  0  0  0  0  0
   22.3380   -8.0957  -13.7768 N   0  0  0  0  0  0  0  0  0  0  0  0
   22.1104   -6.6727  -15.5354 C   0  0  1  0  0  0  0  0  0  0  0  0
   22.6426   -5.5856  -14.7095 C   0  0  0  0  0  0  0  0  0  0  0  0
   23.6349   -4.7522  -15.4884 S   0  0  0  0  0  0  0  0  0  0  0  0
   25.0669   -5.6707  -16.0481 C   0  0  0  0  0  0  0  0  0  0  0  0
   21.5301   -4.6871  -14.3408 O   0  0  0  0  0  0  0  0  0  0  0  0
   20.2364   -4.8692  -14.8038 O   0  0  0  0  0  0  0  0  0  0  0  0
  1  2  1  0
  2  3  2  0
  4  2  1  0
  5  4  1  0
  6  5  1  0
  7  6  1  0
  8  7  1  0
  8  9  1  6
 10  8  1  0
 10 18  1  0
 11 10  2  0
 13 12  1  0
 14 13  2  0
 15 13  1  0
 17 16  1  6
 16 15  1  0
 17 18  1  0
 19 17  1  0
 20 19  2  0
 21 19  1  0
 22 25  1  0
 22 21  1  0
 23 24  1  0
 22 23  1  1
 25 26  1  0
 27 25  2  0
M  END
$$$$
