RQC.pdb
     RDKit          3D

 27 26  0  0  1  0  0  0  0  0999 V2000
   29.4578  -25.2005  -16.4271 N   0  0  0  0  0  0  0  0  0  0  0  0
   29.5963  -23.8791  -16.9286 C   0  0  0  0  0  0  0  0  0  0  0  0
   30.6003  -23.5666  -17.6615 N   0  0  0  0  0  0  0  0  0  0  0  0
   28.5901  -22.9155  -16.5943 N   0  0  0  0  0  0  0  0  0  0  0  0
   27.3599  -23.3628  -15.9376 C   0  0  0  0  0  0  0  0  0  0  0  0
   26.2765  -23.5784  -16.9422 C   0  0  0  0  0  0  0  0  0  0  0  0
   24.9442  -23.0288  -16.6066 C   0  0  0  0  0  0  0  0  0  0  0  0
   24.4431  -23.2502  -15.2243 C   0  0  2  0  0  0  0  0  0  0  0  0
   24.3915  -24.6297  -14.8505 N   0  0  0  0  0  0  0  0  0  0  0  0
   23.1702  -22.5311  -14.9478 C   0  0  0  0  0  0  0  0  0  0  0  0
   22.0906  -23.1750  -15.0648 O   0  0  0  0  0  0  0  0  0  0  0  0
   30.6547  -22.6079  -18.0632 N   0  0  0  0  0  0  0  0  0  0  0  0
   19.7157  -19.3406  -11.3944 C   0  0  0  0  0  0  0  0  0  0  0  0
   20.4439  -20.4931  -11.0299 O   0  0  0  0  0  0  0  0  0  0  0  0
   20.0747  -21.1237  -10.0075 C   0  0  0  0  0  0  0  0  0  0  0  0
   21.6354  -20.9633  -11.8398 C   0  0  0  0  0  0  0  0  0  0  0  0
   21.8869  -20.0008  -12.9351 C   0  0  2  0  0  0  0  0  0  0  0  0
   21.7951  -20.5013  -14.3334 N   0  0  0  0  0  0  0  0  0  0  0  0
   23.0971  -21.1816  -14.5648 C   0  0  0  0  0  0  0  0  0  0  0  0
   21.5794  -19.4891  -15.3723 O   0  0  0  0  0  0  0  0  0  0  0  0
   22.4842  -18.6172  -15.6408 N   0  0  0  0  0  0  0  0  0  0  0  0
   20.4044  -19.3824  -16.1493 C   0  0  1  0  0  0  0  0  0  0  0  0
   20.3104  -18.3838  -17.2176 C   0  0  0  0  0  0  0  0  0  0  0  0
   19.7179  -18.9881  -18.4705 S   0  0  0  0  0  0  0  0  0  0  0  0
   20.7029  -20.3103  -19.1697 C   0  0  0  0  0  0  0  0  0  0  0  0
   19.3872  -17.3161  -16.7834 O   0  0  0  0  0  0  0  0  0  0  0  0
   19.1286  -16.1921  -17.5521 O   0  0  0  0  0  0  0  0  0  0  0  0
  1  2  1  0
  2  3  2  0
  4  2  1  0
  5  4  1  0
  6  5  1  0
  7  6  1  0
  8  7  1  0
  8  9  1  6
 10  8  1  0
 10 18  1  0
 11 10  2  0
 13 12  1  0
 14 13  2  0
 15 13  1  0
 17 16  1  1
 16 15  1  0
 17 18  1  0
 19 17  1  0
 20 19  2  0
 21 19  1  0
 22 25  1  0
 22 21  1  0
 23 24  1  0
 22 23  1  6
 25 26  1  0
 27 25  2  0
M  END
$$$$
