RQC.pdb
     RDKit          3D

 27 26  0  0  1  0  0  0  0  0999 V2000
   22.4495  -20.6797   -9.7447 N   0  0  0  0  0  0  0  0  0  0  0  0
   23.2283  -21.1289   -8.6454 C   0  0  0  0  0  0  0  0  0  0  0  0
   22.6887  -21.2962   -7.4949 N   0  0  0  0  0  0  0  0  0  0  0  0
   24.6213  -21.3871   -8.8588 N   0  0  0  0  0  0  0  0  0  0  0  0
   25.1775  -21.2479  -10.2064 C   0  0  0  0  0  0  0  0  0  0  0  0
   26.1667  -20.1306  -10.2539 C   0  0  0  0  0  0  0  0  0  0  0  0
   26.7819  -19.8472  -11.5695 C   0  0  0  0  0  0  0  0  0  0  0  0
   26.3665  -20.6994  -12.7149 C   0  0  2  0  0  0  0  0  0  0  0  0
   27.1376  -21.8970  -12.8439 N   0  0  0  0  0  0  0  0  0  0  0  0
   26.2612  -19.9425  -13.9916 C   0  0  0  0  0  0  0  0  0  0  0  0
   27.0249  -20.2754  -14.9402 O   0  0  0  0  0  0  0  0  0  0  0  0
   23.2773  -21.6283   -6.7033 N   0  0  0  0  0  0  0  0  0  0  0  0
   24.3089  -21.4587  -18.0555 C   0  0  0  0  0  0  0  0  0  0  0  0
   24.1981  -20.1781  -18.6376 O   0  0  0  0  0  0  0  0  0  0  0  0
   23.8370  -20.1069  -19.8392 C   0  0  0  0  0  0  0  0  0  0  0  0
   24.5030  -18.9219  -17.8465 C   0  0  0  0  0  0  0  0  0  0  0  0
   24.8627  -19.2973  -16.4612 C   0  0  1  0  0  0  0  0  0  0  0  0
   25.2489  -18.2070  -15.5250 N   0  0  0  0  0  0  0  0  0  0  0  0
   25.3651  -18.8820  -14.2050 C   0  0  0  0  0  0  0  0  0  0  0  0
   24.3150  -17.0812  -15.4192 O   0  0  0  0  0  0  0  0  0  0  0  0
   23.1586  -17.2326  -14.8800 N   0  0  0  0  0  0  0  0  0  0  0  0
   24.5882  -15.7734  -15.8783 C   0  0  1  0  0  0  0  0  0  0  0  0
   23.6078  -14.7011  -15.6878 C   0  0  0  0  0  0  0  0  0  0  0  0
   24.2930  -13.3590  -15.5650 S   0  0  0  0  0  0  0  0  0  0  0  0
   23.1592  -11.9788  -15.4348 C   0  0  0  0  0  0  0  0  0  0  0  0
   22.7484  -14.6312  -16.8868 O   0  0  0  0  0  0  0  0  0  0  0  0
   23.2126  -14.9285  -18.1585 O   0  0  0  0  0  0  0  0  0  0  0  0
  1  2  1  0
  2  3  2  0
  4  2  1  0
  5  4  1  0
  6  5  1  0
  7  6  1  0
  8  7  1  0
  8  9  1  6
 10  8  1  0
 10 18  1  0
 11 10  2  0
 13 12  1  0
 14 13  2  0
 15 13  1  0
 17 16  1  6
 16 15  1  0
 17 18  1  0
 19 17  1  0
 20 19  2  0
 21 19  1  0
 22 25  1  0
 22 21  1  0
 23 24  1  0
 22 23  1  6
 25 26  1  0
 27 25  2  0
M  END
$$$$
