RQC.pdb
     RDKit          3D

 27 26  0  0  1  0  0  0  0  0999 V2000
   25.7428  -20.7129  -12.0070 N   0  0  0  0  0  0  0  0  0  0  0  0
   27.0941  -20.9652  -12.3631 C   0  0  0  0  0  0  0  0  0  0  0  0
   27.6282  -22.1031  -12.1123 N   0  0  0  0  0  0  0  0  0  0  0  0
   27.8353  -19.9204  -13.0048 N   0  0  0  0  0  0  0  0  0  0  0  0
   27.1539  -19.0381  -13.9545 C   0  0  0  0  0  0  0  0  0  0  0  0
   27.2058  -19.6095  -15.3329 C   0  0  0  0  0  0  0  0  0  0  0  0
   25.9113  -19.7695  -16.0318 C   0  0  0  0  0  0  0  0  0  0  0  0
   24.8577  -18.7570  -15.7571 C   0  0  2  0  0  0  0  0  0  0  0  0
   24.8572  -18.2865  -14.4065 N   0  0  0  0  0  0  0  0  0  0  0  0
   23.5091  -19.1849  -16.2177 C   0  0  0  0  0  0  0  0  0  0  0  0
   23.4033  -19.6441  -17.3890 O   0  0  0  0  0  0  0  0  0  0  0  0
   28.6371  -22.2464  -12.3245 N   0  0  0  0  0  0  0  0  0  0  0  0
   19.2639  -21.9042  -12.8648 C   0  0  0  0  0  0  0  0  0  0  0  0
   20.5993  -21.5085  -12.6378 O   0  0  0  0  0  0  0  0  0  0  0  0
   21.1468  -21.8715  -11.5665 C   0  0  0  0  0  0  0  0  0  0  0  0
   21.3576  -20.6718  -13.6485 C   0  0  0  0  0  0  0  0  0  0  0  0
   20.4547  -20.3310  -14.7702 C   0  0  2  0  0  0  0  0  0  0  0  0
   21.0316  -19.5906  -15.9248 N   0  0  0  0  0  0  0  0  0  0  0  0
   22.3488  -19.1092  -15.4297 C   0  0  0  0  0  0  0  0  0  0  0  0
   20.2502  -18.4540  -16.4229 O   0  0  0  0  0  0  0  0  0  0  0  0
   20.3632  -17.2914  -15.8878 N   0  0  0  0  0  0  0  0  0  0  0  0
   19.3373  -18.5250  -17.4988 C   0  0  1  0  0  0  0  0  0  0  0  0
   18.6144  -17.3283  -17.9376 C   0  0  0  0  0  0  0  0  0  0  0  0
   18.1807  -17.4584  -19.3801 S   0  0  0  0  0  0  0  0  0  0  0  0
   19.5263  -17.8051  -20.5100 C   0  0  0  0  0  0  0  0  0  0  0  0
   17.3822  -17.2019  -17.1333 O   0  0  0  0  0  0  0  0  0  0  0  0
   16.5175  -16.1254  -17.2533 O   0  0  0  0  0  0  0  0  0  0  0  0
  1  2  1  0
  2  3  2  0
  4  2  1  0
  5  4  1  0
  6  5  1  0
  7  6  1  0
  8  7  1  0
  8  9  1  1
 10  8  1  0
 10 18  1  0
 11 10  2  0
 13 12  1  0
 14 13  2  0
 15 13  1  0
 17 16  1  6
 16 15  1  0
 17 18  1  0
 19 17  1  0
 20 19  2  0
 21 19  1  0
 22 25  1  0
 22 21  1  0
 23 24  1  0
 22 23  1  1
 25 26  1  0
 27 25  2  0
M  END
$$$$
