RQC.pdb
     RDKit          3D

 27 26  0  0  1  0  0  0  0  0999 V2000
   25.6024  -20.9240   -8.9620 N   0  0  0  0  0  0  0  0  0  0  0  0
   24.5702  -20.8496   -9.9345 C   0  0  0  0  0  0  0  0  0  0  0  0
   23.3438  -20.9897   -9.5892 N   0  0  0  0  0  0  0  0  0  0  0  0
   24.9370  -20.6154  -11.2995 N   0  0  0  0  0  0  0  0  0  0  0  0
   26.1439  -19.8399  -11.5941 C   0  0  0  0  0  0  0  0  0  0  0  0
   27.3549  -20.7115  -11.5394 C   0  0  0  0  0  0  0  0  0  0  0  0
   28.0579  -20.9482  -12.8198 C   0  0  0  0  0  0  0  0  0  0  0  0
   27.8277  -19.9701  -13.9158 C   0  0  2  0  0  0  0  0  0  0  0  0
   27.2857  -18.7257  -13.4650 N   0  0  0  0  0  0  0  0  0  0  0  0
   27.0693  -20.5480  -15.0579 C   0  0  0  0  0  0  0  0  0  0  0  0
   27.5639  -21.5472  -15.6502 O   0  0  0  0  0  0  0  0  0  0  0  0
   22.6026  -20.9253  -10.3171 N   0  0  0  0  0  0  0  0  0  0  0  0
   21.2885  -21.3408  -15.1851 C   0  0  0  0  0  0  0  0  0  0  0  0
   21.4572  -21.5832  -16.5650 O   0  0  0  0  0  0  0  0  0  0  0  0
   20.4601  -21.9799  -17.2191 C   0  0  0  0  0  0  0  0  0  0  0  0
   22.7950  -21.3746  -17.2457 C   0  0  0  0  0  0  0  0  0  0  0  0
   23.7877  -20.9375  -16.2392 C   0  0  1  0  0  0  0  0  0  0  0  0
   25.1607  -20.6149  -16.7136 N   0  0  0  0  0  0  0  0  0  0  0  0
   25.8383  -20.0502  -15.5162 C   0  0  0  0  0  0  0  0  0  0  0  0
   25.2564  -19.6632  -17.8252 O   0  0  0  0  0  0  0  0  0  0  0  0
   25.0971  -18.4033  -17.6298 N   0  0  0  0  0  0  0  0  0  0  0  0
   25.5261  -20.0259  -19.1637 C   0  0  1  0  0  0  0  0  0  0  0  0
   25.7503  -18.9945  -20.1803 C   0  0  0  0  0  0  0  0  0  0  0  0
   27.1067  -18.3500  -20.0051 S   0  0  0  0  0  0  0  0  0  0  0  0
   28.4341  -19.5224  -19.7393 C   0  0  0  0  0  0  0  0  0  0  0  0
   25.7540  -19.6376  -21.5097 O   0  0  0  0  0  0  0  0  0  0  0  0
   25.8747  -18.9185  -22.6885 O   0  0  0  0  0  0  0  0  0  0  0  0
  1  2  1  0
  2  3  2  0
  4  2  1  0
  5  4  1  0
  6  5  1  0
  7  6  1  0
  8  7  1  0
  8  9  1  1
 10  8  1  0
 10 18  1  0
 11 10  2  0
 13 12  1  0
 14 13  2  0
 15 13  1  0
 17 16  1  1
 16 15  1  0
 17 18  1  0
 19 17  1  0
 20 19  2  0
 21 19  1  0
 22 25  1  0
 22 21  1  0
 23 24  1  0
 22 23  1  6
 25 26  1  0
 27 25  2  0
M  END
$$$$
