RQC.pdb
     RDKit          3D

 27 26  0  0  1  0  0  0  0  0999 V2000
   19.9538  -22.1893   -9.2689 N   0  0  0  0  0  0  0  0  0  0  0  0
   20.8341  -22.4289   -8.1806 C   0  0  0  0  0  0  0  0  0  0  0  0
   20.3896  -22.9244   -7.0853 N   0  0  0  0  0  0  0  0  0  0  0  0
   22.2200  -22.1035   -8.3420 N   0  0  0  0  0  0  0  0  0  0  0  0
   22.6708  -21.4900   -9.5930 C   0  0  0  0  0  0  0  0  0  0  0  0
   24.1397  -21.2259   -9.5493 C   0  0  0  0  0  0  0  0  0  0  0  0
   24.8568  -21.2600  -10.8433 C   0  0  0  0  0  0  0  0  0  0  0  0
   24.3057  -20.4351  -11.9508 C   0  0  2  0  0  0  0  0  0  0  0  0
   23.2356  -21.0695  -12.6565 N   0  0  0  0  0  0  0  0  0  0  0  0
   25.3594  -19.9058  -12.8583 C   0  0  0  0  0  0  0  0  0  0  0  0
   26.3170  -19.2658  -12.3415 O   0  0  0  0  0  0  0  0  0  0  0  0
   21.0466  -23.0660   -6.2905 N   0  0  0  0  0  0  0  0  0  0  0  0
   28.8293  -21.5531  -17.6569 C   0  0  0  0  0  0  0  0  0  0  0  0
   28.8365  -22.0601  -16.3400 O   0  0  0  0  0  0  0  0  0  0  0  0
   29.8130  -22.7681  -15.9872 C   0  0  0  0  0  0  0  0  0  0  0  0
   27.7065  -21.7654  -15.3742 C   0  0  0  0  0  0  0  0  0  0  0  0
   26.8249  -20.7320  -15.9608 C   0  0  2  0  0  0  0  0  0  0  0  0
   26.4582  -19.5681  -15.1093 N   0  0  0  0  0  0  0  0  0  0  0  0
   25.3532  -20.0751  -14.2528 C   0  0  0  0  0  0  0  0  0  0  0  0
   26.0167  -18.3609  -15.8152 O   0  0  0  0  0  0  0  0  0  0  0  0
   24.8237  -18.2705  -16.2836 N   0  0  0  0  0  0  0  0  0  0  0  0
   26.8276  -17.2252  -16.0357 C   0  0  1  0  0  0  0  0  0  0  0  0
   26.2909  -16.0561  -16.7373 C   0  0  0  0  0  0  0  0  0  0  0  0
   27.0150  -14.7964  -16.3193 S   0  0  0  0  0  0  0  0  0  0  0  0
   26.7361  -14.3365  -14.6111 C   0  0  0  0  0  0  0  0  0  0  0  0
   26.5321  -16.2244  -18.1845 O   0  0  0  0  0  0  0  0  0  0  0  0
   25.9980  -15.3701  -19.1364 O   0  0  0  0  0  0  0  0  0  0  0  0
  1  2  1  0
  2  3  2  0
  4  2  1  0
  5  4  1  0
  6  5  1  0
  7  6  1  0
  8  7  1  0
  8  9  1  6
 10  8  1  0
 10 18  1  0
 11 10  2  0
 13 12  1  0
 14 13  2  0
 15 13  1  0
 17 16  1  1
 16 15  1  0
 17 18  1  0
 19 17  1  0
 20 19  2  0
 21 19  1  0
 22 25  1  0
 22 21  1  0
 23 24  1  0
 22 23  1  6
 25 26  1  0
 27 25  2  0
M  END
$$$$
