PET.pdb
     RDKit          3D

 24 24  0  0  1  0  0  0  0  0999 V2000
    9.0241  -15.1077   19.4828 N   0  0  0  0  0  0  0  0  0  0  0  0
    9.0948  -14.5561   18.1115 C   0  0  0  0  0  0  0  0  0  0  0  0
    7.7145  -13.9625   17.9662 C   0  0  0  0  0  0  0  0  0  0  0  0
    7.4683  -13.3503   19.3191 C   0  0  0  0  0  0  0  0  0  0  0  0
    8.5245  -13.9650   20.2180 C   0  0  1  0  0  0  0  0  0  0  0  0
    7.8997  -14.3460   21.4838 C   0  0  0  0  0  0  0  0  0  0  0  0
    7.3530  -13.4296   22.1779 O   0  0  0  0  0  0  0  0  0  0  0  0
    7.8617  -15.6641   21.9900 N   0  0  0  0  0  0  0  0  0  0  0  0
    7.3341  -15.9271   23.3237 C   0  0  1  0  0  0  0  0  0  0  0  0
    7.5121  -17.3833   23.6906 C   0  0  0  0  0  0  0  0  0  0  0  0
    6.9943  -17.6897   25.0740 C   0  0  0  0  0  0  0  0  0  0  0  0
    7.2127  -19.1389   25.3224 C   0  0  0  0  0  0  0  0  0  0  0  0
    6.2413  -19.9657   25.3687 O   0  0  0  0  0  0  0  0  0  0  0  0
    7.9249  -15.0199   24.3270 C   0  0  0  0  0  0  0  0  0  0  0  0
    9.1557  -14.7738   24.3843 O   0  0  0  0  0  0  0  0  0  0  0  0
    8.4741  -19.6894   25.5194 O   0  0  0  0  0  0  0  0  0  0  0  0
    6.8080  -11.3030   27.3632 C   0  0  0  0  0  0  0  0  0  0  0  0
    6.3895  -12.5189   26.5926 C   0  0  1  0  0  0  0  0  0  0  0  0
    5.7582  -12.1509   25.4183 O   0  0  0  0  0  0  0  0  0  0  0  0
    7.5634  -13.4030   26.2199 C   0  0  2  0  0  0  0  0  0  0  0  0
    7.0955  -14.3795   25.2855 N   0  0  0  0  0  0  0  0  0  0  0  0
    8.2467  -13.9604   27.3823 C   0  0  0  0  0  0  0  0  0  0  0  0
    8.8704  -13.1329   28.2959 O   0  0  0  0  0  0  0  0  0  0  0  0
    8.2732  -15.1982   27.5615 O   0  0  0  0  0  0  0  0  0  0  0  0
  1  2  1  0
  3  2  1  0
  4  3  1  0
  5  4  1  0
  5  1  1  0
  5  6  1  1
  7  6  2  0
  8  6  1  0
  9 14  1  0
  9  8  1  0
  9 10  1  1
 11 10  1  0
 12 11  1  0
 13 12  2  0
 14 15  2  0
 16 12  1  0
 18 17  1  6
 18 19  1  0
 18 20  1  0
 20 21  1  6
 21 14  1  0
 22 20  1  0
 22 23  1  0
 24 22  2  0
M  END
$$$$
