PET.pdb
     RDKit          3D

 24 24  0  0  1  0  0  0  0  0999 V2000
    9.0554  -13.9535   19.5607 N   0  0  0  0  0  0  0  0  0  0  0  0
    8.4523  -13.4495   18.3068 C   0  0  0  0  0  0  0  0  0  0  0  0
    7.0701  -14.0510   18.3877 C   0  0  0  0  0  0  0  0  0  0  0  0
    6.7204  -13.8941   19.8433 C   0  0  0  0  0  0  0  0  0  0  0  0
    8.0401  -13.5875   20.5257 C   0  0  1  0  0  0  0  0  0  0  0  0
    8.1279  -14.3762   21.7537 C   0  0  0  0  0  0  0  0  0  0  0  0
    7.1615  -14.3030   22.5791 O   0  0  0  0  0  0  0  0  0  0  0  0
    9.2143  -15.2150   22.0876 N   0  0  0  0  0  0  0  0  0  0  0  0
    9.2810  -15.8488   23.3990 C   0  0  1  0  0  0  0  0  0  0  0  0
   10.4154  -16.8472   23.4524 C   0  0  0  0  0  0  0  0  0  0  0  0
   10.4653  -17.7192   22.2223 C   0  0  0  0  0  0  0  0  0  0  0  0
   11.6684  -18.5847   22.3362 C   0  0  0  0  0  0  0  0  0  0  0  0
   11.7257  -19.5476   23.1721 O   0  0  0  0  0  0  0  0  0  0  0  0
    9.3648  -14.8469   24.4797 C   0  0  0  0  0  0  0  0  0  0  0  0
    9.5282  -13.6202   24.2623 O   0  0  0  0  0  0  0  0  0  0  0  0
   12.8019  -18.4091   21.5504 O   0  0  0  0  0  0  0  0  0  0  0  0
    8.1301  -12.6230   25.4110 C   0  0  0  0  0  0  0  0  0  0  0  0
    7.9523  -13.4385   26.6563 C   0  0  1  0  0  0  0  0  0  0  0  0
    6.8337  -14.2446   26.5482 O   0  0  0  0  0  0  0  0  0  0  0  0
    9.1382  -14.3413   26.9336 C   0  0  2  0  0  0  0  0  0  0  0  0
    9.2602  -15.2514   25.8370 N   0  0  0  0  0  0  0  0  0  0  0  0
    9.0715  -14.9814   28.2430 C   0  0  0  0  0  0  0  0  0  0  0  0
    9.2127  -14.2371   29.3983 O   0  0  0  0  0  0  0  0  0  0  0  0
    8.8851  -16.2153   28.3302 O   0  0  0  0  0  0  0  0  0  0  0  0
  1  2  1  0
  3  2  1  0
  4  3  1  0
  5  4  1  0
  5  1  1  0
  5  6  1  1
  7  6  2  0
  8  6  1  0
  9 14  1  0
  9  8  1  0
  9 10  1  6
 11 10  1  0
 12 11  1  0
 13 12  2  0
 14 15  2  0
 16 12  1  0
 18 17  1  6
 18 19  1  0
 18 20  1  0
 20 21  1  6
 21 14  1  0
 22 20  1  0
 22 23  1  0
 24 22  2  0
M  END
$$$$
