PET.pdb
     RDKit          3D

 24 24  0  0  1  0  0  0  0  0999 V2000
    9.0592  -14.4848   19.1282 N   0  0  0  0  0  0  0  0  0  0  0  0
    8.5806  -14.0163   17.8086 C   0  0  0  0  0  0  0  0  0  0  0  0
    7.0880  -14.1752   17.9684 C   0  0  0  0  0  0  0  0  0  0  0  0
    6.8507  -13.7140   19.3814 C   0  0  0  0  0  0  0  0  0  0  0  0
    8.2268  -13.7052   20.0199 C   0  0  1  0  0  0  0  0  0  0  0  0
    8.1295  -14.2982   21.3529 C   0  0  0  0  0  0  0  0  0  0  0  0
    7.3172  -13.7733   22.1806 O   0  0  0  0  0  0  0  0  0  0  0  0
    8.8773  -15.4156   21.7857 N   0  0  0  0  0  0  0  0  0  0  0  0
    8.6867  -15.9564   23.1263 C   0  0  1  0  0  0  0  0  0  0  0  0
    9.6276  -17.1139   23.3739 C   0  0  0  0  0  0  0  0  0  0  0  0
    9.5990  -18.1216   22.2516 C   0  0  0  0  0  0  0  0  0  0  0  0
   10.5897  -19.1811   22.5765 C   0  0  0  0  0  0  0  0  0  0  0  0
   11.1564  -19.8722   21.6651 O   0  0  0  0  0  0  0  0  0  0  0  0
    8.8082  -14.9052   24.1553 C   0  0  0  0  0  0  0  0  0  0  0  0
    9.4171  -13.8239   23.9582 O   0  0  0  0  0  0  0  0  0  0  0  0
   10.9645  -19.4904   23.8791 O   0  0  0  0  0  0  0  0  0  0  0  0
    6.6808  -12.2151   27.2493 C   0  0  0  0  0  0  0  0  0  0  0  0
    6.8566  -13.3181   26.2492 C   0  0  1  0  0  0  0  0  0  0  0  0
    6.8557  -12.8072   24.9640 O   0  0  0  0  0  0  0  0  0  0  0  0
    8.1587  -14.0713   26.4381 C   0  0  2  0  0  0  0  0  0  0  0  0
    8.2234  -15.0899   25.4362 N   0  0  0  0  0  0  0  0  0  0  0  0
    8.3426  -14.5554   27.8021 C   0  0  0  0  0  0  0  0  0  0  0  0
    8.4873  -13.6676   28.8506 O   0  0  0  0  0  0  0  0  0  0  0  0
    8.3707  -15.7845   28.0339 O   0  0  0  0  0  0  0  0  0  0  0  0
  1  2  1  0
  3  2  1  0
  4  3  1  0
  5  4  1  0
  5  1  1  0
  5  6  1  1
  7  6  2  0
  8  6  1  0
  9 14  1  0
  9  8  1  0
  9 10  1  1
 11 10  1  0
 12 11  1  0
 13 12  2  0
 14 15  2  0
 16 12  1  0
 18 17  1  1
 18 19  1  0
 18 20  1  0
 20 21  1  6
 21 14  1  0
 22 20  1  0
 22 23  1  0
 24 22  2  0
M  END
$$$$
