PET.pdb
     RDKit          3D

 24 24  0  0  1  0  0  0  0  0999 V2000
    9.1754  -14.3110   19.2042 N   0  0  0  0  0  0  0  0  0  0  0  0
    8.6893  -13.7590   17.9201 C   0  0  0  0  0  0  0  0  0  0  0  0
    7.1969  -13.9165   18.0832 C   0  0  0  0  0  0  0  0  0  0  0  0
    6.9752  -13.5410   19.5239 C   0  0  0  0  0  0  0  0  0  0  0  0
    8.3567  -13.5815   20.1494 C   0  0  1  0  0  0  0  0  0  0  0  0
    8.2660  -14.2543   21.4443 C   0  0  0  0  0  0  0  0  0  0  0  0
    7.4109  -13.8215   22.2820 O   0  0  0  0  0  0  0  0  0  0  0  0
    9.0647  -15.3537   21.8300 N   0  0  0  0  0  0  0  0  0  0  0  0
    8.8809  -15.9770   23.1354 C   0  0  1  0  0  0  0  0  0  0  0  0
    9.7798  -17.1842   23.2819 C   0  0  0  0  0  0  0  0  0  0  0  0
    9.5560  -17.9061   24.5874 C   0  0  0  0  0  0  0  0  0  0  0  0
   10.4888  -19.0629   24.6244 C   0  0  0  0  0  0  0  0  0  0  0  0
   11.7475  -18.9151   24.4724 O   0  0  0  0  0  0  0  0  0  0  0  0
    9.0661  -15.0040   24.2296 C   0  0  0  0  0  0  0  0  0  0  0  0
   10.0899  -14.2835   24.3367 O   0  0  0  0  0  0  0  0  0  0  0  0
   10.0620  -20.3708   24.8245 O   0  0  0  0  0  0  0  0  0  0  0  0
    6.8713  -12.1207   25.1456 C   0  0  0  0  0  0  0  0  0  0  0  0
    6.9072  -13.0705   26.3050 C   0  0  1  0  0  0  0  0  0  0  0  0
    5.8191  -13.9231   26.2627 O   0  0  0  0  0  0  0  0  0  0  0  0
    8.1571  -13.9285   26.3143 C   0  0  2  0  0  0  0  0  0  0  0  0
    8.0634  -14.8486   25.2232 N   0  0  0  0  0  0  0  0  0  0  0  0
    8.4084  -14.5528   27.6088 C   0  0  0  0  0  0  0  0  0  0  0  0
    8.4159  -15.9283   27.7372 O   0  0  0  0  0  0  0  0  0  0  0  0
    8.6202  -13.8438   28.6175 O   0  0  0  0  0  0  0  0  0  0  0  0
  1  2  1  0
  3  2  1  0
  4  3  1  0
  5  4  1  0
  5  1  1  0
  5  6  1  1
  7  6  2  0
  8  6  1  0
  9 14  1  0
  9  8  1  0
  9 10  1  1
 11 10  1  0
 12 11  1  0
 13 12  2  0
 14 15  2  0
 16 12  1  0
 18 17  1  6
 18 19  1  0
 18 20  1  0
 20 21  1  6
 21 14  1  0
 22 20  1  0
 22 23  1  0
 24 22  2  0
M  END
$$$$
