PET.pdb
     RDKit          3D

 24 24  0  0  1  0  0  0  0  0999 V2000
    9.3244  -14.3025   19.1976 N   0  0  0  0  0  0  0  0  0  0  0  0
    9.0183  -13.7314   17.8671 C   0  0  0  0  0  0  0  0  0  0  0  0
    7.5091  -13.7210   17.8963 C   0  0  0  0  0  0  0  0  0  0  0  0
    7.2035  -13.2894   19.3056 C   0  0  0  0  0  0  0  0  0  0  0  0
    8.5110  -13.4657   20.0544 C   0  0  1  0  0  0  0  0  0  0  0  0
    8.2318  -14.0936   21.3449 C   0  0  0  0  0  0  0  0  0  0  0  0
    7.3778  -13.5361   22.1065 O   0  0  0  0  0  0  0  0  0  0  0  0
    8.8470  -15.2789   21.8054 N   0  0  0  0  0  0  0  0  0  0  0  0
    8.4979  -15.8331   23.1081 C   0  0  1  0  0  0  0  0  0  0  0  0
    9.1495  -17.1833   23.3059 C   0  0  0  0  0  0  0  0  0  0  0  0
   10.6395  -17.0718   23.5143 C   0  0  0  0  0  0  0  0  0  0  0  0
   11.1686  -18.4477   23.7049 C   0  0  0  0  0  0  0  0  0  0  0  0
   11.7120  -18.8119   24.8009 O   0  0  0  0  0  0  0  0  0  0  0  0
    8.8169  -14.8914   24.1989 C   0  0  0  0  0  0  0  0  0  0  0  0
    9.8069  -14.1185   24.1661 O   0  0  0  0  0  0  0  0  0  0  0  0
   11.1099  -19.4229   22.7157 O   0  0  0  0  0  0  0  0  0  0  0  0
    6.8176  -12.1199   25.4345 C   0  0  0  0  0  0  0  0  0  0  0  0
    6.9881  -13.0596   26.5901 C   0  0  1  0  0  0  0  0  0  0  0  0
    5.8906  -13.8942   26.6979 O   0  0  0  0  0  0  0  0  0  0  0  0
    8.2153  -13.9382   26.4480 C   0  0  2  0  0  0  0  0  0  0  0  0
    7.9901  -14.8291   25.3520 N   0  0  0  0  0  0  0  0  0  0  0  0
    8.5890  -14.5987   27.6941 C   0  0  0  0  0  0  0  0  0  0  0  0
    8.9141  -13.8574   28.8136 O   0  0  0  0  0  0  0  0  0  0  0  0
    8.6180  -15.8477   27.7588 O   0  0  0  0  0  0  0  0  0  0  0  0
  1  2  1  0
  3  2  1  0
  4  3  1  0
  5  4  1  0
  5  1  1  0
  5  6  1  1
  7  6  2  0
  8  6  1  0
  9 14  1  0
  9  8  1  0
  9 10  1  1
 11 10  1  0
 12 11  1  0
 13 12  2  0
 14 15  2  0
 16 12  1  0
 18 17  1  6
 18 19  1  0
 18 20  1  0
 20 21  1  6
 21 14  1  0
 22 20  1  0
 22 23  1  0
 24 22  2  0
M  END
$$$$
