PET.pdb
     RDKit          3D

 24 24  0  0  1  0  0  0  0  0999 V2000
    9.2024  -14.2193   19.0973 N   0  0  0  0  0  0  0  0  0  0  0  0
    8.7373  -13.6141   17.8295 C   0  0  0  0  0  0  0  0  0  0  0  0
    7.2398  -13.6843   18.0069 C   0  0  0  0  0  0  0  0  0  0  0  0
    7.0563  -13.3243   19.4569 C   0  0  0  0  0  0  0  0  0  0  0  0
    8.4392  -13.4603   20.0655 C   0  0  1  0  0  0  0  0  0  0  0  0
    8.3215  -14.1516   21.3485 C   0  0  0  0  0  0  0  0  0  0  0  0
    7.5591  -13.6427   22.2317 O   0  0  0  0  0  0  0  0  0  0  0  0
    8.9980  -15.3477   21.6755 N   0  0  0  0  0  0  0  0  0  0  0  0
    8.8287  -15.9551   22.9902 C   0  0  1  0  0  0  0  0  0  0  0  0
    9.7052  -17.1795   23.1295 C   0  0  0  0  0  0  0  0  0  0  0  0
    9.4732  -17.9009   24.4340 C   0  0  0  0  0  0  0  0  0  0  0  0
   10.4069  -19.0566   24.4781 C   0  0  0  0  0  0  0  0  0  0  0  0
   11.6704  -18.8958   24.5625 O   0  0  0  0  0  0  0  0  0  0  0  0
    9.0572  -14.9762   24.0710 C   0  0  0  0  0  0  0  0  0  0  0  0
    9.9993  -14.1452   24.0517 O   0  0  0  0  0  0  0  0  0  0  0  0
    9.9759  -20.3776   24.4311 O   0  0  0  0  0  0  0  0  0  0  0  0
    6.8313  -12.3076   25.1100 C   0  0  0  0  0  0  0  0  0  0  0  0
    7.0024  -13.2020   26.3009 C   0  0  1  0  0  0  0  0  0  0  0  0
    5.9663  -14.1155   26.3698 O   0  0  0  0  0  0  0  0  0  0  0  0
    8.2986  -13.9871   26.2562 C   0  0  2  0  0  0  0  0  0  0  0  0
    8.1936  -14.9436   25.1980 N   0  0  0  0  0  0  0  0  0  0  0  0
    8.6631  -14.5567   27.5490 C   0  0  0  0  0  0  0  0  0  0  0  0
    8.9278  -13.7376   28.6295 O   0  0  0  0  0  0  0  0  0  0  0  0
    8.7391  -15.7974   27.6898 O   0  0  0  0  0  0  0  0  0  0  0  0
  1  2  1  0
  3  2  1  0
  4  3  1  0
  5  4  1  0
  5  1  1  0
  5  6  1  1
  7  6  2  0
  8  6  1  0
  9 14  1  0
  9  8  1  0
  9 10  1  1
 11 10  1  0
 12 11  1  0
 13 12  2  0
 14 15  2  0
 16 12  1  0
 18 17  1  6
 18 19  1  0
 18 20  1  0
 20 21  1  6
 21 14  1  0
 22 20  1  0
 22 23  1  0
 24 22  2  0
M  END
$$$$
