PET.pdb
     RDKit          3D

 24 24  0  0  1  0  0  0  0  0999 V2000
    8.9188  -14.8525   19.2779 N   0  0  0  0  0  0  0  0  0  0  0  0
    8.9344  -14.1872   17.9561 C   0  0  0  0  0  0  0  0  0  0  0  0
    7.5748  -13.5316   17.9455 C   0  0  0  0  0  0  0  0  0  0  0  0
    7.4329  -13.0301   19.3576 C   0  0  0  0  0  0  0  0  0  0  0  0
    8.5116  -13.7597   20.1357 C   0  0  1  0  0  0  0  0  0  0  0  0
    7.9445  -14.2251   21.4005 C   0  0  0  0  0  0  0  0  0  0  0  0
    7.4197  -13.3596   22.1724 O   0  0  0  0  0  0  0  0  0  0  0  0
    7.9400  -15.5723   21.8253 N   0  0  0  0  0  0  0  0  0  0  0  0
    7.3960  -15.9327   23.1292 C   0  0  1  0  0  0  0  0  0  0  0  0
    7.3928  -17.4340   23.3099 C   0  0  0  0  0  0  0  0  0  0  0  0
    6.7488  -17.8502   24.6091 C   0  0  0  0  0  0  0  0  0  0  0  0
    6.7310  -19.3362   24.6435 C   0  0  0  0  0  0  0  0  0  0  0  0
    7.7873  -20.0248   24.4451 O   0  0  0  0  0  0  0  0  0  0  0  0
    8.1056  -15.2382   24.2214 C   0  0  0  0  0  0  0  0  0  0  0  0
    9.3582  -15.1613   24.2814 O   0  0  0  0  0  0  0  0  0  0  0  0
    5.5775  -20.0718   24.8910 O   0  0  0  0  0  0  0  0  0  0  0  0
    7.2374  -11.6557   25.6382 C   0  0  0  0  0  0  0  0  0  0  0  0
    7.1267  -12.7220   26.6863 C   0  0  1  0  0  0  0  0  0  0  0  0
    5.8166  -13.1503   26.8007 O   0  0  0  0  0  0  0  0  0  0  0  0
    7.9764  -13.9371   26.3706 C   0  0  2  0  0  0  0  0  0  0  0  0
    7.3721  -14.6180   25.2675 N   0  0  0  0  0  0  0  0  0  0  0  0
    8.2207  -14.7786   27.5372 C   0  0  0  0  0  0  0  0  0  0  0  0
    8.9354  -14.2956   28.6162 O   0  0  0  0  0  0  0  0  0  0  0  0
    7.7826  -15.9499   27.5695 O   0  0  0  0  0  0  0  0  0  0  0  0
  1  2  1  0
  3  2  1  0
  4  3  1  0
  5  4  1  0
  5  1  1  0
  5  6  1  1
  7  6  2  0
  8  6  1  0
  9 14  1  0
  9  8  1  0
  9 10  1  1
 11 10  1  0
 12 11  1  0
 13 12  2  0
 14 15  2  0
 16 12  1  0
 18 17  1  6
 18 19  1  0
 18 20  1  0
 20 21  1  6
 21 14  1  0
 22 20  1  0
 22 23  1  0
 24 22  2  0
M  END
$$$$
