PET.pdb
     RDKit          3D

 24 24  0  0  1  0  0  0  0  0999 V2000
    9.0688  -14.3245   19.1214 N   0  0  0  0  0  0  0  0  0  0  0  0
    8.6108  -13.6668   17.8774 C   0  0  0  0  0  0  0  0  0  0  0  0
    7.1403  -13.4888   18.1680 C   0  0  0  0  0  0  0  0  0  0  0  0
    7.1311  -13.0860   19.6183 C   0  0  0  0  0  0  0  0  0  0  0  0
    8.5168  -13.4391   20.1249 C   0  0  1  0  0  0  0  0  0  0  0  0
    8.3887  -14.0860   21.4299 C   0  0  0  0  0  0  0  0  0  0  0  0
    7.6587  -13.5206   22.3061 O   0  0  0  0  0  0  0  0  0  0  0  0
    9.0215  -15.2978   21.7853 N   0  0  0  0  0  0  0  0  0  0  0  0
    8.7566  -15.9166   23.0788 C   0  0  1  0  0  0  0  0  0  0  0  0
    9.5129  -17.2192   23.2124 C   0  0  0  0  0  0  0  0  0  0  0  0
    9.3801  -18.0838   21.9833 C   0  0  0  0  0  0  0  0  0  0  0  0
   10.3041  -19.2368   22.1456 C   0  0  0  0  0  0  0  0  0  0  0  0
   11.3580  -19.3574   21.4355 O   0  0  0  0  0  0  0  0  0  0  0  0
    9.0397  -14.9875   24.1902 C   0  0  0  0  0  0  0  0  0  0  0  0
   10.0452  -14.2345   24.2115 O   0  0  0  0  0  0  0  0  0  0  0  0
   10.0889  -20.2524   23.0703 O   0  0  0  0  0  0  0  0  0  0  0  0
    6.9379  -12.2135   25.2913 C   0  0  0  0  0  0  0  0  0  0  0  0
    7.0661  -13.1444   26.4594 C   0  0  1  0  0  0  0  0  0  0  0  0
    5.9818  -14.0013   26.5133 O   0  0  0  0  0  0  0  0  0  0  0  0
    8.3170  -13.9979   26.3873 C   0  0  2  0  0  0  0  0  0  0  0  0
    8.1581  -14.9149   25.3012 N   0  0  0  0  0  0  0  0  0  0  0  0
    8.6513  -14.6253   27.6614 C   0  0  0  0  0  0  0  0  0  0  0  0
    8.9146  -13.8551   28.7776 O   0  0  0  0  0  0  0  0  0  0  0  0
    8.7024  -15.8719   27.7534 O   0  0  0  0  0  0  0  0  0  0  0  0
  1  2  1  0
  3  2  1  0
  4  3  1  0
  5  4  1  0
  5  1  1  0
  5  6  1  1
  7  6  2  0
  8  6  1  0
  9 14  1  0
  9  8  1  0
  9 10  1  1
 11 10  1  0
 12 11  1  0
 13 12  2  0
 14 15  2  0
 16 12  1  0
 18 17  1  6
 18 19  1  0
 18 20  1  0
 20 21  1  6
 21 14  1  0
 22 20  1  0
 22 23  1  0
 24 22  2  0
M  END
$$$$
