PET.pdb
     RDKit          3D

 24 24  0  0  1  0  0  0  0  0999 V2000
    9.2450  -14.3041   18.9972 N   0  0  0  0  0  0  0  0  0  0  0  0
    8.8343  -13.7211   17.7005 C   0  0  0  0  0  0  0  0  0  0  0  0
    7.3372  -13.9047   17.7613 C   0  0  0  0  0  0  0  0  0  0  0  0
    7.0166  -13.5754   19.1946 C   0  0  0  0  0  0  0  0  0  0  0  0
    8.3551  -13.6148   19.9075 C   0  0  1  0  0  0  0  0  0  0  0  0
    8.1916  -14.3270   21.1739 C   0  0  0  0  0  0  0  0  0  0  0  0
    7.3130  -13.8987   21.9893 O   0  0  0  0  0  0  0  0  0  0  0  0
    8.9441  -15.4601   21.5551 N   0  0  0  0  0  0  0  0  0  0  0  0
    8.7899  -16.0342   22.8866 C   0  0  1  0  0  0  0  0  0  0  0  0
    9.7455  -17.1894   23.0838 C   0  0  0  0  0  0  0  0  0  0  0  0
    9.5945  -17.8282   24.4421 C   0  0  0  0  0  0  0  0  0  0  0  0
   10.6181  -18.9009   24.5480 C   0  0  0  0  0  0  0  0  0  0  0  0
   11.7286  -18.7119   25.1485 O   0  0  0  0  0  0  0  0  0  0  0  0
    8.9279  -15.0067   23.9372 C   0  0  0  0  0  0  0  0  0  0  0  0
    9.8157  -14.1181   23.9109 O   0  0  0  0  0  0  0  0  0  0  0  0
   10.4409  -20.1696   24.0077 O   0  0  0  0  0  0  0  0  0  0  0  0
    6.7438  -12.2269   27.1879 C   0  0  0  0  0  0  0  0  0  0  0  0
    6.7575  -13.3351   26.1783 C   0  0  1  0  0  0  0  0  0  0  0  0
    6.4797  -12.8405   24.9169 O   0  0  0  0  0  0  0  0  0  0  0  0
    8.0986  -14.0382   26.1059 C   0  0  2  0  0  0  0  0  0  0  0  0
    8.0351  -14.9916   25.0416 N   0  0  0  0  0  0  0  0  0  0  0  0
    8.5193  -14.5936   27.3878 C   0  0  0  0  0  0  0  0  0  0  0  0
    8.7464  -13.7681   28.4719 O   0  0  0  0  0  0  0  0  0  0  0  0
    8.6783  -15.8278   27.5157 O   0  0  0  0  0  0  0  0  0  0  0  0
  1  2  1  0
  3  2  1  0
  4  3  1  0
  5  4  1  0
  5  1  1  0
  5  6  1  1
  7  6  2  0
  8  6  1  0
  9 14  1  0
  9  8  1  0
  9 10  1  1
 11 10  1  0
 12 11  1  0
 13 12  2  0
 14 15  2  0
 16 12  1  0
 18 17  1  1
 18 19  1  0
 18 20  1  0
 20 21  1  6
 21 14  1  0
 22 20  1  0
 22 23  1  0
 24 22  2  0
M  END
$$$$
