ADD.pdb
     RDKit          3D

 22 21  0  0  1  0  0  0  0  0999 V2000
    7.9804  -12.6447   20.2279 C   0  0  0  0  0  0  0  0  0  0  0  0
    8.2782  -13.3564   18.9173 C   0  0  2  0  0  0  0  0  0  0  0  0
    7.0844  -14.0193   18.4369 N   0  0  0  0  0  0  0  0  0  0  0  0
    9.3860  -14.3092   19.0840 C   0  0  0  0  0  0  0  0  0  0  0  0
    9.1345  -15.5308   19.2434 O   0  0  0  0  0  0  0  0  0  0  0  0
   10.7307  -13.8819   19.0690 N   0  0  0  0  0  0  0  0  0  0  0  0
   11.8237  -14.8584   19.1057 C   0  0  1  0  0  0  0  0  0  0  0  0
   12.9323  -14.3542   18.2545 C   0  0  0  0  0  0  0  0  0  0  0  0
   14.0691  -15.2697   18.1718 C   0  0  0  0  0  0  0  0  0  0  0  0
   14.0789  -16.4893   18.4373 O   0  0  0  0  0  0  0  0  0  0  0  0
   12.2362  -14.9807   20.5460 C   0  0  0  0  0  0  0  0  0  0  0  0
   12.6597  -14.0082   21.1934 O   0  0  0  0  0  0  0  0  0  0  0  0
   15.2936  -14.7217   17.7457 O   0  0  0  0  0  0  0  0  0  0  0  0
   12.1536  -16.2471   21.2341 N   0  0  0  0  0  0  0  0  0  0  0  0
   12.4671  -16.3391   22.6701 C   0  0  1  0  0  0  0  0  0  0  0  0
   11.4934  -17.2477   23.3443 C   0  0  0  0  0  0  0  0  0  0  0  0
   11.7192  -17.5076   24.7604 C   0  0  0  0  0  0  0  0  0  0  0  0
   11.0575  -16.7890   25.5778 O   0  0  0  0  0  0  0  0  0  0  0  0
   13.8298  -16.9055   22.7779 C   0  0  0  0  0  0  0  0  0  0  0  0
   14.2070  -17.7358   21.9039 O   0  0  0  0  0  0  0  0  0  0  0  0
   12.5611  -18.4336   25.3005 O   0  0  0  0  0  0  0  0  0  0  0  0
   14.7281  -16.5862   23.7777 O   0  0  0  0  0  0  0  0  0  0  0  0
  2  1  1  1
  2  4  1  0
  3  2  1  0
  4  6  1  0
  5  4  2  0
  6  7  1  0
  7  8  1  6
  7 11  1  0
  9  8  1  0
 10  9  2  0
 11 12  2  0
 11 14  1  0
 13  9  1  0
 14 15  1  0
 15 19  1  0
 15 16  1  1
 16 17  1  0
 17 18  2  0
 19 22  1  0
 20 19  2  0
 21 17  1  0
M  END
$$$$
