ADD.pdb
     RDKit          3D

 22 21  0  0  1  0  0  0  0  0999 V2000
   13.3614  -18.2814   17.4488 C   0  0  0  0  0  0  0  0  0  0  0  0
   13.3527  -18.0650   18.9541 C   0  0  2  0  0  0  0  0  0  0  0  0
   13.1236  -19.3247   19.6294 N   0  0  0  0  0  0  0  0  0  0  0  0
   12.3393  -17.0675   19.3294 C   0  0  0  0  0  0  0  0  0  0  0  0
   12.4828  -15.8717   18.9684 O   0  0  0  0  0  0  0  0  0  0  0  0
   11.2044  -17.4234   20.0886 N   0  0  0  0  0  0  0  0  0  0  0  0
   10.2598  -16.3983   20.5429 C   0  0  1  0  0  0  0  0  0  0  0  0
    8.8885  -16.9680   20.4920 C   0  0  0  0  0  0  0  0  0  0  0  0
    8.4671  -17.3590   19.1477 C   0  0  0  0  0  0  0  0  0  0  0  0
    8.9148  -16.9362   18.0620 O   0  0  0  0  0  0  0  0  0  0  0  0
   10.6642  -16.0395   21.9455 C   0  0  0  0  0  0  0  0  0  0  0  0
    9.8961  -15.4429   22.7189 O   0  0  0  0  0  0  0  0  0  0  0  0
    7.4419  -18.3194   19.0599 O   0  0  0  0  0  0  0  0  0  0  0  0
   11.9743  -16.3798   22.4475 N   0  0  0  0  0  0  0  0  0  0  0  0
   12.2856  -16.2384   23.8799 C   0  0  1  0  0  0  0  0  0  0  0  0
   11.4396  -17.1748   24.6773 C   0  0  0  0  0  0  0  0  0  0  0  0
   11.7266  -17.2564   26.1038 C   0  0  0  0  0  0  0  0  0  0  0  0
   12.0306  -16.1624   26.6810 O   0  0  0  0  0  0  0  0  0  0  0  0
   13.7119  -16.5942   24.0478 C   0  0  0  0  0  0  0  0  0  0  0  0
   14.2232  -16.5026   25.1993 O   0  0  0  0  0  0  0  0  0  0  0  0
   11.7056  -18.3752   26.8821 O   0  0  0  0  0  0  0  0  0  0  0  0
   14.5322  -17.0245   23.0229 O   0  0  0  0  0  0  0  0  0  0  0  0
  2  1  1  6
  2  4  1  0
  3  2  1  0
  4  6  1  0
  5  4  2  0
  6  7  1  0
  7  8  1  1
  7 11  1  0
  9  8  1  0
 10  9  2  0
 11 12  2  0
 11 14  1  0
 13  9  1  0
 14 15  1  0
 15 19  1  0
 15 16  1  1
 16 17  1  0
 17 18  2  0
 19 22  1  0
 20 19  2  0
 21 17  1  0
M  END
$$$$
