ADD.pdb
     RDKit          3D

 22 21  0  0  1  0  0  0  0  0999 V2000
    8.2774  -12.2272   20.2767 C   0  0  0  0  0  0  0  0  0  0  0  0
    8.3874  -12.9290   18.9320 C   0  0  2  0  0  0  0  0  0  0  0  0
    7.0801  -13.3827   18.5071 N   0  0  0  0  0  0  0  0  0  0  0  0
    9.3408  -14.0464   19.0061 C   0  0  0  0  0  0  0  0  0  0  0  0
    8.9104  -15.2218   19.1252 O   0  0  0  0  0  0  0  0  0  0  0  0
   10.7336  -13.8286   18.9463 N   0  0  0  0  0  0  0  0  0  0  0  0
   11.6677  -14.9574   18.9994 C   0  0  1  0  0  0  0  0  0  0  0  0
   12.7680  -14.7018   18.0339 C   0  0  0  0  0  0  0  0  0  0  0  0
   13.6913  -15.8260   17.8884 C   0  0  0  0  0  0  0  0  0  0  0  0
   13.5604  -16.9771   18.3530 O   0  0  0  0  0  0  0  0  0  0  0  0
   12.1706  -15.0268   20.4142 C   0  0  0  0  0  0  0  0  0  0  0  0
   12.8643  -14.1231   20.9104 O   0  0  0  0  0  0  0  0  0  0  0  0
   14.8614  -15.5916   17.1420 O   0  0  0  0  0  0  0  0  0  0  0  0
   11.8612  -16.1592   21.2544 N   0  0  0  0  0  0  0  0  0  0  0  0
   12.2975  -16.1876   22.6607 C   0  0  1  0  0  0  0  0  0  0  0  0
   11.1756  -16.6495   23.5303 C   0  0  0  0  0  0  0  0  0  0  0  0
   11.4261  -16.6577   24.9659 C   0  0  0  0  0  0  0  0  0  0  0  0
   12.5719  -16.2462   25.3404 O   0  0  0  0  0  0  0  0  0  0  0  0
   13.4180  -17.1503   22.7445 C   0  0  0  0  0  0  0  0  0  0  0  0
   13.2474  -18.3135   22.2825 O   0  0  0  0  0  0  0  0  0  0  0  0
   10.5681  -17.0590   25.9461 O   0  0  0  0  0  0  0  0  0  0  0  0
   14.6506  -16.8631   23.2982 O   0  0  0  0  0  0  0  0  0  0  0  0
  2  1  1  1
  2  4  1  0
  3  2  1  0
  4  6  1  0
  5  4  2  0
  6  7  1  0
  7  8  1  6
  7 11  1  0
  9  8  1  0
 10  9  2  0
 11 12  2  0
 11 14  1  0
 13  9  1  0
 14 15  1  0
 15 19  1  0
 15 16  1  1
 16 17  1  0
 17 18  2  0
 19 22  1  0
 20 19  2  0
 21 17  1  0
M  END
$$$$
