ADD.pdb
     RDKit          3D

 22 21  0  0  1  0  0  0  0  0999 V2000
    7.3186  -12.5485   19.3619 C   0  0  0  0  0  0  0  0  0  0  0  0
    8.4679  -13.1112   18.5400 C   0  0  2  0  0  0  0  0  0  0  0  0
    8.0394  -13.3145   17.1723 N   0  0  0  0  0  0  0  0  0  0  0  0
    8.9670  -14.3611   19.1330 C   0  0  0  0  0  0  0  0  0  0  0  0
    9.2879  -14.3858   20.3485 O   0  0  0  0  0  0  0  0  0  0  0  0
    9.0946  -15.5383   18.3657 N   0  0  0  0  0  0  0  0  0  0  0  0
    9.6012  -16.7729   18.9730 C   0  0  1  0  0  0  0  0  0  0  0  0
    9.0069  -17.9285   18.2526 C   0  0  0  0  0  0  0  0  0  0  0  0
    7.6122  -18.1850   18.6082 C   0  0  0  0  0  0  0  0  0  0  0  0
    7.1532  -18.4249   19.7440 O   0  0  0  0  0  0  0  0  0  0  0  0
   11.0970  -16.7343   18.8297 C   0  0  0  0  0  0  0  0  0  0  0  0
   11.6561  -16.8812   17.7297 O   0  0  0  0  0  0  0  0  0  0  0  0
    6.6760  -18.1603   17.5574 O   0  0  0  0  0  0  0  0  0  0  0  0
   11.9449  -16.5230   19.9788 N   0  0  0  0  0  0  0  0  0  0  0  0
   13.4100  -16.4982   19.8320 C   0  0  1  0  0  0  0  0  0  0  0  0
   13.8982  -15.0878   19.8577 C   0  0  0  0  0  0  0  0  0  0  0  0
   15.3399  -14.8966   19.7639 C   0  0  0  0  0  0  0  0  0  0  0  0
   15.9512  -15.6253   18.9168 O   0  0  0  0  0  0  0  0  0  0  0  0
   13.9709  -17.2377   20.9843 C   0  0  0  0  0  0  0  0  0  0  0  0
   13.2221  -17.4636   21.9762 O   0  0  0  0  0  0  0  0  0  0  0  0
   16.1005  -14.0249   20.4849 O   0  0  0  0  0  0  0  0  0  0  0  0
   15.2696  -17.7038   21.0520 O   0  0  0  0  0  0  0  0  0  0  0  0
  2  1  1  1
  2  4  1  0
  3  2  1  0
  4  6  1  0
  5  4  2  0
  6  7  1  0
  7  8  1  6
  7 11  1  0
  9  8  1  0
 10  9  2  0
 11 12  2  0
 11 14  1  0
 13  9  1  0
 14 15  1  0
 15 19  1  0
 15 16  1  1
 16 17  1  0
 17 18  2  0
 19 22  1  0
 20 19  2  0
 21 17  1  0
M  END
$$$$
