ADD.pdb
     RDKit          3D

 22 21  0  0  1  0  0  0  0  0999 V2000
    7.6973  -12.3415   19.3860 C   0  0  0  0  0  0  0  0  0  0  0  0
    8.5584  -13.2771   18.5515 C   0  0  2  0  0  0  0  0  0  0  0  0
    7.7303  -13.9898   17.6020 N   0  0  0  0  0  0  0  0  0  0  0  0
    9.3005  -14.2081   19.4150 C   0  0  0  0  0  0  0  0  0  0  0  0
   10.0001  -13.7563   20.3570 O   0  0  0  0  0  0  0  0  0  0  0  0
    9.2449  -15.6029   19.2096 N   0  0  0  0  0  0  0  0  0  0  0  0
   10.0031  -16.5144   20.0722 C   0  0  1  0  0  0  0  0  0  0  0  0
    9.4087  -17.8714   19.9584 C   0  0  0  0  0  0  0  0  0  0  0  0
    8.0711  -17.9747   20.5394 C   0  0  0  0  0  0  0  0  0  0  0  0
    6.9897  -18.1050   19.9297 O   0  0  0  0  0  0  0  0  0  0  0  0
   11.4230  -16.4831   19.5797 C   0  0  0  0  0  0  0  0  0  0  0  0
   11.7054  -16.6276   18.3783 O   0  0  0  0  0  0  0  0  0  0  0  0
    7.9850  -17.9222   21.9434 O   0  0  0  0  0  0  0  0  0  0  0  0
   12.5196  -16.2818   20.4967 N   0  0  0  0  0  0  0  0  0  0  0  0
   13.8781  -16.0215   19.9913 C   0  0  1  0  0  0  0  0  0  0  0  0
   13.8961  -14.7431   19.2210 C   0  0  0  0  0  0  0  0  0  0  0  0
   15.1904  -14.3091   18.7108 C   0  0  0  0  0  0  0  0  0  0  0  0
   16.0592  -15.2224   18.5280 O   0  0  0  0  0  0  0  0  0  0  0  0
   14.7612  -15.9007   21.1724 C   0  0  0  0  0  0  0  0  0  0  0  0
   14.2289  -15.7780   22.3114 O   0  0  0  0  0  0  0  0  0  0  0  0
   15.5685  -13.0342   18.4110 O   0  0  0  0  0  0  0  0  0  0  0  0
   16.1415  -15.9133   21.1163 O   0  0  0  0  0  0  0  0  0  0  0  0
  2  1  1  1
  2  4  1  0
  3  2  1  0
  4  6  1  0
  5  4  2  0
  6  7  1  0
  7  8  1  6
  7 11  1  0
  9  8  1  0
 10  9  2  0
 11 12  2  0
 11 14  1  0
 13  9  1  0
 14 15  1  0
 15 19  1  0
 15 16  1  1
 16 17  1  0
 17 18  2  0
 19 22  1  0
 20 19  2  0
 21 17  1  0
M  END
$$$$
