ADD.pdb
     RDKit          3D

 22 21  0  0  1  0  0  0  0  0999 V2000
    7.8391  -12.4920   19.6554 C   0  0  0  0  0  0  0  0  0  0  0  0
    8.0068  -13.3889   18.4387 C   0  0  2  0  0  0  0  0  0  0  0  0
    6.7280  -13.5752   17.7866 N   0  0  0  0  0  0  0  0  0  0  0  0
    8.6018  -14.6781   18.8221 C   0  0  0  0  0  0  0  0  0  0  0  0
    7.8588  -15.6783   18.9906 O   0  0  0  0  0  0  0  0  0  0  0  0
    9.9937  -14.8187   19.0060 N   0  0  0  0  0  0  0  0  0  0  0  0
   10.5733  -16.1225   19.3432 C   0  0  1  0  0  0  0  0  0  0  0  0
   11.5849  -16.4676   18.3111 C   0  0  0  0  0  0  0  0  0  0  0  0
   12.2468  -17.7498   18.5465 C   0  0  0  0  0  0  0  0  0  0  0  0
   13.4571  -18.0152   18.3951 O   0  0  0  0  0  0  0  0  0  0  0  0
   11.1925  -15.9730   20.7048 C   0  0  0  0  0  0  0  0  0  0  0  0
   11.9444  -15.0241   20.9844 O   0  0  0  0  0  0  0  0  0  0  0  0
   11.4347  -18.8086   18.9943 O   0  0  0  0  0  0  0  0  0  0  0  0
   10.9316  -16.9384   21.7459 N   0  0  0  0  0  0  0  0  0  0  0  0
   11.5588  -16.7964   23.0708 C   0  0  1  0  0  0  0  0  0  0  0  0
   10.6994  -17.4368   24.1098 C   0  0  0  0  0  0  0  0  0  0  0  0
   11.1599  -17.3341   25.4886 C   0  0  0  0  0  0  0  0  0  0  0  0
   12.0878  -16.4906   25.7116 O   0  0  0  0  0  0  0  0  0  0  0  0
   12.8622  -17.4939   23.0072 C   0  0  0  0  0  0  0  0  0  0  0  0
   12.9137  -18.6221   22.4414 O   0  0  0  0  0  0  0  0  0  0  0  0
   10.7054  -18.0434   26.5603 O   0  0  0  0  0  0  0  0  0  0  0  0
   14.0392  -16.9923   23.5283 O   0  0  0  0  0  0  0  0  0  0  0  0
  2  1  1  1
  2  4  1  0
  3  2  1  0
  4  6  1  0
  5  4  2  0
  6  7  1  0
  7  8  1  6
  7 11  1  0
  9  8  1  0
 10  9  2  0
 11 12  2  0
 11 14  1  0
 13  9  1  0
 14 15  1  0
 15 19  1  0
 15 16  1  1
 16 17  1  0
 17 18  2  0
 19 22  1  0
 20 19  2  0
 21 17  1  0
M  END
$$$$
