ADD.pdb
     RDKit          3D

 22 21  0  0  1  0  0  0  0  0999 V2000
    7.9346  -12.8650   20.0721 C   0  0  0  0  0  0  0  0  0  0  0  0
    8.5613  -13.3358   18.7688 C   0  0  2  0  0  0  0  0  0  0  0  0
    7.5310  -13.8255   17.8778 N   0  0  0  0  0  0  0  0  0  0  0  0
    9.5783  -14.3670   19.0246 C   0  0  0  0  0  0  0  0  0  0  0  0
    9.2636  -15.5817   18.9444 O   0  0  0  0  0  0  0  0  0  0  0  0
   10.9051  -14.0228   19.3595 N   0  0  0  0  0  0  0  0  0  0  0  0
   11.9023  -15.0652   19.6216 C   0  0  1  0  0  0  0  0  0  0  0  0
   13.2543  -14.4822   19.4215 C   0  0  0  0  0  0  0  0  0  0  0  0
   13.8752  -14.8661   18.1548 C   0  0  0  0  0  0  0  0  0  0  0  0
   13.5131  -15.7752   17.3800 O   0  0  0  0  0  0  0  0  0  0  0  0
   11.6897  -15.5093   21.0418 C   0  0  0  0  0  0  0  0  0  0  0  0
   11.5318  -14.6963   21.9682 O   0  0  0  0  0  0  0  0  0  0  0  0
   15.0092  -14.1329   17.7578 O   0  0  0  0  0  0  0  0  0  0  0  0
   11.6619  -16.9120   21.3818 N   0  0  0  0  0  0  0  0  0  0  0  0
   11.3708  -17.3412   22.7602 C   0  0  1  0  0  0  0  0  0  0  0  0
   10.7017  -18.6755   22.7450 C   0  0  0  0  0  0  0  0  0  0  0  0
    9.4353  -18.7600   22.0289 C   0  0  0  0  0  0  0  0  0  0  0  0
    8.4541  -18.1310   22.5427 O   0  0  0  0  0  0  0  0  0  0  0  0
   12.6693  -17.4461   23.4618 C   0  0  0  0  0  0  0  0  0  0  0  0
   12.6676  -17.7483   24.6883 O   0  0  0  0  0  0  0  0  0  0  0  0
    9.1903  -19.4395   20.8728 O   0  0  0  0  0  0  0  0  0  0  0  0
   13.8963  -17.2348   22.8632 O   0  0  0  0  0  0  0  0  0  0  0  0
  2  1  1  1
  2  4  1  0
  3  2  1  0
  4  6  1  0
  5  4  2  0
  6  7  1  0
  7  8  1  1
  7 11  1  0
  9  8  1  0
 10  9  2  0
 11 12  2  0
 11 14  1  0
 13  9  1  0
 14 15  1  0
 15 19  1  0
 15 16  1  6
 16 17  1  0
 17 18  2  0
 19 22  1  0
 20 19  2  0
 21 17  1  0
M  END
$$$$
