PWA.pdb
     RDKit          3D

 27 29  0  0  1  0  0  0  0  0999 V2000
    7.5769  -15.1253   20.1547 N   0  0  0  0  0  0  0  0  0  0  0  0
    7.2366  -14.4837   18.8730 C   0  0  0  0  0  0  0  0  0  0  0  0
    7.5791  -13.0122   19.1459 C   0  0  0  0  0  0  0  0  0  0  0  0
    8.5741  -13.0550   20.2844 C   0  0  0  0  0  0  0  0  0  0  0  0
    8.9107  -14.5337   20.3358 C   0  0  1  0  0  0  0  0  0  0  0  0
    9.5046  -14.9275   21.6191 C   0  0  0  0  0  0  0  0  0  0  0  0
   10.6910  -14.6769   21.8940 O   0  0  0  0  0  0  0  0  0  0  0  0
    8.7347  -15.6119   22.5880 N   0  0  0  0  0  0  0  0  0  0  0  0
    9.1199  -15.9087   23.9145 C   0  0  1  0  0  0  0  0  0  0  0  0
    8.0413  -16.1947   24.8974 C   0  0  0  0  0  0  0  0  0  0  0  0
    7.4268  -14.9110   25.3984 C   0  0  0  0  0  0  0  0  0  0  0  0
    6.2356  -14.3214   25.0444 C   0  0  0  0  0  0  0  0  0  0  0  0
    6.1223  -13.1832   25.7499 N   0  0  0  0  0  0  0  0  0  0  0  0
    7.1858  -13.0000   26.5516 C   0  0  0  0  0  0  0  0  0  0  0  0
    7.5869  -12.0417   27.4617 C   0  0  0  0  0  0  0  0  0  0  0  0
    8.7943  -12.1680   28.1439 C   0  0  0  0  0  0  0  0  0  0  0  0
    9.6247  -13.2495   27.9332 C   0  0  0  0  0  0  0  0  0  0  0  0
    9.2143  -14.1980   27.0235 C   0  0  0  0  0  0  0  0  0  0  0  0
    7.9967  -14.0701   26.3353 C   0  0  0  0  0  0  0  0  0  0  0  0
   10.1035  -17.0068   23.9290 C   0  0  0  0  0  0  0  0  0  0  0  0
    9.7785  -18.1020   23.3674 O   0  0  0  0  0  0  0  0  0  0  0  0
   13.7618  -17.4986   24.5764 C   0  0  0  0  0  0  0  0  0  0  0  0
   12.3352  -18.0300   24.5484 C   0  0  2  0  0  0  0  0  0  0  0  0
   11.3848  -16.9303   24.5208 N   0  0  0  0  0  0  0  0  0  0  0  0
   12.1253  -18.8945   25.7155 C   0  0  0  0  0  0  0  0  0  0  0  0
   11.1681  -18.6225   26.6644 O   0  0  0  0  0  0  0  0  0  0  0  0
   12.8449  -19.9075   25.8404 O   0  0  0  0  0  0  0  0  0  0  0  0
  2  1  1  0
  3  2  1  0
  4  5  1  0
  4  3  1  0
  5  1  1  0
  5  6  1  1
  6  7  2  0
  8  6  1  0
  9  8  1  0
 10 11  1  0
  9 10  1  1
 11 19  1  0
 12 11  2  0
 12 13  1  0
 13 14  1  0
 14 15  1  0
 15 16  2  0
 17 16  1  0
 18 17  2  0
 19 14  2  0
 19 18  1  0
 20  9  1  0
 21 20  2  0
 23 22  1  1
 23 24  1  0
 23 25  1  0
 24 20  1  0
 25 26  1  0
 27 25  2  0
M  END
$$$$
