PWA.pdb
     RDKit          3D

 27 29  0  0  1  0  0  0  0  0999 V2000
    7.2647  -16.1046   21.4043 N   0  0  0  0  0  0  0  0  0  0  0  0
    6.5726  -15.8798   20.1234 C   0  0  0  0  0  0  0  0  0  0  0  0
    6.7201  -14.3630   19.9370 C   0  0  0  0  0  0  0  0  0  0  0  0
    7.9183  -13.9878   20.7804 C   0  0  0  0  0  0  0  0  0  0  0  0
    8.4936  -15.3523   21.1116 C   0  0  1  0  0  0  0  0  0  0  0  0
    9.3907  -15.3138   22.2728 C   0  0  0  0  0  0  0  0  0  0  0  0
   10.4316  -14.6338   22.2717 O   0  0  0  0  0  0  0  0  0  0  0  0
    9.0924  -16.0590   23.4371 N   0  0  0  0  0  0  0  0  0  0  0  0
    9.7982  -16.0293   24.6606 C   0  0  1  0  0  0  0  0  0  0  0  0
    9.0130  -16.1917   25.9130 C   0  0  0  0  0  0  0  0  0  0  0  0
    7.7339  -15.3945   25.8437 C   0  0  0  0  0  0  0  0  0  0  0  0
    6.4707  -15.8070   25.4888 C   0  0  0  0  0  0  0  0  0  0  0  0
    5.6594  -14.7386   25.5671 N   0  0  0  0  0  0  0  0  0  0  0  0
    6.3339  -13.6434   25.9583 C   0  0  0  0  0  0  0  0  0  0  0  0
    6.0202  -12.3199   26.1982 C   0  0  0  0  0  0  0  0  0  0  0  0
    6.9994  -11.4185   26.6080 C   0  0  0  0  0  0  0  0  0  0  0  0
    8.3082  -11.8171   26.7864 C   0  0  0  0  0  0  0  0  0  0  0  0
    8.6087  -13.1387   26.5440 C   0  0  0  0  0  0  0  0  0  0  0  0
    7.6209  -14.0474   26.1303 C   0  0  0  0  0  0  0  0  0  0  0  0
   10.9009  -17.0076   24.6401 C   0  0  0  0  0  0  0  0  0  0  0  0
   10.5980  -18.2416   24.5636 O   0  0  0  0  0  0  0  0  0  0  0  0
   14.6261  -16.9415   24.0910 C   0  0  0  0  0  0  0  0  0  0  0  0
   13.3519  -17.6367   24.5508 C   0  0  2  0  0  0  0  0  0  0  0  0
   12.2730  -16.6733   24.6972 N   0  0  0  0  0  0  0  0  0  0  0  0
   13.6204  -18.3405   25.8103 C   0  0  0  0  0  0  0  0  0  0  0  0
   12.9338  -18.0569   26.9673 O   0  0  0  0  0  0  0  0  0  0  0  0
   14.5031  -19.2239   25.8195 O   0  0  0  0  0  0  0  0  0  0  0  0
  2  1  1  0
  3  2  1  0
  4  5  1  0
  4  3  1  0
  5  1  1  0
  5  6  1  1
  6  7  2  0
  8  6  1  0
  9  8  1  0
 10 11  1  0
  9 10  1  1
 11 19  1  0
 12 11  2  0
 12 13  1  0
 13 14  1  0
 14 15  1  0
 15 16  2  0
 17 16  1  0
 18 17  2  0
 19 14  2  0
 19 18  1  0
 20  9  1  0
 21 20  2  0
 23 22  1  1
 23 24  1  0
 23 25  1  0
 24 20  1  0
 25 26  1  0
 27 25  2  0
M  END
$$$$
