PWA.pdb
     RDKit          3D

 27 29  0  0  1  0  0  0  0  0999 V2000
    7.3161  -15.3435   20.7804 N   0  0  0  0  0  0  0  0  0  0  0  0
    6.7854  -14.8536   19.4964 C   0  0  0  0  0  0  0  0  0  0  0  0
    7.0052  -13.3384   19.6116 C   0  0  0  0  0  0  0  0  0  0  0  0
    8.1095  -13.1879   20.6341 C   0  0  0  0  0  0  0  0  0  0  0  0
    8.5956  -14.6193   20.7666 C   0  0  1  0  0  0  0  0  0  0  0  0
    9.3527  -14.8403   22.0046 C   0  0  0  0  0  0  0  0  0  0  0  0
   10.3799  -14.1908   22.2666 O   0  0  0  0  0  0  0  0  0  0  0  0
    8.9298  -15.8103   22.9427 N   0  0  0  0  0  0  0  0  0  0  0  0
    9.4877  -16.0480   24.2187 C   0  0  1  0  0  0  0  0  0  0  0  0
    8.5600  -16.4322   25.3155 C   0  0  0  0  0  0  0  0  0  0  0  0
    7.4445  -15.4244   25.4434 C   0  0  0  0  0  0  0  0  0  0  0  0
    6.1193  -15.5458   25.0956 C   0  0  0  0  0  0  0  0  0  0  0  0
    5.5162  -14.3808   25.3872 N   0  0  0  0  0  0  0  0  0  0  0  0
    6.3865  -13.5005   25.9115 C   0  0  0  0  0  0  0  0  0  0  0  0
    6.3227  -12.2015   26.3763 C   0  0  0  0  0  0  0  0  0  0  0  0
    7.4582  -11.5654   26.8717 C   0  0  0  0  0  0  0  0  0  0  0  0
    8.6775  -12.2096   26.9135 C   0  0  0  0  0  0  0  0  0  0  0  0
    8.7287  -13.5041   26.4471 C   0  0  0  0  0  0  0  0  0  0  0  0
    7.5834  -14.1452   25.9472 C   0  0  0  0  0  0  0  0  0  0  0  0
   10.5770  -17.0371   24.1257 C   0  0  0  0  0  0  0  0  0  0  0  0
   10.2862  -18.2019   23.7022 O   0  0  0  0  0  0  0  0  0  0  0  0
   14.3467  -17.1002   24.3897 C   0  0  0  0  0  0  0  0  0  0  0  0
   12.9830  -17.7774   24.3977 C   0  0  2  0  0  0  0  0  0  0  0  0
   11.9239  -16.7843   24.4713 N   0  0  0  0  0  0  0  0  0  0  0  0
   12.9224  -18.7145   25.5255 C   0  0  0  0  0  0  0  0  0  0  0  0
   12.0146  -18.5704   26.5480 O   0  0  0  0  0  0  0  0  0  0  0  0
   13.7261  -19.6701   25.5464 O   0  0  0  0  0  0  0  0  0  0  0  0
  2  1  1  0
  3  2  1  0
  4  5  1  0
  4  3  1  0
  5  1  1  0
  5  6  1  1
  6  7  2  0
  8  6  1  0
  9  8  1  0
 10 11  1  0
  9 10  1  1
 11 19  1  0
 12 11  2  0
 12 13  1  0
 13 14  1  0
 14 15  1  0
 15 16  2  0
 17 16  1  0
 18 17  2  0
 19 14  2  0
 19 18  1  0
 20  9  1  0
 21 20  2  0
 23 22  1  1
 23 24  1  0
 23 25  1  0
 24 20  1  0
 25 26  1  0
 27 25  2  0
M  END
$$$$
