PWA.pdb
     RDKit          3D

 27 29  0  0  1  0  0  0  0  0999 V2000
    7.2654  -15.9407   21.2546 N   0  0  0  0  0  0  0  0  0  0  0  0
    6.5854  -15.5913   19.9954 C   0  0  0  0  0  0  0  0  0  0  0  0
    6.6740  -14.0585   19.9935 C   0  0  0  0  0  0  0  0  0  0  0  0
    7.8422  -13.7409   20.9002 C   0  0  0  0  0  0  0  0  0  0  0  0
    8.4671  -15.1120   21.0790 C   0  0  1  0  0  0  0  0  0  0  0  0
    9.3432  -15.1782   22.2550 C   0  0  0  0  0  0  0  0  0  0  0  0
   10.3714  -14.4848   22.3431 O   0  0  0  0  0  0  0  0  0  0  0  0
    9.0383  -16.0435   23.3311 N   0  0  0  0  0  0  0  0  0  0  0  0
    9.7431  -16.1523   24.5508 C   0  0  1  0  0  0  0  0  0  0  0  0
    8.9488  -16.3767   25.7877 C   0  0  0  0  0  0  0  0  0  0  0  0
    7.7279  -15.4904   25.8017 C   0  0  0  0  0  0  0  0  0  0  0  0
    6.4289  -15.7949   25.4675 C   0  0  0  0  0  0  0  0  0  0  0  0
    5.6978  -14.6787   25.6275 N   0  0  0  0  0  0  0  0  0  0  0  0
    6.4592  -13.6554   26.0523 C   0  0  0  0  0  0  0  0  0  0  0  0
    6.2471  -12.3282   26.3703 C   0  0  0  0  0  0  0  0  0  0  0  0
    7.2991  -11.5200   26.7938 C   0  0  0  0  0  0  0  0  0  0  0  0
    8.5810  -12.0171   26.9083 C   0  0  0  0  0  0  0  0  0  0  0  0
    8.7801  -13.3414   26.5883 C   0  0  0  0  0  0  0  0  0  0  0  0
    7.7189  -14.1560   26.1609 C   0  0  0  0  0  0  0  0  0  0  0  0
   10.7930  -17.1818   24.4459 C   0  0  0  0  0  0  0  0  0  0  0  0
   10.4317  -18.4022   24.4680 O   0  0  0  0  0  0  0  0  0  0  0  0
   14.4694  -17.3744   23.6164 C   0  0  0  0  0  0  0  0  0  0  0  0
   13.2012  -17.9375   24.2432 C   0  0  2  0  0  0  0  0  0  0  0  0
   12.1745  -16.9110   24.3201 N   0  0  0  0  0  0  0  0  0  0  0  0
   13.5235  -18.4776   25.5691 C   0  0  0  0  0  0  0  0  0  0  0  0
   14.4388  -19.4885   25.7442 O   0  0  0  0  0  0  0  0  0  0  0  0
   12.9418  -17.9954   26.5633 O   0  0  0  0  0  0  0  0  0  0  0  0
  2  1  1  0
  3  2  1  0
  4  5  1  0
  4  3  1  0
  5  1  1  0
  5  6  1  1
  6  7  2  0
  8  6  1  0
  9  8  1  0
 10 11  1  0
  9 10  1  1
 11 19  1  0
 12 11  2  0
 12 13  1  0
 13 14  1  0
 14 15  1  0
 15 16  2  0
 17 16  1  0
 18 17  2  0
 19 14  2  0
 19 18  1  0
 20  9  1  0
 21 20  2  0
 23 22  1  1
 23 24  1  0
 23 25  1  0
 24 20  1  0
 25 26  1  0
 27 25  2  0
M  END
$$$$
