PWA.pdb
     RDKit          3D

 27 29  0  0  1  0  0  0  0  0999 V2000
    7.5724  -15.7242   20.8832 N   0  0  0  0  0  0  0  0  0  0  0  0
    7.1581  -15.2106   19.5661 C   0  0  0  0  0  0  0  0  0  0  0  0
    7.2189  -13.6909   19.7769 C   0  0  0  0  0  0  0  0  0  0  0  0
    8.1717  -13.5026   20.9364 C   0  0  0  0  0  0  0  0  0  0  0  0
    8.7703  -14.8910   21.0640 C   0  0  1  0  0  0  0  0  0  0  0  0
    9.3887  -15.1149   22.3763 C   0  0  0  0  0  0  0  0  0  0  0  0
   10.3431  -14.4248   22.7747 O   0  0  0  0  0  0  0  0  0  0  0  0
    8.9108  -16.1342   23.2320 N   0  0  0  0  0  0  0  0  0  0  0  0
    9.3279  -16.3856   24.5583 C   0  0  1  0  0  0  0  0  0  0  0  0
    8.2724  -16.5587   25.5913 C   0  0  0  0  0  0  0  0  0  0  0  0
    7.3127  -15.3947   25.5687 C   0  0  0  0  0  0  0  0  0  0  0  0
    6.0341  -15.3320   25.0657 C   0  0  0  0  0  0  0  0  0  0  0  0
    5.5819  -14.0823   25.2648 N   0  0  0  0  0  0  0  0  0  0  0  0
    6.5068  -13.3222   25.8767 C   0  0  0  0  0  0  0  0  0  0  0  0
    6.5839  -12.0133   26.3107 C   0  0  0  0  0  0  0  0  0  0  0  0
    7.7359  -11.5345   26.9295 C   0  0  0  0  0  0  0  0  0  0  0  0
    8.8320  -12.3487   27.1275 C   0  0  0  0  0  0  0  0  0  0  0  0
    8.7433  -13.6513   26.6904 C   0  0  0  0  0  0  0  0  0  0  0  0
    7.5814  -14.1337   26.0661 C   0  0  0  0  0  0  0  0  0  0  0  0
   10.2483  -17.5366   24.5966 C   0  0  0  0  0  0  0  0  0  0  0  0
    9.8115  -18.6595   24.1859 O   0  0  0  0  0  0  0  0  0  0  0  0
   13.9281  -18.1762   25.0797 C   0  0  0  0  0  0  0  0  0  0  0  0
   12.4751  -18.6305   25.1029 C   0  0  2  0  0  0  0  0  0  0  0  0
   11.5841  -17.4827   25.0554 N   0  0  0  0  0  0  0  0  0  0  0  0
   12.2474  -19.4399   26.3056 C   0  0  0  0  0  0  0  0  0  0  0  0
   12.9499  -20.5957   26.5531 O   0  0  0  0  0  0  0  0  0  0  0  0
   11.3855  -19.0567   27.1241 O   0  0  0  0  0  0  0  0  0  0  0  0
  2  1  1  0
  3  2  1  0
  4  5  1  0
  4  3  1  0
  5  1  1  0
  5  6  1  1
  6  7  2  0
  8  6  1  0
  9  8  1  0
 10 11  1  0
  9 10  1  1
 11 19  1  0
 12 11  2  0
 12 13  1  0
 13 14  1  0
 14 15  1  0
 15 16  2  0
 17 16  1  0
 18 17  2  0
 19 14  2  0
 19 18  1  0
 20  9  1  0
 21 20  2  0
 23 22  1  1
 23 24  1  0
 23 25  1  0
 24 20  1  0
 25 26  1  0
 27 25  2  0
M  END
$$$$
