PWA.pdb
     RDKit          3D

 27 29  0  0  1  0  0  0  0  0999 V2000
    8.1437  -15.7685   20.7648 N   0  0  0  0  0  0  0  0  0  0  0  0
    7.9781  -15.5346   19.3199 C   0  0  0  0  0  0  0  0  0  0  0  0
    7.9646  -14.0015   19.2390 C   0  0  0  0  0  0  0  0  0  0  0  0
    8.6735  -13.5451   20.4948 C   0  0  0  0  0  0  0  0  0  0  0  0
    9.2665  -14.8482   20.9973 C   0  0  1  0  0  0  0  0  0  0  0  0
    9.6269  -14.7870   22.4190 C   0  0  0  0  0  0  0  0  0  0  0  0
   10.4683  -13.9768   22.8450 O   0  0  0  0  0  0  0  0  0  0  0  0
    9.0207  -15.6590   23.3527 N   0  0  0  0  0  0  0  0  0  0  0  0
    8.9097  -15.4559   24.7465 C   0  0  1  0  0  0  0  0  0  0  0  0
    7.7179  -16.0221   25.4323 C   0  0  0  0  0  0  0  0  0  0  0  0
    6.6037  -15.0060   25.4840 C   0  0  0  0  0  0  0  0  0  0  0  0
    5.2778  -15.1521   25.1488 C   0  0  0  0  0  0  0  0  0  0  0  0
    4.6766  -13.9673   25.3506 N   0  0  0  0  0  0  0  0  0  0  0  0
    5.5489  -13.0503   25.8039 C   0  0  0  0  0  0  0  0  0  0  0  0
    5.4875  -11.7192   26.1672 C   0  0  0  0  0  0  0  0  0  0  0  0
    6.6246  -11.0482   26.6100 C   0  0  0  0  0  0  0  0  0  0  0  0
    7.8432  -11.6889   26.6993 C   0  0  0  0  0  0  0  0  0  0  0  0
    7.8920  -13.0156   26.3342 C   0  0  0  0  0  0  0  0  0  0  0  0
    6.7451  -13.6918   25.8873 C   0  0  0  0  0  0  0  0  0  0  0  0
   10.1340  -15.9114   25.4299 C   0  0  0  0  0  0  0  0  0  0  0  0
   10.8581  -16.7745   24.8374 O   0  0  0  0  0  0  0  0  0  0  0  0
   11.9239  -15.2598   28.7189 C   0  0  0  0  0  0  0  0  0  0  0  0
   11.6454  -16.0630   27.4557 C   0  0  2  0  0  0  0  0  0  0  0  0
   10.5637  -15.4563   26.6972 N   0  0  0  0  0  0  0  0  0  0  0  0
   11.3310  -17.4467   27.8299 C   0  0  0  0  0  0  0  0  0  0  0  0
   12.2754  -18.2935   28.3605 O   0  0  0  0  0  0  0  0  0  0  0  0
   10.1644  -17.8575   27.6567 O   0  0  0  0  0  0  0  0  0  0  0  0
  2  1  1  0
  3  2  1  0
  4  5  1  0
  4  3  1  0
  5  1  1  0
  5  6  1  1
  6  7  2  0
  8  6  1  0
  9  8  1  0
 10 11  1  0
  9 10  1  1
 11 19  1  0
 12 11  2  0
 12 13  1  0
 13 14  1  0
 14 15  1  0
 15 16  2  0
 17 16  1  0
 18 17  2  0
 19 14  2  0
 19 18  1  0
 20  9  1  0
 21 20  2  0
 23 22  1  1
 23 24  1  0
 23 25  1  0
 24 20  1  0
 25 26  1  0
 27 25  2  0
M  END
$$$$
