NGM.pdb
     RDKit          3D

 21 20  0  0  1  0  0  0  0  0999 V2000
    8.8883  -12.8996   15.8334 N   0  0  0  0  0  0  0  0  0  0  0  0
    7.9435  -13.9624   15.8047 C   0  0  0  0  0  0  0  0  0  0  0  0
    7.5349  -14.3306   14.6750 O   0  0  0  0  0  0  0  0  0  0  0  0
    7.5144  -14.5504   17.0785 C   0  0  0  0  0  0  0  0  0  0  0  0
    8.6201  -14.6490   18.0919 C   0  0  2  0  0  0  0  0  0  0  0  0
    9.6415  -15.5288   17.5637 N   0  0  0  0  0  0  0  0  0  0  0  0
    8.1878  -15.1486   19.3953 C   0  0  0  0  0  0  0  0  0  0  0  0
    7.3968  -14.4577   20.1029 O   0  0  0  0  0  0  0  0  0  0  0  0
    8.6070  -16.3980   19.9422 N   0  0  0  0  0  0  0  0  0  0  0  0
    8.1028  -16.8106   21.2197 C   0  0  0  0  0  0  0  0  0  0  0  0
    8.4766  -15.9710   22.3586 C   0  0  0  0  0  0  0  0  0  0  0  0
    9.7002  -15.6221   22.3921 O   0  0  0  0  0  0  0  0  0  0  0  0
    6.0456  -11.2054   28.2434 C   0  0  0  0  0  0  0  0  0  0  0  0
    5.7642  -12.2803   26.8140 S   0  0  0  0  0  0  0  0  0  0  0  0
    7.3167  -13.1028   26.2847 C   0  0  0  0  0  0  0  0  0  0  0  0
    6.9927  -13.9193   25.0805 C   0  0  0  0  0  0  0  0  0  0  0  0
    8.1145  -14.6920   24.4905 C   0  0  2  0  0  0  0  0  0  0  0  0
    7.6405  -15.5188   23.3988 N   0  0  0  0  0  0  0  0  0  0  0  0
    8.9141  -15.4806   25.4756 C   0  0  0  0  0  0  0  0  0  0  0  0
    9.5894  -14.9407   26.3830 O   0  0  0  0  0  0  0  0  0  0  0  0
    8.9529  -16.8681   25.4395 O   0  0  0  0  0  0  0  0  0  0  0  0
  2  1  1  0
  2  3  2  0
  4  2  1  0
  5  4  1  0
  5  6  1  6
  7  5  1  0
  7  8  2  0
  9  7  1  0
 10  9  1  0
 10 11  1  0
 11 18  1  0
 12 11  2  0
 14 13  1  0
 14 15  1  0
 15 16  1  0
 17 16  1  1
 17 19  1  0
 18 17  1  0
 19 21  1  0
 20 19  2  0
M  END
$$$$
