NGM.pdb
     RDKit          3D

 21 20  0  0  1  0  0  0  0  0999 V2000
    9.1267  -16.3220   15.1206 N   0  0  0  0  0  0  0  0  0  0  0  0
    9.0299  -17.5630   15.8086 C   0  0  0  0  0  0  0  0  0  0  0  0
    9.6620  -18.5342   15.3231 O   0  0  0  0  0  0  0  0  0  0  0  0
    8.2093  -17.6263   17.0233 C   0  0  0  0  0  0  0  0  0  0  0  0
    8.9791  -17.3256   18.2788 C   0  0  2  0  0  0  0  0  0  0  0  0
    9.7706  -18.4905   18.6148 N   0  0  0  0  0  0  0  0  0  0  0  0
    8.1379  -16.9749   19.4211 C   0  0  0  0  0  0  0  0  0  0  0  0
    7.4424  -15.9172   19.3888 O   0  0  0  0  0  0  0  0  0  0  0  0
    8.0426  -17.7650   20.6054 N   0  0  0  0  0  0  0  0  0  0  0  0
    7.1920  -17.3292   21.6745 C   0  0  0  0  0  0  0  0  0  0  0  0
    7.7947  -16.4086   22.6394 C   0  0  0  0  0  0  0  0  0  0  0  0
    9.0336  -16.1769   22.4617 O   0  0  0  0  0  0  0  0  0  0  0  0
    6.4247  -10.3537   27.5425 C   0  0  0  0  0  0  0  0  0  0  0  0
    5.9026  -11.8808   26.7221 S   0  0  0  0  0  0  0  0  0  0  0  0
    7.3431  -12.8098   26.0673 C   0  0  0  0  0  0  0  0  0  0  0  0
    6.8082  -13.8808   25.1794 C   0  0  0  0  0  0  0  0  0  0  0  0
    7.8138  -14.7666   24.5408 C   0  0  2  0  0  0  0  0  0  0  0  0
    7.1594  -15.7664   23.7207 N   0  0  0  0  0  0  0  0  0  0  0  0
    8.7933  -15.3810   25.4867 C   0  0  0  0  0  0  0  0  0  0  0  0
    8.6364  -16.5261   25.9713 O   0  0  0  0  0  0  0  0  0  0  0  0
    9.9424  -14.7104   25.8842 O   0  0  0  0  0  0  0  0  0  0  0  0
  2  1  1  0
  2  3  2  0
  4  2  1  0
  5  4  1  0
  5  6  1  1
  7  5  1  0
  7  8  2  0
  9  7  1  0
 10  9  1  0
 10 11  1  0
 11 18  1  0
 12 11  2  0
 14 13  1  0
 14 15  1  0
 15 16  1  0
 17 16  1  1
 17 19  1  0
 18 17  1  0
 19 21  1  0
 20 19  2  0
M  END
$$$$
