NGM.pdb
     RDKit          3D

 21 20  0  0  1  0  0  0  0  0999 V2000
    7.5697  -20.7001   16.8216 N   0  0  0  0  0  0  0  0  0  0  0  0
    6.8174  -19.9144   17.7379 C   0  0  0  0  0  0  0  0  0  0  0  0
    5.7165  -20.3838   18.1204 O   0  0  0  0  0  0  0  0  0  0  0  0
    7.3689  -18.6253   18.1699 C   0  0  0  0  0  0  0  0  0  0  0  0
    7.6633  -18.5666   19.6428 C   0  0  2  0  0  0  0  0  0  0  0  0
    6.4037  -18.5088   20.3544 N   0  0  0  0  0  0  0  0  0  0  0  0
    8.4872  -17.4265   20.0384 C   0  0  0  0  0  0  0  0  0  0  0  0
    9.7141  -17.3985   19.7256 O   0  0  0  0  0  0  0  0  0  0  0  0
    7.9909  -16.3092   20.7740 N   0  0  0  0  0  0  0  0  0  0  0  0
    8.9016  -15.2855   21.1970 C   0  0  0  0  0  0  0  0  0  0  0  0
    8.9202  -14.9960   22.6314 C   0  0  0  0  0  0  0  0  0  0  0  0
    9.8773  -14.2515   23.0184 O   0  0  0  0  0  0  0  0  0  0  0  0
    6.9336  -10.9439   27.2854 C   0  0  0  0  0  0  0  0  0  0  0  0
    7.1295  -12.2337   26.0302 S   0  0  0  0  0  0  0  0  0  0  0  0
    6.5726  -13.8646   26.6601 C   0  0  0  0  0  0  0  0  0  0  0  0
    6.7016  -14.8364   25.5374 C   0  0  0  0  0  0  0  0  0  0  0  0
    8.0692  -15.0345   24.9949 C   0  0  2  0  0  0  0  0  0  0  0  0
    8.0083  -15.4461   23.6067 N   0  0  0  0  0  0  0  0  0  0  0  0
    8.9352  -15.9433   25.8046 C   0  0  0  0  0  0  0  0  0  0  0  0
    9.1921  -15.7314   27.0128 O   0  0  0  0  0  0  0  0  0  0  0  0
    9.5081  -17.0837   25.2574 O   0  0  0  0  0  0  0  0  0  0  0  0
  2  1  1  0
  2  3  2  0
  4  2  1  0
  5  4  1  0
  5  6  1  1
  7  5  1  0
  7  8  2  0
  9  7  1  0
 10  9  1  0
 10 11  1  0
 11 18  1  0
 12 11  2  0
 14 13  1  0
 14 15  1  0
 15 16  1  0
 17 16  1  1
 17 19  1  0
 18 17  1  0
 19 21  1  0
 20 19  2  0
M  END
$$$$
