NGM.pdb
     RDKit          3D

 21 20  0  0  1  0  0  0  0  0999 V2000
    5.8329  -23.9376   19.8413 N   0  0  0  0  0  0  0  0  0  0  0  0
    5.9763  -22.5244   19.7680 C   0  0  0  0  0  0  0  0  0  0  0  0
    6.2796  -22.0401   18.6490 O   0  0  0  0  0  0  0  0  0  0  0  0
    5.7635  -21.7364   20.9871 C   0  0  0  0  0  0  0  0  0  0  0  0
    6.8767  -20.7675   21.2724 C   0  0  2  0  0  0  0  0  0  0  0  0
    7.9744  -21.5011   21.8667 N   0  0  0  0  0  0  0  0  0  0  0  0
    6.4972  -19.6728   22.1628 C   0  0  0  0  0  0  0  0  0  0  0  0
    6.0179  -18.6054   21.6785 O   0  0  0  0  0  0  0  0  0  0  0  0
    6.6327  -19.7246   23.5823 N   0  0  0  0  0  0  0  0  0  0  0  0
    6.1759  -18.6187   24.3727 C   0  0  0  0  0  0  0  0  0  0  0  0
    7.0751  -17.4662   24.4438 C   0  0  0  0  0  0  0  0  0  0  0  0
    8.2513  -17.6725   24.0035 O   0  0  0  0  0  0  0  0  0  0  0  0
    5.4483  -11.7277   26.6003 C   0  0  0  0  0  0  0  0  0  0  0  0
    7.1630  -11.6478   27.1758 S   0  0  0  0  0  0  0  0  0  0  0  0
    8.1595  -13.0275   26.4900 C   0  0  0  0  0  0  0  0  0  0  0  0
    7.2024  -14.0341   25.9493 C   0  0  0  0  0  0  0  0  0  0  0  0
    7.8010  -15.2021   25.2556 C   0  0  2  0  0  0  0  0  0  0  0  0
    6.7798  -16.1802   24.9382 N   0  0  0  0  0  0  0  0  0  0  0  0
    8.9599  -15.8220   25.9658 C   0  0  0  0  0  0  0  0  0  0  0  0
    8.8176  -16.6743   26.8735 O   0  0  0  0  0  0  0  0  0  0  0  0
   10.2706  -15.4847   25.6555 O   0  0  0  0  0  0  0  0  0  0  0  0
  2  1  1  0
  2  3  2  0
  4  2  1  0
  5  4  1  0
  5  6  1  1
  7  5  1  0
  7  8  2  0
  9  7  1  0
 10  9  1  0
 10 11  1  0
 11 18  1  0
 12 11  2  0
 14 13  1  0
 14 15  1  0
 15 16  1  0
 17 16  1  1
 17 19  1  0
 18 17  1  0
 19 21  1  0
 20 19  2  0
M  END
$$$$
