NGM.pdb
     RDKit          3D

 21 20  0  0  1  0  0  0  0  0999 V2000
    9.1619  -19.3632   15.8370 N   0  0  0  0  0  0  0  0  0  0  0  0
    9.4378  -19.3427   17.2321 C   0  0  0  0  0  0  0  0  0  0  0  0
   10.5832  -19.7135   17.5916 O   0  0  0  0  0  0  0  0  0  0  0  0
    8.3812  -18.8961   18.1468 C   0  0  0  0  0  0  0  0  0  0  0  0
    8.5480  -17.4729   18.6007 C   0  0  2  0  0  0  0  0  0  0  0  0
    9.9603  -17.2236   18.7999 N   0  0  0  0  0  0  0  0  0  0  0  0
    7.8292  -17.1545   19.8324 C   0  0  0  0  0  0  0  0  0  0  0  0
    6.5680  -17.2624   19.8704 O   0  0  0  0  0  0  0  0  0  0  0  0
    8.4684  -16.7180   21.0310 N   0  0  0  0  0  0  0  0  0  0  0  0
    7.6669  -16.3632   22.1659 C   0  0  0  0  0  0  0  0  0  0  0  0
    8.3968  -15.9058   23.3491 C   0  0  0  0  0  0  0  0  0  0  0  0
    9.6639  -15.9951   23.2684 O   0  0  0  0  0  0  0  0  0  0  0  0
    5.6996  -10.2232   26.1420 C   0  0  0  0  0  0  0  0  0  0  0  0
    6.3767  -11.7190   26.9048 S   0  0  0  0  0  0  0  0  0  0  0  0
    7.3942  -12.6718   25.7116 C   0  0  0  0  0  0  0  0  0  0  0  0
    7.8868  -13.8844   26.4245 C   0  0  0  0  0  0  0  0  0  0  0  0
    8.6690  -14.8503   25.6127 C   0  0  2  0  0  0  0  0  0  0  0  0
    7.8539  -15.3881   24.5418 N   0  0  0  0  0  0  0  0  0  0  0  0
    9.3329  -15.9323   26.4001 C   0  0  0  0  0  0  0  0  0  0  0  0
    8.8291  -17.0714   26.5401 O   0  0  0  0  0  0  0  0  0  0  0  0
   10.5565  -15.7332   27.0257 O   0  0  0  0  0  0  0  0  0  0  0  0
  2  1  1  0
  2  3  2  0
  4  2  1  0
  5  4  1  0
  5  6  1  1
  7  5  1  0
  7  8  2  0
  9  7  1  0
 10  9  1  0
 10 11  1  0
 11 18  1  0
 12 11  2  0
 14 13  1  0
 14 15  1  0
 15 16  1  0
 17 16  1  1
 17 19  1  0
 18 17  1  0
 19 21  1  0
 20 19  2  0
M  END
$$$$
