NGM.pdb
     RDKit          3D

 21 20  0  0  1  0  0  0  0  0999 V2000
    8.1046  -12.5267   16.5982 N   0  0  0  0  0  0  0  0  0  0  0  0
    7.8373  -13.9083   16.3919 C   0  0  0  0  0  0  0  0  0  0  0  0
    7.5076  -14.2574   15.2309 O   0  0  0  0  0  0  0  0  0  0  0  0
    7.9623  -14.8221   17.5330 C   0  0  0  0  0  0  0  0  0  0  0  0
    8.2065  -14.1166   18.8376 C   0  0  2  0  0  0  0  0  0  0  0  0
    9.4945  -13.4594   18.7630 N   0  0  0  0  0  0  0  0  0  0  0  0
    8.1881  -14.9990   20.0022 C   0  0  0  0  0  0  0  0  0  0  0  0
    7.0815  -15.3935   20.4749 O   0  0  0  0  0  0  0  0  0  0  0  0
    9.3651  -15.4611   20.6632 N   0  0  0  0  0  0  0  0  0  0  0  0
    9.2403  -16.3538   21.7784 C   0  0  0  0  0  0  0  0  0  0  0  0
    9.3946  -15.7512   23.1031 C   0  0  0  0  0  0  0  0  0  0  0  0
   10.1773  -16.3736   23.8904 O   0  0  0  0  0  0  0  0  0  0  0  0
    6.3073  -10.7002   26.5246 C   0  0  0  0  0  0  0  0  0  0  0  0
    7.1921  -12.1852   27.0628 S   0  0  0  0  0  0  0  0  0  0  0  0
    6.4085  -13.7044   26.3959 C   0  0  0  0  0  0  0  0  0  0  0  0
    6.9662  -13.9234   25.0312 C   0  0  0  0  0  0  0  0  0  0  0  0
    8.3654  -14.4152   24.9653 C   0  0  2  0  0  0  0  0  0  0  0  0
    8.7799  -14.5790   23.5863 N   0  0  0  0  0  0  0  0  0  0  0  0
    8.6333  -15.6426   25.7736 C   0  0  0  0  0  0  0  0  0  0  0  0
    9.4292  -15.6527   26.7416 O   0  0  0  0  0  0  0  0  0  0  0  0
    8.0087  -16.8508   25.4939 O   0  0  0  0  0  0  0  0  0  0  0  0
  2  1  1  0
  2  3  2  0
  4  2  1  0
  5  4  1  0
  5  6  1  6
  7  5  1  0
  7  8  2  0
  9  7  1  0
 10  9  1  0
 10 11  1  0
 11 18  1  0
 12 11  2  0
 14 13  1  0
 14 15  1  0
 15 16  1  0
 17 16  1  6
 17 19  1  0
 18 17  1  0
 19 21  1  0
 20 19  2  0
M  END
$$$$
