NGM.pdb
     RDKit          3D

 21 20  0  0  1  0  0  0  0  0999 V2000
    8.6062  -12.5880   16.7335 N   0  0  0  0  0  0  0  0  0  0  0  0
    7.9023  -13.8236   16.7600 C   0  0  0  0  0  0  0  0  0  0  0  0
    7.8474  -14.4708   15.6844 O   0  0  0  0  0  0  0  0  0  0  0  0
    7.2950  -14.2549   18.0240 C   0  0  0  0  0  0  0  0  0  0  0  0
    8.2834  -14.8494   18.9878 C   0  0  2  0  0  0  0  0  0  0  0  0
    8.7408  -16.1119   18.4463 N   0  0  0  0  0  0  0  0  0  0  0  0
    7.7453  -15.0722   20.3280 C   0  0  0  0  0  0  0  0  0  0  0  0
    7.3511  -14.0871   21.0193 O   0  0  0  0  0  0  0  0  0  0  0  0
    7.6292  -16.3608   20.9296 N   0  0  0  0  0  0  0  0  0  0  0  0
    7.1169  -16.4697   22.2645 C   0  0  0  0  0  0  0  0  0  0  0  0
    8.0371  -16.0909   23.3377 C   0  0  0  0  0  0  0  0  0  0  0  0
    9.2725  -16.1826   23.0456 O   0  0  0  0  0  0  0  0  0  0  0  0
    5.9443  -10.5252   26.2788 C   0  0  0  0  0  0  0  0  0  0  0  0
    6.5320  -12.0919   26.9701 S   0  0  0  0  0  0  0  0  0  0  0  0
    7.7040  -12.9239   25.8296 C   0  0  0  0  0  0  0  0  0  0  0  0
    8.1462  -14.1821   26.4953 C   0  0  0  0  0  0  0  0  0  0  0  0
    8.6961  -15.2363   25.6065 C   0  0  2  0  0  0  0  0  0  0  0  0
    7.7041  -15.6450   24.6322 N   0  0  0  0  0  0  0  0  0  0  0  0
    9.2864  -16.4081   26.3207 C   0  0  0  0  0  0  0  0  0  0  0  0
    8.7288  -17.5301   26.3522 O   0  0  0  0  0  0  0  0  0  0  0  0
   10.4970  -16.3173   26.9947 O   0  0  0  0  0  0  0  0  0  0  0  0
  2  1  1  0
  2  3  2  0
  4  2  1  0
  5  4  1  0
  5  6  1  6
  7  5  1  0
  7  8  2  0
  9  7  1  0
 10  9  1  0
 10 11  1  0
 11 18  1  0
 12 11  2  0
 14 13  1  0
 14 15  1  0
 15 16  1  0
 17 16  1  1
 17 19  1  0
 18 17  1  0
 19 21  1  0
 20 19  2  0
M  END
$$$$
