NGM.pdb
     RDKit          3D

 21 20  0  0  1  0  0  0  0  0999 V2000
    8.3952  -12.4306   16.8533 N   0  0  0  0  0  0  0  0  0  0  0  0
    7.7757  -13.6781   17.1411 C   0  0  0  0  0  0  0  0  0  0  0  0
    7.2204  -14.2725   16.1835 O   0  0  0  0  0  0  0  0  0  0  0  0
    7.8253  -14.1817   18.5182 C   0  0  0  0  0  0  0  0  0  0  0  0
    8.5915  -15.4676   18.6554 C   0  0  2  0  0  0  0  0  0  0  0  0
    7.8375  -16.5161   18.0008 N   0  0  0  0  0  0  0  0  0  0  0  0
    8.8508  -15.8593   20.0391 C   0  0  0  0  0  0  0  0  0  0  0  0
    9.7367  -15.2514   20.7094 O   0  0  0  0  0  0  0  0  0  0  0  0
    8.1543  -16.9100   20.7075 N   0  0  0  0  0  0  0  0  0  0  0  0
    8.6017  -17.3382   22.0009 C   0  0  0  0  0  0  0  0  0  0  0  0
    8.8941  -16.2749   22.9630 C   0  0  0  0  0  0  0  0  0  0  0  0
    9.7564  -15.4217   22.5776 O   0  0  0  0  0  0  0  0  0  0  0  0
    7.0493  -11.3055   27.2501 C   0  0  0  0  0  0  0  0  0  0  0  0
    6.2130  -12.2322   25.9387 S   0  0  0  0  0  0  0  0  0  0  0  0
    6.8091  -13.9660   25.8658 C   0  0  0  0  0  0  0  0  0  0  0  0
    8.1818  -13.9345   25.2860 C   0  0  0  0  0  0  0  0  0  0  0  0
    8.9075  -15.2289   25.2473 C   0  0  2  0  0  0  0  0  0  0  0  0
    8.3323  -16.1018   24.2436 N   0  0  0  0  0  0  0  0  0  0  0  0
    9.0333  -15.9127   26.5695 C   0  0  0  0  0  0  0  0  0  0  0  0
    8.4574  -16.9957   26.8267 O   0  0  0  0  0  0  0  0  0  0  0  0
    9.8029  -15.3806   27.5955 O   0  0  0  0  0  0  0  0  0  0  0  0
  2  1  1  0
  2  3  2  0
  4  2  1  0
  5  4  1  0
  5  6  1  1
  7  5  1  0
  7  8  2  0
  9  7  1  0
 10  9  1  0
 10 11  1  0
 11 18  1  0
 12 11  2  0
 14 13  1  0
 14 15  1  0
 15 16  1  0
 17 16  1  1
 17 19  1  0
 18 17  1  0
 19 21  1  0
 20 19  2  0
M  END
$$$$
