NGM.pdb
     RDKit          3D

 21 20  0  0  1  0  0  0  0  0999 V2000
    9.9201  -18.7068   16.9043 N   0  0  0  0  0  0  0  0  0  0  0  0
    8.6933  -19.3958   17.1116 C   0  0  0  0  0  0  0  0  0  0  0  0
    8.5914  -20.5418   16.6066 O   0  0  0  0  0  0  0  0  0  0  0  0
    7.6421  -18.7320   17.8907 C   0  0  0  0  0  0  0  0  0  0  0  0
    8.0022  -17.3334   18.3073 C   0  0  2  0  0  0  0  0  0  0  0  0
    9.4397  -17.2641   18.4662 N   0  0  0  0  0  0  0  0  0  0  0  0
    7.3638  -16.9008   19.5485 C   0  0  0  0  0  0  0  0  0  0  0  0
    6.1020  -16.8111   19.6087 O   0  0  0  0  0  0  0  0  0  0  0  0
    8.0845  -16.5627   20.7326 N   0  0  0  0  0  0  0  0  0  0  0  0
    7.3658  -16.1065   21.8867 C   0  0  0  0  0  0  0  0  0  0  0  0
    8.1823  -15.6859   23.0260 C   0  0  0  0  0  0  0  0  0  0  0  0
    9.4396  -15.7814   22.8524 O   0  0  0  0  0  0  0  0  0  0  0  0
    5.1290  -11.0010   26.2586 C   0  0  0  0  0  0  0  0  0  0  0  0
    6.7836  -11.4798   26.8161 S   0  0  0  0  0  0  0  0  0  0  0  0
    7.6383  -12.5058   25.5576 C   0  0  0  0  0  0  0  0  0  0  0  0
    7.9939  -13.7971   26.2116 C   0  0  0  0  0  0  0  0  0  0  0  0
    8.6273  -14.8202   25.3422 C   0  0  2  0  0  0  0  0  0  0  0  0
    7.7305  -15.1967   24.2678 N   0  0  0  0  0  0  0  0  0  0  0  0
    9.1543  -16.0148   26.0679 C   0  0  0  0  0  0  0  0  0  0  0  0
    8.5159  -17.0901   26.1506 O   0  0  0  0  0  0  0  0  0  0  0  0
   10.3926  -15.9990   26.6961 O   0  0  0  0  0  0  0  0  0  0  0  0
  2  1  1  0
  2  3  2  0
  4  2  1  0
  5  4  1  0
  5  6  1  1
  7  5  1  0
  7  8  2  0
  9  7  1  0
 10  9  1  0
 10 11  1  0
 11 18  1  0
 12 11  2  0
 14 13  1  0
 14 15  1  0
 15 16  1  0
 17 16  1  1
 17 19  1  0
 18 17  1  0
 19 21  1  0
 20 19  2  0
M  END
$$$$
