HNQ.pdb
     RDKit          3D

 28 28  0  0  1  0  0  0  0  0999 V2000
    8.3493  -16.1185   20.0246 N   0  0  0  0  0  0  0  0  0  0  0  0
    8.9597  -14.9224   20.5136 C   0  0  1  0  0  0  0  0  0  0  0  0
    8.4970  -13.6904   19.7641 C   0  0  0  0  0  0  0  0  0  0  0  0
    8.4334  -13.9386   18.3029 C   0  0  0  0  0  0  0  0  0  0  0  0
    8.7488  -15.1004   17.6212 C   0  0  0  0  0  0  0  0  0  0  0  0
    8.5537  -14.9092   16.2941 N   0  0  0  0  0  0  0  0  0  0  0  0
    8.1203  -13.6428   16.1339 C   0  0  0  0  0  0  0  0  0  0  0  0
    8.0478  -13.0532   17.3617 N   0  0  0  0  0  0  0  0  0  0  0  0
    8.8181  -14.7531   21.9803 C   0  0  0  0  0  0  0  0  0  0  0  0
    9.4368  -13.7886   22.5030 O   0  0  0  0  0  0  0  0  0  0  0  0
    6.2076  -13.5321   25.2750 N   0  0  0  0  0  0  0  0  0  0  0  0
    5.8616  -14.9035   25.2864 C   0  0  0  0  0  0  0  0  0  0  0  0
    4.6950  -15.2225   25.6859 O   0  0  0  0  0  0  0  0  0  0  0  0
    6.7577  -15.9965   24.8668 C   0  0  0  0  0  0  0  0  0  0  0  0
    8.0648  -15.4795   24.2655 C   0  0  2  0  0  0  0  0  0  0  0  0
    8.0532  -15.5788   22.8229 N   0  0  0  0  0  0  0  0  0  0  0  0
    9.1393  -16.3416   24.8154 C   0  0  0  0  0  0  0  0  0  0  0  0
   10.0174  -16.7915   24.0003 O   0  0  0  0  0  0  0  0  0  0  0  0
   11.7602  -13.6210   28.5921 N   0  0  0  0  0  0  0  0  0  0  0  0
   10.7332  -14.3708   29.2100 C   0  0  0  0  0  0  0  0  0  0  0  0
   10.1165  -13.8840   30.1742 O   0  0  0  0  0  0  0  0  0  0  0  0
   10.4095  -15.7196   28.7043 C   0  0  0  0  0  0  0  0  0  0  0  0
   11.2233  -16.1551   27.5211 C   0  0  0  0  0  0  0  0  0  0  0  0
   10.5441  -17.1895   26.7248 C   0  0  2  0  0  0  0  0  0  0  0  0
    9.2764  -16.7076   26.1556 N   0  0  0  0  0  0  0  0  0  0  0  0
   10.2112  -18.3530   27.5892 C   0  0  0  0  0  0  0  0  0  0  0  0
    9.0389  -18.6924   27.8805 O   0  0  0  0  0  0  0  0  0  0  0  0
   11.2118  -19.1577   28.1424 O   0  0  0  0  0  0  0  0  0  0  0  0
  2  1  1  6
  2  3  1  0
  3  4  1  0
  4  8  1  0
  4  5  2  0
  5  6  1  0
  7  6  1  0
  8  7  2  0
  9 10  2  0
  9  2  1  0
 11 12  1  0
 12 14  1  0
 13 12  2  0
 15 14  1  1
 15 16  1  0
 16  9  1  0
 17 18  2  0
 17 15  1  0
 19 20  1  0
 20 21  2  0
 22 20  1  0
 22 23  1  0
 24 23  1  1
 24 25  1  0
 25 17  1  0
 26 24  1  0
 27 26  2  0
 28 26  1  0
M  END
$$$$
