HNQ.pdb
     RDKit          3D

 28 28  0  0  1  0  0  0  0  0999 V2000
   10.4317  -17.6898   13.4431 N   0  0  0  0  0  0  0  0  0  0  0  0
    9.1338  -17.4662   13.9981 C   0  0  1  0  0  0  0  0  0  0  0  0
    8.0367  -18.1139   13.1791 C   0  0  0  0  0  0  0  0  0  0  0  0
    7.9907  -17.5607   11.8033 C   0  0  0  0  0  0  0  0  0  0  0  0
    8.9646  -16.8312   11.1450 C   0  0  0  0  0  0  0  0  0  0  0  0
    8.5264  -16.5165    9.9022 N   0  0  0  0  0  0  0  0  0  0  0  0
    7.2903  -17.0385    9.7719 C   0  0  0  0  0  0  0  0  0  0  0  0
    6.9664  -17.6752   10.9338 N   0  0  0  0  0  0  0  0  0  0  0  0
    9.0391  -17.8421   15.4297 C   0  0  0  0  0  0  0  0  0  0  0  0
    7.9193  -17.6866   15.9848 O   0  0  0  0  0  0  0  0  0  0  0  0
   11.3696  -22.0011   16.4687 N   0  0  0  0  0  0  0  0  0  0  0  0
   10.4858  -21.1856   17.2134 C   0  0  0  0  0  0  0  0  0  0  0  0
    9.2664  -21.5445   17.2949 O   0  0  0  0  0  0  0  0  0  0  0  0
   10.8756  -19.9440   17.9063 C   0  0  0  0  0  0  0  0  0  0  0  0
    9.9423  -18.7777   17.5805 C   0  0  2  0  0  0  0  0  0  0  0  0
   10.0936  -18.3537   16.2063 N   0  0  0  0  0  0  0  0  0  0  0  0
   10.3337  -17.6722   18.4887 C   0  0  0  0  0  0  0  0  0  0  0  0
   11.3690  -16.9862   18.1799 O   0  0  0  0  0  0  0  0  0  0  0  0
    6.7135  -13.1791   19.3816 N   0  0  0  0  0  0  0  0  0  0  0  0
    7.8708  -13.2383   20.1915 C   0  0  0  0  0  0  0  0  0  0  0  0
    7.9862  -12.4551   21.1509 O   0  0  0  0  0  0  0  0  0  0  0  0
    8.9251  -14.2257   19.8861 C   0  0  0  0  0  0  0  0  0  0  0  0
    9.0920  -15.3011   20.9193 C   0  0  0  0  0  0  0  0  0  0  0  0
   10.1511  -16.2590   20.5642 C   0  0  2  0  0  0  0  0  0  0  0  0
    9.6653  -17.3128   19.6605 N   0  0  0  0  0  0  0  0  0  0  0  0
   10.6461  -16.9400   21.7901 C   0  0  0  0  0  0  0  0  0  0  0  0
   11.3153  -16.3675   22.6838 O   0  0  0  0  0  0  0  0  0  0  0  0
   10.3877  -18.2939   22.0245 O   0  0  0  0  0  0  0  0  0  0  0  0
  2  1  1  6
  2  3  1  0
  3  4  1  0
  4  8  1  0
  4  5  2  0
  5  6  1  0
  7  6  1  0
  8  7  2  0
  9 10  2  0
  9  2  1  0
 11 12  1  0
 12 14  1  0
 13 12  2  0
 15 14  1  1
 15 16  1  0
 16  9  1  0
 17 18  2  0
 17 15  1  0
 19 20  1  0
 20 21  2  0
 22 20  1  0
 22 23  1  0
 24 23  1  1
 24 25  1  0
 25 17  1  0
 26 24  1  0
 27 26  2  0
 28 26  1  0
M  END
$$$$
