HNQ.pdb
     RDKit          3D

 28 28  0  0  1  0  0  0  0  0999 V2000
    9.2298  -17.7336   20.6465 N   0  0  0  0  0  0  0  0  0  0  0  0
    9.7767  -16.6538   21.4063 C   0  0  1  0  0  0  0  0  0  0  0  0
    8.7205  -15.9141   22.2007 C   0  0  0  0  0  0  0  0  0  0  0  0
    8.1236  -14.8100   21.4097 C   0  0  0  0  0  0  0  0  0  0  0  0
    8.4204  -14.4341   20.1118 C   0  0  0  0  0  0  0  0  0  0  0  0
    7.6492  -13.3760   19.7635 N   0  0  0  0  0  0  0  0  0  0  0  0
    6.8725  -13.0827   20.8256 C   0  0  0  0  0  0  0  0  0  0  0  0
    7.1643  -13.9598   21.8285 N   0  0  0  0  0  0  0  0  0  0  0  0
   10.9164  -17.0622   22.2632 C   0  0  0  0  0  0  0  0  0  0  0  0
   11.0710  -18.2978   22.4517 O   0  0  0  0  0  0  0  0  0  0  0  0
   16.1994  -16.9855   23.6656 N   0  0  0  0  0  0  0  0  0  0  0  0
   15.3623  -15.9561   24.1556 C   0  0  0  0  0  0  0  0  0  0  0  0
   15.7150  -15.3552   25.2219 O   0  0  0  0  0  0  0  0  0  0  0  0
   14.1045  -15.5251   23.5182 C   0  0  0  0  0  0  0  0  0  0  0  0
   13.0373  -16.6197   23.5370 C   0  0  2  0  0  0  0  0  0  0  0  0
   11.8281  -16.1838   22.8747 N   0  0  0  0  0  0  0  0  0  0  0  0
   12.7519  -16.8906   24.9672 C   0  0  0  0  0  0  0  0  0  0  0  0
   13.6985  -17.3697   25.6829 O   0  0  0  0  0  0  0  0  0  0  0  0
    9.1559  -12.5180   26.7957 N   0  0  0  0  0  0  0  0  0  0  0  0
    9.7253  -13.4390   27.7046 C   0  0  0  0  0  0  0  0  0  0  0  0
    9.4032  -13.3917   28.9051 O   0  0  0  0  0  0  0  0  0  0  0  0
   10.6943  -14.4407   27.2173 C   0  0  0  0  0  0  0  0  0  0  0  0
   10.3727  -15.8567   27.5958 C   0  0  0  0  0  0  0  0  0  0  0  0
   11.3498  -16.8159   27.0568 C   0  0  2  0  0  0  0  0  0  0  0  0
   11.5304  -16.6665   25.6048 N   0  0  0  0  0  0  0  0  0  0  0  0
   10.8726  -18.2052   27.2889 C   0  0  0  0  0  0  0  0  0  0  0  0
   10.7193  -18.7087   28.4279 O   0  0  0  0  0  0  0  0  0  0  0  0
   10.5587  -19.0539   26.2231 O   0  0  0  0  0  0  0  0  0  0  0  0
  2  1  1  1
  2  3  1  0
  3  4  1  0
  4  8  1  0
  4  5  2  0
  5  6  1  0
  7  6  1  0
  8  7  2  0
  9 10  2  0
  9  2  1  0
 11 12  1  0
 12 14  1  0
 13 12  2  0
 15 14  1  1
 15 16  1  0
 16  9  1  0
 17 18  2  0
 17 15  1  0
 19 20  1  0
 20 21  2  0
 22 20  1  0
 22 23  1  0
 24 23  1  6
 24 25  1  0
 25 17  1  0
 26 24  1  0
 27 26  2  0
 28 26  1  0
M  END
$$$$
