HNQ.pdb
     RDKit          3D

 28 28  0  0  1  0  0  0  0  0999 V2000
    8.9782  -16.0858   19.9364 N   0  0  0  0  0  0  0  0  0  0  0  0
    8.0124  -15.1916   20.4932 C   0  0  1  0  0  0  0  0  0  0  0  0
    6.8903  -14.8786   19.5254 C   0  0  0  0  0  0  0  0  0  0  0  0
    7.3686  -14.0473   18.3936 C   0  0  0  0  0  0  0  0  0  0  0  0
    8.6626  -13.6400   18.1224 C   0  0  0  0  0  0  0  0  0  0  0  0
    8.6704  -12.8927   16.9923 N   0  0  0  0  0  0  0  0  0  0  0  0
    7.3984  -12.8254   16.5508 C   0  0  0  0  0  0  0  0  0  0  0  0
    6.6065  -13.5312   17.4080 N   0  0  0  0  0  0  0  0  0  0  0  0
    7.4897  -15.6417   21.8063 C   0  0  0  0  0  0  0  0  0  0  0  0
    6.7394  -14.8406   22.4237 O   0  0  0  0  0  0  0  0  0  0  0  0
    5.4092  -19.5154   21.6928 N   0  0  0  0  0  0  0  0  0  0  0  0
    5.5035  -18.8143   22.9176 C   0  0  0  0  0  0  0  0  0  0  0  0
    4.4529  -18.2516   23.3668 O   0  0  0  0  0  0  0  0  0  0  0  0
    6.7361  -18.6872   23.7167 C   0  0  0  0  0  0  0  0  0  0  0  0
    7.2846  -17.2602   23.7182 C   0  0  2  0  0  0  0  0  0  0  0  0
    7.7653  -16.8823   22.4078 N   0  0  0  0  0  0  0  0  0  0  0  0
    8.4113  -17.2542   24.6828 C   0  0  0  0  0  0  0  0  0  0  0  0
    9.5318  -17.7340   24.2927 O   0  0  0  0  0  0  0  0  0  0  0  0
    9.6890  -13.5782   29.7209 N   0  0  0  0  0  0  0  0  0  0  0  0
   10.5941  -14.6551   29.8615 C   0  0  0  0  0  0  0  0  0  0  0  0
   11.3987  -14.6575   30.8100 O   0  0  0  0  0  0  0  0  0  0  0  0
   10.5731  -15.7585   28.8807 C   0  0  0  0  0  0  0  0  0  0  0  0
    9.4475  -15.6927   27.8905 C   0  0  0  0  0  0  0  0  0  0  0  0
    9.5146  -16.7735   26.8941 C   0  0  2  0  0  0  0  0  0  0  0  0
    8.3547  -16.7667   25.9898 N   0  0  0  0  0  0  0  0  0  0  0  0
    9.5150  -18.0925   27.5811 C   0  0  0  0  0  0  0  0  0  0  0  0
    8.4785  -18.7644   27.8011 O   0  0  0  0  0  0  0  0  0  0  0  0
   10.7021  -18.6763   28.0339 O   0  0  0  0  0  0  0  0  0  0  0  0
  2  1  1  6
  2  3  1  0
  3  4  1  0
  4  8  1  0
  4  5  2  0
  5  6  1  0
  7  6  1  0
  8  7  2  0
  9 10  2  0
  9  2  1  0
 11 12  1  0
 12 14  1  0
 13 12  2  0
 15 14  1  6
 15 16  1  0
 16  9  1  0
 17 18  2  0
 17 15  1  0
 19 20  1  0
 20 21  2  0
 22 20  1  0
 22 23  1  0
 24 23  1  1
 24 25  1  0
 25 17  1  0
 26 24  1  0
 27 26  2  0
 28 26  1  0
M  END
$$$$
