HNQ.pdb
     RDKit          3D

 28 28  0  0  1  0  0  0  0  0999 V2000
    8.8149  -15.9433   20.7257 N   0  0  0  0  0  0  0  0  0  0  0  0
    8.0033  -15.1991   21.6365 C   0  0  1  0  0  0  0  0  0  0  0  0
    6.7771  -14.6116   20.9693 C   0  0  0  0  0  0  0  0  0  0  0  0
    7.1234  -13.9527   19.6860 C   0  0  0  0  0  0  0  0  0  0  0  0
    7.8064  -12.7649   19.4948 C   0  0  0  0  0  0  0  0  0  0  0  0
    7.9130  -12.5172   18.1671 N   0  0  0  0  0  0  0  0  0  0  0  0
    7.3058  -13.5336   17.5225 C   0  0  0  0  0  0  0  0  0  0  0  0
    6.8251  -14.4080   18.4523 N   0  0  0  0  0  0  0  0  0  0  0  0
    7.6463  -15.9625   22.8571 C   0  0  0  0  0  0  0  0  0  0  0  0
    6.8548  -15.4064   23.6635 O   0  0  0  0  0  0  0  0  0  0  0  0
    5.9875  -20.1810   26.1301 N   0  0  0  0  0  0  0  0  0  0  0  0
    7.2329  -20.1056   25.4639 C   0  0  0  0  0  0  0  0  0  0  0  0
    8.2283  -20.7036   25.9875 O   0  0  0  0  0  0  0  0  0  0  0  0
    7.4641  -19.3816   24.2005 C   0  0  0  0  0  0  0  0  0  0  0  0
    7.8320  -17.9153   24.4284 C   0  0  2  0  0  0  0  0  0  0  0  0
    8.1193  -17.2469   23.1788 N   0  0  0  0  0  0  0  0  0  0  0  0
    9.0469  -17.9241   25.2793 C   0  0  0  0  0  0  0  0  0  0  0  0
   10.1493  -18.2866   24.7396 O   0  0  0  0  0  0  0  0  0  0  0  0
   10.5879  -13.4940   29.0276 N   0  0  0  0  0  0  0  0  0  0  0  0
    9.3118  -14.0661   28.8207 C   0  0  0  0  0  0  0  0  0  0  0  0
    8.2941  -13.4055   29.0945 O   0  0  0  0  0  0  0  0  0  0  0  0
    9.2054  -15.4380   28.2857 C   0  0  0  0  0  0  0  0  0  0  0  0
   10.5175  -16.0730   27.9292 C   0  0  0  0  0  0  0  0  0  0  0  0
   10.3522  -17.4254   27.3735 C   0  0  2  0  0  0  0  0  0  0  0  0
    9.0921  -17.5685   26.6286 N   0  0  0  0  0  0  0  0  0  0  0  0
   10.3137  -18.4220   28.4768 C   0  0  0  0  0  0  0  0  0  0  0  0
    9.3172  -19.1401   28.7332 O   0  0  0  0  0  0  0  0  0  0  0  0
   11.4148  -18.6222   29.3147 O   0  0  0  0  0  0  0  0  0  0  0  0
  2  1  1  6
  2  3  1  0
  3  4  1  0
  4  8  1  0
  4  5  2  0
  5  6  1  0
  7  6  1  0
  8  7  2  0
  9 10  2  0
  9  2  1  0
 11 12  1  0
 12 14  1  0
 13 12  2  0
 15 14  1  6
 15 16  1  0
 16  9  1  0
 17 18  2  0
 17 15  1  0
 19 20  1  0
 20 21  2  0
 22 20  1  0
 22 23  1  0
 24 23  1  1
 24 25  1  0
 25 17  1  0
 26 24  1  0
 27 26  2  0
 28 26  1  0
M  END
$$$$
