HNQ.pdb
     RDKit          3D

 28 28  0  0  1  0  0  0  0  0999 V2000
    9.5290  -17.0382   18.6600 N   0  0  0  0  0  0  0  0  0  0  0  0
    9.4319  -16.3296   19.8973 C   0  0  1  0  0  0  0  0  0  0  0  0
    8.1262  -15.5734   20.0283 C   0  0  0  0  0  0  0  0  0  0  0  0
    8.2778  -14.1571   19.6134 C   0  0  0  0  0  0  0  0  0  0  0  0
    9.3910  -13.5433   19.0676 C   0  0  0  0  0  0  0  0  0  0  0  0
    9.1134  -12.2384   18.8313 N   0  0  0  0  0  0  0  0  0  0  0  0
    7.8409  -12.0251   19.2218 C   0  0  0  0  0  0  0  0  0  0  0  0
    7.3337  -13.1980   19.6984 N   0  0  0  0  0  0  0  0  0  0  0  0
    9.6866  -17.1860   21.0813 C   0  0  0  0  0  0  0  0  0  0  0  0
    8.7142  -17.8583   21.5156 O   0  0  0  0  0  0  0  0  0  0  0  0
   11.8907  -20.3867   21.3285 N   0  0  0  0  0  0  0  0  0  0  0  0
   12.8467  -19.7575   22.1595 C   0  0  0  0  0  0  0  0  0  0  0  0
   14.0331  -20.2210   22.1632 O   0  0  0  0  0  0  0  0  0  0  0  0
   12.5686  -18.5976   23.0261 C   0  0  0  0  0  0  0  0  0  0  0  0
   11.1181  -18.1264   22.9206 C   0  0  2  0  0  0  0  0  0  0  0  0
   10.9185  -17.3033   21.7486 N   0  0  0  0  0  0  0  0  0  0  0  0
   10.8563  -17.3260   24.1417 C   0  0  0  0  0  0  0  0  0  0  0  0
   11.6198  -16.3251   24.3726 O   0  0  0  0  0  0  0  0  0  0  0  0
    5.8218  -14.8077   26.0774 N   0  0  0  0  0  0  0  0  0  0  0  0
    6.9310  -14.1709   25.4749 C   0  0  0  0  0  0  0  0  0  0  0  0
    6.7719  -13.0780   24.9028 O   0  0  0  0  0  0  0  0  0  0  0  0
    8.2596  -14.8122   25.5313 C   0  0  0  0  0  0  0  0  0  0  0  0
    8.2921  -16.1179   26.2703 C   0  0  0  0  0  0  0  0  0  0  0  0
    9.6281  -16.7347   26.2583 C   0  0  2  0  0  0  0  0  0  0  0  0
    9.8414  -17.5721   25.0682 N   0  0  0  0  0  0  0  0  0  0  0  0
    9.7835  -17.6229   27.4410 C   0  0  0  0  0  0  0  0  0  0  0  0
    9.8626  -18.8730   27.3686 O   0  0  0  0  0  0  0  0  0  0  0  0
    9.8522  -17.1028   28.7370 O   0  0  0  0  0  0  0  0  0  0  0  0
  2  1  1  6
  2  3  1  0
  3  4  1  0
  4  8  1  0
  4  5  2  0
  5  6  1  0
  7  6  1  0
  8  7  2  0
  9 10  2  0
  9  2  1  0
 11 12  1  0
 12 14  1  0
 13 12  2  0
 15 14  1  1
 15 16  1  0
 16  9  1  0
 17 18  2  0
 17 15  1  0
 19 20  1  0
 20 21  2  0
 22 20  1  0
 22 23  1  0
 24 23  1  6
 24 25  1  0
 25 17  1  0
 26 24  1  0
 27 26  2  0
 28 26  1  0
M  END
$$$$
