HNQ.pdb
     RDKit          3D

 28 28  0  0  1  0  0  0  0  0999 V2000
    8.4396  -16.2985   20.9662 N   0  0  0  0  0  0  0  0  0  0  0  0
    7.9902  -15.4393   22.0161 C   0  0  1  0  0  0  0  0  0  0  0  0
    6.9073  -14.4851   21.5571 C   0  0  0  0  0  0  0  0  0  0  0  0
    7.2730  -13.8269   20.2789 C   0  0  0  0  0  0  0  0  0  0  0  0
    7.7981  -12.5607   20.0919 C   0  0  0  0  0  0  0  0  0  0  0  0
    7.9889  -12.3449   18.7680 N   0  0  0  0  0  0  0  0  0  0  0  0
    7.5902  -13.4588   18.1216 C   0  0  0  0  0  0  0  0  0  0  0  0
    7.1541  -14.3613   19.0465 N   0  0  0  0  0  0  0  0  0  0  0  0
    7.5856  -16.1750   23.2388 C   0  0  0  0  0  0  0  0  0  0  0  0
    7.2706  -15.4807   24.2412 O   0  0  0  0  0  0  0  0  0  0  0  0
    7.0598  -19.9865   26.8985 N   0  0  0  0  0  0  0  0  0  0  0  0
    6.5837  -20.4194   25.6389 C   0  0  0  0  0  0  0  0  0  0  0  0
    6.0059  -21.5528   25.5754 O   0  0  0  0  0  0  0  0  0  0  0  0
    6.7079  -19.6499   24.3874 C   0  0  0  0  0  0  0  0  0  0  0  0
    7.2965  -18.2576   24.6158 C   0  0  2  0  0  0  0  0  0  0  0  0
    7.5275  -17.5743   23.3625 N   0  0  0  0  0  0  0  0  0  0  0  0
    8.5881  -18.4671   25.3143 C   0  0  0  0  0  0  0  0  0  0  0  0
    9.6419  -18.5788   24.5966 O   0  0  0  0  0  0  0  0  0  0  0  0
    8.6688  -13.5470   27.5436 N   0  0  0  0  0  0  0  0  0  0  0  0
    9.8195  -13.9779   28.2428 C   0  0  0  0  0  0  0  0  0  0  0  0
   10.5086  -13.1450   28.8580 O   0  0  0  0  0  0  0  0  0  0  0  0
   10.1875  -15.4077   28.2309 C   0  0  0  0  0  0  0  0  0  0  0  0
    9.2768  -16.2804   27.4180 C   0  0  0  0  0  0  0  0  0  0  0  0
    9.6858  -17.6937   27.4439 C   0  0  2  0  0  0  0  0  0  0  0  0
    8.7550  -18.5539   26.6976 N   0  0  0  0  0  0  0  0  0  0  0  0
    9.6970  -18.1892   28.8461 C   0  0  0  0  0  0  0  0  0  0  0  0
   10.5550  -17.8528   29.6976 O   0  0  0  0  0  0  0  0  0  0  0  0
    8.7265  -19.0825   29.3095 O   0  0  0  0  0  0  0  0  0  0  0  0
  2  1  1  6
  2  3  1  0
  3  4  1  0
  4  8  1  0
  4  5  2  0
  5  6  1  0
  7  6  1  0
  8  7  2  0
  9 10  2  0
  9  2  1  0
 11 12  1  0
 12 14  1  0
 13 12  2  0
 15 14  1  6
 15 16  1  0
 16  9  1  0
 17 18  2  0
 17 15  1  0
 19 20  1  0
 20 21  2  0
 22 20  1  0
 22 23  1  0
 24 23  1  1
 24 25  1  0
 25 17  1  0
 26 24  1  0
 27 26  2  0
 28 26  1  0
M  END
$$$$
