CSA.pdb
     RDKit          3D

 18 17  0  0  1  0  0  0  0  0999 V2000
   22.1691  -12.6885  -16.9100 N   0  0  0  0  0  0  0  0  0  0  0  0
   21.5746  -11.4699  -17.4192 C   0  0  1  0  0  0  0  0  0  0  0  0
   20.1096  -11.4705  -17.0054 C   0  0  0  0  0  0  0  0  0  0  0  0
   19.2750  -12.8227  -17.8843 S   0  0  0  0  0  0  0  0  0  0  0  0
   22.2577  -10.2636  -16.8479 C   0  0  0  0  0  0  0  0  0  0  0  0
   22.5117  -10.1920  -15.6310 O   0  0  0  0  0  0  0  0  0  0  0  0
   25.1735   -8.0463  -18.6226 O   0  0  0  0  0  0  0  0  0  0  0  0
   24.1026   -7.2699  -18.2093 C   0  0  0  0  0  0  0  0  0  0  0  0
   23.3347   -8.0270  -17.1364 C   0  0  2  0  0  0  0  0  0  0  0  0
   22.6415   -9.1584  -17.6661 N   0  0  0  0  0  0  0  0  0  0  0  0
   22.3870   -7.0825  -16.4440 C   0  0  0  0  0  0  0  0  0  0  0  0
   21.2632   -6.8378  -16.9105 O   0  0  0  0  0  0  0  0  0  0  0  0
   22.2308   -5.4822  -13.0372 C   0  0  0  0  0  0  0  0  0  0  0  0
   21.9201   -5.5659  -14.4857 C   0  0  2  0  0  0  0  0  0  0  0  0
   22.7614   -6.4468  -15.2331 N   0  0  0  0  0  0  0  0  0  0  0  0
   22.0592   -4.2112  -15.0848 C   0  0  0  0  0  0  0  0  0  0  0  0
   21.3228   -3.2395  -14.7091 O   0  0  0  0  0  0  0  0  0  0  0  0
   22.9826   -3.9122  -16.0768 O   0  0  0  0  0  0  0  0  0  0  0  0
  2  1  1  1
  2  3  1  0
  4  3  1  0
  5  2  1  0
  6  5  2  0
  7  8  1  0
  9  8  1  6
  9 10  1  0
 10  5  1  0
 11 15  1  0
 11  9  1  0
 12 11  2  0
 14 13  1  1
 14 15  1  0
 14 16  1  0
 16 18  1  0
 17 16  2  0
M  END
$$$$
