CSA.pdb
     RDKit          3D

 18 17  0  0  1  0  0  0  0  0999 V2000
   21.9204  -12.6167  -18.1897 N   0  0  0  0  0  0  0  0  0  0  0  0
   22.0538  -11.2156  -18.5315 C   0  0  1  0  0  0  0  0  0  0  0  0
   21.6211  -11.0577  -19.9825 C   0  0  0  0  0  0  0  0  0  0  0  0
   23.0540  -11.4107  -21.0407 S   0  0  0  0  0  0  0  0  0  0  0  0
   21.1847  -10.3668  -17.6527 C   0  0  0  0  0  0  0  0  0  0  0  0
   19.9447  -10.4756  -17.6870 O   0  0  0  0  0  0  0  0  0  0  0  0
   21.8764   -9.5164  -13.9839 O   0  0  0  0  0  0  0  0  0  0  0  0
   20.6585   -9.1942  -14.5610 C   0  0  0  0  0  0  0  0  0  0  0  0
   20.9128   -8.5783  -15.9284 C   0  0  2  0  0  0  0  0  0  0  0  0
   21.7361   -9.4085  -16.7495 N   0  0  0  0  0  0  0  0  0  0  0  0
   21.5215   -7.2115  -15.7522 C   0  0  0  0  0  0  0  0  0  0  0  0
   22.7437   -7.0290  -15.8673 O   0  0  0  0  0  0  0  0  0  0  0  0
   20.1282   -3.7162  -15.2227 C   0  0  0  0  0  0  0  0  0  0  0  0
   21.1839   -4.7565  -15.2918 C   0  0  2  0  0  0  0  0  0  0  0  0
   20.7040   -6.0934  -15.4482 N   0  0  0  0  0  0  0  0  0  0  0  0
   21.9774   -4.7184  -14.0337 C   0  0  0  0  0  0  0  0  0  0  0  0
   21.8179   -5.5950  -13.1206 O   0  0  0  0  0  0  0  0  0  0  0  0
   22.9302   -3.7451  -13.7677 O   0  0  0  0  0  0  0  0  0  0  0  0
  2  1  1  1
  2  3  1  0
  4  3  1  0
  5  2  1  0
  6  5  2  0
  7  8  1  0
  9  8  1  1
  9 10  1  0
 10  5  1  0
 11 15  1  0
 11  9  1  0
 12 11  2  0
 14 13  1  1
 14 15  1  0
 14 16  1  0
 16 18  1  0
 17 16  2  0
M  END
$$$$
