CSA.pdb
     RDKit          3D

 18 17  0  0  1  0  0  0  0  0999 V2000
   26.5850  -11.8433  -18.0776 N   0  0  0  0  0  0  0  0  0  0  0  0
   26.1001  -11.1874  -16.8807 C   0  0  1  0  0  0  0  0  0  0  0  0
   27.3091  -10.6167  -16.1525 C   0  0  0  0  0  0  0  0  0  0  0  0
   28.1466  -11.9800  -15.2937 S   0  0  0  0  0  0  0  0  0  0  0  0
   25.1521  -10.0784  -17.2266 C   0  0  0  0  0  0  0  0  0  0  0  0
   25.2325   -9.4898  -18.3209 O   0  0  0  0  0  0  0  0  0  0  0  0
   21.5618   -9.8415  -15.3717 O   0  0  0  0  0  0  0  0  0  0  0  0
   21.7315   -9.2439  -16.6104 C   0  0  0  0  0  0  0  0  0  0  0  0
   23.1447   -8.6876  -16.6957 C   0  0  2  0  0  0  0  0  0  0  0  0
   24.1286   -9.6553  -16.3257 N   0  0  0  0  0  0  0  0  0  0  0  0
   23.2453   -7.4531  -15.8380 C   0  0  0  0  0  0  0  0  0  0  0  0
   23.5227   -7.5264  -14.6305 O   0  0  0  0  0  0  0  0  0  0  0  0
   22.9054   -3.7168  -16.4828 C   0  0  0  0  0  0  0  0  0  0  0  0
   23.1416   -4.9399  -15.6768 C   0  0  2  0  0  0  0  0  0  0  0  0
   23.0233   -6.1688  -16.3965 N   0  0  0  0  0  0  0  0  0  0  0  0
   22.1501   -4.9823  -14.5682 C   0  0  0  0  0  0  0  0  0  0  0  0
   21.0460   -5.6102  -14.6877 O   0  0  0  0  0  0  0  0  0  0  0  0
   22.3508   -4.3537  -13.3473 O   0  0  0  0  0  0  0  0  0  0  0  0
  2  1  1  6
  2  3  1  0
  4  3  1  0
  5  2  1  0
  6  5  2  0
  7  8  1  0
  9  8  1  1
  9 10  1  0
 10  5  1  0
 11 15  1  0
 11  9  1  0
 12 11  2  0
 14 13  1  6
 14 15  1  0
 14 16  1  0
 16 18  1  0
 17 16  2  0
M  END
$$$$
