CSA.pdb
     RDKit          3D

 18 17  0  0  1  0  0  0  0  0999 V2000
   18.5111  -10.3276  -15.4065 N   0  0  0  0  0  0  0  0  0  0  0  0
   19.8091   -9.6947  -15.5173 C   0  0  1  0  0  0  0  0  0  0  0  0
   20.3220   -9.9513  -16.9275 C   0  0  0  0  0  0  0  0  0  0  0  0
   20.7461  -11.7119  -17.0625 S   0  0  0  0  0  0  0  0  0  0  0  0
   19.7046   -8.2177  -15.2816 C   0  0  0  0  0  0  0  0  0  0  0  0
   18.7889   -7.5529  -15.8012 O   0  0  0  0  0  0  0  0  0  0  0  0
   22.7162   -6.1288  -13.2408 O   0  0  0  0  0  0  0  0  0  0  0  0
   21.4312   -5.6225  -13.1282 C   0  0  0  0  0  0  0  0  0  0  0  0
   20.6122   -6.0975  -14.3188 C   0  0  2  0  0  0  0  0  0  0  0  0
   20.6404   -7.5189  -14.4604 N   0  0  0  0  0  0  0  0  0  0  0  0
   21.1088   -5.4157  -15.5671 C   0  0  0  0  0  0  0  0  0  0  0  0
   21.7649   -6.0315  -16.4220 O   0  0  0  0  0  0  0  0  0  0  0  0
   20.7142   -3.8564  -18.2411 C   0  0  0  0  0  0  0  0  0  0  0  0
   21.2352   -3.3189  -16.9600 C   0  0  2  0  0  0  0  0  0  0  0  0
   20.8351   -4.0432  -15.7949 N   0  0  0  0  0  0  0  0  0  0  0  0
   20.7536   -1.9207  -16.7957 C   0  0  0  0  0  0  0  0  0  0  0  0
   19.8950   -1.6141  -15.9034 O   0  0  0  0  0  0  0  0  0  0  0  0
   21.1953   -0.8691  -17.5863 O   0  0  0  0  0  0  0  0  0  0  0  0
  2  1  1  6
  2  3  1  0
  4  3  1  0
  5  2  1  0
  6  5  2  0
  7  8  1  0
  9  8  1  1
  9 10  1  0
 10  5  1  0
 11 15  1  0
 11  9  1  0
 12 11  2  0
 14 13  1  6
 14 15  1  0
 14 16  1  0
 16 18  1  0
 17 16  2  0
M  END
$$$$
