CSA.pdb
     RDKit          3D

 18 17  0  0  1  0  0  0  0  0999 V2000
   21.6796  -13.2701  -17.5612 N   0  0  0  0  0  0  0  0  0  0  0  0
   22.1838  -12.3742  -16.5409 C   0  0  1  0  0  0  0  0  0  0  0  0
   23.7028  -12.3777  -16.6421 C   0  0  0  0  0  0  0  0  0  0  0  0
   24.3635  -11.4104  -15.2545 S   0  0  0  0  0  0  0  0  0  0  0  0
   21.6693  -10.9818  -16.7517 C   0  0  0  0  0  0  0  0  0  0  0  0
   21.7732  -10.4253  -17.8608 O   0  0  0  0  0  0  0  0  0  0  0  0
   19.2049   -9.1004  -13.9622 O   0  0  0  0  0  0  0  0  0  0  0  0
   19.1692   -8.7230  -15.2950 C   0  0  0  0  0  0  0  0  0  0  0  0
   20.5536   -8.9160  -15.8953 C   0  0  2  0  0  0  0  0  0  0  0  0
   21.0455  -10.2433  -15.7012 N   0  0  0  0  0  0  0  0  0  0  0  0
   21.4951   -7.8952  -15.3111 C   0  0  0  0  0  0  0  0  0  0  0  0
   22.2511   -8.1787  -14.3684 O   0  0  0  0  0  0  0  0  0  0  0  0
   22.3581   -4.2776  -16.1091 C   0  0  0  0  0  0  0  0  0  0  0  0
   22.3519   -5.5248  -15.3054 C   0  0  2  0  0  0  0  0  0  0  0  0
   21.5387   -6.5764  -15.8301 N   0  0  0  0  0  0  0  0  0  0  0  0
   21.8434   -5.2140  -13.9422 C   0  0  0  0  0  0  0  0  0  0  0  0
   20.6387   -5.4685  -13.6081 O   0  0  0  0  0  0  0  0  0  0  0  0
   22.6280   -4.6358  -12.9541 O   0  0  0  0  0  0  0  0  0  0  0  0
  2  1  1  6
  2  3  1  0
  4  3  1  0
  5  2  1  0
  6  5  2  0
  7  8  1  0
  9  8  1  1
  9 10  1  0
 10  5  1  0
 11 15  1  0
 11  9  1  0
 12 11  2  0
 14 13  1  6
 14 15  1  0
 14 16  1  0
 16 18  1  0
 17 16  2  0
M  END
$$$$
