CSA.pdb
     RDKit          3D

 18 17  0  0  1  0  0  0  0  0999 V2000
   19.8877  -11.9573  -17.9144 N   0  0  0  0  0  0  0  0  0  0  0  0
   20.2514  -10.6250  -18.3507 C   0  0  1  0  0  0  0  0  0  0  0  0
   19.3478  -10.2669  -19.5224 C   0  0  0  0  0  0  0  0  0  0  0  0
   19.9328  -11.1718  -20.9841 S   0  0  0  0  0  0  0  0  0  0  0  0
   20.0592   -9.6303  -17.2454 C   0  0  0  0  0  0  0  0  0  0  0  0
   18.9540   -9.5060  -16.6855 O   0  0  0  0  0  0  0  0  0  0  0  0
   21.6176   -6.9999  -13.6694 O   0  0  0  0  0  0  0  0  0  0  0  0
   21.9160   -7.9463  -14.6367 C   0  0  0  0  0  0  0  0  0  0  0  0
   20.9308   -7.7982  -15.7861 C   0  0  2  0  0  0  0  0  0  0  0  0
   21.1235   -8.7930  -16.7934 N   0  0  0  0  0  0  0  0  0  0  0  0
   21.0443   -6.4107  -16.3621 C   0  0  0  0  0  0  0  0  0  0  0  0
   21.9693   -6.1040  -17.1306 O   0  0  0  0  0  0  0  0  0  0  0  0
   18.7279   -3.4451  -16.5840 C   0  0  0  0  0  0  0  0  0  0  0  0
   20.0573   -4.1039  -16.6019 C   0  0  2  0  0  0  0  0  0  0  0  0
   20.0880   -5.4157  -16.0359 N   0  0  0  0  0  0  0  0  0  0  0  0
   21.0164   -3.2690  -15.8293 C   0  0  0  0  0  0  0  0  0  0  0  0
   21.3490   -2.1020  -16.2233 O   0  0  0  0  0  0  0  0  0  0  0  0
   21.6072   -3.6913  -14.6466 O   0  0  0  0  0  0  0  0  0  0  0  0
  2  1  1  1
  2  3  1  0
  4  3  1  0
  5  2  1  0
  6  5  2  0
  7  8  1  0
  9  8  1  1
  9 10  1  0
 10  5  1  0
 11 15  1  0
 11  9  1  0
 12 11  2  0
 14 13  1  1
 14 15  1  0
 14 16  1  0
 16 18  1  0
 17 16  2  0
M  END
$$$$
