CSA.pdb
     RDKit          3D

 18 17  0  0  1  0  0  0  0  0999 V2000
   22.8394  -12.9068  -16.4767 N   0  0  0  0  0  0  0  0  0  0  0  0
   23.3684  -11.6226  -16.8874 C   0  0  1  0  0  0  0  0  0  0  0  0
   24.0440  -11.8190  -18.2375 C   0  0  0  0  0  0  0  0  0  0  0  0
   25.5974  -12.7194  -17.9662 S   0  0  0  0  0  0  0  0  0  0  0  0
   22.2704  -10.6099  -17.0174 C   0  0  0  0  0  0  0  0  0  0  0  0
   21.3569  -10.7640  -17.8495 O   0  0  0  0  0  0  0  0  0  0  0  0
   21.4205   -8.1260  -13.9233 O   0  0  0  0  0  0  0  0  0  0  0  0
   20.4505   -8.3992  -14.8746 C   0  0  0  0  0  0  0  0  0  0  0  0
   21.1218   -8.5336  -16.2330 C   0  0  2  0  0  0  0  0  0  0  0  0
   22.2265   -9.4391  -16.2017 N   0  0  0  0  0  0  0  0  0  0  0  0
   21.5479   -7.1708  -16.7135 C   0  0  0  0  0  0  0  0  0  0  0  0
   22.6693   -6.7123  -16.4440 O   0  0  0  0  0  0  0  0  0  0  0  0
   20.1298   -4.6287  -19.1326 C   0  0  0  0  0  0  0  0  0  0  0  0
   20.9923   -5.0849  -18.0147 C   0  0  2  0  0  0  0  0  0  0  0  0
   20.6692   -6.3748  -17.4914 N   0  0  0  0  0  0  0  0  0  0  0  0
   20.8771   -4.1138  -16.8934 C   0  0  0  0  0  0  0  0  0  0  0  0
   20.1974   -4.3834  -15.8479 O   0  0  0  0  0  0  0  0  0  0  0  0
   21.4890   -2.8682  -16.9034 O   0  0  0  0  0  0  0  0  0  0  0  0
  2  1  1  6
  2  3  1  0
  4  3  1  0
  5  2  1  0
  6  5  2  0
  7  8  1  0
  9  8  1  1
  9 10  1  0
 10  5  1  0
 11 15  1  0
 11  9  1  0
 12 11  2  0
 14 13  1  6
 14 15  1  0
 14 16  1  0
 16 18  1  0
 17 16  2  0
M  END
$$$$
