CSA.pdb
     RDKit          3D

 18 17  0  0  1  0  0  0  0  0999 V2000
   17.8221  -11.2743  -17.0534 N   0  0  0  0  0  0  0  0  0  0  0  0
   18.8631  -10.2925  -17.2775 C   0  0  1  0  0  0  0  0  0  0  0  0
   18.4825   -9.5011  -18.5211 C   0  0  0  0  0  0  0  0  0  0  0  0
   18.7210  -10.5728  -19.9675 S   0  0  0  0  0  0  0  0  0  0  0  0
   18.9811   -9.3630  -16.1069 C   0  0  0  0  0  0  0  0  0  0  0  0
   17.9650   -8.9375  -15.5264 O   0  0  0  0  0  0  0  0  0  0  0  0
   22.5266   -8.9476  -14.0068 O   0  0  0  0  0  0  0  0  0  0  0  0
   21.3012   -8.6828  -13.4165 C   0  0  0  0  0  0  0  0  0  0  0  0
   20.3710   -8.0913  -14.4647 C   0  0  2  0  0  0  0  0  0  0  0  0
   20.2495   -8.9315  -15.6140 N   0  0  0  0  0  0  0  0  0  0  0  0
   20.8592   -6.7173  -14.8436 C   0  0  0  0  0  0  0  0  0  0  0  0
   21.7143   -6.5569  -15.7287 O   0  0  0  0  0  0  0  0  0  0  0  0
   19.8059   -3.1811  -13.9707 C   0  0  0  0  0  0  0  0  0  0  0  0
   20.7129   -4.2229  -14.5125 C   0  0  2  0  0  0  0  0  0  0  0  0
   20.3478   -5.5667  -14.1914 N   0  0  0  0  0  0  0  0  0  0  0  0
   22.0800   -3.9972  -13.9705 C   0  0  0  0  0  0  0  0  0  0  0  0
   22.7890   -3.0057  -14.3473 O   0  0  0  0  0  0  0  0  0  0  0  0
   22.6716   -4.8330  -13.0337 O   0  0  0  0  0  0  0  0  0  0  0  0
  2  1  1  1
  2  3  1  0
  4  3  1  0
  5  2  1  0
  6  5  2  0
  7  8  1  0
  9  8  1  1
  9 10  1  0
 10  5  1  0
 11 15  1  0
 11  9  1  0
 12 11  2  0
 14 13  1  1
 14 15  1  0
 14 16  1  0
 16 18  1  0
 17 16  2  0
M  END
$$$$
