CSA.pdb
     RDKit          3D

 18 17  0  0  1  0  0  0  0  0999 V2000
   17.2211  -15.6043  -17.7514 N   0  0  0  0  0  0  0  0  0  0  0  0
   17.7825  -14.8310  -16.6630 C   0  0  1  0  0  0  0  0  0  0  0  0
   18.7669  -15.7292  -15.9268 C   0  0  0  0  0  0  0  0  0  0  0  0
   17.8202  -16.8312  -14.8374 S   0  0  0  0  0  0  0  0  0  0  0  0
   18.4984  -13.6202  -17.1822 C   0  0  0  0  0  0  0  0  0  0  0  0
   18.7535  -13.5024  -18.3953 O   0  0  0  0  0  0  0  0  0  0  0  0
   18.8404   -9.4218  -18.1475 O   0  0  0  0  0  0  0  0  0  0  0  0
   18.3104  -10.6054  -17.6593 C   0  0  0  0  0  0  0  0  0  0  0  0
   19.3684  -11.3056  -16.8200 C   0  0  2  0  0  0  0  0  0  0  0  0
   18.9130  -12.5629  -16.3171 N   0  0  0  0  0  0  0  0  0  0  0  0
   19.7973  -10.3939  -15.6999 C   0  0  0  0  0  0  0  0  0  0  0  0
   19.0717  -10.1987  -14.7121 O   0  0  0  0  0  0  0  0  0  0  0  0
   22.9822   -8.4860  -14.8849 C   0  0  0  0  0  0  0  0  0  0  0  0
   21.5633   -8.8867  -14.7188 C   0  0  2  0  0  0  0  0  0  0  0  0
   21.0508   -9.7329  -15.7500 N   0  0  0  0  0  0  0  0  0  0  0  0
   20.7190   -7.6618  -14.6950 C   0  0  0  0  0  0  0  0  0  0  0  0
   19.9734   -7.3492  -15.6819 O   0  0  0  0  0  0  0  0  0  0  0  0
   20.6823   -6.7873  -13.6180 O   0  0  0  0  0  0  0  0  0  0  0  0
  2  1  1  6
  2  3  1  0
  4  3  1  0
  5  2  1  0
  6  5  2  0
  7  8  1  0
  9  8  1  1
  9 10  1  0
 10  5  1  0
 11 15  1  0
 11  9  1  0
 12 11  2  0
 14 13  1  6
 14 15  1  0
 14 16  1  0
 16 18  1  0
 17 16  2  0
M  END
$$$$
