CSA.pdb
     RDKit          3D

 18 17  0  0  1  0  0  0  0  0999 V2000
   13.2073   -9.0540   -9.1864 N   0  0  0  0  0  0  0  0  0  0  0  0
   14.6347   -9.2814   -9.2784 C   0  0  1  0  0  0  0  0  0  0  0  0
   14.8412  -10.5651  -10.0704 C   0  0  0  0  0  0  0  0  0  0  0  0
   16.6258  -10.8856  -10.1714 S   0  0  0  0  0  0  0  0  0  0  0  0
   15.3124   -8.1432   -9.9807 C   0  0  0  0  0  0  0  0  0  0  0  0
   14.9144   -7.7545  -11.0947 O   0  0  0  0  0  0  0  0  0  0  0  0
   17.4143   -4.0114   -9.9557 O   0  0  0  0  0  0  0  0  0  0  0  0
   16.9622   -5.0830   -9.2023 C   0  0  0  0  0  0  0  0  0  0  0  0
   17.0470   -6.3452  -10.0470 C   0  0  2  0  0  0  0  0  0  0  0  0
   16.4302   -7.4644   -9.4080 N   0  0  0  0  0  0  0  0  0  0  0  0
   18.4904   -6.6302  -10.3708 C   0  0  0  0  0  0  0  0  0  0  0  0
   19.2804   -7.0313   -9.5016 O   0  0  0  0  0  0  0  0  0  0  0  0
   20.4311   -7.4418  -13.4029 C   0  0  0  0  0  0  0  0  0  0  0  0
   20.3188   -6.7360  -12.1025 C   0  0  2  0  0  0  0  0  0  0  0  0
   18.9826   -6.4449  -11.6877 N   0  0  0  0  0  0  0  0  0  0  0  0
   21.0423   -5.4393  -12.1970 C   0  0  0  0  0  0  0  0  0  0  0  0
   20.4148   -4.3359  -12.3248 O   0  0  0  0  0  0  0  0  0  0  0  0
   22.4258   -5.3384  -12.1536 O   0  0  0  0  0  0  0  0  0  0  0  0
  2  1  1  6
  2  3  1  0
  4  3  1  0
  5  2  1  0
  6  5  2  0
  7  8  1  0
  9  8  1  1
  9 10  1  0
 10  5  1  0
 11 15  1  0
 11  9  1  0
 12 11  2  0
 14 13  1  6
 14 15  1  0
 14 16  1  0
 16 18  1  0
 17 16  2  0
M  END
$$$$
