CSA.pdb
     RDKit          3D

 18 17  0  0  1  0  0  0  0  0999 V2000
   24.3386  -20.1805  -14.5592 N   0  0  0  0  0  0  0  0  0  0  0  0
   25.3928  -19.2573  -14.9258 C   0  0  1  0  0  0  0  0  0  0  0  0
   26.2815  -19.9610  -15.9419 C   0  0  0  0  0  0  0  0  0  0  0  0
   27.3318  -21.1439  -15.0503 S   0  0  0  0  0  0  0  0  0  0  0  0
   24.8231  -18.0110  -15.5343 C   0  0  0  0  0  0  0  0  0  0  0  0
   23.7215  -18.0314  -16.1144 O   0  0  0  0  0  0  0  0  0  0  0  0
   26.8118  -14.3616  -15.1857 O   0  0  0  0  0  0  0  0  0  0  0  0
   25.4337  -14.3191  -15.3245 C   0  0  0  0  0  0  0  0  0  0  0  0
   24.9770  -15.5719  -16.0565 C   0  0  2  0  0  0  0  0  0  0  0  0
   25.5121  -16.7620  -15.4747 N   0  0  0  0  0  0  0  0  0  0  0  0
   25.3510  -15.4612  -17.5117 C   0  0  0  0  0  0  0  0  0  0  0  0
   26.4141  -15.9346  -17.9433 O   0  0  0  0  0  0  0  0  0  0  0  0
   23.6455  -14.1099  -20.6275 C   0  0  0  0  0  0  0  0  0  0  0  0
   24.7843  -14.5978  -19.8109 C   0  0  2  0  0  0  0  0  0  0  0  0
   24.4889  -14.8078  -18.4286 N   0  0  0  0  0  0  0  0  0  0  0  0
   25.8852  -13.5993  -19.8787 C   0  0  0  0  0  0  0  0  0  0  0  0
   26.6780  -13.5508  -20.8772 O   0  0  0  0  0  0  0  0  0  0  0  0
   26.1249  -12.6663  -18.8797 O   0  0  0  0  0  0  0  0  0  0  0  0
  2  1  1  6
  2  3  1  0
  4  3  1  0
  5  2  1  0
  6  5  2  0
  7  8  1  0
  9  8  1  1
  9 10  1  0
 10  5  1  0
 11 15  1  0
 11  9  1  0
 12 11  2  0
 14 13  1  6
 14 15  1  0
 14 16  1  0
 16 18  1  0
 17 16  2  0
M  END
$$$$
