VGH.pdb
     RDKit          3D

 22 22  0  0  1  0  0  0  0  0999 V2000
   17.6210  -19.9221    3.1548 C   0  0  0  0  0  0  0  0  0  0  0  0
   16.2172  -20.3492    3.5203 C   0  0  2  0  0  0  0  0  0  0  0  0
   15.5745  -20.9026    2.2643 C   0  0  0  0  0  0  0  0  0  0  0  0
   15.3698  -19.1867    3.9740 C   0  0  2  0  0  0  0  0  0  0  0  0
   15.3334  -18.2299    2.8876 N   0  0  0  0  0  0  0  0  0  0  0  0
   15.8621  -18.5277    5.1788 C   0  0  0  0  0  0  0  0  0  0  0  0
   15.8363  -19.1287    6.2814 O   0  0  0  0  0  0  0  0  0  0  0  0
   16.3942  -17.1965    5.2073 N   0  0  0  0  0  0  0  0  0  0  0  0
   16.8107  -16.5249    6.3903 C   0  0  0  0  0  0  0  0  0  0  0  0
   18.2833  -16.5072    6.5725 C   0  0  0  0  0  0  0  0  0  0  0  0
   18.9738  -17.1959    5.7805 O   0  0  0  0  0  0  0  0  0  0  0  0
   18.9435  -15.7641    7.5797 N   0  0  0  0  0  0  0  0  0  0  0  0
   20.3959  -15.7008    7.7036 C   0  0  1  0  0  0  0  0  0  0  0  0
   20.8812  -14.4179    8.2427 C   0  0  0  0  0  0  0  0  0  0  0  0
   20.4079  -13.2678    7.4595 C   0  0  0  0  0  0  0  0  0  0  0  0
   20.9727  -12.7791    6.2834 C   0  0  0  0  0  0  0  0  0  0  0  0
   20.2664  -11.7165    5.8554 N   0  0  0  0  0  0  0  0  0  0  0  0
   19.2684  -11.5176    6.7281 C   0  0  0  0  0  0  0  0  0  0  0  0
   19.3625  -12.4641    7.6983 N   0  0  0  0  0  0  0  0  0  0  0  0
   20.9164  -16.8502    8.4705 C   0  0  0  0  0  0  0  0  0  0  0  0
   22.1347  -17.1094    8.4484 O   0  0  0  0  0  0  0  0  0  0  0  0
   20.0871  -17.6655    9.2269 O   0  0  0  0  0  0  0  0  0  0  0  0
  2  1  1  6
  2  3  1  0
  4  6  1  0
  4  2  1  0
  4  5  1  6
  6  8  1  0
  7  6  2  0
  8  9  1  0
  9 10  1  0
 10 12  1  0
 10 11  2  0
 12 13  1  0
 13 14  1  1
 14 15  1  0
 15 19  1  0
 16 17  1  0
 16 15  2  0
 17 18  1  0
 18 19  2  0
 20 13  1  0
 20 22  1  0
 21 20  2  0
M  END
$$$$
