VGH.pdb
     RDKit          3D

 22 22  0  0  1  0  0  0  0  0999 V2000
   25.7302  -22.0293  -18.2313 C   0  0  0  0  0  0  0  0  0  0  0  0
   25.9705  -20.9208  -19.2314 C   0  0  2  0  0  0  0  0  0  0  0  0
   27.4602  -20.8787  -19.5063 C   0  0  0  0  0  0  0  0  0  0  0  0
   25.5845  -19.5690  -18.6845 C   0  0  2  0  0  0  0  0  0  0  0  0
   26.5163  -19.2516  -17.6225 N   0  0  0  0  0  0  0  0  0  0  0  0
   24.2230  -19.5057  -18.1644 C   0  0  0  0  0  0  0  0  0  0  0  0
   23.2472  -19.7271  -18.9236 O   0  0  0  0  0  0  0  0  0  0  0  0
   23.8956  -19.1990  -16.8026 N   0  0  0  0  0  0  0  0  0  0  0  0
   22.5687  -19.1231  -16.2947 C   0  0  0  0  0  0  0  0  0  0  0  0
   22.2729  -20.1441  -15.2594 C   0  0  0  0  0  0  0  0  0  0  0  0
   22.8261  -21.2660  -15.3767 O   0  0  0  0  0  0  0  0  0  0  0  0
   21.4104  -19.9236  -14.1594 N   0  0  0  0  0  0  0  0  0  0  0  0
   21.1706  -20.9191  -13.1199 C   0  0  1  0  0  0  0  0  0  0  0  0
   21.7201  -20.5371  -11.8070 C   0  0  0  0  0  0  0  0  0  0  0  0
   23.1574  -20.8239  -11.6978 C   0  0  0  0  0  0  0  0  0  0  0  0
   23.9873  -21.2911  -12.7147 C   0  0  0  0  0  0  0  0  0  0  0  0
   25.2387  -21.4346  -12.2410 N   0  0  0  0  0  0  0  0  0  0  0  0
   25.2256  -21.0711  -10.9507 C   0  0  0  0  0  0  0  0  0  0  0  0
   23.9580  -20.7019  -10.6301 N   0  0  0  0  0  0  0  0  0  0  0  0
   19.7381  -21.2670  -13.0349 C   0  0  0  0  0  0  0  0  0  0  0  0
   19.3946  -22.3678  -12.5635 O   0  0  0  0  0  0  0  0  0  0  0  0
   18.7442  -20.4009  -13.4670 O   0  0  0  0  0  0  0  0  0  0  0  0
  2  1  1  1
  2  3  1  0
  4  6  1  0
  4  2  1  0
  4  5  1  1
  6  8  1  0
  7  6  2  0
  8  9  1  0
  9 10  1  0
 10 12  1  0
 10 11  2  0
 12 13  1  0
 13 14  1  1
 14 15  1  0
 15 19  1  0
 16 17  1  0
 16 15  2  0
 17 18  1  0
 18 19  2  0
 20 13  1  0
 20 22  1  0
 21 20  2  0
M  END
$$$$
