VGH.pdb
     RDKit          3D

 22 22  0  0  1  0  0  0  0  0999 V2000
   24.3329  -13.0284  -14.8777 C   0  0  0  0  0  0  0  0  0  0  0  0
   23.4105  -13.5975  -15.9322 C   0  0  2  0  0  0  0  0  0  0  0  0
   24.2575  -14.4453  -16.8599 C   0  0  0  0  0  0  0  0  0  0  0  0
   22.7777  -12.5187  -16.7754 C   0  0  2  0  0  0  0  0  0  0  0  0
   23.8482  -11.8182  -17.4539 N   0  0  0  0  0  0  0  0  0  0  0  0
   21.9826  -11.5606  -16.0149 C   0  0  0  0  0  0  0  0  0  0  0  0
   20.8819  -11.9077  -15.5191 O   0  0  0  0  0  0  0  0  0  0  0  0
   22.3712  -10.2009  -15.7782 N   0  0  0  0  0  0  0  0  0  0  0  0
   21.6866   -9.3124  -14.9030 C   0  0  0  0  0  0  0  0  0  0  0  0
   21.0316   -8.1803  -15.6040 C   0  0  0  0  0  0  0  0  0  0  0  0
   21.4144   -7.9223  -16.7725 O   0  0  0  0  0  0  0  0  0  0  0  0
   20.0102   -7.3850  -15.0325 N   0  0  0  0  0  0  0  0  0  0  0  0
   19.2944   -6.3509  -15.7724 C   0  0  1  0  0  0  0  0  0  0  0  0
   17.8430   -6.3482  -15.5171 C   0  0  0  0  0  0  0  0  0  0  0  0
   17.2073   -7.6194  -15.8912 C   0  0  0  0  0  0  0  0  0  0  0  0
   17.1992   -8.1989  -17.1582 C   0  0  0  0  0  0  0  0  0  0  0  0
   16.5203   -9.3600  -17.1151 N   0  0  0  0  0  0  0  0  0  0  0  0
   16.0971   -9.5332  -15.8549 C   0  0  0  0  0  0  0  0  0  0  0  0
   16.5190   -8.4717  -15.1194 N   0  0  0  0  0  0  0  0  0  0  0  0
   19.8939   -5.0208  -15.5452 C   0  0  0  0  0  0  0  0  0  0  0  0
   19.4757   -4.0355  -16.1825 O   0  0  0  0  0  0  0  0  0  0  0  0
   20.9217   -4.8234  -14.6346 O   0  0  0  0  0  0  0  0  0  0  0  0
  2  1  1  1
  2  3  1  0
  4  6  1  0
  4  2  1  0
  4  5  1  1
  6  8  1  0
  7  6  2  0
  8  9  1  0
  9 10  1  0
 10 12  1  0
 10 11  2  0
 12 13  1  0
 13 14  1  1
 14 15  1  0
 15 19  1  0
 16 17  1  0
 16 15  2  0
 17 18  1  0
 18 19  2  0
 20 13  1  0
 20 22  1  0
 21 20  2  0
M  END
$$$$
