VGH.pdb
     RDKit          3D

 22 22  0  0  1  0  0  0  0  0999 V2000
   28.5437  -15.5672  -16.9175 C   0  0  0  0  0  0  0  0  0  0  0  0
   28.3749  -16.3803  -18.1812 C   0  0  2  0  0  0  0  0  0  0  0  0
   28.0486  -15.4106  -19.2992 C   0  0  0  0  0  0  0  0  0  0  0  0
   27.2209  -17.3469  -18.0849 C   0  0  2  0  0  0  0  0  0  0  0  0
   26.0461  -16.6673  -18.5896 N   0  0  0  0  0  0  0  0  0  0  0  0
   26.9567  -17.8230  -16.7314 C   0  0  0  0  0  0  0  0  0  0  0  0
   27.6190  -18.7801  -16.2593 O   0  0  0  0  0  0  0  0  0  0  0  0
   25.9626  -17.2646  -15.8620 N   0  0  0  0  0  0  0  0  0  0  0  0
   25.7421  -17.6864  -14.5213 C   0  0  0  0  0  0  0  0  0  0  0  0
   24.8569  -18.8724  -14.4129 C   0  0  0  0  0  0  0  0  0  0  0  0
   23.9349  -18.9869  -15.2586 O   0  0  0  0  0  0  0  0  0  0  0  0
   24.9947  -19.8699  -13.4187 N   0  0  0  0  0  0  0  0  0  0  0  0
   24.1247  -21.0381  -13.3329 C   0  0  1  0  0  0  0  0  0  0  0  0
   24.6334  -22.0802  -12.4234 C   0  0  0  0  0  0  0  0  0  0  0  0
   24.8383  -21.5783  -11.0574 C   0  0  0  0  0  0  0  0  0  0  0  0
   25.9790  -20.9424  -10.5721 C   0  0  0  0  0  0  0  0  0  0  0  0
   25.7986  -20.6265   -9.2764 N   0  0  0  0  0  0  0  0  0  0  0  0
   24.5739  -21.0447   -8.9262 C   0  0  0  0  0  0  0  0  0  0  0  0
   23.9987  -21.6211  -10.0137 N   0  0  0  0  0  0  0  0  0  0  0  0
   22.7397  -20.6484  -13.0006 C   0  0  0  0  0  0  0  0  0  0  0  0
   22.5184  -19.5485  -12.4591 O   0  0  0  0  0  0  0  0  0  0  0  0
   21.6583  -21.4735  -13.2730 O   0  0  0  0  0  0  0  0  0  0  0  0
  2  1  1  1
  2  3  1  0
  4  6  1  0
  4  2  1  0
  4  5  1  1
  6  8  1  0
  7  6  2  0
  8  9  1  0
  9 10  1  0
 10 12  1  0
 10 11  2  0
 12 13  1  0
 13 14  1  1
 14 15  1  0
 15 19  1  0
 16 17  1  0
 16 15  2  0
 17 18  1  0
 18 19  2  0
 20 13  1  0
 20 22  1  0
 21 20  2  0
M  END
$$$$
