VGH.pdb
     RDKit          3D

 22 22  0  0  1  0  0  0  0  0999 V2000
   21.4552  -10.2535  -18.2524 C   0  0  0  0  0  0  0  0  0  0  0  0
   22.5183  -11.1945  -18.7729 C   0  0  2  0  0  0  0  0  0  0  0  0
   21.8944  -12.5728  -18.8610 C   0  0  0  0  0  0  0  0  0  0  0  0
   23.6925  -11.3011  -17.8321 C   0  0  2  0  0  0  0  0  0  0  0  0
   23.2691  -12.1040  -16.7037 N   0  0  0  0  0  0  0  0  0  0  0  0
   24.1853  -10.0156  -17.3495 C   0  0  0  0  0  0  0  0  0  0  0  0
   24.8026   -9.2453  -18.1262 O   0  0  0  0  0  0  0  0  0  0  0  0
   24.0152   -9.5413  -16.0071 N   0  0  0  0  0  0  0  0  0  0  0  0
   24.4328   -8.2602  -15.5506 C   0  0  0  0  0  0  0  0  0  0  0  0
   23.4148   -7.1998  -15.7534 C   0  0  0  0  0  0  0  0  0  0  0  0
   23.0768   -6.9389  -16.9349 O   0  0  0  0  0  0  0  0  0  0  0  0
   22.8114   -6.4751  -14.6983 N   0  0  0  0  0  0  0  0  0  0  0  0
   21.8848   -5.3692  -14.9161 C   0  0  1  0  0  0  0  0  0  0  0  0
   20.5279   -5.6344  -14.4060 C   0  0  0  0  0  0  0  0  0  0  0  0
   19.7991   -6.6049  -15.2347 C   0  0  0  0  0  0  0  0  0  0  0  0
   20.3065   -7.3066  -16.3262 C   0  0  0  0  0  0  0  0  0  0  0  0
   19.3465   -8.1023  -16.8324 N   0  0  0  0  0  0  0  0  0  0  0  0
   18.2433   -7.9246  -16.0917 C   0  0  0  0  0  0  0  0  0  0  0  0
   18.5278   -7.0140  -15.1244 N   0  0  0  0  0  0  0  0  0  0  0  0
   22.4318   -4.1033  -14.3881 C   0  0  0  0  0  0  0  0  0  0  0  0
   23.4545   -4.1189  -13.6770 O   0  0  0  0  0  0  0  0  0  0  0  0
   21.8407   -2.8776  -14.6583 O   0  0  0  0  0  0  0  0  0  0  0  0
  2  1  1  1
  2  3  1  0
  4  6  1  0
  4  2  1  0
  4  5  1  1
  6  8  1  0
  7  6  2  0
  8  9  1  0
  9 10  1  0
 10 12  1  0
 10 11  2  0
 12 13  1  0
 13 14  1  1
 14 15  1  0
 15 19  1  0
 16 17  1  0
 16 15  2  0
 17 18  1  0
 18 19  2  0
 20 13  1  0
 20 22  1  0
 21 20  2  0
M  END
$$$$
