CWW.pdb
     RDKit          3D

 35 38  0  0  1  0  0  0  0  0999 V2000
    7.0060  -17.2274   20.2570 N   0  0  0  0  0  0  0  0  0  0  0  0
    7.7362  -17.7989   21.3736 C   0  0  1  0  0  0  0  0  0  0  0  0
    8.6759  -18.8695   20.8515 C   0  0  0  0  0  0  0  0  0  0  0  0
    9.4188  -19.6765   22.3177 S   0  0  0  0  0  0  0  0  0  0  0  0
    8.4299  -16.7311   22.0943 C   0  0  0  0  0  0  0  0  0  0  0  0
    9.0703  -15.8218   21.4580 O   0  0  0  0  0  0  0  0  0  0  0  0
    8.4649  -16.5965   23.5065 N   0  0  0  0  0  0  0  0  0  0  0  0
    9.2061  -15.5487   24.2027 C   0  0  1  0  0  0  0  0  0  0  0  0
    8.5228  -15.3720   25.5333 C   0  0  0  0  0  0  0  0  0  0  0  0
    7.2092  -14.7042   25.5024 C   0  0  0  0  0  0  0  0  0  0  0  0
    6.0193  -15.4140   25.4663 C   0  0  0  0  0  0  0  0  0  0  0  0
    5.0376  -14.5251   25.4002 N   0  0  0  0  0  0  0  0  0  0  0  0
    5.4958  -13.2746   25.3912 C   0  0  0  0  0  0  0  0  0  0  0  0
    4.8776  -12.0253   25.3504 C   0  0  0  0  0  0  0  0  0  0  0  0
    5.6643  -10.8946   25.3778 C   0  0  0  0  0  0  0  0  0  0  0  0
    7.0232  -10.9975   25.4437 C   0  0  0  0  0  0  0  0  0  0  0  0
    7.6485  -12.2224   25.4839 C   0  0  0  0  0  0  0  0  0  0  0  0
    6.8599  -13.3672   25.4555 C   0  0  0  0  0  0  0  0  0  0  0  0
   10.6263  -15.8331   24.3838 C   0  0  0  0  0  0  0  0  0  0  0  0
   11.3866  -14.8367   24.4672 O   0  0  0  0  0  0  0  0  0  0  0  0
   11.2061  -17.0985   24.4719 N   0  0  0  0  0  0  0  0  0  0  0  0
   12.5054  -17.4565   24.8600 C   0  0  1  0  0  0  0  0  0  0  0  0
   12.7235  -18.1771   26.1584 C   0  0  0  0  0  0  0  0  0  0  0  0
   11.7744  -17.8459   27.2346 C   0  0  0  0  0  0  0  0  0  0  0  0
   10.8843  -18.6459   27.8911 C   0  0  0  0  0  0  0  0  0  0  0  0
   10.2236  -17.9231   28.8398 N   0  0  0  0  0  0  0  0  0  0  0  0
   10.6575  -16.6670   28.8244 C   0  0  0  0  0  0  0  0  0  0  0  0
   10.3417  -15.5553   29.5527 C   0  0  0  0  0  0  0  0  0  0  0  0
   10.9634  -14.3311   29.3347 C   0  0  0  0  0  0  0  0  0  0  0  0
   11.9305  -14.2549   28.3448 C   0  0  0  0  0  0  0  0  0  0  0  0
   12.2569  -15.3887   27.5970 C   0  0  0  0  0  0  0  0  0  0  0  0
   11.6194  -16.5846   27.8410 C   0  0  0  0  0  0  0  0  0  0  0  0
   13.3707  -18.0469   23.8200 C   0  0  0  0  0  0  0  0  0  0  0  0
   14.5923  -18.2122   23.9516 O   0  0  0  0  0  0  0  0  0  0  0  0
   12.7405  -18.4329   22.6237 O   0  0  0  0  0  0  0  0  0  0  0  0
  2  1  1  6
  2  3  1  0
  3  4  1  0
  5  2  1  0
  5  6  2  0
  7  5  1  0
  8  7  1  0
  9 10  1  0
  8  9  1  1
 10 11  2  0
 11 12  1  0
 13 12  1  0
 14 13  2  0
 15 14  1  0
 16 17  1  0
 16 15  2  0
 17 18  2  0
 18 10  1  0
 18 13  1  0
 19 21  1  0
 19  8  1  0
 20 19  2  0
 22 21  1  0
 22 33  1  0
 22 23  1  1
 24 23  1  0
 25 24  2  0
 26 25  1  0
 27 26  1  0
 27 32  2  0
 28 29  2  0
 28 27  1  0
 29 30  1  0
 30 31  2  0
 32 31  1  0
 32 24  1  0
 33 34  2  0
 33 35  1  0
M  END
$$$$
