CWW.pdb
     RDKit          3D

 35 38  0  0  1  0  0  0  0  0999 V2000
    8.7801  -18.2685   18.4147 N   0  0  0  0  0  0  0  0  0  0  0  0
    9.6298  -17.0931   18.3587 C   0  0  1  0  0  0  0  0  0  0  0  0
    9.1384  -16.1822   17.2493 C   0  0  0  0  0  0  0  0  0  0  0  0
    7.3995  -15.7657   17.6435 S   0  0  0  0  0  0  0  0  0  0  0  0
    9.6418  -16.4428   19.6694 C   0  0  0  0  0  0  0  0  0  0  0  0
   10.4622  -15.4909   19.9195 O   0  0  0  0  0  0  0  0  0  0  0  0
    8.7870  -16.7818   20.7500 N   0  0  0  0  0  0  0  0  0  0  0  0
    8.8374  -16.1339   22.0576 C   0  0  1  0  0  0  0  0  0  0  0  0
    7.5147  -15.4330   22.2240 C   0  0  0  0  0  0  0  0  0  0  0  0
    7.1814  -14.9965   23.5918 C   0  0  0  0  0  0  0  0  0  0  0  0
    6.7180  -15.8766   24.5569 C   0  0  0  0  0  0  0  0  0  0  0  0
    6.4737  -15.1644   25.6483 N   0  0  0  0  0  0  0  0  0  0  0  0
    6.7447  -13.8724   25.4726 C   0  0  0  0  0  0  0  0  0  0  0  0
    6.6723  -12.7541   26.3027 C   0  0  0  0  0  0  0  0  0  0  0  0
    7.0595  -11.5303   25.8022 C   0  0  0  0  0  0  0  0  0  0  0  0
    7.5053  -11.4165   24.5178 C   0  0  0  0  0  0  0  0  0  0  0  0
    7.5820  -12.5098   23.6859 C   0  0  0  0  0  0  0  0  0  0  0  0
    7.1917  -13.7476   24.1850 C   0  0  0  0  0  0  0  0  0  0  0  0
    9.0855  -17.0432   23.1722 C   0  0  0  0  0  0  0  0  0  0  0  0
    8.0758  -17.5993   23.6712 O   0  0  0  0  0  0  0  0  0  0  0  0
   10.3299  -17.3456   23.7245 N   0  0  0  0  0  0  0  0  0  0  0  0
   11.3572  -16.4810   24.1295 C   0  0  1  0  0  0  0  0  0  0  0  0
   11.0980  -15.4688   25.2070 C   0  0  0  0  0  0  0  0  0  0  0  0
   10.6338  -16.0164   26.4929 C   0  0  0  0  0  0  0  0  0  0  0  0
   10.3068  -17.2983   26.8294 C   0  0  0  0  0  0  0  0  0  0  0  0
    9.9537  -17.3564   28.1450 N   0  0  0  0  0  0  0  0  0  0  0  0
   10.0409  -16.1443   28.6830 C   0  0  0  0  0  0  0  0  0  0  0  0
    9.8105  -15.6548   29.9373 C   0  0  0  0  0  0  0  0  0  0  0  0
    9.9861  -14.3109   30.2470 C   0  0  0  0  0  0  0  0  0  0  0  0
   10.4084  -13.4567   29.2404 C   0  0  0  0  0  0  0  0  0  0  0  0
   10.6452  -13.9523   27.9561 C   0  0  0  0  0  0  0  0  0  0  0  0
   10.4600  -15.2898   27.6863 C   0  0  0  0  0  0  0  0  0  0  0  0
   12.6905  -17.0816   24.3312 C   0  0  0  0  0  0  0  0  0  0  0  0
   12.9112  -18.3006   24.2885 O   0  0  0  0  0  0  0  0  0  0  0  0
   13.7485  -16.1905   24.5845 O   0  0  0  0  0  0  0  0  0  0  0  0
  2  1  1  1
  2  3  1  0
  3  4  1  0
  5  2  1  0
  5  6  2  0
  7  5  1  0
  8  7  1  0
  9 10  1  0
  8  9  1  1
 10 11  2  0
 11 12  1  0
 13 12  1  0
 14 13  2  0
 15 14  1  0
 16 17  1  0
 16 15  2  0
 17 18  2  0
 18 10  1  0
 18 13  1  0
 19 21  1  0
 19  8  1  0
 20 19  2  0
 22 21  1  0
 22 33  1  0
 22 23  1  1
 24 23  1  0
 25 24  2  0
 26 25  1  0
 27 26  1  0
 27 32  2  0
 28 29  2  0
 28 27  1  0
 29 30  1  0
 30 31  2  0
 32 31  1  0
 32 24  1  0
 33 34  2  0
 33 35  1  0
M  END
$$$$
