CWW.pdb
     RDKit          3D

 35 38  0  0  1  0  0  0  0  0999 V2000
    8.3515  -21.1947   20.8117 N   0  0  0  0  0  0  0  0  0  0  0  0
    8.2855  -20.8103   22.2098 C   0  0  1  0  0  0  0  0  0  0  0  0
    9.1951  -21.7199   23.0143 C   0  0  0  0  0  0  0  0  0  0  0  0
   10.8156  -20.8750   23.1274 S   0  0  0  0  0  0  0  0  0  0  0  0
    8.6332  -19.3949   22.3385 C   0  0  0  0  0  0  0  0  0  0  0  0
    9.4726  -18.8523   21.5367 O   0  0  0  0  0  0  0  0  0  0  0  0
    8.1028  -18.5159   23.3181 N   0  0  0  0  0  0  0  0  0  0  0  0
    8.4939  -17.1150   23.4470 C   0  0  1  0  0  0  0  0  0  0  0  0
    7.2664  -16.3844   23.9246 C   0  0  0  0  0  0  0  0  0  0  0  0
    7.3496  -14.9129   23.9278 C   0  0  0  0  0  0  0  0  0  0  0  0
    7.7494  -14.1922   22.8134 C   0  0  0  0  0  0  0  0  0  0  0  0
    7.7588  -12.9124   23.1603 N   0  0  0  0  0  0  0  0  0  0  0  0
    7.3914  -12.7358   24.4281 C   0  0  0  0  0  0  0  0  0  0  0  0
    7.2304  -11.6088   25.2335 C   0  0  0  0  0  0  0  0  0  0  0  0
    6.8034  -11.7772   26.5325 C   0  0  0  0  0  0  0  0  0  0  0  0
    6.5432  -13.0246   27.0201 C   0  0  0  0  0  0  0  0  0  0  0  0
    6.6977  -14.1465   26.2388 C   0  0  0  0  0  0  0  0  0  0  0  0
    7.1294  -13.9831   24.9271 C   0  0  0  0  0  0  0  0  0  0  0  0
    9.6180  -16.8832   24.3487 C   0  0  0  0  0  0  0  0  0  0  0  0
    9.3351  -16.4241   25.4832 O   0  0  0  0  0  0  0  0  0  0  0  0
   10.9621  -17.1243   24.0651 N   0  0  0  0  0  0  0  0  0  0  0  0
   12.0192  -16.2132   23.9261 C   0  0  1  0  0  0  0  0  0  0  0  0
   12.2554  -15.1782   24.9872 C   0  0  0  0  0  0  0  0  0  0  0  0
   11.9959  -15.6161   26.3691 C   0  0  0  0  0  0  0  0  0  0  0  0
   12.6894  -16.4931   27.1523 C   0  0  0  0  0  0  0  0  0  0  0  0
   12.1052  -16.5790   28.3812 N   0  0  0  0  0  0  0  0  0  0  0  0
   11.0445  -15.7795   28.4265 C   0  0  0  0  0  0  0  0  0  0  0  0
   10.1274  -15.4900   29.3965 C   0  0  0  0  0  0  0  0  0  0  0  0
    9.0896  -14.5899   29.1836 C   0  0  0  0  0  0  0  0  0  0  0  0
    8.9983  -13.9770   27.9438 C   0  0  0  0  0  0  0  0  0  0  0  0
    9.9334  -14.2699   26.9483 C   0  0  0  0  0  0  0  0  0  0  0  0
   10.9479  -15.1674   27.1955 C   0  0  0  0  0  0  0  0  0  0  0  0
   13.3147  -16.7614   23.4788 C   0  0  0  0  0  0  0  0  0  0  0  0
   14.3208  -16.0686   23.2679 O   0  0  0  0  0  0  0  0  0  0  0  0
   13.3759  -18.1537   23.2908 O   0  0  0  0  0  0  0  0  0  0  0  0
  2  1  1  6
  2  3  1  0
  3  4  1  0
  5  2  1  0
  5  6  2  0
  7  5  1  0
  8  7  1  0
  9 10  1  0
  8  9  1  1
 10 11  2  0
 11 12  1  0
 13 12  1  0
 14 13  2  0
 15 14  1  0
 16 17  1  0
 16 15  2  0
 17 18  2  0
 18 10  1  0
 18 13  1  0
 19 21  1  0
 19  8  1  0
 20 19  2  0
 22 21  1  0
 22 33  1  0
 22 23  1  1
 24 23  1  0
 25 24  2  0
 26 25  1  0
 27 26  1  0
 27 32  2  0
 28 29  2  0
 28 27  1  0
 29 30  1  0
 30 31  2  0
 32 31  1  0
 32 24  1  0
 33 34  2  0
 33 35  1  0
M  END
$$$$
