CWW.pdb
     RDKit          3D

 35 38  0  0  1  0  0  0  0  0999 V2000
    8.9016  -16.6356   16.9128 N   0  0  0  0  0  0  0  0  0  0  0  0
    8.9650  -17.4994   18.0775 C   0  0  1  0  0  0  0  0  0  0  0  0
   10.1902  -18.3873   17.9663 C   0  0  0  0  0  0  0  0  0  0  0  0
   10.1525  -19.5169   19.4069 S   0  0  0  0  0  0  0  0  0  0  0  0
    8.9618  -16.6783   19.2886 C   0  0  0  0  0  0  0  0  0  0  0  0
    9.7873  -15.7075   19.4225 O   0  0  0  0  0  0  0  0  0  0  0  0
    8.0861  -16.8619   20.3899 N   0  0  0  0  0  0  0  0  0  0  0  0
    8.1462  -16.0687   21.6143 C   0  0  1  0  0  0  0  0  0  0  0  0
    7.0936  -16.6380   22.5289 C   0  0  0  0  0  0  0  0  0  0  0  0
    6.8997  -15.9343   23.8093 C   0  0  0  0  0  0  0  0  0  0  0  0
    6.5568  -16.6007   24.9752 C   0  0  0  0  0  0  0  0  0  0  0  0
    6.4172  -15.6828   25.9218 N   0  0  0  0  0  0  0  0  0  0  0  0
    6.6452  -14.4535   25.4630 C   0  0  0  0  0  0  0  0  0  0  0  0
    6.6417  -13.1910   26.0553 C   0  0  0  0  0  0  0  0  0  0  0  0
    6.9521  -12.0942   25.2814 C   0  0  0  0  0  0  0  0  0  0  0  0
    7.2570  -12.2427   23.9599 C   0  0  0  0  0  0  0  0  0  0  0  0
    7.2642  -13.4810   23.3603 C   0  0  0  0  0  0  0  0  0  0  0  0
    6.9509  -14.5917   24.1360 C   0  0  0  0  0  0  0  0  0  0  0  0
    9.4519  -16.0647   22.2669 C   0  0  0  0  0  0  0  0  0  0  0  0
   10.2221  -15.1200   21.9633 O   0  0  0  0  0  0  0  0  0  0  0  0
    9.9135  -17.0056   23.1870 N   0  0  0  0  0  0  0  0  0  0  0  0
   11.0367  -16.9533   24.0252 C   0  0  1  0  0  0  0  0  0  0  0  0
   11.1521  -15.8621   25.0494 C   0  0  0  0  0  0  0  0  0  0  0  0
   10.5766  -16.1684   26.3699 C   0  0  0  0  0  0  0  0  0  0  0  0
   10.2723  -17.3747   26.9316 C   0  0  0  0  0  0  0  0  0  0  0  0
    9.7821  -17.1894   28.1903 N   0  0  0  0  0  0  0  0  0  0  0  0
    9.7569  -15.8907   28.4712 C   0  0  0  0  0  0  0  0  0  0  0  0
    9.3709  -15.1745   29.5684 C   0  0  0  0  0  0  0  0  0  0  0  0
    9.4523  -13.7872   29.6083 C   0  0  0  0  0  0  0  0  0  0  0  0
    9.9425  -13.1277   28.4921 C   0  0  0  0  0  0  0  0  0  0  0  0
   10.3383  -13.8554   27.3674 C   0  0  0  0  0  0  0  0  0  0  0  0
   10.2428  -15.2291   27.3642 C   0  0  0  0  0  0  0  0  0  0  0  0
   11.4853  -18.2296   24.6158 C   0  0  0  0  0  0  0  0  0  0  0  0
   10.8066  -19.2670   24.6129 O   0  0  0  0  0  0  0  0  0  0  0  0
   12.7610  -18.2334   25.2074 O   0  0  0  0  0  0  0  0  0  0  0  0
  2  1  1  6
  2  3  1  0
  3  4  1  0
  5  2  1  0
  5  6  2  0
  7  5  1  0
  8  7  1  0
  9 10  1  0
  8  9  1  1
 10 11  2  0
 11 12  1  0
 13 12  1  0
 14 13  2  0
 15 14  1  0
 16 17  1  0
 16 15  2  0
 17 18  2  0
 18 10  1  0
 18 13  1  0
 19 21  1  0
 19  8  1  0
 20 19  2  0
 22 21  1  0
 22 33  1  0
 22 23  1  1
 24 23  1  0
 25 24  2  0
 26 25  1  0
 27 26  1  0
 27 32  2  0
 28 29  2  0
 28 27  1  0
 29 30  1  0
 30 31  2  0
 32 31  1  0
 32 24  1  0
 33 34  2  0
 33 35  1  0
M  END
$$$$
