CWW.pdb
     RDKit          3D

 35 38  0  0  1  0  0  0  0  0999 V2000
   13.4894  -18.7912   20.2003 N   0  0  0  0  0  0  0  0  0  0  0  0
   12.4502  -17.8379   20.5437 C   0  0  1  0  0  0  0  0  0  0  0  0
   11.2389  -18.0919   19.6662 C   0  0  0  0  0  0  0  0  0  0  0  0
    9.9750  -16.8567   20.1455 S   0  0  0  0  0  0  0  0  0  0  0  0
   12.1530  -17.9413   21.9727 C   0  0  0  0  0  0  0  0  0  0  0  0
   12.0915  -19.0853   22.5465 O   0  0  0  0  0  0  0  0  0  0  0  0
   11.9128  -16.8383   22.8324 N   0  0  0  0  0  0  0  0  0  0  0  0
   11.4448  -16.9706   24.2092 C   0  0  1  0  0  0  0  0  0  0  0  0
   11.9738  -15.7670   24.9441 C   0  0  0  0  0  0  0  0  0  0  0  0
   11.6072  -15.6656   26.3681 C   0  0  0  0  0  0  0  0  0  0  0  0
   11.9977  -16.6127   27.3016 C   0  0  0  0  0  0  0  0  0  0  0  0
   11.4717  -16.2531   28.4645 N   0  0  0  0  0  0  0  0  0  0  0  0
   10.7601  -15.1318   28.3654 C   0  0  0  0  0  0  0  0  0  0  0  0
   10.0471  -14.3622   29.2841 C   0  0  0  0  0  0  0  0  0  0  0  0
    9.4249  -13.2137   28.8461 C   0  0  0  0  0  0  0  0  0  0  0  0
    9.5061  -12.8377   27.5371 C   0  0  0  0  0  0  0  0  0  0  0  0
   10.2050  -13.5861   26.6181 C   0  0  0  0  0  0  0  0  0  0  0  0
   10.8343  -14.7469   27.0540 C   0  0  0  0  0  0  0  0  0  0  0  0
    9.9947  -17.0652   24.3468 C   0  0  0  0  0  0  0  0  0  0  0  0
    9.3180  -16.2462   23.6768 O   0  0  0  0  0  0  0  0  0  0  0  0
    9.3029  -17.9746   25.1466 N   0  0  0  0  0  0  0  0  0  0  0  0
    8.0009  -18.4754   25.0021 C   0  0  1  0  0  0  0  0  0  0  0  0
    6.9626  -17.6577   24.2908 C   0  0  0  0  0  0  0  0  0  0  0  0
    6.7848  -16.2842   24.7913 C   0  0  0  0  0  0  0  0  0  0  0  0
    6.3954  -15.8475   26.0245 C   0  0  0  0  0  0  0  0  0  0  0  0
    6.3945  -14.4844   26.0545 N   0  0  0  0  0  0  0  0  0  0  0  0
    6.7745  -14.0131   24.8714 C   0  0  0  0  0  0  0  0  0  0  0  0
    6.9453  -12.7526   24.3735 C   0  0  0  0  0  0  0  0  0  0  0  0
    7.3670  -12.5275   23.0680 C   0  0  0  0  0  0  0  0  0  0  0  0
    7.6172  -13.6269   22.2619 C   0  0  0  0  0  0  0  0  0  0  0  0
    7.4439  -14.9179   22.7663 C   0  0  0  0  0  0  0  0  0  0  0  0
    7.0243  -15.1021   24.0647 C   0  0  0  0  0  0  0  0  0  0  0  0
    7.8738  -19.8892   24.5972 C   0  0  0  0  0  0  0  0  0  0  0  0
    6.7881  -20.4652   24.4352 O   0  0  0  0  0  0  0  0  0  0  0  0
    9.0734  -20.5938   24.3921 O   0  0  0  0  0  0  0  0  0  0  0  0
  2  1  1  6
  2  3  1  0
  3  4  1  0
  5  2  1  0
  5  6  2  0
  7  5  1  0
  8  7  1  0
  9 10  1  0
  8  9  1  1
 10 11  2  0
 11 12  1  0
 13 12  1  0
 14 13  2  0
 15 14  1  0
 16 17  1  0
 16 15  2  0
 17 18  2  0
 18 10  1  0
 18 13  1  0
 19 21  1  0
 19  8  1  0
 20 19  2  0
 22 21  1  0
 22 33  1  0
 22 23  1  6
 24 23  1  0
 25 24  2  0
 26 25  1  0
 27 26  1  0
 27 32  2  0
 28 29  2  0
 28 27  1  0
 29 30  1  0
 30 31  2  0
 32 31  1  0
 32 24  1  0
 33 34  2  0
 33 35  1  0
M  END
$$$$
