CWW.pdb
     RDKit          3D

 35 38  0  0  1  0  0  0  0  0999 V2000
    8.2037  -20.0892   19.5852 N   0  0  0  0  0  0  0  0  0  0  0  0
    9.3136  -19.3104   19.0674 C   0  0  1  0  0  0  0  0  0  0  0  0
    9.1272  -19.1195   17.5739 C   0  0  0  0  0  0  0  0  0  0  0  0
    7.3220  -19.1019   17.2680 S   0  0  0  0  0  0  0  0  0  0  0  0
    9.3995  -18.0462   19.7992 C   0  0  0  0  0  0  0  0  0  0  0  0
   10.3168  -17.1940   19.5267 O   0  0  0  0  0  0  0  0  0  0  0  0
    8.5182  -17.6498   20.8382 N   0  0  0  0  0  0  0  0  0  0  0  0
    8.6927  -16.4354   21.6299 C   0  0  1  0  0  0  0  0  0  0  0  0
    7.3305  -15.7990   21.7184 C   0  0  0  0  0  0  0  0  0  0  0  0
    7.2996  -14.3967   22.1709 C   0  0  0  0  0  0  0  0  0  0  0  0
    7.6159  -13.3411   21.3302 C   0  0  0  0  0  0  0  0  0  0  0  0
    7.5344  -12.2313   22.0513 N   0  0  0  0  0  0  0  0  0  0  0  0
    7.1846  -12.4793   23.3121 C   0  0  0  0  0  0  0  0  0  0  0  0
    6.9559  -11.6679   24.4229 C   0  0  0  0  0  0  0  0  0  0  0  0
    6.5740  -12.2577   25.6080 C   0  0  0  0  0  0  0  0  0  0  0  0
    6.4228  -13.6111   25.6911 C   0  0  0  0  0  0  0  0  0  0  0  0
    6.6452  -14.4256   24.6048 C   0  0  0  0  0  0  0  0  0  0  0  0
    7.0317  -13.8362   23.4062 C   0  0  0  0  0  0  0  0  0  0  0  0
    9.2476  -16.6581   22.9615 C   0  0  0  0  0  0  0  0  0  0  0  0
    8.4366  -16.5984   23.9189 O   0  0  0  0  0  0  0  0  0  0  0  0
   10.5827  -16.9286   23.2606 N   0  0  0  0  0  0  0  0  0  0  0  0
   11.2690  -16.7849   24.4752 C   0  0  1  0  0  0  0  0  0  0  0  0
   10.6573  -17.3059   25.7430 C   0  0  0  0  0  0  0  0  0  0  0  0
    9.6079  -16.4593   26.3352 C   0  0  0  0  0  0  0  0  0  0  0  0
    8.2533  -16.6278   26.3477 C   0  0  0  0  0  0  0  0  0  0  0  0
    7.6660  -15.6094   27.0383 N   0  0  0  0  0  0  0  0  0  0  0  0
    8.6008  -14.7751   27.4814 C   0  0  0  0  0  0  0  0  0  0  0  0
    8.5603  -13.6226   28.2135 C   0  0  0  0  0  0  0  0  0  0  0  0
    9.7141  -12.9266   28.5556 C   0  0  0  0  0  0  0  0  0  0  0  0
   10.9334  -13.4322   28.1327 C   0  0  0  0  0  0  0  0  0  0  0  0
   10.9802  -14.6103   27.3836 C   0  0  0  0  0  0  0  0  0  0  0  0
    9.8162  -15.2723   27.0633 C   0  0  0  0  0  0  0  0  0  0  0  0
   12.7123  -17.0942   24.4638 C   0  0  0  0  0  0  0  0  0  0  0  0
   13.3181  -17.5211   23.4701 O   0  0  0  0  0  0  0  0  0  0  0  0
   13.4095  -16.8810   25.6662 O   0  0  0  0  0  0  0  0  0  0  0  0
  2  1  1  1
  2  3  1  0
  3  4  1  0
  5  2  1  0
  5  6  2  0
  7  5  1  0
  8  7  1  0
  9 10  1  0
  8  9  1  1
 10 11  2  0
 11 12  1  0
 13 12  1  0
 14 13  2  0
 15 14  1  0
 16 17  1  0
 16 15  2  0
 17 18  2  0
 18 10  1  0
 18 13  1  0
 19 21  1  0
 19  8  1  0
 20 19  2  0
 22 21  1  0
 22 33  1  0
 22 23  1  1
 24 23  1  0
 25 24  2  0
 26 25  1  0
 27 26  1  0
 27 32  2  0
 28 29  2  0
 28 27  1  0
 29 30  1  0
 30 31  2  0
 32 31  1  0
 32 24  1  0
 33 34  2  0
 33 35  1  0
M  END
$$$$
