CWW.pdb
     RDKit          3D

 35 38  0  0  1  0  0  0  0  0999 V2000
   10.1114  -18.8904   19.2644 N   0  0  0  0  0  0  0  0  0  0  0  0
    9.6754  -18.8856   20.6488 C   0  0  1  0  0  0  0  0  0  0  0  0
   10.2002  -20.1328   21.3350 C   0  0  0  0  0  0  0  0  0  0  0  0
    9.3074  -20.2710   22.9276 S   0  0  0  0  0  0  0  0  0  0  0  0
   10.1214  -17.6489   21.2912 C   0  0  0  0  0  0  0  0  0  0  0  0
   11.3292  -17.2421   21.1590 O   0  0  0  0  0  0  0  0  0  0  0  0
    9.3023  -16.8099   22.0905 N   0  0  0  0  0  0  0  0  0  0  0  0
    9.7702  -15.5744   22.7122 C   0  0  1  0  0  0  0  0  0  0  0  0
    8.6016  -14.6248   22.6778 C   0  0  0  0  0  0  0  0  0  0  0  0
    7.8779  -14.5357   21.3969 C   0  0  0  0  0  0  0  0  0  0  0  0
    6.8182  -15.3733   21.0862 C   0  0  0  0  0  0  0  0  0  0  0  0
    6.4251  -15.0646   19.8581 N   0  0  0  0  0  0  0  0  0  0  0  0
    7.1512  -14.0788   19.3341 C   0  0  0  0  0  0  0  0  0  0  0  0
    7.1176  -13.4050   18.1137 C   0  0  0  0  0  0  0  0  0  0  0  0
    8.0218  -12.3895   17.8914 C   0  0  0  0  0  0  0  0  0  0  0  0
    8.9325  -12.0507   18.8492 C   0  0  0  0  0  0  0  0  0  0  0  0
    8.9792  -12.7061   20.0581 C   0  0  0  0  0  0  0  0  0  0  0  0
    8.0698  -13.7326   20.2879 C   0  0  0  0  0  0  0  0  0  0  0  0
   10.2665  -15.7355   24.0754 C   0  0  0  0  0  0  0  0  0  0  0  0
   10.9165  -14.7701   24.5481 O   0  0  0  0  0  0  0  0  0  0  0  0
   10.0841  -16.8531   24.8895 N   0  0  0  0  0  0  0  0  0  0  0  0
   10.2832  -16.9892   26.2711 C   0  0  1  0  0  0  0  0  0  0  0  0
    9.8266  -15.9025   27.2004 C   0  0  0  0  0  0  0  0  0  0  0  0
    8.4431  -15.4384   27.0021 C   0  0  0  0  0  0  0  0  0  0  0  0
    7.3086  -16.1552   26.7521 C   0  0  0  0  0  0  0  0  0  0  0  0
    6.2386  -15.3146   26.6670 N   0  0  0  0  0  0  0  0  0  0  0  0
    6.6407  -14.0620   26.8555 C   0  0  0  0  0  0  0  0  0  0  0  0
    5.9915  -12.8604   26.8768 C   0  0  0  0  0  0  0  0  0  0  0  0
    6.6627  -11.6647   27.1063 C   0  0  0  0  0  0  0  0  0  0  0  0
    8.0316  -11.7124   27.3180 C   0  0  0  0  0  0  0  0  0  0  0  0
    8.7003  -12.9387   27.2970 C   0  0  0  0  0  0  0  0  0  0  0  0
    8.0021  -14.1028   27.0660 C   0  0  0  0  0  0  0  0  0  0  0  0
    9.9672  -18.3045   26.8618 C   0  0  0  0  0  0  0  0  0  0  0  0
    9.3907  -19.2150   26.2490 O   0  0  0  0  0  0  0  0  0  0  0  0
   10.3565  -18.5023   28.1985 O   0  0  0  0  0  0  0  0  0  0  0  0
  2  1  1  6
  2  3  1  0
  3  4  1  0
  5  2  1  0
  5  6  2  0
  7  5  1  0
  8  7  1  0
  9 10  1  0
  8  9  1  1
 10 11  2  0
 11 12  1  0
 13 12  1  0
 14 13  2  0
 15 14  1  0
 16 17  1  0
 16 15  2  0
 17 18  2  0
 18 10  1  0
 18 13  1  0
 19 21  1  0
 19  8  1  0
 20 19  2  0
 22 21  1  0
 22 33  1  0
 22 23  1  1
 24 23  1  0
 25 24  2  0
 26 25  1  0
 27 26  1  0
 27 32  2  0
 28 29  2  0
 28 27  1  0
 29 30  1  0
 30 31  2  0
 32 31  1  0
 32 24  1  0
 33 34  2  0
 33 35  1  0
M  END
$$$$
