CWW.pdb
     RDKit          3D

 35 38  0  0  1  0  0  0  0  0999 V2000
    6.5653  -23.0579   23.8210 N   0  0  0  0  0  0  0  0  0  0  0  0
    7.6521  -22.2604   23.2830 C   0  0  1  0  0  0  0  0  0  0  0  0
    7.6735  -22.4111   21.7735 C   0  0  0  0  0  0  0  0  0  0  0  0
    9.0698  -21.3953   21.1641 S   0  0  0  0  0  0  0  0  0  0  0  0
    7.4932  -20.8721   23.7169 C   0  0  0  0  0  0  0  0  0  0  0  0
    6.4512  -20.2008   23.3923 O   0  0  0  0  0  0  0  0  0  0  0  0
    8.4316  -20.1569   24.5052 N   0  0  0  0  0  0  0  0  0  0  0  0
    8.3363  -18.7260   24.7796 C   0  0  1  0  0  0  0  0  0  0  0  0
    8.4495  -18.5823   26.2746 C   0  0  0  0  0  0  0  0  0  0  0  0
    8.0827  -17.2662   26.8277 C   0  0  0  0  0  0  0  0  0  0  0  0
    6.7634  -16.8723   26.9868 C   0  0  0  0  0  0  0  0  0  0  0  0
    6.7813  -15.6338   27.4600 N   0  0  0  0  0  0  0  0  0  0  0  0
    8.0224  -15.1805   27.6265 C   0  0  0  0  0  0  0  0  0  0  0  0
    8.5513  -13.9806   28.1008 C   0  0  0  0  0  0  0  0  0  0  0  0
    9.9201  -13.8392   28.1673 C   0  0  0  0  0  0  0  0  0  0  0  0
   10.7415  -14.8558   27.7758 C   0  0  0  0  0  0  0  0  0  0  0  0
   10.2356  -16.0455   27.3049 C   0  0  0  0  0  0  0  0  0  0  0  0
    8.8549  -16.1938   27.2346 C   0  0  0  0  0  0  0  0  0  0  0  0
    9.3434  -17.9138   24.1037 C   0  0  0  0  0  0  0  0  0  0  0  0
   10.5393  -18.1388   24.4148 O   0  0  0  0  0  0  0  0  0  0  0  0
    9.0974  -16.9228   23.1537 N   0  0  0  0  0  0  0  0  0  0  0  0
    9.8970  -15.8339   22.7768 C   0  0  1  0  0  0  0  0  0  0  0  0
    9.5183  -14.4469   23.2076 C   0  0  0  0  0  0  0  0  0  0  0  0
    8.3852  -14.3610   24.1443 C   0  0  0  0  0  0  0  0  0  0  0  0
    7.2714  -15.1441   24.2420 C   0  0  0  0  0  0  0  0  0  0  0  0
    6.4949  -14.7181   25.2786 N   0  0  0  0  0  0  0  0  0  0  0  0
    7.0705  -13.6742   25.8661 C   0  0  0  0  0  0  0  0  0  0  0  0
    6.7270  -12.8869   26.9281 C   0  0  0  0  0  0  0  0  0  0  0  0
    7.5285  -11.8337   27.3537 C   0  0  0  0  0  0  0  0  0  0  0  0
    8.7081  -11.5899   26.6680 C   0  0  0  0  0  0  0  0  0  0  0  0
    9.0638  -12.3920   25.5811 C   0  0  0  0  0  0  0  0  0  0  0  0
    8.2444  -13.4264   25.1879 C   0  0  0  0  0  0  0  0  0  0  0  0
   11.3574  -16.0058   22.9051 C   0  0  0  0  0  0  0  0  0  0  0  0
   11.8908  -16.9637   23.4836 O   0  0  0  0  0  0  0  0  0  0  0  0
   12.1603  -15.0068   22.3264 O   0  0  0  0  0  0  0  0  0  0  0  0
  2  1  1  6
  2  3  1  0
  3  4  1  0
  5  2  1  0
  5  6  2  0
  7  5  1  0
  8  7  1  0
  9 10  1  0
  8  9  1  1
 10 11  2  0
 11 12  1  0
 13 12  1  0
 14 13  2  0
 15 14  1  0
 16 17  1  0
 16 15  2  0
 17 18  2  0
 18 10  1  0
 18 13  1  0
 19 21  1  0
 19  8  1  0
 20 19  2  0
 22 21  1  0
 22 33  1  0
 22 23  1  1
 24 23  1  0
 25 24  2  0
 26 25  1  0
 27 26  1  0
 27 32  2  0
 28 29  2  0
 28 27  1  0
 29 30  1  0
 30 31  2  0
 32 31  1  0
 32 24  1  0
 33 34  2  0
 33 35  1  0
M  END
$$$$
