CWW.pdb
     RDKit          3D

 35 38  0  0  1  0  0  0  0  0999 V2000
    6.8209  -16.1525   19.5553 N   0  0  0  0  0  0  0  0  0  0  0  0
    7.3337  -16.9952   20.6200 C   0  0  1  0  0  0  0  0  0  0  0  0
    8.0245  -18.1986   20.0066 C   0  0  0  0  0  0  0  0  0  0  0  0
    8.6047  -19.2371   21.3986 S   0  0  0  0  0  0  0  0  0  0  0  0
    8.2166  -16.2050   21.4785 C   0  0  0  0  0  0  0  0  0  0  0  0
    9.0618  -15.3868   20.9706 O   0  0  0  0  0  0  0  0  0  0  0  0
    8.2294  -16.2591   22.8964 N   0  0  0  0  0  0  0  0  0  0  0  0
    9.1820  -15.5277   23.7269 C   0  0  1  0  0  0  0  0  0  0  0  0
    8.6447  -15.5965   25.1323 C   0  0  0  0  0  0  0  0  0  0  0  0
    7.3943  -14.8579   25.3839 C   0  0  0  0  0  0  0  0  0  0  0  0
    6.1699  -15.4959   25.5055 C   0  0  0  0  0  0  0  0  0  0  0  0
    5.2549  -14.5524   25.6805 N   0  0  0  0  0  0  0  0  0  0  0  0
    5.7895  -13.3327   25.6842 C   0  0  0  0  0  0  0  0  0  0  0  0
    5.2607  -12.0526   25.8467 C   0  0  0  0  0  0  0  0  0  0  0  0
    6.1162  -10.9730   25.8192 C   0  0  0  0  0  0  0  0  0  0  0  0
    7.4559  -11.1551   25.6363 C   0  0  0  0  0  0  0  0  0  0  0  0
    7.9933  -12.4112   25.4737 C   0  0  0  0  0  0  0  0  0  0  0  0
    7.1347  -13.5047   25.4995 C   0  0  0  0  0  0  0  0  0  0  0  0
   10.5484  -16.0379   23.6695 C   0  0  0  0  0  0  0  0  0  0  0  0
   11.4173  -15.2503   23.2195 O   0  0  0  0  0  0  0  0  0  0  0  0
   10.9689  -17.3071   24.0661 N   0  0  0  0  0  0  0  0  0  0  0  0
   12.2178  -17.7183   24.5540 C   0  0  1  0  0  0  0  0  0  0  0  0
   12.8400  -16.9952   25.7128 C   0  0  0  0  0  0  0  0  0  0  0  0
   12.1020  -17.0816   26.9843 C   0  0  0  0  0  0  0  0  0  0  0  0
   11.8416  -18.1663   27.7711 C   0  0  0  0  0  0  0  0  0  0  0  0
   11.1459  -17.7796   28.8780 N   0  0  0  0  0  0  0  0  0  0  0  0
   10.9426  -16.4668   28.8396 C   0  0  0  0  0  0  0  0  0  0  0  0
   10.3190  -15.5881   29.6792 C   0  0  0  0  0  0  0  0  0  0  0  0
   10.2486  -14.2277   29.4012 C   0  0  0  0  0  0  0  0  0  0  0  0
   10.8344  -13.7670   28.2326 C   0  0  0  0  0  0  0  0  0  0  0  0
   11.4730  -14.6615   27.3705 C   0  0  0  0  0  0  0  0  0  0  0  0
   11.5225  -16.0026   27.6788 C   0  0  0  0  0  0  0  0  0  0  0  0
   12.4228  -19.1711   24.7153 C   0  0  0  0  0  0  0  0  0  0  0  0
   11.5371  -20.0176   24.5266 O   0  0  0  0  0  0  0  0  0  0  0  0
   13.7089  -19.5840   25.1065 O   0  0  0  0  0  0  0  0  0  0  0  0
  2  1  1  6
  2  3  1  0
  3  4  1  0
  5  2  1  0
  5  6  2  0
  7  5  1  0
  8  7  1  0
  9 10  1  0
  8  9  1  1
 10 11  2  0
 11 12  1  0
 13 12  1  0
 14 13  2  0
 15 14  1  0
 16 17  1  0
 16 15  2  0
 17 18  2  0
 18 10  1  0
 18 13  1  0
 19 21  1  0
 19  8  1  0
 20 19  2  0
 22 21  1  0
 22 33  1  0
 22 23  1  1
 24 23  1  0
 25 24  2  0
 26 25  1  0
 27 26  1  0
 27 32  2  0
 28 29  2  0
 28 27  1  0
 29 30  1  0
 30 31  2  0
 32 31  1  0
 32 24  1  0
 33 34  2  0
 33 35  1  0
M  END
$$$$
