IKK.pdb
     RDKit          3D

 27 26  0  0  1  0  0  0  0  0999 V2000
    6.1688  -11.5656   27.6903 C   0  0  0  0  0  0  0  0  0  0  0  0
    5.7024  -12.6620   26.7896 C   0  0  0  0  0  0  0  0  0  0  0  0
    6.8097  -13.3091   26.0078 C   0  0  2  0  0  0  0  0  0  0  0  0
    7.6499  -12.3330   25.2368 C   0  0  0  0  0  0  0  0  0  0  0  0
    6.2420  -14.4131   25.1056 C   0  0  2  0  0  0  0  0  0  0  0  0
    5.6562  -15.3924   25.9975 N   0  0  0  0  0  0  0  0  0  0  0  0
    7.3646  -15.0183   24.3809 C   0  0  0  0  0  0  0  0  0  0  0  0
    7.9798  -15.9979   24.8754 O   0  0  0  0  0  0  0  0  0  0  0  0
    7.8239  -14.5590   23.1116 N   0  0  0  0  0  0  0  0  0  0  0  0
    8.7960  -15.2258   22.3074 C   0  0  1  0  0  0  0  0  0  0  0  0
    9.1029  -14.3235   21.1022 C   0  0  0  0  0  0  0  0  0  0  0  0
    8.0410  -14.4161   20.0674 C   0  0  0  0  0  0  0  0  0  0  0  0
    8.3635  -13.8048   18.7401 C   0  0  0  0  0  0  0  0  0  0  0  0
    7.3056  -13.9297   17.7072 C   0  0  0  0  0  0  0  0  0  0  0  0
    7.5735  -13.2643   16.4633 N   0  0  0  0  0  0  0  0  0  0  0  0
   10.0276  -15.5755   23.0232 C   0  0  0  0  0  0  0  0  0  0  0  0
   10.5974  -14.7009   23.7220 O   0  0  0  0  0  0  0  0  0  0  0  0
   10.5801  -16.8645   22.9428 N   0  0  0  0  0  0  0  0  0  0  0  0
   11.6086  -17.2474   23.9077 C   0  0  1  0  0  0  0  0  0  0  0  0
   11.2403  -18.4793   24.6465 C   0  0  0  0  0  0  0  0  0  0  0  0
   12.3452  -18.9291   25.5541 C   0  0  0  0  0  0  0  0  0  0  0  0
   12.0046  -20.1818   26.3300 C   0  0  0  0  0  0  0  0  0  0  0  0
   13.1505  -20.4618   27.2884 C   0  0  0  0  0  0  0  0  0  0  0  0
   12.8629  -21.6660   28.0617 N   0  0  0  0  0  0  0  0  0  0  0  0
   12.9081  -17.4373   23.2094 C   0  0  0  0  0  0  0  0  0  0  0  0
   14.0072  -17.5741   23.7748 O   0  0  0  0  0  0  0  0  0  0  0  0
   12.9553  -17.4726   21.8016 O   0  0  0  0  0  0  0  0  0  0  0  0
  1  2  1  0
  3  2  1  0
  3  4  1  6
  5  6  1  1
  5  3  1  0
  7  5  1  0
  8  7  2  0
  9  7  1  0
 10  9  1  0
 10 11  1  6
 11 12  1  0
 12 13  1  0
 14 13  1  0
 15 14  1  0
 16 18  1  0
 16 10  1  0
 17 16  2  0
 19 18  1  0
 20 21  1  0
 19 20  1  6
 21 22  1  0
 22 23  1  0
 23 24  1  0
 25 27  1  0
 25 19  1  0
 26 25  2  0
M  END
$$$$
