IKK.pdb
     RDKit          3D

 27 26  0  0  1  0  0  0  0  0999 V2000
    7.4973  -11.8308   20.4856 C   0  0  0  0  0  0  0  0  0  0  0  0
    7.7894  -12.9131   19.4987 C   0  0  0  0  0  0  0  0  0  0  0  0
    8.3651  -14.1535   20.1202 C   0  0  2  0  0  0  0  0  0  0  0  0
    9.5079  -13.8816   21.0547 C   0  0  0  0  0  0  0  0  0  0  0  0
    8.7464  -15.1617   19.0279 C   0  0  2  0  0  0  0  0  0  0  0  0
    7.5246  -15.4421   18.3026 N   0  0  0  0  0  0  0  0  0  0  0  0
    9.2147  -16.3830   19.6919 C   0  0  0  0  0  0  0  0  0  0  0  0
    8.4004  -17.1180   20.3077 O   0  0  0  0  0  0  0  0  0  0  0  0
   10.5749  -16.8110   19.6887 N   0  0  0  0  0  0  0  0  0  0  0  0
   11.0590  -17.9898   20.3308 C   0  0  1  0  0  0  0  0  0  0  0  0
   12.0929  -18.6385   19.3975 C   0  0  0  0  0  0  0  0  0  0  0  0
   11.4641  -19.1277   18.1437 C   0  0  0  0  0  0  0  0  0  0  0  0
   11.1335  -20.5866   18.1015 C   0  0  0  0  0  0  0  0  0  0  0  0
   10.5551  -21.0723   16.8244 C   0  0  0  0  0  0  0  0  0  0  0  0
   10.1707  -22.4556   16.8054 N   0  0  0  0  0  0  0  0  0  0  0  0
   11.6326  -17.7550   21.6603 C   0  0  0  0  0  0  0  0  0  0  0  0
   12.1704  -16.6468   21.9067 O   0  0  0  0  0  0  0  0  0  0  0  0
   11.5922  -18.7415   22.6595 N   0  0  0  0  0  0  0  0  0  0  0  0
   12.1071  -18.4151   23.9877 C   0  0  1  0  0  0  0  0  0  0  0  0
   11.4810  -19.2490   25.0420 C   0  0  0  0  0  0  0  0  0  0  0  0
   12.1531  -19.0576   26.3680 C   0  0  0  0  0  0  0  0  0  0  0  0
   11.6983  -20.0507   27.4141 C   0  0  0  0  0  0  0  0  0  0  0  0
   12.3443  -19.6646   28.7346 C   0  0  0  0  0  0  0  0  0  0  0  0
   11.9761  -20.6315   29.7644 N   0  0  0  0  0  0  0  0  0  0  0  0
   13.5846  -18.5840   24.0102 C   0  0  0  0  0  0  0  0  0  0  0  0
   14.2102  -19.4661   23.3960 O   0  0  0  0  0  0  0  0  0  0  0  0
   14.3849  -17.7062   24.7681 O   0  0  0  0  0  0  0  0  0  0  0  0
  1  2  1  0
  3  2  1  0
  3  4  1  6
  5  6  1  1
  5  3  1  0
  7  5  1  0
  8  7  2  0
  9  7  1  0
 10  9  1  0
 10 11  1  6
 11 12  1  0
 12 13  1  0
 14 13  1  0
 15 14  1  0
 16 18  1  0
 16 10  1  0
 17 16  2  0
 19 18  1  0
 20 21  1  0
 19 20  1  1
 21 22  1  0
 22 23  1  0
 23 24  1  0
 25 27  1  0
 25 19  1  0
 26 25  2  0
M  END
$$$$
