IKK.pdb
     RDKit          3D

 27 26  0  0  1  0  0  0  0  0999 V2000
    6.8433  -11.2338   27.2864 C   0  0  0  0  0  0  0  0  0  0  0  0
    6.1854  -12.4491   26.7197 C   0  0  0  0  0  0  0  0  0  0  0  0
    7.1095  -13.3072   25.9038 C   0  0  2  0  0  0  0  0  0  0  0  0
    7.8402  -12.5519   24.8320 C   0  0  0  0  0  0  0  0  0  0  0  0
    6.3462  -14.5115   25.3362 C   0  0  2  0  0  0  0  0  0  0  0  0
    5.9122  -15.2825   26.4829 N   0  0  0  0  0  0  0  0  0  0  0  0
    7.2904  -15.3036   24.5407 C   0  0  0  0  0  0  0  0  0  0  0  0
    7.9915  -16.1903   25.0928 O   0  0  0  0  0  0  0  0  0  0  0  0
    7.4763  -15.1338   23.1372 N   0  0  0  0  0  0  0  0  0  0  0  0
    8.3517  -15.9209   22.3307 C   0  0  1  0  0  0  0  0  0  0  0  0
    8.2559  -15.3968   20.8895 C   0  0  0  0  0  0  0  0  0  0  0  0
    9.1118  -16.1842   19.9652 C   0  0  0  0  0  0  0  0  0  0  0  0
    8.6789  -17.5939   19.7109 C   0  0  0  0  0  0  0  0  0  0  0  0
    9.5419  -18.3683   18.7851 C   0  0  0  0  0  0  0  0  0  0  0  0
    9.1671  -19.7409   18.5918 N   0  0  0  0  0  0  0  0  0  0  0  0
    9.7446  -15.9286   22.7905 C   0  0  0  0  0  0  0  0  0  0  0  0
   10.3915  -14.8519   22.7980 O   0  0  0  0  0  0  0  0  0  0  0  0
   10.3667  -17.1123   23.2210 N   0  0  0  0  0  0  0  0  0  0  0  0
   11.7241  -17.0355   23.7570 C   0  0  1  0  0  0  0  0  0  0  0  0
   12.0355  -18.1879   24.6367 C   0  0  0  0  0  0  0  0  0  0  0  0
   11.3808  -18.0504   25.9780 C   0  0  0  0  0  0  0  0  0  0  0  0
   11.6391  -19.2293   26.8895 C   0  0  0  0  0  0  0  0  0  0  0  0
   10.7971  -19.0434   28.1411 C   0  0  0  0  0  0  0  0  0  0  0  0
   11.0235  -20.1572   29.0570 N   0  0  0  0  0  0  0  0  0  0  0  0
   12.7031  -16.9640   22.6395 C   0  0  0  0  0  0  0  0  0  0  0  0
   12.6949  -17.7000   21.6371 O   0  0  0  0  0  0  0  0  0  0  0  0
   13.7387  -16.0089   22.6672 O   0  0  0  0  0  0  0  0  0  0  0  0
  1  2  1  0
  3  2  1  0
  3  4  1  6
  5  6  1  1
  5  3  1  0
  7  5  1  0
  8  7  2  0
  9  7  1  0
 10  9  1  0
 10 11  1  6
 11 12  1  0
 12 13  1  0
 14 13  1  0
 15 14  1  0
 16 18  1  0
 16 10  1  0
 17 16  2  0
 19 18  1  0
 20 21  1  0
 19 20  1  6
 21 22  1  0
 22 23  1  0
 23 24  1  0
 25 27  1  0
 25 19  1  0
 26 25  2  0
M  END
$$$$
