IKK.pdb
     RDKit          3D

 27 26  0  0  1  0  0  0  0  0999 V2000
    8.1388  -11.5383   19.0928 C   0  0  0  0  0  0  0  0  0  0  0  0
    7.6721  -12.9399   18.8728 C   0  0  0  0  0  0  0  0  0  0  0  0
    7.9231  -13.8473   20.0432 C   0  0  2  0  0  0  0  0  0  0  0  0
    9.3563  -13.8695   20.4889 C   0  0  0  0  0  0  0  0  0  0  0  0
    7.3963  -15.2564   19.7397 C   0  0  2  0  0  0  0  0  0  0  0  0
    6.0142  -15.0861   19.3418 N   0  0  0  0  0  0  0  0  0  0  0  0
    7.4574  -16.0328   20.9827 C   0  0  0  0  0  0  0  0  0  0  0  0
    6.7915  -15.6700   21.9864 O   0  0  0  0  0  0  0  0  0  0  0  0
    8.2456  -17.2107   21.1394 N   0  0  0  0  0  0  0  0  0  0  0  0
    8.3236  -17.9852   22.3354 C   0  0  1  0  0  0  0  0  0  0  0  0
    8.5962  -19.4422   21.9310 C   0  0  0  0  0  0  0  0  0  0  0  0
    8.7141  -20.3250   23.1200 C   0  0  0  0  0  0  0  0  0  0  0  0
    9.0814  -21.7495   22.8455 C   0  0  0  0  0  0  0  0  0  0  0  0
    9.1713  -22.6258   24.0395 C   0  0  0  0  0  0  0  0  0  0  0  0
    9.6358  -23.9619   23.7931 N   0  0  0  0  0  0  0  0  0  0  0  0
    9.3317  -17.5124   23.2904 C   0  0  0  0  0  0  0  0  0  0  0  0
   10.4822  -17.2287   22.8738 O   0  0  0  0  0  0  0  0  0  0  0  0
    9.0365  -17.3715   24.6565 N   0  0  0  0  0  0  0  0  0  0  0  0
    9.9997  -16.6845   25.5142 C   0  0  1  0  0  0  0  0  0  0  0  0
    9.3440  -16.0549   26.6858 C   0  0  0  0  0  0  0  0  0  0  0  0
   10.3481  -15.4578   27.6249 C   0  0  0  0  0  0  0  0  0  0  0  0
    9.7244  -14.8912   28.8807 C   0  0  0  0  0  0  0  0  0  0  0  0
   10.8433  -14.3352   29.7463 C   0  0  0  0  0  0  0  0  0  0  0  0
   10.2884  -13.8054   30.9882 N   0  0  0  0  0  0  0  0  0  0  0  0
   11.0450  -17.6419   25.9646 C   0  0  0  0  0  0  0  0  0  0  0  0
   12.2227  -17.3398   26.2262 O   0  0  0  0  0  0  0  0  0  0  0  0
   10.7321  -19.0065   26.1239 O   0  0  0  0  0  0  0  0  0  0  0  0
  1  2  1  0
  3  2  1  0
  3  4  1  6
  5  6  1  1
  5  3  1  0
  7  5  1  0
  8  7  2  0
  9  7  1  0
 10  9  1  0
 10 11  1  6
 11 12  1  0
 12 13  1  0
 14 13  1  0
 15 14  1  0
 16 18  1  0
 16 10  1  0
 17 16  2  0
 19 18  1  0
 20 21  1  0
 19 20  1  1
 21 22  1  0
 22 23  1  0
 23 24  1  0
 25 27  1  0
 25 19  1  0
 26 25  2  0
M  END
$$$$
