IKK.pdb
     RDKit          3D

 27 26  0  0  1  0  0  0  0  0999 V2000
    5.4647  -11.3355   26.4021 C   0  0  0  0  0  0  0  0  0  0  0  0
    6.2762  -12.2663   27.2423 C   0  0  0  0  0  0  0  0  0  0  0  0
    7.2302  -13.1137   26.4499 C   0  0  2  0  0  0  0  0  0  0  0  0
    8.2295  -12.3167   25.6629 C   0  0  0  0  0  0  0  0  0  0  0  0
    6.4515  -14.0929   25.5611 C   0  0  2  0  0  0  0  0  0  0  0  0
    5.6394  -14.8857   26.4609 N   0  0  0  0  0  0  0  0  0  0  0  0
    7.4271  -14.9578   24.8890 C   0  0  0  0  0  0  0  0  0  0  0  0
    8.1392  -15.7471   25.5617 O   0  0  0  0  0  0  0  0  0  0  0  0
    7.6327  -14.9678   23.4780 N   0  0  0  0  0  0  0  0  0  0  0  0
    8.5839  -15.7869   22.7995 C   0  0  1  0  0  0  0  0  0  0  0  0
    8.4703  -15.4872   21.2968 C   0  0  0  0  0  0  0  0  0  0  0  0
    9.4280  -16.3010   20.5046 C   0  0  0  0  0  0  0  0  0  0  0  0
    9.0010  -17.7020   20.1976 C   0  0  0  0  0  0  0  0  0  0  0  0
    9.6224  -18.3083   18.9944 C   0  0  0  0  0  0  0  0  0  0  0  0
    9.2523  -19.6694   18.7258 N   0  0  0  0  0  0  0  0  0  0  0  0
    9.9645  -15.6109   23.2627 C   0  0  0  0  0  0  0  0  0  0  0  0
   10.5143  -14.4891   23.1321 O   0  0  0  0  0  0  0  0  0  0  0  0
   10.6808  -16.6684   23.8474 N   0  0  0  0  0  0  0  0  0  0  0  0
   12.0826  -16.4543   24.2005 C   0  0  1  0  0  0  0  0  0  0  0  0
   12.4098  -17.0249   25.5295 C   0  0  0  0  0  0  0  0  0  0  0  0
   11.6248  -16.3638   26.6219 C   0  0  0  0  0  0  0  0  0  0  0  0
   11.9466  -16.9053   27.9968 C   0  0  0  0  0  0  0  0  0  0  0  0
   11.1028  -16.1441   29.0062 C   0  0  0  0  0  0  0  0  0  0  0  0
   11.2973  -16.7103   30.3375 N   0  0  0  0  0  0  0  0  0  0  0  0
   12.9607  -17.0481   23.1571 C   0  0  0  0  0  0  0  0  0  0  0  0
   14.1088  -16.6555   22.8846 O   0  0  0  0  0  0  0  0  0  0  0  0
   12.5080  -18.1397   22.3898 O   0  0  0  0  0  0  0  0  0  0  0  0
  1  2  1  0
  3  2  1  0
  3  4  1  6
  5  6  1  1
  5  3  1  0
  7  5  1  0
  8  7  2  0
  9  7  1  0
 10  9  1  0
 10 11  1  6
 11 12  1  0
 12 13  1  0
 14 13  1  0
 15 14  1  0
 16 18  1  0
 16 10  1  0
 17 16  2  0
 19 18  1  0
 20 21  1  0
 19 20  1  1
 21 22  1  0
 22 23  1  0
 23 24  1  0
 25 27  1  0
 25 19  1  0
 26 25  2  0
M  END
$$$$
