IKK.pdb
     RDKit          3D

 27 26  0  0  1  0  0  0  0  0999 V2000
    7.0928  -11.6337   19.7420 C   0  0  0  0  0  0  0  0  0  0  0  0
    7.3763  -12.8969   18.9972 C   0  0  0  0  0  0  0  0  0  0  0  0
    8.1314  -13.9137   19.8046 C   0  0  2  0  0  0  0  0  0  0  0  0
    9.3966  -13.3796   20.4106 C   0  0  0  0  0  0  0  0  0  0  0  0
    8.3867  -15.1710   18.9624 C   0  0  2  0  0  0  0  0  0  0  0  0
    7.0792  -15.6834   18.6079 N   0  0  0  0  0  0  0  0  0  0  0  0
    9.0816  -16.1438   19.8123 C   0  0  0  0  0  0  0  0  0  0  0  0
    8.4339  -16.8319   20.6427 O   0  0  0  0  0  0  0  0  0  0  0  0
   10.4881  -16.3728   19.7622 N   0  0  0  0  0  0  0  0  0  0  0  0
   11.1969  -17.2753   20.6103 C   0  0  1  0  0  0  0  0  0  0  0  0
   11.9907  -18.2352   19.7107 C   0  0  0  0  0  0  0  0  0  0  0  0
   12.7620  -19.2205   20.5115 C   0  0  0  0  0  0  0  0  0  0  0  0
   13.6093  -20.1781   19.7340 C   0  0  0  0  0  0  0  0  0  0  0  0
   13.7639  -21.5256   20.3358 C   0  0  0  0  0  0  0  0  0  0  0  0
   14.5946  -22.4392   19.6028 N   0  0  0  0  0  0  0  0  0  0  0  0
   12.0811  -16.6179   21.5786 C   0  0  0  0  0  0  0  0  0  0  0  0
   13.2590  -16.3416   21.2408 O   0  0  0  0  0  0  0  0  0  0  0  0
   11.6379  -16.2927   22.8712 N   0  0  0  0  0  0  0  0  0  0  0  0
   12.2853  -16.9311   24.0153 C   0  0  1  0  0  0  0  0  0  0  0  0
   11.4837  -18.0619   24.5422 C   0  0  0  0  0  0  0  0  0  0  0  0
   12.1931  -18.7680   25.6579 C   0  0  0  0  0  0  0  0  0  0  0  0
   11.4530  -19.9900   26.1541 C   0  0  0  0  0  0  0  0  0  0  0  0
   12.3239  -20.6699   27.1979 C   0  0  0  0  0  0  0  0  0  0  0  0
   11.6781  -21.8966   27.6550 N   0  0  0  0  0  0  0  0  0  0  0  0
   13.6423  -17.4009   23.6281 C   0  0  0  0  0  0  0  0  0  0  0  0
   13.8770  -18.4032   22.9304 O   0  0  0  0  0  0  0  0  0  0  0  0
   14.7837  -16.6945   24.0567 O   0  0  0  0  0  0  0  0  0  0  0  0
  1  2  1  0
  3  2  1  0
  3  4  1  6
  5  6  1  1
  5  3  1  0
  7  5  1  0
  8  7  2  0
  9  7  1  0
 10  9  1  0
 10 11  1  6
 11 12  1  0
 12 13  1  0
 14 13  1  0
 15 14  1  0
 16 18  1  0
 16 10  1  0
 17 16  2  0
 19 18  1  0
 20 21  1  0
 19 20  1  6
 21 22  1  0
 22 23  1  0
 23 24  1  0
 25 27  1  0
 25 19  1  0
 26 25  2  0
M  END
$$$$
