IKK.pdb
     RDKit          3D

 27 26  0  0  1  0  0  0  0  0999 V2000
    7.8865  -11.4880   20.1334 C   0  0  0  0  0  0  0  0  0  0  0  0
    7.9690  -12.6362   19.1818 C   0  0  0  0  0  0  0  0  0  0  0  0
    8.3377  -13.9356   19.8388 C   0  0  2  0  0  0  0  0  0  0  0  0
    9.5458  -13.8388   20.7244 C   0  0  0  0  0  0  0  0  0  0  0  0
    8.4909  -15.0362   18.7803 C   0  0  2  0  0  0  0  0  0  0  0  0
    7.1754  -15.2162   18.2017 N   0  0  0  0  0  0  0  0  0  0  0  0
    8.8963  -16.2655   19.4703 C   0  0  0  0  0  0  0  0  0  0  0  0
    8.0921  -16.8513   20.2402 O   0  0  0  0  0  0  0  0  0  0  0  0
   10.1822  -16.8645   19.3252 N   0  0  0  0  0  0  0  0  0  0  0  0
   10.6041  -18.0571   19.9854 C   0  0  1  0  0  0  0  0  0  0  0  0
   11.5162  -18.8281   19.0187 C   0  0  0  0  0  0  0  0  0  0  0  0
   11.8823  -20.1617   19.5613 C   0  0  0  0  0  0  0  0  0  0  0  0
   12.7904  -20.9902   18.7079 C   0  0  0  0  0  0  0  0  0  0  0  0
   13.0339  -22.3719   19.1910 C   0  0  0  0  0  0  0  0  0  0  0  0
   13.9529  -23.1486   18.4075 N   0  0  0  0  0  0  0  0  0  0  0  0
   11.2804  -17.8253   21.2663 C   0  0  0  0  0  0  0  0  0  0  0  0
   12.0739  -16.8574   21.3719 O   0  0  0  0  0  0  0  0  0  0  0  0
   11.0586  -18.6617   22.3729 N   0  0  0  0  0  0  0  0  0  0  0  0
   11.6965  -18.3259   23.6441 C   0  0  1  0  0  0  0  0  0  0  0  0
   11.1424  -19.1213   24.7662 C   0  0  0  0  0  0  0  0  0  0  0  0
   12.1115  -19.2168   25.9057 C   0  0  0  0  0  0  0  0  0  0  0  0
   11.6496  -20.1499   27.0026 C   0  0  0  0  0  0  0  0  0  0  0  0
   12.6616  -20.0753   28.1342 C   0  0  0  0  0  0  0  0  0  0  0  0
   12.2451  -20.9502   29.2260 N   0  0  0  0  0  0  0  0  0  0  0  0
   13.1651  -18.5375   23.5415 C   0  0  0  0  0  0  0  0  0  0  0  0
   14.0290  -17.6966   23.8469 O   0  0  0  0  0  0  0  0  0  0  0  0
   13.6711  -19.7647   23.0688 O   0  0  0  0  0  0  0  0  0  0  0  0
  1  2  1  0
  3  2  1  0
  3  4  1  6
  5  6  1  1
  5  3  1  0
  7  5  1  0
  8  7  2  0
  9  7  1  0
 10  9  1  0
 10 11  1  6
 11 12  1  0
 12 13  1  0
 14 13  1  0
 15 14  1  0
 16 18  1  0
 16 10  1  0
 17 16  2  0
 19 18  1  0
 20 21  1  0
 19 20  1  1
 21 22  1  0
 22 23  1  0
 23 24  1  0
 25 27  1  0
 25 19  1  0
 26 25  2  0
M  END
$$$$
