IKK.pdb
     RDKit          3D

 27 26  0  0  1  0  0  0  0  0999 V2000
    6.6559  -11.4624   27.4717 C   0  0  0  0  0  0  0  0  0  0  0  0
    6.0210  -12.6111   26.7588 C   0  0  0  0  0  0  0  0  0  0  0  0
    6.9912  -13.4311   25.9573 C   0  0  2  0  0  0  0  0  0  0  0  0
    7.8338  -12.6166   25.0193 C   0  0  0  0  0  0  0  0  0  0  0  0
    6.2502  -14.5596   25.2277 C   0  0  2  0  0  0  0  0  0  0  0  0
    5.6045  -15.3431   26.2606 N   0  0  0  0  0  0  0  0  0  0  0  0
    7.2532  -15.3818   24.5423 C   0  0  0  0  0  0  0  0  0  0  0  0
    8.0006  -16.1471   25.2043 O   0  0  0  0  0  0  0  0  0  0  0  0
    7.4478  -15.3748   23.1297 N   0  0  0  0  0  0  0  0  0  0  0  0
    8.4416  -16.1325   22.4410 C   0  0  1  0  0  0  0  0  0  0  0  0
    8.1838  -15.9797   20.9340 C   0  0  0  0  0  0  0  0  0  0  0  0
    8.5126  -14.6105   20.4608 C   0  0  0  0  0  0  0  0  0  0  0  0
    8.2649  -14.3407   19.0098 C   0  0  0  0  0  0  0  0  0  0  0  0
    8.5170  -12.9467   18.5687 C   0  0  0  0  0  0  0  0  0  0  0  0
    8.1437  -12.6489   17.2145 N   0  0  0  0  0  0  0  0  0  0  0  0
    9.8196  -15.7561   22.7744 C   0  0  0  0  0  0  0  0  0  0  0  0
   10.0508  -14.5960   23.1970 O   0  0  0  0  0  0  0  0  0  0  0  0
   10.8815  -16.6644   22.6309 N   0  0  0  0  0  0  0  0  0  0  0  0
   11.9508  -16.6553   23.6270 C   0  0  1  0  0  0  0  0  0  0  0  0
   11.8371  -17.7954   24.5684 C   0  0  0  0  0  0  0  0  0  0  0  0
   13.0059  -17.8560   25.5047 C   0  0  0  0  0  0  0  0  0  0  0  0
   12.9758  -19.0625   26.4162 C   0  0  0  0  0  0  0  0  0  0  0  0
   14.1818  -18.9801   27.3377 C   0  0  0  0  0  0  0  0  0  0  0  0
   14.2258  -20.1585   28.1979 N   0  0  0  0  0  0  0  0  0  0  0  0
   13.2729  -16.6821   22.9463 C   0  0  0  0  0  0  0  0  0  0  0  0
   14.3583  -16.4062   23.4871 O   0  0  0  0  0  0  0  0  0  0  0  0
   13.3606  -17.0402   21.5864 O   0  0  0  0  0  0  0  0  0  0  0  0
  1  2  1  0
  3  2  1  0
  3  4  1  6
  5  6  1  1
  5  3  1  0
  7  5  1  0
  8  7  2  0
  9  7  1  0
 10  9  1  0
 10 11  1  6
 11 12  1  0
 12 13  1  0
 14 13  1  0
 15 14  1  0
 16 18  1  0
 16 10  1  0
 17 16  2  0
 19 18  1  0
 20 21  1  0
 19 20  1  1
 21 22  1  0
 22 23  1  0
 23 24  1  0
 25 27  1  0
 25 19  1  0
 26 25  2  0
M  END
$$$$
