IKK.pdb
     RDKit          3D

 27 26  0  0  1  0  0  0  0  0999 V2000
    8.3728  -11.8650   19.0849 C   0  0  0  0  0  0  0  0  0  0  0  0
    7.7193  -13.2013   18.9514 C   0  0  0  0  0  0  0  0  0  0  0  0
    7.6656  -13.9750   20.2377 C   0  0  2  0  0  0  0  0  0  0  0  0
    8.9987  -14.1073   20.9146 C   0  0  0  0  0  0  0  0  0  0  0  0
    7.0043  -15.3400   20.0042 C   0  0  2  0  0  0  0  0  0  0  0  0
    5.6929  -15.0574   19.4582 N   0  0  0  0  0  0  0  0  0  0  0  0
    6.8623  -15.9960   21.3085 C   0  0  0  0  0  0  0  0  0  0  0  0
    6.3324  -15.3810   22.2695 O   0  0  0  0  0  0  0  0  0  0  0  0
    7.2977  -17.3277   21.5736 N   0  0  0  0  0  0  0  0  0  0  0  0
    7.2148  -17.9739   22.8431 C   0  0  1  0  0  0  0  0  0  0  0  0
    7.2027  -19.4902   22.5951 C   0  0  0  0  0  0  0  0  0  0  0  0
    7.1550  -20.2508   23.8702 C   0  0  0  0  0  0  0  0  0  0  0  0
    5.9359  -21.0911   24.0876 C   0  0  0  0  0  0  0  0  0  0  0  0
    5.9197  -21.8768   25.3461 C   0  0  0  0  0  0  0  0  0  0  0  0
    7.1299  -22.5885   25.6472 N   0  0  0  0  0  0  0  0  0  0  0  0
    8.2881  -17.6069   23.7732 C   0  0  0  0  0  0  0  0  0  0  0  0
    9.4770  -17.6149   23.3679 O   0  0  0  0  0  0  0  0  0  0  0  0
    8.0131  -17.2480   25.1031 N   0  0  0  0  0  0  0  0  0  0  0  0
    9.1154  -16.7949   25.9489 C   0  0  1  0  0  0  0  0  0  0  0  0
    8.6316  -16.0218   27.1181 C   0  0  0  0  0  0  0  0  0  0  0  0
    9.7629  -15.5980   28.0053 C   0  0  0  0  0  0  0  0  0  0  0  0
    9.3054  -14.8386   29.2306 C   0  0  0  0  0  0  0  0  0  0  0  0
   10.5426  -14.4227   30.0095 C   0  0  0  0  0  0  0  0  0  0  0  0
   10.1454  -13.7497   31.2424 N   0  0  0  0  0  0  0  0  0  0  0  0
    9.9152  -17.9640   26.4023 C   0  0  0  0  0  0  0  0  0  0  0  0
    9.4443  -19.0734   26.7092 O   0  0  0  0  0  0  0  0  0  0  0  0
   11.3165  -17.8625   26.5106 O   0  0  0  0  0  0  0  0  0  0  0  0
  1  2  1  0
  3  2  1  0
  3  4  1  6
  5  6  1  1
  5  3  1  0
  7  5  1  0
  8  7  2  0
  9  7  1  0
 10  9  1  0
 10 11  1  6
 11 12  1  0
 12 13  1  0
 14 13  1  0
 15 14  1  0
 16 18  1  0
 16 10  1  0
 17 16  2  0
 19 18  1  0
 20 21  1  0
 19 20  1  1
 21 22  1  0
 22 23  1  0
 23 24  1  0
 25 27  1  0
 25 19  1  0
 26 25  2  0
M  END
$$$$
