IKK.pdb
     RDKit          3D

 27 26  0  0  1  0  0  0  0  0999 V2000
    6.7529  -12.0355   28.1129 C   0  0  0  0  0  0  0  0  0  0  0  0
    6.1075  -13.0529   27.2301 C   0  0  0  0  0  0  0  0  0  0  0  0
    7.0166  -13.5803   26.1571 C   0  0  2  0  0  0  0  0  0  0  0  0
    7.6667  -12.5033   25.3382 C   0  0  0  0  0  0  0  0  0  0  0  0
    6.2654  -14.5912   25.2802 C   0  0  2  0  0  0  0  0  0  0  0  0
    5.9818  -15.7250   26.1356 N   0  0  0  0  0  0  0  0  0  0  0  0
    7.1691  -15.0040   24.2010 C   0  0  0  0  0  0  0  0  0  0  0  0
    7.9647  -15.9625   24.3767 O   0  0  0  0  0  0  0  0  0  0  0  0
    7.2110  -14.3740   22.9225 N   0  0  0  0  0  0  0  0  0  0  0  0
    8.0792  -14.7539   21.8557 C   0  0  1  0  0  0  0  0  0  0  0  0
    7.8688  -13.7573   20.7053 C   0  0  0  0  0  0  0  0  0  0  0  0
    8.7311  -14.0804   19.5396 C   0  0  0  0  0  0  0  0  0  0  0  0
    8.0643  -14.0441   18.2004 C   0  0  0  0  0  0  0  0  0  0  0  0
    8.8886  -14.5265   17.0649 C   0  0  0  0  0  0  0  0  0  0  0  0
    8.2369  -14.5320   15.7854 N   0  0  0  0  0  0  0  0  0  0  0  0
    9.4953  -14.8237   22.2318 C   0  0  0  0  0  0  0  0  0  0  0  0
    9.9391  -14.0232   23.0920 O   0  0  0  0  0  0  0  0  0  0  0  0
   10.3612  -15.7649   21.6509 N   0  0  0  0  0  0  0  0  0  0  0  0
   11.4454  -16.3141   22.4626 C   0  0  1  0  0  0  0  0  0  0  0  0
   10.9609  -17.3614   23.3939 C   0  0  0  0  0  0  0  0  0  0  0  0
   12.0852  -17.9589   24.1848 C   0  0  0  0  0  0  0  0  0  0  0  0
   11.6479  -19.1081   25.0653 C   0  0  0  0  0  0  0  0  0  0  0  0
   12.8598  -19.5786   25.8528 C   0  0  0  0  0  0  0  0  0  0  0  0
   12.4734  -20.6633   26.7500 N   0  0  0  0  0  0  0  0  0  0  0  0
   12.5066  -16.8653   21.5782 C   0  0  0  0  0  0  0  0  0  0  0  0
   12.3086  -17.6376   20.6238 O   0  0  0  0  0  0  0  0  0  0  0  0
   13.8556  -16.5193   21.7928 O   0  0  0  0  0  0  0  0  0  0  0  0
  1  2  1  0
  3  2  1  0
  3  4  1  6
  5  6  1  1
  5  3  1  0
  7  5  1  0
  8  7  2  0
  9  7  1  0
 10  9  1  0
 10 11  1  6
 11 12  1  0
 12 13  1  0
 14 13  1  0
 15 14  1  0
 16 18  1  0
 16 10  1  0
 17 16  2  0
 19 18  1  0
 20 21  1  0
 19 20  1  1
 21 22  1  0
 22 23  1  0
 23 24  1  0
 25 27  1  0
 25 19  1  0
 26 25  2  0
M  END
$$$$
