QYI.pdb
     RDKit          3D

 30 30  0  0  1  0  0  0  0  0999 V2000
    8.6199  -12.7305   18.4328 N   0  0  0  0  0  0  0  0  0  0  0  0
    8.4312  -13.6657   17.3816 C   0  0  0  0  0  0  0  0  0  0  0  0
    8.9949  -13.4634   16.2747 O   0  0  0  0  0  0  0  0  0  0  0  0
    7.5714  -14.8752   17.5935 C   0  0  0  0  0  0  0  0  0  0  0  0
    7.0503  -14.9049   19.0228 C   0  0  0  0  0  0  0  0  0  0  0  0
    7.7898  -15.9638   19.8062 C   0  0  2  0  0  0  0  0  0  0  0  0
    7.7066  -17.2519   19.1448 N   0  0  0  0  0  0  0  0  0  0  0  0
    7.2603  -16.1172   21.1857 C   0  0  0  0  0  0  0  0  0  0  0  0
    6.1216  -15.6391   21.5144 O   0  0  0  0  0  0  0  0  0  0  0  0
    4.4283  -22.0891   21.4761 O   0  0  0  0  0  0  0  0  0  0  0  0
    5.2293  -21.1563   22.1148 C   0  0  0  0  0  0  0  0  0  0  0  0
    4.7103  -20.4075   23.1576 C   0  0  0  0  0  0  0  0  0  0  0  0
    5.5411  -19.4804   23.7766 C   0  0  0  0  0  0  0  0  0  0  0  0
    6.8459  -19.2976   23.3780 C   0  0  0  0  0  0  0  0  0  0  0  0
    7.7436  -18.3152   24.0208 C   0  0  0  0  0  0  0  0  0  0  0  0
    7.4774  -16.8853   23.5879 C   0  0  2  0  0  0  0  0  0  0  0  0
    7.9622  -16.7905   22.2187 N   0  0  0  0  0  0  0  0  0  0  0  0
    8.1292  -15.8916   24.4660 C   0  0  0  0  0  0  0  0  0  0  0  0
    9.3734  -15.7169   24.4930 O   0  0  0  0  0  0  0  0  0  0  0  0
    7.3419  -20.0527   22.3390 C   0  0  0  0  0  0  0  0  0  0  0  0
    6.5327  -20.9950   21.6938 C   0  0  0  0  0  0  0  0  0  0  0  0
    7.5153  -10.5404   26.7733 C   0  0  0  0  0  0  0  0  0  0  0  0
    7.7120  -11.9050   27.4128 C   0  0  0  0  0  0  0  0  0  0  0  0
    7.0567  -12.9182   26.5299 C   0  0  2  0  0  0  0  0  0  0  0  0
    5.9027  -13.5404   27.3087 C   0  0  0  0  0  0  0  0  0  0  0  0
    8.0065  -14.0447   26.1901 C   0  0  2  0  0  0  0  0  0  0  0  0
    7.3708  -15.0489   25.3584 N   0  0  0  0  0  0  0  0  0  0  0  0
    8.4929  -14.6342   27.4378 C   0  0  0  0  0  0  0  0  0  0  0  0
    7.9208  -15.6075   27.9856 O   0  0  0  0  0  0  0  0  0  0  0  0
    9.6210  -14.1172   28.0532 O   0  0  0  0  0  0  0  0  0  0  0  0
  1  2  1  0
  2  4  1  0
  3  2  2  0
  4  5  1  0
  5  6  1  0
  6  7  1  6
  6  8  1  0
  8  9  2  0
  8 17  1  0
 10 11  1  0
 11 12  2  0
 12 13  1  0
 14 13  2  0
 14 15  1  0
 16 18  1  0
 16 15  1  1
 17 16  1  0
 18 19  2  0
 20 14  1  0
 21 11  1  0
 21 20  2  0
 22 23  1  0
 23 24  1  0
 24 26  1  0
 24 25  1  1
 26 28  1  0
 27 18  1  0
 26 27  1  6
 28 29  2  0
 28 30  1  0
M  END
$$$$
