QYI.pdb
     RDKit          3D

 30 30  0  0  1  0  0  0  0  0999 V2000
    7.2592  -12.6187   17.1330 N   0  0  0  0  0  0  0  0  0  0  0  0
    7.7064  -13.8678   16.6282 C   0  0  0  0  0  0  0  0  0  0  0  0
    7.6940  -14.0651   15.3853 O   0  0  0  0  0  0  0  0  0  0  0  0
    8.1856  -14.9329   17.5679 C   0  0  0  0  0  0  0  0  0  0  0  0
    8.0434  -14.4647   19.0086 C   0  0  0  0  0  0  0  0  0  0  0  0
    9.2723  -14.8637   19.7912 C   0  0  2  0  0  0  0  0  0  0  0  0
    9.9749  -15.9504   19.1361 N   0  0  0  0  0  0  0  0  0  0  0  0
    8.9446  -15.2928   21.1752 C   0  0  0  0  0  0  0  0  0  0  0  0
    8.0204  -14.7178   21.8449 O   0  0  0  0  0  0  0  0  0  0  0  0
    7.8796  -22.1243   19.7674 O   0  0  0  0  0  0  0  0  0  0  0  0
    8.3894  -21.1572   20.6185 C   0  0  0  0  0  0  0  0  0  0  0  0
    9.5102  -20.4363   20.2426 C   0  0  0  0  0  0  0  0  0  0  0  0
    9.9957  -19.4734   21.1201 C   0  0  0  0  0  0  0  0  0  0  0  0
    9.3926  -19.2293   22.3332 C   0  0  0  0  0  0  0  0  0  0  0  0
    9.8953  -18.2127   23.2810 C   0  0  0  0  0  0  0  0  0  0  0  0
    9.2072  -16.8676   23.1395 C   0  0  2  0  0  0  0  0  0  0  0  0
    9.6172  -16.3487   21.8429 N   0  0  0  0  0  0  0  0  0  0  0  0
    9.5486  -15.9334   24.2322 C   0  0  0  0  0  0  0  0  0  0  0  0
   10.7172  -15.5182   24.4348 O   0  0  0  0  0  0  0  0  0  0  0  0
    8.2791  -19.9575   22.6873 C   0  0  0  0  0  0  0  0  0  0  0  0
    7.7641  -20.9345   21.8274 C   0  0  0  0  0  0  0  0  0  0  0  0
    6.1795  -11.9334   25.6802 C   0  0  0  0  0  0  0  0  0  0  0  0
    7.3965  -12.7721   25.3261 C   0  0  0  0  0  0  0  0  0  0  0  0
    7.7634  -13.5717   26.5351 C   0  0  2  0  0  0  0  0  0  0  0  0
    8.2855  -12.6060   27.5935 C   0  0  0  0  0  0  0  0  0  0  0  0
    8.8902  -14.5341   26.2340 C   0  0  2  0  0  0  0  0  0  0  0  0
    8.5513  -15.4324   25.1466 N   0  0  0  0  0  0  0  0  0  0  0  0
    9.1980  -15.2842   27.4519 C   0  0  0  0  0  0  0  0  0  0  0  0
    8.6664  -16.3917   27.7082 O   0  0  0  0  0  0  0  0  0  0  0  0
   10.1038  -14.7745   28.3676 O   0  0  0  0  0  0  0  0  0  0  0  0
  1  2  1  0
  2  4  1  0
  3  2  2  0
  4  5  1  0
  5  6  1  0
  6  7  1  6
  6  8  1  0
  8  9  2  0
  8 17  1  0
 10 11  1  0
 11 12  2  0
 12 13  1  0
 14 13  2  0
 14 15  1  0
 16 18  1  0
 16 15  1  1
 17 16  1  0
 18 19  2  0
 20 14  1  0
 21 11  1  0
 21 20  2  0
 22 23  1  0
 23 24  1  0
 24 26  1  0
 24 25  1  1
 26 28  1  0
 27 18  1  0
 26 27  1  6
 28 29  2  0
 28 30  1  0
M  END
$$$$
