QYI.pdb
     RDKit          3D

 30 30  0  0  1  0  0  0  0  0999 V2000
   13.3570  -16.1969   17.0172 N   0  0  0  0  0  0  0  0  0  0  0  0
   12.8040  -17.5025   16.9494 C   0  0  0  0  0  0  0  0  0  0  0  0
   13.1339  -18.2578   15.9983 O   0  0  0  0  0  0  0  0  0  0  0  0
   11.8409  -17.9690   17.9991 C   0  0  0  0  0  0  0  0  0  0  0  0
   11.6562  -16.8920   19.0579 C   0  0  0  0  0  0  0  0  0  0  0  0
   11.5406  -17.5382   20.4184 C   0  0  2  0  0  0  0  0  0  0  0  0
   10.5787  -18.6236   20.3976 N   0  0  0  0  0  0  0  0  0  0  0  0
   11.1252  -16.5723   21.4679 C   0  0  0  0  0  0  0  0  0  0  0  0
   11.8235  -15.5332   21.7244 O   0  0  0  0  0  0  0  0  0  0  0  0
    6.8705  -12.6630   18.4300 O   0  0  0  0  0  0  0  0  0  0  0  0
    7.1570  -13.3950   19.5710 C   0  0  0  0  0  0  0  0  0  0  0  0
    6.8152  -14.7356   19.6282 C   0  0  0  0  0  0  0  0  0  0  0  0
    7.1170  -15.4407   20.7878 C   0  0  0  0  0  0  0  0  0  0  0  0
    7.7379  -14.8401   21.8596 C   0  0  0  0  0  0  0  0  0  0  0  0
    8.0641  -15.5714   23.1018 C   0  0  0  0  0  0  0  0  0  0  0  0
    9.5526  -15.7960   23.2932 C   0  0  2  0  0  0  0  0  0  0  0  0
    9.9493  -16.7267   22.2467 N   0  0  0  0  0  0  0  0  0  0  0  0
    9.8842  -16.3143   24.6366 C   0  0  0  0  0  0  0  0  0  0  0  0
   10.4506  -17.4209   24.8204 O   0  0  0  0  0  0  0  0  0  0  0  0
    8.0692  -13.5060   21.7816 C   0  0  0  0  0  0  0  0  0  0  0  0
    7.7797  -12.7666   20.6290 C   0  0  0  0  0  0  0  0  0  0  0  0
    9.1704  -12.7316   28.8812 C   0  0  0  0  0  0  0  0  0  0  0  0
    9.8644  -13.6025   27.8468 C   0  0  0  0  0  0  0  0  0  0  0  0
    9.6317  -15.0299   28.2263 C   0  0  2  0  0  0  0  0  0  0  0  0
   10.4876  -15.3334   29.4513 C   0  0  0  0  0  0  0  0  0  0  0  0
   10.0914  -15.9690   27.1339 C   0  0  2  0  0  0  0  0  0  0  0  0
    9.5755  -15.5751   25.8366 N   0  0  0  0  0  0  0  0  0  0  0  0
    9.6606  -17.3248   27.4755 C   0  0  0  0  0  0  0  0  0  0  0  0
    8.5470  -17.7823   27.1214 O   0  0  0  0  0  0  0  0  0  0  0  0
   10.4932  -18.1496   28.2138 O   0  0  0  0  0  0  0  0  0  0  0  0
  1  2  1  0
  2  4  1  0
  3  2  2  0
  4  5  1  0
  5  6  1  0
  6  7  1  6
  6  8  1  0
  8  9  2  0
  8 17  1  0
 10 11  1  0
 11 12  2  0
 12 13  1  0
 14 13  2  0
 14 15  1  0
 16 18  1  0
 16 15  1  1
 17 16  1  0
 18 19  2  0
 20 14  1  0
 21 11  1  0
 21 20  2  0
 22 23  1  0
 23 24  1  0
 24 26  1  0
 24 25  1  1
 26 28  1  0
 27 18  1  0
 26 27  1  6
 28 29  2  0
 28 30  1  0
M  END
$$$$
