QYI.pdb
     RDKit          3D

 30 30  0  0  1  0  0  0  0  0999 V2000
    8.0480  -12.6559   18.8213 N   0  0  0  0  0  0  0  0  0  0  0  0
    8.2469  -13.6763   17.8547 C   0  0  0  0  0  0  0  0  0  0  0  0
    8.6712  -13.3621   16.7123 O   0  0  0  0  0  0  0  0  0  0  0  0
    7.9537  -15.1061   18.1962 C   0  0  0  0  0  0  0  0  0  0  0  0
    7.3819  -15.2032   19.6029 C   0  0  0  0  0  0  0  0  0  0  0  0
    7.1086  -16.6510   19.9362 C   0  0  2  0  0  0  0  0  0  0  0  0
    5.9529  -17.1418   19.2101 N   0  0  0  0  0  0  0  0  0  0  0  0
    6.8660  -16.8594   21.3870 C   0  0  0  0  0  0  0  0  0  0  0  0
    5.7164  -16.6463   21.9029 O   0  0  0  0  0  0  0  0  0  0  0  0
    8.1679  -19.6530   29.6715 O   0  0  0  0  0  0  0  0  0  0  0  0
    8.1848  -19.4414   28.3023 C   0  0  0  0  0  0  0  0  0  0  0  0
    9.3934  -19.2517   27.6537 C   0  0  0  0  0  0  0  0  0  0  0  0
    9.3746  -19.0419   26.2795 C   0  0  0  0  0  0  0  0  0  0  0  0
    8.1974  -19.0199   25.5663 C   0  0  0  0  0  0  0  0  0  0  0  0
    8.1563  -18.7951   24.1061 C   0  0  0  0  0  0  0  0  0  0  0  0
    7.6630  -17.4116   23.7252 C   0  0  2  0  0  0  0  0  0  0  0  0
    7.8688  -17.3006   22.2886 N   0  0  0  0  0  0  0  0  0  0  0  0
    8.3591  -16.3346   24.4594 C   0  0  0  0  0  0  0  0  0  0  0  0
    9.5581  -16.0265   24.2440 O   0  0  0  0  0  0  0  0  0  0  0  0
    7.0069  -19.2107   26.2309 C   0  0  0  0  0  0  0  0  0  0  0  0
    6.9898  -19.4246   27.6141 C   0  0  0  0  0  0  0  0  0  0  0  0
    5.6692  -11.8312   26.0867 C   0  0  0  0  0  0  0  0  0  0  0  0
    6.6966  -12.7949   25.5161 C   0  0  0  0  0  0  0  0  0  0  0  0
    7.4082  -13.4323   26.6663 C   0  0  2  0  0  0  0  0  0  0  0  0
    8.2404  -12.3563   27.3554 C   0  0  0  0  0  0  0  0  0  0  0  0
    8.3777  -14.4913   26.1916 C   0  0  2  0  0  0  0  0  0  0  0  0
    7.6994  -15.5591   25.4818 N   0  0  0  0  0  0  0  0  0  0  0  0
    9.0991  -15.0141   27.3522 C   0  0  0  0  0  0  0  0  0  0  0  0
    8.6877  -16.0031   28.0060 O   0  0  0  0  0  0  0  0  0  0  0  0
   10.2780  -14.4134   27.7618 O   0  0  0  0  0  0  0  0  0  0  0  0
  1  2  1  0
  2  4  1  0
  3  2  2  0
  4  5  1  0
  5  6  1  0
  6  7  1  6
  6  8  1  0
  8  9  2  0
  8 17  1  0
 10 11  1  0
 11 12  2  0
 12 13  1  0
 14 13  2  0
 14 15  1  0
 16 18  1  0
 16 15  1  1
 17 16  1  0
 18 19  2  0
 20 14  1  0
 21 11  1  0
 21 20  2  0
 22 23  1  0
 23 24  1  0
 24 26  1  0
 24 25  1  6
 26 28  1  0
 27 18  1  0
 26 27  1  1
 28 29  2  0
 28 30  1  0
M  END
$$$$
