QYI.pdb
     RDKit          3D

 30 30  0  0  1  0  0  0  0  0999 V2000
    8.4908  -12.6173   19.6236 N   0  0  0  0  0  0  0  0  0  0  0  0
    8.4520  -13.3387   18.4016 C   0  0  0  0  0  0  0  0  0  0  0  0
    9.1467  -12.9371   17.4321 O   0  0  0  0  0  0  0  0  0  0  0  0
    7.5935  -14.5609   18.2743 C   0  0  0  0  0  0  0  0  0  0  0  0
    6.8890  -14.8472   19.5922 C   0  0  0  0  0  0  0  0  0  0  0  0
    6.9818  -16.3227   19.9023 C   0  0  2  0  0  0  0  0  0  0  0  0
    5.9851  -17.0725   19.1621 N   0  0  0  0  0  0  0  0  0  0  0  0
    6.7952  -16.6077   21.3483 C   0  0  0  0  0  0  0  0  0  0  0  0
    5.6452  -16.5151   21.8980 O   0  0  0  0  0  0  0  0  0  0  0  0
    8.3683  -19.7136   29.4748 O   0  0  0  0  0  0  0  0  0  0  0  0
    8.3349  -19.4187   28.1214 C   0  0  0  0  0  0  0  0  0  0  0  0
    7.1229  -19.4119   27.4519 C   0  0  0  0  0  0  0  0  0  0  0  0
    7.1250  -19.1119   26.0943 C   0  0  0  0  0  0  0  0  0  0  0  0
    8.2893  -18.8272   25.4174 C   0  0  0  0  0  0  0  0  0  0  0  0
    8.3128  -18.5093   23.9743 C   0  0  0  0  0  0  0  0  0  0  0  0
    7.7011  -17.1598   23.6466 C   0  0  2  0  0  0  0  0  0  0  0  0
    7.8549  -16.9951   22.2086 N   0  0  0  0  0  0  0  0  0  0  0  0
    8.3316  -16.0505   24.3918 C   0  0  0  0  0  0  0  0  0  0  0  0
    9.4591  -15.5824   24.0941 O   0  0  0  0  0  0  0  0  0  0  0  0
    9.4835  -18.8394   26.1025 C   0  0  0  0  0  0  0  0  0  0  0  0
    9.5173  -19.1372   27.4697 C   0  0  0  0  0  0  0  0  0  0  0  0
    5.4228  -11.8504   26.3408 C   0  0  0  0  0  0  0  0  0  0  0  0
    6.4758  -12.7378   25.6977 C   0  0  0  0  0  0  0  0  0  0  0  0
    7.2635  -13.3760   26.7968 C   0  0  2  0  0  0  0  0  0  0  0  0
    8.0274  -12.2751   27.5246 C   0  0  0  0  0  0  0  0  0  0  0  0
    8.2994  -14.3298   26.2457 C   0  0  2  0  0  0  0  0  0  0  0  0
    7.6861  -15.4269   25.5215 N   0  0  0  0  0  0  0  0  0  0  0  0
    9.1095  -14.8284   27.3574 C   0  0  0  0  0  0  0  0  0  0  0  0
    8.7638  -15.8190   28.0457 O   0  0  0  0  0  0  0  0  0  0  0  0
   10.3021  -14.2018   27.6794 O   0  0  0  0  0  0  0  0  0  0  0  0
  1  2  1  0
  2  4  1  0
  3  2  2  0
  4  5  1  0
  5  6  1  0
  6  7  1  6
  6  8  1  0
  8  9  2  0
  8 17  1  0
 10 11  1  0
 11 12  2  0
 12 13  1  0
 14 13  2  0
 14 15  1  0
 16 18  1  0
 16 15  1  1
 17 16  1  0
 18 19  2  0
 20 14  1  0
 21 11  1  0
 21 20  2  0
 22 23  1  0
 23 24  1  0
 24 26  1  0
 24 25  1  6
 26 28  1  0
 27 18  1  0
 26 27  1  1
 28 29  2  0
 28 30  1  0
M  END
$$$$
