QYI.pdb
     RDKit          3D

 30 30  0  0  1  0  0  0  0  0999 V2000
    8.1378  -12.8480   17.7506 N   0  0  0  0  0  0  0  0  0  0  0  0
    8.1032  -13.9096   16.8089 C   0  0  0  0  0  0  0  0  0  0  0  0
    8.5232  -13.7045   15.6404 O   0  0  0  0  0  0  0  0  0  0  0  0
    7.5725  -15.2538   17.2070 C   0  0  0  0  0  0  0  0  0  0  0  0
    7.1574  -15.2418   18.6708 C   0  0  0  0  0  0  0  0  0  0  0  0
    8.3660  -15.5015   19.5389 C   0  0  2  0  0  0  0  0  0  0  0  0
    9.0871  -16.6760   19.0870 N   0  0  0  0  0  0  0  0  0  0  0  0
    8.0030  -15.7020   20.9654 C   0  0  0  0  0  0  0  0  0  0  0  0
    7.1680  -14.9314   21.5503 O   0  0  0  0  0  0  0  0  0  0  0  0
    7.8683  -19.6577   28.9255 O   0  0  0  0  0  0  0  0  0  0  0  0
    8.1045  -19.3235   27.6017 C   0  0  0  0  0  0  0  0  0  0  0  0
    9.3649  -18.8980   27.2174 C   0  0  0  0  0  0  0  0  0  0  0  0
    9.5677  -18.5705   25.8815 C   0  0  0  0  0  0  0  0  0  0  0  0
    8.5560  -18.6601   24.9523 C   0  0  0  0  0  0  0  0  0  0  0  0
    8.7507  -18.3135   23.5288 C   0  0  0  0  0  0  0  0  0  0  0  0
    8.1505  -16.9722   23.1500 C   0  0  2  0  0  0  0  0  0  0  0  0
    8.5432  -16.7401   21.7677 N   0  0  0  0  0  0  0  0  0  0  0  0
    8.5976  -15.8759   24.0341 C   0  0  0  0  0  0  0  0  0  0  0  0
    9.8008  -15.5275   24.1340 O   0  0  0  0  0  0  0  0  0  0  0  0
    7.3103  -19.0855   25.3559 C   0  0  0  0  0  0  0  0  0  0  0  0
    7.0718  -19.4232   26.6931 C   0  0  0  0  0  0  0  0  0  0  0  0
    6.5000  -10.7240   26.6006 C   0  0  0  0  0  0  0  0  0  0  0  0
    7.5475  -11.8234   26.6622 C   0  0  0  0  0  0  0  0  0  0  0  0
    7.0644  -12.9577   25.8162 C   0  0  2  0  0  0  0  0  0  0  0  0
    5.8569  -13.5779   26.5110 C   0  0  0  0  0  0  0  0  0  0  0  0
    8.1090  -14.0460   25.7108 C   0  0  2  0  0  0  0  0  0  0  0  0
    7.6712  -15.1270   24.8482 N   0  0  0  0  0  0  0  0  0  0  0  0
    8.4023  -14.5401   27.0564 C   0  0  0  0  0  0  0  0  0  0  0  0
    7.8079  -15.5286   27.5505 O   0  0  0  0  0  0  0  0  0  0  0  0
    9.3644  -13.9113   27.8294 O   0  0  0  0  0  0  0  0  0  0  0  0
  1  2  1  0
  2  4  1  0
  3  2  2  0
  4  5  1  0
  5  6  1  0
  6  7  1  6
  6  8  1  0
  8  9  2  0
  8 17  1  0
 10 11  1  0
 11 12  2  0
 12 13  1  0
 14 13  2  0
 14 15  1  0
 16 18  1  0
 16 15  1  1
 17 16  1  0
 18 19  2  0
 20 14  1  0
 21 11  1  0
 21 20  2  0
 22 23  1  0
 23 24  1  0
 24 26  1  0
 24 25  1  1
 26 28  1  0
 27 18  1  0
 26 27  1  6
 28 29  2  0
 28 30  1  0
M  END
$$$$
