QYI.pdb
     RDKit          3D

 30 30  0  0  1  0  0  0  0  0999 V2000
    4.3101  -20.2892   18.6761 N   0  0  0  0  0  0  0  0  0  0  0  0
    5.4369  -19.6666   18.0778 C   0  0  0  0  0  0  0  0  0  0  0  0
    5.5469  -19.6758   16.8241 O   0  0  0  0  0  0  0  0  0  0  0  0
    6.4778  -19.0092   18.9330 C   0  0  0  0  0  0  0  0  0  0  0  0
    6.0679  -17.5792   19.2529 C   0  0  0  0  0  0  0  0  0  0  0  0
    7.1566  -16.9120   20.0600 C   0  0  2  0  0  0  0  0  0  0  0  0
    8.4521  -17.4936   19.7648 N   0  0  0  0  0  0  0  0  0  0  0  0
    6.9223  -17.0228   21.5228 C   0  0  0  0  0  0  0  0  0  0  0  0
    5.8674  -16.5438   22.0621 O   0  0  0  0  0  0  0  0  0  0  0  0
    8.3544  -19.5774   29.9200 O   0  0  0  0  0  0  0  0  0  0  0  0
    8.2962  -19.4408   28.5425 C   0  0  0  0  0  0  0  0  0  0  0  0
    7.0832  -19.5858   27.8907 C   0  0  0  0  0  0  0  0  0  0  0  0
    7.0601  -19.4425   26.5080 C   0  0  0  0  0  0  0  0  0  0  0  0
    8.2010  -19.1644   25.7897 C   0  0  0  0  0  0  0  0  0  0  0  0
    8.1978  -19.0117   24.3196 C   0  0  0  0  0  0  0  0  0  0  0  0
    7.6581  -17.6712   23.8564 C   0  0  2  0  0  0  0  0  0  0  0  0
    7.8308  -17.6541   22.4112 N   0  0  0  0  0  0  0  0  0  0  0  0
    8.3389  -16.5281   24.4993 C   0  0  0  0  0  0  0  0  0  0  0  0
    9.4188  -16.0485   24.0715 O   0  0  0  0  0  0  0  0  0  0  0  0
    9.3967  -19.0241   26.4576 C   0  0  0  0  0  0  0  0  0  0  0  0
    9.4554  -19.1620   27.8493 C   0  0  0  0  0  0  0  0  0  0  0  0
    5.6125  -12.2253   26.4604 C   0  0  0  0  0  0  0  0  0  0  0  0
    6.6371  -13.1242   25.7881 C   0  0  0  0  0  0  0  0  0  0  0  0
    7.4501  -13.7690   26.8647 C   0  0  2  0  0  0  0  0  0  0  0  0
    8.2532  -12.6763   27.5620 C   0  0  0  0  0  0  0  0  0  0  0  0
    8.4536  -14.7407   26.2855 C   0  0  2  0  0  0  0  0  0  0  0  0
    7.8016  -15.8822   25.6723 N   0  0  0  0  0  0  0  0  0  0  0  0
    9.3556  -15.1691   27.3549 C   0  0  0  0  0  0  0  0  0  0  0  0
    9.1159  -16.1713   28.0712 O   0  0  0  0  0  0  0  0  0  0  0  0
   10.5193  -14.4601   27.6035 O   0  0  0  0  0  0  0  0  0  0  0  0
  1  2  1  0
  2  4  1  0
  3  2  2  0
  4  5  1  0
  5  6  1  0
  6  7  1  1
  6  8  1  0
  8  9  2  0
  8 17  1  0
 10 11  1  0
 11 12  2  0
 12 13  1  0
 14 13  2  0
 14 15  1  0
 16 18  1  0
 16 15  1  1
 17 16  1  0
 18 19  2  0
 20 14  1  0
 21 11  1  0
 21 20  2  0
 22 23  1  0
 23 24  1  0
 24 26  1  0
 24 25  1  6
 26 28  1  0
 27 18  1  0
 26 27  1  1
 28 29  2  0
 28 30  1  0
M  END
$$$$
