YNE.pdb
     RDKit          3D

 30 30  0  0  1  0  0  0  0  0999 V2000
   28.9728  -20.2329   -3.3760 O   0  0  0  0  0  0  0  0  0  0  0  0
   28.4122  -20.0961   -4.6380 C   0  0  0  0  0  0  0  0  0  0  0  0
   27.3255  -20.8333   -5.0526 C   0  0  0  0  0  0  0  0  0  0  0  0
   26.7766  -20.6840   -6.3192 C   0  0  0  0  0  0  0  0  0  0  0  0
   27.3015  -19.7839   -7.2217 C   0  0  0  0  0  0  0  0  0  0  0  0
   26.7310  -19.6070   -8.5766 C   0  0  0  0  0  0  0  0  0  0  0  0
   27.0169  -20.8127   -9.4833 C   0  0  2  0  0  0  0  0  0  0  0  0
   28.4740  -20.9232   -9.6557 N   0  0  0  0  0  0  0  0  0  0  0  0
   26.4886  -20.4103  -10.8174 C   0  0  0  0  0  0  0  0  0  0  0  0
   27.0929  -19.5031  -11.4174 O   0  0  0  0  0  0  0  0  0  0  0  0
   28.3935  -19.0433   -6.8046 C   0  0  0  0  0  0  0  0  0  0  0  0
   28.9385  -19.1951   -5.5397 C   0  0  0  0  0  0  0  0  0  0  0  0
   26.0809  -22.2920  -16.0372 N   0  0  0  0  0  0  0  0  0  0  0  0
   25.8384  -21.2320  -15.1410 C   0  0  0  0  0  0  0  0  0  0  0  0
   25.3548  -20.1738  -15.6564 O   0  0  0  0  0  0  0  0  0  0  0  0
   26.1410  -21.3867  -13.7110 C   0  0  0  0  0  0  0  0  0  0  0  0
   25.0211  -20.9145  -12.8176 C   0  0  2  0  0  0  0  0  0  0  0  0
   25.3478  -21.0083  -11.4186 N   0  0  0  0  0  0  0  0  0  0  0  0
   23.7648  -21.6131  -13.1661 C   0  0  0  0  0  0  0  0  0  0  0  0
   23.5769  -22.8437  -13.0325 O   0  0  0  0  0  0  0  0  0  0  0  0
   22.6965  -20.8415  -13.6879 N   0  0  0  0  0  0  0  0  0  0  0  0
   21.4216  -21.4369  -14.0674 C   0  0  1  0  0  0  0  0  0  0  0  0
   20.3360  -20.4391  -13.7402 C   0  0  0  0  0  0  0  0  0  0  0  0
   19.2605  -21.1976  -12.9581 C   0  0  0  0  0  0  0  0  0  0  0  0
   18.8181  -20.3229  -11.8393 C   0  0  0  0  0  0  0  0  0  0  0  0
   18.4976  -19.1229  -12.0285 O   0  0  0  0  0  0  0  0  0  0  0  0
   21.4385  -21.5908  -15.5426 C   0  0  0  0  0  0  0  0  0  0  0  0
   22.0649  -20.7603  -16.2413 O   0  0  0  0  0  0  0  0  0  0  0  0
   18.7453  -20.8097  -10.5428 O   0  0  0  0  0  0  0  0  0  0  0  0
   20.7832  -22.6247  -16.1804 O   0  0  0  0  0  0  0  0  0  0  0  0
  2  1  1  0
  3  2  2  0
  4  3  1  0
  5  4  2  0
  5 11  1  0
  6  5  1  0
  7  6  1  0
  7  8  1  6
  9  7  1  0
  9 18  1  0
 10  9  2  0
 11 12  2  0
 12  2  1  0
 13 14  1  0
 14 15  2  0
 16 14  1  0
 17 16  1  6
 17 18  1  0
 19 17  1  0
 20 19  2  0
 21 19  1  0
 22 21  1  0
 22 27  1  0
 22 23  1  6
 24 23  1  0
 25 24  1  0
 26 25  2  0
 27 28  2  0
 27 30  1  0
 29 25  1  0
M  END
$$$$
