YNE.pdb
     RDKit          3D

 30 30  0  0  1  0  0  0  0  0999 V2000
   18.3954  -15.3492  -22.5028 O   0  0  0  0  0  0  0  0  0  0  0  0
   18.3810  -14.4569  -21.4402 C   0  0  0  0  0  0  0  0  0  0  0  0
   17.4826  -14.5530  -20.4010 C   0  0  0  0  0  0  0  0  0  0  0  0
   17.4819  -13.6515  -19.3450 C   0  0  0  0  0  0  0  0  0  0  0  0
   18.3883  -12.6142  -19.2929 C   0  0  0  0  0  0  0  0  0  0  0  0
   18.4066  -11.6427  -18.1756 C   0  0  0  0  0  0  0  0  0  0  0  0
   19.2414  -12.1457  -16.9891 C   0  0  2  0  0  0  0  0  0  0  0  0
   18.5173  -13.2596  -16.3568 N   0  0  0  0  0  0  0  0  0  0  0  0
   19.1960  -11.0308  -16.0013 C   0  0  0  0  0  0  0  0  0  0  0  0
   18.5840  -11.2388  -14.9380 O   0  0  0  0  0  0  0  0  0  0  0  0
   19.2908  -12.5181  -20.3374 C   0  0  0  0  0  0  0  0  0  0  0  0
   19.2885  -13.4198  -21.3896 C   0  0  0  0  0  0  0  0  0  0  0  0
   19.5992   -8.1771  -11.8613 N   0  0  0  0  0  0  0  0  0  0  0  0
   20.5582   -8.1797  -12.8937 C   0  0  0  0  0  0  0  0  0  0  0  0
   21.4219   -7.2464  -12.8463 O   0  0  0  0  0  0  0  0  0  0  0  0
   20.5220   -9.2152  -13.9361 C   0  0  0  0  0  0  0  0  0  0  0  0
   19.9133   -8.7296  -15.2279 C   0  0  2  0  0  0  0  0  0  0  0  0
   19.8104   -9.7679  -16.2199 N   0  0  0  0  0  0  0  0  0  0  0  0
   20.6389   -7.5356  -15.7137 C   0  0  0  0  0  0  0  0  0  0  0  0
   21.7373   -7.5685  -16.3136 O   0  0  0  0  0  0  0  0  0  0  0  0
   20.0555   -6.2640  -15.4871 N   0  0  0  0  0  0  0  0  0  0  0  0
   19.6949   -5.3694  -16.5796 C   0  0  1  0  0  0  0  0  0  0  0  0
   18.6711   -6.0800  -17.4330 C   0  0  0  0  0  0  0  0  0  0  0  0
   18.2699   -5.1060  -18.5438 C   0  0  0  0  0  0  0  0  0  0  0  0
   17.3647   -5.8333  -19.4734 C   0  0  0  0  0  0  0  0  0  0  0  0
   17.7611   -6.2429  -20.5930 O   0  0  0  0  0  0  0  0  0  0  0  0
   19.0159   -4.1982  -15.9733 C   0  0  0  0  0  0  0  0  0  0  0  0
   18.3171   -4.3558  -14.9450 O   0  0  0  0  0  0  0  0  0  0  0  0
   16.0447   -6.0837  -19.1291 O   0  0  0  0  0  0  0  0  0  0  0  0
   19.1260   -2.9293  -16.5049 O   0  0  0  0  0  0  0  0  0  0  0  0
  2  1  1  0
  3  2  2  0
  4  3  1  0
  5  4  2  0
  5 11  1  0
  6  5  1  0
  7  6  1  0
  7  8  1  1
  9  7  1  0
  9 18  1  0
 10  9  2  0
 11 12  2  0
 12  2  1  0
 13 14  1  0
 14 15  2  0
 16 14  1  0
 17 16  1  1
 17 18  1  0
 19 17  1  0
 20 19  2  0
 21 19  1  0
 22 21  1  0
 22 27  1  0
 22 23  1  6
 24 23  1  0
 25 24  1  0
 26 25  2  0
 27 28  2  0
 27 30  1  0
 29 25  1  0
M  END
$$$$
