YNE.pdb
     RDKit          3D

 30 30  0  0  1  0  0  0  0  0999 V2000
   25.1623  -13.0804  -17.1202 O   0  0  0  0  0  0  0  0  0  0  0  0
   24.1197  -12.1986  -16.8727 C   0  0  0  0  0  0  0  0  0  0  0  0
   23.4927  -12.1135  -15.6497 C   0  0  0  0  0  0  0  0  0  0  0  0
   22.4508  -11.2252  -15.4188 C   0  0  0  0  0  0  0  0  0  0  0  0
   21.9973  -10.3848  -16.4128 C   0  0  0  0  0  0  0  0  0  0  0  0
   20.8892   -9.4287  -16.1880 C   0  0  0  0  0  0  0  0  0  0  0  0
   19.5214  -10.1263  -16.1725 C   0  0  2  0  0  0  0  0  0  0  0  0
   19.2536  -10.6434  -17.5238 N   0  0  0  0  0  0  0  0  0  0  0  0
   18.5414   -9.0223  -15.9684 C   0  0  0  0  0  0  0  0  0  0  0  0
   18.1787   -8.3912  -16.9775 O   0  0  0  0  0  0  0  0  0  0  0  0
   22.6278  -10.4708  -17.6417 C   0  0  0  0  0  0  0  0  0  0  0  0
   23.6673  -11.3585  -17.8684 C   0  0  0  0  0  0  0  0  0  0  0  0
   17.0138   -6.9398  -10.9818 N   0  0  0  0  0  0  0  0  0  0  0  0
   17.1596   -7.8887  -12.0133 C   0  0  0  0  0  0  0  0  0  0  0  0
   18.0953   -8.7364  -11.8545 O   0  0  0  0  0  0  0  0  0  0  0  0
   16.2637   -7.8606  -13.1782 C   0  0  0  0  0  0  0  0  0  0  0  0
   16.9987   -7.6736  -14.4821 C   0  0  2  0  0  0  0  0  0  0  0  0
   18.0159   -8.6697  -14.6956 N   0  0  0  0  0  0  0  0  0  0  0  0
   17.5140   -6.2905  -14.5804 C   0  0  0  0  0  0  0  0  0  0  0  0
   18.6853   -5.9485  -14.3003 O   0  0  0  0  0  0  0  0  0  0  0  0
   16.6251   -5.2785  -15.0213 N   0  0  0  0  0  0  0  0  0  0  0  0
   17.0646   -3.9101  -15.2623 C   0  0  1  0  0  0  0  0  0  0  0  0
   16.1816   -3.3301  -16.3419 C   0  0  0  0  0  0  0  0  0  0  0  0
   16.6154   -1.8743  -16.5320 C   0  0  0  0  0  0  0  0  0  0  0  0
   16.1947   -1.4550  -17.8957 C   0  0  0  0  0  0  0  0  0  0  0  0
   15.6054   -2.2447  -18.6752 O   0  0  0  0  0  0  0  0  0  0  0  0
   16.7925   -3.1437  -14.0218 C   0  0  0  0  0  0  0  0  0  0  0  0
   17.2381   -1.9780  -13.9079 O   0  0  0  0  0  0  0  0  0  0  0  0
   16.4419   -0.1687  -18.3515 O   0  0  0  0  0  0  0  0  0  0  0  0
   16.0598   -3.6721  -12.9782 O   0  0  0  0  0  0  0  0  0  0  0  0
  2  1  1  0
  3  2  2  0
  4  3  1  0
  5  4  2  0
  5 11  1  0
  6  5  1  0
  7  6  1  0
  7  8  1  6
  9  7  1  0
  9 18  1  0
 10  9  2  0
 11 12  2  0
 12  2  1  0
 13 14  1  0
 14 15  2  0
 16 14  1  0
 17 16  1  1
 17 18  1  0
 19 17  1  0
 20 19  2  0
 21 19  1  0
 22 21  1  0
 22 27  1  0
 22 23  1  6
 24 23  1  0
 25 24  1  0
 26 25  2  0
 27 28  2  0
 27 30  1  0
 29 25  1  0
M  END
$$$$
