YNE.pdb
     RDKit          3D

 30 30  0  0  1  0  0  0  0  0999 V2000
   22.3730  -15.6240  -20.4411 O   0  0  0  0  0  0  0  0  0  0  0  0
   22.3747  -16.8362  -19.7657 C   0  0  0  0  0  0  0  0  0  0  0  0
   22.0350  -16.9466  -18.4358 C   0  0  0  0  0  0  0  0  0  0  0  0
   22.0418  -18.1677  -17.7749 C   0  0  0  0  0  0  0  0  0  0  0  0
   22.3919  -19.3298  -18.4284 C   0  0  0  0  0  0  0  0  0  0  0  0
   22.4042  -20.6426  -17.7438 C   0  0  0  0  0  0  0  0  0  0  0  0
   23.8323  -21.1340  -17.4670 C   0  0  2  0  0  0  0  0  0  0  0  0
   24.4804  -21.4147  -18.7579 N   0  0  0  0  0  0  0  0  0  0  0  0
   23.6507  -22.4625  -16.8167 C   0  0  0  0  0  0  0  0  0  0  0  0
   24.2206  -23.4352  -17.3433 O   0  0  0  0  0  0  0  0  0  0  0  0
   22.7331  -19.2182  -19.7649 C   0  0  0  0  0  0  0  0  0  0  0  0
   22.7251  -17.9978  -20.4211 C   0  0  0  0  0  0  0  0  0  0  0  0
   24.0608  -25.7797  -16.5119 N   0  0  0  0  0  0  0  0  0  0  0  0
   24.7414  -25.3760  -15.3460 C   0  0  0  0  0  0  0  0  0  0  0  0
   25.8729  -25.9244  -15.1503 O   0  0  0  0  0  0  0  0  0  0  0  0
   24.1419  -24.3819  -14.4446 C   0  0  0  0  0  0  0  0  0  0  0  0
   22.7933  -23.8973  -14.9155 C   0  0  2  0  0  0  0  0  0  0  0  0
   22.8705  -22.6584  -15.6449 N   0  0  0  0  0  0  0  0  0  0  0  0
   21.8488  -23.8410  -13.7785 C   0  0  0  0  0  0  0  0  0  0  0  0
   21.6432  -24.7830  -12.9799 O   0  0  0  0  0  0  0  0  0  0  0  0
   21.1236  -22.6405  -13.5742 N   0  0  0  0  0  0  0  0  0  0  0  0
   19.7446  -22.6372  -13.1027 C   0  0  1  0  0  0  0  0  0  0  0  0
   18.9145  -21.8955  -14.1236 C   0  0  0  0  0  0  0  0  0  0  0  0
   17.4755  -21.8884  -13.6013 C   0  0  0  0  0  0  0  0  0  0  0  0
   16.6226  -21.2578  -14.6441 C   0  0  0  0  0  0  0  0  0  0  0  0
   17.0980  -20.8793  -15.7437 O   0  0  0  0  0  0  0  0  0  0  0  0
   19.2819  -24.0465  -13.1093 C   0  0  0  0  0  0  0  0  0  0  0  0
   18.7452  -24.5233  -12.0822 O   0  0  0  0  0  0  0  0  0  0  0  0
   15.2653  -21.0673  -14.4323 O   0  0  0  0  0  0  0  0  0  0  0  0
   19.4222  -24.8600  -14.2154 O   0  0  0  0  0  0  0  0  0  0  0  0
  2  1  1  0
  3  2  2  0
  4  3  1  0
  5  4  2  0
  5 11  1  0
  6  5  1  0
  7  6  1  0
  7  8  1  6
  9  7  1  0
  9 18  1  0
 10  9  2  0
 11 12  2  0
 12  2  1  0
 13 14  1  0
 14 15  2  0
 16 14  1  0
 17 16  1  1
 17 18  1  0
 19 17  1  0
 20 19  2  0
 21 19  1  0
 22 21  1  0
 22 27  1  0
 22 23  1  6
 24 23  1  0
 25 24  1  0
 26 25  2  0
 27 28  2  0
 27 30  1  0
 29 25  1  0
M  END
$$$$
