YNE.pdb
     RDKit          3D

 30 30  0  0  1  0  0  0  0  0999 V2000
   18.4355  -15.6713  -15.7239 O   0  0  0  0  0  0  0  0  0  0  0  0
   19.1860  -14.5267  -15.9529 C   0  0  0  0  0  0  0  0  0  0  0  0
   18.6251  -13.2708  -16.0183 C   0  0  0  0  0  0  0  0  0  0  0  0
   19.3906  -12.1355  -16.2482 C   0  0  0  0  0  0  0  0  0  0  0  0
   20.7555  -12.2196  -16.4219 C   0  0  0  0  0  0  0  0  0  0  0  0
   21.5913  -11.0220  -16.6663 C   0  0  0  0  0  0  0  0  0  0  0  0
   21.6153  -10.6300  -18.1507 C   0  0  2  0  0  0  0  0  0  0  0  0
   22.3261  -11.6831  -18.8929 N   0  0  0  0  0  0  0  0  0  0  0  0
   22.5044   -9.4353  -18.2071 C   0  0  0  0  0  0  0  0  0  0  0  0
   23.4263   -9.4526  -19.0426 O   0  0  0  0  0  0  0  0  0  0  0  0
   21.3187  -13.4819  -16.3560 C   0  0  0  0  0  0  0  0  0  0  0  0
   20.5514  -14.6126  -16.1264 C   0  0  0  0  0  0  0  0  0  0  0  0
   25.0373   -5.2857  -19.5343 N   0  0  0  0  0  0  0  0  0  0  0  0
   23.6968   -5.2521  -19.1014 C   0  0  0  0  0  0  0  0  0  0  0  0
   23.2150   -4.0936  -18.8887 O   0  0  0  0  0  0  0  0  0  0  0  0
   22.9444   -6.5018  -18.9218 C   0  0  0  0  0  0  0  0  0  0  0  0
   23.0553   -7.0606  -17.5251 C   0  0  2  0  0  0  0  0  0  0  0  0
   22.3446   -8.3022  -17.3640 N   0  0  0  0  0  0  0  0  0  0  0  0
   22.6593   -6.0351  -16.5353 C   0  0  0  0  0  0  0  0  0  0  0  0
   23.1557   -4.8879  -16.4652 O   0  0  0  0  0  0  0  0  0  0  0  0
   21.6490   -6.3686  -15.5989 N   0  0  0  0  0  0  0  0  0  0  0  0
   20.9481   -5.3563  -14.8193 C   0  0  1  0  0  0  0  0  0  0  0  0
   19.7925   -6.0350  -14.1228 C   0  0  0  0  0  0  0  0  0  0  0  0
   18.7782   -6.4041  -15.2084 C   0  0  0  0  0  0  0  0  0  0  0  0
   17.6685   -7.1463  -14.5525 C   0  0  0  0  0  0  0  0  0  0  0  0
   17.3630   -8.3150  -14.8980 O   0  0  0  0  0  0  0  0  0  0  0  0
   21.8836   -4.9002  -13.7623 C   0  0  0  0  0  0  0  0  0  0  0  0
   21.4860   -4.0841  -12.8985 O   0  0  0  0  0  0  0  0  0  0  0  0
   16.9317   -6.5660  -13.5309 O   0  0  0  0  0  0  0  0  0  0  0  0
   23.1882   -5.3454  -13.6945 O   0  0  0  0  0  0  0  0  0  0  0  0
  2  1  1  0
  3  2  2  0
  4  3  1  0
  5  4  2  0
  5 11  1  0
  6  5  1  0
  7  6  1  0
  7  8  1  6
  9  7  1  0
  9 18  1  0
 10  9  2  0
 11 12  2  0
 12  2  1  0
 13 14  1  0
 14 15  2  0
 16 14  1  0
 17 16  1  6
 17 18  1  0
 19 17  1  0
 20 19  2  0
 21 19  1  0
 22 21  1  0
 22 27  1  0
 22 23  1  1
 24 23  1  0
 25 24  1  0
 26 25  2  0
 27 28  2  0
 27 30  1  0
 29 25  1  0
M  END
$$$$
