YNE.pdb
     RDKit          3D

 30 30  0  0  1  0  0  0  0  0999 V2000
   22.4105  -18.0017  -21.8410 O   0  0  0  0  0  0  0  0  0  0  0  0
   21.9273  -16.7634  -21.4426 C   0  0  0  0  0  0  0  0  0  0  0  0
   20.8164  -16.6218  -20.6412 C   0  0  0  0  0  0  0  0  0  0  0  0
   20.3461  -15.3749  -20.2514 C   0  0  0  0  0  0  0  0  0  0  0  0
   20.9772  -14.2174  -20.6540 C   0  0  0  0  0  0  0  0  0  0  0  0
   20.4941  -12.8777  -20.2488 C   0  0  0  0  0  0  0  0  0  0  0  0
   21.5469  -12.1066  -19.4398 C   0  0  2  0  0  0  0  0  0  0  0  0
   21.8247  -12.8622  -18.2082 N   0  0  0  0  0  0  0  0  0  0  0  0
   20.8447  -10.8691  -18.9966 C   0  0  0  0  0  0  0  0  0  0  0  0
   20.4883  -10.0705  -19.8818 O   0  0  0  0  0  0  0  0  0  0  0  0
   22.0935  -14.3603  -21.4593 C   0  0  0  0  0  0  0  0  0  0  0  0
   22.5599  -15.6065  -21.8463 C   0  0  0  0  0  0  0  0  0  0  0  0
   17.1759   -7.6260  -16.7459 N   0  0  0  0  0  0  0  0  0  0  0  0
   18.0764   -8.3339  -15.9253 C   0  0  0  0  0  0  0  0  0  0  0  0
   18.2999   -7.8217  -14.7820 O   0  0  0  0  0  0  0  0  0  0  0  0
   18.6926   -9.5797  -16.4034 C   0  0  0  0  0  0  0  0  0  0  0  0
   19.9695   -9.3479  -17.1723 C   0  0  2  0  0  0  0  0  0  0  0  0
   20.5713  -10.5716  -17.6339 N   0  0  0  0  0  0  0  0  0  0  0  0
   20.8956   -8.5117  -16.3779 C   0  0  0  0  0  0  0  0  0  0  0  0
   21.7292   -8.9592  -15.5580 O   0  0  0  0  0  0  0  0  0  0  0  0
   20.8400   -7.1063  -16.5526 N   0  0  0  0  0  0  0  0  0  0  0  0
   21.7425   -6.2006  -15.8533 C   0  0  1  0  0  0  0  0  0  0  0  0
   21.7104   -4.8750  -16.5766 C   0  0  0  0  0  0  0  0  0  0  0  0
   22.7050   -3.9574  -15.8606 C   0  0  0  0  0  0  0  0  0  0  0  0
   22.6369   -2.6237  -16.5155 C   0  0  0  0  0  0  0  0  0  0  0  0
   21.9085   -2.4187  -17.5184 O   0  0  0  0  0  0  0  0  0  0  0  0
   21.1674   -5.9727  -14.5051 C   0  0  0  0  0  0  0  0  0  0  0  0
   19.9552   -5.6744  -14.3952 O   0  0  0  0  0  0  0  0  0  0  0  0
   23.3816   -1.5571  -16.0346 O   0  0  0  0  0  0  0  0  0  0  0  0
   21.9251   -6.0778  -13.3563 O   0  0  0  0  0  0  0  0  0  0  0  0
  2  1  1  0
  3  2  2  0
  4  3  1  0
  5  4  2  0
  5 11  1  0
  6  5  1  0
  7  6  1  0
  7  8  1  1
  9  7  1  0
  9 18  1  0
 10  9  2  0
 11 12  2  0
 12  2  1  0
 13 14  1  0
 14 15  2  0
 16 14  1  0
 17 16  1  1
 17 18  1  0
 19 17  1  0
 20 19  2  0
 21 19  1  0
 22 21  1  0
 22 27  1  0
 22 23  1  6
 24 23  1  0
 25 24  1  0
 26 25  2  0
 27 28  2  0
 27 30  1  0
 29 25  1  0
M  END
$$$$
