YNE.pdb
     RDKit          3D

 30 30  0  0  1  0  0  0  0  0999 V2000
   14.4048  -16.9325  -15.5744 O   0  0  0  0  0  0  0  0  0  0  0  0
   15.3850  -15.9790  -15.8103 C   0  0  0  0  0  0  0  0  0  0  0  0
   15.3089  -15.0752  -16.8464 C   0  0  0  0  0  0  0  0  0  0  0  0
   16.2987  -14.1272  -17.0684 C   0  0  0  0  0  0  0  0  0  0  0  0
   17.4080  -14.0509  -16.2537 C   0  0  0  0  0  0  0  0  0  0  0  0
   18.4745  -13.0469  -16.4709 C   0  0  0  0  0  0  0  0  0  0  0  0
   19.3825  -13.4182  -17.6521 C   0  0  2  0  0  0  0  0  0  0  0  0
   20.2790  -14.5020  -17.2200 N   0  0  0  0  0  0  0  0  0  0  0  0
   20.2594  -12.2276  -17.8377 C   0  0  0  0  0  0  0  0  0  0  0  0
   21.2585  -12.1380  -17.1014 O   0  0  0  0  0  0  0  0  0  0  0  0
   17.4840  -14.9593  -15.2125 C   0  0  0  0  0  0  0  0  0  0  0  0
   16.4941  -15.9041  -14.9941 C   0  0  0  0  0  0  0  0  0  0  0  0
   21.8740   -7.9317  -21.9931 N   0  0  0  0  0  0  0  0  0  0  0  0
   21.9048   -8.6489  -20.7806 C   0  0  0  0  0  0  0  0  0  0  0  0
   22.8676   -8.3673  -19.9977 O   0  0  0  0  0  0  0  0  0  0  0  0
   20.8686   -9.6483  -20.4842 C   0  0  0  0  0  0  0  0  0  0  0  0
   20.8669  -10.0845  -19.0403 C   0  0  2  0  0  0  0  0  0  0  0  0
   20.0061  -11.2134  -18.8007 N   0  0  0  0  0  0  0  0  0  0  0  0
   20.5673   -8.9323  -18.1623 C   0  0  0  0  0  0  0  0  0  0  0  0
   19.4231   -8.4579  -17.9803 O   0  0  0  0  0  0  0  0  0  0  0  0
   21.6461   -8.3189  -17.4776 N   0  0  0  0  0  0  0  0  0  0  0  0
   21.4432   -7.2470  -16.5112 C   0  0  1  0  0  0  0  0  0  0  0  0
   22.8006   -6.8404  -15.9883 C   0  0  0  0  0  0  0  0  0  0  0  0
   22.5632   -5.7324  -14.9589 C   0  0  0  0  0  0  0  0  0  0  0  0
   22.3705   -6.3832  -13.6353 C   0  0  0  0  0  0  0  0  0  0  0  0
   22.6150   -7.6029  -13.4591 O   0  0  0  0  0  0  0  0  0  0  0  0
   20.9018   -6.0866  -17.2600 C   0  0  0  0  0  0  0  0  0  0  0  0
   19.9036   -5.4759  -16.8116 O   0  0  0  0  0  0  0  0  0  0  0  0
   21.9115   -5.6570  -12.5465 O   0  0  0  0  0  0  0  0  0  0  0  0
   21.4619   -5.6506  -18.4436 O   0  0  0  0  0  0  0  0  0  0  0  0
  2  1  1  0
  3  2  2  0
  4  3  1  0
  5  4  2  0
  5 11  1  0
  6  5  1  0
  7  6  1  0
  7  8  1  1
  9  7  1  0
  9 18  1  0
 10  9  2  0
 11 12  2  0
 12  2  1  0
 13 14  1  0
 14 15  2  0
 16 14  1  0
 17 16  1  6
 17 18  1  0
 19 17  1  0
 20 19  2  0
 21 19  1  0
 22 21  1  0
 22 27  1  0
 22 23  1  6
 24 23  1  0
 25 24  1  0
 26 25  2  0
 27 28  2  0
 27 30  1  0
 29 25  1  0
M  END
$$$$
