YNE.pdb
     RDKit          3D

 30 30  0  0  1  0  0  0  0  0999 V2000
   29.0814  -28.7604  -18.4270 O   0  0  0  0  0  0  0  0  0  0  0  0
   28.6441  -27.5590  -17.8874 C   0  0  0  0  0  0  0  0  0  0  0  0
   29.2341  -26.9802  -16.7861 C   0  0  0  0  0  0  0  0  0  0  0  0
   28.7840  -25.7772  -16.2588 C   0  0  0  0  0  0  0  0  0  0  0  0
   27.7187  -25.1069  -16.8210 C   0  0  0  0  0  0  0  0  0  0  0  0
   27.2234  -23.8222  -16.2763 C   0  0  0  0  0  0  0  0  0  0  0  0
   27.7586  -22.6183  -17.0648 C   0  0  2  0  0  0  0  0  0  0  0  0
   29.2038  -22.5082  -16.8113 N   0  0  0  0  0  0  0  0  0  0  0  0
   27.1472  -21.4338  -16.3984 C   0  0  0  0  0  0  0  0  0  0  0  0
   27.8206  -20.8664  -15.5192 O   0  0  0  0  0  0  0  0  0  0  0  0
   27.1261  -25.6890  -17.9278 C   0  0  0  0  0  0  0  0  0  0  0  0
   27.5782  -26.8898  -18.4512 C   0  0  0  0  0  0  0  0  0  0  0  0
   25.8533  -17.0925  -18.3762 N   0  0  0  0  0  0  0  0  0  0  0  0
   26.3945  -18.2416  -17.7660 C   0  0  0  0  0  0  0  0  0  0  0  0
   27.1074  -18.9809  -18.5174 O   0  0  0  0  0  0  0  0  0  0  0  0
   26.1248  -18.5252  -16.3493 C   0  0  0  0  0  0  0  0  0  0  0  0
   25.2716  -19.7524  -16.1464 C   0  0  2  0  0  0  0  0  0  0  0  0
   25.8549  -20.9371  -16.7201 N   0  0  0  0  0  0  0  0  0  0  0  0
   23.8944  -19.4975  -16.6221 C   0  0  0  0  0  0  0  0  0  0  0  0
   23.5478  -19.4990  -17.8251 O   0  0  0  0  0  0  0  0  0  0  0  0
   22.8940  -19.2323  -15.6537 N   0  0  0  0  0  0  0  0  0  0  0  0
   21.4984  -19.0219  -16.0168 C   0  0  1  0  0  0  0  0  0  0  0  0
   20.9191  -20.3628  -16.4009 C   0  0  0  0  0  0  0  0  0  0  0  0
   20.7774  -21.1693  -15.1074 C   0  0  0  0  0  0  0  0  0  0  0  0
   20.1939  -22.4904  -15.4636 C   0  0  0  0  0  0  0  0  0  0  0  0
   20.5391  -23.5439  -14.8725 O   0  0  0  0  0  0  0  0  0  0  0  0
   20.7936  -18.5814  -14.7881 C   0  0  0  0  0  0  0  0  0  0  0  0
   19.5807  -18.2726  -14.8511 O   0  0  0  0  0  0  0  0  0  0  0  0
   19.2430  -22.5999  -16.4672 O   0  0  0  0  0  0  0  0  0  0  0  0
   21.4304  -18.4980  -13.5664 O   0  0  0  0  0  0  0  0  0  0  0  0
  2  1  1  0
  3  2  2  0
  4  3  1  0
  5  4  2  0
  5 11  1  0
  6  5  1  0
  7  6  1  0
  7  8  1  1
  9  7  1  0
  9 18  1  0
 10  9  2  0
 11 12  2  0
 12  2  1  0
 13 14  1  0
 14 15  2  0
 16 14  1  0
 17 16  1  6
 17 18  1  0
 19 17  1  0
 20 19  2  0
 21 19  1  0
 22 21  1  0
 22 27  1  0
 22 23  1  1
 24 23  1  0
 25 24  1  0
 26 25  2  0
 27 28  2  0
 27 30  1  0
 29 25  1  0
M  END
$$$$
