YNE.pdb
     RDKit          3D

 30 30  0  0  1  0  0  0  0  0999 V2000
   27.2493  -21.0060   -6.2298 O   0  0  0  0  0  0  0  0  0  0  0  0
   27.2130  -20.6521   -7.5711 C   0  0  0  0  0  0  0  0  0  0  0  0
   28.3254  -20.6948   -8.3815 C   0  0  0  0  0  0  0  0  0  0  0  0
   28.2716  -20.3373   -9.7221 C   0  0  0  0  0  0  0  0  0  0  0  0
   27.0923  -19.9213  -10.3020 C   0  0  0  0  0  0  0  0  0  0  0  0
   27.0118  -19.5373  -11.7297 C   0  0  0  0  0  0  0  0  0  0  0  0
   25.8532  -20.2412  -12.4507 C   0  0  2  0  0  0  0  0  0  0  0  0
   26.1812  -21.6714  -12.5607 N   0  0  0  0  0  0  0  0  0  0  0  0
   25.9044  -19.7137  -13.8435 C   0  0  0  0  0  0  0  0  0  0  0  0
   25.9352  -18.4775  -13.9818 O   0  0  0  0  0  0  0  0  0  0  0  0
   25.9746  -19.8786   -9.4871 C   0  0  0  0  0  0  0  0  0  0  0  0
   26.0322  -20.2362   -8.1496 C   0  0  0  0  0  0  0  0  0  0  0  0
   27.8759  -18.1155  -16.4383 N   0  0  0  0  0  0  0  0  0  0  0  0
   28.1665  -19.3430  -17.0660 C   0  0  0  0  0  0  0  0  0  0  0  0
   29.3310  -19.4427  -17.5695 O   0  0  0  0  0  0  0  0  0  0  0  0
   27.1566  -20.4100  -17.1108 C   0  0  0  0  0  0  0  0  0  0  0  0
   25.9005  -20.0644  -16.3506 C   0  0  2  0  0  0  0  0  0  0  0  0
   25.9197  -20.5476  -14.9945 N   0  0  0  0  0  0  0  0  0  0  0  0
   24.7104  -20.5112  -17.1068 C   0  0  0  0  0  0  0  0  0  0  0  0
   24.3258  -21.6999  -17.1866 O   0  0  0  0  0  0  0  0  0  0  0  0
   23.9491  -19.5304  -17.7906 N   0  0  0  0  0  0  0  0  0  0  0  0
   22.6520  -19.8290  -18.3841 C   0  0  1  0  0  0  0  0  0  0  0  0
   21.5958  -19.1697  -17.5292 C   0  0  0  0  0  0  0  0  0  0  0  0
   21.3039  -20.1277  -16.3713 C   0  0  0  0  0  0  0  0  0  0  0  0
   20.1444  -19.5804  -15.6172 C   0  0  0  0  0  0  0  0  0  0  0  0
   18.9615  -19.8658  -15.9297 O   0  0  0  0  0  0  0  0  0  0  0  0
   22.6179  -19.1601  -19.7076 C   0  0  0  0  0  0  0  0  0  0  0  0
   22.7231  -17.9129  -19.7701 O   0  0  0  0  0  0  0  0  0  0  0  0
   20.3358  -18.7317  -14.5372 O   0  0  0  0  0  0  0  0  0  0  0  0
   22.4731  -19.8671  -20.8841 O   0  0  0  0  0  0  0  0  0  0  0  0
  2  1  1  0
  3  2  2  0
  4  3  1  0
  5  4  2  0
  5 11  1  0
  6  5  1  0
  7  6  1  0
  7  8  1  6
  9  7  1  0
  9 18  1  0
 10  9  2  0
 11 12  2  0
 12  2  1  0
 13 14  1  0
 14 15  2  0
 16 14  1  0
 17 16  1  6
 17 18  1  0
 19 17  1  0
 20 19  2  0
 21 19  1  0
 22 21  1  0
 22 27  1  0
 22 23  1  1
 24 23  1  0
 25 24  1  0
 26 25  2  0
 27 28  2  0
 27 30  1  0
 29 25  1  0
M  END
$$$$
