YNE.pdb
     RDKit          3D

 30 30  0  0  1  0  0  0  0  0999 V2000
   21.0987   -5.2705  -26.5497 O   0  0  0  0  0  0  0  0  0  0  0  0
   20.9761   -5.4630  -25.1810 C   0  0  0  0  0  0  0  0  0  0  0  0
   19.7638   -5.4170  -24.5295 C   0  0  0  0  0  0  0  0  0  0  0  0
   19.6586   -5.6120  -23.1589 C   0  0  0  0  0  0  0  0  0  0  0  0
   20.7731   -5.8620  -22.3870 C   0  0  0  0  0  0  0  0  0  0  0  0
   20.6838   -6.0747  -20.9244 C   0  0  0  0  0  0  0  0  0  0  0  0
   20.7375   -7.5641  -20.5552 C   0  0  2  0  0  0  0  0  0  0  0  0
   19.4457   -8.1727  -20.9100 N   0  0  0  0  0  0  0  0  0  0  0  0
   20.7873   -7.5781  -19.0658 C   0  0  0  0  0  0  0  0  0  0  0  0
   19.7007   -7.5377  -18.4609 O   0  0  0  0  0  0  0  0  0  0  0  0
   21.9911   -5.9081  -23.0422 C   0  0  0  0  0  0  0  0  0  0  0  0
   22.0921   -5.7130  -24.4103 C   0  0  0  0  0  0  0  0  0  0  0  0
   21.7019  -10.3298  -16.7022 N   0  0  0  0  0  0  0  0  0  0  0  0
   22.9545   -9.8326  -16.2907 C   0  0  0  0  0  0  0  0  0  0  0  0
   23.7890  -10.7051  -15.8886 O   0  0  0  0  0  0  0  0  0  0  0  0
   23.2322   -8.3901  -16.3411 C   0  0  0  0  0  0  0  0  0  0  0  0
   22.0787   -7.5870  -16.8885 C   0  0  2  0  0  0  0  0  0  0  0  0
   21.9992   -7.6348  -18.3253 N   0  0  0  0  0  0  0  0  0  0  0  0
   22.1237   -6.2071  -16.3575 C   0  0  0  0  0  0  0  0  0  0  0  0
   22.9348   -5.3296  -16.7309 O   0  0  0  0  0  0  0  0  0  0  0  0
   21.1865   -5.8480  -15.3568 N   0  0  0  0  0  0  0  0  0  0  0  0
   21.1600   -4.5191  -14.7590 C   0  0  1  0  0  0  0  0  0  0  0  0
   19.7720   -4.2939  -14.2075 C   0  0  0  0  0  0  0  0  0  0  0  0
   18.8517   -4.0637  -15.4090 C   0  0  0  0  0  0  0  0  0  0  0  0
   17.4589   -3.9680  -14.8959 C   0  0  0  0  0  0  0  0  0  0  0  0
   16.4968   -3.6809  -15.6512 O   0  0  0  0  0  0  0  0  0  0  0  0
   22.0869   -4.5473  -13.6013 C   0  0  0  0  0  0  0  0  0  0  0  0
   22.5454   -5.6445  -13.2060 O   0  0  0  0  0  0  0  0  0  0  0  0
   17.1777   -4.1950  -13.5569 O   0  0  0  0  0  0  0  0  0  0  0  0
   22.4667   -3.3987  -12.9367 O   0  0  0  0  0  0  0  0  0  0  0  0
  2  1  1  0
  3  2  2  0
  4  3  1  0
  5  4  2  0
  5 11  1  0
  6  5  1  0
  7  6  1  0
  7  8  1  1
  9  7  1  0
  9 18  1  0
 10  9  2  0
 11 12  2  0
 12  2  1  0
 13 14  1  0
 14 15  2  0
 16 14  1  0
 17 16  1  6
 17 18  1  0
 19 17  1  0
 20 19  2  0
 21 19  1  0
 22 21  1  0
 22 27  1  0
 22 23  1  1
 24 23  1  0
 25 24  1  0
 26 25  2  0
 27 28  2  0
 27 30  1  0
 29 25  1  0
M  END
$$$$
