YNE.pdb
     RDKit          3D

 30 30  0  0  1  0  0  0  0  0999 V2000
   15.1879  -12.9145  -15.8594 O   0  0  0  0  0  0  0  0  0  0  0  0
   16.1293  -11.8979  -15.9355 C   0  0  0  0  0  0  0  0  0  0  0  0
   16.3519  -11.0122  -14.9049 C   0  0  0  0  0  0  0  0  0  0  0  0
   17.2982  -10.0004  -14.9975 C   0  0  0  0  0  0  0  0  0  0  0  0
   18.0604   -9.8394  -16.1347 C   0  0  0  0  0  0  0  0  0  0  0  0
   19.0762   -8.7687  -16.2542 C   0  0  0  0  0  0  0  0  0  0  0  0
   20.5053   -9.3301  -16.2688 C   0  0  2  0  0  0  0  0  0  0  0  0
   20.8489   -9.7485  -14.9006 N   0  0  0  0  0  0  0  0  0  0  0  0
   21.3680   -8.1482  -16.5511 C   0  0  0  0  0  0  0  0  0  0  0  0
   21.6852   -7.4327  -15.5838 O   0  0  0  0  0  0  0  0  0  0  0  0
   17.8364  -10.7297  -17.1701 C   0  0  0  0  0  0  0  0  0  0  0  0
   16.8910  -11.7383  -17.0740 C   0  0  0  0  0  0  0  0  0  0  0  0
   25.9174   -5.8477  -18.6378 N   0  0  0  0  0  0  0  0  0  0  0  0
   24.7300   -5.9695  -19.3866 C   0  0  0  0  0  0  0  0  0  0  0  0
   24.5427   -5.0753  -20.2725 O   0  0  0  0  0  0  0  0  0  0  0  0
   23.7987   -7.0759  -19.1245 C   0  0  0  0  0  0  0  0  0  0  0  0
   22.7121   -6.7113  -18.1439 C   0  0  2  0  0  0  0  0  0  0  0  0
   21.8330   -7.8134  -17.8518 N   0  0  0  0  0  0  0  0  0  0  0  0
   21.9926   -5.5053  -18.6087 C   0  0  0  0  0  0  0  0  0  0  0  0
   21.1041   -5.5053  -19.4907 O   0  0  0  0  0  0  0  0  0  0  0  0
   22.3283   -4.2611  -18.0187 N   0  0  0  0  0  0  0  0  0  0  0  0
   21.6133   -3.0321  -18.3385 C   0  0  1  0  0  0  0  0  0  0  0  0
   21.2901   -2.3394  -17.0359 C   0  0  0  0  0  0  0  0  0  0  0  0
   20.5529   -1.0465  -17.3945 C   0  0  0  0  0  0  0  0  0  0  0  0
   20.1874   -0.3700  -16.1213 C   0  0  0  0  0  0  0  0  0  0  0  0
   21.0283    0.2898  -15.4610 O   0  0  0  0  0  0  0  0  0  0  0  0
   22.5622   -2.1578  -19.0704 C   0  0  0  0  0  0  0  0  0  0  0  0
   22.1256   -1.1655  -19.6989 O   0  0  0  0  0  0  0  0  0  0  0  0
   18.8965   -0.4476  -15.6205 O   0  0  0  0  0  0  0  0  0  0  0  0
   23.9210   -2.3993  -19.0851 O   0  0  0  0  0  0  0  0  0  0  0  0
  2  1  1  0
  3  2  2  0
  4  3  1  0
  5  4  2  0
  5 11  1  0
  6  5  1  0
  7  6  1  0
  7  8  1  1
  9  7  1  0
  9 18  1  0
 10  9  2  0
 11 12  2  0
 12  2  1  0
 13 14  1  0
 14 15  2  0
 16 14  1  0
 17 16  1  6
 17 18  1  0
 19 17  1  0
 20 19  2  0
 21 19  1  0
 22 21  1  0
 22 27  1  0
 22 23  1  1
 24 23  1  0
 25 24  1  0
 26 25  2  0
 27 28  2  0
 27 30  1  0
 29 25  1  0
M  END
$$$$
