YNE.pdb
     RDKit          3D

 30 30  0  0  1  0  0  0  0  0999 V2000
   25.3756  -33.5109  -10.2306 O   0  0  0  0  0  0  0  0  0  0  0  0
   24.7319  -33.1711   -9.0491 C   0  0  0  0  0  0  0  0  0  0  0  0
   23.7376  -32.2202   -8.9913 C   0  0  0  0  0  0  0  0  0  0  0  0
   23.1034  -31.8922   -7.8005 C   0  0  0  0  0  0  0  0  0  0  0  0
   23.4460  -32.5102   -6.6169 C   0  0  0  0  0  0  0  0  0  0  0  0
   22.7817  -32.1772   -5.3361 C   0  0  0  0  0  0  0  0  0  0  0  0
   23.4501  -30.9867   -4.6335 C   0  0  2  0  0  0  0  0  0  0  0  0
   24.7416  -31.4383   -4.0921 N   0  0  0  0  0  0  0  0  0  0  0  0
   22.5909  -30.7245   -3.4444 C   0  0  0  0  0  0  0  0  0  0  0  0
   23.0147  -31.1130   -2.3409 O   0  0  0  0  0  0  0  0  0  0  0  0
   24.4452  -33.4657   -6.6756 C   0  0  0  0  0  0  0  0  0  0  0  0
   25.0759  -33.7904   -7.8659 C   0  0  0  0  0  0  0  0  0  0  0  0
   21.0026  -27.0304   -1.7606 N   0  0  0  0  0  0  0  0  0  0  0  0
   19.7839  -27.3313   -2.4006 C   0  0  0  0  0  0  0  0  0  0  0  0
   19.0397  -26.3337   -2.6665 O   0  0  0  0  0  0  0  0  0  0  0  0
   19.4386  -28.7237   -2.7203 C   0  0  0  0  0  0  0  0  0  0  0  0
   20.5385  -29.6970   -2.3767 C   0  0  2  0  0  0  0  0  0  0  0  0
   21.3352  -30.0627   -3.5187 N   0  0  0  0  0  0  0  0  0  0  0  0
   19.9776  -30.8661   -1.6648 C   0  0  0  0  0  0  0  0  0  0  0  0
   19.2431  -31.7322   -2.1919 O   0  0  0  0  0  0  0  0  0  0  0  0
   20.2895  -31.0216   -0.2910 N   0  0  0  0  0  0  0  0  0  0  0  0
   19.8390  -32.1719    0.4821 C   0  0  1  0  0  0  0  0  0  0  0  0
   21.0624  -32.9658    0.8749 C   0  0  0  0  0  0  0  0  0  0  0  0
   20.5654  -34.1837    1.6582 C   0  0  0  0  0  0  0  0  0  0  0  0
   21.6913  -34.6641    2.5032 C   0  0  0  0  0  0  0  0  0  0  0  0
   21.5277  -35.5539    3.3749 O   0  0  0  0  0  0  0  0  0  0  0  0
   19.2439  -31.6449    1.7345 C   0  0  0  0  0  0  0  0  0  0  0  0
   19.6459  -30.5507    2.1944 O   0  0  0  0  0  0  0  0  0  0  0  0
   22.9665  -34.1399    2.3529 O   0  0  0  0  0  0  0  0  0  0  0  0
   18.2546  -32.3216    2.4188 O   0  0  0  0  0  0  0  0  0  0  0  0
  2  1  1  0
  3  2  2  0
  4  3  1  0
  5  4  2  0
  5 11  1  0
  6  5  1  0
  7  6  1  0
  7  8  1  1
  9  7  1  0
  9 18  1  0
 10  9  2  0
 11 12  2  0
 12  2  1  0
 13 14  1  0
 14 15  2  0
 16 14  1  0
 17 16  1  6
 17 18  1  0
 19 17  1  0
 20 19  2  0
 21 19  1  0
 22 21  1  0
 22 27  1  0
 22 23  1  1
 24 23  1  0
 25 24  1  0
 26 25  2  0
 27 28  2  0
 27 30  1  0
 29 25  1  0
M  END
$$$$
