GEL.pdb
     RDKit          3D

 22 21  0  0  1  0  0  0  0  0999 V2000
   13.9471  -10.0383  -15.6511 N   0  0  0  0  0  0  0  0  0  0  0  0
   14.5482   -9.0326  -16.4732 C   0  0  0  0  0  0  0  0  0  0  0  0
   15.5332   -8.2114  -15.7115 C   0  0  0  0  0  0  0  0  0  0  0  0
   15.1934   -7.7821  -14.5953 O   0  0  0  0  0  0  0  0  0  0  0  0
   16.8112   -7.9350  -16.2504 N   0  0  0  0  0  0  0  0  0  0  0  0
   17.7613   -7.0314  -15.5582 C   0  0  1  0  0  0  0  0  0  0  0  0
   19.1197   -7.6489  -15.6764 C   0  0  0  0  0  0  0  0  0  0  0  0
   20.2539   -6.9048  -15.0944 C   0  0  0  0  0  0  0  0  0  0  0  0
   21.5630   -7.5790  -15.2039 C   0  0  0  0  0  0  0  0  0  0  0  0
   22.4738   -7.2350  -15.9809 O   0  0  0  0  0  0  0  0  0  0  0  0
   17.6223   -5.7084  -16.2010 C   0  0  0  0  0  0  0  0  0  0  0  0
   17.3001   -5.6639  -17.4396 O   0  0  0  0  0  0  0  0  0  0  0  0
   21.7777   -8.6766  -14.3712 O   0  0  0  0  0  0  0  0  0  0  0  0
   16.2524   -1.8031  -18.6705 C   0  0  0  0  0  0  0  0  0  0  0  0
   15.8702   -1.7027  -17.1929 C   0  0  1  0  0  0  0  0  0  0  0  0
   14.3687   -1.4164  -17.1005 C   0  0  0  0  0  0  0  0  0  0  0  0
   16.1656   -3.0224  -16.5579 C   0  0  0  0  0  0  0  0  0  0  0  0
   17.6209   -3.2098  -16.3163 C   0  0  2  0  0  0  0  0  0  0  0  0
   17.8093   -4.4663  -15.5762 N   0  0  0  0  0  0  0  0  0  0  0  0
   18.1677   -2.1018  -15.5127 C   0  0  0  0  0  0  0  0  0  0  0  0
   18.2373   -2.0952  -14.2581 O   0  0  0  0  0  0  0  0  0  0  0  0
   18.6508   -0.9626  -16.1749 O   0  0  0  0  0  0  0  0  0  0  0  0
  1  2  1  0
  2  3  1  0
  3  4  2  0
  5  3  1  0
  5  6  1  0
  6 11  1  0
  6  7  1  6
  8  7  1  0
  9  8  1  0
 10  9  2  0
 11 19  1  0
 11 12  2  0
 13  9  1  0
 15 14  1  6
 15 16  1  0
 18 17  1  1
 17 15  1  0
 18 20  1  0
 19 18  1  0
 20 22  1  0
 21 20  2  0
M  END
$$$$
