GEL.pdb
     RDKit          3D

 22 21  0  0  1  0  0  0  0  0999 V2000
   27.9318  -20.3660  -15.0501 N   0  0  0  0  0  0  0  0  0  0  0  0
   27.5170  -21.2409  -13.9962 C   0  0  0  0  0  0  0  0  0  0  0  0
   26.8702  -20.4937  -12.8791 C   0  0  0  0  0  0  0  0  0  0  0  0
   27.1426  -19.2873  -12.7513 O   0  0  0  0  0  0  0  0  0  0  0  0
   25.9765  -21.1454  -11.9979 N   0  0  0  0  0  0  0  0  0  0  0  0
   25.3086  -20.4129  -10.8954 C   0  0  1  0  0  0  0  0  0  0  0  0
   23.8490  -20.7349  -10.9752 C   0  0  0  0  0  0  0  0  0  0  0  0
   23.0160  -19.8862  -11.8497 C   0  0  0  0  0  0  0  0  0  0  0  0
   22.2339  -20.6180  -12.8661 C   0  0  0  0  0  0  0  0  0  0  0  0
   21.6761  -21.7153  -12.6756 O   0  0  0  0  0  0  0  0  0  0  0  0
   25.9721  -20.8424   -9.6471 C   0  0  0  0  0  0  0  0  0  0  0  0
   26.1479  -22.0956   -9.4510 O   0  0  0  0  0  0  0  0  0  0  0  0
   22.1222  -20.0240  -14.1227 O   0  0  0  0  0  0  0  0  0  0  0  0
   29.5711  -20.7992   -5.8097 C   0  0  0  0  0  0  0  0  0  0  0  0
   28.3764  -19.9249   -5.4252 C   0  0  1  0  0  0  0  0  0  0  0  0
   28.8936  -18.7223   -4.6306 C   0  0  0  0  0  0  0  0  0  0  0  0
   27.7377  -19.4492   -6.6892 C   0  0  0  0  0  0  0  0  0  0  0  0
   27.0213  -20.5439   -7.3963 C   0  0  2  0  0  0  0  0  0  0  0  0
   26.4427  -19.9961   -8.6321 N   0  0  0  0  0  0  0  0  0  0  0  0
   25.9315  -21.0834   -6.5633 C   0  0  0  0  0  0  0  0  0  0  0  0
   26.0910  -21.8849   -5.6089 O   0  0  0  0  0  0  0  0  0  0  0  0
   24.6134  -20.6872   -6.8377 O   0  0  0  0  0  0  0  0  0  0  0  0
  1  2  1  0
  2  3  1  0
  3  4  2  0
  5  3  1  0
  5  6  1  0
  6 11  1  0
  6  7  1  1
  8  7  1  0
  9  8  1  0
 10  9  2  0
 11 19  1  0
 11 12  2  0
 13  9  1  0
 15 14  1  6
 15 16  1  0
 18 17  1  1
 17 15  1  0
 18 20  1  0
 19 18  1  0
 20 22  1  0
 21 20  2  0
M  END
$$$$
