GEL.pdb
     RDKit          3D

 22 21  0  0  1  0  0  0  0  0999 V2000
   16.7359  -13.0185  -15.5290 N   0  0  0  0  0  0  0  0  0  0  0  0
   17.6149  -12.0859  -14.8919 C   0  0  0  0  0  0  0  0  0  0  0  0
   18.6818  -11.6093  -15.8189 C   0  0  0  0  0  0  0  0  0  0  0  0
   19.2911  -12.4594  -16.4910 O   0  0  0  0  0  0  0  0  0  0  0  0
   18.9838  -10.2316  -15.9231 N   0  0  0  0  0  0  0  0  0  0  0  0
   19.9013   -9.7201  -16.9695 C   0  0  1  0  0  0  0  0  0  0  0  0
   19.2473   -8.5189  -17.5778 C   0  0  0  0  0  0  0  0  0  0  0  0
   18.2633   -8.7559  -18.6523 C   0  0  0  0  0  0  0  0  0  0  0  0
   17.7117   -7.5344  -19.2721 C   0  0  0  0  0  0  0  0  0  0  0  0
   18.2128   -6.9486  -20.2504 O   0  0  0  0  0  0  0  0  0  0  0  0
   21.1906   -9.4528  -16.2994 C   0  0  0  0  0  0  0  0  0  0  0  0
   21.1776   -8.8324  -15.1792 O   0  0  0  0  0  0  0  0  0  0  0  0
   16.5470   -7.0137  -18.7095 O   0  0  0  0  0  0  0  0  0  0  0  0
   26.0616  -10.1520  -14.4313 C   0  0  0  0  0  0  0  0  0  0  0  0
   26.1048   -9.8383  -15.9278 C   0  0  1  0  0  0  0  0  0  0  0  0
   27.2399  -10.6498  -16.5589 C   0  0  0  0  0  0  0  0  0  0  0  0
   24.8002  -10.2644  -16.5178 C   0  0  0  0  0  0  0  0  0  0  0  0
   23.6821   -9.3817  -16.0908 C   0  0  2  0  0  0  0  0  0  0  0  0
   22.4576   -9.8210  -16.7761 N   0  0  0  0  0  0  0  0  0  0  0  0
   23.9504   -7.9792  -16.4561 C   0  0  0  0  0  0  0  0  0  0  0  0
   23.8990   -7.5228  -17.6256 O   0  0  0  0  0  0  0  0  0  0  0  0
   24.2891   -7.0707  -15.4413 O   0  0  0  0  0  0  0  0  0  0  0  0
  1  2  1  0
  2  3  1  0
  3  4  2  0
  5  3  1  0
  5  6  1  0
  6 11  1  0
  6  7  1  1
  8  7  1  0
  9  8  1  0
 10  9  2  0
 11 19  1  0
 11 12  2  0
 13  9  1  0
 15 14  1  1
 15 16  1  0
 18 17  1  6
 17 15  1  0
 18 20  1  0
 19 18  1  0
 20 22  1  0
 21 20  2  0
M  END
$$$$
