GEL.pdb
     RDKit          3D

 22 21  0  0  1  0  0  0  0  0999 V2000
   20.1573  -14.2309  -17.3283 N   0  0  0  0  0  0  0  0  0  0  0  0
   21.1124  -13.1738  -17.1920 C   0  0  0  0  0  0  0  0  0  0  0  0
   20.4841  -11.8335  -17.3752 C   0  0  0  0  0  0  0  0  0  0  0  0
   19.4943  -11.7521  -18.1232 O   0  0  0  0  0  0  0  0  0  0  0  0
   21.0049  -10.6967  -16.7146 N   0  0  0  0  0  0  0  0  0  0  0  0
   20.3035   -9.3911  -16.7571 C   0  0  1  0  0  0  0  0  0  0  0  0
   19.0066   -9.5656  -16.0305 C   0  0  0  0  0  0  0  0  0  0  0  0
   18.1446   -8.3757  -15.8898 C   0  0  0  0  0  0  0  0  0  0  0  0
   16.9337   -8.5773  -15.0691 C   0  0  0  0  0  0  0  0  0  0  0  0
   15.8166   -8.8929  -15.5209 O   0  0  0  0  0  0  0  0  0  0  0  0
   21.2239   -8.4034  -16.1568 C   0  0  0  0  0  0  0  0  0  0  0  0
   21.8134   -8.7076  -15.0615 O   0  0  0  0  0  0  0  0  0  0  0  0
   17.0685   -8.3974  -13.6930 O   0  0  0  0  0  0  0  0  0  0  0  0
   25.0305   -4.8388  -15.8076 C   0  0  0  0  0  0  0  0  0  0  0  0
   23.7414   -4.1476  -16.2548 C   0  0  1  0  0  0  0  0  0  0  0  0
   24.1043   -3.0548  -17.2645 C   0  0  0  0  0  0  0  0  0  0  0  0
   22.8837   -5.1746  -16.9194 C   0  0  0  0  0  0  0  0  0  0  0  0
   22.4229   -6.2168  -15.9638 C   0  0  2  0  0  0  0  0  0  0  0  0
   21.5265   -7.1371  -16.6792 N   0  0  0  0  0  0  0  0  0  0  0  0
   21.6816   -5.6117  -14.8428 C   0  0  0  0  0  0  0  0  0  0  0  0
   20.4330   -5.6509  -14.7074 O   0  0  0  0  0  0  0  0  0  0  0  0
   22.4012   -4.9386  -13.8433 O   0  0  0  0  0  0  0  0  0  0  0  0
  1  2  1  0
  2  3  1  0
  3  4  2  0
  5  3  1  0
  5  6  1  0
  6 11  1  0
  6  7  1  1
  8  7  1  0
  9  8  1  0
 10  9  2  0
 11 19  1  0
 11 12  2  0
 13  9  1  0
 15 14  1  6
 15 16  1  0
 18 17  1  6
 17 15  1  0
 18 20  1  0
 19 18  1  0
 20 22  1  0
 21 20  2  0
M  END
$$$$
