GEL.pdb
     RDKit          3D

 22 21  0  0  1  0  0  0  0  0999 V2000
   15.1880  -12.2441  -17.0610 N   0  0  0  0  0  0  0  0  0  0  0  0
   15.2031  -11.0037  -16.3472 C   0  0  0  0  0  0  0  0  0  0  0  0
   16.3562  -10.1477  -16.7500 C   0  0  0  0  0  0  0  0  0  0  0  0
   17.2484  -10.6628  -17.4458 O   0  0  0  0  0  0  0  0  0  0  0  0
   16.4238   -8.7934  -16.3481 N   0  0  0  0  0  0  0  0  0  0  0  0
   17.5598   -7.9269  -16.7443 C   0  0  1  0  0  0  0  0  0  0  0  0
   17.0762   -6.5119  -16.6789 C   0  0  0  0  0  0  0  0  0  0  0  0
   18.0552   -5.4480  -16.9768 C   0  0  0  0  0  0  0  0  0  0  0  0
   17.5533   -4.0712  -16.7955 C   0  0  0  0  0  0  0  0  0  0  0  0
   18.2088   -3.0407  -17.0402 O   0  0  0  0  0  0  0  0  0  0  0  0
   18.6697   -8.2472  -15.8232 C   0  0  0  0  0  0  0  0  0  0  0  0
   18.4015   -8.4189  -14.5829 O   0  0  0  0  0  0  0  0  0  0  0  0
   16.2514   -3.9336  -16.3154 O   0  0  0  0  0  0  0  0  0  0  0  0
   22.5252  -11.0256  -13.8365 C   0  0  0  0  0  0  0  0  0  0  0  0
   23.0962  -10.1122  -14.9224 C   0  0  1  0  0  0  0  0  0  0  0  0
   24.1497  -10.8972  -15.7093 C   0  0  0  0  0  0  0  0  0  0  0  0
   21.9737   -9.7344  -15.8330 C   0  0  0  0  0  0  0  0  0  0  0  0
   21.0270   -8.7878  -15.1854 C   0  0  2  0  0  0  0  0  0  0  0  0
   20.0194   -8.3883  -16.1789 N   0  0  0  0  0  0  0  0  0  0  0  0
   21.7298   -7.5811  -14.7140 C   0  0  0  0  0  0  0  0  0  0  0  0
   21.9787   -6.5753  -15.4248 O   0  0  0  0  0  0  0  0  0  0  0  0
   22.1610   -7.5296  -13.3793 O   0  0  0  0  0  0  0  0  0  0  0  0
  1  2  1  0
  2  3  1  0
  3  4  2  0
  5  3  1  0
  5  6  1  0
  6 11  1  0
  6  7  1  1
  8  7  1  0
  9  8  1  0
 10  9  2  0
 11 19  1  0
 11 12  2  0
 13  9  1  0
 15 14  1  1
 15 16  1  0
 18 17  1  6
 17 15  1  0
 18 20  1  0
 19 18  1  0
 20 22  1  0
 21 20  2  0
M  END
$$$$
