GEL.pdb
     RDKit          3D

 22 21  0  0  1  0  0  0  0  0999 V2000
   25.6198  -24.1797  -15.5390 N   0  0  0  0  0  0  0  0  0  0  0  0
   24.3684  -23.7403  -16.0769 C   0  0  0  0  0  0  0  0  0  0  0  0
   23.4059  -23.3632  -15.0017 C   0  0  0  0  0  0  0  0  0  0  0  0
   23.7690  -23.5017  -13.8207 O   0  0  0  0  0  0  0  0  0  0  0  0
   22.1226  -22.8646  -15.3252 N   0  0  0  0  0  0  0  0  0  0  0  0
   21.1856  -22.4051  -14.2720 C   0  0  1  0  0  0  0  0  0  0  0  0
   21.3805  -20.9283  -14.1249 C   0  0  0  0  0  0  0  0  0  0  0  0
   22.3026  -20.2701  -15.0712 C   0  0  0  0  0  0  0  0  0  0  0  0
   22.4639  -18.8157  -14.8740 C   0  0  0  0  0  0  0  0  0  0  0  0
   23.1906  -18.0829  -15.5715 O   0  0  0  0  0  0  0  0  0  0  0  0
   19.8345  -22.8128  -14.7090 C   0  0  0  0  0  0  0  0  0  0  0  0
   19.5292  -22.6822  -15.9458 O   0  0  0  0  0  0  0  0  0  0  0  0
   21.7445  -18.2383  -13.8284 O   0  0  0  0  0  0  0  0  0  0  0  0
   17.0827  -27.1619  -13.0485 C   0  0  0  0  0  0  0  0  0  0  0  0
   17.7336  -26.0517  -13.8752 C   0  0  1  0  0  0  0  0  0  0  0  0
   17.6720  -26.4501  -15.3526 C   0  0  0  0  0  0  0  0  0  0  0  0
   16.9401  -24.8039  -13.6624 C   0  0  0  0  0  0  0  0  0  0  0  0
   17.4964  -23.6546  -14.4248 C   0  0  2  0  0  0  0  0  0  0  0  0
   18.8291  -23.3437  -13.8871 N   0  0  0  0  0  0  0  0  0  0  0  0
   16.6396  -22.4639  -14.2809 C   0  0  0  0  0  0  0  0  0  0  0  0
   16.9618  -21.4228  -13.6556 O   0  0  0  0  0  0  0  0  0  0  0  0
   15.3689  -22.4712  -14.8768 O   0  0  0  0  0  0  0  0  0  0  0  0
  1  2  1  0
  2  3  1  0
  3  4  2  0
  5  3  1  0
  5  6  1  0
  6 11  1  0
  6  7  1  6
  8  7  1  0
  9  8  1  0
 10  9  2  0
 11 19  1  0
 11 12  2  0
 13  9  1  0
 15 14  1  1
 15 16  1  0
 18 17  1  1
 17 15  1  0
 18 20  1  0
 19 18  1  0
 20 22  1  0
 21 20  2  0
M  END
$$$$
