GEL.pdb
     RDKit          3D

 22 21  0  0  1  0  0  0  0  0999 V2000
   14.8835  -13.0823  -13.5866 N   0  0  0  0  0  0  0  0  0  0  0  0
   15.3842  -12.0874  -14.4854 C   0  0  0  0  0  0  0  0  0  0  0  0
   16.2341  -11.0837  -13.7819 C   0  0  0  0  0  0  0  0  0  0  0  0
   17.0933  -11.5033  -12.9873 O   0  0  0  0  0  0  0  0  0  0  0  0
   16.0606   -9.7001  -14.0177 N   0  0  0  0  0  0  0  0  0  0  0  0
   16.8409   -8.6861  -13.2687 C   0  0  1  0  0  0  0  0  0  0  0  0
   17.3595   -7.7028  -14.2710 C   0  0  0  0  0  0  0  0  0  0  0  0
   18.1683   -6.5787  -13.7601 C   0  0  0  0  0  0  0  0  0  0  0  0
   18.7749   -5.7243  -14.8005 C   0  0  0  0  0  0  0  0  0  0  0  0
   18.2255   -4.7281  -15.3075 O   0  0  0  0  0  0  0  0  0  0  0  0
   15.9252   -8.1182  -12.2578 C   0  0  0  0  0  0  0  0  0  0  0  0
   14.7674   -7.7245  -12.6377 O   0  0  0  0  0  0  0  0  0  0  0  0
   20.0536   -6.0721  -15.2342 O   0  0  0  0  0  0  0  0  0  0  0  0
   12.4250   -7.2861   -9.0370 C   0  0  0  0  0  0  0  0  0  0  0  0
   13.6042   -7.7818   -8.1983 C   0  0  1  0  0  0  0  0  0  0  0  0
   13.0995   -8.8779   -7.2554 C   0  0  0  0  0  0  0  0  0  0  0  0
   14.6159   -8.3575   -9.1348 C   0  0  0  0  0  0  0  0  0  0  0  0
   15.2381   -7.3132   -9.9915 C   0  0  2  0  0  0  0  0  0  0  0  0
   16.2013   -7.9655  -10.8908 N   0  0  0  0  0  0  0  0  0  0  0  0
   15.9550   -6.3194   -9.1725 C   0  0  0  0  0  0  0  0  0  0  0  0
   17.2038   -6.2651   -9.0451 O   0  0  0  0  0  0  0  0  0  0  0  0
   15.2097   -5.3552   -8.4762 O   0  0  0  0  0  0  0  0  0  0  0  0
  1  2  1  0
  2  3  1  0
  3  4  2  0
  5  3  1  0
  5  6  1  0
  6 11  1  0
  6  7  1  6
  8  7  1  0
  9  8  1  0
 10  9  2  0
 11 19  1  0
 11 12  2  0
 13  9  1  0
 15 14  1  6
 15 16  1  0
 18 17  1  1
 17 15  1  0
 18 20  1  0
 19 18  1  0
 20 22  1  0
 21 20  2  0
M  END
$$$$
