LCR.pdb
     RDKit          3D

 26 25  0  0  1  0  0  0  0  0999 V2000
    7.7116  -12.1237   18.6489 C   0  0  0  0  0  0  0  0  0  0  0  0
    7.3657  -13.3625   19.4554 C   0  0  1  0  0  0  0  0  0  0  0  0
    7.4616  -14.5665   18.5030 C   0  0  0  0  0  0  0  0  0  0  0  0
    8.3654  -13.5106   20.5631 C   0  0  0  0  0  0  0  0  0  0  0  0
    7.9802  -14.5413   21.6006 C   0  0  2  0  0  0  0  0  0  0  0  0
    6.5410  -14.7517   21.5122 N   0  0  0  0  0  0  0  0  0  0  0  0
    8.3829  -14.1733   22.9741 C   0  0  0  0  0  0  0  0  0  0  0  0
    9.5575  -13.8382   23.2542 O   0  0  0  0  0  0  0  0  0  0  0  0
    7.4456  -14.1792   24.0699 N   0  0  0  0  0  0  0  0  0  0  0  0
    7.9257  -14.2054   25.4250 C   0  0  1  0  0  0  0  0  0  0  0  0
    7.3940  -12.9765   26.1344 C   0  0  0  0  0  0  0  0  0  0  0  0
    5.5929  -12.9896   25.9476 S   0  0  0  0  0  0  0  0  0  0  0  0
    7.5488  -15.4514   26.1390 C   0  0  0  0  0  0  0  0  0  0  0  0
    6.4079  -15.9400   25.9345 O   0  0  0  0  0  0  0  0  0  0  0  0
    6.6648  -22.8575   23.8699 N   0  0  0  0  0  0  0  0  0  0  0  0
    6.1886  -22.9553   25.2246 C   0  0  0  0  0  0  0  0  0  0  0  0
    5.3725  -23.8739   25.5688 N   0  0  0  0  0  0  0  0  0  0  0  0
    6.6755  -21.9839   26.1345 N   0  0  0  0  0  0  0  0  0  0  0  0
    7.0534  -20.6647   25.6364 C   0  0  0  0  0  0  0  0  0  0  0  0
    7.4344  -19.7855   26.8082 C   0  0  0  0  0  0  0  0  0  0  0  0
    7.7736  -18.3982   26.4117 C   0  0  0  0  0  0  0  0  0  0  0  0
    8.1131  -17.4674   27.5476 C   0  0  2  0  0  0  0  0  0  0  0  0
    8.4072  -16.1208   27.0397 N   0  0  0  0  0  0  0  0  0  0  0  0
    9.3295  -17.9561   28.2077 C   0  0  0  0  0  0  0  0  0  0  0  0
    9.2535  -18.9299   29.1738 O   0  0  0  0  0  0  0  0  0  0  0  0
   10.4417  -17.4882   27.8941 O   0  0  0  0  0  0  0  0  0  0  0  0
  2  3  1  6
  2  1  1  0
  4  2  1  0
  5  6  1  1
  5  4  1  0
  7  5  1  0
  8  7  2  0
  9  7  1  0
 10  9  1  0
 11 12  1  0
 10 11  1  1
 13 23  1  0
 13 10  1  0
 14 13  2  0
 16 15  1  0
 16 17  2  0
 18 16  1  0
 19 18  1  0
 20 19  1  0
 20 21  1  0
 22 21  1  6
 22 23  1  0
 24 22  1  0
 25 24  1  0
 26 24  2  0
M  END
$$$$
