LCR.pdb
     RDKit          3D

 26 25  0  0  1  0  0  0  0  0999 V2000
    4.2551  -18.6929   21.1123 C   0  0  0  0  0  0  0  0  0  0  0  0
    4.9613  -17.4404   20.6254 C   0  0  1  0  0  0  0  0  0  0  0  0
    3.8919  -16.5302   19.9981 C   0  0  0  0  0  0  0  0  0  0  0  0
    5.5869  -16.7523   21.8017 C   0  0  0  0  0  0  0  0  0  0  0  0
    6.5889  -15.6845   21.4235 C   0  0  2  0  0  0  0  0  0  0  0  0
    7.3288  -16.1545   20.2595 N   0  0  0  0  0  0  0  0  0  0  0  0
    7.5031  -15.3181   22.5254 C   0  0  0  0  0  0  0  0  0  0  0  0
    8.6349  -15.8414   22.6508 O   0  0  0  0  0  0  0  0  0  0  0  0
    7.1435  -14.3368   23.5189 N   0  0  0  0  0  0  0  0  0  0  0  0
    7.8968  -14.2424   24.7401 C   0  0  1  0  0  0  0  0  0  0  0  0
    7.4269  -13.0101   25.4864 C   0  0  0  0  0  0  0  0  0  0  0  0
    5.6814  -13.2663   25.8946 S   0  0  0  0  0  0  0  0  0  0  0  0
    7.7799  -15.4630   25.5773 C   0  0  0  0  0  0  0  0  0  0  0  0
    6.6448  -15.9841   25.7257 O   0  0  0  0  0  0  0  0  0  0  0  0
    8.9436  -22.2641   23.1046 N   0  0  0  0  0  0  0  0  0  0  0  0
    8.2848  -22.8251   24.2548 C   0  0  0  0  0  0  0  0  0  0  0  0
    7.8422  -24.0218   24.2388 N   0  0  0  0  0  0  0  0  0  0  0  0
    8.1618  -21.9786   25.3847 N   0  0  0  0  0  0  0  0  0  0  0  0
    7.8879  -20.5583   25.1867 C   0  0  0  0  0  0  0  0  0  0  0  0
    9.1614  -19.7735   25.4177 C   0  0  0  0  0  0  0  0  0  0  0  0
    8.9875  -18.3123   25.2403 C   0  0  0  0  0  0  0  0  0  0  0  0
    8.9158  -17.5117   26.5152 C   0  0  2  0  0  0  0  0  0  0  0  0
    8.8808  -16.0733   26.2190 N   0  0  0  0  0  0  0  0  0  0  0  0
   10.1324  -17.7630   27.2968 C   0  0  0  0  0  0  0  0  0  0  0  0
   10.0852  -18.5452   28.4253 O   0  0  0  0  0  0  0  0  0  0  0  0
   11.2185  -17.2662   26.9394 O   0  0  0  0  0  0  0  0  0  0  0  0
  2  3  1  1
  2  1  1  0
  4  2  1  0
  5  6  1  6
  5  4  1  0
  7  5  1  0
  8  7  2  0
  9  7  1  0
 10  9  1  0
 11 12  1  0
 10 11  1  1
 13 23  1  0
 13 10  1  0
 14 13  2  0
 16 15  1  0
 16 17  2  0
 18 16  1  0
 19 18  1  0
 20 19  1  0
 20 21  1  0
 22 21  1  6
 22 23  1  0
 24 22  1  0
 25 24  1  0
 26 24  2  0
M  END
$$$$
