LCR.pdb
     RDKit          3D

 26 25  0  0  1  0  0  0  0  0999 V2000
    7.5778  -11.9222   18.5973 C   0  0  0  0  0  0  0  0  0  0  0  0
    7.4204  -13.3615   19.0539 C   0  0  1  0  0  0  0  0  0  0  0  0
    7.9891  -14.2566   17.9399 C   0  0  0  0  0  0  0  0  0  0  0  0
    8.2097  -13.5559   20.3139 C   0  0  0  0  0  0  0  0  0  0  0  0
    8.0639  -14.9337   20.9203 C   0  0  2  0  0  0  0  0  0  0  0  0
    6.6723  -15.3420   20.7785 N   0  0  0  0  0  0  0  0  0  0  0  0
    8.5007  -15.0057   22.3303 C   0  0  0  0  0  0  0  0  0  0  0  0
    9.6900  -14.8009   22.6681 O   0  0  0  0  0  0  0  0  0  0  0  0
    7.5817  -15.3160   23.3973 N   0  0  0  0  0  0  0  0  0  0  0  0
    8.0496  -15.3650   24.7561 C   0  0  1  0  0  0  0  0  0  0  0  0
    6.8542  -15.1872   25.6701 C   0  0  0  0  0  0  0  0  0  0  0  0
    6.4483  -13.4225   25.6810 S   0  0  0  0  0  0  0  0  0  0  0  0
    8.7854  -16.6182   25.0604 C   0  0  0  0  0  0  0  0  0  0  0  0
    8.2680  -17.7153   24.7273 O   0  0  0  0  0  0  0  0  0  0  0  0
   16.7292  -17.8883   23.3530 N   0  0  0  0  0  0  0  0  0  0  0  0
   16.3483  -19.2760   23.3826 C   0  0  0  0  0  0  0  0  0  0  0  0
   17.2285  -20.1992   23.3471 N   0  0  0  0  0  0  0  0  0  0  0  0
   14.9587  -19.5459   23.4524 N   0  0  0  0  0  0  0  0  0  0  0  0
   14.0148  -18.4323   23.4679 C   0  0  0  0  0  0  0  0  0  0  0  0
   13.2444  -18.4567   24.7706 C   0  0  0  0  0  0  0  0  0  0  0  0
   12.2043  -17.4040   24.8542 C   0  0  0  0  0  0  0  0  0  0  0  0
   10.9533  -17.7911   25.6003 C   0  0  2  0  0  0  0  0  0  0  0  0
   10.0415  -16.6444   25.7068 N   0  0  0  0  0  0  0  0  0  0  0  0
   11.3223  -18.1788   26.9670 C   0  0  0  0  0  0  0  0  0  0  0  0
   12.0553  -19.3186   27.1930 O   0  0  0  0  0  0  0  0  0  0  0  0
   10.9712  -17.4733   27.9330 O   0  0  0  0  0  0  0  0  0  0  0  0
  2  3  1  6
  2  1  1  0
  4  2  1  0
  5  6  1  1
  5  4  1  0
  7  5  1  0
  8  7  2  0
  9  7  1  0
 10  9  1  0
 11 12  1  0
 10 11  1  1
 13 23  1  0
 13 10  1  0
 14 13  2  0
 16 15  1  0
 16 17  2  0
 18 16  1  0
 19 18  1  0
 20 19  1  0
 20 21  1  0
 22 21  1  6
 22 23  1  0
 24 22  1  0
 25 24  1  0
 26 24  2  0
M  END
$$$$
