LCR.pdb
     RDKit          3D

 26 25  0  0  1  0  0  0  0  0999 V2000
    8.1996  -16.8532   16.9369 C   0  0  0  0  0  0  0  0  0  0  0  0
    7.4505  -15.6894   17.5606 C   0  0  1  0  0  0  0  0  0  0  0  0
    6.0460  -16.1972   17.9279 C   0  0  0  0  0  0  0  0  0  0  0  0
    8.1753  -15.2595   18.8009 C   0  0  0  0  0  0  0  0  0  0  0  0
    7.4894  -14.1413   19.5533 C   0  0  2  0  0  0  0  0  0  0  0  0
    7.6129  -12.9246   18.7609 N   0  0  0  0  0  0  0  0  0  0  0  0
    8.0136  -13.9436   20.9209 C   0  0  0  0  0  0  0  0  0  0  0  0
    9.1314  -13.4186   21.1339 O   0  0  0  0  0  0  0  0  0  0  0  0
    7.2672  -14.3440   22.0879 N   0  0  0  0  0  0  0  0  0  0  0  0
    7.8397  -14.1815   23.3969 C   0  0  1  0  0  0  0  0  0  0  0  0
    6.7089  -13.9404   24.3763 C   0  0  0  0  0  0  0  0  0  0  0  0
    7.4480  -13.8142   26.0246 S   0  0  0  0  0  0  0  0  0  0  0  0
    8.6727  -15.3418   23.8024 C   0  0  0  0  0  0  0  0  0  0  0  0
    8.1602  -16.4901   23.7711 O   0  0  0  0  0  0  0  0  0  0  0  0
   16.8576  -16.5547   24.2018 N   0  0  0  0  0  0  0  0  0  0  0  0
   16.4823  -17.7461   23.4868 C   0  0  0  0  0  0  0  0  0  0  0  0
   17.3273  -18.6788   23.2762 N   0  0  0  0  0  0  0  0  0  0  0  0
   15.1390  -17.8153   23.0403 N   0  0  0  0  0  0  0  0  0  0  0  0
   14.2424  -16.6919   23.2964 C   0  0  0  0  0  0  0  0  0  0  0  0
   13.2484  -17.0883   24.3668 C   0  0  0  0  0  0  0  0  0  0  0  0
   12.2831  -16.0124   24.6950 C   0  0  0  0  0  0  0  0  0  0  0  0
   10.8293  -16.3938   24.5827 C   0  0  2  0  0  0  0  0  0  0  0  0
   10.0163  -15.2244   24.2232 N   0  0  0  0  0  0  0  0  0  0  0  0
   10.3628  -16.8583   25.8945 C   0  0  0  0  0  0  0  0  0  0  0  0
    9.4820  -16.1009   26.6280 O   0  0  0  0  0  0  0  0  0  0  0  0
   10.7649  -17.9463   26.3514 O   0  0  0  0  0  0  0  0  0  0  0  0
  2  3  1  1
  2  1  1  0
  4  2  1  0
  5  6  1  6
  5  4  1  0
  7  5  1  0
  8  7  2  0
  9  7  1  0
 10  9  1  0
 11 12  1  0
 10 11  1  1
 13 23  1  0
 13 10  1  0
 14 13  2  0
 16 15  1  0
 16 17  2  0
 18 16  1  0
 19 18  1  0
 20 19  1  0
 20 21  1  0
 22 21  1  1
 22 23  1  0
 24 22  1  0
 25 24  1  0
 26 24  2  0
M  END
$$$$
