LCR.pdb
     RDKit          3D

 26 25  0  0  1  0  0  0  0  0999 V2000
    7.4948  -11.0482   26.2905 C   0  0  0  0  0  0  0  0  0  0  0  0
    7.0189  -12.4892   26.3312 C   0  0  1  0  0  0  0  0  0  0  0  0
    5.7048  -12.5117   27.1302 C   0  0  0  0  0  0  0  0  0  0  0  0
    6.7675  -12.9531   24.9276 C   0  0  0  0  0  0  0  0  0  0  0  0
    6.8572  -14.4528   24.7540 C   0  0  2  0  0  0  0  0  0  0  0  0
    6.1614  -15.0770   25.8718 N   0  0  0  0  0  0  0  0  0  0  0  0
    8.2442  -14.9508   24.6430 C   0  0  0  0  0  0  0  0  0  0  0  0
    9.0410  -14.5099   23.7819 O   0  0  0  0  0  0  0  0  0  0  0  0
    8.7589  -15.9729   25.5203 N   0  0  0  0  0  0  0  0  0  0  0  0
   10.0701  -16.5186   25.2952 C   0  0  1  0  0  0  0  0  0  0  0  0
   10.5424  -17.1519   26.5883 C   0  0  0  0  0  0  0  0  0  0  0  0
    9.3538  -16.6905   27.8741 S   0  0  0  0  0  0  0  0  0  0  0  0
   10.0980  -17.4892   24.1720 C   0  0  0  0  0  0  0  0  0  0  0  0
    9.1094  -18.2498   24.0098 O   0  0  0  0  0  0  0  0  0  0  0  0
    8.1183  -13.3750   17.8249 N   0  0  0  0  0  0  0  0  0  0  0  0
    8.2137  -13.6379   19.2368 C   0  0  0  0  0  0  0  0  0  0  0  0
    7.9664  -12.7243   20.0927 N   0  0  0  0  0  0  0  0  0  0  0  0
    8.5930  -14.9520   19.6081 N   0  0  0  0  0  0  0  0  0  0  0  0
    9.8040  -15.5341   19.0371 C   0  0  0  0  0  0  0  0  0  0  0  0
   10.0809  -16.8592   19.7143 C   0  0  0  0  0  0  0  0  0  0  0  0
   10.2457  -16.7418   21.1826 C   0  0  0  0  0  0  0  0  0  0  0  0
   10.9842  -17.8783   21.8418 C   0  0  2  0  0  0  0  0  0  0  0  0
   11.1806  -17.6046   23.2716 N   0  0  0  0  0  0  0  0  0  0  0  0
   12.3163  -17.9875   21.2352 C   0  0  0  0  0  0  0  0  0  0  0  0
   12.4719  -18.5616   19.9968 O   0  0  0  0  0  0  0  0  0  0  0  0
   13.3167  -17.5584   21.8429 O   0  0  0  0  0  0  0  0  0  0  0  0
  2  3  1  1
  2  1  1  0
  4  2  1  0
  5  6  1  1
  5  4  1  0
  7  5  1  0
  8  7  2  0
  9  7  1  0
 10  9  1  0
 11 12  1  0
 10 11  1  1
 13 23  1  0
 13 10  1  0
 14 13  2  0
 16 15  1  0
 16 17  2  0
 18 16  1  0
 19 18  1  0
 20 19  1  0
 20 21  1  0
 22 21  1  6
 22 23  1  0
 24 22  1  0
 25 24  1  0
 26 24  2  0
M  END
$$$$
