SVA.pdb
     RDKit          3D

 19 18  0  0  1  0  0  0  0  0999 V2000
   14.7108   -8.5033  -14.5660 O   0  0  0  0  0  0  0  0  0  0  0  0
   15.8039   -7.9669  -13.9306 C   0  0  0  0  0  0  0  0  0  0  0  0
   16.5895   -9.0444  -13.1907 C   0  0  2  0  0  0  0  0  0  0  0  0
   15.8664   -9.3567  -11.9974 N   0  0  0  0  0  0  0  0  0  0  0  0
   17.9760   -8.5818  -12.8984 C   0  0  0  0  0  0  0  0  0  0  0  0
   18.2358   -8.0399  -11.8093 O   0  0  0  0  0  0  0  0  0  0  0  0
   22.7745   -9.0147  -13.9074 C   0  0  0  0  0  0  0  0  0  0  0  0
   21.3227   -9.2649  -14.1245 C   0  0  2  0  0  0  0  0  0  0  0  0
   21.0634   -9.2980  -15.6341 C   0  0  0  0  0  0  0  0  0  0  0  0
   20.3907   -8.2200  -13.5641 C   0  0  2  0  0  0  0  0  0  0  0  0
   19.0312   -8.7394  -13.8335 N   0  0  0  0  0  0  0  0  0  0  0  0
   20.6034   -6.9510  -14.2686 C   0  0  0  0  0  0  0  0  0  0  0  0
   20.5798   -6.9700  -15.5475 O   0  0  0  0  0  0  0  0  0  0  0  0
   20.3690   -3.3247  -13.8686 C   0  0  0  0  0  0  0  0  0  0  0  0
   21.1074   -4.4987  -14.5219 C   0  0  2  0  0  0  0  0  0  0  0  0
   20.8337   -5.6845  -13.6925 N   0  0  0  0  0  0  0  0  0  0  0  0
   22.5367   -4.1661  -14.5233 C   0  0  0  0  0  0  0  0  0  0  0  0
   22.9684   -3.3420  -15.3596 O   0  0  0  0  0  0  0  0  0  0  0  0
   23.4053   -4.7449  -13.6220 O   0  0  0  0  0  0  0  0  0  0  0  0
  2  1  1  0
  3  2  1  0
  3  4  1  1
  5 11  1  0
  5  3  1  0
  6  5  2  0
  8  7  1  6
  8 10  1  0
  9  8  1  0
 10 12  1  0
 10 11  1  6
 12 16  1  0
 13 12  2  0
 15 14  1  1
 16 15  1  0
 17 15  1  0
 17 19  1  0
 18 17  2  0
M  END
$$$$
