SVA.pdb
     RDKit          3D

 19 18  0  0  1  0  0  0  0  0999 V2000
   22.4974  -10.2413  -21.1354 O   0  0  0  0  0  0  0  0  0  0  0  0
   21.7974   -9.7376  -20.0664 C   0  0  0  0  0  0  0  0  0  0  0  0
   21.4937  -10.8310  -19.0476 C   0  0  2  0  0  0  0  0  0  0  0  0
   20.4836  -11.6713  -19.6113 N   0  0  0  0  0  0  0  0  0  0  0  0
   21.0666  -10.2395  -17.7479 C   0  0  0  0  0  0  0  0  0  0  0  0
   19.8618  -10.0208  -17.5284 O   0  0  0  0  0  0  0  0  0  0  0  0
   22.0015   -9.5760  -12.9931 C   0  0  0  0  0  0  0  0  0  0  0  0
   22.1933  -10.0899  -14.3775 C   0  0  2  0  0  0  0  0  0  0  0  0
   23.6968  -10.1302  -14.6690 C   0  0  0  0  0  0  0  0  0  0  0  0
   21.5784   -9.2555  -15.4731 C   0  0  2  0  0  0  0  0  0  0  0  0
   22.0002   -9.9100  -16.7317 N   0  0  0  0  0  0  0  0  0  0  0  0
   22.1112   -7.8906  -15.4017 C   0  0  0  0  0  0  0  0  0  0  0  0
   23.3628   -7.7295  -15.6118 O   0  0  0  0  0  0  0  0  0  0  0  0
   21.1365   -4.3806  -15.6992 C   0  0  0  0  0  0  0  0  0  0  0  0
   22.0660   -5.4019  -15.0333 C   0  0  2  0  0  0  0  0  0  0  0  0
   21.3933   -6.7087  -15.1252 N   0  0  0  0  0  0  0  0  0  0  0  0
   22.2378   -4.9865  -13.6363 C   0  0  0  0  0  0  0  0  0  0  0  0
   21.5543   -5.5425  -12.7483 O   0  0  0  0  0  0  0  0  0  0  0  0
   23.1358   -3.9988  -13.2904 O   0  0  0  0  0  0  0  0  0  0  0  0
  2  1  1  0
  3  2  1  0
  3  4  1  6
  5 11  1  0
  5  3  1  0
  6  5  2  0
  8  7  1  1
  8 10  1  0
  9  8  1  0
 10 12  1  0
 10 11  1  6
 12 16  1  0
 13 12  2  0
 15 14  1  6
 16 15  1  0
 17 15  1  0
 17 19  1  0
 18 17  2  0
M  END
$$$$
