SVA.pdb
     RDKit          3D

 19 18  0  0  1  0  0  0  0  0999 V2000
   26.8278  -11.8466  -15.8921 O   0  0  0  0  0  0  0  0  0  0  0  0
   25.9496  -10.8472  -16.2331 C   0  0  0  0  0  0  0  0  0  0  0  0
   24.5841  -11.4200  -16.5975 C   0  0  2  0  0  0  0  0  0  0  0  0
   24.7571  -12.2264  -17.7655 N   0  0  0  0  0  0  0  0  0  0  0  0
   23.5930  -10.3280  -16.8148 C   0  0  0  0  0  0  0  0  0  0  0  0
   23.4220   -9.8589  -17.9541 O   0  0  0  0  0  0  0  0  0  0  0  0
   19.8866  -10.3267  -16.0121 C   0  0  0  0  0  0  0  0  0  0  0  0
   20.5698   -9.1977  -15.3220 C   0  0  2  0  0  0  0  0  0  0  0  0
   19.6149   -7.9998  -15.3041 C   0  0  0  0  0  0  0  0  0  0  0  0
   21.8395   -8.7090  -15.9729 C   0  0  2  0  0  0  0  0  0  0  0  0
   22.8222   -9.7931  -15.7506 N   0  0  0  0  0  0  0  0  0  0  0  0
   22.2798   -7.4749  -15.3135 C   0  0  0  0  0  0  0  0  0  0  0  0
   22.5054   -7.5214  -14.0551 O   0  0  0  0  0  0  0  0  0  0  0  0
   23.1745   -3.9135  -16.1262 C   0  0  0  0  0  0  0  0  0  0  0  0
   22.9354   -5.0526  -15.1283 C   0  0  2  0  0  0  0  0  0  0  0  0
   22.4910   -6.2164  -15.9138 N   0  0  0  0  0  0  0  0  0  0  0  0
   21.8910   -4.6044  -14.1999 C   0  0  0  0  0  0  0  0  0  0  0  0
   20.6905   -4.7799  -14.5045 O   0  0  0  0  0  0  0  0  0  0  0  0
   22.2115   -3.9967  -13.0042 O   0  0  0  0  0  0  0  0  0  0  0  0
  2  1  1  0
  3  2  1  0
  3  4  1  6
  5 11  1  0
  5  3  1  0
  6  5  2  0
  8  7  1  6
  8 10  1  0
  9  8  1  0
 10 12  1  0
 10 11  1  1
 12 16  1  0
 13 12  2  0
 15 14  1  6
 16 15  1  0
 17 15  1  0
 17 19  1  0
 18 17  2  0
M  END
$$$$
