SVA.pdb
     RDKit          3D

 19 18  0  0  1  0  0  0  0  0999 V2000
   17.8046  -12.3101  -14.4952 O   0  0  0  0  0  0  0  0  0  0  0  0
   18.4891  -11.2301  -14.9967 C   0  0  0  0  0  0  0  0  0  0  0  0
   17.6594  -10.4953  -16.0442 C   0  0  2  0  0  0  0  0  0  0  0  0
   17.5753  -11.3420  -17.1932 N   0  0  0  0  0  0  0  0  0  0  0  0
   18.2666   -9.1731  -16.3681 C   0  0  0  0  0  0  0  0  0  0  0  0
   19.1121   -9.0810  -17.2758 O   0  0  0  0  0  0  0  0  0  0  0  0
   16.5047   -5.7930  -17.2055 C   0  0  0  0  0  0  0  0  0  0  0  0
   17.3887   -5.7075  -16.0103 C   0  0  2  0  0  0  0  0  0  0  0  0
   18.0227   -4.3131  -15.9829 C   0  0  0  0  0  0  0  0  0  0  0  0
   18.5347   -6.6873  -15.9762 C   0  0  2  0  0  0  0  0  0  0  0  0
   17.9097   -7.9927  -15.6667 N   0  0  0  0  0  0  0  0  0  0  0  0
   19.4713   -6.3030  -14.9146 C   0  0  0  0  0  0  0  0  0  0  0  0
   18.9897   -6.0722  -13.7520 O   0  0  0  0  0  0  0  0  0  0  0  0
   23.1219   -6.2138  -14.1638 C   0  0  0  0  0  0  0  0  0  0  0  0
   21.6928   -5.7395  -13.8758 C   0  0  2  0  0  0  0  0  0  0  0  0
   20.8696   -6.1563  -15.0236 N   0  0  0  0  0  0  0  0  0  0  0  0
   21.7368   -4.2779  -13.7526 C   0  0  0  0  0  0  0  0  0  0  0  0
   21.3766   -3.5749  -14.7226 O   0  0  0  0  0  0  0  0  0  0  0  0
   22.1666   -3.6719  -12.5908 O   0  0  0  0  0  0  0  0  0  0  0  0
  2  1  1  0
  3  2  1  0
  3  4  1  6
  5 11  1  0
  5  3  1  0
  6  5  2  0
  8  7  1  6
  8 10  1  0
  9  8  1  0
 10 12  1  0
 10 11  1  1
 12 16  1  0
 13 12  2  0
 15 14  1  6
 16 15  1  0
 17 15  1  0
 17 19  1  0
 18 17  2  0
M  END
$$$$
