SVA.pdb
     RDKit          3D

 19 18  0  0  1  0  0  0  0  0999 V2000
   21.1534  -13.1420  -16.7437 O   0  0  0  0  0  0  0  0  0  0  0  0
   20.7441  -11.8388  -16.8867 C   0  0  0  0  0  0  0  0  0  0  0  0
   19.3148  -11.6567  -16.3871 C   0  0  2  0  0  0  0  0  0  0  0  0
   18.4419  -12.1895  -17.3863 N   0  0  0  0  0  0  0  0  0  0  0  0
   19.0312  -10.2205  -16.1064 C   0  0  0  0  0  0  0  0  0  0  0  0
   18.6601   -9.4674  -17.0242 O   0  0  0  0  0  0  0  0  0  0  0  0
   16.5645   -8.8294  -13.6418 C   0  0  0  0  0  0  0  0  0  0  0  0
   17.9174   -8.2750  -13.3592 C   0  0  2  0  0  0  0  0  0  0  0  0
   17.7538   -6.8188  -12.9121 C   0  0  0  0  0  0  0  0  0  0  0  0
   18.8676   -8.2474  -14.5301 C   0  0  2  0  0  0  0  0  0  0  0  0
   19.1714   -9.6692  -14.8067 N   0  0  0  0  0  0  0  0  0  0  0  0
   20.0875   -7.5274  -14.1490 C   0  0  0  0  0  0  0  0  0  0  0  0
   20.7338   -7.9511  -13.1295 O   0  0  0  0  0  0  0  0  0  0  0  0
   22.3354   -4.7932  -15.4031 C   0  0  0  0  0  0  0  0  0  0  0  0
   21.9193   -5.8124  -14.3361 C   0  0  2  0  0  0  0  0  0  0  0  0
   20.6468   -6.4009  -14.7870 N   0  0  0  0  0  0  0  0  0  0  0  0
   21.7519   -5.0785  -13.0764 C   0  0  0  0  0  0  0  0  0  0  0  0
   20.6178   -4.6496  -12.7687 O   0  0  0  0  0  0  0  0  0  0  0  0
   22.8195   -4.8561  -12.2323 O   0  0  0  0  0  0  0  0  0  0  0  0
  2  1  1  0
  3  2  1  0
  3  4  1  6
  5 11  1  0
  5  3  1  0
  6  5  2  0
  8  7  1  6
  8 10  1  0
  9  8  1  0
 10 12  1  0
 10 11  1  1
 12 16  1  0
 13 12  2  0
 15 14  1  6
 16 15  1  0
 17 15  1  0
 17 19  1  0
 18 17  2  0
M  END
$$$$
