SVA.pdb
     RDKit          3D

 19 18  0  0  1  0  0  0  0  0999 V2000
   29.3910   -8.9607  -17.3566 O   0  0  0  0  0  0  0  0  0  0  0  0
   28.0680   -8.9961  -17.7237 C   0  0  0  0  0  0  0  0  0  0  0  0
   27.3473  -10.1642  -17.0589 C   0  0  2  0  0  0  0  0  0  0  0  0
   27.9231  -11.3685  -17.5711 N   0  0  0  0  0  0  0  0  0  0  0  0
   25.8802  -10.0946  -17.3131 C   0  0  0  0  0  0  0  0  0  0  0  0
   25.4071  -10.5600  -18.3653 O   0  0  0  0  0  0  0  0  0  0  0  0
   21.4604  -10.5066  -15.5839 C   0  0  0  0  0  0  0  0  0  0  0  0
   22.9469  -10.4783  -15.6675 C   0  0  2  0  0  0  0  0  0  0  0  0
   23.4970  -10.1136  -14.2849 C   0  0  0  0  0  0  0  0  0  0  0  0
   23.5263   -9.4685  -16.6264 C   0  0  2  0  0  0  0  0  0  0  0  0
   24.9855   -9.5063  -16.3824 N   0  0  0  0  0  0  0  0  0  0  0  0
   22.9890   -8.1393  -16.3157 C   0  0  0  0  0  0  0  0  0  0  0  0
   23.3372   -7.6015  -15.2083 O   0  0  0  0  0  0  0  0  0  0  0  0
   20.8994   -5.4282  -17.8706 C   0  0  0  0  0  0  0  0  0  0  0  0
   21.6953   -6.0154  -16.6993 C   0  0  2  0  0  0  0  0  0  0  0  0
   22.1174   -7.3654  -17.1095 N   0  0  0  0  0  0  0  0  0  0  0  0
   20.7929   -6.0661  -15.5431 C   0  0  0  0  0  0  0  0  0  0  0  0
   19.9708   -7.0047  -15.4542 O   0  0  0  0  0  0  0  0  0  0  0  0
   20.8376   -5.1004  -14.5597 O   0  0  0  0  0  0  0  0  0  0  0  0
  2  1  1  0
  3  2  1  0
  3  4  1  6
  5 11  1  0
  5  3  1  0
  6  5  2  0
  8  7  1  1
  8 10  1  0
  9  8  1  0
 10 12  1  0
 10 11  1  1
 12 16  1  0
 13 12  2  0
 15 14  1  6
 16 15  1  0
 17 15  1  0
 17 19  1  0
 18 17  2  0
M  END
$$$$
