SVA.pdb
     RDKit          3D

 19 18  0  0  1  0  0  0  0  0999 V2000
   18.1673  -10.5582  -20.0708 O   0  0  0  0  0  0  0  0  0  0  0  0
   18.3544  -10.1561  -18.7709 C   0  0  0  0  0  0  0  0  0  0  0  0
   19.0519  -11.2415  -17.9579 C   0  0  2  0  0  0  0  0  0  0  0  0
   18.1033  -12.2892  -17.7416 N   0  0  0  0  0  0  0  0  0  0  0  0
   19.5753  -10.6888  -16.6764 C   0  0  0  0  0  0  0  0  0  0  0  0
   18.8619  -10.6947  -15.6574 O   0  0  0  0  0  0  0  0  0  0  0  0
   22.6279  -11.6577  -14.7055 C   0  0  0  0  0  0  0  0  0  0  0  0
   22.6975  -10.2113  -15.0526 C   0  0  2  0  0  0  0  0  0  0  0  0
   23.3239   -9.4651  -13.8703 C   0  0  0  0  0  0  0  0  0  0  0  0
   21.3727   -9.5399  -15.3148 C   0  0  2  0  0  0  0  0  0  0  0  0
   20.8818  -10.1457  -16.5727 N   0  0  0  0  0  0  0  0  0  0  0  0
   21.5842   -8.0987  -15.4883 C   0  0  0  0  0  0  0  0  0  0  0  0
   22.4467   -7.7249  -16.3561 O   0  0  0  0  0  0  0  0  0  0  0  0
   19.9424   -4.8559  -14.8512 C   0  0  0  0  0  0  0  0  0  0  0  0
   21.2398   -5.6397  -15.0804 C   0  0  2  0  0  0  0  0  0  0  0  0
   20.9351   -7.0530  -14.7999 N   0  0  0  0  0  0  0  0  0  0  0  0
   22.2375   -5.1120  -14.1424 C   0  0  0  0  0  0  0  0  0  0  0  0
   22.8286   -4.0451  -14.4201 O   0  0  0  0  0  0  0  0  0  0  0  0
   22.5310   -5.7707  -12.9670 O   0  0  0  0  0  0  0  0  0  0  0  0
  2  1  1  0
  3  2  1  0
  3  4  1  1
  5 11  1  0
  5  3  1  0
  6  5  2  0
  8  7  1  1
  8 10  1  0
  9  8  1  0
 10 12  1  0
 10 11  1  6
 12 16  1  0
 13 12  2  0
 15 14  1  1
 16 15  1  0
 17 15  1  0
 17 19  1  0
 18 17  2  0
M  END
$$$$
