SVA.pdb
     RDKit          3D

 19 18  0  0  1  0  0  0  0  0999 V2000
   15.9911  -12.6198  -13.9767 O   0  0  0  0  0  0  0  0  0  0  0  0
   16.9854  -11.8107  -14.4697 C   0  0  0  0  0  0  0  0  0  0  0  0
   16.7056  -11.4207  -15.9172 C   0  0  2  0  0  0  0  0  0  0  0  0
   16.8194  -12.6061  -16.7085 N   0  0  0  0  0  0  0  0  0  0  0  0
   17.6448  -10.3552  -16.3693 C   0  0  0  0  0  0  0  0  0  0  0  0
   18.7488  -10.6618  -16.8536 O   0  0  0  0  0  0  0  0  0  0  0  0
   16.5924   -6.9849  -18.3863 C   0  0  0  0  0  0  0  0  0  0  0  0
   17.3740   -6.7752  -17.1363 C   0  0  2  0  0  0  0  0  0  0  0  0
   18.3081   -5.5799  -17.3510 C   0  0  0  0  0  0  0  0  0  0  0  0
   18.2569   -7.9248  -16.7195 C   0  0  2  0  0  0  0  0  0  0  0  0
   17.3211   -8.9778  -16.2661 N   0  0  0  0  0  0  0  0  0  0  0  0
   19.1220   -7.4974  -15.6146 C   0  0  0  0  0  0  0  0  0  0  0  0
   18.5608   -6.9933  -14.5813 O   0  0  0  0  0  0  0  0  0  0  0  0
   22.6137   -7.9443  -14.3974 C   0  0  0  0  0  0  0  0  0  0  0  0
   21.2689   -7.2109  -14.3339 C   0  0  2  0  0  0  0  0  0  0  0  0
   20.5284   -7.5793  -15.5525 N   0  0  0  0  0  0  0  0  0  0  0  0
   21.5598   -5.7728  -14.2998 C   0  0  0  0  0  0  0  0  0  0  0  0
   21.4734   -5.1098  -15.3570 O   0  0  0  0  0  0  0  0  0  0  0  0
   21.9245   -5.1458  -13.1270 O   0  0  0  0  0  0  0  0  0  0  0  0
  2  1  1  0
  3  2  1  0
  3  4  1  6
  5 11  1  0
  5  3  1  0
  6  5  2  0
  8  7  1  6
  8 10  1  0
  9  8  1  0
 10 12  1  0
 10 11  1  1
 12 16  1  0
 13 12  2  0
 15 14  1  6
 16 15  1  0
 17 15  1  0
 17 19  1  0
 18 17  2  0
M  END
$$$$
