SVA.pdb
     RDKit          3D

 19 18  0  0  1  0  0  0  0  0999 V2000
   19.6007  -23.9918    7.9990 O   0  0  0  0  0  0  0  0  0  0  0  0
   20.6905  -23.5968    8.7358 C   0  0  0  0  0  0  0  0  0  0  0  0
   20.2907  -22.5836    9.8031 C   0  0  2  0  0  0  0  0  0  0  0  0
   19.8815  -21.3913    9.1283 N   0  0  0  0  0  0  0  0  0  0  0  0
   21.4191  -22.3332   10.7443 C   0  0  0  0  0  0  0  0  0  0  0  0
   22.2155  -21.4021   10.5291 O   0  0  0  0  0  0  0  0  0  0  0  0
   23.1056  -22.7407   15.3208 C   0  0  0  0  0  0  0  0  0  0  0  0
   22.1449  -22.7916   14.1842 C   0  0  2  0  0  0  0  0  0  0  0  0
   21.2706  -24.0384   14.3522 C   0  0  0  0  0  0  0  0  0  0  0  0
   22.7634  -22.8977   12.8128 C   0  0  2  0  0  0  0  0  0  0  0  0
   21.6233  -23.1321   11.8987 N   0  0  0  0  0  0  0  0  0  0  0  0
   23.6869  -24.0371   12.7830 C   0  0  0  0  0  0  0  0  0  0  0  0
   23.1813  -25.2102   12.7126 O   0  0  0  0  0  0  0  0  0  0  0  0
   27.3754  -24.7782   12.7605 C   0  0  0  0  0  0  0  0  0  0  0  0
   25.9074  -25.2201   12.7471 C   0  0  2  0  0  0  0  0  0  0  0  0
   25.0959  -23.9934   12.8213 N   0  0  0  0  0  0  0  0  0  0  0  0
   25.6992  -26.0705   13.9248 C   0  0  0  0  0  0  0  0  0  0  0  0
   25.4465  -25.5331   15.0258 O   0  0  0  0  0  0  0  0  0  0  0  0
   25.7774  -27.4445   13.8362 O   0  0  0  0  0  0  0  0  0  0  0  0
  2  1  1  0
  3  2  1  0
  3  4  1  6
  5 11  1  0
  5  3  1  0
  6  5  2  0
  8  7  1  1
  8 10  1  0
  9  8  1  0
 10 12  1  0
 10 11  1  6
 12 16  1  0
 13 12  2  0
 15 14  1  1
 16 15  1  0
 17 15  1  0
 17 19  1  0
 18 17  2  0
M  END
$$$$
