SVA.pdb
     RDKit          3D

 19 18  0  0  1  0  0  0  0  0999 V2000
   27.4658   -9.7278  -15.5708 O   0  0  0  0  0  0  0  0  0  0  0  0
   26.4131   -9.0968  -16.1875 C   0  0  0  0  0  0  0  0  0  0  0  0
   25.4922  -10.1057  -16.8655 C   0  0  2  0  0  0  0  0  0  0  0  0
   26.2720  -10.8126  -17.8333 N   0  0  0  0  0  0  0  0  0  0  0  0
   24.3214   -9.4213  -17.4840 C   0  0  0  0  0  0  0  0  0  0  0  0
   24.4029   -8.9686  -18.6398 O   0  0  0  0  0  0  0  0  0  0  0  0
   20.8020  -10.7566  -18.1514 C   0  0  0  0  0  0  0  0  0  0  0  0
   20.7892   -9.5785  -17.2408 C   0  0  2  0  0  0  0  0  0  0  0  0
   19.5062   -8.7838  -17.5046 C   0  0  0  0  0  0  0  0  0  0  0  0
   21.9269   -8.6046  -17.4194 C   0  0  2  0  0  0  0  0  0  0  0  0
   23.0936   -9.2636  -16.7909 N   0  0  0  0  0  0  0  0  0  0  0  0
   21.6090   -7.3529  -16.7238 C   0  0  0  0  0  0  0  0  0  0  0  0
   20.7752   -6.5585  -17.2810 O   0  0  0  0  0  0  0  0  0  0  0  0
   21.6506   -5.7488  -13.4269 C   0  0  0  0  0  0  0  0  0  0  0  0
   21.7902   -5.5828  -14.9446 C   0  0  2  0  0  0  0  0  0  0  0  0
   22.1217   -6.9115  -15.4864 N   0  0  0  0  0  0  0  0  0  0  0  0
   22.8764   -4.6242  -15.1785 C   0  0  0  0  0  0  0  0  0  0  0  0
   22.7345   -3.4403  -14.8003 O   0  0  0  0  0  0  0  0  0  0  0  0
   24.0438   -5.0069  -15.8049 O   0  0  0  0  0  0  0  0  0  0  0  0
  2  1  1  0
  3  2  1  0
  3  4  1  6
  5 11  1  0
  5  3  1  0
  6  5  2  0
  8  7  1  6
  8 10  1  0
  9  8  1  0
 10 12  1  0
 10 11  1  1
 12 16  1  0
 13 12  2  0
 15 14  1  1
 16 15  1  0
 17 15  1  0
 17 19  1  0
 18 17  2  0
M  END
$$$$
