SVA.pdb
     RDKit          3D

 19 18  0  0  1  0  0  0  0  0999 V2000
   16.0552  -10.8501  -14.4264 O   0  0  0  0  0  0  0  0  0  0  0  0
   16.4009  -10.2763  -15.6254 C   0  0  0  0  0  0  0  0  0  0  0  0
   17.5403  -11.0420  -16.2896 C   0  0  2  0  0  0  0  0  0  0  0  0
   17.3856  -12.4211  -15.9456 N   0  0  0  0  0  0  0  0  0  0  0  0
   18.8617  -10.5038  -15.8583 C   0  0  0  0  0  0  0  0  0  0  0  0
   19.4577  -11.0142  -14.8931 O   0  0  0  0  0  0  0  0  0  0  0  0
   22.9877   -8.3093  -17.2706 C   0  0  0  0  0  0  0  0  0  0  0  0
   21.6014   -8.8376  -17.3989 C   0  0  2  0  0  0  0  0  0  0  0  0
   20.8177   -7.9042  -18.3272 C   0  0  0  0  0  0  0  0  0  0  0  0
   20.8108   -8.9104  -16.1165 C   0  0  2  0  0  0  0  0  0  0  0  0
   19.4774   -9.4102  -16.5199 N   0  0  0  0  0  0  0  0  0  0  0  0
   20.7008   -7.5675  -15.5365 C   0  0  0  0  0  0  0  0  0  0  0  0
   19.8824   -6.7496  -16.0823 O   0  0  0  0  0  0  0  0  0  0  0  0
   21.7583   -5.5927  -12.5430 C   0  0  0  0  0  0  0  0  0  0  0  0
   21.2469   -5.6619  -13.9867 C   0  0  2  0  0  0  0  0  0  0  0  0
   21.4028   -7.0595  -14.4239 N   0  0  0  0  0  0  0  0  0  0  0  0
   22.0797   -4.7559  -14.7862 C   0  0  0  0  0  0  0  0  0  0  0  0
   23.0247   -5.2299  -15.4548 O   0  0  0  0  0  0  0  0  0  0  0  0
   21.8372   -3.3986  -14.8113 O   0  0  0  0  0  0  0  0  0  0  0  0
  2  1  1  0
  3  2  1  0
  3  4  1  1
  5 11  1  0
  5  3  1  0
  6  5  2  0
  8  7  1  1
  8 10  1  0
  9  8  1  0
 10 12  1  0
 10 11  1  6
 12 16  1  0
 13 12  2  0
 15 14  1  1
 16 15  1  0
 17 15  1  0
 17 19  1  0
 18 17  2  0
M  END
$$$$
