DYT.pdb
     RDKit          3D

 28 28  0  0  1  0  0  0  0  0999 V2000
    8.7225  -17.2525   19.3500 N   0  0  0  0  0  0  0  0  0  0  0  0
   10.1103  -17.3434   19.8338 C   0  0  1  0  0  0  0  0  0  0  0  0
   11.0531  -16.8237   18.8010 C   0  0  0  0  0  0  0  0  0  0  0  0
   11.0062  -17.5187   17.5137 C   0  0  0  0  0  0  0  0  0  0  0  0
   11.9102  -17.4882   16.6607 O   0  0  0  0  0  0  0  0  0  0  0  0
   10.1584  -16.5048   21.0859 C   0  0  0  0  0  0  0  0  0  0  0  0
   11.2460  -16.1871   21.5794 O   0  0  0  0  0  0  0  0  0  0  0  0
    9.8744  -18.2899   17.1738 O   0  0  0  0  0  0  0  0  0  0  0  0
    6.6411  -11.8707   27.9419 O   0  0  0  0  0  0  0  0  0  0  0  0
    6.8845  -12.5314   26.7481 C   0  0  0  0  0  0  0  0  0  0  0  0
    6.3433  -13.7931   26.4740 C   0  0  0  0  0  0  0  0  0  0  0  0
    6.6288  -14.3869   25.2681 C   0  0  0  0  0  0  0  0  0  0  0  0
    7.4400  -13.7751   24.3076 C   0  0  0  0  0  0  0  0  0  0  0  0
    7.7237  -14.4821   23.0804 C   0  0  0  0  0  0  0  0  0  0  0  0
    8.9800  -15.2655   22.9674 C   0  0  2  0  0  0  0  0  0  0  0  0
    8.9506  -16.0637   21.7210 N   0  0  0  0  0  0  0  0  0  0  0  0
    9.1916  -16.2237   24.0509 C   0  0  0  0  0  0  0  0  0  0  0  0
    8.4709  -17.2863   24.0711 O   0  0  0  0  0  0  0  0  0  0  0  0
    7.9576  -12.5296   24.6117 C   0  0  0  0  0  0  0  0  0  0  0  0
    7.6878  -11.9128   25.8107 C   0  0  0  0  0  0  0  0  0  0  0  0
   11.8858  -19.0093   26.8009 C   0  0  0  0  0  0  0  0  0  0  0  0
   11.6478  -17.9490   25.7453 C   0  0  1  0  0  0  0  0  0  0  0  0
   11.5103  -18.5844   24.5090 O   0  0  0  0  0  0  0  0  0  0  0  0
   10.3489  -17.2233   26.0511 C   0  0  2  0  0  0  0  0  0  0  0  0
   10.1195  -16.1425   25.1166 N   0  0  0  0  0  0  0  0  0  0  0  0
   10.2325  -16.8396   27.4499 C   0  0  0  0  0  0  0  0  0  0  0  0
    9.8401  -17.7002   28.4443 O   0  0  0  0  0  0  0  0  0  0  0  0
   10.4983  -15.6500   27.8257 O   0  0  0  0  0  0  0  0  0  0  0  0
  2  1  1  6
  2  3  1  0
  4  3  1  0
  4  8  1  0
  5  4  2  0
  6  7  2  0
  6  2  1  0
  9 10  1  0
 10 11  2  0
 11 12  1  0
 13 12  2  0
 13 14  1  0
 15 14  1  1
 15 16  1  0
 16  6  1  0
 17 18  2  0
 17 15  1  0
 19 13  1  0
 20 10  1  0
 20 19  2  0
 22 21  1  1
 22 23  1  0
 24 22  1  0
 24 25  1  6
 25 17  1  0
 26 24  1  0
 27 26  1  0
 28 26  2  0
M  END
$$$$
