DYT.pdb
     RDKit          3D

 28 28  0  0  1  0  0  0  0  0999 V2000
   10.2595  -16.3572   18.7404 N   0  0  0  0  0  0  0  0  0  0  0  0
    9.8352  -17.3126   19.7774 C   0  0  1  0  0  0  0  0  0  0  0  0
   10.7371  -18.5009   19.7862 C   0  0  0  0  0  0  0  0  0  0  0  0
   10.5966  -19.3938   18.6350 C   0  0  0  0  0  0  0  0  0  0  0  0
    9.5308  -19.6059   18.0309 O   0  0  0  0  0  0  0  0  0  0  0  0
    9.9161  -16.5582   21.0805 C   0  0  0  0  0  0  0  0  0  0  0  0
   11.0126  -16.1986   21.5230 O   0  0  0  0  0  0  0  0  0  0  0  0
   11.7240  -20.0839   18.1410 O   0  0  0  0  0  0  0  0  0  0  0  0
    6.5444  -11.5576   27.7720 O   0  0  0  0  0  0  0  0  0  0  0  0
    6.8173  -12.2930   26.6293 C   0  0  0  0  0  0  0  0  0  0  0  0
    7.6996  -11.8340   25.6440 C   0  0  0  0  0  0  0  0  0  0  0  0
    7.9209  -12.6185   24.5378 C   0  0  0  0  0  0  0  0  0  0  0  0
    7.2960  -13.8570   24.3629 C   0  0  0  0  0  0  0  0  0  0  0  0
    7.5521  -14.6038   23.1535 C   0  0  0  0  0  0  0  0  0  0  0  0
    8.7824  -15.4295   23.0565 C   0  0  2  0  0  0  0  0  0  0  0  0
    8.7297  -16.2467   21.8234 N   0  0  0  0  0  0  0  0  0  0  0  0
    8.9603  -16.3761   24.1561 C   0  0  0  0  0  0  0  0  0  0  0  0
    8.0733  -17.2900   24.3201 O   0  0  0  0  0  0  0  0  0  0  0  0
    6.4308  -14.2789   25.3556 C   0  0  0  0  0  0  0  0  0  0  0  0
    6.1915  -13.5139   26.4728 C   0  0  0  0  0  0  0  0  0  0  0  0
   10.8612  -19.1583   24.6266 C   0  0  0  0  0  0  0  0  0  0  0  0
   11.1522  -18.4353   25.9258 C   0  0  1  0  0  0  0  0  0  0  0  0
   12.3727  -17.7693   25.7930 O   0  0  0  0  0  0  0  0  0  0  0  0
   10.0712  -17.3969   26.1719 C   0  0  2  0  0  0  0  0  0  0  0  0
   10.0174  -16.4309   25.0959 N   0  0  0  0  0  0  0  0  0  0  0  0
   10.1455  -16.8087   27.5008 C   0  0  0  0  0  0  0  0  0  0  0  0
   10.0418  -17.5351   28.6607 O   0  0  0  0  0  0  0  0  0  0  0  0
   10.3156  -15.5536   27.6516 O   0  0  0  0  0  0  0  0  0  0  0  0
  2  1  1  6
  2  3  1  0
  4  3  1  0
  4  8  1  0
  5  4  2  0
  6  7  2  0
  6  2  1  0
  9 10  1  0
 10 11  2  0
 11 12  1  0
 13 12  2  0
 13 14  1  0
 15 14  1  1
 15 16  1  0
 16  6  1  0
 17 18  2  0
 17 15  1  0
 19 13  1  0
 20 10  1  0
 20 19  2  0
 22 21  1  6
 22 23  1  0
 24 22  1  0
 24 25  1  6
 25 17  1  0
 26 24  1  0
 27 26  1  0
 28 26  2  0
M  END
$$$$
