DYT.pdb
     RDKit          3D

 28 28  0  0  1  0  0  0  0  0999 V2000
   11.0263  -18.6967   18.3798 N   0  0  0  0  0  0  0  0  0  0  0  0
   12.0328  -17.6224   18.4080 C   0  0  1  0  0  0  0  0  0  0  0  0
   11.9248  -16.7801   17.1814 C   0  0  0  0  0  0  0  0  0  0  0  0
   12.3319  -17.4391   15.9395 C   0  0  0  0  0  0  0  0  0  0  0  0
   12.9709  -18.5040   15.8810 O   0  0  0  0  0  0  0  0  0  0  0  0
   11.7330  -16.8189   19.6481 C   0  0  0  0  0  0  0  0  0  0  0  0
   12.4011  -15.8136   19.9137 O   0  0  0  0  0  0  0  0  0  0  0  0
   11.9972  -16.8610   14.6964 O   0  0  0  0  0  0  0  0  0  0  0  0
    7.2281  -12.4081   17.8193 O   0  0  0  0  0  0  0  0  0  0  0  0
    7.6555  -13.2805   18.8078 C   0  0  0  0  0  0  0  0  0  0  0  0
    8.4463  -12.8556   19.8821 C   0  0  0  0  0  0  0  0  0  0  0  0
    8.8320  -13.7783   20.8244 C   0  0  0  0  0  0  0  0  0  0  0  0
    8.4626  -15.1245   20.7468 C   0  0  0  0  0  0  0  0  0  0  0  0
    8.9411  -16.0393   21.7570 C   0  0  0  0  0  0  0  0  0  0  0  0
   10.3729  -16.4325   21.7612 C   0  0  2  0  0  0  0  0  0  0  0  0
   10.6738  -17.2047   20.5346 N   0  0  0  0  0  0  0  0  0  0  0  0
   10.7580  -17.2919   22.8792 C   0  0  0  0  0  0  0  0  0  0  0  0
   10.1908  -18.4389   22.9867 O   0  0  0  0  0  0  0  0  0  0  0  0
    7.6816  -15.5092   19.6726 C   0  0  0  0  0  0  0  0  0  0  0  0
    7.2815  -14.6065   18.7157 C   0  0  0  0  0  0  0  0  0  0  0  0
   13.9056  -19.3710   25.8573 C   0  0  0  0  0  0  0  0  0  0  0  0
   13.5801  -18.2700   24.8686 C   0  0  1  0  0  0  0  0  0  0  0  0
   13.9156  -18.7171   23.5886 O   0  0  0  0  0  0  0  0  0  0  0  0
   12.0859  -17.9986   24.8983 C   0  0  2  0  0  0  0  0  0  0  0  0
   11.7093  -17.0277   23.8935 N   0  0  0  0  0  0  0  0  0  0  0  0
   11.5930  -17.6988   26.2343 C   0  0  0  0  0  0  0  0  0  0  0  0
   11.3046  -18.6590   27.1715 O   0  0  0  0  0  0  0  0  0  0  0  0
   11.4013  -16.4935   26.6051 O   0  0  0  0  0  0  0  0  0  0  0  0
  2  1  1  6
  2  3  1  0
  4  3  1  0
  4  8  1  0
  5  4  2  0
  6  7  2  0
  6  2  1  0
  9 10  1  0
 10 11  2  0
 11 12  1  0
 13 12  2  0
 13 14  1  0
 15 14  1  1
 15 16  1  0
 16  6  1  0
 17 18  2  0
 17 15  1  0
 19 13  1  0
 20 10  1  0
 20 19  2  0
 22 21  1  1
 22 23  1  0
 24 22  1  0
 24 25  1  6
 25 17  1  0
 26 24  1  0
 27 26  1  0
 28 26  2  0
M  END
$$$$
