DYT.pdb
     RDKit          3D

 28 28  0  0  1  0  0  0  0  0999 V2000
    8.3885  -17.6809   19.6887 N   0  0  0  0  0  0  0  0  0  0  0  0
    9.6183  -16.8753   19.6052 C   0  0  1  0  0  0  0  0  0  0  0  0
    9.5489  -15.9446   18.4413 C   0  0  0  0  0  0  0  0  0  0  0  0
    9.6135  -16.5885   17.1285 C   0  0  0  0  0  0  0  0  0  0  0  0
    9.7384  -17.8120   16.9467 O   0  0  0  0  0  0  0  0  0  0  0  0
    9.6940  -16.1160   20.9056 C   0  0  0  0  0  0  0  0  0  0  0  0
   10.6540  -15.3723   21.1357 O   0  0  0  0  0  0  0  0  0  0  0  0
    9.5322  -15.8044   15.9580 O   0  0  0  0  0  0  0  0  0  0  0  0
    6.3803  -11.5271   27.7910 O   0  0  0  0  0  0  0  0  0  0  0  0
    6.6677  -12.2670   26.6549 C   0  0  0  0  0  0  0  0  0  0  0  0
    7.3574  -11.7192   25.5667 C   0  0  0  0  0  0  0  0  0  0  0  0
    7.6063  -12.5143   24.4740 C   0  0  0  0  0  0  0  0  0  0  0  0
    7.1950  -13.8491   24.4120 C   0  0  0  0  0  0  0  0  0  0  0  0
    7.4616  -14.6070   23.2117 C   0  0  0  0  0  0  0  0  0  0  0  0
    8.6822  -15.4495   23.1408 C   0  0  2  0  0  0  0  0  0  0  0  0
    8.6598  -16.2424   21.8910 N   0  0  0  0  0  0  0  0  0  0  0  0
    8.8082  -16.4193   24.2273 C   0  0  0  0  0  0  0  0  0  0  0  0
    8.2774  -16.1333   25.3610 O   0  0  0  0  0  0  0  0  0  0  0  0
    6.5164  -14.3572   25.5043 C   0  0  0  0  0  0  0  0  0  0  0  0
    6.2542  -13.5838   26.6105 C   0  0  0  0  0  0  0  0  0  0  0  0
   12.9948  -18.0195   25.4328 C   0  0  0  0  0  0  0  0  0  0  0  0
   11.8837  -17.6201   24.4834 C   0  0  1  0  0  0  0  0  0  0  0  0
   12.0577  -18.3188   23.2865 O   0  0  0  0  0  0  0  0  0  0  0  0
   10.5475  -18.0282   25.0793 C   0  0  2  0  0  0  0  0  0  0  0  0
    9.4526  -17.6793   24.1998 N   0  0  0  0  0  0  0  0  0  0  0  0
   10.3797  -17.5755   26.4520 C   0  0  0  0  0  0  0  0  0  0  0  0
   10.4397  -18.4094   27.5404 O   0  0  0  0  0  0  0  0  0  0  0  0
   10.1631  -16.3458   26.7130 O   0  0  0  0  0  0  0  0  0  0  0  0
  2  1  1  1
  2  3  1  0
  4  3  1  0
  4  8  1  0
  5  4  2  0
  6  7  2  0
  6  2  1  0
  9 10  1  0
 10 11  2  0
 11 12  1  0
 13 12  2  0
 13 14  1  0
 15 14  1  1
 15 16  1  0
 16  6  1  0
 17 18  2  0
 17 15  1  0
 19 13  1  0
 20 10  1  0
 20 19  2  0
 22 21  1  1
 22 23  1  0
 24 22  1  0
 24 25  1  6
 25 17  1  0
 26 24  1  0
 27 26  1  0
 28 26  2  0
M  END
$$$$
