DYT.pdb
     RDKit          3D

 28 28  0  0  1  0  0  0  0  0999 V2000
    9.7585  -16.6503   19.1750 N   0  0  0  0  0  0  0  0  0  0  0  0
   10.3382  -17.5113   20.2195 C   0  0  1  0  0  0  0  0  0  0  0  0
   11.7300  -17.9038   19.8525 C   0  0  0  0  0  0  0  0  0  0  0  0
   11.8888  -18.4256   18.4943 C   0  0  0  0  0  0  0  0  0  0  0  0
   10.9677  -18.9000   17.8072 O   0  0  0  0  0  0  0  0  0  0  0  0
   10.3202  -16.6857   21.4810 C   0  0  0  0  0  0  0  0  0  0  0  0
   11.3770  -16.4172   22.0629 O   0  0  0  0  0  0  0  0  0  0  0  0
   13.1596  -18.4091   17.8809 O   0  0  0  0  0  0  0  0  0  0  0  0
    6.3887  -11.7357   27.9298 O   0  0  0  0  0  0  0  0  0  0  0  0
    6.7587  -12.4269   26.7869 C   0  0  0  0  0  0  0  0  0  0  0  0
    7.7135  -11.9272   25.8933 C   0  0  0  0  0  0  0  0  0  0  0  0
    8.0296  -12.6691   24.7808 C   0  0  0  0  0  0  0  0  0  0  0  0
    7.4311  -13.9036   24.5112 C   0  0  0  0  0  0  0  0  0  0  0  0
    7.7899  -14.6040   23.3000 C   0  0  0  0  0  0  0  0  0  0  0  0
    9.0494  -15.3895   23.2612 C   0  0  2  0  0  0  0  0  0  0  0  0
    9.0844  -16.2006   22.0234 N   0  0  0  0  0  0  0  0  0  0  0  0
    9.2026  -16.3364   24.3642 C   0  0  0  0  0  0  0  0  0  0  0  0
    8.4421  -17.3709   24.3864 O   0  0  0  0  0  0  0  0  0  0  0  0
    6.4926  -14.3666   25.4149 C   0  0  0  0  0  0  0  0  0  0  0  0
    6.1578  -13.6446   26.5362 C   0  0  0  0  0  0  0  0  0  0  0  0
   11.6149  -19.1710   27.3196 C   0  0  0  0  0  0  0  0  0  0  0  0
   11.4679  -18.1685   26.1932 C   0  0  1  0  0  0  0  0  0  0  0  0
   11.2783  -18.8726   25.0018 O   0  0  0  0  0  0  0  0  0  0  0  0
   10.2347  -17.3171   26.4409 C   0  0  2  0  0  0  0  0  0  0  0  0
   10.1110  -16.2719   25.4478 N   0  0  0  0  0  0  0  0  0  0  0  0
   10.1377  -16.8505   27.8158 C   0  0  0  0  0  0  0  0  0  0  0  0
   10.0819  -15.5249   28.1667 O   0  0  0  0  0  0  0  0  0  0  0  0
   10.0988  -17.6780   28.7857 O   0  0  0  0  0  0  0  0  0  0  0  0
  2  1  1  6
  2  3  1  0
  4  3  1  0
  4  8  1  0
  5  4  2  0
  6  7  2  0
  6  2  1  0
  9 10  1  0
 10 11  2  0
 11 12  1  0
 13 12  2  0
 13 14  1  0
 15 14  1  1
 15 16  1  0
 16  6  1  0
 17 18  2  0
 17 15  1  0
 19 13  1  0
 20 10  1  0
 20 19  2  0
 22 21  1  1
 22 23  1  0
 24 22  1  0
 24 25  1  6
 25 17  1  0
 26 24  1  0
 27 26  1  0
 28 26  2  0
M  END
$$$$
