DYT.pdb
     RDKit          3D

 28 28  0  0  1  0  0  0  0  0999 V2000
   10.7731  -16.9304   17.5172 N   0  0  0  0  0  0  0  0  0  0  0  0
   10.9511  -17.8912   18.6187 C   0  0  1  0  0  0  0  0  0  0  0  0
   12.1369  -18.7592   18.3613 C   0  0  0  0  0  0  0  0  0  0  0  0
   11.9178  -19.8366   17.3950 C   0  0  0  0  0  0  0  0  0  0  0  0
   10.8794  -19.9878   16.7284 O   0  0  0  0  0  0  0  0  0  0  0  0
   11.1476  -17.0548   19.8578 C   0  0  0  0  0  0  0  0  0  0  0  0
   12.2066  -16.4420   20.0321 O   0  0  0  0  0  0  0  0  0  0  0  0
   12.9296  -20.7945   17.1715 O   0  0  0  0  0  0  0  0  0  0  0  0
    7.6918  -11.8675   17.8206 O   0  0  0  0  0  0  0  0  0  0  0  0
    8.0209  -12.7004   18.8783 C   0  0  0  0  0  0  0  0  0  0  0  0
    7.1203  -13.6423   19.3899 C   0  0  0  0  0  0  0  0  0  0  0  0
    7.5176  -14.4338   20.4405 C   0  0  0  0  0  0  0  0  0  0  0  0
    8.7881  -14.3306   21.0150 C   0  0  0  0  0  0  0  0  0  0  0  0
    9.1154  -15.1727   22.1420 C   0  0  0  0  0  0  0  0  0  0  0  0
   10.2719  -16.0989   22.0449 C   0  0  2  0  0  0  0  0  0  0  0  0
   10.1154  -16.9564   20.8485 N   0  0  0  0  0  0  0  0  0  0  0  0
   10.4075  -17.0134   23.1773 C   0  0  0  0  0  0  0  0  0  0  0  0
    9.3751  -17.6835   23.5435 O   0  0  0  0  0  0  0  0  0  0  0  0
    9.6517  -13.3898   20.4849 C   0  0  0  0  0  0  0  0  0  0  0  0
    9.2799  -12.5851   19.4338 C   0  0  0  0  0  0  0  0  0  0  0  0
   11.5710  -20.1315   23.4256 C   0  0  0  0  0  0  0  0  0  0  0  0
   12.3064  -19.5179   24.5995 C   0  0  1  0  0  0  0  0  0  0  0  0
   13.5938  -19.1754   24.1797 O   0  0  0  0  0  0  0  0  0  0  0  0
   11.5935  -18.2458   25.0249 C   0  0  2  0  0  0  0  0  0  0  0  0
   11.5635  -17.2772   23.9503 N   0  0  0  0  0  0  0  0  0  0  0  0
   12.0835  -17.7204   26.2904 C   0  0  0  0  0  0  0  0  0  0  0  0
   12.6699  -16.4870   26.4256 O   0  0  0  0  0  0  0  0  0  0  0  0
   11.9865  -18.4036   27.3632 O   0  0  0  0  0  0  0  0  0  0  0  0
  2  1  1  6
  2  3  1  0
  4  3  1  0
  4  8  1  0
  5  4  2  0
  6  7  2  0
  6  2  1  0
  9 10  1  0
 10 11  2  0
 11 12  1  0
 13 12  2  0
 13 14  1  0
 15 14  1  1
 15 16  1  0
 16  6  1  0
 17 18  2  0
 17 15  1  0
 19 13  1  0
 20 10  1  0
 20 19  2  0
 22 21  1  6
 22 23  1  0
 24 22  1  0
 24 25  1  6
 25 17  1  0
 26 24  1  0
 27 26  1  0
 28 26  2  0
M  END
$$$$
