DYT.pdb
     RDKit          3D

 28 28  0  0  1  0  0  0  0  0999 V2000
    5.9332  -18.8088   23.7561 N   0  0  0  0  0  0  0  0  0  0  0  0
    6.2035  -18.1471   22.4687 C   0  0  1  0  0  0  0  0  0  0  0  0
    4.9517  -17.5461   21.9232 C   0  0  0  0  0  0  0  0  0  0  0  0
    3.8993  -18.5059   21.5866 C   0  0  0  0  0  0  0  0  0  0  0  0
    2.9514  -18.2741   20.8163 O   0  0  0  0  0  0  0  0  0  0  0  0
    7.2318  -17.0855   22.7672 C   0  0  0  0  0  0  0  0  0  0  0  0
    7.5208  -16.2424   21.9109 O   0  0  0  0  0  0  0  0  0  0  0  0
    3.9215  -19.7983   22.1528 O   0  0  0  0  0  0  0  0  0  0  0  0
    5.3241  -11.2981   26.7327 O   0  0  0  0  0  0  0  0  0  0  0  0
    6.2120  -12.3331   26.4851 C   0  0  0  0  0  0  0  0  0  0  0  0
    7.5232  -12.0993   26.0537 C   0  0  0  0  0  0  0  0  0  0  0  0
    8.3467  -13.1760   25.8284 C   0  0  0  0  0  0  0  0  0  0  0  0
    7.9205  -14.4945   26.0150 C   0  0  0  0  0  0  0  0  0  0  0  0
    8.8352  -15.5725   25.7194 C   0  0  0  0  0  0  0  0  0  0  0  0
    8.9608  -16.0556   24.3209 C   0  0  2  0  0  0  0  0  0  0  0  0
    7.8874  -17.0360   24.0417 N   0  0  0  0  0  0  0  0  0  0  0  0
   10.2170  -16.7454   24.0328 C   0  0  0  0  0  0  0  0  0  0  0  0
   10.4487  -17.8591   24.6285 O   0  0  0  0  0  0  0  0  0  0  0  0
    6.6196  -14.6885   26.4415 C   0  0  0  0  0  0  0  0  0  0  0  0
    5.7746  -13.6291   26.6746 C   0  0  0  0  0  0  0  0  0  0  0  0
   11.3364  -17.6726   20.6517 C   0  0  0  0  0  0  0  0  0  0  0  0
   12.6200  -17.2462   21.3342 C   0  0  1  0  0  0  0  0  0  0  0  0
   12.9503  -15.9653   20.8857 O   0  0  0  0  0  0  0  0  0  0  0  0
   12.3885  -17.1772   22.8338 C   0  0  2  0  0  0  0  0  0  0  0  0
   11.2486  -16.3440   23.1506 N   0  0  0  0  0  0  0  0  0  0  0  0
   13.5955  -16.8473   23.5768 C   0  0  0  0  0  0  0  0  0  0  0  0
   14.7198  -17.6344   23.5890 O   0  0  0  0  0  0  0  0  0  0  0  0
   13.6646  -15.7794   24.2708 O   0  0  0  0  0  0  0  0  0  0  0  0
  2  1  1  1
  2  3  1  0
  4  3  1  0
  4  8  1  0
  5  4  2  0
  6  7  2  0
  6  2  1  0
  9 10  1  0
 10 11  2  0
 11 12  1  0
 13 12  2  0
 13 14  1  0
 15 14  1  1
 15 16  1  0
 16  6  1  0
 17 18  2  0
 17 15  1  0
 19 13  1  0
 20 10  1  0
 20 19  2  0
 22 21  1  6
 22 23  1  0
 24 22  1  0
 24 25  1  6
 25 17  1  0
 26 24  1  0
 27 26  1  0
 28 26  2  0
M  END
$$$$
