DYT.pdb
     RDKit          3D

 28 28  0  0  1  0  0  0  0  0999 V2000
   12.2747  -14.5276   17.8603 N   0  0  0  0  0  0  0  0  0  0  0  0
   12.6584  -15.4478   18.9439 C   0  0  1  0  0  0  0  0  0  0  0  0
   14.1430  -15.4896   19.0855 C   0  0  0  0  0  0  0  0  0  0  0  0
   14.8614  -16.0173   17.9247 C   0  0  0  0  0  0  0  0  0  0  0  0
   15.6975  -16.9364   17.9688 O   0  0  0  0  0  0  0  0  0  0  0  0
   12.0080  -14.9005   20.1893 C   0  0  0  0  0  0  0  0  0  0  0  0
   12.4508  -13.8775   20.7231 O   0  0  0  0  0  0  0  0  0  0  0  0
   14.6199  -15.4750   16.6445 O   0  0  0  0  0  0  0  0  0  0  0  0
    7.3026  -12.6677   16.7001 O   0  0  0  0  0  0  0  0  0  0  0  0
    7.6551  -13.1729   17.9416 C   0  0  0  0  0  0  0  0  0  0  0  0
    8.0115  -12.3395   19.0086 C   0  0  0  0  0  0  0  0  0  0  0  0
    8.3492  -12.9129   20.2108 C   0  0  0  0  0  0  0  0  0  0  0  0
    8.3493  -14.2976   20.4043 C   0  0  0  0  0  0  0  0  0  0  0  0
    8.7541  -14.8234   21.6872 C   0  0  0  0  0  0  0  0  0  0  0  0
   10.1994  -15.0089   21.9728 C   0  0  2  0  0  0  0  0  0  0  0  0
   10.8716  -15.5532   20.7715 N   0  0  0  0  0  0  0  0  0  0  0  0
   10.4834  -15.9530   23.0522 C   0  0  0  0  0  0  0  0  0  0  0  0
   10.0053  -15.7045   24.2177 O   0  0  0  0  0  0  0  0  0  0  0  0
    7.9922  -15.0904   19.3292 C   0  0  0  0  0  0  0  0  0  0  0  0
    7.6497  -14.5428   18.1153 C   0  0  0  0  0  0  0  0  0  0  0  0
   11.7447  -20.4185   24.7742 C   0  0  0  0  0  0  0  0  0  0  0  0
   11.8521  -19.4307   23.6304 C   0  0  1  0  0  0  0  0  0  0  0  0
   11.0232  -19.8677   22.5946 O   0  0  0  0  0  0  0  0  0  0  0  0
   11.3531  -18.0734   24.0949 C   0  0  2  0  0  0  0  0  0  0  0  0
   11.2350  -17.1507   22.9864 N   0  0  0  0  0  0  0  0  0  0  0  0
   12.1032  -17.5538   25.2284 C   0  0  0  0  0  0  0  0  0  0  0  0
   11.7251  -17.7308   26.5358 O   0  0  0  0  0  0  0  0  0  0  0  0
   13.1784  -16.8906   25.0521 O   0  0  0  0  0  0  0  0  0  0  0  0
  2  1  1  6
  2  3  1  0
  4  3  1  0
  4  8  1  0
  5  4  2  0
  6  7  2  0
  6  2  1  0
  9 10  1  0
 10 11  2  0
 11 12  1  0
 13 12  2  0
 13 14  1  0
 15 14  1  6
 15 16  1  0
 16  6  1  0
 17 18  2  0
 17 15  1  0
 19 13  1  0
 20 10  1  0
 20 19  2  0
 22 21  1  1
 22 23  1  0
 24 22  1  0
 24 25  1  6
 25 17  1  0
 26 24  1  0
 27 26  1  0
 28 26  2  0
M  END
$$$$
