DYT.pdb
     RDKit          3D

 28 28  0  0  1  0  0  0  0  0999 V2000
    9.5837  -17.2641   19.5148 N   0  0  0  0  0  0  0  0  0  0  0  0
   10.7884  -17.5273   20.3196 C   0  0  1  0  0  0  0  0  0  0  0  0
   12.0127  -17.1412   19.5594 C   0  0  0  0  0  0  0  0  0  0  0  0
   12.0483  -17.5975   18.1692 C   0  0  0  0  0  0  0  0  0  0  0  0
   12.4418  -16.9114   17.2100 O   0  0  0  0  0  0  0  0  0  0  0  0
   10.6344  -16.6908   21.5646 C   0  0  0  0  0  0  0  0  0  0  0  0
   11.6327  -16.2441   22.1403 O   0  0  0  0  0  0  0  0  0  0  0  0
   11.6149  -18.9014   17.8478 O   0  0  0  0  0  0  0  0  0  0  0  0
    6.2598  -11.8048   27.6855 O   0  0  0  0  0  0  0  0  0  0  0  0
    6.6401  -12.5599   26.5872 C   0  0  0  0  0  0  0  0  0  0  0  0
    6.0540  -13.7980   26.2983 C   0  0  0  0  0  0  0  0  0  0  0  0
    6.4828  -14.4900   25.1913 C   0  0  0  0  0  0  0  0  0  0  0  0
    7.4827  -14.0007   24.3454 C   0  0  0  0  0  0  0  0  0  0  0  0
    7.9044  -14.8067   23.2234 C   0  0  0  0  0  0  0  0  0  0  0  0
    9.1670  -15.5822   23.3201 C   0  0  2  0  0  0  0  0  0  0  0  0
    9.3353  -16.4009   22.0983 N   0  0  0  0  0  0  0  0  0  0  0  0
    9.2127  -16.5209   24.4397 C   0  0  0  0  0  0  0  0  0  0  0  0
    8.3077  -17.4293   24.5078 O   0  0  0  0  0  0  0  0  0  0  0  0
    8.0396  -12.7750   24.6608 C   0  0  0  0  0  0  0  0  0  0  0  0
    7.6291  -12.0616   25.7622 C   0  0  0  0  0  0  0  0  0  0  0  0
   10.8782  -19.3487   25.0914 C   0  0  0  0  0  0  0  0  0  0  0  0
   11.1226  -18.6305   26.4029 C   0  0  1  0  0  0  0  0  0  0  0  0
   12.3824  -18.0301   26.3456 O   0  0  0  0  0  0  0  0  0  0  0  0
   10.0840  -17.5353   26.5731 C   0  0  2  0  0  0  0  0  0  0  0  0
   10.1550  -16.5731   25.4946 N   0  0  0  0  0  0  0  0  0  0  0  0
   10.0985  -16.9453   27.9032 C   0  0  0  0  0  0  0  0  0  0  0  0
    9.8259  -17.6484   29.0499 O   0  0  0  0  0  0  0  0  0  0  0  0
   10.3740  -15.7108   28.0677 O   0  0  0  0  0  0  0  0  0  0  0  0
  2  1  1  6
  2  3  1  0
  4  3  1  0
  4  8  1  0
  5  4  2  0
  6  7  2  0
  6  2  1  0
  9 10  1  0
 10 11  2  0
 11 12  1  0
 13 12  2  0
 13 14  1  0
 15 14  1  6
 15 16  1  0
 16  6  1  0
 17 18  2  0
 17 15  1  0
 19 13  1  0
 20 10  1  0
 20 19  2  0
 22 21  1  6
 22 23  1  0
 24 22  1  0
 24 25  1  6
 25 17  1  0
 26 24  1  0
 27 26  1  0
 28 26  2  0
M  END
$$$$
