EMP.pdb
     RDKit          3D

 25 25  0  0  1  0  0  0  0  0999 V2000
   10.5253  -16.9346   20.7833 N   0  0  0  0  0  0  0  0  0  0  0  0
   11.0194  -17.4336   22.0587 C   0  0  1  0  0  0  0  0  0  0  0  0
   12.5023  -17.5542   21.9753 C   0  0  0  0  0  0  0  0  0  0  0  0
   13.1322  -16.9250   20.7848 C   0  0  0  0  0  0  0  0  0  0  0  0
   14.4244  -17.5387   20.4463 C   0  0  0  0  0  0  0  0  0  0  0  0
   14.5266  -18.6390   19.8690 O   0  0  0  0  0  0  0  0  0  0  0  0
   10.5722  -16.4410   23.0950 C   0  0  0  0  0  0  0  0  0  0  0  0
   11.4381  -15.6710   23.6111 O   0  0  0  0  0  0  0  0  0  0  0  0
   15.6390  -16.9017   20.7636 O   0  0  0  0  0  0  0  0  0  0  0  0
    6.3392  -11.7459   26.6767 C   0  0  0  0  0  0  0  0  0  0  0  0
    6.9268  -12.8327   25.3463 S   0  0  0  0  0  0  0  0  0  0  0  0
    6.8808  -14.5798   25.8916 C   0  0  0  0  0  0  0  0  0  0  0  0
    7.3521  -15.4263   24.7495 C   0  0  0  0  0  0  0  0  0  0  0  0
    8.8683  -15.5068   24.6753 C   0  0  2  0  0  0  0  0  0  0  0  0
    9.2249  -16.3395   23.5097 N   0  0  0  0  0  0  0  0  0  0  0  0
    9.4660  -16.0932   25.8896 C   0  0  0  0  0  0  0  0  0  0  0  0
    9.6956  -17.3601   25.8139 O   0  0  0  0  0  0  0  0  0  0  0  0
    9.8015  -15.4275   27.0785 N   0  0  0  0  0  0  0  0  0  0  0  0
    9.4561  -14.0413   27.3358 C   0  0  0  0  0  0  0  0  0  0  0  0
   10.6815  -13.5557   28.0766 C   0  0  0  0  0  0  0  0  0  0  0  0
   10.7759  -14.6798   29.1240 C   0  0  0  0  0  0  0  0  0  0  0  0
   10.4751  -15.9160   28.2432 C   0  0  1  0  0  0  0  0  0  0  0  0
    9.5231  -16.8131   28.9968 C   0  0  0  0  0  0  0  0  0  0  0  0
   10.0816  -17.4990   30.0747 O   0  0  0  0  0  0  0  0  0  0  0  0
    8.3406  -16.8989   28.6434 O   0  0  0  0  0  0  0  0  0  0  0  0
  2  1  1  6
  2  7  1  0
  3  2  1  0
  4  3  1  0
  5  4  1  0
  6  5  2  0
  7  8  2  0
  9  5  1  0
 11 10  1  0
 11 12  1  0
 13 12  1  0
 14 13  1  1
 14 16  1  0
 15 14  1  0
 15  7  1  0
 16 17  2  0
 18 19  1  0
 18 16  1  0
 20 21  1  0
 20 19  1  0
 22 21  1  0
 22 18  1  0
 22 23  1  1
 24 23  1  0
 25 23  2  0
M  END
$$$$
