EMP.pdb
     RDKit          3D

 25 25  0  0  1  0  0  0  0  0999 V2000
   10.4496  -16.0078   20.1920 N   0  0  0  0  0  0  0  0  0  0  0  0
    9.4632  -16.6099   21.0775 C   0  0  1  0  0  0  0  0  0  0  0  0
    9.7669  -18.0634   21.2030 C   0  0  0  0  0  0  0  0  0  0  0  0
   11.1649  -18.3971   21.5829 C   0  0  0  0  0  0  0  0  0  0  0  0
   11.3779  -19.8458   21.7131 C   0  0  0  0  0  0  0  0  0  0  0  0
   10.4958  -20.6902   21.4615 O   0  0  0  0  0  0  0  0  0  0  0  0
    9.5744  -15.8757   22.3843 C   0  0  0  0  0  0  0  0  0  0  0  0
   10.6926  -15.3678   22.7016 O   0  0  0  0  0  0  0  0  0  0  0  0
   12.6155  -20.3651   22.1376 O   0  0  0  0  0  0  0  0  0  0  0  0
    5.7101  -11.5011   27.5345 C   0  0  0  0  0  0  0  0  0  0  0  0
    5.6044  -12.9311   26.4208 S   0  0  0  0  0  0  0  0  0  0  0  0
    7.2634  -13.6664   26.1783 C   0  0  0  0  0  0  0  0  0  0  0  0
    7.2692  -14.3484   24.8448 C   0  0  0  0  0  0  0  0  0  0  0  0
    8.6227  -14.9539   24.5098 C   0  0  2  0  0  0  0  0  0  0  0  0
    8.4783  -15.7346   23.2653 N   0  0  0  0  0  0  0  0  0  0  0  0
    9.1304  -15.8357   25.5777 C   0  0  0  0  0  0  0  0  0  0  0  0
    8.9507  -17.0945   25.3619 O   0  0  0  0  0  0  0  0  0  0  0  0
    9.7723  -15.4506   26.7648 N   0  0  0  0  0  0  0  0  0  0  0  0
    9.7185  -14.0996   27.2929 C   0  0  0  0  0  0  0  0  0  0  0  0
   11.1169  -13.9333   27.8435 C   0  0  0  0  0  0  0  0  0  0  0  0
   11.1938  -15.2307   28.6683 C   0  0  0  0  0  0  0  0  0  0  0  0
   10.5402  -16.2320   27.6860 C   0  0  1  0  0  0  0  0  0  0  0  0
    9.5906  -17.1084   28.4665 C   0  0  0  0  0  0  0  0  0  0  0  0
   10.1981  -18.0296   29.3190 O   0  0  0  0  0  0  0  0  0  0  0  0
    8.3685  -16.9793   28.3243 O   0  0  0  0  0  0  0  0  0  0  0  0
  2  1  1  6
  2  7  1  0
  3  2  1  0
  4  3  1  0
  5  4  1  0
  6  5  2  0
  7  8  2  0
  9  5  1  0
 11 10  1  0
 11 12  1  0
 13 12  1  0
 14 13  1  1
 14 16  1  0
 15 14  1  0
 15  7  1  0
 16 17  2  0
 18 19  1  0
 18 16  1  0
 20 21  1  0
 20 19  1  0
 22 21  1  0
 22 18  1  0
 22 23  1  1
 24 23  1  0
 25 23  2  0
M  END
$$$$
