EMP.pdb
     RDKit          3D

 25 25  0  0  1  0  0  0  0  0999 V2000
   10.9703  -16.0229   20.3972 N   0  0  0  0  0  0  0  0  0  0  0  0
   10.0370  -16.7017   21.2847 C   0  0  1  0  0  0  0  0  0  0  0  0
   10.5107  -18.1000   21.4870 C   0  0  0  0  0  0  0  0  0  0  0  0
   11.9766  -18.2608   21.6756 C   0  0  0  0  0  0  0  0  0  0  0  0
   12.3699  -19.6696   21.8226 C   0  0  0  0  0  0  0  0  0  0  0  0
   13.5144  -20.0261   22.1654 O   0  0  0  0  0  0  0  0  0  0  0  0
   10.0176  -15.9026   22.5576 C   0  0  0  0  0  0  0  0  0  0  0  0
   11.0326  -15.1994   22.8481 O   0  0  0  0  0  0  0  0  0  0  0  0
   11.4547  -20.7109   21.5785 O   0  0  0  0  0  0  0  0  0  0  0  0
    5.5138  -11.4974   26.9409 C   0  0  0  0  0  0  0  0  0  0  0  0
    5.6195  -13.1513   26.1995 S   0  0  0  0  0  0  0  0  0  0  0  0
    7.3699  -13.6682   26.0559 C   0  0  0  0  0  0  0  0  0  0  0  0
    7.4900  -14.5391   24.8433 C   0  0  0  0  0  0  0  0  0  0  0  0
    8.9072  -15.0475   24.6334 C   0  0  2  0  0  0  0  0  0  0  0  0
    8.9101  -15.9102   23.4356 N   0  0  0  0  0  0  0  0  0  0  0  0
    9.4106  -15.8184   25.7858 C   0  0  0  0  0  0  0  0  0  0  0  0
    9.3730  -17.0981   25.6302 O   0  0  0  0  0  0  0  0  0  0  0  0
    9.9132  -15.3109   26.9938 N   0  0  0  0  0  0  0  0  0  0  0  0
    9.6845  -13.9480   27.4376 C   0  0  0  0  0  0  0  0  0  0  0  0
   11.0106  -13.6121   28.0818 C   0  0  0  0  0  0  0  0  0  0  0  0
   11.1475  -14.8521   28.9834 C   0  0  0  0  0  0  0  0  0  0  0  0
   10.6771  -15.9627   28.0140 C   0  0  1  0  0  0  0  0  0  0  0  0
    9.7581  -16.8919   28.7697 C   0  0  0  0  0  0  0  0  0  0  0  0
   10.3815  -17.6993   29.7204 O   0  0  0  0  0  0  0  0  0  0  0  0
    8.5453  -16.8986   28.5257 O   0  0  0  0  0  0  0  0  0  0  0  0
  2  1  1  6
  2  7  1  0
  3  2  1  0
  4  3  1  0
  5  4  1  0
  6  5  2  0
  7  8  2  0
  9  5  1  0
 11 10  1  0
 11 12  1  0
 13 12  1  0
 14 13  1  1
 14 16  1  0
 15 14  1  0
 15  7  1  0
 16 17  2  0
 18 19  1  0
 18 16  1  0
 20 21  1  0
 20 19  1  0
 22 21  1  0
 22 18  1  0
 22 23  1  1
 24 23  1  0
 25 23  2  0
M  END
$$$$
