EMP.pdb
     RDKit          3D

 25 25  0  0  1  0  0  0  0  0999 V2000
    9.9636  -15.7320   20.1698 N   0  0  0  0  0  0  0  0  0  0  0  0
    9.6729  -16.6296   21.2786 C   0  0  1  0  0  0  0  0  0  0  0  0
   10.6845  -17.7237   21.2774 C   0  0  0  0  0  0  0  0  0  0  0  0
   11.3843  -17.9503   19.9855 C   0  0  0  0  0  0  0  0  0  0  0  0
   12.3430  -19.0624   20.0568 C   0  0  0  0  0  0  0  0  0  0  0  0
   12.0129  -20.2572   19.9227 O   0  0  0  0  0  0  0  0  0  0  0  0
    9.7273  -15.7862   22.5216 C   0  0  0  0  0  0  0  0  0  0  0  0
   10.7235  -15.0196   22.6916 O   0  0  0  0  0  0  0  0  0  0  0  0
   13.7125  -18.8304   20.2851 O   0  0  0  0  0  0  0  0  0  0  0  0
    5.7167  -11.2905   26.4289 C   0  0  0  0  0  0  0  0  0  0  0  0
    5.7051  -13.0974   26.6059 S   0  0  0  0  0  0  0  0  0  0  0  0
    7.3944  -13.7650   26.3772 C   0  0  0  0  0  0  0  0  0  0  0  0
    7.4337  -14.4615   25.0518 C   0  0  0  0  0  0  0  0  0  0  0  0
    8.8193  -14.9886   24.7154 C   0  0  2  0  0  0  0  0  0  0  0  0
    8.7089  -15.8206   23.5010 N   0  0  0  0  0  0  0  0  0  0  0  0
    9.3994  -15.7969   25.8044 C   0  0  0  0  0  0  0  0  0  0  0  0
    9.3360  -17.0713   25.6161 O   0  0  0  0  0  0  0  0  0  0  0  0
    9.9972  -15.3291   26.9847 N   0  0  0  0  0  0  0  0  0  0  0  0
    9.8139  -13.9789   27.4851 C   0  0  0  0  0  0  0  0  0  0  0  0
   11.1881  -13.6701   28.0351 C   0  0  0  0  0  0  0  0  0  0  0  0
   11.3839  -14.9376   28.8863 C   0  0  0  0  0  0  0  0  0  0  0  0
   10.8317  -16.0157   27.9233 C   0  0  1  0  0  0  0  0  0  0  0  0
    9.9660  -16.9621   28.7195 C   0  0  0  0  0  0  0  0  0  0  0  0
    8.5950  -16.8445   28.4937 O   0  0  0  0  0  0  0  0  0  0  0  0
   10.4845  -17.7663   29.5036 O   0  0  0  0  0  0  0  0  0  0  0  0
  2  1  1  6
  2  7  1  0
  3  2  1  0
  4  3  1  0
  5  4  1  0
  6  5  2  0
  7  8  2  0
  9  5  1  0
 11 10  1  0
 11 12  1  0
 13 12  1  0
 14 13  1  1
 14 16  1  0
 15 14  1  0
 15  7  1  0
 16 17  2  0
 18 19  1  0
 18 16  1  0
 20 21  1  0
 20 19  1  0
 22 21  1  0
 22 18  1  0
 22 23  1  1
 24 23  1  0
 25 23  2  0
M  END
$$$$
