EMP.pdb
     RDKit          3D

 25 25  0  0  1  0  0  0  0  0999 V2000
    5.6159  -20.2312   23.1414 N   0  0  0  0  0  0  0  0  0  0  0  0
    6.2159  -19.5829   24.2988 C   0  0  1  0  0  0  0  0  0  0  0  0
    7.5378  -20.2182   24.5627 C   0  0  0  0  0  0  0  0  0  0  0  0
    8.3579  -20.5184   23.3596 C   0  0  0  0  0  0  0  0  0  0  0  0
    9.6325  -21.1670   23.6999 C   0  0  0  0  0  0  0  0  0  0  0  0
   10.0101  -22.2394   23.1882 O   0  0  0  0  0  0  0  0  0  0  0  0
    6.3287  -18.1259   23.9473 C   0  0  0  0  0  0  0  0  0  0  0  0
    6.0879  -17.7691   22.7541 O   0  0  0  0  0  0  0  0  0  0  0  0
   10.5111  -20.5981   24.6411 O   0  0  0  0  0  0  0  0  0  0  0  0
    6.1944  -11.1834   27.1086 C   0  0  0  0  0  0  0  0  0  0  0  0
    7.3817  -12.5541   27.0191 S   0  0  0  0  0  0  0  0  0  0  0  0
    7.2008  -13.4432   25.4290 C   0  0  0  0  0  0  0  0  0  0  0  0
    7.0855  -14.9049   25.7346 C   0  0  0  0  0  0  0  0  0  0  0  0
    6.8926  -15.7450   24.4825 C   0  0  2  0  0  0  0  0  0  0  0  0
    6.6927  -17.1468   24.8994 N   0  0  0  0  0  0  0  0  0  0  0  0
    8.0466  -15.6727   23.5666 C   0  0  0  0  0  0  0  0  0  0  0  0
    8.9613  -16.5544   23.7888 O   0  0  0  0  0  0  0  0  0  0  0  0
    8.2377  -14.7697   22.5095 N   0  0  0  0  0  0  0  0  0  0  0  0
    7.4535  -13.5588   22.3494 C   0  0  0  0  0  0  0  0  0  0  0  0
    7.2960  -13.4958   20.8469 C   0  0  0  0  0  0  0  0  0  0  0  0
    8.7726  -13.6825   20.4542 C   0  0  0  0  0  0  0  0  0  0  0  0
    9.1917  -14.7969   21.4427 C   0  0  1  0  0  0  0  0  0  0  0  0
   10.5443  -14.4410   22.0107 C   0  0  0  0  0  0  0  0  0  0  0  0
   11.6194  -14.6228   21.1415 O   0  0  0  0  0  0  0  0  0  0  0  0
   10.6392  -14.0218   23.1707 O   0  0  0  0  0  0  0  0  0  0  0  0
  2  1  1  6
  2  7  1  0
  3  2  1  0
  4  3  1  0
  5  4  1  0
  6  5  2  0
  7  8  2  0
  9  5  1  0
 11 10  1  0
 11 12  1  0
 13 12  1  0
 14 13  1  1
 14 16  1  0
 15 14  1  0
 15  7  1  0
 16 17  2  0
 18 19  1  0
 18 16  1  0
 20 21  1  0
 20 19  1  0
 22 21  1  0
 22 18  1  0
 22 23  1  1
 24 23  1  0
 25 23  2  0
M  END
$$$$
