EMP.pdb
     RDKit          3D

 25 25  0  0  1  0  0  0  0  0999 V2000
   10.7830  -16.4982   20.5070 N   0  0  0  0  0  0  0  0  0  0  0  0
    9.6140  -16.8269   21.3101 C   0  0  1  0  0  0  0  0  0  0  0  0
    9.6179  -18.2942   21.5702 C   0  0  0  0  0  0  0  0  0  0  0  0
   10.7504  -19.0496   20.9729 C   0  0  0  0  0  0  0  0  0  0  0  0
   10.6160  -20.5011   21.1629 C   0  0  0  0  0  0  0  0  0  0  0  0
   10.5804  -21.0416   22.2859 O   0  0  0  0  0  0  0  0  0  0  0  0
    9.7305  -16.0114   22.5673 C   0  0  0  0  0  0  0  0  0  0  0  0
   10.8783  -15.6045   22.9225 O   0  0  0  0  0  0  0  0  0  0  0  0
   10.5185  -21.3741   20.0630 O   0  0  0  0  0  0  0  0  0  0  0  0
    5.8389  -11.6065   27.8702 C   0  0  0  0  0  0  0  0  0  0  0  0
    5.8122  -12.7436   26.4550 S   0  0  0  0  0  0  0  0  0  0  0  0
    7.4714  -13.4744   26.2009 C   0  0  0  0  0  0  0  0  0  0  0  0
    7.4551  -14.1971   24.8891 C   0  0  0  0  0  0  0  0  0  0  0  0
    8.7757  -14.8893   24.5928 C   0  0  2  0  0  0  0  0  0  0  0  0
    8.6076  -15.6857   23.3613 N   0  0  0  0  0  0  0  0  0  0  0  0
    9.2097  -15.7774   25.6876 C   0  0  0  0  0  0  0  0  0  0  0  0
    8.9506  -17.0264   25.4971 O   0  0  0  0  0  0  0  0  0  0  0  0
    9.8591  -15.4077   26.8754 N   0  0  0  0  0  0  0  0  0  0  0  0
    9.8331  -14.0569   27.4060 C   0  0  0  0  0  0  0  0  0  0  0  0
   11.2345  -13.9204   27.9570 C   0  0  0  0  0  0  0  0  0  0  0  0
   11.2846  -15.2206   28.7794 C   0  0  0  0  0  0  0  0  0  0  0  0
   10.6106  -16.2064   27.7953 C   0  0  1  0  0  0  0  0  0  0  0  0
    9.6431  -17.0645   28.5741 C   0  0  0  0  0  0  0  0  0  0  0  0
   10.2312  -17.9839   29.4420 O   0  0  0  0  0  0  0  0  0  0  0  0
    8.4241  -16.9233   28.4176 O   0  0  0  0  0  0  0  0  0  0  0  0
  2  1  1  6
  2  7  1  0
  3  2  1  0
  4  3  1  0
  5  4  1  0
  6  5  2  0
  7  8  2  0
  9  5  1  0
 11 10  1  0
 11 12  1  0
 13 12  1  0
 14 13  1  1
 14 16  1  0
 15 14  1  0
 15  7  1  0
 16 17  2  0
 18 19  1  0
 18 16  1  0
 20 21  1  0
 20 19  1  0
 22 21  1  0
 22 18  1  0
 22 23  1  1
 24 23  1  0
 25 23  2  0
M  END
$$$$
