LAV.pdb
     RDKit          3D

 21 20  0  0  1  0  0  0  0  0999 V2000
   17.6269  -15.2583  -16.1203 C   0  0  0  0  0  0  0  0  0  0  0  0
   18.0814  -14.8185  -17.4655 C   0  0  2  0  0  0  0  0  0  0  0  0
   18.7942  -16.0053  -18.1345 C   0  0  0  0  0  0  0  0  0  0  0  0
   18.8646  -13.5800  -17.5736 C   0  0  0  0  0  0  0  0  0  0  0  0
   18.3217  -12.3333  -16.9759 C   0  0  2  0  0  0  0  0  0  0  0  0
   17.0129  -12.0697  -17.6308 N   0  0  0  0  0  0  0  0  0  0  0  0
   19.1413  -11.1324  -16.9972 C   0  0  0  0  0  0  0  0  0  0  0  0
   20.3659  -11.1801  -16.7561 O   0  0  0  0  0  0  0  0  0  0  0  0
   18.6394   -7.4060  -17.6999 C   0  0  0  0  0  0  0  0  0  0  0  0
   19.4174   -8.6330  -17.2781 C   0  0  2  0  0  0  0  0  0  0  0  0
   18.6316   -9.8261  -17.2880 N   0  0  0  0  0  0  0  0  0  0  0  0
   20.0434   -8.3866  -15.9360 C   0  0  0  0  0  0  0  0  0  0  0  0
   19.3688   -8.4931  -14.8813 O   0  0  0  0  0  0  0  0  0  0  0  0
   24.2724   -8.6357  -15.2352 C   0  0  0  0  0  0  0  0  0  0  0  0
   23.1145   -8.8939  -14.3305 C   0  0  1  0  0  0  0  0  0  0  0  0
   23.6042   -8.8792  -12.8999 C   0  0  0  0  0  0  0  0  0  0  0  0
   22.0028   -7.8813  -14.5026 C   0  0  2  0  0  0  0  0  0  0  0  0
   21.4185   -8.0243  -15.8041 N   0  0  0  0  0  0  0  0  0  0  0  0
   22.5258   -6.5070  -14.2749 C   0  0  0  0  0  0  0  0  0  0  0  0
   22.7349   -5.6230  -15.3501 O   0  0  0  0  0  0  0  0  0  0  0  0
   22.7975   -6.0894  -13.1244 O   0  0  0  0  0  0  0  0  0  0  0  0
  2  1  1  1
  3  2  1  0
  4  2  1  0
  5  4  1  0
  5  7  1  0
  5  6  1  6
  7  8  2  0
  7 11  1  0
 10  9  1  1
 10 12  1  0
 11 10  1  0
 12 18  1  0
 12 13  2  0
 15 17  1  0
 15 14  1  6
 16 15  1  0
 17 19  1  0
 17 18  1  6
 19 20  1  0
 21 19  2  0
M  END
$$$$
