LAV.pdb
     RDKit          3D

 21 20  0  0  1  0  0  0  0  0999 V2000
   19.0990  -15.7621  -18.9567 C   0  0  0  0  0  0  0  0  0  0  0  0
   20.5732  -15.5756  -18.9906 C   0  0  2  0  0  0  0  0  0  0  0  0
   21.2237  -16.8529  -18.4345 C   0  0  0  0  0  0  0  0  0  0  0  0
   21.1435  -14.3644  -18.3848 C   0  0  0  0  0  0  0  0  0  0  0  0
   20.5937  -13.0406  -18.7738 C   0  0  2  0  0  0  0  0  0  0  0  0
   20.7461  -12.9212  -20.2482 N   0  0  0  0  0  0  0  0  0  0  0  0
   21.1106  -11.8487  -18.1205 C   0  0  0  0  0  0  0  0  0  0  0  0
   21.2703  -11.8068  -16.8825 O   0  0  0  0  0  0  0  0  0  0  0  0
   22.4300   -8.4200  -19.1766 C   0  0  0  0  0  0  0  0  0  0  0  0
   21.9697   -9.4697  -18.1893 C   0  0  2  0  0  0  0  0  0  0  0  0
   21.4720  -10.6517  -18.8188 N   0  0  0  0  0  0  0  0  0  0  0  0
   20.9603   -8.8652  -17.2568 C   0  0  0  0  0  0  0  0  0  0  0  0
   19.7583   -8.7413  -17.6012 O   0  0  0  0  0  0  0  0  0  0  0  0
   19.6755  -10.0261  -14.1633 C   0  0  0  0  0  0  0  0  0  0  0  0
   20.1521   -8.6456  -13.8588 C   0  0  1  0  0  0  0  0  0  0  0  0
   21.4594   -8.7391  -13.1046 C   0  0  0  0  0  0  0  0  0  0  0  0
   20.3370   -7.8047  -15.1037 C   0  0  2  0  0  0  0  0  0  0  0  0
   21.3215   -8.4105  -15.9521 N   0  0  0  0  0  0  0  0  0  0  0  0
   20.7061   -6.4130  -14.7280 C   0  0  0  0  0  0  0  0  0  0  0  0
   21.9872   -5.9017  -15.0077 O   0  0  0  0  0  0  0  0  0  0  0  0
   19.8943   -5.6503  -14.1525 O   0  0  0  0  0  0  0  0  0  0  0  0
  2  1  1  1
  3  2  1  0
  4  2  1  0
  5  4  1  0
  5  7  1  0
  5  6  1  6
  7  8  2  0
  7 11  1  0
 10  9  1  6
 10 12  1  0
 11 10  1  0
 12 18  1  0
 12 13  2  0
 15 17  1  0
 15 14  1  6
 16 15  1  0
 17 19  1  0
 17 18  1  6
 19 20  1  0
 21 19  2  0
M  END
$$$$
