LAV.pdb
     RDKit          3D

 21 20  0  0  1  0  0  0  0  0999 V2000
   29.4668  -21.7883  -16.8636 C   0  0  0  0  0  0  0  0  0  0  0  0
   28.4995  -22.5945  -17.6534 C   0  0  2  0  0  0  0  0  0  0  0  0
   28.5792  -22.1278  -19.1162 C   0  0  0  0  0  0  0  0  0  0  0  0
   27.1100  -22.6847  -17.1841 C   0  0  0  0  0  0  0  0  0  0  0  0
   26.8406  -23.2774  -15.8491 C   0  0  2  0  0  0  0  0  0  0  0  0
   27.2060  -24.7167  -15.9292 N   0  0  0  0  0  0  0  0  0  0  0  0
   25.5135  -23.1308  -15.2731 C   0  0  0  0  0  0  0  0  0  0  0  0
   24.5845  -23.9063  -15.5821 O   0  0  0  0  0  0  0  0  0  0  0  0
   23.8231  -20.8962  -12.6706 C   0  0  0  0  0  0  0  0  0  0  0  0
   23.8774  -21.9839  -13.7207 C   0  0  2  0  0  0  0  0  0  0  0  0
   25.1642  -22.1134  -14.3277 N   0  0  0  0  0  0  0  0  0  0  0  0
   22.8002  -21.7452  -14.7387 C   0  0  0  0  0  0  0  0  0  0  0  0
   23.0327  -21.0794  -15.7785 O   0  0  0  0  0  0  0  0  0  0  0  0
   18.8431  -23.1125  -17.0919 C   0  0  0  0  0  0  0  0  0  0  0  0
   19.9001  -23.3068  -16.0572 C   0  0  1  0  0  0  0  0  0  0  0  0
   21.0037  -24.1573  -16.6448 C   0  0  0  0  0  0  0  0  0  0  0  0
   20.4725  -21.9985  -15.5555 C   0  0  2  0  0  0  0  0  0  0  0  0
   21.4791  -22.2604  -14.5685 N   0  0  0  0  0  0  0  0  0  0  0  0
   19.3827  -21.1360  -15.0242 C   0  0  0  0  0  0  0  0  0  0  0  0
   18.7485  -20.1821  -15.8421 O   0  0  0  0  0  0  0  0  0  0  0  0
   18.9923  -21.2273  -13.8363 O   0  0  0  0  0  0  0  0  0  0  0  0
  2  1  1  1
  3  2  1  0
  4  2  1  0
  5  4  1  0
  5  7  1  0
  5  6  1  6
  7  8  2  0
  7 11  1  0
 10  9  1  1
 10 12  1  0
 11 10  1  0
 12 18  1  0
 12 13  2  0
 15 17  1  0
 15 14  1  6
 16 15  1  0
 17 19  1  0
 17 18  1  1
 19 20  1  0
 21 19  2  0
M  END
$$$$
