LAV.pdb
     RDKit          3D

 21 20  0  0  1  0  0  0  0  0999 V2000
   17.1771  -15.7072    1.2436 C   0  0  0  0  0  0  0  0  0  0  0  0
   18.1190  -14.9532    2.1117 C   0  0  2  0  0  0  0  0  0  0  0  0
   19.4655  -14.8568    1.3757 C   0  0  0  0  0  0  0  0  0  0  0  0
   18.2888  -15.3836    3.5063 C   0  0  0  0  0  0  0  0  0  0  0  0
   17.0942  -15.4537    4.3860 C   0  0  2  0  0  0  0  0  0  0  0  0
   16.8136  -14.0696    4.8517 N   0  0  0  0  0  0  0  0  0  0  0  0
   17.1107  -16.3671    5.5173 C   0  0  0  0  0  0  0  0  0  0  0  0
   17.8433  -16.1584    6.5072 O   0  0  0  0  0  0  0  0  0  0  0  0
   15.1763  -19.3566    6.8130 C   0  0  0  0  0  0  0  0  0  0  0  0
   16.4381  -18.5460    6.6138 C   0  0  2  0  0  0  0  0  0  0  0  0
   16.3115  -17.5530    5.5945 N   0  0  0  0  0  0  0  0  0  0  0  0
   17.5880  -19.4745    6.3505 C   0  0  0  0  0  0  0  0  0  0  0  0
   17.9333  -19.7552    5.1755 O   0  0  0  0  0  0  0  0  0  0  0  0
   21.7988  -21.4592    7.6892 C   0  0  0  0  0  0  0  0  0  0  0  0
   20.6516  -20.5233    7.8731 C   0  0  1  0  0  0  0  0  0  0  0  0
   21.0690  -19.1468    7.4067 C   0  0  0  0  0  0  0  0  0  0  0  0
   19.4127  -20.9650    7.1240 C   0  0  2  0  0  0  0  0  0  0  0  0
   18.3299  -20.0713    7.4150 N   0  0  0  0  0  0  0  0  0  0  0  0
   19.0816  -22.3731    7.4726 C   0  0  0  0  0  0  0  0  0  0  0  0
   19.5387  -23.4431    6.6806 O   0  0  0  0  0  0  0  0  0  0  0  0
   18.3880  -22.6556    8.4780 O   0  0  0  0  0  0  0  0  0  0  0  0
  2  1  1  6
  3  2  1  0
  4  2  1  0
  5  4  1  0
  5  7  1  0
  5  6  1  1
  7  8  2  0
  7 11  1  0
 10  9  1  6
 10 12  1  0
 11 10  1  0
 12 18  1  0
 12 13  2  0
 15 17  1  0
 15 14  1  6
 16 15  1  0
 17 19  1  0
 17 18  1  1
 19 20  1  0
 21 19  2  0
M  END
$$$$
