LAV.pdb
     RDKit          3D

 21 20  0  0  1  0  0  0  0  0999 V2000
   19.6778  -14.8055  -20.6543 C   0  0  0  0  0  0  0  0  0  0  0  0
   18.5102  -14.4732  -19.7966 C   0  0  2  0  0  0  0  0  0  0  0  0
   17.3680  -14.0064  -20.7139 C   0  0  0  0  0  0  0  0  0  0  0  0
   18.7073  -13.5600  -18.6624 C   0  0  0  0  0  0  0  0  0  0  0  0
   19.7941  -13.8462  -17.6913 C   0  0  2  0  0  0  0  0  0  0  0  0
   19.4425  -15.1181  -17.0057 N   0  0  0  0  0  0  0  0  0  0  0  0
   20.1420  -12.8304  -16.7108 C   0  0  0  0  0  0  0  0  0  0  0  0
   19.2836  -12.3569  -15.9369 O   0  0  0  0  0  0  0  0  0  0  0  0
   23.3041  -11.2553  -15.3075 C   0  0  0  0  0  0  0  0  0  0  0  0
   21.8187  -11.3024  -15.5900 C   0  0  2  0  0  0  0  0  0  0  0  0
   21.4618  -12.2981  -16.5503 N   0  0  0  0  0  0  0  0  0  0  0  0
   21.3477   -9.9367  -15.9987 C   0  0  0  0  0  0  0  0  0  0  0  0
   21.4422   -9.5530  -17.1914 O   0  0  0  0  0  0  0  0  0  0  0  0
   18.3826   -6.1881  -15.5445 C   0  0  0  0  0  0  0  0  0  0  0  0
   18.8735   -7.5605  -15.2263 C   0  0  1  0  0  0  0  0  0  0  0  0
   18.0977   -8.5579  -16.0569 C   0  0  0  0  0  0  0  0  0  0  0  0
   20.3565   -7.7232  -15.4820 C   0  0  2  0  0  0  0  0  0  0  0  0
   20.7781   -9.0262  -15.0574 N   0  0  0  0  0  0  0  0  0  0  0  0
   21.1134   -6.6417  -14.7954 C   0  0  0  0  0  0  0  0  0  0  0  0
   21.4205   -5.4383  -15.4576 O   0  0  0  0  0  0  0  0  0  0  0  0
   21.5027   -6.7626  -13.6098 O   0  0  0  0  0  0  0  0  0  0  0  0
  2  1  1  6
  3  2  1  0
  4  2  1  0
  5  4  1  0
  5  7  1  0
  5  6  1  1
  7  8  2  0
  7 11  1  0
 10  9  1  6
 10 12  1  0
 11 10  1  0
 12 18  1  0
 12 13  2  0
 15 17  1  0
 15 14  1  6
 16 15  1  0
 17 19  1  0
 17 18  1  1
 19 20  1  0
 21 19  2  0
M  END
$$$$
