LAV.pdb
     RDKit          3D

 21 20  0  0  1  0  0  0  0  0999 V2000
   14.0827  -12.8168  -16.9328 C   0  0  0  0  0  0  0  0  0  0  0  0
   15.4000  -13.2641  -17.4562 C   0  0  2  0  0  0  0  0  0  0  0  0
   15.1542  -14.4517  -18.4013 C   0  0  0  0  0  0  0  0  0  0  0  0
   16.4799  -13.5423  -16.4993 C   0  0  0  0  0  0  0  0  0  0  0  0
   17.8512  -13.7849  -17.0157 C   0  0  2  0  0  0  0  0  0  0  0  0
   18.2050  -15.1877  -16.6718 N   0  0  0  0  0  0  0  0  0  0  0  0
   18.9207  -12.8869  -16.6105 C   0  0  0  0  0  0  0  0  0  0  0  0
   19.2679  -12.7919  -15.4144 O   0  0  0  0  0  0  0  0  0  0  0  0
   21.5379  -10.6762  -18.2679 C   0  0  0  0  0  0  0  0  0  0  0  0
   20.6409  -11.1048  -17.1275 C   0  0  2  0  0  0  0  0  0  0  0  0
   19.6497  -12.0556  -17.5206 N   0  0  0  0  0  0  0  0  0  0  0  0
   20.0297   -9.8893  -16.4930 C   0  0  0  0  0  0  0  0  0  0  0  0
   18.9504   -9.4116  -16.9239 O   0  0  0  0  0  0  0  0  0  0  0  0
   18.6098   -9.3025  -13.3004 C   0  0  0  0  0  0  0  0  0  0  0  0
   19.6445   -8.2357  -13.4315 C   0  0  1  0  0  0  0  0  0  0  0  0
   20.8383   -8.6111  -12.5827 C   0  0  0  0  0  0  0  0  0  0  0  0
   20.0814   -8.0199  -14.8645 C   0  0  2  0  0  0  0  0  0  0  0  0
   20.6442   -9.2321  -15.3840 N   0  0  0  0  0  0  0  0  0  0  0  0
   21.0397   -6.8841  -14.9393 C   0  0  0  0  0  0  0  0  0  0  0  0
   20.5959   -5.5526  -14.8344 O   0  0  0  0  0  0  0  0  0  0  0  0
   22.2693   -7.0710  -15.0974 O   0  0  0  0  0  0  0  0  0  0  0  0
  2  1  1  1
  3  2  1  0
  4  2  1  0
  5  4  1  0
  5  7  1  0
  5  6  1  1
  7  8  2  0
  7 11  1  0
 10  9  1  6
 10 12  1  0
 11 10  1  0
 12 18  1  0
 12 13  2  0
 15 17  1  0
 15 14  1  6
 16 15  1  0
 17 19  1  0
 17 18  1  1
 19 20  1  0
 21 19  2  0
M  END
$$$$
