LAV.pdb
     RDKit          3D

 21 20  0  0  1  0  0  0  0  0999 V2000
   19.0528  -17.3830  -13.5718 C   0  0  0  0  0  0  0  0  0  0  0  0
   19.9708  -17.1331  -14.7139 C   0  0  2  0  0  0  0  0  0  0  0  0
   21.3711  -17.6232  -14.3103 C   0  0  0  0  0  0  0  0  0  0  0  0
   20.0120  -15.7873  -15.3023 C   0  0  0  0  0  0  0  0  0  0  0  0
   18.7474  -15.1766  -15.7858 C   0  0  2  0  0  0  0  0  0  0  0  0
   18.2593  -16.0175  -16.9110 N   0  0  0  0  0  0  0  0  0  0  0  0
   18.7507  -13.7755  -16.1748 C   0  0  0  0  0  0  0  0  0  0  0  0
   19.5515  -13.3432  -17.0303 O   0  0  0  0  0  0  0  0  0  0  0  0
   16.4943  -10.7605  -15.7530 C   0  0  0  0  0  0  0  0  0  0  0  0
   17.8246  -11.4252  -16.0304 C   0  0  2  0  0  0  0  0  0  0  0  0
   17.8617  -12.7953  -15.6272 N   0  0  0  0  0  0  0  0  0  0  0  0
   18.9223  -10.6243  -15.3920 C   0  0  0  0  0  0  0  0  0  0  0  0
   19.3310  -10.8986  -14.2360 O   0  0  0  0  0  0  0  0  0  0  0  0
   22.7002   -7.5197  -15.8959 C   0  0  0  0  0  0  0  0  0  0  0  0
   21.5761   -8.3067  -16.4811 C   0  0  1  0  0  0  0  0  0  0  0  0
   22.1504   -9.4810  -17.2413 C   0  0  0  0  0  0  0  0  0  0  0  0
   20.6023   -8.8009  -15.4329 C   0  0  2  0  0  0  0  0  0  0  0  0
   19.5412   -9.5280  -16.0663 N   0  0  0  0  0  0  0  0  0  0  0  0
   20.0919   -7.6557  -14.6317 C   0  0  0  0  0  0  0  0  0  0  0  0
   18.8309   -7.0897  -14.8970 O   0  0  0  0  0  0  0  0  0  0  0  0
   20.7624   -7.1568  -13.6972 O   0  0  0  0  0  0  0  0  0  0  0  0
  2  1  1  1
  3  2  1  0
  4  2  1  0
  5  4  1  0
  5  7  1  0
  5  6  1  6
  7  8  2  0
  7 11  1  0
 10  9  1  1
 10 12  1  0
 11 10  1  0
 12 18  1  0
 12 13  2  0
 15 17  1  0
 15 14  1  1
 16 15  1  0
 17 19  1  0
 17 18  1  6
 19 20  1  0
 21 19  2  0
M  END
$$$$
