LAV.pdb
     RDKit          3D

 21 20  0  0  1  0  0  0  0  0999 V2000
   28.1111  -18.2646   -5.8263 C   0  0  0  0  0  0  0  0  0  0  0  0
   27.8294  -19.7103   -5.6261 C   0  0  2  0  0  0  0  0  0  0  0  0
   28.9570  -20.2956   -4.7601 C   0  0  0  0  0  0  0  0  0  0  0  0
   27.5576  -20.5443   -6.8050 C   0  0  0  0  0  0  0  0  0  0  0  0
   26.5648  -20.0726   -7.8040 C   0  0  2  0  0  0  0  0  0  0  0  0
   25.2224  -20.4801   -7.3106 N   0  0  0  0  0  0  0  0  0  0  0  0
   26.7274  -20.4693   -9.1934 C   0  0  0  0  0  0  0  0  0  0  0  0
   27.8434  -20.4255   -9.7527 O   0  0  0  0  0  0  0  0  0  0  0  0
   24.8197  -22.3528  -11.8401 C   0  0  0  0  0  0  0  0  0  0  0  0
   25.7884  -21.2775  -11.3996 C   0  0  2  0  0  0  0  0  0  0  0  0
   25.6534  -20.9321  -10.0199 N   0  0  0  0  0  0  0  0  0  0  0  0
   25.6406  -20.0801  -12.2931 C   0  0  0  0  0  0  0  0  0  0  0  0
   24.9042  -19.1171  -11.9629 O   0  0  0  0  0  0  0  0  0  0  0  0
   27.5662  -17.3201  -15.8577 C   0  0  0  0  0  0  0  0  0  0  0  0
   27.4982  -18.6340  -15.1543 C   0  0  1  0  0  0  0  0  0  0  0  0
   28.7202  -18.7773  -14.2752 C   0  0  0  0  0  0  0  0  0  0  0  0
   26.2449  -18.7842  -14.3191 C   0  0  2  0  0  0  0  0  0  0  0  0
   26.3246  -19.9874  -13.5433 N   0  0  0  0  0  0  0  0  0  0  0  0
   25.0430  -18.7656  -15.1961 C   0  0  0  0  0  0  0  0  0  0  0  0
   24.3656  -17.5632  -15.4728 O   0  0  0  0  0  0  0  0  0  0  0  0
   24.5932  -19.8135  -15.7170 O   0  0  0  0  0  0  0  0  0  0  0  0
  2  1  1  6
  3  2  1  0
  4  2  1  0
  5  4  1  0
  5  7  1  0
  5  6  1  1
  7  8  2  0
  7 11  1  0
 10  9  1  6
 10 12  1  0
 11 10  1  0
 12 18  1  0
 12 13  2  0
 15 17  1  0
 15 14  1  1
 16 15  1  0
 17 19  1  0
 17 18  1  6
 19 20  1  0
 21 19  2  0
M  END
$$$$
