MQE.pdb
     RDKit          3D

 27 26  0  0  1  0  0  0  0  0999 V2000
    5.8122  -11.3040   27.5575 C   0  0  0  0  0  0  0  0  0  0  0  0
    6.7078  -12.5461   26.5511 S   0  0  0  0  0  0  0  0  0  0  0  0
    6.7991  -14.0785   27.5243 C   0  0  0  0  0  0  0  0  0  0  0  0
    7.5401  -15.0918   26.7070 C   0  0  0  0  0  0  0  0  0  0  0  0
    6.7045  -15.6659   25.5863 C   0  0  2  0  0  0  0  0  0  0  0  0
    6.0368  -16.8722   25.9781 N   0  0  0  0  0  0  0  0  0  0  0  0
    7.4694  -15.9061   24.3448 C   0  0  0  0  0  0  0  0  0  0  0  0
    8.0753  -16.9924   24.2020 O   0  0  0  0  0  0  0  0  0  0  0  0
    6.7036  -13.9173   18.9096 N   0  0  0  0  0  0  0  0  0  0  0  0
    8.1107  -13.9723   18.7710 C   0  0  0  0  0  0  0  0  0  0  0  0
    8.6271  -13.9871   17.6377 O   0  0  0  0  0  0  0  0  0  0  0  0
    8.9772  -14.0123   19.9616 C   0  0  0  0  0  0  0  0  0  0  0  0
    8.1285  -14.0299   21.1830 C   0  0  0  0  0  0  0  0  0  0  0  0
    8.4381  -15.1433   22.1489 C   0  0  2  0  0  0  0  0  0  0  0  0
    7.5586  -14.9615   23.2868 N   0  0  0  0  0  0  0  0  0  0  0  0
    9.8246  -15.1643   22.6122 C   0  0  0  0  0  0  0  0  0  0  0  0
   10.3527  -14.2180   23.2554 O   0  0  0  0  0  0  0  0  0  0  0  0
   10.6412  -16.2908   22.3398 N   0  0  0  0  0  0  0  0  0  0  0  0
   12.0083  -16.3247   22.8256 C   0  0  1  0  0  0  0  0  0  0  0  0
   12.3167  -17.7322   23.2518 C   0  0  0  0  0  0  0  0  0  0  0  0
   11.4096  -18.1312   24.3786 C   0  0  0  0  0  0  0  0  0  0  0  0
   11.6647  -19.5378   24.7858 C   0  0  0  0  0  0  0  0  0  0  0  0
   12.5990  -19.8697   25.5555 O   0  0  0  0  0  0  0  0  0  0  0  0
   12.8988  -15.9319   21.7071 C   0  0  0  0  0  0  0  0  0  0  0  0
   14.2428  -15.6771   21.9592 O   0  0  0  0  0  0  0  0  0  0  0  0
   10.8301  -20.5228   24.2902 O   0  0  0  0  0  0  0  0  0  0  0  0
   12.4604  -15.8272   20.5476 O   0  0  0  0  0  0  0  0  0  0  0  0
  1  2  1  0
  3  2  1  0
  4  3  1  0
  5  6  1  1
  5  4  1  0
  7  8  2  0
  7  5  1  0
  9 10  1  0
 10 12  1  0
 11 10  2  0
 13 12  1  0
 14 15  1  0
 14 13  1  6
 15  7  1  0
 16 14  1  0
 17 16  2  0
 18 16  1  0
 19 18  1  0
 20 21  1  0
 19 20  1  6
 22 21  1  0
 22 23  2  0
 24 25  1  0
 24 19  1  0
 26 22  1  0
 27 24  2  0
M  END
$$$$
