MQE.pdb
     RDKit          3D

 27 26  0  0  1  0  0  0  0  0999 V2000
    6.5708  -10.8127   26.9714 C   0  0  0  0  0  0  0  0  0  0  0  0
    7.1319  -12.4965   26.5153 S   0  0  0  0  0  0  0  0  0  0  0  0
    5.9954  -13.1284   25.2453 C   0  0  0  0  0  0  0  0  0  0  0  0
    6.3287  -14.5706   25.0150 C   0  0  0  0  0  0  0  0  0  0  0  0
    7.7142  -14.7684   24.4448 C   0  0  2  0  0  0  0  0  0  0  0  0
    7.9722  -13.8882   23.3434 N   0  0  0  0  0  0  0  0  0  0  0  0
    7.9901  -16.1621   24.0380 C   0  0  0  0  0  0  0  0  0  0  0  0
    7.5838  -17.1004   24.7604 O   0  0  0  0  0  0  0  0  0  0  0  0
    7.3689  -20.9500   19.5410 N   0  0  0  0  0  0  0  0  0  0  0  0
    8.0751  -19.7279   19.4408 C   0  0  0  0  0  0  0  0  0  0  0  0
    7.8629  -18.9599   18.4836 O   0  0  0  0  0  0  0  0  0  0  0  0
    9.0658  -19.3520   20.4642 C   0  0  0  0  0  0  0  0  0  0  0  0
    8.6919  -18.0347   21.0453 C   0  0  0  0  0  0  0  0  0  0  0  0
    9.0210  -17.8749   22.5063 C   0  0  2  0  0  0  0  0  0  0  0  0
    8.7006  -16.5050   22.8558 N   0  0  0  0  0  0  0  0  0  0  0  0
   10.4204  -18.1400   22.8362 C   0  0  0  0  0  0  0  0  0  0  0  0
   11.3251  -18.2573   21.9669 O   0  0  0  0  0  0  0  0  0  0  0  0
   10.8104  -18.2772   24.1924 N   0  0  0  0  0  0  0  0  0  0  0  0
   12.2162  -18.4063   24.5288 C   0  0  1  0  0  0  0  0  0  0  0  0
   12.9024  -17.1198   24.1654 C   0  0  0  0  0  0  0  0  0  0  0  0
   14.3310  -17.1602   24.6229 C   0  0  0  0  0  0  0  0  0  0  0  0
   15.2000  -16.3821   23.7016 C   0  0  0  0  0  0  0  0  0  0  0  0
   16.1231  -16.9014   23.0280 O   0  0  0  0  0  0  0  0  0  0  0  0
   12.3156  -18.6333   25.9906 C   0  0  0  0  0  0  0  0  0  0  0  0
   11.5201  -17.8880   26.8547 O   0  0  0  0  0  0  0  0  0  0  0  0
   14.9762  -15.0224   23.5853 O   0  0  0  0  0  0  0  0  0  0  0  0
   13.0999  -19.4804   26.4540 O   0  0  0  0  0  0  0  0  0  0  0  0
  1  2  1  0
  3  2  1  0
  4  3  1  0
  5  6  1  6
  5  4  1  0
  7  8  2  0
  7  5  1  0
  9 10  1  0
 10 12  1  0
 11 10  2  0
 13 12  1  0
 14 15  1  0
 14 13  1  6
 15  7  1  0
 16 14  1  0
 17 16  2  0
 18 16  1  0
 19 18  1  0
 20 21  1  0
 19 20  1  1
 22 21  1  0
 22 23  2  0
 24 25  1  0
 24 19  1  0
 26 22  1  0
 27 24  2  0
M  END
$$$$
