MQE.pdb
     RDKit          3D

 27 26  0  0  1  0  0  0  0  0999 V2000
    8.3776  -11.6222   26.2463 C   0  0  0  0  0  0  0  0  0  0  0  0
    6.6439  -12.1072   26.5887 S   0  0  0  0  0  0  0  0  0  0  0  0
    6.1623  -13.3392   25.3421 C   0  0  0  0  0  0  0  0  0  0  0  0
    7.2798  -14.3302   25.2279 C   0  0  0  0  0  0  0  0  0  0  0  0
    7.0335  -15.3713   24.1606 C   0  0  2  0  0  0  0  0  0  0  0  0
    5.8396  -16.1241   24.4100 N   0  0  0  0  0  0  0  0  0  0  0  0
    8.1693  -16.2969   23.9675 C   0  0  0  0  0  0  0  0  0  0  0  0
    8.1853  -17.3817   24.5923 O   0  0  0  0  0  0  0  0  0  0  0  0
   12.4481  -16.7576   19.3344 N   0  0  0  0  0  0  0  0  0  0  0  0
   11.0581  -16.9898   19.2075 C   0  0  0  0  0  0  0  0  0  0  0  0
   10.5700  -17.2701   18.0966 O   0  0  0  0  0  0  0  0  0  0  0  0
   10.1761  -16.9027   20.3842 C   0  0  0  0  0  0  0  0  0  0  0  0
   10.9948  -16.5915   21.5864 C   0  0  0  0  0  0  0  0  0  0  0  0
   10.3516  -16.9575   22.8982 C   0  0  2  0  0  0  0  0  0  0  0  0
    9.2614  -16.0237   23.1001 N   0  0  0  0  0  0  0  0  0  0  0  0
   11.2560  -16.8952   24.0452 C   0  0  0  0  0  0  0  0  0  0  0  0
   11.8838  -15.8533   24.3745 O   0  0  0  0  0  0  0  0  0  0  0  0
   11.4581  -18.0475   24.8462 N   0  0  0  0  0  0  0  0  0  0  0  0
   12.2368  -17.9495   26.0669 C   0  0  1  0  0  0  0  0  0  0  0  0
   11.6469  -18.8967   27.0732 C   0  0  0  0  0  0  0  0  0  0  0  0
   12.5273  -18.9601   28.2868 C   0  0  0  0  0  0  0  0  0  0  0  0
   12.0555  -20.0130   29.2239 C   0  0  0  0  0  0  0  0  0  0  0  0
   10.8888  -20.0468   29.6855 O   0  0  0  0  0  0  0  0  0  0  0  0
   13.6285  -18.3529   25.7527 C   0  0  0  0  0  0  0  0  0  0  0  0
   14.6682  -17.9157   26.5667 O   0  0  0  0  0  0  0  0  0  0  0  0
   12.9485  -20.9992   29.6013 O   0  0  0  0  0  0  0  0  0  0  0  0
   13.8784  -19.0763   24.7720 O   0  0  0  0  0  0  0  0  0  0  0  0
  1  2  1  0
  3  2  1  0
  4  3  1  0
  5  6  1  1
  5  4  1  0
  7  8  2  0
  7  5  1  0
  9 10  1  0
 10 12  1  0
 11 10  2  0
 13 12  1  0
 14 15  1  0
 14 13  1  6
 15  7  1  0
 16 14  1  0
 17 16  2  0
 18 16  1  0
 19 18  1  0
 20 21  1  0
 19 20  1  1
 22 21  1  0
 22 23  2  0
 24 25  1  0
 24 19  1  0
 26 22  1  0
 27 24  2  0
M  END
$$$$
