MQE.pdb
     RDKit          3D

 27 26  0  0  1  0  0  0  0  0999 V2000
    8.3598  -11.5850   19.8514 C   0  0  0  0  0  0  0  0  0  0  0  0
    7.3316  -13.0956   19.9892 S   0  0  0  0  0  0  0  0  0  0  0  0
    8.3434  -14.5005   19.4358 C   0  0  0  0  0  0  0  0  0  0  0  0
    8.7408  -14.2419   18.0148 C   0  0  0  0  0  0  0  0  0  0  0  0
    9.6540  -15.3094   17.4577 C   0  0  2  0  0  0  0  0  0  0  0  0
    8.9858  -16.5701   17.3216 N   0  0  0  0  0  0  0  0  0  0  0  0
   10.8945  -15.4903   18.2403 C   0  0  0  0  0  0  0  0  0  0  0  0
   11.0993  -16.5836   18.8150 O   0  0  0  0  0  0  0  0  0  0  0  0
   16.9293  -15.3290   18.7172 N   0  0  0  0  0  0  0  0  0  0  0  0
   16.4414  -14.1670   18.0737 C   0  0  0  0  0  0  0  0  0  0  0  0
   17.1446  -13.1405   18.0195 O   0  0  0  0  0  0  0  0  0  0  0  0
   15.1009  -14.1588   17.4629 C   0  0  0  0  0  0  0  0  0  0  0  0
   14.1117  -13.6738   18.4624 C   0  0  0  0  0  0  0  0  0  0  0  0
   13.1767  -14.7314   18.9873 C   0  0  2  0  0  0  0  0  0  0  0  0
   11.8843  -14.4802   18.3806 N   0  0  0  0  0  0  0  0  0  0  0  0
   13.0321  -14.7326   20.4421 C   0  0  0  0  0  0  0  0  0  0  0  0
   12.1349  -14.0878   21.0480 O   0  0  0  0  0  0  0  0  0  0  0  0
   13.9306  -15.4866   21.2385 N   0  0  0  0  0  0  0  0  0  0  0  0
   13.6393  -15.7058   22.6432 C   0  0  1  0  0  0  0  0  0  0  0  0
   12.6242  -16.8093   22.7421 C   0  0  0  0  0  0  0  0  0  0  0  0
   12.4422  -17.2038   24.1784 C   0  0  0  0  0  0  0  0  0  0  0  0
   11.4063  -18.2622   24.3055 C   0  0  0  0  0  0  0  0  0  0  0  0
   11.4253  -19.3236   23.6357 O   0  0  0  0  0  0  0  0  0  0  0  0
   14.8974  -16.1192   23.3100 C   0  0  0  0  0  0  0  0  0  0  0  0
   15.0464  -15.9149   24.6778 O   0  0  0  0  0  0  0  0  0  0  0  0
   10.3756  -18.0624   25.2055 O   0  0  0  0  0  0  0  0  0  0  0  0
   15.8204  -16.6458   22.6632 O   0  0  0  0  0  0  0  0  0  0  0  0
  1  2  1  0
  3  2  1  0
  4  3  1  0
  5  6  1  1
  5  4  1  0
  7  8  2  0
  7  5  1  0
  9 10  1  0
 10 12  1  0
 11 10  2  0
 13 12  1  0
 14 15  1  0
 14 13  1  1
 15  7  1  0
 16 14  1  0
 17 16  2  0
 18 16  1  0
 19 18  1  0
 20 21  1  0
 19 20  1  6
 22 21  1  0
 22 23  2  0
 24 25  1  0
 24 19  1  0
 26 22  1  0
 27 24  2  0
M  END
$$$$
