MQE.pdb
     RDKit          3D

 27 26  0  0  1  0  0  0  0  0999 V2000
    7.8069  -12.4773   28.0969 C   0  0  0  0  0  0  0  0  0  0  0  0
    6.9414  -11.9658   26.5647 S   0  0  0  0  0  0  0  0  0  0  0  0
    6.3287  -13.4716   25.7518 C   0  0  0  0  0  0  0  0  0  0  0  0
    7.5196  -14.2695   25.3172 C   0  0  0  0  0  0  0  0  0  0  0  0
    7.1442  -15.4925   24.5128 C   0  0  2  0  0  0  0  0  0  0  0  0
    6.2499  -16.3531   25.2298 N   0  0  0  0  0  0  0  0  0  0  0  0
    8.3103  -16.2712   24.0460 C   0  0  0  0  0  0  0  0  0  0  0  0
    8.6434  -17.3043   24.6700 O   0  0  0  0  0  0  0  0  0  0  0  0
   10.5616  -18.4619   18.8968 N   0  0  0  0  0  0  0  0  0  0  0  0
    9.6505  -17.8434   19.7854 C   0  0  0  0  0  0  0  0  0  0  0  0
    8.7915  -18.5256   20.3751 O   0  0  0  0  0  0  0  0  0  0  0  0
    9.7079  -16.3905   20.0219 C   0  0  0  0  0  0  0  0  0  0  0  0
   10.6489  -16.1145   21.1404 C   0  0  0  0  0  0  0  0  0  0  0  0
   10.2307  -16.6849   22.4702 C   0  0  2  0  0  0  0  0  0  0  0  0
    9.0877  -15.9106   22.9123 N   0  0  0  0  0  0  0  0  0  0  0  0
   11.2711  -16.6339   23.4961 C   0  0  0  0  0  0  0  0  0  0  0  0
   11.7419  -15.5567   23.9500 O   0  0  0  0  0  0  0  0  0  0  0  0
   11.7969  -17.8390   24.0264 N   0  0  0  0  0  0  0  0  0  0  0  0
   12.6858  -17.7950   25.1727 C   0  0  1  0  0  0  0  0  0  0  0  0
   12.0896  -18.6464   26.2578 C   0  0  0  0  0  0  0  0  0  0  0  0
   12.1414  -17.9115   27.5651 C   0  0  0  0  0  0  0  0  0  0  0  0
   11.5976  -18.7531   28.6630 C   0  0  0  0  0  0  0  0  0  0  0  0
   11.6835  -18.4380   29.8749 O   0  0  0  0  0  0  0  0  0  0  0  0
   13.9939  -18.3551   24.7562 C   0  0  0  0  0  0  0  0  0  0  0  0
   14.0665  -19.1510   23.6177 O   0  0  0  0  0  0  0  0  0  0  0  0
   10.9685  -19.9380   28.3272 O   0  0  0  0  0  0  0  0  0  0  0  0
   15.0261  -18.1230   25.4106 O   0  0  0  0  0  0  0  0  0  0  0  0
  1  2  1  0
  3  2  1  0
  4  3  1  0
  5  6  1  1
  5  4  1  0
  7  8  2  0
  7  5  1  0
  9 10  1  0
 10 12  1  0
 11 10  2  0
 13 12  1  0
 14 15  1  0
 14 13  1  6
 15  7  1  0
 16 14  1  0
 17 16  2  0
 18 16  1  0
 19 18  1  0
 20 21  1  0
 19 20  1  1
 22 21  1  0
 22 23  2  0
 24 25  1  0
 24 19  1  0
 26 22  1  0
 27 24  2  0
M  END
$$$$
