MQE.pdb
     RDKit          3D

 27 26  0  0  1  0  0  0  0  0999 V2000
    7.2392  -11.4045   26.2120 C   0  0  0  0  0  0  0  0  0  0  0  0
    6.2864  -12.1977   27.5614 S   0  0  0  0  0  0  0  0  0  0  0  0
    5.8377  -13.8696   27.0071 C   0  0  0  0  0  0  0  0  0  0  0  0
    6.8262  -14.2811   25.9595 C   0  0  0  0  0  0  0  0  0  0  0  0
    6.3714  -15.4826   25.1638 C   0  0  2  0  0  0  0  0  0  0  0  0
    6.1972  -16.6400   25.9913 N   0  0  0  0  0  0  0  0  0  0  0  0
    7.2651  -15.8136   24.0343 C   0  0  0  0  0  0  0  0  0  0  0  0
    8.0692  -16.7660   24.1513 O   0  0  0  0  0  0  0  0  0  0  0  0
    7.2277  -12.7405   18.6377 N   0  0  0  0  0  0  0  0  0  0  0  0
    8.3167  -13.6092   18.3897 C   0  0  0  0  0  0  0  0  0  0  0  0
    8.9050  -13.5768   17.2925 O   0  0  0  0  0  0  0  0  0  0  0  0
    8.7651  -14.5583   19.4233 C   0  0  0  0  0  0  0  0  0  0  0  0
    7.8697  -14.4513   20.6062 C   0  0  0  0  0  0  0  0  0  0  0  0
    8.2237  -15.3667   21.7487 C   0  0  2  0  0  0  0  0  0  0  0  0
    7.2648  -15.1031   22.8034 N   0  0  0  0  0  0  0  0  0  0  0  0
    9.5760  -15.1760   22.2704 C   0  0  0  0  0  0  0  0  0  0  0  0
    9.8895  -14.2382   23.0515 O   0  0  0  0  0  0  0  0  0  0  0  0
   10.6079  -16.0738   21.8974 N   0  0  0  0  0  0  0  0  0  0  0  0
   11.7580  -16.2509   22.7646 C   0  0  1  0  0  0  0  0  0  0  0  0
   11.3535  -17.1516   23.8972 C   0  0  0  0  0  0  0  0  0  0  0  0
   12.5494  -17.4653   24.7476 C   0  0  0  0  0  0  0  0  0  0  0  0
   12.1706  -18.3481   25.8819 C   0  0  0  0  0  0  0  0  0  0  0  0
   11.3731  -17.9984   26.7859 O   0  0  0  0  0  0  0  0  0  0  0  0
   12.8323  -16.8938   21.9704 C   0  0  0  0  0  0  0  0  0  0  0  0
   12.5371  -17.4149   20.7149 O   0  0  0  0  0  0  0  0  0  0  0  0
   12.7262  -19.6132   25.9386 O   0  0  0  0  0  0  0  0  0  0  0  0
   13.9928  -16.9733   22.4114 O   0  0  0  0  0  0  0  0  0  0  0  0
  1  2  1  0
  3  2  1  0
  4  3  1  0
  5  6  1  1
  5  4  1  0
  7  8  2  0
  7  5  1  0
  9 10  1  0
 10 12  1  0
 11 10  2  0
 13 12  1  0
 14 15  1  0
 14 13  1  6
 15  7  1  0
 16 14  1  0
 17 16  2  0
 18 16  1  0
 19 18  1  0
 20 21  1  0
 19 20  1  1
 22 21  1  0
 22 23  2  0
 24 25  1  0
 24 19  1  0
 26 22  1  0
 27 24  2  0
M  END
$$$$
