MQE.pdb
     RDKit          3D

 27 26  0  0  1  0  0  0  0  0999 V2000
    6.4248  -12.3160   26.4647 C   0  0  0  0  0  0  0  0  0  0  0  0
    7.6070  -13.5578   27.1116 S   0  0  0  0  0  0  0  0  0  0  0  0
    7.7232  -14.8954   25.8864 C   0  0  0  0  0  0  0  0  0  0  0  0
    6.3401  -15.1686   25.3801 C   0  0  0  0  0  0  0  0  0  0  0  0
    6.2897  -16.3227   24.4059 C   0  0  2  0  0  0  0  0  0  0  0  0
    6.7092  -17.5534   25.0091 N   0  0  0  0  0  0  0  0  0  0  0  0
    7.0690  -16.0868   23.1725 C   0  0  0  0  0  0  0  0  0  0  0  0
    7.5986  -17.0603   22.5900 O   0  0  0  0  0  0  0  0  0  0  0  0
    8.7868  -13.8364   17.4495 N   0  0  0  0  0  0  0  0  0  0  0  0
    7.8996  -13.5788   18.5212 C   0  0  0  0  0  0  0  0  0  0  0  0
    6.7466  -14.0495   18.5053 O   0  0  0  0  0  0  0  0  0  0  0  0
    8.3285  -12.7539   19.6639 C   0  0  0  0  0  0  0  0  0  0  0  0
    7.6080  -13.2003   20.8863 C   0  0  0  0  0  0  0  0  0  0  0  0
    7.9436  -14.5966   21.3404 C   0  0  2  0  0  0  0  0  0  0  0  0
    7.2550  -14.7995   22.5998 N   0  0  0  0  0  0  0  0  0  0  0  0
    9.3732  -14.8357   21.5308 C   0  0  0  0  0  0  0  0  0  0  0  0
   10.2544  -14.4348   20.7241 O   0  0  0  0  0  0  0  0  0  0  0  0
    9.8221  -15.5513   22.6695 N   0  0  0  0  0  0  0  0  0  0  0  0
   11.2298  -15.8753   22.8086 C   0  0  1  0  0  0  0  0  0  0  0  0
   11.3676  -16.8926   23.9060 C   0  0  0  0  0  0  0  0  0  0  0  0
   11.0277  -16.2642   25.2256 C   0  0  0  0  0  0  0  0  0  0  0  0
   11.1508  -17.2551   26.3267 C   0  0  0  0  0  0  0  0  0  0  0  0
   10.2721  -17.4114   27.2093 O   0  0  0  0  0  0  0  0  0  0  0  0
   11.6926  -16.4552   21.5249 C   0  0  0  0  0  0  0  0  0  0  0  0
   13.0393  -16.7607   21.3578 O   0  0  0  0  0  0  0  0  0  0  0  0
   12.2891  -18.0387   26.3759 O   0  0  0  0  0  0  0  0  0  0  0  0
   10.8935  -16.6719   20.5965 O   0  0  0  0  0  0  0  0  0  0  0  0
  1  2  1  0
  3  2  1  0
  4  3  1  0
  5  6  1  1
  5  4  1  0
  7  8  2  0
  7  5  1  0
  9 10  1  0
 10 12  1  0
 11 10  2  0
 13 12  1  0
 14 15  1  0
 14 13  1  1
 15  7  1  0
 16 14  1  0
 17 16  2  0
 18 16  1  0
 19 18  1  0
 20 21  1  0
 19 20  1  1
 22 21  1  0
 22 23  2  0
 24 25  1  0
 24 19  1  0
 26 22  1  0
 27 24  2  0
M  END
$$$$
