FAH.pdb
     RDKit          3D

 27 28  0  0  1  0  0  0  0  0999 V2000
    7.3513  -18.1700   19.4319 N   0  0  0  0  0  0  0  0  0  0  0  0
    7.8844  -16.9858   20.0765 C   0  0  1  0  0  0  0  0  0  0  0  0
    6.8017  -16.4054   20.9597 C   0  0  0  0  0  0  0  0  0  0  0  0
    7.2285  -15.0637   21.3855 C   0  0  0  0  0  0  0  0  0  0  0  0
    7.5269  -14.0942   20.4618 C   0  0  0  0  0  0  0  0  0  0  0  0
    7.9325  -12.8186   20.8477 C   0  0  0  0  0  0  0  0  0  0  0  0
    8.0294  -12.5465   22.1934 C   0  0  0  0  0  0  0  0  0  0  0  0
    7.7338  -13.5084   23.1658 C   0  0  0  0  0  0  0  0  0  0  0  0
    7.3311  -14.7732   22.7203 C   0  0  0  0  0  0  0  0  0  0  0  0
    9.1165  -17.3103   20.8569 C   0  0  0  0  0  0  0  0  0  0  0  0
    9.2757  -18.4175   21.4294 O   0  0  0  0  0  0  0  0  0  0  0  0
   12.5098  -15.6434   21.1899 C   0  0  0  0  0  0  0  0  0  0  0  0
   11.4518  -16.6319   21.5457 C   0  0  2  0  0  0  0  0  0  0  0  0
   10.1661  -16.3613   20.9791 N   0  0  0  0  0  0  0  0  0  0  0  0
   11.3693  -16.7653   23.0298 C   0  0  0  0  0  0  0  0  0  0  0  0
   12.3703  -17.0317   23.7371 O   0  0  0  0  0  0  0  0  0  0  0  0
   10.1230  -16.5879   23.6802 N   0  0  0  0  0  0  0  0  0  0  0  0
   10.0868  -16.7620   25.1630 C   0  0  1  0  0  0  0  0  0  0  0  0
    8.7164  -17.3122   25.4329 C   0  0  0  0  0  0  0  0  0  0  0  0
    7.6863  -16.2719   25.3024 C   0  0  0  0  0  0  0  0  0  0  0  0
    7.6626  -14.9314   25.6043 C   0  0  0  0  0  0  0  0  0  0  0  0
    6.4779  -14.3692   25.2255 N   0  0  0  0  0  0  0  0  0  0  0  0
    5.7835  -15.3720   24.6912 C   0  0  0  0  0  0  0  0  0  0  0  0
    6.4777  -16.5128   24.7239 N   0  0  0  0  0  0  0  0  0  0  0  0
   11.0485  -17.8801   25.4537 C   0  0  0  0  0  0  0  0  0  0  0  0
   11.2943  -18.3699   26.6985 O   0  0  0  0  0  0  0  0  0  0  0  0
   11.6570  -18.3818   24.4430 O   0  0  0  0  0  0  0  0  0  0  0  0
  2  1  1  1
  3  4  1  0
  3  2  1  0
  4  5  2  0
  4  9  1  0
  5  6  1  0
  6  7  2  0
  8  7  1  0
  9  8  2  0
 10 11  2  0
 10  2  1  0
 13 12  1  1
 13 14  1  0
 14 10  1  0
 15 13  1  0
 15 17  1  0
 16 15  2  0
 18 17  1  0
 18 25  1  0
 18 19  1  6
 20 21  2  0
 20 19  1  0
 22 21  1  0
 23 24  2  0
 23 22  1  0
 24 20  1  0
 25 26  1  0
 27 25  2  0
M  END
$$$$
