FAH.pdb
     RDKit          3D

 27 28  0  0  1  0  0  0  0  0999 V2000
    7.0214  -17.5329   19.7766 N   0  0  0  0  0  0  0  0  0  0  0  0
    7.4893  -17.1351   21.0899 C   0  0  1  0  0  0  0  0  0  0  0  0
    6.5914  -16.0251   21.5909 C   0  0  0  0  0  0  0  0  0  0  0  0
    6.9793  -14.7801   20.9102 C   0  0  0  0  0  0  0  0  0  0  0  0
    7.6095  -13.7714   21.5940 C   0  0  0  0  0  0  0  0  0  0  0  0
    7.9835  -12.5862   20.9648 C   0  0  0  0  0  0  0  0  0  0  0  0
    7.7042  -12.4453   19.6245 C   0  0  0  0  0  0  0  0  0  0  0  0
    7.0631  -13.4511   18.8927 C   0  0  0  0  0  0  0  0  0  0  0  0
    6.7100  -14.6208   19.5766 C   0  0  0  0  0  0  0  0  0  0  0  0
    7.5030  -18.2980   22.0279 C   0  0  0  0  0  0  0  0  0  0  0  0
    6.4688  -18.9634   22.2864 O   0  0  0  0  0  0  0  0  0  0  0  0
    8.4462  -21.1377   22.8227 C   0  0  0  0  0  0  0  0  0  0  0  0
    8.8518  -19.8639   23.4829 C   0  0  2  0  0  0  0  0  0  0  0  0
    8.7061  -18.6961   22.6691 N   0  0  0  0  0  0  0  0  0  0  0  0
   10.2459  -19.9894   24.0007 C   0  0  0  0  0  0  0  0  0  0  0  0
   10.6651  -21.0332   24.5555 O   0  0  0  0  0  0  0  0  0  0  0  0
   11.1420  -18.8996   23.8691 N   0  0  0  0  0  0  0  0  0  0  0  0
   11.3004  -17.9903   25.0431 C   0  0  1  0  0  0  0  0  0  0  0  0
    9.8989  -17.5550   25.3596 C   0  0  0  0  0  0  0  0  0  0  0  0
    9.5770  -16.2747   24.7136 C   0  0  0  0  0  0  0  0  0  0  0  0
   10.2578  -15.4718   23.8301 C   0  0  0  0  0  0  0  0  0  0  0  0
    9.4954  -14.4020   23.4594 N   0  0  0  0  0  0  0  0  0  0  0  0
    8.3494  -14.5590   24.1191 C   0  0  0  0  0  0  0  0  0  0  0  0
    8.3709  -15.6630   24.8707 N   0  0  0  0  0  0  0  0  0  0  0  0
   11.7258  -18.8796   26.1779 C   0  0  0  0  0  0  0  0  0  0  0  0
   11.1808  -20.0985   26.4369 O   0  0  0  0  0  0  0  0  0  0  0  0
   12.6641  -18.4319   26.9281 O   0  0  0  0  0  0  0  0  0  0  0  0
  2  1  1  6
  3  4  1  0
  3  2  1  0
  4  5  2  0
  4  9  1  0
  5  6  1  0
  6  7  2  0
  8  7  1  0
  9  8  2  0
 10 11  2  0
 10  2  1  0
 13 12  1  6
 13 14  1  0
 14 10  1  0
 15 13  1  0
 15 17  1  0
 16 15  2  0
 18 17  1  0
 18 25  1  0
 18 19  1  1
 20 21  2  0
 20 19  1  0
 22 21  1  0
 23 24  2  0
 23 22  1  0
 24 20  1  0
 25 26  1  0
 27 25  2  0
M  END
$$$$
