FAH.pdb
     RDKit          3D

 27 28  0  0  1  0  0  0  0  0999 V2000
    5.9091  -17.4511   23.7441 N   0  0  0  0  0  0  0  0  0  0  0  0
    6.9684  -16.5238   24.0909 C   0  0  1  0  0  0  0  0  0  0  0  0
    6.8896  -16.2573   25.5781 C   0  0  0  0  0  0  0  0  0  0  0  0
    6.5611  -14.8366   25.7718 C   0  0  0  0  0  0  0  0  0  0  0  0
    7.4725  -13.8563   25.4707 C   0  0  0  0  0  0  0  0  0  0  0  0
    7.1777  -12.5065   25.6481 C   0  0  0  0  0  0  0  0  0  0  0  0
    5.9363  -12.1710   26.1385 C   0  0  0  0  0  0  0  0  0  0  0  0
    4.9798  -13.1415   26.4573 C   0  0  0  0  0  0  0  0  0  0  0  0
    5.3308  -14.4824   26.2589 C   0  0  0  0  0  0  0  0  0  0  0  0
    8.3040  -17.0665   23.6987 C   0  0  0  0  0  0  0  0  0  0  0  0
    8.5216  -18.2994   23.5900 O   0  0  0  0  0  0  0  0  0  0  0  0
   11.5089  -15.5777   22.3417 C   0  0  0  0  0  0  0  0  0  0  0  0
   10.7057  -16.6109   23.0561 C   0  0  2  0  0  0  0  0  0  0  0  0
    9.3902  -16.1913   23.4314 N   0  0  0  0  0  0  0  0  0  0  0  0
   11.4691  -17.1112   24.2369 C   0  0  0  0  0  0  0  0  0  0  0  0
   12.6072  -17.6275   24.1315 O   0  0  0  0  0  0  0  0  0  0  0  0
   10.9028  -17.0070   25.5316 N   0  0  0  0  0  0  0  0  0  0  0  0
   11.6600  -17.6128   26.6673 C   0  0  1  0  0  0  0  0  0  0  0  0
   11.1192  -16.9141   27.8809 C   0  0  0  0  0  0  0  0  0  0  0  0
   11.4961  -15.4935   27.8935 C   0  0  0  0  0  0  0  0  0  0  0  0
   12.1617  -14.6911   26.9982 C   0  0  0  0  0  0  0  0  0  0  0  0
   12.2019  -13.4000   27.4395 N   0  0  0  0  0  0  0  0  0  0  0  0
   11.5571  -13.4211   28.6045 C   0  0  0  0  0  0  0  0  0  0  0  0
   11.1274  -14.6514   28.8977 N   0  0  0  0  0  0  0  0  0  0  0  0
   11.1744  -19.0327   26.7541 C   0  0  0  0  0  0  0  0  0  0  0  0
   11.6051  -19.9305   27.6805 O   0  0  0  0  0  0  0  0  0  0  0  0
   10.2988  -19.3865   25.8870 O   0  0  0  0  0  0  0  0  0  0  0  0
  2  1  1  1
  3  4  1  0
  3  2  1  0
  4  5  2  0
  4  9  1  0
  5  6  1  0
  6  7  2  0
  8  7  1  0
  9  8  2  0
 10 11  2  0
 10  2  1  0
 13 12  1  1
 13 14  1  0
 14 10  1  0
 15 13  1  0
 15 17  1  0
 16 15  2  0
 18 17  1  0
 18 25  1  0
 18 19  1  1
 20 21  2  0
 20 19  1  0
 22 21  1  0
 23 24  2  0
 23 22  1  0
 24 20  1  0
 25 26  1  0
 27 25  2  0
M  END
$$$$
