FAH.pdb
     RDKit          3D

 27 28  0  0  1  0  0  0  0  0999 V2000
    7.6044  -16.8380   26.6689 N   0  0  0  0  0  0  0  0  0  0  0  0
    7.3413  -16.0628   25.4724 C   0  0  1  0  0  0  0  0  0  0  0  0
    8.2665  -14.8656   25.4769 C   0  0  0  0  0  0  0  0  0  0  0  0
    7.6686  -13.8280   26.3311 C   0  0  0  0  0  0  0  0  0  0  0  0
    8.4032  -13.2184   27.3165 C   0  0  0  0  0  0  0  0  0  0  0  0
    7.8525  -12.2343   28.1342 C   0  0  0  0  0  0  0  0  0  0  0  0
    6.5381  -11.8806   27.9310 C   0  0  0  0  0  0  0  0  0  0  0  0
    5.7561  -12.4791   26.9367 C   0  0  0  0  0  0  0  0  0  0  0  0
    6.3617  -13.4622   26.1446 C   0  0  0  0  0  0  0  0  0  0  0  0
    7.5235  -16.8948   24.2449 C   0  0  0  0  0  0  0  0  0  0  0  0
    8.2045  -17.9510   24.2455 O   0  0  0  0  0  0  0  0  0  0  0  0
    5.8957  -16.9957   20.8333 C   0  0  0  0  0  0  0  0  0  0  0  0
    6.9992  -17.2623   21.7998 C   0  0  2  0  0  0  0  0  0  0  0  0
    6.9226  -16.5125   23.0161 N   0  0  0  0  0  0  0  0  0  0  0  0
    8.3154  -17.0621   21.1254 C   0  0  0  0  0  0  0  0  0  0  0  0
    8.6442  -17.6934   20.0927 O   0  0  0  0  0  0  0  0  0  0  0  0
    9.2395  -16.1288   21.6574 N   0  0  0  0  0  0  0  0  0  0  0  0
   10.5554  -15.9887   20.9652 C   0  0  1  0  0  0  0  0  0  0  0  0
   10.6213  -14.5350   20.5966 C   0  0  0  0  0  0  0  0  0  0  0  0
    9.6783  -14.2132   19.5160 C   0  0  0  0  0  0  0  0  0  0  0  0
    8.7845  -14.9677   18.7946 C   0  0  0  0  0  0  0  0  0  0  0  0
    8.0712  -14.1844   17.9339 N   0  0  0  0  0  0  0  0  0  0  0  0
    8.5335  -12.9521   18.1365 C   0  0  0  0  0  0  0  0  0  0  0  0
    9.4881  -12.9408   19.0708 N   0  0  0  0  0  0  0  0  0  0  0  0
   11.5898  -16.1933   22.0366 C   0  0  0  0  0  0  0  0  0  0  0  0
   11.2987  -16.5099   23.3268 O   0  0  0  0  0  0  0  0  0  0  0  0
   12.8128  -16.0548   21.6778 O   0  0  0  0  0  0  0  0  0  0  0  0
  2  1  1  1
  3  4  1  0
  3  2  1  0
  4  5  2  0
  4  9  1  0
  5  6  1  0
  6  7  2  0
  8  7  1  0
  9  8  2  0
 10 11  2  0
 10  2  1  0
 13 12  1  6
 13 14  1  0
 14 10  1  0
 15 13  1  0
 15 17  1  0
 16 15  2  0
 18 17  1  0
 18 25  1  0
 18 19  1  1
 20 21  2  0
 20 19  1  0
 22 21  1  0
 23 24  2  0
 23 22  1  0
 24 20  1  0
 25 26  1  0
 27 25  2  0
M  END
$$$$
