FAH.pdb
     RDKit          3D

 27 28  0  0  1  0  0  0  0  0999 V2000
    6.5777  -17.5952   26.3082 N   0  0  0  0  0  0  0  0  0  0  0  0
    6.9273  -16.5386   25.3791 C   0  0  1  0  0  0  0  0  0  0  0  0
    8.0767  -15.7538   25.9727 C   0  0  0  0  0  0  0  0  0  0  0  0
    7.6496  -14.3534   26.1151 C   0  0  0  0  0  0  0  0  0  0  0  0
    7.0698  -13.9094   27.2765 C   0  0  0  0  0  0  0  0  0  0  0  0
    6.6597  -12.5867   27.4280 C   0  0  0  0  0  0  0  0  0  0  0  0
    6.8504  -11.7220   26.3744 C   0  0  0  0  0  0  0  0  0  0  0  0
    7.4380  -12.1368   25.1740 C   0  0  0  0  0  0  0  0  0  0  0  0
    7.8309  -13.4773   25.0778 C   0  0  0  0  0  0  0  0  0  0  0  0
    7.2770  -17.0987   24.0389 C   0  0  0  0  0  0  0  0  0  0  0  0
    7.7698  -18.2463   23.8993 O   0  0  0  0  0  0  0  0  0  0  0  0
    6.4173  -16.2151   20.4869 C   0  0  0  0  0  0  0  0  0  0  0  0
    7.3055  -16.8064   21.5284 C   0  0  2  0  0  0  0  0  0  0  0  0
    7.0602  -16.3392   22.8585 N   0  0  0  0  0  0  0  0  0  0  0  0
    8.7331  -16.6068   21.1419 C   0  0  0  0  0  0  0  0  0  0  0  0
    9.2089  -17.0576   20.0725 O   0  0  0  0  0  0  0  0  0  0  0  0
    9.5966  -15.8843   22.0022 N   0  0  0  0  0  0  0  0  0  0  0  0
   10.9934  -15.6410   21.5333 C   0  0  1  0  0  0  0  0  0  0  0  0
   11.0942  -14.1457   21.4461 C   0  0  0  0  0  0  0  0  0  0  0  0
   10.2524  -13.6142   20.3648 C   0  0  0  0  0  0  0  0  0  0  0  0
    9.4229  -14.2071   19.4434 C   0  0  0  0  0  0  0  0  0  0  0  0
    8.7923  -13.2664   18.6814 N   0  0  0  0  0  0  0  0  0  0  0  0
    9.2403  -12.1009   19.1444 C   0  0  0  0  0  0  0  0  0  0  0  0
   10.1081  -12.2786   20.1442 N   0  0  0  0  0  0  0  0  0  0  0  0
   11.8732  -16.0509   22.6810 C   0  0  0  0  0  0  0  0  0  0  0  0
   11.4082  -16.5503   23.8576 O   0  0  0  0  0  0  0  0  0  0  0  0
   13.1355  -15.9096   22.5066 O   0  0  0  0  0  0  0  0  0  0  0  0
  2  1  1  1
  3  4  1  0
  3  2  1  0
  4  5  2  0
  4  9  1  0
  5  6  1  0
  6  7  2  0
  8  7  1  0
  9  8  2  0
 10 11  2  0
 10  2  1  0
 13 12  1  6
 13 14  1  0
 14 10  1  0
 15 13  1  0
 15 17  1  0
 16 15  2  0
 18 17  1  0
 18 25  1  0
 18 19  1  1
 20 21  2  0
 20 19  1  0
 22 21  1  0
 23 24  2  0
 23 22  1  0
 24 20  1  0
 25 26  1  0
 27 25  2  0
M  END
$$$$
