FAH.pdb
     RDKit          3D

 27 28  0  0  1  0  0  0  0  0999 V2000
    5.8359  -18.1565   24.4956 N   0  0  0  0  0  0  0  0  0  0  0  0
    6.3325  -16.7965   24.5698 C   0  0  1  0  0  0  0  0  0  0  0  0
    6.5713  -16.4637   26.0264 C   0  0  0  0  0  0  0  0  0  0  0  0
    6.5006  -15.0024   26.1796 C   0  0  0  0  0  0  0  0  0  0  0  0
    5.3437  -14.3207   25.8987 C   0  0  0  0  0  0  0  0  0  0  0  0
    5.2597  -12.9372   26.0384 C   0  0  0  0  0  0  0  0  0  0  0  0
    6.3763  -12.2583   26.4700 C   0  0  0  0  0  0  0  0  0  0  0  0
    7.5745  -12.9177   26.7665 C   0  0  0  0  0  0  0  0  0  0  0  0
    7.6014  -14.3086   26.6080 C   0  0  0  0  0  0  0  0  0  0  0  0
    7.5761  -16.6359   23.7574 C   0  0  0  0  0  0  0  0  0  0  0  0
    8.4059  -17.5679   23.6098 O   0  0  0  0  0  0  0  0  0  0  0  0
    8.9681  -13.8393   21.5676 C   0  0  0  0  0  0  0  0  0  0  0  0
    8.9315  -15.1974   22.1819 C   0  0  2  0  0  0  0  0  0  0  0  0
    7.8657  -15.4031   23.1143 N   0  0  0  0  0  0  0  0  0  0  0  0
   10.2549  -15.5037   22.8000 C   0  0  0  0  0  0  0  0  0  0  0  0
   11.3391  -15.2909   22.2065 O   0  0  0  0  0  0  0  0  0  0  0  0
   10.3072  -16.0555   24.1041 N   0  0  0  0  0  0  0  0  0  0  0  0
   11.6398  -16.4951   24.6150 C   0  0  1  0  0  0  0  0  0  0  0  0
   11.3770  -16.8718   26.0442 C   0  0  0  0  0  0  0  0  0  0  0  0
   11.3019  -15.6837   26.9062 C   0  0  0  0  0  0  0  0  0  0  0  0
   11.3891  -14.3353   26.6555 C   0  0  0  0  0  0  0  0  0  0  0  0
   11.1809  -13.6148   27.7960 N   0  0  0  0  0  0  0  0  0  0  0  0
   10.9654  -14.5300   28.7391 C   0  0  0  0  0  0  0  0  0  0  0  0
   11.0312  -15.7663   28.2378 N   0  0  0  0  0  0  0  0  0  0  0  0
   11.9357  -17.7804   23.8939 C   0  0  0  0  0  0  0  0  0  0  0  0
   11.1131  -18.3417   22.9675 O   0  0  0  0  0  0  0  0  0  0  0  0
   13.0411  -18.3569   24.1929 O   0  0  0  0  0  0  0  0  0  0  0  0
  2  1  1  1
  3  4  1  0
  3  2  1  0
  4  5  2  0
  4  9  1  0
  5  6  1  0
  6  7  2  0
  8  7  1  0
  9  8  2  0
 10 11  2  0
 10  2  1  0
 13 12  1  1
 13 14  1  0
 14 10  1  0
 15 13  1  0
 15 17  1  0
 16 15  2  0
 18 17  1  0
 18 25  1  0
 18 19  1  1
 20 21  2  0
 20 19  1  0
 22 21  1  0
 23 24  2  0
 23 22  1  0
 24 20  1  0
 25 26  1  0
 27 25  2  0
M  END
$$$$
