FAH.pdb
     RDKit          3D

 27 28  0  0  1  0  0  0  0  0999 V2000
    7.8571  -15.4915   26.1427 N   0  0  0  0  0  0  0  0  0  0  0  0
    7.0333  -15.5423   24.9507 C   0  0  1  0  0  0  0  0  0  0  0  0
    7.0085  -14.1586   24.3390 C   0  0  0  0  0  0  0  0  0  0  0  0
    6.7444  -13.1882   25.4125 C   0  0  0  0  0  0  0  0  0  0  0  0
    5.5491  -13.1919   26.0859 C   0  0  0  0  0  0  0  0  0  0  0  0
    5.2829  -12.2801   27.1048 C   0  0  0  0  0  0  0  0  0  0  0  0
    6.2566  -11.3624   27.4271 C   0  0  0  0  0  0  0  0  0  0  0  0
    7.4882  -11.3268   26.7637 C   0  0  0  0  0  0  0  0  0  0  0  0
    7.7010  -12.2669   25.7481 C   0  0  0  0  0  0  0  0  0  0  0  0
    7.5488  -16.5611   23.9871 C   0  0  0  0  0  0  0  0  0  0  0  0
    7.0371  -17.7040   23.8817 O   0  0  0  0  0  0  0  0  0  0  0  0
    9.7628  -16.6608   20.9842 C   0  0  0  0  0  0  0  0  0  0  0  0
    9.3086  -17.2112   22.2933 C   0  0  2  0  0  0  0  0  0  0  0  0
    8.6531  -16.2658   23.1442 N   0  0  0  0  0  0  0  0  0  0  0  0
   10.4585  -17.8577   22.9913 C   0  0  0  0  0  0  0  0  0  0  0  0
   11.1224  -18.7872   22.4733 O   0  0  0  0  0  0  0  0  0  0  0  0
   10.8274  -17.4180   24.2869 N   0  0  0  0  0  0  0  0  0  0  0  0
   11.9300  -18.1516   24.9771 C   0  0  1  0  0  0  0  0  0  0  0  0
   12.9558  -17.0915   25.2554 C   0  0  0  0  0  0  0  0  0  0  0  0
   13.5946  -16.6258   24.0163 C   0  0  0  0  0  0  0  0  0  0  0  0
   13.3721  -16.8949   22.6871 C   0  0  0  0  0  0  0  0  0  0  0  0
   14.1953  -16.1472   21.8957 N   0  0  0  0  0  0  0  0  0  0  0  0
   14.9168  -15.4223   22.7485 C   0  0  0  0  0  0  0  0  0  0  0  0
   14.5802  -15.6867   24.0139 N   0  0  0  0  0  0  0  0  0  0  0  0
   11.3667  -18.5462   26.3137 C   0  0  0  0  0  0  0  0  0  0  0  0
   12.0907  -19.1377   27.3016 O   0  0  0  0  0  0  0  0  0  0  0  0
   10.1239  -18.2941   26.5021 O   0  0  0  0  0  0  0  0  0  0  0  0
  2  1  1  1
  3  4  1  0
  3  2  1  0
  4  5  2  0
  4  9  1  0
  5  6  1  0
  6  7  2  0
  8  7  1  0
  9  8  2  0
 10 11  2  0
 10  2  1  0
 13 12  1  6
 13 14  1  0
 14 10  1  0
 15 13  1  0
 15 17  1  0
 16 15  2  0
 18 17  1  0
 18 25  1  0
 18 19  1  1
 20 21  2  0
 20 19  1  0
 22 21  1  0
 23 24  2  0
 23 22  1  0
 24 20  1  0
 25 26  1  0
 27 25  2  0
M  END
$$$$
