DYY.pdb
     RDKit          3D

 33 34  0  0  1  0  0  0  0  0999 V2000
    9.1118  -19.5724   21.5403 N   0  0  0  0  0  0  0  0  0  0  0  0
    9.3686  -18.5061   20.6068 C   0  0  1  0  0  0  0  0  0  0  0  0
    8.1445  -18.1255   19.8137 C   0  0  0  0  0  0  0  0  0  0  0  0
    6.9499  -18.6047   20.5518 C   0  0  0  0  0  0  0  0  0  0  0  0
    5.7940  -18.4941   20.0910 O   0  0  0  0  0  0  0  0  0  0  0  0
    9.8731  -17.2821   21.3055 C   0  0  0  0  0  0  0  0  0  0  0  0
   11.1071  -17.0257   21.3033 O   0  0  0  0  0  0  0  0  0  0  0  0
    7.0708  -19.2060   21.8063 O   0  0  0  0  0  0  0  0  0  0  0  0
    7.3149  -12.9136   16.9486 O   0  0  0  0  0  0  0  0  0  0  0  0
    7.6100  -13.2116   18.2739 C   0  0  0  0  0  0  0  0  0  0  0  0
    6.7840  -14.0702   18.9547 C   0  0  0  0  0  0  0  0  0  0  0  0
    7.0727  -14.3666   20.2638 C   0  0  0  0  0  0  0  0  0  0  0  0
    8.1826  -13.8053   20.8852 C   0  0  0  0  0  0  0  0  0  0  0  0
    8.4079  -14.1476   22.2801 C   0  0  0  0  0  0  0  0  0  0  0  0
    9.5044  -15.1221   22.5771 C   0  0  2  0  0  0  0  0  0  0  0  0
    9.0263  -16.3918   21.9738 N   0  0  0  0  0  0  0  0  0  0  0  0
    9.7201  -15.4377   23.9987 C   0  0  0  0  0  0  0  0  0  0  0  0
   10.5326  -14.7488   24.7205 O   0  0  0  0  0  0  0  0  0  0  0  0
    8.9987  -12.9470   20.1857 C   0  0  0  0  0  0  0  0  0  0  0  0
    8.7096  -12.6539   18.8844 C   0  0  0  0  0  0  0  0  0  0  0  0
    6.4725  -10.9307   27.0421 O   0  0  0  0  0  0  0  0  0  0  0  0
    6.8479  -12.2805   27.0109 C   0  0  0  0  0  0  0  0  0  0  0  0
    6.0930  -13.1775   26.2950 C   0  0  0  0  0  0  0  0  0  0  0  0
    6.4445  -14.5078   26.2516 C   0  0  0  0  0  0  0  0  0  0  0  0
    7.5644  -15.0145   26.9183 C   0  0  0  0  0  0  0  0  0  0  0  0
    7.9272  -16.4426   26.8703 C   0  0  0  0  0  0  0  0  0  0  0  0
    9.2704  -16.6188   26.1878 C   0  0  2  0  0  0  0  0  0  0  0  0
    9.0843  -16.4913   24.7266 N   0  0  0  0  0  0  0  0  0  0  0  0
    9.7720  -17.9597   26.4658 C   0  0  0  0  0  0  0  0  0  0  0  0
   10.0220  -18.3823   27.6230 O   0  0  0  0  0  0  0  0  0  0  0  0
    8.3040  -14.0787   27.6319 C   0  0  0  0  0  0  0  0  0  0  0  0
    7.9539  -12.7467   27.6762 C   0  0  0  0  0  0  0  0  0  0  0  0
    9.9981  -18.8474   25.4338 O   0  0  0  0  0  0  0  0  0  0  0  0
  2  1  1  1
  2  3  1  0
  4  8  1  0
  4  3  1  0
  5  4  2  0
  6 16  1  0
  6  2  1  0
  7  6  2  0
  9 10  1  0
 10 11  2  0
 11 12  1  0
 13 12  2  0
 13 14  1  0
 15 14  1  1
 15 16  1  0
 17 28  1  0
 17 15  1  0
 18 17  2  0
 19 13  1  0
 20 10  1  0
 20 19  2  0
 21 22  1  0
 22 23  2  0
 23 24  1  0
 25 24  2  0
 25 26  1  0
 27 26  1  1
 27 29  1  0
 27 28  1  0
 29 33  1  0
 30 29  2  0
 31 25  1  0
 32 22  1  0
 32 31  2  0
M  END
$$$$
