DYY.pdb
     RDKit          3D

 33 34  0  0  1  0  0  0  0  0999 V2000
    9.1996  -19.6966   19.3164 N   0  0  0  0  0  0  0  0  0  0  0  0
    8.8914  -18.3137   19.0583 C   0  0  1  0  0  0  0  0  0  0  0  0
    7.8940  -18.1429   17.9410 C   0  0  0  0  0  0  0  0  0  0  0  0
    8.5050  -18.6660   16.6941 C   0  0  0  0  0  0  0  0  0  0  0  0
    8.8659  -17.9144   15.7636 O   0  0  0  0  0  0  0  0  0  0  0  0
    8.3458  -17.6415   20.2796 C   0  0  0  0  0  0  0  0  0  0  0  0
    7.9990  -16.4312   20.2240 O   0  0  0  0  0  0  0  0  0  0  0  0
    8.7039  -20.0355   16.5081 O   0  0  0  0  0  0  0  0  0  0  0  0
    2.0829  -19.8439   20.1985 O   0  0  0  0  0  0  0  0  0  0  0  0
    3.2293  -19.5984   20.9453 C   0  0  0  0  0  0  0  0  0  0  0  0
    3.2798  -18.4673   21.7203 C   0  0  0  0  0  0  0  0  0  0  0  0
    4.4107  -18.2219   22.4591 C   0  0  0  0  0  0  0  0  0  0  0  0
    5.4833  -19.1058   22.4204 C   0  0  0  0  0  0  0  0  0  0  0  0
    6.6551  -18.7645   23.2104 C   0  0  0  0  0  0  0  0  0  0  0  0
    7.5449  -17.6829   22.6828 C   0  0  2  0  0  0  0  0  0  0  0  0
    8.1994  -18.3032   21.5031 N   0  0  0  0  0  0  0  0  0  0  0  0
    8.6552  -17.2753   23.5593 C   0  0  0  0  0  0  0  0  0  0  0  0
    9.6440  -18.0640   23.7961 O   0  0  0  0  0  0  0  0  0  0  0  0
    5.4133  -20.2345   21.6375 C   0  0  0  0  0  0  0  0  0  0  0  0
    4.2880  -20.4762   20.9039 C   0  0  0  0  0  0  0  0  0  0  0  0
    5.2738  -12.0925   27.4950 O   0  0  0  0  0  0  0  0  0  0  0  0
    6.4410  -12.6163   26.9229 C   0  0  0  0  0  0  0  0  0  0  0  0
    7.5324  -12.8666   27.7187 C   0  0  0  0  0  0  0  0  0  0  0  0
    8.6885  -13.3808   27.1764 C   0  0  0  0  0  0  0  0  0  0  0  0
    8.8189  -13.6720   25.8150 C   0  0  0  0  0  0  0  0  0  0  0  0
   10.0645  -14.2161   25.2443 C   0  0  0  0  0  0  0  0  0  0  0  0
    9.9493  -15.7189   25.0732 C   0  0  2  0  0  0  0  0  0  0  0  0
    8.7769  -16.0146   24.2224 N   0  0  0  0  0  0  0  0  0  0  0  0
    9.7280  -16.3299   26.3789 C   0  0  0  0  0  0  0  0  0  0  0  0
    8.6276  -16.8187   26.7400 O   0  0  0  0  0  0  0  0  0  0  0  0
    7.6954  -13.4063   25.0410 C   0  0  0  0  0  0  0  0  0  0  0  0
    6.5372  -12.8919   25.5821 C   0  0  0  0  0  0  0  0  0  0  0  0
   10.7537  -16.3987   27.2993 O   0  0  0  0  0  0  0  0  0  0  0  0
  2  1  1  1
  2  3  1  0
  4  8  1  0
  4  3  1  0
  5  4  2  0
  6 16  1  0
  6  2  1  0
  7  6  2  0
  9 10  1  0
 10 11  2  0
 11 12  1  0
 13 12  2  0
 13 14  1  0
 15 14  1  1
 15 16  1  0
 17 28  1  0
 17 15  1  0
 18 17  2  0
 19 13  1  0
 20 10  1  0
 20 19  2  0
 21 22  1  0
 22 23  2  0
 23 24  1  0
 25 24  2  0
 25 26  1  0
 27 26  1  1
 27 29  1  0
 27 28  1  0
 29 33  1  0
 30 29  2  0
 31 25  1  0
 32 22  1  0
 32 31  2  0
M  END
$$$$
