DYY.pdb
     RDKit          3D

 33 34  0  0  1  0  0  0  0  0999 V2000
    8.3969  -18.8165   20.9903 N   0  0  0  0  0  0  0  0  0  0  0  0
    9.6985  -18.3482   20.5894 C   0  0  1  0  0  0  0  0  0  0  0  0
    9.8269  -18.2089   19.0939 C   0  0  0  0  0  0  0  0  0  0  0  0
    8.7980  -19.0706   18.4610 C   0  0  0  0  0  0  0  0  0  0  0  0
    7.8221  -18.5965   17.8415 O   0  0  0  0  0  0  0  0  0  0  0  0
   10.0148  -17.0239   21.2118 C   0  0  0  0  0  0  0  0  0  0  0  0
   11.1260  -16.4754   20.9820 O   0  0  0  0  0  0  0  0  0  0  0  0
    8.8798  -20.4627   18.5331 O   0  0  0  0  0  0  0  0  0  0  0  0
    7.2070  -13.0405   17.1020 O   0  0  0  0  0  0  0  0  0  0  0  0
    7.4510  -13.3456   18.4361 C   0  0  0  0  0  0  0  0  0  0  0  0
    8.3047  -12.5421   19.1491 C   0  0  0  0  0  0  0  0  0  0  0  0
    8.5478  -12.8408   20.4669 C   0  0  0  0  0  0  0  0  0  0  0  0
    7.9383  -13.9380   21.0649 C   0  0  0  0  0  0  0  0  0  0  0  0
    8.2650  -14.2039   22.4564 C   0  0  0  0  0  0  0  0  0  0  0  0
    9.4539  -15.0721   22.7264 C   0  0  2  0  0  0  0  0  0  0  0  0
    9.1209  -16.3525   22.0522 N   0  0  0  0  0  0  0  0  0  0  0  0
    9.6815  -15.4354   24.1346 C   0  0  0  0  0  0  0  0  0  0  0  0
   10.4977  -14.7690   24.8734 O   0  0  0  0  0  0  0  0  0  0  0  0
    7.0853  -14.7312   20.3334 C   0  0  0  0  0  0  0  0  0  0  0  0
    6.8453  -14.4324   19.0235 C   0  0  0  0  0  0  0  0  0  0  0  0
    6.3683  -11.0975   26.9195 O   0  0  0  0  0  0  0  0  0  0  0  0
    6.7479  -12.4465   26.9349 C   0  0  0  0  0  0  0  0  0  0  0  0
    7.9064  -12.8172   27.5729 C   0  0  0  0  0  0  0  0  0  0  0  0
    8.2972  -14.1370   27.5994 C   0  0  0  0  0  0  0  0  0  0  0  0
    7.5563  -15.1556   26.9924 C   0  0  0  0  0  0  0  0  0  0  0  0
    7.9883  -16.5649   27.0213 C   0  0  0  0  0  0  0  0  0  0  0  0
    9.2983  -16.7262   26.2739 C   0  0  2  0  0  0  0  0  0  0  0  0
    9.0545  -16.5152   24.8310 N   0  0  0  0  0  0  0  0  0  0  0  0
    9.7849  -18.0889   26.4571 C   0  0  0  0  0  0  0  0  0  0  0  0
    9.9277  -18.9086   25.5149 O   0  0  0  0  0  0  0  0  0  0  0  0
    6.3908  -14.7438   26.3567 C   0  0  0  0  0  0  0  0  0  0  0  0
    5.9979  -13.4233   26.3295 C   0  0  0  0  0  0  0  0  0  0  0  0
   10.1203  -18.5461   27.7151 O   0  0  0  0  0  0  0  0  0  0  0  0
  2  1  1  6
  2  3  1  0
  4  8  1  0
  4  3  1  0
  5  4  2  0
  6 16  1  0
  6  2  1  0
  7  6  2  0
  9 10  1  0
 10 11  2  0
 11 12  1  0
 13 12  2  0
 13 14  1  0
 15 14  1  1
 15 16  1  0
 17 28  1  0
 17 15  1  0
 18 17  2  0
 19 13  1  0
 20 10  1  0
 20 19  2  0
 21 22  1  0
 22 23  2  0
 23 24  1  0
 25 24  2  0
 25 26  1  0
 27 26  1  1
 27 29  1  0
 27 28  1  0
 29 33  1  0
 30 29  2  0
 31 25  1  0
 32 22  1  0
 32 31  2  0
M  END
$$$$
