DYY.pdb
     RDKit          3D

 33 34  0  0  1  0  0  0  0  0999 V2000
   10.2510  -17.9254   18.4218 N   0  0  0  0  0  0  0  0  0  0  0  0
   11.2282  -17.7277   19.4612 C   0  0  1  0  0  0  0  0  0  0  0  0
   12.5967  -17.4100   18.9146 C   0  0  0  0  0  0  0  0  0  0  0  0
   13.0852  -18.6003   18.1756 C   0  0  0  0  0  0  0  0  0  0  0  0
   12.8155  -19.7653   18.5372 O   0  0  0  0  0  0  0  0  0  0  0  0
   10.8237  -16.6202   20.3836 C   0  0  0  0  0  0  0  0  0  0  0  0
   11.6455  -15.7051   20.6586 O   0  0  0  0  0  0  0  0  0  0  0  0
   13.8756  -18.4649   17.0325 O   0  0  0  0  0  0  0  0  0  0  0  0
    6.8830  -12.6263   16.4648 O   0  0  0  0  0  0  0  0  0  0  0  0
    7.0679  -13.2869   17.6737 C   0  0  0  0  0  0  0  0  0  0  0  0
    7.4546  -12.5573   18.7696 C   0  0  0  0  0  0  0  0  0  0  0  0
    7.6381  -13.2068   19.9652 C   0  0  0  0  0  0  0  0  0  0  0  0
    7.4348  -14.5789   20.0602 C   0  0  0  0  0  0  0  0  0  0  0  0
    7.6735  -15.1986   21.3536 C   0  0  0  0  0  0  0  0  0  0  0  0
    9.0988  -15.3866   21.7697 C   0  0  2  0  0  0  0  0  0  0  0  0
    9.5544  -16.5495   20.9666 N   0  0  0  0  0  0  0  0  0  0  0  0
    9.3152  -15.7870   23.1696 C   0  0  0  0  0  0  0  0  0  0  0  0
    9.0225  -16.9713   23.5791 O   0  0  0  0  0  0  0  0  0  0  0  0
    7.0470  -15.2928   18.9504 C   0  0  0  0  0  0  0  0  0  0  0  0
    6.8653  -14.6448   17.7629 C   0  0  0  0  0  0  0  0  0  0  0  0
   10.9428  -16.1090   31.8731 O   0  0  0  0  0  0  0  0  0  0  0  0
   10.8608  -15.6999   30.5352 C   0  0  0  0  0  0  0  0  0  0  0  0
   10.4266  -14.4306   30.2401 C   0  0  0  0  0  0  0  0  0  0  0  0
   10.3387  -14.0092   28.9325 C   0  0  0  0  0  0  0  0  0  0  0  0
   10.6776  -14.8286   27.8513 C   0  0  0  0  0  0  0  0  0  0  0  0
   10.5728  -14.3687   26.4545 C   0  0  0  0  0  0  0  0  0  0  0  0
    9.9211  -15.4382   25.5987 C   0  0  2  0  0  0  0  0  0  0  0  0
    9.8558  -14.9585   24.2018 N   0  0  0  0  0  0  0  0  0  0  0  0
    8.5575  -15.6561   26.0678 C   0  0  0  0  0  0  0  0  0  0  0  0
    7.5772  -14.9589   25.7030 O   0  0  0  0  0  0  0  0  0  0  0  0
   11.1126  -16.1051   28.1875 C   0  0  0  0  0  0  0  0  0  0  0  0
   11.2015  -16.5285   29.4958 C   0  0  0  0  0  0  0  0  0  0  0  0
    8.2809  -16.6721   26.9596 O   0  0  0  0  0  0  0  0  0  0  0  0
  2  1  1  6
  2  3  1  0
  4  8  1  0
  4  3  1  0
  5  4  2  0
  6 16  1  0
  6  2  1  0
  7  6  2  0
  9 10  1  0
 10 11  2  0
 11 12  1  0
 13 12  2  0
 13 14  1  0
 15 14  1  1
 15 16  1  0
 17 28  1  0
 17 15  1  0
 18 17  2  0
 19 13  1  0
 20 10  1  0
 20 19  2  0
 21 22  1  0
 22 23  2  0
 23 24  1  0
 25 24  2  0
 25 26  1  0
 27 26  1  1
 27 29  1  0
 27 28  1  0
 29 33  1  0
 30 29  2  0
 31 25  1  0
 32 22  1  0
 32 31  2  0
M  END
$$$$
