DYY.pdb
     RDKit          3D

 33 34  0  0  1  0  0  0  0  0999 V2000
   12.5566  -15.0200   16.1104 N   0  0  0  0  0  0  0  0  0  0  0  0
   12.3348  -16.0702   17.0707 C   0  0  1  0  0  0  0  0  0  0  0  0
   13.5401  -16.9591   17.2433 C   0  0  0  0  0  0  0  0  0  0  0  0
   13.5154  -17.9823   16.1690 C   0  0  0  0  0  0  0  0  0  0  0  0
   13.0238  -17.7540   15.0434 O   0  0  0  0  0  0  0  0  0  0  0  0
   11.9686  -15.5126   18.4108 C   0  0  0  0  0  0  0  0  0  0  0  0
   12.5631  -14.4897   18.8452 O   0  0  0  0  0  0  0  0  0  0  0  0
   14.0470  -19.2570   16.3751 O   0  0  0  0  0  0  0  0  0  0  0  0
    6.2704  -12.2655   17.1494 O   0  0  0  0  0  0  0  0  0  0  0  0
    6.9686  -13.1285   17.9860 C   0  0  0  0  0  0  0  0  0  0  0  0
    7.3954  -12.6622   19.2039 C   0  0  0  0  0  0  0  0  0  0  0  0
    8.0853  -13.5121   20.0325 C   0  0  0  0  0  0  0  0  0  0  0  0
    8.3449  -14.8209   19.6417 C   0  0  0  0  0  0  0  0  0  0  0  0
    9.1026  -15.6522   20.5629 C   0  0  0  0  0  0  0  0  0  0  0  0
   10.5930  -15.5179   20.5382 C   0  0  2  0  0  0  0  0  0  0  0  0
   10.9802  -16.0818   19.2203 N   0  0  0  0  0  0  0  0  0  0  0  0
   11.3302  -16.3243   21.5248 C   0  0  0  0  0  0  0  0  0  0  0  0
   11.3266  -17.6101   21.4741 O   0  0  0  0  0  0  0  0  0  0  0  0
    7.9085  -15.2697   18.4169 C   0  0  0  0  0  0  0  0  0  0  0  0
    7.2230  -14.4229   17.5949 C   0  0  0  0  0  0  0  0  0  0  0  0
   16.9656  -14.4075   19.0227 O   0  0  0  0  0  0  0  0  0  0  0  0
   16.2860  -14.7771   20.1912 C   0  0  0  0  0  0  0  0  0  0  0  0
   16.5885  -15.9694   20.8027 C   0  0  0  0  0  0  0  0  0  0  0  0
   15.9325  -16.3511   21.9512 C   0  0  0  0  0  0  0  0  0  0  0  0
   14.9417  -15.5671   22.5503 C   0  0  0  0  0  0  0  0  0  0  0  0
   14.2409  -15.9894   23.7766 C   0  0  0  0  0  0  0  0  0  0  0  0
   12.9547  -16.7114   23.4224 C   0  0  2  0  0  0  0  0  0  0  0  0
   12.1104  -15.8117   22.6077 N   0  0  0  0  0  0  0  0  0  0  0  0
   12.2318  -17.0237   24.6499 C   0  0  0  0  0  0  0  0  0  0  0  0
   11.1096  -16.5365   24.9388 O   0  0  0  0  0  0  0  0  0  0  0  0
   14.6622  -14.3684   21.9046 C   0  0  0  0  0  0  0  0  0  0  0  0
   15.3180  -13.9846   20.7551 C   0  0  0  0  0  0  0  0  0  0  0  0
   12.7697  -17.8972   25.5727 O   0  0  0  0  0  0  0  0  0  0  0  0
  2  1  1  6
  2  3  1  0
  4  8  1  0
  4  3  1  0
  5  4  2  0
  6 16  1  0
  6  2  1  0
  7  6  2  0
  9 10  1  0
 10 11  2  0
 11 12  1  0
 13 12  2  0
 13 14  1  0
 15 14  1  1
 15 16  1  0
 17 28  1  0
 17 15  1  0
 18 17  2  0
 19 13  1  0
 20 10  1  0
 20 19  2  0
 21 22  1  0
 22 23  2  0
 23 24  1  0
 25 24  2  0
 25 26  1  0
 27 26  1  1
 27 29  1  0
 27 28  1  0
 29 33  1  0
 30 29  2  0
 31 25  1  0
 32 22  1  0
 32 31  2  0
M  END
$$$$
