DYY.pdb
     RDKit          3D

 33 34  0  0  1  0  0  0  0  0999 V2000
    8.6902  -18.6575   18.9388 N   0  0  0  0  0  0  0  0  0  0  0  0
    9.9445  -18.1792   18.4171 C   0  0  1  0  0  0  0  0  0  0  0  0
    9.8056  -17.5733   17.0438 C   0  0  0  0  0  0  0  0  0  0  0  0
    9.2978  -18.6231   16.1264 C   0  0  0  0  0  0  0  0  0  0  0  0
    8.9707  -19.7590   16.5306 O   0  0  0  0  0  0  0  0  0  0  0  0
   10.5535  -17.1538   19.3219 C   0  0  0  0  0  0  0  0  0  0  0  0
   11.6406  -16.6034   18.9997 O   0  0  0  0  0  0  0  0  0  0  0  0
    9.1635  -18.3810   14.7577 O   0  0  0  0  0  0  0  0  0  0  0  0
    6.6327  -12.0367   17.9652 O   0  0  0  0  0  0  0  0  0  0  0  0
    7.3458  -12.7435   18.9264 C   0  0  0  0  0  0  0  0  0  0  0  0
    6.7211  -13.7731   19.5841 C   0  0  0  0  0  0  0  0  0  0  0  0
    7.4227  -14.4731   20.5342 C   0  0  0  0  0  0  0  0  0  0  0  0
    8.7421  -14.1423   20.8220 C   0  0  0  0  0  0  0  0  0  0  0  0
    9.4103  -14.9132   21.8578 C   0  0  0  0  0  0  0  0  0  0  0  0
   10.5695  -15.7621   21.4387 C   0  0  2  0  0  0  0  0  0  0  0  0
    9.9644  -16.7691   20.5307 N   0  0  0  0  0  0  0  0  0  0  0  0
   11.2102  -16.5512   22.5036 C   0  0  0  0  0  0  0  0  0  0  0  0
   10.5140  -17.1261   23.4205 O   0  0  0  0  0  0  0  0  0  0  0  0
    9.3509  -13.1070   20.1517 C   0  0  0  0  0  0  0  0  0  0  0  0
    8.6514  -12.4125   19.2077 C   0  0  0  0  0  0  0  0  0  0  0  0
    9.3177  -22.1773   21.5071 O   0  0  0  0  0  0  0  0  0  0  0  0
   10.3901  -21.3673   21.9046 C   0  0  0  0  0  0  0  0  0  0  0  0
   10.7568  -21.3297   23.2278 C   0  0  0  0  0  0  0  0  0  0  0  0
   11.8072  -20.5404   23.6389 C   0  0  0  0  0  0  0  0  0  0  0  0
   12.5463  -19.7479   22.7554 C   0  0  0  0  0  0  0  0  0  0  0  0
   13.6651  -18.9012   23.2083 C   0  0  0  0  0  0  0  0  0  0  0  0
   13.1388  -17.5914   23.7637 C   0  0  2  0  0  0  0  0  0  0  0  0
   12.6148  -16.7752   22.6478 N   0  0  0  0  0  0  0  0  0  0  0  0
   14.2396  -16.8612   24.3818 C   0  0  0  0  0  0  0  0  0  0  0  0
   14.8263  -17.2417   25.4264 O   0  0  0  0  0  0  0  0  0  0  0  0
   12.1474  -19.8111   21.4255 C   0  0  0  0  0  0  0  0  0  0  0  0
   11.0965  -20.6007   21.0121 C   0  0  0  0  0  0  0  0  0  0  0  0
   14.6962  -15.6847   23.8238 O   0  0  0  0  0  0  0  0  0  0  0  0
  2  1  1  1
  2  3  1  0
  4  8  1  0
  4  3  1  0
  5  4  2  0
  6 16  1  0
  6  2  1  0
  7  6  2  0
  9 10  1  0
 10 11  2  0
 11 12  1  0
 13 12  2  0
 13 14  1  0
 15 14  1  1
 15 16  1  0
 17 28  1  0
 17 15  1  0
 18 17  2  0
 19 13  1  0
 20 10  1  0
 20 19  2  0
 21 22  1  0
 22 23  2  0
 23 24  1  0
 25 24  2  0
 25 26  1  0
 27 26  1  6
 27 29  1  0
 27 28  1  0
 29 33  1  0
 30 29  2  0
 31 25  1  0
 32 22  1  0
 32 31  2  0
M  END
$$$$
