HTW.pdb
     RDKit          3D

 32 34  0  0  1  0  0  0  0  0999 V2000
   25.4707  -16.8343  -16.6378 N   0  0  0  0  0  0  0  0  0  0  0  0
   25.8236  -16.5714  -15.2346 C   0  0  1  0  0  0  0  0  0  0  0  0
   25.1394  -15.2463  -14.9075 C   0  0  0  0  0  0  0  0  0  0  0  0
   25.7596  -14.1465  -15.6899 C   0  0  0  0  0  0  0  0  0  0  0  0
   26.8073  -14.2041  -16.5789 C   0  0  0  0  0  0  0  0  0  0  0  0
   27.0610  -12.9739  -17.0735 N   0  0  0  0  0  0  0  0  0  0  0  0
   26.1780  -12.1308  -16.5027 C   0  0  0  0  0  0  0  0  0  0  0  0
   25.3956  -12.8371  -15.6706 N   0  0  0  0  0  0  0  0  0  0  0  0
   25.2725  -17.6675  -14.3970 C   0  0  0  0  0  0  0  0  0  0  0  0
   24.1617  -18.1665  -14.7133 O   0  0  0  0  0  0  0  0  0  0  0  0
   27.8171  -20.1045  -14.1808 C   0  0  0  0  0  0  0  0  0  0  0  0
   26.3860  -20.4972  -13.8807 C   0  0  1  0  0  0  0  0  0  0  0  0
   26.2637  -21.8123  -13.5055 O   0  0  0  0  0  0  0  0  0  0  0  0
   25.8836  -19.5344  -12.8123 C   0  0  2  0  0  0  0  0  0  0  0  0
   25.9509  -18.1659  -13.2632 N   0  0  0  0  0  0  0  0  0  0  0  0
   26.5922  -19.7566  -11.5429 C   0  0  0  0  0  0  0  0  0  0  0  0
   27.8206  -19.5297  -11.3959 O   0  0  0  0  0  0  0  0  0  0  0  0
   25.8754  -20.2498  -10.4192 N   0  0  0  0  0  0  0  0  0  0  0  0
   26.4900  -21.0076   -9.3505 C   0  0  1  0  0  0  0  0  0  0  0  0
   25.9048  -20.6184   -7.9955 C   0  0  0  0  0  0  0  0  0  0  0  0
   26.8312  -19.6731   -7.3194 C   0  0  0  0  0  0  0  0  0  0  0  0
   27.1104  -18.3566   -7.6601 C   0  0  0  0  0  0  0  0  0  0  0  0
   27.9911  -17.8530   -6.8088 N   0  0  0  0  0  0  0  0  0  0  0  0
   28.3401  -18.7848   -5.8742 C   0  0  0  0  0  0  0  0  0  0  0  0
   29.1969  -18.7743   -4.7933 C   0  0  0  0  0  0  0  0  0  0  0  0
   29.3605  -19.8886   -3.9986 C   0  0  0  0  0  0  0  0  0  0  0  0
   28.6319  -21.0155   -4.3283 C   0  0  0  0  0  0  0  0  0  0  0  0
   27.7729  -21.0352   -5.4069 C   0  0  0  0  0  0  0  0  0  0  0  0
   27.6138  -19.9111   -6.2010 C   0  0  0  0  0  0  0  0  0  0  0  0
   26.3851  -22.4631   -9.5711 C   0  0  0  0  0  0  0  0  0  0  0  0
   25.3152  -22.9470  -10.0610 O   0  0  0  0  0  0  0  0  0  0  0  0
   27.3938  -23.3636   -9.2758 O   0  0  0  0  0  0  0  0  0  0  0  0
  2  3  1  0
  2  1  1  6
  4  5  2  0
  4  3  1  0
  6  5  1  0
  7  8  2  0
  7  6  1  0
  8  4  1  0
  9  2  1  0
 10  9  2  0
 12 14  1  0
 12 11  1  1
 13 12  1  0
 14 15  1  6
 15  9  1  0
 16 14  1  0
 16 17  2  0
 18 16  1  0
 19 18  1  0
 19 20  1  1
 21 20  1  0
 21 22  2  0
 23 22  1  0
 24 23  1  0
 25 24  2  0
 26 25  1  0
 27 26  2  0
 27 28  1  0
 28 29  2  0
 29 24  1  0
 29 21  1  0
 30 19  1  0
 31 30  2  0
 32 30  1  0
M  END
$$$$
