HTW.pdb
     RDKit          3D

 32 34  0  0  1  0  0  0  0  0999 V2000
   26.6306  -17.4831  -17.9032 N   0  0  0  0  0  0  0  0  0  0  0  0
   27.1563  -18.3087  -16.8056 C   0  0  1  0  0  0  0  0  0  0  0  0
   27.9383  -17.3323  -15.9302 C   0  0  0  0  0  0  0  0  0  0  0  0
   29.1317  -16.8359  -16.6621 C   0  0  0  0  0  0  0  0  0  0  0  0
   30.1822  -17.5519  -17.1865 C   0  0  0  0  0  0  0  0  0  0  0  0
   31.0633  -16.7150  -17.7742 N   0  0  0  0  0  0  0  0  0  0  0  0
   30.5783  -15.4664  -17.6266 C   0  0  0  0  0  0  0  0  0  0  0  0
   29.4163  -15.5400  -16.9575 N   0  0  0  0  0  0  0  0  0  0  0  0
   26.0091  -18.8824  -16.0565 C   0  0  0  0  0  0  0  0  0  0  0  0
   25.1035  -18.1065  -15.6553 O   0  0  0  0  0  0  0  0  0  0  0  0
   22.9742  -22.4875  -15.1180 C   0  0  0  0  0  0  0  0  0  0  0  0
   24.2024  -22.0271  -15.8742 C   0  0  1  0  0  0  0  0  0  0  0  0
   23.9288  -21.6900  -17.1768 O   0  0  0  0  0  0  0  0  0  0  0  0
   24.7946  -20.8686  -15.0816 C   0  0  2  0  0  0  0  0  0  0  0  0
   25.9013  -20.2633  -15.7812 N   0  0  0  0  0  0  0  0  0  0  0  0
   25.1426  -21.2996  -13.7193 C   0  0  0  0  0  0  0  0  0  0  0  0
   26.3268  -21.5037  -13.3475 O   0  0  0  0  0  0  0  0  0  0  0  0
   24.1095  -21.5007  -12.7643 N   0  0  0  0  0  0  0  0  0  0  0  0
   24.2380  -21.1552  -11.3650 C   0  0  1  0  0  0  0  0  0  0  0  0
   25.1815  -19.9701  -11.1772 C   0  0  0  0  0  0  0  0  0  0  0  0
   26.4622  -20.4552  -10.5997 C   0  0  0  0  0  0  0  0  0  0  0  0
   27.4894  -21.1325  -11.2426 C   0  0  0  0  0  0  0  0  0  0  0  0
   28.4613  -21.3902  -10.3808 N   0  0  0  0  0  0  0  0  0  0  0  0
   28.1433  -20.9100   -9.1432 C   0  0  0  0  0  0  0  0  0  0  0  0
   28.7906  -20.9142   -7.9251 C   0  0  0  0  0  0  0  0  0  0  0  0
   28.2200  -20.3409   -6.8092 C   0  0  0  0  0  0  0  0  0  0  0  0
   26.9742  -19.7622   -6.9598 C   0  0  0  0  0  0  0  0  0  0  0  0
   26.3196  -19.7531   -8.1735 C   0  0  0  0  0  0  0  0  0  0  0  0
   26.8998  -20.3314   -9.2909 C   0  0  0  0  0  0  0  0  0  0  0  0
   22.9291  -20.8912  -10.7363 C   0  0  0  0  0  0  0  0  0  0  0  0
   22.8289  -20.9057   -9.4681 O   0  0  0  0  0  0  0  0  0  0  0  0
   21.7718  -20.6215  -11.4461 O   0  0  0  0  0  0  0  0  0  0  0  0
  2  3  1  0
  2  1  1  6
  4  5  2  0
  4  3  1  0
  6  5  1  0
  7  8  2  0
  7  6  1  0
  8  4  1  0
  9  2  1  0
 10  9  2  0
 12 14  1  0
 12 11  1  1
 13 12  1  0
 14 15  1  6
 15  9  1  0
 16 14  1  0
 16 17  2  0
 18 16  1  0
 19 18  1  0
 19 20  1  6
 21 20  1  0
 21 22  2  0
 23 22  1  0
 24 23  1  0
 25 24  2  0
 26 25  1  0
 27 26  2  0
 27 28  1  0
 28 29  2  0
 29 24  1  0
 29 21  1  0
 30 19  1  0
 31 30  2  0
 32 30  1  0
M  END
$$$$
