HTW.pdb
     RDKit          3D

 32 34  0  0  1  0  0  0  0  0999 V2000
   42.7808  -72.6750  -40.2956 N   0  0  0  0  0  0  0  0  0  0  0  0
   44.0788  -72.1687  -40.7663 C   0  0  1  0  0  0  0  0  0  0  0  0
   44.1470  -70.7369  -40.2406 C   0  0  0  0  0  0  0  0  0  0  0  0
   44.7423  -69.8451  -41.2684 C   0  0  0  0  0  0  0  0  0  0  0  0
   44.6974  -69.9565  -42.6384 C   0  0  0  0  0  0  0  0  0  0  0  0
   45.3700  -68.9334  -43.2069 N   0  0  0  0  0  0  0  0  0  0  0  0
   45.8443  -68.1689  -42.2035 C   0  0  0  0  0  0  0  0  0  0  0  0
   45.4662  -68.7179  -41.0378 N   0  0  0  0  0  0  0  0  0  0  0  0
   45.1541  -72.9998  -40.1668 C   0  0  0  0  0  0  0  0  0  0  0  0
   46.1363  -73.3222  -40.8839 O   0  0  0  0  0  0  0  0  0  0  0  0
   46.7588  -76.6782  -38.1810 C   0  0  0  0  0  0  0  0  0  0  0  0
   46.6216  -75.1815  -37.9983 C   0  0  1  0  0  0  0  0  0  0  0  0
   47.5734  -74.4728  -38.6890 O   0  0  0  0  0  0  0  0  0  0  0  0
   45.2026  -74.8184  -38.4173 C   0  0  2  0  0  0  0  0  0  0  0  0
   45.1110  -73.4378  -38.8250 N   0  0  0  0  0  0  0  0  0  0  0  0
   44.2456  -75.1693  -37.3573 C   0  0  0  0  0  0  0  0  0  0  0  0
   43.3475  -74.3839  -36.9585 O   0  0  0  0  0  0  0  0  0  0  0  0
   44.3215  -76.4481  -36.7420 N   0  0  0  0  0  0  0  0  0  0  0  0
   43.2665  -77.4354  -36.8206 C   0  0  1  0  0  0  0  0  0  0  0  0
   43.2768  -78.1423  -38.1734 C   0  0  0  0  0  0  0  0  0  0  0  0
   43.2618  -79.6122  -37.9538 C   0  0  0  0  0  0  0  0  0  0  0  0
   43.6835  -80.6118  -38.8198 C   0  0  0  0  0  0  0  0  0  0  0  0
   43.5060  -81.7959  -38.2541 N   0  0  0  0  0  0  0  0  0  0  0  0
   42.9681  -81.6549  -37.0074 C   0  0  0  0  0  0  0  0  0  0  0  0
   42.5970  -82.5481  -36.0240 C   0  0  0  0  0  0  0  0  0  0  0  0
   42.0647  -82.1161  -34.8282 C   0  0  0  0  0  0  0  0  0  0  0  0
   41.9179  -80.7531  -34.6547 C   0  0  0  0  0  0  0  0  0  0  0  0
   42.2861  -79.8527  -35.6321 C   0  0  0  0  0  0  0  0  0  0  0  0
   42.8206  -80.2946  -36.8315 C   0  0  0  0  0  0  0  0  0  0  0  0
   43.3367  -78.4114  -35.7157 C   0  0  0  0  0  0  0  0  0  0  0  0
   42.2625  -78.8090  -35.1619 O   0  0  0  0  0  0  0  0  0  0  0  0
   44.5185  -78.9394  -35.2256 O   0  0  0  0  0  0  0  0  0  0  0  0
  2  3  1  0
  2  1  1  1
  4  5  2  0
  4  3  1  0
  6  5  1  0
  7  8  2  0
  7  6  1  0
  8  4  1  0
  9  2  1  0
 10  9  2  0
 12 14  1  0
 12 11  1  6
 13 12  1  0
 14 15  1  1
 15  9  1  0
 16 14  1  0
 16 17  2  0
 18 16  1  0
 19 18  1  0
 19 20  1  6
 21 20  1  0
 21 22  2  0
 23 22  1  0
 24 23  1  0
 25 24  2  0
 26 25  1  0
 27 26  2  0
 27 28  1  0
 28 29  2  0
 29 24  1  0
 29 21  1  0
 30 19  1  0
 31 30  2  0
 32 30  1  0
M  END
$$$$
