HTW.pdb
     RDKit          3D

 32 34  0  0  1  0  0  0  0  0999 V2000
   21.9531  -16.4451  -19.6543 N   0  0  0  0  0  0  0  0  0  0  0  0
   23.3692  -16.6659  -19.3251 C   0  0  1  0  0  0  0  0  0  0  0  0
   23.8615  -15.3132  -18.8162 C   0  0  0  0  0  0  0  0  0  0  0  0
   24.2607  -14.4536  -19.9600 C   0  0  0  0  0  0  0  0  0  0  0  0
   24.2001  -14.7259  -21.3066 C   0  0  0  0  0  0  0  0  0  0  0  0
   24.6639  -13.6724  -22.0118 N   0  0  0  0  0  0  0  0  0  0  0  0
   25.0205  -12.7280  -21.1189 C   0  0  0  0  0  0  0  0  0  0  0  0
   24.7775  -13.1987  -19.8850 N   0  0  0  0  0  0  0  0  0  0  0  0
   23.4494  -17.6909  -18.2530 C   0  0  0  0  0  0  0  0  0  0  0  0
   22.6187  -17.6412  -17.3093 O   0  0  0  0  0  0  0  0  0  0  0  0
   22.9684  -21.1944  -18.3501 C   0  0  0  0  0  0  0  0  0  0  0  0
   24.3763  -21.1213  -17.7979 C   0  0  1  0  0  0  0  0  0  0  0  0
   25.3308  -21.4340  -18.7341 O   0  0  0  0  0  0  0  0  0  0  0  0
   24.5506  -19.7185  -17.2300 C   0  0  2  0  0  0  0  0  0  0  0  0
   24.4220  -18.7146  -18.2578 N   0  0  0  0  0  0  0  0  0  0  0  0
   25.8131  -19.6172  -16.4826 C   0  0  0  0  0  0  0  0  0  0  0  0
   26.7269  -18.8090  -16.7891 O   0  0  0  0  0  0  0  0  0  0  0  0
   26.0310  -20.4617  -15.3605 N   0  0  0  0  0  0  0  0  0  0  0  0
   27.2280  -20.4170  -14.5487 C   0  0  1  0  0  0  0  0  0  0  0  0
   27.0842  -19.4050  -13.4150 C   0  0  0  0  0  0  0  0  0  0  0  0
   26.1228  -19.9325  -12.4118 C   0  0  0  0  0  0  0  0  0  0  0  0
   26.3997  -20.6385  -11.2490 C   0  0  0  0  0  0  0  0  0  0  0  0
   25.2688  -20.9304  -10.6247 N   0  0  0  0  0  0  0  0  0  0  0  0
   24.1991  -20.4462  -11.3210 C   0  0  0  0  0  0  0  0  0  0  0  0
   22.8357  -20.4763  -11.1138 C   0  0  0  0  0  0  0  0  0  0  0  0
   21.9629  -19.8906  -12.0055 C   0  0  0  0  0  0  0  0  0  0  0  0
   22.5086  -19.2726  -13.1145 C   0  0  0  0  0  0  0  0  0  0  0  0
   23.8702  -19.2375  -13.3298 C   0  0  0  0  0  0  0  0  0  0  0  0
   24.7412  -19.8285  -12.4289 C   0  0  0  0  0  0  0  0  0  0  0  0
   27.5924  -21.7475  -14.0240 C   0  0  0  0  0  0  0  0  0  0  0  0
   26.7675  -22.7103  -14.1302 O   0  0  0  0  0  0  0  0  0  0  0  0
   28.7992  -22.0309  -13.4083 O   0  0  0  0  0  0  0  0  0  0  0  0
  2  3  1  0
  2  1  1  1
  4  5  2  0
  4  3  1  0
  6  5  1  0
  7  8  2  0
  7  6  1  0
  8  4  1  0
  9  2  1  0
 10  9  2  0
 12 14  1  0
 12 11  1  6
 13 12  1  0
 14 15  1  6
 15  9  1  0
 16 14  1  0
 16 17  2  0
 18 16  1  0
 19 18  1  0
 19 20  1  1
 21 20  1  0
 21 22  2  0
 23 22  1  0
 24 23  1  0
 25 24  2  0
 26 25  1  0
 27 26  2  0
 27 28  1  0
 28 29  2  0
 29 24  1  0
 29 21  1  0
 30 19  1  0
 31 30  2  0
 32 30  1  0
M  END
$$$$
