HTW.pdb
     RDKit          3D

 32 34  0  0  1  0  0  0  0  0999 V2000
   28.9867  -21.2818  -18.4268 N   0  0  0  0  0  0  0  0  0  0  0  0
   27.8070  -21.3608  -17.5525 C   0  0  1  0  0  0  0  0  0  0  0  0
   27.2230  -22.7461  -17.8185 C   0  0  0  0  0  0  0  0  0  0  0  0
   26.4044  -22.7241  -19.0577 C   0  0  0  0  0  0  0  0  0  0  0  0
   25.0486  -22.5377  -19.1933 C   0  0  0  0  0  0  0  0  0  0  0  0
   24.7036  -22.5909  -20.4973 N   0  0  0  0  0  0  0  0  0  0  0  0
   25.8356  -22.8107  -21.1949 C   0  0  0  0  0  0  0  0  0  0  0  0
   26.8581  -22.8906  -20.3281 N   0  0  0  0  0  0  0  0  0  0  0  0
   28.2573  -21.2429  -16.1419 C   0  0  0  0  0  0  0  0  0  0  0  0
   29.4671  -20.9814  -15.9160 O   0  0  0  0  0  0  0  0  0  0  0  0
   28.5797  -18.8855  -15.0181 C   0  0  0  0  0  0  0  0  0  0  0  0
   27.4608  -19.1818  -14.0421 C   0  0  1  0  0  0  0  0  0  0  0  0
   26.2415  -18.7245  -14.4773 O   0  0  0  0  0  0  0  0  0  0  0  0
   27.4721  -20.6872  -13.8085 C   0  0  2  0  0  0  0  0  0  0  0  0
   27.3769  -21.4135  -15.0511 N   0  0  0  0  0  0  0  0  0  0  0  0
   26.4328  -21.0671  -12.8398 C   0  0  0  0  0  0  0  0  0  0  0  0
   25.2470  -21.3223  -13.1730 O   0  0  0  0  0  0  0  0  0  0  0  0
   26.7617  -21.1555  -11.4601 N   0  0  0  0  0  0  0  0  0  0  0  0
   25.8220  -21.5696  -10.4406 C   0  0  1  0  0  0  0  0  0  0  0  0
   26.5418  -21.9187   -9.1406 C   0  0  0  0  0  0  0  0  0  0  0  0
   26.8474  -20.6653   -8.4026 C   0  0  0  0  0  0  0  0  0  0  0  0
   26.2055  -19.4380   -8.4964 C   0  0  0  0  0  0  0  0  0  0  0  0
   26.7771  -18.5719   -7.6737 N   0  0  0  0  0  0  0  0  0  0  0  0
   27.8089  -19.1602   -7.0009 C   0  0  0  0  0  0  0  0  0  0  0  0
   28.7063  -18.7123   -6.0540 C   0  0  0  0  0  0  0  0  0  0  0  0
   29.6719  -19.5460   -5.5318 C   0  0  0  0  0  0  0  0  0  0  0  0
   29.7044  -20.8475   -5.9950 C   0  0  0  0  0  0  0  0  0  0  0  0
   28.8113  -21.3041   -6.9414 C   0  0  0  0  0  0  0  0  0  0  0  0
   27.8435  -20.4601   -7.4615 C   0  0  0  0  0  0  0  0  0  0  0  0
   24.7746  -20.5564  -10.2070 C   0  0  0  0  0  0  0  0  0  0  0  0
   24.9637  -19.3592  -10.5942 O   0  0  0  0  0  0  0  0  0  0  0  0
   23.5693  -20.8218   -9.5806 O   0  0  0  0  0  0  0  0  0  0  0  0
  2  3  1  0
  2  1  1  6
  4  5  2  0
  4  3  1  0
  6  5  1  0
  7  8  2  0
  7  6  1  0
  8  4  1  0
  9  2  1  0
 10  9  2  0
 12 14  1  0
 12 11  1  6
 13 12  1  0
 14 15  1  6
 15  9  1  0
 16 14  1  0
 16 17  2  0
 18 16  1  0
 19 18  1  0
 19 20  1  1
 21 20  1  0
 21 22  2  0
 23 22  1  0
 24 23  1  0
 25 24  2  0
 26 25  1  0
 27 26  2  0
 27 28  1  0
 28 29  2  0
 29 24  1  0
 29 21  1  0
 30 19  1  0
 31 30  2  0
 32 30  1  0
M  END
$$$$
