CTN.pdb
     RDKit          3D

 22 21  0  0  1  0  0  0  0  0999 V2000
    4.9006  -13.1463   26.2522 N   0  0  0  0  0  0  0  0  0  0  0  0
    6.1716  -12.7878   25.6951 C   0  0  1  0  0  0  0  0  0  0  0  0
    6.9510  -12.0115   26.7408 C   0  0  0  0  0  0  0  0  0  0  0  0
    8.5666  -11.4927   26.1056 S   0  0  0  0  0  0  0  0  0  0  0  0
    6.9815  -13.9574   25.2914 C   0  0  0  0  0  0  0  0  0  0  0  0
    7.1122  -14.8765   26.1547 O   0  0  0  0  0  0  0  0  0  0  0  0
    7.3283  -15.1268   21.4007 C   0  0  0  0  0  0  0  0  0  0  0  0
    8.5842  -15.3828   22.1997 C   0  0  1  0  0  0  0  0  0  0  0  0
    9.6092  -14.5005   21.8302 O   0  0  0  0  0  0  0  0  0  0  0  0
    8.3684  -15.3011   23.6732 C   0  0  2  0  0  0  0  0  0  0  0  0
    7.6094  -14.1354   24.0525 N   0  0  0  0  0  0  0  0  0  0  0  0
    9.6184  -15.4326   24.4603 C   0  0  0  0  0  0  0  0  0  0  0  0
   10.1621  -14.4175   24.9634 O   0  0  0  0  0  0  0  0  0  0  0  0
   10.6744  -14.7316   28.5013 N   0  0  0  0  0  0  0  0  0  0  0  0
   10.9734  -16.0828   28.1071 C   0  0  0  0  0  0  0  0  0  0  0  0
   11.9049  -16.6246   28.7207 O   0  0  0  0  0  0  0  0  0  0  0  0
   10.2252  -16.7709   27.0506 C   0  0  0  0  0  0  0  0  0  0  0  0
   11.0221  -16.9529   25.8063 C   0  0  2  0  0  0  0  0  0  0  0  0
   10.1672  -16.7240   24.6206 N   0  0  0  0  0  0  0  0  0  0  0  0
   11.4625  -18.3909   25.7179 C   0  0  0  0  0  0  0  0  0  0  0  0
   10.8969  -19.1797   24.8765 O   0  0  0  0  0  0  0  0  0  0  0  0
   12.4636  -18.8391   26.5370 O   0  0  0  0  0  0  0  0  0  0  0  0
  2  1  1  1
  2  5  1  0
  3  2  1  0
  4  3  1  0
  5  6  2  0
  8  7  1  6
  8  9  1  0
  8 10  1  0
 10 12  1  0
 11  5  1  0
 10 11  1  6
 12 19  1  0
 13 12  2  0
 15 14  1  0
 16 15  2  0
 17 15  1  0
 18 17  1  1
 19 18  1  0
 20 18  1  0
 20 22  1  0
 21 20  2  0
M  END
$$$$
