CTN.pdb
     RDKit          3D

 22 21  0  0  1  0  0  0  0  0999 V2000
   11.5556  -14.7418   14.8879 N   0  0  0  0  0  0  0  0  0  0  0  0
   11.0226  -15.7107   15.7998 C   0  0  1  0  0  0  0  0  0  0  0  0
   11.9409  -16.9190   15.8054 C   0  0  0  0  0  0  0  0  0  0  0  0
   11.3820  -18.1641   16.9970 S   0  0  0  0  0  0  0  0  0  0  0  0
   10.9145  -15.2081   17.1863 C   0  0  0  0  0  0  0  0  0  0  0  0
   11.9606  -14.6901   17.6804 O   0  0  0  0  0  0  0  0  0  0  0  0
    7.6863  -13.2922   18.8606 C   0  0  0  0  0  0  0  0  0  0  0  0
    8.2842  -14.3840   19.7161 C   0  0  1  0  0  0  0  0  0  0  0  0
    7.4938  -15.5416   19.6867 O   0  0  0  0  0  0  0  0  0  0  0  0
    9.6831  -14.7301   19.3318 C   0  0  2  0  0  0  0  0  0  0  0  0
    9.7697  -15.2546   17.9915 N   0  0  0  0  0  0  0  0  0  0  0  0
   10.3664  -15.6030   20.3170 C   0  0  0  0  0  0  0  0  0  0  0  0
   10.7998  -16.7312   19.9732 O   0  0  0  0  0  0  0  0  0  0  0  0
    8.7475  -15.3101   23.8317 N   0  0  0  0  0  0  0  0  0  0  0  0
    9.9801  -15.0350   24.5212 C   0  0  0  0  0  0  0  0  0  0  0  0
    9.8611  -14.5264   25.6459 O   0  0  0  0  0  0  0  0  0  0  0  0
   11.2880  -15.3369   23.9315 C   0  0  0  0  0  0  0  0  0  0  0  0
   11.1809  -16.0150   22.6105 C   0  0  2  0  0  0  0  0  0  0  0  0
   10.5093  -15.1247   21.6382 N   0  0  0  0  0  0  0  0  0  0  0  0
   10.2803  -17.2144   22.7521 C   0  0  0  0  0  0  0  0  0  0  0  0
   10.5839  -18.1443   23.5847 O   0  0  0  0  0  0  0  0  0  0  0  0
    9.1461  -17.2973   21.9900 O   0  0  0  0  0  0  0  0  0  0  0  0
  2  1  1  6
  2  5  1  0
  3  2  1  0
  4  3  1  0
  5  6  2  0
  8  7  1  6
  8  9  1  0
  8 10  1  0
 10 12  1  0
 11  5  1  0
 10 11  1  6
 12 19  1  0
 13 12  2  0
 15 14  1  0
 16 15  2  0
 17 15  1  0
 18 17  1  1
 19 18  1  0
 20 18  1  0
 20 22  1  0
 21 20  2  0
M  END
$$$$
