CTN.pdb
     RDKit          3D

 22 21  0  0  1  0  0  0  0  0999 V2000
   10.7060  -15.2390   14.4779 N   0  0  0  0  0  0  0  0  0  0  0  0
    9.8830  -15.7941   15.5118 C   0  0  1  0  0  0  0  0  0  0  0  0
   10.1599  -17.2839   15.5963 C   0  0  0  0  0  0  0  0  0  0  0  0
   11.8034  -17.6090   16.2862 S   0  0  0  0  0  0  0  0  0  0  0  0
   10.1403  -15.2017   16.8421 C   0  0  0  0  0  0  0  0  0  0  0  0
   11.2922  -14.7048   17.0238 O   0  0  0  0  0  0  0  0  0  0  0  0
    7.7119  -12.8049   19.0020 C   0  0  0  0  0  0  0  0  0  0  0  0
    8.2851  -13.9472   19.8069 C   0  0  1  0  0  0  0  0  0  0  0  0
    7.3287  -14.9511   20.0148 O   0  0  0  0  0  0  0  0  0  0  0  0
    9.5041  -14.5454   19.1900 C   0  0  2  0  0  0  0  0  0  0  0  0
    9.2320  -15.1433   17.9064 N   0  0  0  0  0  0  0  0  0  0  0  0
   10.2284  -15.4716   20.0939 C   0  0  0  0  0  0  0  0  0  0  0  0
   10.2371  -16.7068   19.8635 O   0  0  0  0  0  0  0  0  0  0  0  0
   14.3974  -14.4006   20.5409 N   0  0  0  0  0  0  0  0  0  0  0  0
   13.8401  -15.5420   21.2170 C   0  0  0  0  0  0  0  0  0  0  0  0
   14.1472  -16.6461   20.7432 O   0  0  0  0  0  0  0  0  0  0  0  0
   12.9680  -15.4062   22.3877 C   0  0  0  0  0  0  0  0  0  0  0  0
   11.5760  -15.8638   22.1244 C   0  0  2  0  0  0  0  0  0  0  0  0
   10.8985  -14.9202   21.2081 N   0  0  0  0  0  0  0  0  0  0  0  0
   10.7957  -15.8104   23.4120 C   0  0  0  0  0  0  0  0  0  0  0  0
    9.8279  -14.9749   23.5362 O   0  0  0  0  0  0  0  0  0  0  0  0
   11.1285  -16.6563   24.4356 O   0  0  0  0  0  0  0  0  0  0  0  0
  2  1  1  6
  2  5  1  0
  3  2  1  0
  4  3  1  0
  5  6  2  0
  8  7  1  6
  8  9  1  0
  8 10  1  0
 10 12  1  0
 11  5  1  0
 10 11  1  6
 12 19  1  0
 13 12  2  0
 15 14  1  0
 16 15  2  0
 17 15  1  0
 18 17  1  1
 19 18  1  0
 20 18  1  0
 20 22  1  0
 21 20  2  0
M  END
$$$$
