QQS.pdb
     RDKit          3D

 25 24  0  0  1  0  0  0  0  0999 V2000
    8.0981  -12.4290   18.4995 N   0  0  0  0  0  0  0  0  0  0  0  0
    8.1741  -13.7481   17.9848 C   0  0  0  0  0  0  0  0  0  0  0  0
    8.1282  -13.8930   16.7387 O   0  0  0  0  0  0  0  0  0  0  0  0
    8.3028  -14.9370   18.8417 C   0  0  0  0  0  0  0  0  0  0  0  0
    7.5031  -14.8339   20.1101 C   0  0  0  0  0  0  0  0  0  0  0  0
    7.5864  -16.1528   20.8449 C   0  0  2  0  0  0  0  0  0  0  0  0
    6.7456  -17.1021   20.1530 N   0  0  0  0  0  0  0  0  0  0  0  0
    7.2262  -16.0100   22.2778 C   0  0  0  0  0  0  0  0  0  0  0  0
    6.1805  -15.4078   22.5619 O   0  0  0  0  0  0  0  0  0  0  0  0
    7.6236  -20.5439   26.4896 N   0  0  0  0  0  0  0  0  0  0  0  0
    7.4543  -19.4056   27.3153 C   0  0  0  0  0  0  0  0  0  0  0  0
    7.2095  -19.5538   28.5266 O   0  0  0  0  0  0  0  0  0  0  0  0
    7.5629  -18.0005   26.7800 C   0  0  0  0  0  0  0  0  0  0  0  0
    7.8385  -17.9367   25.3317 C   0  0  0  0  0  0  0  0  0  0  0  0
    7.8588  -16.5978   24.6737 C   0  0  2  0  0  0  0  0  0  0  0  0
    8.0678  -16.5539   23.2679 N   0  0  0  0  0  0  0  0  0  0  0  0
    8.6938  -15.6688   25.4668 C   0  0  0  0  0  0  0  0  0  0  0  0
    9.9553  -15.6301   25.3348 O   0  0  0  0  0  0  0  0  0  0  0  0
    6.9536  -12.6350   27.8586 O   0  0  0  0  0  0  0  0  0  0  0  0
    8.2000  -12.4770   27.3044 C   0  0  0  0  0  0  0  0  0  0  0  0
    8.9297  -13.7775   27.1055 C   0  0  2  0  0  0  0  0  0  0  0  0
    8.1326  -14.7680   26.4200 N   0  0  0  0  0  0  0  0  0  0  0  0
    9.4444  -14.2890   28.4254 C   0  0  0  0  0  0  0  0  0  0  0  0
    9.0873  -15.4210   28.8126 O   0  0  0  0  0  0  0  0  0  0  0  0
   10.2938  -13.5497   29.2160 O   0  0  0  0  0  0  0  0  0  0  0  0
  1  2  1  0
  2  4  1  0
  3  2  2  0
  4  5  1  0
  6  7  1  6
  6  5  1  0
  8  6  1  0
  8  9  2  0
 10 11  1  0
 11 13  1  0
 12 11  2  0
 13 14  1  0
 15 14  1  1
 15 16  1  0
 15 17  1  0
 16  8  1  0
 17 22  1  0
 17 18  2  0
 20 19  1  0
 21 20  1  1
 22 21  1  0
 23 25  1  0
 23 21  1  0
 24 23  2  0
M  END
$$$$
