QQS.pdb
     RDKit          3D

 25 24  0  0  1  0  0  0  0  0999 V2000
    7.5794  -12.6795   18.8696 N   0  0  0  0  0  0  0  0  0  0  0  0
    8.3136  -13.6645   18.1615 C   0  0  0  0  0  0  0  0  0  0  0  0
    8.4454  -13.5167   16.9219 O   0  0  0  0  0  0  0  0  0  0  0  0
    8.9184  -14.8364   18.8133 C   0  0  0  0  0  0  0  0  0  0  0  0
    8.6323  -14.8993   20.2875 C   0  0  0  0  0  0  0  0  0  0  0  0
    9.2224  -16.1760   20.8424 C   0  0  2  0  0  0  0  0  0  0  0  0
    8.6688  -17.2832   20.0976 N   0  0  0  0  0  0  0  0  0  0  0  0
    8.9934  -16.3004   22.3037 C   0  0  0  0  0  0  0  0  0  0  0  0
    7.8410  -16.1406   22.7320 O   0  0  0  0  0  0  0  0  0  0  0  0
   12.5040  -20.1855   25.8624 N   0  0  0  0  0  0  0  0  0  0  0  0
   12.2383  -19.1406   26.7810 C   0  0  0  0  0  0  0  0  0  0  0  0
   12.6958  -19.2047   27.9367 O   0  0  0  0  0  0  0  0  0  0  0  0
   11.4138  -17.9342   26.4102 C   0  0  0  0  0  0  0  0  0  0  0  0
   10.8043  -18.0212   25.0691 C   0  0  0  0  0  0  0  0  0  0  0  0
   10.0472  -16.8415   24.5582 C   0  0  2  0  0  0  0  0  0  0  0  0
   10.0743  -16.5927   23.1585 N   0  0  0  0  0  0  0  0  0  0  0  0
   10.3231  -15.6670   25.4149 C   0  0  0  0  0  0  0  0  0  0  0  0
   11.3715  -14.9673   25.2673 O   0  0  0  0  0  0  0  0  0  0  0  0
    7.4146  -13.5559   27.1971 O   0  0  0  0  0  0  0  0  0  0  0  0
    8.6955  -13.0728   27.3035 C   0  0  0  0  0  0  0  0  0  0  0  0
    9.7375  -14.1575   27.3374 C   0  0  2  0  0  0  0  0  0  0  0  0
    9.4321  -15.2556   26.4501 N   0  0  0  0  0  0  0  0  0  0  0  0
    9.9518  -14.6247   28.7532 C   0  0  0  0  0  0  0  0  0  0  0  0
    9.8385  -15.8416   29.0087 O   0  0  0  0  0  0  0  0  0  0  0  0
   10.2678  -13.7549   29.7712 O   0  0  0  0  0  0  0  0  0  0  0  0
  1  2  1  0
  2  4  1  0
  3  2  2  0
  4  5  1  0
  6  7  1  6
  6  5  1  0
  8  6  1  0
  8  9  2  0
 10 11  1  0
 11 13  1  0
 12 11  2  0
 13 14  1  0
 15 14  1  6
 15 16  1  0
 15 17  1  0
 16  8  1  0
 17 22  1  0
 17 18  2  0
 20 19  1  0
 21 20  1  1
 22 21  1  0
 23 25  1  0
 23 21  1  0
 24 23  2  0
M  END
$$$$
