QQS.pdb
     RDKit          3D

 25 24  0  0  1  0  0  0  0  0999 V2000
   11.0812  -16.3654   15.0222 N   0  0  0  0  0  0  0  0  0  0  0  0
   10.0115  -16.2360   14.1005 C   0  0  0  0  0  0  0  0  0  0  0  0
   10.2991  -16.1071   12.8854 O   0  0  0  0  0  0  0  0  0  0  0  0
    8.5975  -16.2467   14.5064 C   0  0  0  0  0  0  0  0  0  0  0  0
    8.4166  -16.3417   15.9955 C   0  0  0  0  0  0  0  0  0  0  0  0
    8.4495  -17.7993   16.3963 C   0  0  2  0  0  0  0  0  0  0  0  0
    7.3619  -18.4711   15.7234 N   0  0  0  0  0  0  0  0  0  0  0  0
    8.3993  -17.9677   17.8702 C   0  0  0  0  0  0  0  0  0  0  0  0
    7.3265  -17.7430   18.4495 O   0  0  0  0  0  0  0  0  0  0  0  0
   10.9202  -22.5091   21.3988 N   0  0  0  0  0  0  0  0  0  0  0  0
    9.8040  -22.4167   20.5317 C   0  0  0  0  0  0  0  0  0  0  0  0
    9.1823  -23.4474   20.2153 O   0  0  0  0  0  0  0  0  0  0  0  0
    9.3288  -21.1009   19.9699 C   0  0  0  0  0  0  0  0  0  0  0  0
   10.1209  -19.9412   20.4232 C   0  0  0  0  0  0  0  0  0  0  0  0
    9.7107  -18.5818   19.9653 C   0  0  2  0  0  0  0  0  0  0  0  0
    9.5543  -18.3731   18.5675 N   0  0  0  0  0  0  0  0  0  0  0  0
   10.5121  -17.5583   20.6720 C   0  0  0  0  0  0  0  0  0  0  0  0
   11.5752  -17.0814   20.1690 O   0  0  0  0  0  0  0  0  0  0  0  0
    9.3172  -15.8369   24.4284 O   0  0  0  0  0  0  0  0  0  0  0  0
   10.0172  -15.1319   23.4806 C   0  0  0  0  0  0  0  0  0  0  0  0
   10.8826  -16.0037   22.6120 C   0  0  2  0  0  0  0  0  0  0  0  0
   10.1387  -17.0511   21.9519 N   0  0  0  0  0  0  0  0  0  0  0  0
   12.0325  -16.5541   23.4142 C   0  0  0  0  0  0  0  0  0  0  0  0
   12.0948  -17.7857   23.6096 O   0  0  0  0  0  0  0  0  0  0  0  0
   13.0142  -15.7442   23.9371 O   0  0  0  0  0  0  0  0  0  0  0  0
  1  2  1  0
  2  4  1  0
  3  2  2  0
  4  5  1  0
  6  7  1  6
  6  5  1  0
  8  6  1  0
  8  9  2  0
 10 11  1  0
 11 13  1  0
 12 11  2  0
 13 14  1  0
 15 14  1  6
 15 16  1  0
 15 17  1  0
 16  8  1  0
 17 22  1  0
 17 18  2  0
 20 19  1  0
 21 20  1  1
 22 21  1  0
 23 25  1  0
 23 21  1  0
 24 23  2  0
M  END
$$$$
