QQS.pdb
     RDKit          3D

 25 24  0  0  1  0  0  0  0  0999 V2000
   11.6351  -12.8237   34.2816 N   0  0  0  0  0  0  0  0  0  0  0  0
   11.0947  -14.1120   34.0393 C   0  0  0  0  0  0  0  0  0  0  0  0
   10.8047  -14.4113   32.8552 O   0  0  0  0  0  0  0  0  0  0  0  0
   10.8636  -15.0982   35.1063 C   0  0  0  0  0  0  0  0  0  0  0  0
   11.0805  -14.5337   36.4823 C   0  0  0  0  0  0  0  0  0  0  0  0
   11.6317  -15.6243   37.3728 C   0  0  2  0  0  0  0  0  0  0  0  0
   10.8577  -16.8220   37.1416 N   0  0  0  0  0  0  0  0  0  0  0  0
   11.6420  -15.2185   38.8006 C   0  0  0  0  0  0  0  0  0  0  0  0
   10.6632  -15.5153   39.5012 O   0  0  0  0  0  0  0  0  0  0  0  0
   16.7136  -16.6970   41.8997 N   0  0  0  0  0  0  0  0  0  0  0  0
   16.5996  -15.5443   41.0845 C   0  0  0  0  0  0  0  0  0  0  0  0
   17.5834  -14.7973   40.9322 O   0  0  0  0  0  0  0  0  0  0  0  0
   15.3169  -15.1807   40.3808 C   0  0  0  0  0  0  0  0  0  0  0  0
   14.3081  -14.5662   41.2653 C   0  0  0  0  0  0  0  0  0  0  0  0
   13.0036  -14.1532   40.6707 C   0  0  2  0  0  0  0  0  0  0  0  0
   12.7470  -14.5158   39.3200 N   0  0  0  0  0  0  0  0  0  0  0  0
   12.7310  -12.7386   41.0086 C   0  0  0  0  0  0  0  0  0  0  0  0
   12.8593  -11.8128   40.1502 O   0  0  0  0  0  0  0  0  0  0  0  0
    9.6335  -10.9846   42.9918 O   0  0  0  0  0  0  0  0  0  0  0  0
   10.8586  -10.8227   43.5904 C   0  0  0  0  0  0  0  0  0  0  0  0
   12.0099  -10.9601   42.6317 C   0  0  2  0  0  0  0  0  0  0  0  0
   12.3106  -12.3359   42.3109 N   0  0  0  0  0  0  0  0  0  0  0  0
   13.2164  -10.2329   43.1648 C   0  0  0  0  0  0  0  0  0  0  0  0
   14.3075  -10.8375   43.2197 O   0  0  0  0  0  0  0  0  0  0  0  0
   13.1543   -8.9266   43.5921 O   0  0  0  0  0  0  0  0  0  0  0  0
  1  2  1  0
  2  4  1  0
  3  2  2  0
  4  5  1  0
  6  7  1  1
  6  5  1  0
  8  6  1  0
  8  9  2  0
 10 11  1  0
 11 13  1  0
 12 11  2  0
 13 14  1  0
 15 14  1  6
 15 16  1  0
 15 17  1  0
 16  8  1  0
 17 22  1  0
 17 18  2  0
 20 19  1  0
 21 20  1  1
 22 21  1  0
 23 25  1  0
 23 21  1  0
 24 23  2  0
M  END
$$$$
