QQS.pdb
     RDKit          3D

 25 24  0  0  1  0  0  0  0  0999 V2000
    7.8762  -12.2109   19.0433 N   0  0  0  0  0  0  0  0  0  0  0  0
    8.1796  -13.4506   18.4255 C   0  0  0  0  0  0  0  0  0  0  0  0
    8.6076  -13.4266   17.2456 O   0  0  0  0  0  0  0  0  0  0  0  0
    8.0150  -14.7458   19.1033 C   0  0  0  0  0  0  0  0  0  0  0  0
    7.4724  -14.6117   20.4986 C   0  0  0  0  0  0  0  0  0  0  0  0
    7.2566  -15.9947   21.0704 C   0  0  2  0  0  0  0  0  0  0  0  0
    6.2499  -16.6549   20.2718 N   0  0  0  0  0  0  0  0  0  0  0  0
    6.9013  -15.9472   22.5108 C   0  0  0  0  0  0  0  0  0  0  0  0
    5.9831  -15.1925   22.8633 O   0  0  0  0  0  0  0  0  0  0  0  0
    6.1091  -20.6209   26.4681 N   0  0  0  0  0  0  0  0  0  0  0  0
    7.3972  -20.5460   25.8837 C   0  0  0  0  0  0  0  0  0  0  0  0
    8.1281  -21.5534   25.8714 O   0  0  0  0  0  0  0  0  0  0  0  0
    7.9266  -19.2778   25.2639 C   0  0  0  0  0  0  0  0  0  0  0  0
    7.0361  -18.1144   25.4402 C   0  0  0  0  0  0  0  0  0  0  0  0
    7.4488  -16.8107   24.8433 C   0  0  2  0  0  0  0  0  0  0  0  0
    7.6048  -16.7486   23.4314 N   0  0  0  0  0  0  0  0  0  0  0  0
    8.5641  -16.2374   25.6287 C   0  0  0  0  0  0  0  0  0  0  0  0
    9.7665  -16.3126   25.2300 O   0  0  0  0  0  0  0  0  0  0  0  0
   10.1184  -13.1346   28.9855 O   0  0  0  0  0  0  0  0  0  0  0  0
    9.0802  -13.6957   28.2835 C   0  0  0  0  0  0  0  0  0  0  0  0
    9.4412  -15.0049   27.6361 C   0  0  2  0  0  0  0  0  0  0  0  0
    8.3537  -15.5707   26.8722 N   0  0  0  0  0  0  0  0  0  0  0  0
    9.9589  -15.9686   28.6714 C   0  0  0  0  0  0  0  0  0  0  0  0
    9.3196  -17.0189   28.8885 O   0  0  0  0  0  0  0  0  0  0  0  0
   11.1112  -15.7286   29.3837 O   0  0  0  0  0  0  0  0  0  0  0  0
  1  2  1  0
  2  4  1  0
  3  2  2  0
  4  5  1  0
  6  7  1  6
  6  5  1  0
  8  6  1  0
  8  9  2  0
 10 11  1  0
 11 13  1  0
 12 11  2  0
 13 14  1  0
 15 14  1  1
 15 16  1  0
 15 17  1  0
 16  8  1  0
 17 22  1  0
 17 18  2  0
 20 19  1  0
 21 20  1  1
 22 21  1  0
 23 25  1  0
 23 21  1  0
 24 23  2  0
M  END
$$$$
