QQS.pdb
     RDKit          3D

 25 24  0  0  1  0  0  0  0  0999 V2000
    7.5924  -12.7694   17.4514 N   0  0  0  0  0  0  0  0  0  0  0  0
    7.6732  -13.8742   16.5663 C   0  0  0  0  0  0  0  0  0  0  0  0
    7.0916  -13.7792   15.4579 O   0  0  0  0  0  0  0  0  0  0  0  0
    8.4018  -15.1103   16.8912 C   0  0  0  0  0  0  0  0  0  0  0  0
    9.7825  -14.8527   17.4264 C   0  0  0  0  0  0  0  0  0  0  0  0
   10.3951  -16.1707   17.8434 C   0  0  2  0  0  0  0  0  0  0  0  0
    9.7209  -17.2239   17.1201 N   0  0  0  0  0  0  0  0  0  0  0  0
   10.3411  -16.3637   19.3141 C   0  0  0  0  0  0  0  0  0  0  0  0
   10.8039  -15.4713   20.0396 O   0  0  0  0  0  0  0  0  0  0  0  0
    7.5564  -20.7715   19.6582 N   0  0  0  0  0  0  0  0  0  0  0  0
    6.7368  -19.7338   20.1661 C   0  0  0  0  0  0  0  0  0  0  0  0
    5.5457  -19.6603   19.8128 O   0  0  0  0  0  0  0  0  0  0  0  0
    7.2550  -18.7005   21.1338 C   0  0  0  0  0  0  0  0  0  0  0  0
    8.6436  -18.9407   21.5715 C   0  0  0  0  0  0  0  0  0  0  0  0
    9.6841  -17.9353   21.2074 C   0  0  2  0  0  0  0  0  0  0  0  0
    9.7738  -17.5389   19.8448 N   0  0  0  0  0  0  0  0  0  0  0  0
   10.9683  -18.2977   21.8467 C   0  0  0  0  0  0  0  0  0  0  0  0
   11.7472  -19.1585   21.3341 O   0  0  0  0  0  0  0  0  0  0  0  0
   13.8401  -16.1252   22.3436 O   0  0  0  0  0  0  0  0  0  0  0  0
   13.7991  -17.4778   22.5767 C   0  0  0  0  0  0  0  0  0  0  0  0
   12.7452  -17.8761   23.5737 C   0  0  2  0  0  0  0  0  0  0  0  0
   11.4029  -17.7042   23.0688 N   0  0  0  0  0  0  0  0  0  0  0  0
   12.9545  -17.1384   24.8701 C   0  0  0  0  0  0  0  0  0  0  0  0
   12.0439  -16.3967   25.2940 O   0  0  0  0  0  0  0  0  0  0  0  0
   14.1147  -17.2559   25.6002 O   0  0  0  0  0  0  0  0  0  0  0  0
  1  2  1  0
  2  4  1  0
  3  2  2  0
  4  5  1  0
  6  7  1  6
  6  5  1  0
  8  6  1  0
  8  9  2  0
 10 11  1  0
 11 13  1  0
 12 11  2  0
 13 14  1  0
 15 14  1  6
 15 16  1  0
 15 17  1  0
 16  8  1  0
 17 22  1  0
 17 18  2  0
 20 19  1  0
 21 20  1  6
 22 21  1  0
 23 25  1  0
 23 21  1  0
 24 23  2  0
M  END
$$$$
