QQS.pdb
     RDKit          3D

 25 24  0  0  1  0  0  0  0  0999 V2000
    1.6847  -18.2264   22.1331 N   0  0  0  0  0  0  0  0  0  0  0  0
    1.6943  -19.4452   21.4085 C   0  0  0  0  0  0  0  0  0  0  0  0
    0.6466  -19.7712   20.7987 O   0  0  0  0  0  0  0  0  0  0  0  0
    2.8675  -20.3304   21.3439 C   0  0  0  0  0  0  0  0  0  0  0  0
    4.0742  -19.7544   22.0304 C   0  0  0  0  0  0  0  0  0  0  0  0
    5.0255  -19.2283   20.9795 C   0  0  2  0  0  0  0  0  0  0  0  0
    5.4417  -20.3415   20.1581 N   0  0  0  0  0  0  0  0  0  0  0  0
    6.1722  -18.5060   21.5849 C   0  0  0  0  0  0  0  0  0  0  0  0
    7.0677  -19.1740   22.1223 O   0  0  0  0  0  0  0  0  0  0  0  0
    7.7481  -12.1997   20.4424 N   0  0  0  0  0  0  0  0  0  0  0  0
    8.0092  -13.3398   19.6435 C   0  0  0  0  0  0  0  0  0  0  0  0
    8.2145  -13.2037   18.4235 O   0  0  0  0  0  0  0  0  0  0  0  0
    8.0520  -14.7325   20.2192 C   0  0  0  0  0  0  0  0  0  0  0  0
    7.3322  -14.8676   21.5003 C   0  0  0  0  0  0  0  0  0  0  0  0
    7.1940  -16.2294   22.0939 C   0  0  2  0  0  0  0  0  0  0  0  0
    6.2168  -17.0989   21.5362 N   0  0  0  0  0  0  0  0  0  0  0  0
    7.1812  -16.1274   23.5700 C   0  0  0  0  0  0  0  0  0  0  0  0
    6.1023  -15.9561   24.2159 O   0  0  0  0  0  0  0  0  0  0  0  0
    7.9252  -18.9102   26.8059 O   0  0  0  0  0  0  0  0  0  0  0  0
    7.8118  -18.2474   25.6087 C   0  0  0  0  0  0  0  0  0  0  0  0
    8.4055  -16.8654   25.6374 C   0  0  2  0  0  0  0  0  0  0  0  0
    8.3736  -16.2151   24.3480 N   0  0  0  0  0  0  0  0  0  0  0  0
    9.7995  -16.9130   26.2059 C   0  0  0  0  0  0  0  0  0  0  0  0
   10.7707  -16.8353   25.4250 O   0  0  0  0  0  0  0  0  0  0  0  0
   10.0358  -17.0392   27.5554 O   0  0  0  0  0  0  0  0  0  0  0  0
  1  2  1  0
  2  4  1  0
  3  2  2  0
  4  5  1  0
  6  7  1  1
  6  5  1  0
  8  6  1  0
  8  9  2  0
 10 11  1  0
 11 13  1  0
 12 11  2  0
 13 14  1  0
 15 14  1  6
 15 16  1  0
 15 17  1  0
 16  8  1  0
 17 22  1  0
 17 18  2  0
 20 19  1  0
 21 20  1  6
 22 21  1  0
 23 25  1  0
 23 21  1  0
 24 23  2  0
M  END
$$$$
