QQS.pdb
     RDKit          3D

 25 24  0  0  1  0  0  0  0  0999 V2000
   18.3154  -13.4322   19.4441 N   0  0  0  0  0  0  0  0  0  0  0  0
   18.3329  -13.3254   18.0303 C   0  0  0  0  0  0  0  0  0  0  0  0
   19.3249  -13.7946   17.4206 O   0  0  0  0  0  0  0  0  0  0  0  0
   17.2493  -12.6950   17.2604 C   0  0  0  0  0  0  0  0  0  0  0  0
   15.8820  -13.0643   17.7636 C   0  0  0  0  0  0  0  0  0  0  0  0
   15.3991  -14.2815   17.0077 C   0  0  2  0  0  0  0  0  0  0  0  0
   15.2181  -13.9044   15.6249 N   0  0  0  0  0  0  0  0  0  0  0  0
   14.1678  -14.8521   17.6091 C   0  0  0  0  0  0  0  0  0  0  0  0
   13.0747  -14.3771   17.2680 O   0  0  0  0  0  0  0  0  0  0  0  0
   13.2615  -20.9496   18.8344 N   0  0  0  0  0  0  0  0  0  0  0  0
   12.1971  -20.3357   19.5391 C   0  0  0  0  0  0  0  0  0  0  0  0
   11.2877  -21.0384   20.0167 O   0  0  0  0  0  0  0  0  0  0  0  0
   12.1207  -18.8436   19.7400 C   0  0  0  0  0  0  0  0  0  0  0  0
   13.1865  -18.0957   19.0454 C   0  0  0  0  0  0  0  0  0  0  0  0
   13.2156  -16.6107   19.1861 C   0  0  2  0  0  0  0  0  0  0  0  0
   14.2673  -15.9047   18.5399 N   0  0  0  0  0  0  0  0  0  0  0  0
   12.9818  -16.2423   20.5999 C   0  0  0  0  0  0  0  0  0  0  0  0
   13.9392  -16.1291   21.4252 O   0  0  0  0  0  0  0  0  0  0  0  0
    9.1214  -16.1836   22.3800 O   0  0  0  0  0  0  0  0  0  0  0  0
   10.0186  -15.2130   22.7521 C   0  0  0  0  0  0  0  0  0  0  0  0
   11.4492  -15.5934   22.4835 C   0  0  2  0  0  0  0  0  0  0  0  0
   11.6745  -15.9947   21.1144 N   0  0  0  0  0  0  0  0  0  0  0  0
   11.8946  -16.6522   23.4578 C   0  0  0  0  0  0  0  0  0  0  0  0
   12.2236  -17.7737   23.0185 O   0  0  0  0  0  0  0  0  0  0  0  0
   11.9501  -16.4230   24.8132 O   0  0  0  0  0  0  0  0  0  0  0  0
  1  2  1  0
  2  4  1  0
  3  2  2  0
  4  5  1  0
  6  7  1  6
  6  5  1  0
  8  6  1  0
  8  9  2  0
 10 11  1  0
 11 13  1  0
 12 11  2  0
 13 14  1  0
 15 14  1  1
 15 16  1  0
 15 17  1  0
 16  8  1  0
 17 22  1  0
 17 18  2  0
 20 19  1  0
 21 20  1  6
 22 21  1  0
 23 25  1  0
 23 21  1  0
 24 23  2  0
M  END
$$$$
