QQS.pdb
     RDKit          3D

 25 24  0  0  1  0  0  0  0  0999 V2000
   11.8681  -12.3032   10.9529 N   0  0  0  0  0  0  0  0  0  0  0  0
   10.5707  -12.5580   10.4407 C   0  0  0  0  0  0  0  0  0  0  0  0
   10.3885  -12.4056    9.2080 O   0  0  0  0  0  0  0  0  0  0  0  0
    9.4453  -12.9878   11.2851 C   0  0  0  0  0  0  0  0  0  0  0  0
    9.8501  -13.9786   12.3403 C   0  0  0  0  0  0  0  0  0  0  0  0
    9.5646  -15.3735   11.8313 C   0  0  2  0  0  0  0  0  0  0  0  0
    8.1319  -15.5582   11.8178 N   0  0  0  0  0  0  0  0  0  0  0  0
   10.2656  -16.4077   12.6327 C   0  0  0  0  0  0  0  0  0  0  0  0
    9.6743  -16.8939   13.6078 O   0  0  0  0  0  0  0  0  0  0  0  0
   13.4761  -22.2464   12.6361 N   0  0  0  0  0  0  0  0  0  0  0  0
   13.9372  -21.0616   12.0117 C   0  0  0  0  0  0  0  0  0  0  0  0
   14.3144  -21.0963   10.8261 O   0  0  0  0  0  0  0  0  0  0  0  0
   13.9883  -19.7394   12.7341 C   0  0  0  0  0  0  0  0  0  0  0  0
   13.2141  -18.6713   12.0727 C   0  0  0  0  0  0  0  0  0  0  0  0
   12.4118  -17.7471   12.9261 C   0  0  2  0  0  0  0  0  0  0  0  0
   11.5675  -16.8078   12.2728 N   0  0  0  0  0  0  0  0  0  0  0  0
   13.2695  -17.1901   13.9953 C   0  0  0  0  0  0  0  0  0  0  0  0
   13.8748  -16.0837   13.8542 O   0  0  0  0  0  0  0  0  0  0  0  0
   12.5816  -17.3468   17.9715 O   0  0  0  0  0  0  0  0  0  0  0  0
   13.8596  -17.7419   17.6612 C   0  0  0  0  0  0  0  0  0  0  0  0
   14.2956  -17.3133   16.2866 C   0  0  2  0  0  0  0  0  0  0  0  0
   13.4647  -17.8603   15.2393 N   0  0  0  0  0  0  0  0  0  0  0  0
   15.7499  -17.6453   16.0782 C   0  0  0  0  0  0  0  0  0  0  0  0
   16.0632  -18.4201   15.1506 O   0  0  0  0  0  0  0  0  0  0  0  0
   16.7416  -17.1229   16.8760 O   0  0  0  0  0  0  0  0  0  0  0  0
  1  2  1  0
  2  4  1  0
  3  2  2  0
  4  5  1  0
  6  7  1  1
  6  5  1  0
  8  6  1  0
  8  9  2  0
 10 11  1  0
 11 13  1  0
 12 11  2  0
 13 14  1  0
 15 14  1  6
 15 16  1  0
 15 17  1  0
 16  8  1  0
 17 22  1  0
 17 18  2  0
 20 19  1  0
 21 20  1  1
 22 21  1  0
 23 25  1  0
 23 21  1  0
 24 23  2  0
M  END
$$$$
