QQS.pdb
     RDKit          3D

 25 24  0  0  1  0  0  0  0  0999 V2000
    7.9290  -12.2979   18.5069 N   0  0  0  0  0  0  0  0  0  0  0  0
    6.9814  -13.1848   17.9358 C   0  0  0  0  0  0  0  0  0  0  0  0
    6.1078  -12.6977   17.1773 O   0  0  0  0  0  0  0  0  0  0  0  0
    6.9818  -14.6332   18.1936 C   0  0  0  0  0  0  0  0  0  0  0  0
    8.0026  -15.0455   19.2168 C   0  0  0  0  0  0  0  0  0  0  0  0
    8.8515  -16.1539   18.6361 C   0  0  2  0  0  0  0  0  0  0  0  0
    7.9949  -17.2925   18.3973 N   0  0  0  0  0  0  0  0  0  0  0  0
   10.0052  -16.4816   19.5107 C   0  0  0  0  0  0  0  0  0  0  0  0
    9.8975  -17.4419   20.2874 O   0  0  0  0  0  0  0  0  0  0  0  0
   15.9048  -13.7570   18.8367 N   0  0  0  0  0  0  0  0  0  0  0  0
   15.9267  -14.3355   20.1295 C   0  0  0  0  0  0  0  0  0  0  0  0
   16.9528  -14.2447   20.8281 O   0  0  0  0  0  0  0  0  0  0  0  0
   14.7393  -15.0653   20.7041 C   0  0  0  0  0  0  0  0  0  0  0  0
   13.5288  -14.9834   19.8641 C   0  0  0  0  0  0  0  0  0  0  0  0
   12.3312  -15.7752   20.2701 C   0  0  2  0  0  0  0  0  0  0  0  0
   11.1789  -15.7059   19.4398 N   0  0  0  0  0  0  0  0  0  0  0  0
   12.0808  -15.5883   21.7164 C   0  0  0  0  0  0  0  0  0  0  0  0
   11.8792  -14.4383   22.2137 O   0  0  0  0  0  0  0  0  0  0  0  0
   10.3830  -18.4289   24.2047 O   0  0  0  0  0  0  0  0  0  0  0  0
   10.5004  -17.0911   24.4909 C   0  0  0  0  0  0  0  0  0  0  0  0
   11.8097  -16.5012   24.0425 C   0  0  2  0  0  0  0  0  0  0  0  0
   12.0516  -16.6833   22.6302 N   0  0  0  0  0  0  0  0  0  0  0  0
   12.9368  -17.0483   24.8785 C   0  0  0  0  0  0  0  0  0  0  0  0
   13.8509  -17.6843   24.3139 O   0  0  0  0  0  0  0  0  0  0  0  0
   12.9907  -16.8696   26.2417 O   0  0  0  0  0  0  0  0  0  0  0  0
  1  2  1  0
  2  4  1  0
  3  2  2  0
  4  5  1  0
  6  7  1  1
  6  5  1  0
  8  6  1  0
  8  9  2  0
 10 11  1  0
 11 13  1  0
 12 11  2  0
 13 14  1  0
 15 14  1  6
 15 16  1  0
 15 17  1  0
 16  8  1  0
 17 22  1  0
 17 18  2  0
 20 19  1  0
 21 20  1  1
 22 21  1  0
 23 25  1  0
 23 21  1  0
 24 23  2  0
M  END
$$$$
