QQS.pdb
     RDKit          3D

 25 24  0  0  1  0  0  0  0  0999 V2000
    7.4200  -15.0311   18.2242 N   0  0  0  0  0  0  0  0  0  0  0  0
    7.9409  -13.7123   18.2253 C   0  0  0  0  0  0  0  0  0  0  0  0
    8.3648  -13.2502   17.1378 O   0  0  0  0  0  0  0  0  0  0  0  0
    8.0033  -12.8758   19.4338 C   0  0  0  0  0  0  0  0  0  0  0  0
    7.3293  -13.5082   20.6191 C   0  0  0  0  0  0  0  0  0  0  0  0
    8.3396  -14.3591   21.3550 C   0  0  2  0  0  0  0  0  0  0  0  0
    8.4094  -15.6409   20.6923 N   0  0  0  0  0  0  0  0  0  0  0  0
    8.0128  -14.4801   22.7979 C   0  0  0  0  0  0  0  0  0  0  0  0
    7.9633  -13.4436   23.4763 O   0  0  0  0  0  0  0  0  0  0  0  0
    6.4032  -19.7825   26.3822 N   0  0  0  0  0  0  0  0  0  0  0  0
    6.8774  -19.8008   25.0477 C   0  0  0  0  0  0  0  0  0  0  0  0
    7.1727  -20.8854   24.5133 O   0  0  0  0  0  0  0  0  0  0  0  0
    7.0392  -18.5418   24.2344 C   0  0  0  0  0  0  0  0  0  0  0  0
    6.6775  -17.3121   24.9658 C   0  0  0  0  0  0  0  0  0  0  0  0
    7.4719  -16.0759   24.7075 C   0  0  2  0  0  0  0  0  0  0  0  0
    7.7700  -15.7506   23.3558 N   0  0  0  0  0  0  0  0  0  0  0  0
    8.6201  -16.0213   25.6392 C   0  0  0  0  0  0  0  0  0  0  0  0
    9.7700  -16.4402   25.3036 O   0  0  0  0  0  0  0  0  0  0  0  0
   10.6399  -13.9129   29.4972 O   0  0  0  0  0  0  0  0  0  0  0  0
    9.5508  -14.0910   28.6802 C   0  0  0  0  0  0  0  0  0  0  0  0
    9.6456  -15.3258   27.8261 C   0  0  2  0  0  0  0  0  0  0  0  0
    8.5019  -15.4977   26.9609 N   0  0  0  0  0  0  0  0  0  0  0  0
    9.8800  -16.5364   28.6912 C   0  0  0  0  0  0  0  0  0  0  0  0
    9.0111  -17.4325   28.7201 O   0  0  0  0  0  0  0  0  0  0  0  0
   11.0187  -16.6853   29.4489 O   0  0  0  0  0  0  0  0  0  0  0  0
  1  2  1  0
  2  4  1  0
  3  2  2  0
  4  5  1  0
  6  7  1  6
  6  5  1  0
  8  6  1  0
  8  9  2  0
 10 11  1  0
 11 13  1  0
 12 11  2  0
 13 14  1  0
 15 14  1  6
 15 16  1  0
 15 17  1  0
 16  8  1  0
 17 22  1  0
 17 18  2  0
 20 19  1  0
 21 20  1  1
 22 21  1  0
 23 25  1  0
 23 21  1  0
 24 23  2  0
M  END
$$$$
