QQS.pdb
     RDKit          3D

 25 24  0  0  1  0  0  0  0  0999 V2000
    5.1243  -18.9077   11.1532 N   0  0  0  0  0  0  0  0  0  0  0  0
    5.4357  -17.5273   11.2443 C   0  0  0  0  0  0  0  0  0  0  0  0
    5.5243  -16.8761   10.1748 O   0  0  0  0  0  0  0  0  0  0  0  0
    5.6560  -16.8380   12.5251 C   0  0  0  0  0  0  0  0  0  0  0  0
    5.4202  -17.7248   13.7155 C   0  0  0  0  0  0  0  0  0  0  0  0
    6.7252  -17.8948   14.4601 C   0  0  2  0  0  0  0  0  0  0  0  0
    7.6425  -18.6009   13.5957 N   0  0  0  0  0  0  0  0  0  0  0  0
    6.5317  -18.5760   15.7646 C   0  0  0  0  0  0  0  0  0  0  0  0
    5.7438  -18.0714   16.5779 O   0  0  0  0  0  0  0  0  0  0  0  0
    4.1387  -23.4484   17.2417 N   0  0  0  0  0  0  0  0  0  0  0  0
    4.5930  -23.0604   15.9573 C   0  0  0  0  0  0  0  0  0  0  0  0
    3.9345  -23.3758   14.9494 O   0  0  0  0  0  0  0  0  0  0  0  0
    5.8591  -22.2668   15.7580 C   0  0  0  0  0  0  0  0  0  0  0  0
    6.5739  -21.9644   17.0131 C   0  0  0  0  0  0  0  0  0  0  0  0
    7.1376  -20.5949   17.1939 C   0  0  2  0  0  0  0  0  0  0  0  0
    7.2370  -19.7627   16.0452 N   0  0  0  0  0  0  0  0  0  0  0  0
    8.3563  -20.6672   18.0299 C   0  0  0  0  0  0  0  0  0  0  0  0
    9.5114  -20.7718   17.5149 O   0  0  0  0  0  0  0  0  0  0  0  0
    8.2798  -20.2626   22.2981 O   0  0  0  0  0  0  0  0  0  0  0  0
    9.3819  -19.9288   21.5501 C   0  0  0  0  0  0  0  0  0  0  0  0
    9.4914  -20.7149   20.2720 C   0  0  2  0  0  0  0  0  0  0  0  0
    8.3039  -20.6239   19.4548 N   0  0  0  0  0  0  0  0  0  0  0  0
    9.8548  -22.1451   20.5740 C   0  0  0  0  0  0  0  0  0  0  0  0
   10.9265  -22.3806   21.1697 O   0  0  0  0  0  0  0  0  0  0  0  0
    9.0448  -23.1977   20.2149 O   0  0  0  0  0  0  0  0  0  0  0  0
  1  2  1  0
  2  4  1  0
  3  2  2  0
  4  5  1  0
  6  7  1  6
  6  5  1  0
  8  6  1  0
  8  9  2  0
 10 11  1  0
 11 13  1  0
 12 11  2  0
 13 14  1  0
 15 14  1  6
 15 16  1  0
 15 17  1  0
 16  8  1  0
 17 22  1  0
 17 18  2  0
 20 19  1  0
 21 20  1  1
 22 21  1  0
 23 25  1  0
 23 21  1  0
 24 23  2  0
M  END
$$$$
