QEV.pdb
     RDKit          3D

 26 25  0  0  1  0  0  0  0  0999 V2000
    9.3805  -13.1674   17.9171 N   0  0  0  0  0  0  0  0  0  0  0  0
    9.3630  -12.6425   19.2230 C   0  0  0  0  0  0  0  0  0  0  0  0
   10.2916  -11.9077   19.6079 O   0  0  0  0  0  0  0  0  0  0  0  0
    8.2452  -12.9659   20.1273 C   0  0  0  0  0  0  0  0  0  0  0  0
    7.3626  -14.0092   19.5215 C   0  0  0  0  0  0  0  0  0  0  0  0
    7.6213  -15.4025   19.9700 C   0  0  2  0  0  0  0  0  0  0  0  0
    6.7106  -16.3167   19.3029 N   0  0  0  0  0  0  0  0  0  0  0  0
    7.5400  -15.6310   21.4148 C   0  0  0  0  0  0  0  0  0  0  0  0
    6.4410  -15.5422   22.0049 O   0  0  0  0  0  0  0  0  0  0  0  0
    8.6608  -15.9584   22.2201 N   0  0  0  0  0  0  0  0  0  0  0  0
    8.5536  -16.2416   23.6676 C   0  0  1  0  0  0  0  0  0  0  0  0
    9.4254  -17.4473   23.9202 C   0  0  0  0  0  0  0  0  0  0  0  0
    9.4658  -17.8385   25.3567 C   0  0  0  0  0  0  0  0  0  0  0  0
   10.2970  -19.0135   25.6718 C   0  0  0  0  0  0  0  0  0  0  0  0
   10.4105  -19.5388   26.7997 O   0  0  0  0  0  0  0  0  0  0  0  0
    8.9108  -15.0563   24.4528 C   0  0  0  0  0  0  0  0  0  0  0  0
    9.8948  -14.3201   24.2157 O   0  0  0  0  0  0  0  0  0  0  0  0
   11.0468  -19.6351   24.6526 O   0  0  0  0  0  0  0  0  0  0  0  0
    6.9117  -12.0210   25.3119 C   0  0  0  0  0  0  0  0  0  0  0  0
    7.3357  -12.5905   26.6471 C   0  0  1  0  0  0  0  0  0  0  0  0
    6.1516  -13.3774   27.2011 C   0  0  0  0  0  0  0  0  0  0  0  0
    8.4988  -13.5270   26.3999 C   0  0  2  0  0  0  0  0  0  0  0  0
    8.1118  -14.6597   25.5887 N   0  0  0  0  0  0  0  0  0  0  0  0
    9.0030  -14.0181   27.7035 C   0  0  0  0  0  0  0  0  0  0  0  0
    8.9729  -15.3687   27.9821 O   0  0  0  0  0  0  0  0  0  0  0  0
    9.4668  -13.2421   28.5851 O   0  0  0  0  0  0  0  0  0  0  0  0
  2  4  1  0
  2  1  1  0
  3  2  2  0
  5  4  1  0
  6  5  1  0
  6  8  1  0
  6  7  1  6
  8 10  1  0
  9  8  2  0
 10 11  1  0
 11 12  1  1
 11 16  1  0
 12 13  1  0
 13 14  1  0
 14 18  1  0
 14 15  2  0
 16 17  2  0
 20 19  1  6
 20 22  1  0
 21 20  1  0
 22 24  1  0
 22 23  1  6
 23 16  1  0
 24 25  1  0
 26 24  2  0
M  END
$$$$
