QEV.pdb
     RDKit          3D

 26 25  0  0  1  0  0  0  0  0999 V2000
    7.5426  -15.7049   17.3212 N   0  0  0  0  0  0  0  0  0  0  0  0
    7.6441  -14.4517   16.6885 C   0  0  0  0  0  0  0  0  0  0  0  0
    7.7679  -14.3906   15.4510 O   0  0  0  0  0  0  0  0  0  0  0  0
    7.6032  -13.2188   17.4948 C   0  0  0  0  0  0  0  0  0  0  0  0
    7.2951  -13.5337   18.9232 C   0  0  0  0  0  0  0  0  0  0  0  0
    8.4371  -13.4038   19.8657 C   0  0  2  0  0  0  0  0  0  0  0  0
    9.6661  -13.8302   19.2193 N   0  0  0  0  0  0  0  0  0  0  0  0
    8.3002  -14.1242   21.1340 C   0  0  0  0  0  0  0  0  0  0  0  0
    7.3129  -13.9154   21.8727 O   0  0  0  0  0  0  0  0  0  0  0  0
    9.2426  -15.0768   21.5992 N   0  0  0  0  0  0  0  0  0  0  0  0
    9.0634  -15.8352   22.8560 C   0  0  1  0  0  0  0  0  0  0  0  0
   10.0083  -17.0089   22.7706 C   0  0  0  0  0  0  0  0  0  0  0  0
    9.9833  -17.8590   23.9933 C   0  0  0  0  0  0  0  0  0  0  0  0
   10.9376  -18.9815   24.0060 C   0  0  0  0  0  0  0  0  0  0  0  0
   12.1725  -18.8804   24.1664 O   0  0  0  0  0  0  0  0  0  0  0  0
    9.2749  -14.9661   24.0175 C   0  0  0  0  0  0  0  0  0  0  0  0
   10.3370  -14.3485   24.2555 O   0  0  0  0  0  0  0  0  0  0  0  0
   10.4712  -20.2998   23.8268 O   0  0  0  0  0  0  0  0  0  0  0  0
    7.4612  -11.9715   25.1850 C   0  0  0  0  0  0  0  0  0  0  0  0
    7.3857  -12.9201   26.3604 C   0  0  1  0  0  0  0  0  0  0  0  0
    6.0088  -13.5767   26.3254 C   0  0  0  0  0  0  0  0  0  0  0  0
    8.4570  -13.9726   26.1724 C   0  0  2  0  0  0  0  0  0  0  0  0
    8.2238  -14.7691   24.9883 N   0  0  0  0  0  0  0  0  0  0  0  0
    8.4666  -14.8623   27.3570 C   0  0  0  0  0  0  0  0  0  0  0  0
    8.8543  -14.3625   28.5828 O   0  0  0  0  0  0  0  0  0  0  0  0
    8.1300  -16.0776   27.2929 O   0  0  0  0  0  0  0  0  0  0  0  0
  2  4  1  0
  2  1  1  0
  3  2  2  0
  5  4  1  0
  6  5  1  0
  6  8  1  0
  6  7  1  6
  8 10  1  0
  9  8  2  0
 10 11  1  0
 11 12  1  6
 11 16  1  0
 12 13  1  0
 13 14  1  0
 14 18  1  0
 14 15  2  0
 16 17  2  0
 20 19  1  6
 20 22  1  0
 21 20  1  0
 22 24  1  0
 22 23  1  6
 23 16  1  0
 24 25  1  0
 26 24  2  0
M  END
$$$$
