QEV.pdb
     RDKit          3D

 26 25  0  0  1  0  0  0  0  0999 V2000
   10.8285  -12.3567   19.4880 N   0  0  0  0  0  0  0  0  0  0  0  0
   10.1134  -13.0785   18.5138 C   0  0  0  0  0  0  0  0  0  0  0  0
   10.7122  -13.8810   17.7736 O   0  0  0  0  0  0  0  0  0  0  0  0
    8.6597  -12.8800   18.3757 C   0  0  0  0  0  0  0  0  0  0  0  0
    7.9337  -13.4796   19.5368 C   0  0  0  0  0  0  0  0  0  0  0  0
    8.2096  -14.9184   19.7875 C   0  0  2  0  0  0  0  0  0  0  0  0
    7.4105  -15.7407   18.8956 N   0  0  0  0  0  0  0  0  0  0  0  0
    7.9978  -15.3764   21.1629 C   0  0  0  0  0  0  0  0  0  0  0  0
    6.8533  -15.3481   21.6662 O   0  0  0  0  0  0  0  0  0  0  0  0
    9.0372  -15.8682   21.9934 N   0  0  0  0  0  0  0  0  0  0  0  0
    8.8148  -16.2885   23.3936 C   0  0  1  0  0  0  0  0  0  0  0  0
    9.6761  -17.5100   23.6020 C   0  0  0  0  0  0  0  0  0  0  0  0
    9.6208  -18.0226   24.9993 C   0  0  0  0  0  0  0  0  0  0  0  0
   10.4874  -19.1792   25.2863 C   0  0  0  0  0  0  0  0  0  0  0  0
   11.5339  -19.1485   25.9681 O   0  0  0  0  0  0  0  0  0  0  0  0
    9.0933  -15.1824   24.3145 C   0  0  0  0  0  0  0  0  0  0  0  0
   10.1710  -14.5471   24.3526 O   0  0  0  0  0  0  0  0  0  0  0  0
   10.1539  -20.4491   24.7729 O   0  0  0  0  0  0  0  0  0  0  0  0
    6.0402  -13.5790   26.9425 C   0  0  0  0  0  0  0  0  0  0  0  0
    7.1059  -12.7450   26.2675 C   0  0  1  0  0  0  0  0  0  0  0  0
    7.4108  -11.5671   27.1882 C   0  0  0  0  0  0  0  0  0  0  0  0
    8.3404  -13.6080   26.1185 C   0  0  2  0  0  0  0  0  0  0  0  0
    8.0963  -14.7500   25.2659 N   0  0  0  0  0  0  0  0  0  0  0  0
    8.7540  -14.0867   27.4580 C   0  0  0  0  0  0  0  0  0  0  0  0
    9.3468  -13.2103   28.3431 O   0  0  0  0  0  0  0  0  0  0  0  0
    8.5849  -15.2810   27.8315 O   0  0  0  0  0  0  0  0  0  0  0  0
  2  4  1  0
  2  1  1  0
  3  2  2  0
  5  4  1  0
  6  5  1  0
  6  8  1  0
  6  7  1  6
  8 10  1  0
  9  8  2  0
 10 11  1  0
 11 12  1  1
 11 16  1  0
 12 13  1  0
 13 14  1  0
 14 18  1  0
 14 15  2  0
 16 17  2  0
 20 19  1  1
 20 22  1  0
 21 20  1  0
 22 24  1  0
 22 23  1  6
 23 16  1  0
 24 25  1  0
 26 24  2  0
M  END
$$$$
