QEV.pdb
     RDKit          3D

 26 25  0  0  1  0  0  0  0  0999 V2000
    9.7338  -12.6636   18.3512 N   0  0  0  0  0  0  0  0  0  0  0  0
    8.4913  -12.6780   19.0124 C   0  0  0  0  0  0  0  0  0  0  0  0
    7.8088  -11.6382   19.0717 O   0  0  0  0  0  0  0  0  0  0  0  0
    8.0053  -13.9243   19.6307 C   0  0  0  0  0  0  0  0  0  0  0  0
    9.0032  -15.0233   19.4550 C   0  0  0  0  0  0  0  0  0  0  0  0
    8.5861  -16.3525   19.9734 C   0  0  2  0  0  0  0  0  0  0  0  0
    7.4471  -16.8454   19.2186 N   0  0  0  0  0  0  0  0  0  0  0  0
    8.2606  -16.4050   21.4008 C   0  0  0  0  0  0  0  0  0  0  0  0
    7.0722  -16.3113   21.7790 O   0  0  0  0  0  0  0  0  0  0  0  0
    9.2339  -16.5608   22.4208 N   0  0  0  0  0  0  0  0  0  0  0  0
    8.8852  -16.6602   23.8544 C   0  0  1  0  0  0  0  0  0  0  0  0
    9.8022  -17.7101   24.4327 C   0  0  0  0  0  0  0  0  0  0  0  0
    9.3280  -19.0973   24.1700 C   0  0  0  0  0  0  0  0  0  0  0  0
   10.1717  -20.1720   24.7215 C   0  0  0  0  0  0  0  0  0  0  0  0
   10.5020  -20.2903   25.9206 O   0  0  0  0  0  0  0  0  0  0  0  0
    8.9786  -15.3474   24.5001 C   0  0  0  0  0  0  0  0  0  0  0  0
    9.9555  -14.5727   24.3912 O   0  0  0  0  0  0  0  0  0  0  0  0
   10.6744  -21.1757   23.8686 O   0  0  0  0  0  0  0  0  0  0  0  0
    5.6768  -13.6296   26.7318 C   0  0  0  0  0  0  0  0  0  0  0  0
    6.6839  -12.8234   25.9428 C   0  0  1  0  0  0  0  0  0  0  0  0
    6.8379  -11.4776   26.6453 C   0  0  0  0  0  0  0  0  0  0  0  0
    8.0002  -13.5697   25.9774 C   0  0  2  0  0  0  0  0  0  0  0  0
    7.9023  -14.8592   25.3304 N   0  0  0  0  0  0  0  0  0  0  0  0
    8.4003  -13.7688   27.3898 C   0  0  0  0  0  0  0  0  0  0  0  0
    8.4951  -15.0473   27.8987 O   0  0  0  0  0  0  0  0  0  0  0  0
    8.6627  -12.8039   28.1609 O   0  0  0  0  0  0  0  0  0  0  0  0
  2  4  1  0
  2  1  1  0
  3  2  2  0
  5  4  1  0
  6  5  1  0
  6  8  1  0
  6  7  1  6
  8 10  1  0
  9  8  2  0
 10 11  1  0
 11 12  1  1
 11 16  1  0
 12 13  1  0
 13 14  1  0
 14 18  1  0
 14 15  2  0
 16 17  2  0
 20 19  1  1
 20 22  1  0
 21 20  1  0
 22 24  1  0
 22 23  1  1
 23 16  1  0
 24 25  1  0
 26 24  2  0
M  END
$$$$
