QEV.pdb
     RDKit          3D

 26 25  0  0  1  0  0  0  0  0999 V2000
    8.3193  -11.7546   19.1669 N   0  0  0  0  0  0  0  0  0  0  0  0
    8.3888  -12.8432   20.0564 C   0  0  0  0  0  0  0  0  0  0  0  0
    9.3549  -12.9464   20.8352 O   0  0  0  0  0  0  0  0  0  0  0  0
    7.3173  -13.8550   20.0607 C   0  0  0  0  0  0  0  0  0  0  0  0
    7.7753  -15.1100   19.3901 C   0  0  0  0  0  0  0  0  0  0  0  0
    7.4131  -16.3731   20.0848 C   0  0  2  0  0  0  0  0  0  0  0  0
    6.1284  -16.8531   19.6060 N   0  0  0  0  0  0  0  0  0  0  0  0
    7.3726  -16.3055   21.5477 C   0  0  0  0  0  0  0  0  0  0  0  0
    6.2898  -16.0987   22.1382 O   0  0  0  0  0  0  0  0  0  0  0  0
    8.5167  -16.4644   22.3709 N   0  0  0  0  0  0  0  0  0  0  0  0
    8.4350  -16.6000   23.8412 C   0  0  1  0  0  0  0  0  0  0  0  0
    9.3119  -17.7748   24.1990 C   0  0  0  0  0  0  0  0  0  0  0  0
    9.3584  -18.0340   25.6650 C   0  0  0  0  0  0  0  0  0  0  0  0
   10.1684  -19.1928   26.0797 C   0  0  0  0  0  0  0  0  0  0  0  0
   10.3440  -19.5691   27.2580 O   0  0  0  0  0  0  0  0  0  0  0  0
    8.8048  -15.3418   24.4965 C   0  0  0  0  0  0  0  0  0  0  0  0
    9.8733  -14.7236   24.2903 O   0  0  0  0  0  0  0  0  0  0  0  0
   10.8210  -19.9761   25.1061 O   0  0  0  0  0  0  0  0  0  0  0  0
    6.8214  -11.9736   25.0815 C   0  0  0  0  0  0  0  0  0  0  0  0
    7.1758  -12.5951   26.4138 C   0  0  1  0  0  0  0  0  0  0  0  0
    5.9536  -13.3749   26.8898 C   0  0  0  0  0  0  0  0  0  0  0  0
    8.3302  -13.5469   26.1856 C   0  0  2  0  0  0  0  0  0  0  0  0
    7.9176  -14.7243   25.4544 N   0  0  0  0  0  0  0  0  0  0  0  0
    8.8748  -13.9622   27.4992 C   0  0  0  0  0  0  0  0  0  0  0  0
    9.4415  -13.0198   28.3319 O   0  0  0  0  0  0  0  0  0  0  0  0
    8.8424  -15.1603   27.8967 O   0  0  0  0  0  0  0  0  0  0  0  0
  2  4  1  0
  2  1  1  0
  3  2  2  0
  5  4  1  0
  6  5  1  0
  6  8  1  0
  6  7  1  6
  8 10  1  0
  9  8  2  0
 10 11  1  0
 11 12  1  1
 11 16  1  0
 12 13  1  0
 13 14  1  0
 14 18  1  0
 14 15  2  0
 16 17  2  0
 20 19  1  6
 20 22  1  0
 21 20  1  0
 22 24  1  0
 22 23  1  1
 23 16  1  0
 24 25  1  0
 26 24  2  0
M  END
$$$$
