QEV.pdb
     RDKit          3D

 26 25  0  0  1  0  0  0  0  0999 V2000
    9.0620  -13.8118   16.0522 N   0  0  0  0  0  0  0  0  0  0  0  0
    7.9428  -14.0461   16.8730 C   0  0  0  0  0  0  0  0  0  0  0  0
    7.3320  -15.1283   16.7938 O   0  0  0  0  0  0  0  0  0  0  0  0
    7.5002  -13.0086   17.8215 C   0  0  0  0  0  0  0  0  0  0  0  0
    7.2671  -13.5979   19.1754 C   0  0  0  0  0  0  0  0  0  0  0  0
    8.4767  -13.7350   20.0282 C   0  0  2  0  0  0  0  0  0  0  0  0
    9.4732  -14.5465   19.3509 N   0  0  0  0  0  0  0  0  0  0  0  0
    8.2523  -14.2881   21.3661 C   0  0  0  0  0  0  0  0  0  0  0  0
    7.3742  -13.7988   22.1100 O   0  0  0  0  0  0  0  0  0  0  0  0
    8.9873  -15.3796   21.8956 N   0  0  0  0  0  0  0  0  0  0  0  0
    8.6865  -15.9876   23.2096 C   0  0  1  0  0  0  0  0  0  0  0  0
    9.4672  -17.2782   23.2582 C   0  0  0  0  0  0  0  0  0  0  0  0
    8.5914  -18.4777   23.3706 C   0  0  0  0  0  0  0  0  0  0  0  0
    9.2906  -19.7743   23.3980 C   0  0  0  0  0  0  0  0  0  0  0  0
   10.4333  -19.9712   23.8632 O   0  0  0  0  0  0  0  0  0  0  0  0
    8.9921  -15.0497   24.2940 C   0  0  0  0  0  0  0  0  0  0  0  0
   10.1171  -14.5382   24.4917 O   0  0  0  0  0  0  0  0  0  0  0  0
    8.6631  -20.9201   22.8682 O   0  0  0  0  0  0  0  0  0  0  0  0
    7.1074  -11.8780   25.3711 C   0  0  0  0  0  0  0  0  0  0  0  0
    7.1952  -12.7654   26.5924 C   0  0  1  0  0  0  0  0  0  0  0  0
    5.8519  -13.4752   26.7346 C   0  0  0  0  0  0  0  0  0  0  0  0
    8.2861  -13.7847   26.3437 C   0  0  2  0  0  0  0  0  0  0  0  0
    7.9673  -14.6501   25.2300 N   0  0  0  0  0  0  0  0  0  0  0  0
    8.4560  -14.6104   27.5619 C   0  0  0  0  0  0  0  0  0  0  0  0
    8.9222  -14.0276   28.7220 O   0  0  0  0  0  0  0  0  0  0  0  0
    8.1885  -15.8442   27.5856 O   0  0  0  0  0  0  0  0  0  0  0  0
  2  4  1  0
  2  1  1  0
  3  2  2  0
  5  4  1  0
  6  5  1  0
  6  8  1  0
  6  7  1  6
  8 10  1  0
  9  8  2  0
 10 11  1  0
 11 12  1  1
 11 16  1  0
 12 13  1  0
 13 14  1  0
 14 18  1  0
 14 15  2  0
 16 17  2  0
 20 19  1  6
 20 22  1  0
 21 20  1  0
 22 24  1  0
 22 23  1  6
 23 16  1  0
 24 25  1  0
 26 24  2  0
M  END
$$$$
