QEV.pdb
     RDKit          3D

 26 25  0  0  1  0  0  0  0  0999 V2000
    9.3741  -12.4829   18.3144 N   0  0  0  0  0  0  0  0  0  0  0  0
    8.6409  -13.5810   17.8267 C   0  0  0  0  0  0  0  0  0  0  0  0
    9.2089  -14.4482   17.1369 O   0  0  0  0  0  0  0  0  0  0  0  0
    7.2047  -13.6978   18.1357 C   0  0  0  0  0  0  0  0  0  0  0  0
    6.9896  -13.7931   19.6119 C   0  0  0  0  0  0  0  0  0  0  0  0
    7.8684  -14.7578   20.3236 C   0  0  2  0  0  0  0  0  0  0  0  0
    7.8796  -16.0304   19.6232 N   0  0  0  0  0  0  0  0  0  0  0  0
    7.5391  -14.9999   21.7304 C   0  0  0  0  0  0  0  0  0  0  0  0
    6.7757  -14.2200   22.3411 O   0  0  0  0  0  0  0  0  0  0  0  0
    8.0432  -16.0968   22.4751 N   0  0  0  0  0  0  0  0  0  0  0  0
    7.6860  -16.3385   23.8896 C   0  0  1  0  0  0  0  0  0  0  0  0
    7.9913  -17.7929   24.1520 C   0  0  0  0  0  0  0  0  0  0  0  0
    7.0245  -18.7131   23.4910 C   0  0  0  0  0  0  0  0  0  0  0  0
    7.2754  -20.1507   23.6941 C   0  0  0  0  0  0  0  0  0  0  0  0
    6.7186  -20.8690   24.5514 O   0  0  0  0  0  0  0  0  0  0  0  0
    8.3916  -15.3999   24.7673 C   0  0  0  0  0  0  0  0  0  0  0  0
    9.6275  -15.2036   24.7464 O   0  0  0  0  0  0  0  0  0  0  0  0
    8.2120  -20.8203   22.8805 O   0  0  0  0  0  0  0  0  0  0  0  0
    7.2286  -11.7533   25.6092 C   0  0  0  0  0  0  0  0  0  0  0  0
    7.5062  -12.4717   26.9106 C   0  0  1  0  0  0  0  0  0  0  0  0
    6.1624  -12.9246   27.4741 C   0  0  0  0  0  0  0  0  0  0  0  0
    8.3603  -13.6811   26.5961 C   0  0  2  0  0  0  0  0  0  0  0  0
    7.6664  -14.6200   25.7429 N   0  0  0  0  0  0  0  0  0  0  0  0
    8.7184  -14.3569   27.8648 C   0  0  0  0  0  0  0  0  0  0  0  0
    9.5432  -13.7198   28.7684 O   0  0  0  0  0  0  0  0  0  0  0  0
    8.2948  -15.5091   28.1604 O   0  0  0  0  0  0  0  0  0  0  0  0
  2  4  1  0
  2  1  1  0
  3  2  2  0
  5  4  1  0
  6  5  1  0
  6  8  1  0
  6  7  1  6
  8 10  1  0
  9  8  2  0
 10 11  1  0
 11 12  1  1
 11 16  1  0
 12 13  1  0
 13 14  1  0
 14 18  1  0
 14 15  2  0
 16 17  2  0
 20 19  1  6
 20 22  1  0
 21 20  1  0
 22 24  1  0
 22 23  1  6
 23 16  1  0
 24 25  1  0
 26 24  2  0
M  END
$$$$
