QEV.pdb
     RDKit          3D

 26 25  0  0  1  0  0  0  0  0999 V2000
    8.9076  -12.2213   18.4428 N   0  0  0  0  0  0  0  0  0  0  0  0
    7.7833  -13.0656   18.3779 C   0  0  0  0  0  0  0  0  0  0  0  0
    6.6862  -12.6091   18.0057 O   0  0  0  0  0  0  0  0  0  0  0  0
    7.9112  -14.4855   18.7510 C   0  0  0  0  0  0  0  0  0  0  0  0
    9.3013  -14.7858   19.2116 C   0  0  0  0  0  0  0  0  0  0  0  0
    9.5048  -16.1429   19.7828 C   0  0  2  0  0  0  0  0  0  0  0  0
    9.0927  -17.1529   18.8236 N   0  0  0  0  0  0  0  0  0  0  0  0
    8.8313  -16.4042   21.0572 C   0  0  0  0  0  0  0  0  0  0  0  0
    7.8753  -17.2087   21.1102 O   0  0  0  0  0  0  0  0  0  0  0  0
    9.2011  -15.7867   22.2795 N   0  0  0  0  0  0  0  0  0  0  0  0
    8.5655  -16.1213   23.5721 C   0  0  1  0  0  0  0  0  0  0  0  0
    8.9580  -17.5475   23.8707 C   0  0  0  0  0  0  0  0  0  0  0  0
   10.4325  -17.7568   23.8456 C   0  0  0  0  0  0  0  0  0  0  0  0
   10.8854  -19.1236   24.1584 C   0  0  0  0  0  0  0  0  0  0  0  0
   11.5933  -19.4460   25.1360 O   0  0  0  0  0  0  0  0  0  0  0  0
    8.9534  -15.1540   24.6032 C   0  0  0  0  0  0  0  0  0  0  0  0
   10.1321  -14.9401   24.9656 O   0  0  0  0  0  0  0  0  0  0  0  0
   10.5176  -20.1933   23.3171 O   0  0  0  0  0  0  0  0  0  0  0  0
    7.0683  -11.5820   25.4377 C   0  0  0  0  0  0  0  0  0  0  0  0
    7.2328  -12.4655   26.6539 C   0  0  1  0  0  0  0  0  0  0  0  0
    5.9112  -13.1989   26.8637 C   0  0  0  0  0  0  0  0  0  0  0  0
    8.3280  -13.4657   26.3519 C   0  0  2  0  0  0  0  0  0  0  0  0
    7.9532  -14.3644   25.2829 N   0  0  0  0  0  0  0  0  0  0  0  0
    8.6023  -14.2580   27.5732 C   0  0  0  0  0  0  0  0  0  0  0  0
    9.1496  -13.6407   28.6787 O   0  0  0  0  0  0  0  0  0  0  0  0
    8.3530  -15.4936   27.6481 O   0  0  0  0  0  0  0  0  0  0  0  0
  2  4  1  0
  2  1  1  0
  3  2  2  0
  5  4  1  0
  6  5  1  0
  6  8  1  0
  6  7  1  6
  8 10  1  0
  9  8  2  0
 10 11  1  0
 11 12  1  1
 11 16  1  0
 12 13  1  0
 13 14  1  0
 14 18  1  0
 14 15  2  0
 16 17  2  0
 20 19  1  6
 20 22  1  0
 21 20  1  0
 22 24  1  0
 22 23  1  6
 23 16  1  0
 24 25  1  0
 26 24  2  0
M  END
$$$$
