SWT.pdb
     RDKit          3D

 28 29  0  0  1  0  0  0  0  0999 V2000
   25.5369  -22.7533  -18.1748 O   0  0  0  0  0  0  0  0  0  0  0  0
   26.7839  -22.4523  -17.6828 C   0  0  0  0  0  0  0  0  0  0  0  0
   27.1177  -23.2999  -16.4483 C   0  0  2  0  0  0  0  0  0  0  0  0
   27.1360  -24.6689  -16.8947 N   0  0  0  0  0  0  0  0  0  0  0  0
   26.1143  -23.0704  -15.3766 C   0  0  0  0  0  0  0  0  0  0  0  0
   25.3800  -24.0236  -15.0133 O   0  0  0  0  0  0  0  0  0  0  0  0
   25.9412  -21.8119  -14.7337 N   0  0  0  0  0  0  0  0  0  0  0  0
   24.9949  -21.6077  -13.6664 C   0  0  1  0  0  0  0  0  0  0  0  0
   25.4584  -20.6402  -12.6312 C   0  0  0  0  0  0  0  0  0  0  0  0
   24.7326  -20.6859  -11.3456 C   0  0  0  0  0  0  0  0  0  0  0  0
   25.1687  -21.3189  -10.1725 C   0  0  0  0  0  0  0  0  0  0  0  0
   24.2482  -21.1767   -9.2038 N   0  0  0  0  0  0  0  0  0  0  0  0
   23.2040  -20.4654   -9.6906 C   0  0  0  0  0  0  0  0  0  0  0  0
   22.0338  -20.0592   -9.0853 C   0  0  0  0  0  0  0  0  0  0  0  0
   21.1529  -19.3252   -9.8547 C   0  0  0  0  0  0  0  0  0  0  0  0
   21.4044  -19.0000  -11.1645 C   0  0  0  0  0  0  0  0  0  0  0  0
   22.5790  -19.4227  -11.7301 C   0  0  0  0  0  0  0  0  0  0  0  0
   23.4966  -20.1609  -11.0057 C   0  0  0  0  0  0  0  0  0  0  0  0
   23.6534  -21.3083  -14.2243 C   0  0  0  0  0  0  0  0  0  0  0  0
   23.4782  -20.3047  -14.9724 O   0  0  0  0  0  0  0  0  0  0  0  0
   21.7289  -23.1090  -16.6951 C   0  0  0  0  0  0  0  0  0  0  0  0
   20.8998  -23.0716  -15.4423 C   0  0  1  0  0  0  0  0  0  0  0  0
   21.0732  -24.2262  -14.6835 O   0  0  0  0  0  0  0  0  0  0  0  0
   21.2205  -21.8547  -14.5731 C   0  0  2  0  0  0  0  0  0  0  0  0
   22.5105  -22.1062  -13.9641 N   0  0  0  0  0  0  0  0  0  0  0  0
   20.2005  -21.8328  -13.5106 C   0  0  0  0  0  0  0  0  0  0  0  0
   18.8835  -21.4664  -13.7466 O   0  0  0  0  0  0  0  0  0  0  0  0
   20.5186  -22.1538  -12.3465 O   0  0  0  0  0  0  0  0  0  0  0  0
  2  1  1  0
  2  3  1  0
  3  5  1  0
  3  4  1  6
  5  6  2  0
  7  8  1  0
  7  5  1  0
  8  9  1  1
  9 10  1  0
 10 18  1  0
 11 10  2  0
 11 12  1  0
 12 13  1  0
 13 14  1  0
 14 15  2  0
 16 15  1  0
 17 16  2  0
 18 13  2  0
 18 17  1  0
 19 25  1  0
 19  8  1  0
 20 19  2  0
 22 21  1  6
 23 22  1  0
 24 25  1  1
 24 22  1  0
 26 24  1  0
 27 26  1  0
 28 26  2  0
M  END
$$$$
