SWT.pdb
     RDKit          3D

 28 29  0  0  1  0  0  0  0  0999 V2000
   27.3425  -19.5657  -15.5674 O   0  0  0  0  0  0  0  0  0  0  0  0
   28.6340  -19.9435  -15.2893 C   0  0  0  0  0  0  0  0  0  0  0  0
   28.6879  -21.3583  -14.6985 C   0  0  2  0  0  0  0  0  0  0  0  0
   28.2565  -22.2472  -15.7463 N   0  0  0  0  0  0  0  0  0  0  0  0
   27.8247  -21.4486  -13.4924 C   0  0  0  0  0  0  0  0  0  0  0  0
   26.6791  -21.9548  -13.5980 O   0  0  0  0  0  0  0  0  0  0  0  0
   28.2344  -20.9857  -12.2099 N   0  0  0  0  0  0  0  0  0  0  0  0
   27.3903  -21.0739  -11.0454 C   0  0  1  0  0  0  0  0  0  0  0  0
   28.1037  -20.7990   -9.7656 C   0  0  0  0  0  0  0  0  0  0  0  0
   27.2449  -20.6814   -8.5696 C   0  0  0  0  0  0  0  0  0  0  0  0
   25.8721  -20.9610   -8.5072 C   0  0  0  0  0  0  0  0  0  0  0  0
   25.4105  -20.7251   -7.2674 N   0  0  0  0  0  0  0  0  0  0  0  0
   26.4336  -20.2946   -6.4920 C   0  0  0  0  0  0  0  0  0  0  0  0
   26.4626  -19.9357   -5.1612 C   0  0  0  0  0  0  0  0  0  0  0  0
   27.6815  -19.5419   -4.6454 C   0  0  0  0  0  0  0  0  0  0  0  0
   28.8280  -19.5001   -5.3993 C   0  0  0  0  0  0  0  0  0  0  0  0
   28.7576  -19.8644   -6.7186 C   0  0  0  0  0  0  0  0  0  0  0  0
   27.5629  -20.2665   -7.2868 C   0  0  0  0  0  0  0  0  0  0  0  0
   26.1610  -20.2677  -11.2441 C   0  0  0  0  0  0  0  0  0  0  0  0
   26.2235  -19.0070  -11.3107 O   0  0  0  0  0  0  0  0  0  0  0  0
   24.1930  -19.7479  -14.1242 C   0  0  0  0  0  0  0  0  0  0  0  0
   23.2957  -20.4069  -13.1148 C   0  0  1  0  0  0  0  0  0  0  0  0
   23.2966  -21.7916  -13.2616 O   0  0  0  0  0  0  0  0  0  0  0  0
   23.6896  -20.0606  -11.6782 C   0  0  2  0  0  0  0  0  0  0  0  0
   24.8705  -20.8411  -11.3704 N   0  0  0  0  0  0  0  0  0  0  0  0
   22.5841  -20.5337  -10.8274 C   0  0  0  0  0  0  0  0  0  0  0  0
   21.3489  -19.9036  -10.7882 O   0  0  0  0  0  0  0  0  0  0  0  0
   22.7502  -21.5403  -10.1072 O   0  0  0  0  0  0  0  0  0  0  0  0
  2  1  1  0
  2  3  1  0
  3  5  1  0
  3  4  1  6
  5  6  2  0
  7  8  1  0
  7  5  1  0
  8  9  1  1
  9 10  1  0
 10 18  1  0
 11 10  2  0
 11 12  1  0
 12 13  1  0
 13 14  1  0
 14 15  2  0
 16 15  1  0
 17 16  2  0
 18 13  2  0
 18 17  1  0
 19 25  1  0
 19  8  1  0
 20 19  2  0
 22 21  1  6
 23 22  1  0
 24 25  1  1
 24 22  1  0
 26 24  1  0
 27 26  1  0
 28 26  2  0
M  END
$$$$
