SWT.pdb
     RDKit          3D

 28 29  0  0  1  0  0  0  0  0999 V2000
   27.7077  -18.6140  -14.0653 O   0  0  0  0  0  0  0  0  0  0  0  0
   28.8342  -18.8418  -13.3123 C   0  0  0  0  0  0  0  0  0  0  0  0
   29.0625  -20.3421  -13.0870 C   0  0  2  0  0  0  0  0  0  0  0  0
   29.3878  -20.8964  -14.3757 N   0  0  0  0  0  0  0  0  0  0  0  0
   27.8510  -20.9664  -12.4949 C   0  0  0  0  0  0  0  0  0  0  0  0
   27.0163  -21.5200  -13.2543 O   0  0  0  0  0  0  0  0  0  0  0  0
   27.5855  -20.9693  -11.0962 N   0  0  0  0  0  0  0  0  0  0  0  0
   26.3930  -21.5492  -10.5324 C   0  0  1  0  0  0  0  0  0  0  0  0
   26.4956  -21.8300   -9.0718 C   0  0  0  0  0  0  0  0  0  0  0  0
   26.8934  -20.6842   -8.2289 C   0  0  0  0  0  0  0  0  0  0  0  0
   26.6528  -19.3308   -8.5068 C   0  0  0  0  0  0  0  0  0  0  0  0
   27.1707  -18.5623   -7.5337 N   0  0  0  0  0  0  0  0  0  0  0  0
   27.7536  -19.3595   -6.6073 C   0  0  0  0  0  0  0  0  0  0  0  0
   28.4058  -19.0448   -5.4341 C   0  0  0  0  0  0  0  0  0  0  0  0
   28.8913  -20.0989   -4.6857 C   0  0  0  0  0  0  0  0  0  0  0  0
   28.7458  -21.4095   -5.0674 C   0  0  0  0  0  0  0  0  0  0  0  0
   28.0914  -21.6808   -6.2405 C   0  0  0  0  0  0  0  0  0  0  0  0
   27.5856  -20.6639   -7.0291 C   0  0  0  0  0  0  0  0  0  0  0  0
   25.2050  -20.7488  -10.9179 C   0  0  0  0  0  0  0  0  0  0  0  0
   25.2811  -19.4905  -11.0113 O   0  0  0  0  0  0  0  0  0  0  0  0
   21.4749  -20.8663  -13.9790 C   0  0  0  0  0  0  0  0  0  0  0  0
   22.6542  -21.3964  -13.2131 C   0  0  1  0  0  0  0  0  0  0  0  0
   23.8147  -21.3660  -13.9820 O   0  0  0  0  0  0  0  0  0  0  0  0
   22.8978  -20.6211  -11.9175 C   0  0  2  0  0  0  0  0  0  0  0  0
   23.9409  -21.3253  -11.2005 N   0  0  0  0  0  0  0  0  0  0  0  0
   21.6497  -20.7220  -11.1416 C   0  0  0  0  0  0  0  0  0  0  0  0
   20.5489  -19.9150  -11.3887 O   0  0  0  0  0  0  0  0  0  0  0  0
   21.5642  -21.5622  -10.2217 O   0  0  0  0  0  0  0  0  0  0  0  0
  2  1  1  0
  2  3  1  0
  3  5  1  0
  3  4  1  6
  5  6  2  0
  7  8  1  0
  7  5  1  0
  8  9  1  1
  9 10  1  0
 10 18  1  0
 11 10  2  0
 11 12  1  0
 12 13  1  0
 13 14  1  0
 14 15  2  0
 16 15  1  0
 17 16  2  0
 18 13  2  0
 18 17  1  0
 19 25  1  0
 19  8  1  0
 20 19  2  0
 22 21  1  6
 23 22  1  0
 24 25  1  1
 24 22  1  0
 26 24  1  0
 27 26  1  0
 28 26  2  0
M  END
$$$$
