SWT.pdb
     RDKit          3D

 28 29  0  0  1  0  0  0  0  0999 V2000
   26.1241  -21.4524  -18.5673 O   0  0  0  0  0  0  0  0  0  0  0  0
   26.5120  -20.6037  -17.5588 C   0  0  0  0  0  0  0  0  0  0  0  0
   27.4557  -21.3027  -16.5716 C   0  0  2  0  0  0  0  0  0  0  0  0
   27.7590  -22.5872  -17.1476 N   0  0  0  0  0  0  0  0  0  0  0  0
   26.8128  -21.4215  -15.2372 C   0  0  0  0  0  0  0  0  0  0  0  0
   26.3320  -22.5289  -14.8876 O   0  0  0  0  0  0  0  0  0  0  0  0
   26.7131  -20.3327  -14.3253 N   0  0  0  0  0  0  0  0  0  0  0  0
   26.0980  -20.4586  -13.0284 C   0  0  1  0  0  0  0  0  0  0  0  0
   26.7252  -19.6021  -11.9817 C   0  0  0  0  0  0  0  0  0  0  0  0
   27.4126  -20.3261  -10.8932 C   0  0  0  0  0  0  0  0  0  0  0  0
   28.3360  -21.3701  -11.0494 C   0  0  0  0  0  0  0  0  0  0  0  0
   28.7445  -21.8067   -9.8459 N   0  0  0  0  0  0  0  0  0  0  0  0
   28.1227  -21.0864   -8.8827 C   0  0  0  0  0  0  0  0  0  0  0  0
   28.2164  -21.1542   -7.5089 C   0  0  0  0  0  0  0  0  0  0  0  0
   27.4499  -20.2630   -6.7843 C   0  0  0  0  0  0  0  0  0  0  0  0
   26.6237  -19.3410   -7.3776 C   0  0  0  0  0  0  0  0  0  0  0  0
   26.5583  -19.3055   -8.7460 C   0  0  0  0  0  0  0  0  0  0  0  0
   27.3039  -20.1751   -9.5205 C   0  0  0  0  0  0  0  0  0  0  0  0
   24.6273  -20.3026  -13.1439 C   0  0  0  0  0  0  0  0  0  0  0  0
   24.1299  -19.2521  -13.6406 O   0  0  0  0  0  0  0  0  0  0  0  0
   20.2438  -22.5697  -13.3407 C   0  0  0  0  0  0  0  0  0  0  0  0
   21.7455  -22.5263  -13.3045 C   0  0  1  0  0  0  0  0  0  0  0  0
   22.2933  -22.8543  -14.5419 O   0  0  0  0  0  0  0  0  0  0  0  0
   22.2740  -21.1566  -12.8761 C   0  0  2  0  0  0  0  0  0  0  0  0
   23.7073  -21.2939  -12.7181 N   0  0  0  0  0  0  0  0  0  0  0  0
   21.6835  -20.8875  -11.5537 C   0  0  0  0  0  0  0  0  0  0  0  0
   20.4239  -20.3277  -11.3977 O   0  0  0  0  0  0  0  0  0  0  0  0
   22.3303  -21.1687  -10.5231 O   0  0  0  0  0  0  0  0  0  0  0  0
  2  1  1  0
  2  3  1  0
  3  5  1  0
  3  4  1  6
  5  6  2  0
  7  8  1  0
  7  5  1  0
  8  9  1  1
  9 10  1  0
 10 18  1  0
 11 10  2  0
 11 12  1  0
 12 13  1  0
 13 14  1  0
 14 15  2  0
 16 15  1  0
 17 16  2  0
 18 13  2  0
 18 17  1  0
 19 25  1  0
 19  8  1  0
 20 19  2  0
 22 21  1  6
 23 22  1  0
 24 25  1  1
 24 22  1  0
 26 24  1  0
 27 26  1  0
 28 26  2  0
M  END
$$$$
