SWT.pdb
     RDKit          3D

 28 29  0  0  1  0  0  0  0  0999 V2000
   29.0040  -19.2036  -17.2515 O   0  0  0  0  0  0  0  0  0  0  0  0
   28.0628  -19.7837  -16.4358 C   0  0  0  0  0  0  0  0  0  0  0  0
   28.6449  -20.9811  -15.6735 C   0  0  2  0  0  0  0  0  0  0  0  0
   28.7317  -22.0586  -16.6249 N   0  0  0  0  0  0  0  0  0  0  0  0
   27.7835  -21.3233  -14.5121 C   0  0  0  0  0  0  0  0  0  0  0  0
   26.7104  -21.9469  -14.7106 O   0  0  0  0  0  0  0  0  0  0  0  0
   28.1161  -20.9767  -13.1718 N   0  0  0  0  0  0  0  0  0  0  0  0
   27.2214  -21.2035  -12.0653 C   0  0  1  0  0  0  0  0  0  0  0  0
   27.8598  -21.0198  -10.7307 C   0  0  0  0  0  0  0  0  0  0  0  0
   26.9298  -20.8082   -9.6029 C   0  0  0  0  0  0  0  0  0  0  0  0
   25.5428  -21.0144   -9.6256 C   0  0  0  0  0  0  0  0  0  0  0  0
   25.0119  -20.7033   -8.4310 N   0  0  0  0  0  0  0  0  0  0  0  0
   26.0020  -20.2933   -7.6033 C   0  0  0  0  0  0  0  0  0  0  0  0
   25.9603  -19.8807   -6.2885 C   0  0  0  0  0  0  0  0  0  0  0  0
   27.1611  -19.5282   -5.7046 C   0  0  0  0  0  0  0  0  0  0  0  0
   28.3564  -19.5768   -6.3779 C   0  0  0  0  0  0  0  0  0  0  0  0
   28.3558  -19.9923   -7.6838 C   0  0  0  0  0  0  0  0  0  0  0  0
   27.1822  -20.3565   -8.3180 C   0  0  0  0  0  0  0  0  0  0  0  0
   25.9696  -20.4303  -12.2546 C   0  0  0  0  0  0  0  0  0  0  0  0
   25.9936  -19.1669  -12.2858 O   0  0  0  0  0  0  0  0  0  0  0  0
   21.6769  -19.9675  -14.3450 C   0  0  0  0  0  0  0  0  0  0  0  0
   23.0063  -20.5977  -14.0385 C   0  0  1  0  0  0  0  0  0  0  0  0
   23.9824  -20.1909  -14.9443 O   0  0  0  0  0  0  0  0  0  0  0  0
   23.4831  -20.2803  -12.6204 C   0  0  2  0  0  0  0  0  0  0  0  0
   24.6988  -21.0395  -12.4100 N   0  0  0  0  0  0  0  0  0  0  0  0
   22.4453  -20.8031  -11.7151 C   0  0  0  0  0  0  0  0  0  0  0  0
   21.4645  -19.9960  -11.1576 O   0  0  0  0  0  0  0  0  0  0  0  0
   22.4351  -22.0185  -11.4285 O   0  0  0  0  0  0  0  0  0  0  0  0
  2  1  1  0
  2  3  1  0
  3  5  1  0
  3  4  1  6
  5  6  2  0
  7  8  1  0
  7  5  1  0
  8  9  1  1
  9 10  1  0
 10 18  1  0
 11 10  2  0
 11 12  1  0
 12 13  1  0
 13 14  1  0
 14 15  2  0
 16 15  1  0
 17 16  2  0
 18 13  2  0
 18 17  1  0
 19 25  1  0
 19  8  1  0
 20 19  2  0
 22 21  1  6
 23 22  1  0
 24 25  1  1
 24 22  1  0
 26 24  1  0
 27 26  1  0
 28 26  2  0
M  END
$$$$
