SWT.pdb
     RDKit          3D

 28 29  0  0  1  0  0  0  0  0999 V2000
   15.7515  -11.1010  -14.1934 O   0  0  0  0  0  0  0  0  0  0  0  0
   16.0437   -9.8617  -14.7097 C   0  0  0  0  0  0  0  0  0  0  0  0
   17.4819   -9.4426  -14.3784 C   0  0  2  0  0  0  0  0  0  0  0  0
   18.3201  -10.5504  -14.7581 N   0  0  0  0  0  0  0  0  0  0  0  0
   17.6048   -9.1122  -12.9349 C   0  0  0  0  0  0  0  0  0  0  0  0
   18.1632   -9.9346  -12.1657 O   0  0  0  0  0  0  0  0  0  0  0  0
   17.1169   -7.8982  -12.3735 N   0  0  0  0  0  0  0  0  0  0  0  0
   17.2511   -7.5794  -10.9746 C   0  0  1  0  0  0  0  0  0  0  0  0
   18.4686   -6.7803  -10.6560 C   0  0  0  0  0  0  0  0  0  0  0  0
   19.0662   -6.0487  -11.7914 C   0  0  0  0  0  0  0  0  0  0  0  0
   18.3847   -5.2079  -12.6833 C   0  0  0  0  0  0  0  0  0  0  0  0
   19.2371   -4.7263  -13.6038 N   0  0  0  0  0  0  0  0  0  0  0  0
   20.4741   -5.2185  -13.3575 C   0  0  0  0  0  0  0  0  0  0  0  0
   21.6696   -5.0128  -14.0127 C   0  0  0  0  0  0  0  0  0  0  0  0
   22.7802   -5.6588  -13.5067 C   0  0  0  0  0  0  0  0  0  0  0  0
   22.7262   -6.4741  -12.4036 C   0  0  0  0  0  0  0  0  0  0  0  0
   21.5190   -6.6533  -11.7803 C   0  0  0  0  0  0  0  0  0  0  0  0
   20.3749   -6.0310  -12.2449 C   0  0  0  0  0  0  0  0  0  0  0  0
   15.9872   -6.9972  -10.4605 C   0  0  0  0  0  0  0  0  0  0  0  0
   15.3057   -6.2086  -11.1757 O   0  0  0  0  0  0  0  0  0  0  0  0
   12.6618   -6.9120   -6.7198 C   0  0  0  0  0  0  0  0  0  0  0  0
   13.9484   -7.3891   -7.3326 C   0  0  1  0  0  0  0  0  0  0  0  0
   13.9459   -8.7703   -7.5088 O   0  0  0  0  0  0  0  0  0  0  0  0
   14.2314   -6.7186   -8.6778 C   0  0  2  0  0  0  0  0  0  0  0  0
   15.4731   -7.2794   -9.1697 N   0  0  0  0  0  0  0  0  0  0  0  0
   14.4493   -5.2917   -8.3838 C   0  0  0  0  0  0  0  0  0  0  0  0
   15.7156   -4.7361   -8.2749 O   0  0  0  0  0  0  0  0  0  0  0  0
   13.4650   -4.5400   -8.2236 O   0  0  0  0  0  0  0  0  0  0  0  0
  2  1  1  0
  2  3  1  0
  3  5  1  0
  3  4  1  1
  5  6  2  0
  7  8  1  0
  7  5  1  0
  8  9  1  6
  9 10  1  0
 10 18  1  0
 11 10  2  0
 11 12  1  0
 12 13  1  0
 13 14  1  0
 14 15  2  0
 16 15  1  0
 17 16  2  0
 18 13  2  0
 18 17  1  0
 19 25  1  0
 19  8  1  0
 20 19  2  0
 22 21  1  6
 23 22  1  0
 24 25  1  1
 24 22  1  0
 26 24  1  0
 27 26  1  0
 28 26  2  0
M  END
$$$$
