SWT.pdb
     RDKit          3D

 28 29  0  0  1  0  0  0  0  0999 V2000
   27.0987  -19.2549  -15.4442 O   0  0  0  0  0  0  0  0  0  0  0  0
   28.3329  -19.6084  -14.9547 C   0  0  0  0  0  0  0  0  0  0  0  0
   28.3686  -21.0854  -14.5414 C   0  0  2  0  0  0  0  0  0  0  0  0
   27.8061  -21.8238  -15.6424 N   0  0  0  0  0  0  0  0  0  0  0  0
   27.6089  -21.2883  -13.2806 C   0  0  0  0  0  0  0  0  0  0  0  0
   26.4795  -21.8376  -13.3299 O   0  0  0  0  0  0  0  0  0  0  0  0
   28.1013  -20.8876  -12.0062 N   0  0  0  0  0  0  0  0  0  0  0  0
   27.2924  -20.9222  -10.8142 C   0  0  1  0  0  0  0  0  0  0  0  0
   28.0190  -20.4968   -9.5840 C   0  0  0  0  0  0  0  0  0  0  0  0
   27.2400  -20.5571   -8.3306 C   0  0  0  0  0  0  0  0  0  0  0  0
   25.8890  -20.9146   -8.2136 C   0  0  0  0  0  0  0  0  0  0  0  0
   25.5033  -20.8412   -6.9284 N   0  0  0  0  0  0  0  0  0  0  0  0
   26.5565  -20.4445   -6.1755 C   0  0  0  0  0  0  0  0  0  0  0  0
   26.6604  -20.2328   -4.8171 C   0  0  0  0  0  0  0  0  0  0  0  0
   27.8925  -19.8336   -4.3381 C   0  0  0  0  0  0  0  0  0  0  0  0
   28.9813  -19.6482   -5.1535 C   0  0  0  0  0  0  0  0  0  0  0  0
   28.8372  -19.8688   -6.4983 C   0  0  0  0  0  0  0  0  0  0  0  0
   27.6260  -20.2692   -7.0317 C   0  0  0  0  0  0  0  0  0  0  0  0
   26.0129  -20.2078  -11.0450 C   0  0  0  0  0  0  0  0  0  0  0  0
   25.9770  -18.9444  -11.0637 O   0  0  0  0  0  0  0  0  0  0  0  0
   24.0023  -19.9996  -14.0568 C   0  0  0  0  0  0  0  0  0  0  0  0
   23.1543  -20.6340  -12.9905 C   0  0  1  0  0  0  0  0  0  0  0  0
   23.2197  -22.0237  -13.0491 O   0  0  0  0  0  0  0  0  0  0  0  0
   23.5543  -20.1779  -11.5866 C   0  0  2  0  0  0  0  0  0  0  0  0
   24.7799  -20.8754  -11.2554 N   0  0  0  0  0  0  0  0  0  0  0  0
   22.4903  -20.6529  -10.6854 C   0  0  0  0  0  0  0  0  0  0  0  0
   21.2073  -20.1258  -10.7010 O   0  0  0  0  0  0  0  0  0  0  0  0
   22.7378  -21.5653   -9.8695 O   0  0  0  0  0  0  0  0  0  0  0  0
  2  1  1  0
  2  3  1  0
  3  5  1  0
  3  4  1  6
  5  6  2  0
  7  8  1  0
  7  5  1  0
  8  9  1  1
  9 10  1  0
 10 18  1  0
 11 10  2  0
 11 12  1  0
 12 13  1  0
 13 14  1  0
 14 15  2  0
 16 15  1  0
 17 16  2  0
 18 13  2  0
 18 17  1  0
 19 25  1  0
 19  8  1  0
 20 19  2  0
 22 21  1  6
 23 22  1  0
 24 25  1  1
 24 22  1  0
 26 24  1  0
 27 26  1  0
 28 26  2  0
M  END
$$$$
