SWT.pdb
     RDKit          3D

 28 29  0  0  1  0  0  0  0  0999 V2000
   27.6597  -19.2959  -16.5361 O   0  0  0  0  0  0  0  0  0  0  0  0
   27.7084  -19.0173  -15.1915 C   0  0  0  0  0  0  0  0  0  0  0  0
   28.2900  -20.1939  -14.3971 C   0  0  2  0  0  0  0  0  0  0  0  0
   28.8354  -21.1045  -15.3704 N   0  0  0  0  0  0  0  0  0  0  0  0
   27.2354  -20.8265  -13.5630 C   0  0  0  0  0  0  0  0  0  0  0  0
   26.6646  -21.8642  -13.9840 O   0  0  0  0  0  0  0  0  0  0  0  0
   26.8350  -20.3109  -12.2977 N   0  0  0  0  0  0  0  0  0  0  0  0
   25.7685  -20.8932  -11.5232 C   0  0  1  0  0  0  0  0  0  0  0  0
   25.8771  -20.6293  -10.0600 C   0  0  0  0  0  0  0  0  0  0  0  0
   27.2014  -20.8928   -9.4613 C   0  0  0  0  0  0  0  0  0  0  0  0
   28.2083  -21.7028  -10.0063 C   0  0  0  0  0  0  0  0  0  0  0  0
   29.2708  -21.7317   -9.1839 N   0  0  0  0  0  0  0  0  0  0  0  0
   29.0086  -20.9638   -8.1000 C   0  0  0  0  0  0  0  0  0  0  0  0
   29.7812  -20.6761   -6.9949 C   0  0  0  0  0  0  0  0  0  0  0  0
   29.2296  -19.8377   -6.0464 C   0  0  0  0  0  0  0  0  0  0  0  0
   27.9725  -19.3005   -6.1716 C   0  0  0  0  0  0  0  0  0  0  0  0
   27.2359  -19.6108   -7.2848 C   0  0  0  0  0  0  0  0  0  0  0  0
   27.7390  -20.4456   -8.2656 C   0  0  0  0  0  0  0  0  0  0  0  0
   24.4552  -20.5339  -12.1122 C   0  0  0  0  0  0  0  0  0  0  0  0
   24.1152  -19.3225  -12.2328 O   0  0  0  0  0  0  0  0  0  0  0  0
   21.9194  -23.6134  -13.5503 C   0  0  0  0  0  0  0  0  0  0  0  0
   21.9923  -22.2761  -14.2319 C   0  0  1  0  0  0  0  0  0  0  0  0
   20.8102  -21.9852  -14.9079 O   0  0  0  0  0  0  0  0  0  0  0  0
   22.2935  -21.1426  -13.2503 C   0  0  2  0  0  0  0  0  0  0  0  0
   23.5206  -21.4980  -12.5675 N   0  0  0  0  0  0  0  0  0  0  0  0
   21.1953  -21.1513  -12.2686 C   0  0  0  0  0  0  0  0  0  0  0  0
   19.9211  -20.6924  -12.5687 O   0  0  0  0  0  0  0  0  0  0  0  0
   21.4042  -21.5857  -11.1166 O   0  0  0  0  0  0  0  0  0  0  0  0
  2  1  1  0
  2  3  1  0
  3  5  1  0
  3  4  1  6
  5  6  2  0
  7  8  1  0
  7  5  1  0
  8  9  1  1
  9 10  1  0
 10 18  1  0
 11 10  2  0
 11 12  1  0
 12 13  1  0
 13 14  1  0
 14 15  2  0
 16 15  1  0
 17 16  2  0
 18 13  2  0
 18 17  1  0
 19 25  1  0
 19  8  1  0
 20 19  2  0
 22 21  1  1
 23 22  1  0
 24 25  1  1
 24 22  1  0
 26 24  1  0
 27 26  1  0
 28 26  2  0
M  END
$$$$
