YSM.pdb
     RDKit          3D

 27 27  0  0  1  0  0  0  0  0999 V2000
   18.3208  -18.5084  -15.9550 O   0  0  0  0  0  0  0  0  0  0  0  0
   19.4352  -19.2086  -15.4515 C   0  0  0  0  0  0  0  0  0  0  0  0
   20.5826  -18.5528  -15.0571 C   0  0  0  0  0  0  0  0  0  0  0  0
   21.6587  -19.2757  -14.5666 C   0  0  0  0  0  0  0  0  0  0  0  0
   21.6309  -20.6495  -14.4540 C   0  0  0  0  0  0  0  0  0  0  0  0
   22.8069  -21.3300  -13.9288 C   0  0  0  0  0  0  0  0  0  0  0  0
   24.0422  -21.1718  -14.7666 C   0  0  2  0  0  0  0  0  0  0  0  0
   23.9126  -22.0244  -15.9335 N   0  0  0  0  0  0  0  0  0  0  0  0
   25.2133  -21.6667  -13.9609 C   0  0  0  0  0  0  0  0  0  0  0  0
   25.4926  -22.8906  -13.8820 O   0  0  0  0  0  0  0  0  0  0  0  0
   20.4888  -21.3153  -14.8454 C   0  0  0  0  0  0  0  0  0  0  0  0
   19.4237  -20.5784  -15.3327 C   0  0  0  0  0  0  0  0  0  0  0  0
   27.6069  -18.8523  -12.5669 O   0  0  0  0  0  0  0  0  0  0  0  0
   28.2162  -20.0916  -12.4303 C   0  0  0  0  0  0  0  0  0  0  0  0
   27.1556  -21.2001  -12.3999 C   0  0  2  0  0  0  0  0  0  0  0  0
   26.0505  -20.7501  -13.2549 N   0  0  0  0  0  0  0  0  0  0  0  0
   26.6499  -21.2551  -11.0043 C   0  0  0  0  0  0  0  0  0  0  0  0
   25.3976  -21.2621  -10.7567 O   0  0  0  0  0  0  0  0  0  0  0  0
   30.2400  -20.9731   -4.8464 C   0  0  0  0  0  0  0  0  0  0  0  0
   29.2292  -19.5782   -5.3580 S   0  0  0  0  0  0  0  0  0  0  0  0
   27.8185  -20.0668   -6.3450 C   0  0  0  0  0  0  0  0  0  0  0  0
   28.1087  -20.5160   -7.7156 C   0  0  0  0  0  0  0  0  0  0  0  0
   26.9791  -21.0708   -8.5193 C   0  0  2  0  0  0  0  0  0  0  0  0
   27.5062  -21.3013   -9.8948 N   0  0  0  0  0  0  0  0  0  0  0  0
   25.7998  -20.2315   -8.6750 C   0  0  0  0  0  0  0  0  0  0  0  0
   24.5361  -20.5720   -8.2233 O   0  0  0  0  0  0  0  0  0  0  0  0
   25.8943  -19.0982   -9.2688 O   0  0  0  0  0  0  0  0  0  0  0  0
  1  2  1  0
  2  3  2  0
  3  4  1  0
  5  6  1  0
  5  4  2  0
  6  7  1  0
  7  8  1  6
  7  9  1  0
  9 16  1  0
  9 10  2  0
 11  5  1  0
 12 11  2  0
 12  2  1  0
 14 13  1  0
 15 14  1  1
 16 15  1  0
 17 15  1  0
 17 18  2  0
 19 20  1  0
 20 21  1  0
 21 22  1  0
 23 22  1  1
 23 24  1  0
 24 17  1  0
 25 23  1  0
 26 25  1  0
 27 25  2  0
M  END
$$$$
