YSM.pdb
     RDKit          3D

 27 27  0  0  1  0  0  0  0  0999 V2000
   29.4815  -16.7993  -18.5692 O   0  0  0  0  0  0  0  0  0  0  0  0
   28.4285  -17.5266  -17.9794 C   0  0  0  0  0  0  0  0  0  0  0  0
   27.5365  -18.2524  -18.7407 C   0  0  0  0  0  0  0  0  0  0  0  0
   26.5132  -18.9555  -18.1246 C   0  0  0  0  0  0  0  0  0  0  0  0
   26.3453  -18.9606  -16.7562 C   0  0  0  0  0  0  0  0  0  0  0  0
   25.2422  -19.7263  -16.1917 C   0  0  0  0  0  0  0  0  0  0  0  0
   25.6634  -20.8579  -15.3000 C   0  0  2  0  0  0  0  0  0  0  0  0
   26.3640  -21.8378  -16.1089 N   0  0  0  0  0  0  0  0  0  0  0  0
   24.4183  -21.5094  -14.7610 C   0  0  0  0  0  0  0  0  0  0  0  0
   23.9622  -22.5737  -15.2524 O   0  0  0  0  0  0  0  0  0  0  0  0
   27.2315  -18.2385  -15.9854 C   0  0  0  0  0  0  0  0  0  0  0  0
   28.2473  -17.5422  -16.6165 C   0  0  0  0  0  0  0  0  0  0  0  0
   21.8607  -19.5001  -12.0346 O   0  0  0  0  0  0  0  0  0  0  0  0
   22.2126  -20.8182  -11.7803 C   0  0  0  0  0  0  0  0  0  0  0  0
   22.5059  -21.5492  -13.0972 C   0  0  2  0  0  0  0  0  0  0  0  0
   23.7110  -20.9311  -13.6633 N   0  0  0  0  0  0  0  0  0  0  0  0
   21.3730  -21.2399  -14.0069 C   0  0  0  0  0  0  0  0  0  0  0  0
   21.3422  -20.1530  -14.6756 O   0  0  0  0  0  0  0  0  0  0  0  0
   15.4993  -25.8856  -15.2228 C   0  0  0  0  0  0  0  0  0  0  0  0
   17.0181  -25.2568  -15.9487 S   0  0  0  0  0  0  0  0  0  0  0  0
   17.5916  -23.7525  -15.1669 C   0  0  0  0  0  0  0  0  0  0  0  0
   18.7965  -23.1381  -15.7457 C   0  0  0  0  0  0  0  0  0  0  0  0
   19.2371  -21.8208  -15.1977 C   0  0  2  0  0  0  0  0  0  0  0  0
   20.2879  -22.1110  -14.1807 N   0  0  0  0  0  0  0  0  0  0  0  0
   18.2324  -21.0140  -14.5200 C   0  0  0  0  0  0  0  0  0  0  0  0
   18.0847  -20.9470  -13.1450 O   0  0  0  0  0  0  0  0  0  0  0  0
   17.4079  -20.3096  -15.2055 O   0  0  0  0  0  0  0  0  0  0  0  0
  1  2  1  0
  2  3  2  0
  3  4  1  0
  5  6  1  0
  5  4  2  0
  6  7  1  0
  7  8  1  6
  7  9  1  0
  9 16  1  0
  9 10  2  0
 11  5  1  0
 12 11  2  0
 12  2  1  0
 14 13  1  0
 15 14  1  1
 16 15  1  0
 17 15  1  0
 17 18  2  0
 19 20  1  0
 20 21  1  0
 21 22  1  0
 23 22  1  1
 23 24  1  0
 24 17  1  0
 25 23  1  0
 26 25  1  0
 27 25  2  0
M  END
$$$$
