YSM.pdb
     RDKit          3D

 27 27  0  0  1  0  0  0  0  0999 V2000
   18.2512  -24.4641  -17.7429 O   0  0  0  0  0  0  0  0  0  0  0  0
   19.3761  -24.3325  -16.9044 C   0  0  0  0  0  0  0  0  0  0  0  0
   19.9980  -23.1161  -16.7154 C   0  0  0  0  0  0  0  0  0  0  0  0
   21.1024  -23.0258  -15.8828 C   0  0  0  0  0  0  0  0  0  0  0  0
   21.6162  -24.1214  -15.2222 C   0  0  0  0  0  0  0  0  0  0  0  0
   22.7807  -23.9372  -14.3668 C   0  0  0  0  0  0  0  0  0  0  0  0
   24.0756  -23.7706  -15.1074 C   0  0  2  0  0  0  0  0  0  0  0  0
   24.4654  -25.0636  -15.6383 N   0  0  0  0  0  0  0  0  0  0  0  0
   25.1238  -23.3440  -14.1151 C   0  0  0  0  0  0  0  0  0  0  0  0
   25.9034  -24.1724  -13.5783 O   0  0  0  0  0  0  0  0  0  0  0  0
   21.0022  -25.3425  -15.4040 C   0  0  0  0  0  0  0  0  0  0  0  0
   19.9007  -25.4150  -16.2386 C   0  0  0  0  0  0  0  0  0  0  0  0
   25.4358  -19.3824  -13.4956 O   0  0  0  0  0  0  0  0  0  0  0  0
   26.6082  -20.0541  -13.1791 C   0  0  0  0  0  0  0  0  0  0  0  0
   26.2988  -21.5121  -12.8148 C   0  0  2  0  0  0  0  0  0  0  0  0
   25.2648  -21.9704  -13.7506 N   0  0  0  0  0  0  0  0  0  0  0  0
   25.6953  -21.4837  -11.4577 C   0  0  0  0  0  0  0  0  0  0  0  0
   24.4764  -21.8135  -11.2712 O   0  0  0  0  0  0  0  0  0  0  0  0
   29.0979  -19.0527   -6.3259 C   0  0  0  0  0  0  0  0  0  0  0  0
   27.6301  -19.6987   -5.5153 S   0  0  0  0  0  0  0  0  0  0  0  0
   26.3393  -20.1492   -6.6702 C   0  0  0  0  0  0  0  0  0  0  0  0
   26.7760  -20.4828   -8.0349 C   0  0  0  0  0  0  0  0  0  0  0  0
   25.7392  -20.9529   -9.0013 C   0  0  2  0  0  0  0  0  0  0  0  0
   26.4192  -21.0983  -10.3202 N   0  0  0  0  0  0  0  0  0  0  0  0
   24.5990  -20.0771   -9.2302 C   0  0  0  0  0  0  0  0  0  0  0  0
   23.4011  -20.1616   -8.5411 O   0  0  0  0  0  0  0  0  0  0  0  0
   24.6662  -19.1587  -10.1234 O   0  0  0  0  0  0  0  0  0  0  0  0
  1  2  1  0
  2  3  2  0
  3  4  1  0
  5  6  1  0
  5  4  2  0
  6  7  1  0
  7  8  1  1
  7  9  1  0
  9 16  1  0
  9 10  2  0
 11  5  1  0
 12 11  2  0
 12  2  1  0
 14 13  1  0
 15 14  1  6
 16 15  1  0
 17 15  1  0
 17 18  2  0
 19 20  1  0
 20 21  1  0
 21 22  1  0
 23 22  1  1
 23 24  1  0
 24 17  1  0
 25 23  1  0
 26 25  1  0
 27 25  2  0
M  END
$$$$
