YSM.pdb
     RDKit          3D

 27 27  0  0  1  0  0  0  0  0999 V2000
   13.5729  -24.2349    1.6003 O   0  0  0  0  0  0  0  0  0  0  0  0
   14.3210  -23.1651    2.1309 C   0  0  0  0  0  0  0  0  0  0  0  0
   15.6814  -23.2654    2.3338 C   0  0  0  0  0  0  0  0  0  0  0  0
   16.3838  -22.1916    2.8578 C   0  0  0  0  0  0  0  0  0  0  0  0
   15.7686  -21.0037    3.1916 C   0  0  0  0  0  0  0  0  0  0  0  0
   16.5826  -19.9262    3.7376 C   0  0  0  0  0  0  0  0  0  0  0  0
   16.6708  -18.7097    2.8627 C   0  0  2  0  0  0  0  0  0  0  0  0
   17.3728  -19.0742    1.6463 N   0  0  0  0  0  0  0  0  0  0  0  0
   17.5001  -17.6812    3.5838 C   0  0  0  0  0  0  0  0  0  0  0  0
   18.7515  -17.6373    3.4638 O   0  0  0  0  0  0  0  0  0  0  0  0
   14.4088  -20.8925    2.9928 C   0  0  0  0  0  0  0  0  0  0  0  0
   13.7229  -21.9741    2.4688 C   0  0  0  0  0  0  0  0  0  0  0  0
   15.4996  -15.2252    6.0705 O   0  0  0  0  0  0  0  0  0  0  0  0
   16.6439  -14.6101    5.5825 C   0  0  0  0  0  0  0  0  0  0  0  0
   17.6532  -15.6677    5.1165 C   0  0  2  0  0  0  0  0  0  0  0  0
   16.8827  -16.7147    4.4347 N   0  0  0  0  0  0  0  0  0  0  0  0
   18.2300  -16.2648    6.3483 C   0  0  0  0  0  0  0  0  0  0  0  0
   17.8631  -17.4173    6.7564 O   0  0  0  0  0  0  0  0  0  0  0  0
   23.9099  -19.6522    9.6578 C   0  0  0  0  0  0  0  0  0  0  0  0
   23.0989  -18.7261    8.3488 S   0  0  0  0  0  0  0  0  0  0  0  0
   21.6467  -17.8471    8.9159 C   0  0  0  0  0  0  0  0  0  0  0  0
   20.8867  -17.1175    7.8892 C   0  0  0  0  0  0  0  0  0  0  0  0
   19.7585  -16.2513    8.3436 C   0  0  2  0  0  0  0  0  0  0  0  0
   19.1962  -15.6065    7.1226 N   0  0  0  0  0  0  0  0  0  0  0  0
   20.0811  -15.1668    9.2597 C   0  0  0  0  0  0  0  0  0  0  0  0
   20.4311  -15.3465   10.5872 O   0  0  0  0  0  0  0  0  0  0  0  0
   20.0448  -13.9512    8.8511 O   0  0  0  0  0  0  0  0  0  0  0  0
  1  2  1  0
  2  3  2  0
  3  4  1  0
  5  6  1  0
  5  4  2  0
  6  7  1  0
  7  8  1  6
  7  9  1  0
  9 16  1  0
  9 10  2  0
 11  5  1  0
 12 11  2  0
 12  2  1  0
 14 13  1  0
 15 14  1  1
 16 15  1  0
 17 15  1  0
 17 18  2  0
 19 20  1  0
 20 21  1  0
 21 22  1  0
 23 22  1  6
 23 24  1  0
 24 17  1  0
 25 23  1  0
 26 25  1  0
 27 25  2  0
M  END
$$$$
