YSM.pdb
     RDKit          3D

 27 27  0  0  1  0  0  0  0  0999 V2000
   26.6016  -32.6243  -17.8397 O   0  0  0  0  0  0  0  0  0  0  0  0
   26.7436  -31.2725  -17.4680 C   0  0  0  0  0  0  0  0  0  0  0  0
   27.6726  -30.8750  -16.5293 C   0  0  0  0  0  0  0  0  0  0  0  0
   27.7832  -29.5359  -16.1893 C   0  0  0  0  0  0  0  0  0  0  0  0
   26.9885  -28.5647  -16.7605 C   0  0  0  0  0  0  0  0  0  0  0  0
   27.1709  -27.1808  -16.3443 C   0  0  0  0  0  0  0  0  0  0  0  0
   27.9033  -26.3250  -17.3364 C   0  0  2  0  0  0  0  0  0  0  0  0
   29.3104  -26.6759  -17.2882 N   0  0  0  0  0  0  0  0  0  0  0  0
   27.7696  -24.8915  -16.8975 C   0  0  0  0  0  0  0  0  0  0  0  0
   28.7162  -24.2789  -16.3399 O   0  0  0  0  0  0  0  0  0  0  0  0
   26.0564  -28.9510  -17.7001 C   0  0  0  0  0  0  0  0  0  0  0  0
   25.9592  -30.2919  -18.0280 C   0  0  0  0  0  0  0  0  0  0  0  0
   24.6085  -22.6855  -18.3140 O   0  0  0  0  0  0  0  0  0  0  0  0
   25.7760  -22.0471  -17.9198 C   0  0  0  0  0  0  0  0  0  0  0  0
   26.3921  -22.7711  -16.7153 C   0  0  2  0  0  0  0  0  0  0  0  0
   26.5501  -24.1777  -17.1043 N   0  0  0  0  0  0  0  0  0  0  0  0
   25.3771  -22.7161  -15.6321 C   0  0  0  0  0  0  0  0  0  0  0  0
   24.4473  -23.5873  -15.5550 O   0  0  0  0  0  0  0  0  0  0  0  0
   24.3025  -20.3344   -8.1734 C   0  0  0  0  0  0  0  0  0  0  0  0
   25.2132  -20.2435   -9.7198 S   0  0  0  0  0  0  0  0  0  0  0  0
   24.3674  -21.0531  -11.0734 C   0  0  0  0  0  0  0  0  0  0  0  0
   25.1252  -21.1837  -12.3277 C   0  0  0  0  0  0  0  0  0  0  0  0
   24.4232  -21.7746  -13.5058 C   0  0  2  0  0  0  0  0  0  0  0  0
   25.3816  -21.7186  -14.6464 N   0  0  0  0  0  0  0  0  0  0  0  0
   23.2137  -21.1052  -13.9625 C   0  0  0  0  0  0  0  0  0  0  0  0
   21.9335  -21.4547  -13.5678 O   0  0  0  0  0  0  0  0  0  0  0  0
   23.2962  -20.1274  -14.7889 O   0  0  0  0  0  0  0  0  0  0  0  0
  1  2  1  0
  2  3  2  0
  3  4  1  0
  5  6  1  0
  5  4  2  0
  6  7  1  0
  7  8  1  1
  7  9  1  0
  9 16  1  0
  9 10  2  0
 11  5  1  0
 12 11  2  0
 12  2  1  0
 14 13  1  0
 15 14  1  6
 16 15  1  0
 17 15  1  0
 17 18  2  0
 19 20  1  0
 20 21  1  0
 21 22  1  0
 23 22  1  1
 23 24  1  0
 24 17  1  0
 25 23  1  0
 26 25  1  0
 27 25  2  0
M  END
$$$$
