YSM.pdb
     RDKit          3D

 27 27  0  0  1  0  0  0  0  0999 V2000
   24.4176    2.2884  -14.3587 O   0  0  0  0  0  0  0  0  0  0  0  0
   24.5600    2.4455  -12.9656 C   0  0  0  0  0  0  0  0  0  0  0  0
   24.3840    3.6695  -12.3548 C   0  0  0  0  0  0  0  0  0  0  0  0
   24.5325    3.7851  -10.9816 C   0  0  0  0  0  0  0  0  0  0  0  0
   24.8549    2.7077  -10.1841 C   0  0  0  0  0  0  0  0  0  0  0  0
   24.9924    2.9185   -8.7493 C   0  0  0  0  0  0  0  0  0  0  0  0
   23.8686    2.3560   -7.9284 C   0  0  2  0  0  0  0  0  0  0  0  0
   22.6615    3.0981   -8.2408 N   0  0  0  0  0  0  0  0  0  0  0  0
   24.1933    2.5921   -6.4777 C   0  0  0  0  0  0  0  0  0  0  0  0
   23.9828    3.7019   -5.9244 O   0  0  0  0  0  0  0  0  0  0  0  0
   25.0331    1.4793  -10.7843 C   0  0  0  0  0  0  0  0  0  0  0  0
   24.8812    1.3814  -12.1563 C   0  0  0  0  0  0  0  0  0  0  0  0
   25.7171    0.4796   -2.3341 O   0  0  0  0  0  0  0  0  0  0  0  0
   25.3924    0.3683   -3.6787 C   0  0  0  0  0  0  0  0  0  0  0  0
   25.1296    1.7576   -4.2745 C   0  0  2  0  0  0  0  0  0  0  0  0
   24.7560    1.5505   -5.6790 N   0  0  0  0  0  0  0  0  0  0  0  0
   26.4320    2.4718   -4.2571 C   0  0  0  0  0  0  0  0  0  0  0  0
   27.1759    2.5119   -5.2936 O   0  0  0  0  0  0  0  0  0  0  0  0
   29.0314    6.5743   -7.1877 C   0  0  0  0  0  0  0  0  0  0  0  0
   28.9343    7.2131   -5.5110 S   0  0  0  0  0  0  0  0  0  0  0  0
   29.1447    5.9415   -4.2693 C   0  0  0  0  0  0  0  0  0  0  0  0
   28.0711    4.9399   -4.1767 C   0  0  0  0  0  0  0  0  0  0  0  0
   28.2132    3.8608   -3.1544 C   0  0  2  0  0  0  0  0  0  0  0  0
   26.9124    3.1331   -3.1176 N   0  0  0  0  0  0  0  0  0  0  0  0
   28.4822    4.2747   -1.7848 C   0  0  0  0  0  0  0  0  0  0  0  0
   29.6169    4.9611   -1.3871 O   0  0  0  0  0  0  0  0  0  0  0  0
   27.6412    3.9998   -0.8559 O   0  0  0  0  0  0  0  0  0  0  0  0
  1  2  1  0
  2  3  2  0
  3  4  1  0
  5  6  1  0
  5  4  2  0
  6  7  1  0
  7  8  1  6
  7  9  1  0
  9 16  1  0
  9 10  2  0
 11  5  1  0
 12 11  2  0
 12  2  1  0
 14 13  1  0
 15 14  1  1
 16 15  1  0
 17 15  1  0
 17 18  2  0
 19 20  1  0
 20 21  1  0
 21 22  1  0
 23 22  1  6
 23 24  1  0
 24 17  1  0
 25 23  1  0
 26 25  1  0
 27 25  2  0
M  END
$$$$
