KKY.pdb
     RDKit          3D

 31 31  0  0  1  0  0  0  0  0999 V2000
   29.6711  -25.2354  -17.6582 N   0  0  0  0  0  0  0  0  0  0  0  0
   28.2436  -25.1324  -17.7401 C   0  0  1  0  0  0  0  0  0  0  0  0
   27.5923  -26.2624  -17.0077 C   0  0  0  0  0  0  0  0  0  0  0  0
   27.9695  -27.6110  -17.5280 C   0  0  0  0  0  0  0  0  0  0  0  0
   27.2133  -28.7324  -16.8503 C   0  0  0  0  0  0  0  0  0  0  0  0
   27.5702  -30.0481  -17.5085 C   0  0  0  0  0  0  0  0  0  0  0  0
   26.9887  -31.1825  -16.8505 N   0  0  0  0  0  0  0  0  0  0  0  0
   27.7704  -23.8515  -17.1119 C   0  0  0  0  0  0  0  0  0  0  0  0
   28.4633  -23.2531  -16.2507 O   0  0  0  0  0  0  0  0  0  0  0  0
   26.5191  -23.2704  -17.4707 N   0  0  0  0  0  0  0  0  0  0  0  0
   26.0526  -22.0136  -16.9565 C   0  0  1  0  0  0  0  0  0  0  0  0
   24.9798  -21.3713  -17.7733 C   0  0  0  0  0  0  0  0  0  0  0  0
   24.4999  -20.0608  -17.1947 C   0  0  0  0  0  0  0  0  0  0  0  0
   23.3743  -19.5775  -18.1188 C   0  0  0  0  0  0  0  0  0  0  0  0
   22.9192  -18.1906  -17.7173 C   0  0  0  0  0  0  0  0  0  0  0  0
   21.8030  -17.8498  -18.5807 N   0  0  0  0  0  0  0  0  0  0  0  0
   25.6845  -22.1058  -15.5112 C   0  0  0  0  0  0  0  0  0  0  0  0
   24.8228  -22.9315  -15.1139 O   0  0  0  0  0  0  0  0  0  0  0  0
   25.9449  -20.2477   -6.7536 O   0  0  0  0  0  0  0  0  0  0  0  0
   26.1568  -20.2995   -8.1157 C   0  0  0  0  0  0  0  0  0  0  0  0
   27.3993  -20.5471   -8.6679 C   0  0  0  0  0  0  0  0  0  0  0  0
   27.6003  -20.5968  -10.0316 C   0  0  0  0  0  0  0  0  0  0  0  0
   26.5340  -20.3947  -10.9070 C   0  0  0  0  0  0  0  0  0  0  0  0
   26.8235  -20.4558  -12.3536 C   0  0  0  0  0  0  0  0  0  0  0  0
   25.9219  -21.3911  -13.1104 C   0  0  2  0  0  0  0  0  0  0  0  0
   26.2848  -21.2736  -14.5295 N   0  0  0  0  0  0  0  0  0  0  0  0
   24.5127  -20.9694  -12.9793 C   0  0  0  0  0  0  0  0  0  0  0  0
   23.6639  -21.6147  -12.1085 O   0  0  0  0  0  0  0  0  0  0  0  0
   25.3021  -20.1491  -10.3624 C   0  0  0  0  0  0  0  0  0  0  0  0
   25.1082  -20.1007   -8.9781 C   0  0  0  0  0  0  0  0  0  0  0  0
   24.0250  -20.0123  -13.6482 O   0  0  0  0  0  0  0  0  0  0  0  0
  2  3  1  0
  2  1  1  1
  3  4  1  0
  4  5  1  0
  5  6  1  0
  7  6  1  0
  8  2  1  0
  9  8  2  0
 10  8  1  0
 11 17  1  0
 11 10  1  0
 11 12  1  6
 13 12  1  0
 13 14  1  0
 15 14  1  0
 15 16  1  0
 17 26  1  0
 18 17  2  0
 19 20  1  0
 20 30  2  0
 21 20  1  0
 21 22  2  0
 22 23  1  0
 23 29  2  0
 23 24  1  0
 25 27  1  0
 25 24  1  1
 26 25  1  0
 27 31  2  0
 27 28  1  0
 30 29  1  0
M  END
$$$$
