KKY.pdb
     RDKit          3D

 31 31  0  0  1  0  0  0  0  0999 V2000
   27.0058  -24.7195  -18.7728 N   0  0  0  0  0  0  0  0  0  0  0  0
   27.0449  -25.2318  -17.4344 C   0  0  1  0  0  0  0  0  0  0  0  0
   26.2697  -24.3473  -16.5102 C   0  0  0  0  0  0  0  0  0  0  0  0
   26.9516  -23.0536  -16.2055 C   0  0  0  0  0  0  0  0  0  0  0  0
   26.1698  -21.8518  -16.6885 C   0  0  0  0  0  0  0  0  0  0  0  0
   26.9245  -20.5876  -16.3367 C   0  0  0  0  0  0  0  0  0  0  0  0
   26.3154  -19.4023  -16.8680 N   0  0  0  0  0  0  0  0  0  0  0  0
   26.4284  -26.6014  -17.3757 C   0  0  0  0  0  0  0  0  0  0  0  0
   25.3472  -26.8551  -17.9644 O   0  0  0  0  0  0  0  0  0  0  0  0
   27.0481  -27.6605  -16.6504 N   0  0  0  0  0  0  0  0  0  0  0  0
   26.4464  -28.9506  -16.4628 C   0  0  1  0  0  0  0  0  0  0  0  0
   27.4174  -30.0520  -16.1895 C   0  0  0  0  0  0  0  0  0  0  0  0
   26.7710  -31.4171  -16.1591 C   0  0  0  0  0  0  0  0  0  0  0  0
   27.9039  -32.4156  -15.8872 C   0  0  0  0  0  0  0  0  0  0  0  0
   27.3931  -33.8367  -15.9933 C   0  0  0  0  0  0  0  0  0  0  0  0
   28.4737  -34.7037  -15.5593 N   0  0  0  0  0  0  0  0  0  0  0  0
   25.3415  -28.9084  -15.4576 C   0  0  0  0  0  0  0  0  0  0  0  0
   25.5030  -28.3526  -14.3408 O   0  0  0  0  0  0  0  0  0  0  0  0
   18.4853  -27.0883  -10.7740 O   0  0  0  0  0  0  0  0  0  0  0  0
   19.5123  -27.3065  -11.6687 C   0  0  0  0  0  0  0  0  0  0  0  0
   19.3650  -27.1268  -13.0311 C   0  0  0  0  0  0  0  0  0  0  0  0
   20.3986  -27.3478  -13.9171 C   0  0  0  0  0  0  0  0  0  0  0  0
   21.6449  -27.7668  -13.4529 C   0  0  0  0  0  0  0  0  0  0  0  0
   22.7029  -27.9901  -14.4583 C   0  0  0  0  0  0  0  0  0  0  0  0
   22.9988  -29.4424  -14.7105 C   0  0  2  0  0  0  0  0  0  0  0  0
   24.0708  -29.4882  -15.7145 N   0  0  0  0  0  0  0  0  0  0  0  0
   21.8206  -30.1163  -15.2924 C   0  0  0  0  0  0  0  0  0  0  0  0
   20.8760  -30.7050  -14.4824 O   0  0  0  0  0  0  0  0  0  0  0  0
   21.7934  -27.9458  -12.1036 C   0  0  0  0  0  0  0  0  0  0  0  0
   20.7392  -27.7190  -11.2129 C   0  0  0  0  0  0  0  0  0  0  0  0
   21.6248  -30.1847  -16.5408 O   0  0  0  0  0  0  0  0  0  0  0  0
  2  3  1  0
  2  1  1  6
  3  4  1  0
  4  5  1  0
  5  6  1  0
  7  6  1  0
  8  2  1  0
  9  8  2  0
 10  8  1  0
 11 17  1  0
 11 10  1  0
 11 12  1  1
 13 12  1  0
 13 14  1  0
 15 14  1  0
 15 16  1  0
 17 26  1  0
 18 17  2  0
 19 20  1  0
 20 30  2  0
 21 20  1  0
 21 22  2  0
 22 23  1  0
 23 29  2  0
 23 24  1  0
 25 27  1  0
 25 24  1  6
 26 25  1  0
 27 31  2  0
 27 28  1  0
 30 29  1  0
M  END
$$$$
