KKY.pdb
     RDKit          3D

 31 31  0  0  1  0  0  0  0  0999 V2000
   19.9430  -12.9323  -19.6443 N   0  0  0  0  0  0  0  0  0  0  0  0
   19.5069  -11.6328  -20.0640 C   0  0  1  0  0  0  0  0  0  0  0  0
   18.3362  -11.7443  -20.9884 C   0  0  0  0  0  0  0  0  0  0  0  0
   18.5447  -12.7134  -22.1060 C   0  0  0  0  0  0  0  0  0  0  0  0
   17.3391  -12.8298  -23.0125 C   0  0  0  0  0  0  0  0  0  0  0  0
   17.6417  -13.8086  -24.1269 C   0  0  0  0  0  0  0  0  0  0  0  0
   16.5404  -13.9942  -25.0274 N   0  0  0  0  0  0  0  0  0  0  0  0
   19.0741  -10.8139  -18.8801 C   0  0  0  0  0  0  0  0  0  0  0  0
   17.9273  -10.9434  -18.3823 O   0  0  0  0  0  0  0  0  0  0  0  0
   19.9491   -9.8616  -18.2805 N   0  0  0  0  0  0  0  0  0  0  0  0
   19.5849   -9.0510  -17.1527 C   0  0  1  0  0  0  0  0  0  0  0  0
   20.5340   -9.1300  -16.0022 C   0  0  0  0  0  0  0  0  0  0  0  0
   20.1498   -8.2256  -14.8547 C   0  0  0  0  0  0  0  0  0  0  0  0
   21.2822   -8.3433  -13.8260 C   0  0  0  0  0  0  0  0  0  0  0  0
   20.9163   -7.6137  -12.5510 C   0  0  0  0  0  0  0  0  0  0  0  0
   21.9182   -7.9696  -11.5625 N   0  0  0  0  0  0  0  0  0  0  0  0
   19.2958   -7.6403  -17.5516 C   0  0  0  0  0  0  0  0  0  0  0  0
   20.0778   -7.0078  -18.3070 O   0  0  0  0  0  0  0  0  0  0  0  0
   12.2277   -7.3182  -14.9925 O   0  0  0  0  0  0  0  0  0  0  0  0
   13.2820   -6.8875  -15.7709 C   0  0  0  0  0  0  0  0  0  0  0  0
   13.7494   -5.5872  -15.7395 C   0  0  0  0  0  0  0  0  0  0  0  0
   14.8045   -5.1669  -16.5221 C   0  0  0  0  0  0  0  0  0  0  0  0
   15.4406   -6.0604  -17.3831 C   0  0  0  0  0  0  0  0  0  0  0  0
   16.5582   -5.5399  -18.1955 C   0  0  0  0  0  0  0  0  0  0  0  0
   17.8822   -5.5598  -17.4835 C   0  0  2  0  0  0  0  0  0  0  0  0
   18.1363   -6.9555  -17.1005 N   0  0  0  0  0  0  0  0  0  0  0  0
   17.8119   -4.7671  -16.2395 C   0  0  0  0  0  0  0  0  0  0  0  0
   18.0084   -5.3629  -15.0142 O   0  0  0  0  0  0  0  0  0  0  0  0
   14.9793   -7.3490  -17.4162 C   0  0  0  0  0  0  0  0  0  0  0  0
   13.9086   -7.7659  -16.6187 C   0  0  0  0  0  0  0  0  0  0  0  0
   17.5720   -3.5245  -16.2384 O   0  0  0  0  0  0  0  0  0  0  0  0
  2  3  1  0
  2  1  1  1
  3  4  1  0
  4  5  1  0
  5  6  1  0
  7  6  1  0
  8  2  1  0
  9  8  2  0
 10  8  1  0
 11 17  1  0
 11 10  1  0
 11 12  1  1
 13 12  1  0
 13 14  1  0
 15 14  1  0
 15 16  1  0
 17 26  1  0
 18 17  2  0
 19 20  1  0
 20 30  2  0
 21 20  1  0
 21 22  2  0
 22 23  1  0
 23 29  2  0
 23 24  1  0
 25 27  1  0
 25 24  1  1
 26 25  1  0
 27 31  2  0
 27 28  1  0
 30 29  1  0
M  END
$$$$
