KKY.pdb
     RDKit          3D

 31 31  0  0  1  0  0  0  0  0999 V2000
   24.9291  -11.8970  -17.2155 N   0  0  0  0  0  0  0  0  0  0  0  0
   24.6721  -10.8944  -18.2075 C   0  0  1  0  0  0  0  0  0  0  0  0
   24.7267  -11.4868  -19.5799 C   0  0  0  0  0  0  0  0  0  0  0  0
   25.6573  -12.6498  -19.6947 C   0  0  0  0  0  0  0  0  0  0  0  0
   25.7274  -13.2069  -21.0994 C   0  0  0  0  0  0  0  0  0  0  0  0
   26.6393  -14.4152  -21.1152 C   0  0  0  0  0  0  0  0  0  0  0  0
   26.7708  -15.0040  -22.4168 N   0  0  0  0  0  0  0  0  0  0  0  0
   23.3011  -10.3070  -18.0207 C   0  0  0  0  0  0  0  0  0  0  0  0
   22.8515   -9.4380  -18.8096 O   0  0  0  0  0  0  0  0  0  0  0  0
   22.4629  -10.7149  -16.9422 N   0  0  0  0  0  0  0  0  0  0  0  0
   21.1670  -10.1509  -16.6889 C   0  0  1  0  0  0  0  0  0  0  0  0
   20.2047  -11.0840  -16.0300 C   0  0  0  0  0  0  0  0  0  0  0  0
   18.8000  -10.5326  -15.9589 C   0  0  0  0  0  0  0  0  0  0  0  0
   17.9774  -11.5695  -15.1827 C   0  0  0  0  0  0  0  0  0  0  0  0
   16.5268  -11.1434  -15.1052 C   0  0  0  0  0  0  0  0  0  0  0  0
   15.8085  -12.2201  -14.4478 N   0  0  0  0  0  0  0  0  0  0  0  0
   21.2599   -8.8397  -15.9784 C   0  0  0  0  0  0  0  0  0  0  0  0
   21.9151   -8.7268  -14.9105 O   0  0  0  0  0  0  0  0  0  0  0  0
   23.0958   -0.6446  -14.1395 O   0  0  0  0  0  0  0  0  0  0  0  0
   22.8688   -1.9507  -14.5211 C   0  0  0  0  0  0  0  0  0  0  0  0
   22.9435   -2.3666  -15.8369 C   0  0  0  0  0  0  0  0  0  0  0  0
   22.7148   -3.6752  -16.2077 C   0  0  0  0  0  0  0  0  0  0  0  0
   22.3958   -4.6328  -15.2457 C   0  0  0  0  0  0  0  0  0  0  0  0
   22.1576   -6.0123  -15.7151 C   0  0  0  0  0  0  0  0  0  0  0  0
   20.7045   -6.3965  -15.7468 C   0  0  2  0  0  0  0  0  0  0  0  0
   20.6192   -7.6721  -16.4713 N   0  0  0  0  0  0  0  0  0  0  0  0
   19.9238   -5.4025  -16.5107 C   0  0  0  0  0  0  0  0  0  0  0  0
   19.3820   -5.7242  -17.7346 O   0  0  0  0  0  0  0  0  0  0  0  0
   22.3210   -4.2233  -13.9414 C   0  0  0  0  0  0  0  0  0  0  0  0
   22.5547   -2.8938  -13.5752 C   0  0  0  0  0  0  0  0  0  0  0  0
   19.7182   -4.2283  -16.0860 O   0  0  0  0  0  0  0  0  0  0  0  0
  2  3  1  0
  2  1  1  1
  3  4  1  0
  4  5  1  0
  5  6  1  0
  7  6  1  0
  8  2  1  0
  9  8  2  0
 10  8  1  0
 11 17  1  0
 11 10  1  0
 11 12  1  1
 13 12  1  0
 13 14  1  0
 15 14  1  0
 15 16  1  0
 17 26  1  0
 18 17  2  0
 19 20  1  0
 20 30  2  0
 21 20  1  0
 21 22  2  0
 22 23  1  0
 23 29  2  0
 23 24  1  0
 25 27  1  0
 25 24  1  6
 26 25  1  0
 27 31  2  0
 27 28  1  0
 30 29  1  0
M  END
$$$$
