KKY.pdb
     RDKit          3D

 31 31  0  0  1  0  0  0  0  0999 V2000
   28.7778  -26.2825  -17.4844 N   0  0  0  0  0  0  0  0  0  0  0  0
   29.7216  -25.3077  -17.0218 C   0  0  1  0  0  0  0  0  0  0  0  0
   30.8585  -25.1782  -17.9852 C   0  0  0  0  0  0  0  0  0  0  0  0
   31.1781  -26.4450  -18.7096 C   0  0  0  0  0  0  0  0  0  0  0  0
   32.4809  -27.0660  -18.2562 C   0  0  0  0  0  0  0  0  0  0  0  0
   32.8539  -28.1925  -19.1960 C   0  0  0  0  0  0  0  0  0  0  0  0
   34.1025  -28.8147  -18.8611 N   0  0  0  0  0  0  0  0  0  0  0  0
   29.0706  -23.9580  -16.9036 C   0  0  0  0  0  0  0  0  0  0  0  0
   29.7271  -22.9466  -16.5488 O   0  0  0  0  0  0  0  0  0  0  0  0
   27.6858  -23.7777  -17.1898 N   0  0  0  0  0  0  0  0  0  0  0  0
   26.9867  -22.5421  -16.9750 C   0  0  1  0  0  0  0  0  0  0  0  0
   26.2516  -22.0316  -18.1707 C   0  0  0  0  0  0  0  0  0  0  0  0
   25.5229  -20.7346  -17.9083 C   0  0  0  0  0  0  0  0  0  0  0  0
   24.7018  -20.4476  -19.1724 C   0  0  0  0  0  0  0  0  0  0  0  0
   23.9378  -19.1492  -19.0233 C   0  0  0  0  0  0  0  0  0  0  0  0
   23.1315  -18.9978  -20.2211 N   0  0  0  0  0  0  0  0  0  0  0  0
   26.1196  -22.5974  -15.7592 C   0  0  0  0  0  0  0  0  0  0  0  0
   25.3025  -23.5384  -15.5889 O   0  0  0  0  0  0  0  0  0  0  0  0
   23.0976  -20.4288   -7.6327 O   0  0  0  0  0  0  0  0  0  0  0  0
   23.7766  -20.4951   -8.8316 C   0  0  0  0  0  0  0  0  0  0  0  0
   25.0648  -20.9856   -8.9327 C   0  0  0  0  0  0  0  0  0  0  0  0
   25.7347  -21.0476  -10.1367 C   0  0  0  0  0  0  0  0  0  0  0  0
   25.1181  -20.6084  -11.3076 C   0  0  0  0  0  0  0  0  0  0  0  0
   25.8969  -20.6983  -12.5588 C   0  0  0  0  0  0  0  0  0  0  0  0
   25.3458  -21.6927  -13.5424 C   0  0  2  0  0  0  0  0  0  0  0  0
   26.1778  -21.5999  -14.7500 N   0  0  0  0  0  0  0  0  0  0  0  0
   23.9673  -21.3289  -13.9278 C   0  0  0  0  0  0  0  0  0  0  0  0
   23.7333  -20.3081  -14.8212 O   0  0  0  0  0  0  0  0  0  0  0  0
   23.8421  -20.1218  -11.2101 C   0  0  0  0  0  0  0  0  0  0  0  0
   23.1708  -20.0630   -9.9845 C   0  0  0  0  0  0  0  0  0  0  0  0
   22.9524  -21.9261  -13.4646 O   0  0  0  0  0  0  0  0  0  0  0  0
  2  3  1  0
  2  1  1  6
  3  4  1  0
  4  5  1  0
  5  6  1  0
  7  6  1  0
  8  2  1  0
  9  8  2  0
 10  8  1  0
 11 17  1  0
 11 10  1  0
 11 12  1  6
 13 12  1  0
 13 14  1  0
 15 14  1  0
 15 16  1  0
 17 26  1  0
 18 17  2  0
 19 20  1  0
 20 30  2  0
 21 20  1  0
 21 22  2  0
 22 23  1  0
 23 29  2  0
 23 24  1  0
 25 27  1  0
 25 24  1  1
 26 25  1  0
 27 31  2  0
 27 28  1  0
 30 29  1  0
M  END
$$$$
