KKY.pdb
     RDKit          3D

 31 31  0  0  1  0  0  0  0  0999 V2000
   21.9557  -13.2372  -18.0376 N   0  0  0  0  0  0  0  0  0  0  0  0
   21.5213  -11.8963  -18.2986 C   0  0  1  0  0  0  0  0  0  0  0  0
   20.0306  -11.8019  -18.2193 C   0  0  0  0  0  0  0  0  0  0  0  0
   19.3564  -13.1187  -18.0114 C   0  0  0  0  0  0  0  0  0  0  0  0
   18.4930  -13.1448  -16.7695 C   0  0  0  0  0  0  0  0  0  0  0  0
   17.8600  -14.5125  -16.6268 C   0  0  0  0  0  0  0  0  0  0  0  0
   17.1003  -14.6576  -15.4185 N   0  0  0  0  0  0  0  0  0  0  0  0
   22.0910  -10.9496  -17.2795 C   0  0  0  0  0  0  0  0  0  0  0  0
   21.9173  -11.1353  -16.0486 O   0  0  0  0  0  0  0  0  0  0  0  0
   22.8484   -9.8079  -17.6732 N   0  0  0  0  0  0  0  0  0  0  0  0
   23.4049   -8.8668  -16.7425 C   0  0  1  0  0  0  0  0  0  0  0  0
   24.5497   -8.0709  -17.2780 C   0  0  0  0  0  0  0  0  0  0  0  0
   25.7612   -8.9159  -17.5949 C   0  0  0  0  0  0  0  0  0  0  0  0
   26.7604   -7.9797  -18.2875 C   0  0  0  0  0  0  0  0  0  0  0  0
   28.0651   -8.7006  -18.5514 C   0  0  0  0  0  0  0  0  0  0  0  0
   28.9249   -7.7664  -19.2554 N   0  0  0  0  0  0  0  0  0  0  0  0
   22.3522   -8.0014  -16.1295 C   0  0  0  0  0  0  0  0  0  0  0  0
   21.3774   -7.5881  -16.8086 O   0  0  0  0  0  0  0  0  0  0  0  0
   17.1605   -4.5233   -9.8320 O   0  0  0  0  0  0  0  0  0  0  0  0
   18.0376   -5.2508  -10.6093 C   0  0  0  0  0  0  0  0  0  0  0  0
   19.2153   -5.7760  -10.1118 C   0  0  0  0  0  0  0  0  0  0  0  0
   20.0854   -6.5022  -10.8979 C   0  0  0  0  0  0  0  0  0  0  0  0
   19.7945   -6.7306  -12.2423 C   0  0  0  0  0  0  0  0  0  0  0  0
   20.7740   -7.5104  -13.0250 C   0  0  0  0  0  0  0  0  0  0  0  0
   21.3620   -6.7524  -14.1825 C   0  0  2  0  0  0  0  0  0  0  0  0
   22.4033   -7.6099  -14.7654 N   0  0  0  0  0  0  0  0  0  0  0  0
   22.0208   -5.5178  -13.7105 C   0  0  0  0  0  0  0  0  0  0  0  0
   21.3230   -4.3336  -13.6345 O   0  0  0  0  0  0  0  0  0  0  0  0
   18.6285   -6.2112  -12.7376 C   0  0  0  0  0  0  0  0  0  0  0  0
   17.7524   -5.4761  -11.9325 C   0  0  0  0  0  0  0  0  0  0  0  0
   23.2362   -5.4880  -13.3594 O   0  0  0  0  0  0  0  0  0  0  0  0
  2  3  1  0
  2  1  1  1
  3  4  1  0
  4  5  1  0
  5  6  1  0
  7  6  1  0
  8  2  1  0
  9  8  2  0
 10  8  1  0
 11 17  1  0
 11 10  1  0
 11 12  1  6
 13 12  1  0
 13 14  1  0
 15 14  1  0
 15 16  1  0
 17 26  1  0
 18 17  2  0
 19 20  1  0
 20 30  2  0
 21 20  1  0
 21 22  2  0
 22 23  1  0
 23 29  2  0
 23 24  1  0
 25 27  1  0
 25 24  1  1
 26 25  1  0
 27 31  2  0
 27 28  1  0
 30 29  1  0
M  END
$$$$
