KKY.pdb
     RDKit          3D

 31 31  0  0  1  0  0  0  0  0999 V2000
   18.1961   -6.6226  -20.7190 N   0  0  0  0  0  0  0  0  0  0  0  0
   19.0708   -6.4380  -19.5984 C   0  0  1  0  0  0  0  0  0  0  0  0
   19.5712   -5.0292  -19.5486 C   0  0  0  0  0  0  0  0  0  0  0  0
   19.5925   -4.3529  -20.8804 C   0  0  0  0  0  0  0  0  0  0  0  0
   20.3058   -5.1658  -21.9384 C   0  0  0  0  0  0  0  0  0  0  0  0
   20.5451   -4.3021  -23.1584 C   0  0  0  0  0  0  0  0  0  0  0  0
   19.3341   -3.7862  -23.7289 N   0  0  0  0  0  0  0  0  0  0  0  0
   18.3427   -6.7069  -18.3111 C   0  0  0  0  0  0  0  0  0  0  0  0
   18.1007   -5.7830  -17.4940 O   0  0  0  0  0  0  0  0  0  0  0  0
   17.9012   -8.0192  -17.9718 N   0  0  0  0  0  0  0  0  0  0  0  0
   17.2147   -8.3332  -16.7505 C   0  0  1  0  0  0  0  0  0  0  0  0
   16.4279   -9.6019  -16.7920 C   0  0  0  0  0  0  0  0  0  0  0  0
   15.5625   -9.8020  -15.5700 C   0  0  0  0  0  0  0  0  0  0  0  0
   14.7626  -11.0866  -15.8240 C   0  0  0  0  0  0  0  0  0  0  0  0
   13.7488  -11.3052  -14.7211 C   0  0  0  0  0  0  0  0  0  0  0  0
   12.9505  -12.4544  -15.1077 N   0  0  0  0  0  0  0  0  0  0  0  0
   18.1263   -8.2715  -15.5681 C   0  0  0  0  0  0  0  0  0  0  0  0
   19.2135   -8.9041  -15.5549 O   0  0  0  0  0  0  0  0  0  0  0  0
   23.0210   -4.2503  -16.7305 O   0  0  0  0  0  0  0  0  0  0  0  0
   22.0783   -4.7011  -15.8300 C   0  0  0  0  0  0  0  0  0  0  0  0
   20.8475   -4.0925  -15.6718 C   0  0  0  0  0  0  0  0  0  0  0  0
   19.9119   -4.5515  -14.7684 C   0  0  0  0  0  0  0  0  0  0  0  0
   20.1881   -5.6640  -13.9745 C   0  0  0  0  0  0  0  0  0  0  0  0
   19.1430   -6.0956  -13.0249 C   0  0  0  0  0  0  0  0  0  0  0  0
   18.6845   -7.5118  -13.2351 C   0  0  2  0  0  0  0  0  0  0  0  0
   17.8103   -7.5032  -14.4162 N   0  0  0  0  0  0  0  0  0  0  0  0
   17.8723   -7.9675  -12.0889 C   0  0  0  0  0  0  0  0  0  0  0  0
   18.4333   -8.1016  -10.8389 O   0  0  0  0  0  0  0  0  0  0  0  0
   21.4067   -6.2685  -14.1291 C   0  0  0  0  0  0  0  0  0  0  0  0
   22.3491   -5.7957  -15.0481 C   0  0  0  0  0  0  0  0  0  0  0  0
   16.6440   -8.2519  -12.1970 O   0  0  0  0  0  0  0  0  0  0  0  0
  2  3  1  0
  2  1  1  6
  3  4  1  0
  4  5  1  0
  5  6  1  0
  7  6  1  0
  8  2  1  0
  9  8  2  0
 10  8  1  0
 11 17  1  0
 11 10  1  0
 11 12  1  6
 13 12  1  0
 13 14  1  0
 15 14  1  0
 15 16  1  0
 17 26  1  0
 18 17  2  0
 19 20  1  0
 20 30  2  0
 21 20  1  0
 21 22  2  0
 22 23  1  0
 23 29  2  0
 23 24  1  0
 25 27  1  0
 25 24  1  1
 26 25  1  0
 27 31  2  0
 27 28  1  0
 30 29  1  0
M  END
$$$$
