KKY.pdb
     RDKit          3D

 31 31  0  0  1  0  0  0  0  0999 V2000
   28.0202  -20.6496  -15.8858 N   0  0  0  0  0  0  0  0  0  0  0  0
   26.6806  -21.1153  -16.0949 C   0  0  1  0  0  0  0  0  0  0  0  0
   26.6725  -22.3002  -17.0078 C   0  0  0  0  0  0  0  0  0  0  0  0
   27.2053  -22.0094  -18.3728 C   0  0  0  0  0  0  0  0  0  0  0  0
   26.4134  -20.9418  -19.0951 C   0  0  0  0  0  0  0  0  0  0  0  0
   26.9859  -20.7446  -20.4826 C   0  0  0  0  0  0  0  0  0  0  0  0
   26.4144  -19.6245  -21.1731 N   0  0  0  0  0  0  0  0  0  0  0  0
   26.0609  -21.5407  -14.7932 C   0  0  0  0  0  0  0  0  0  0  0  0
   25.0988  -22.3489  -14.7628 O   0  0  0  0  0  0  0  0  0  0  0  0
   26.5427  -21.0425  -13.5475 N   0  0  0  0  0  0  0  0  0  0  0  0
   25.8254  -21.1743  -12.3107 C   0  0  1  0  0  0  0  0  0  0  0  0
   26.6220  -20.8324  -11.0945 C   0  0  0  0  0  0  0  0  0  0  0  0
   25.8472  -21.0110   -9.8099 C   0  0  0  0  0  0  0  0  0  0  0  0
   26.8112  -20.6307   -8.6783 C   0  0  0  0  0  0  0  0  0  0  0  0
   26.1493  -20.8277   -7.3311 C   0  0  0  0  0  0  0  0  0  0  0  0
   27.0903  -20.3597   -6.3296 N   0  0  0  0  0  0  0  0  0  0  0  0
   24.5148  -20.4575  -12.3483 C   0  0  0  0  0  0  0  0  0  0  0  0
   24.4649  -19.2022  -12.4121 O   0  0  0  0  0  0  0  0  0  0  0  0
   17.5857  -18.2606  -16.8364 O   0  0  0  0  0  0  0  0  0  0  0  0
   18.7199  -18.7255  -16.2036 C   0  0  0  0  0  0  0  0  0  0  0  0
   19.1631  -20.0284  -16.3301 C   0  0  0  0  0  0  0  0  0  0  0  0
   20.2988  -20.4830  -15.6930 C   0  0  0  0  0  0  0  0  0  0  0  0
   21.0452  -19.6230  -14.8882 C   0  0  0  0  0  0  0  0  0  0  0  0
   22.2453  -20.1793  -14.2321 C   0  0  0  0  0  0  0  0  0  0  0  0
   22.0372  -20.5202  -12.7827 C   0  0  2  0  0  0  0  0  0  0  0  0
   23.2775  -21.1537  -12.3142 N   0  0  0  0  0  0  0  0  0  0  0  0
   20.9528  -21.5119  -12.6357 C   0  0  0  0  0  0  0  0  0  0  0  0
   19.7182  -21.1377  -12.1554 O   0  0  0  0  0  0  0  0  0  0  0  0
   20.6081  -18.3318  -14.7612 C   0  0  0  0  0  0  0  0  0  0  0  0
   19.4552  -17.8800  -15.4113 C   0  0  0  0  0  0  0  0  0  0  0  0
   21.1021  -22.7316  -12.9382 O   0  0  0  0  0  0  0  0  0  0  0  0
  2  3  1  0
  2  1  1  1
  3  4  1  0
  4  5  1  0
  5  6  1  0
  7  6  1  0
  8  2  1  0
  9  8  2  0
 10  8  1  0
 11 17  1  0
 11 10  1  0
 11 12  1  1
 13 12  1  0
 13 14  1  0
 15 14  1  0
 15 16  1  0
 17 26  1  0
 18 17  2  0
 19 20  1  0
 20 30  2  0
 21 20  1  0
 21 22  2  0
 22 23  1  0
 23 29  2  0
 23 24  1  0
 25 27  1  0
 25 24  1  6
 26 25  1  0
 27 31  2  0
 27 28  1  0
 30 29  1  0
M  END
$$$$
