KKY.pdb
     RDKit          3D

 31 31  0  0  1  0  0  0  0  0999 V2000
   22.4661  -15.5068  -18.9317 N   0  0  0  0  0  0  0  0  0  0  0  0
   22.4494  -15.6264  -17.5033 C   0  0  1  0  0  0  0  0  0  0  0  0
   21.1629  -15.1040  -16.9471 C   0  0  0  0  0  0  0  0  0  0  0  0
   21.0205  -13.6210  -17.0562 C   0  0  0  0  0  0  0  0  0  0  0  0
   19.6999  -13.1183  -16.5159 C   0  0  0  0  0  0  0  0  0  0  0  0
   19.5948  -11.6271  -16.7545 C   0  0  0  0  0  0  0  0  0  0  0  0
   18.3807  -11.0596  -16.2427 N   0  0  0  0  0  0  0  0  0  0  0  0
   22.5694  -17.0676  -17.0934 C   0  0  0  0  0  0  0  0  0  0  0  0
   21.7574  -17.9328  -17.5079 O   0  0  0  0  0  0  0  0  0  0  0  0
   23.6083  -17.5036  -16.2200 N   0  0  0  0  0  0  0  0  0  0  0  0
   23.7389  -18.8567  -15.7577 C   0  0  1  0  0  0  0  0  0  0  0  0
   25.0956  -19.2046  -15.2391 C   0  0  0  0  0  0  0  0  0  0  0  0
   25.2538  -20.6760  -14.9355 C   0  0  0  0  0  0  0  0  0  0  0  0
   26.1074  -21.2531  -16.0725 C   0  0  0  0  0  0  0  0  0  0  0  0
   26.2998  -22.7430  -15.8855 C   0  0  0  0  0  0  0  0  0  0  0  0
   27.1190  -23.2018  -16.9928 N   0  0  0  0  0  0  0  0  0  0  0  0
   22.6550  -19.2236  -14.7968 C   0  0  0  0  0  0  0  0  0  0  0  0
   22.5693  -18.6648  -13.6731 O   0  0  0  0  0  0  0  0  0  0  0  0
   18.0258  -15.0570  -12.5644 O   0  0  0  0  0  0  0  0  0  0  0  0
   18.3503  -16.3085  -13.0455 C   0  0  0  0  0  0  0  0  0  0  0  0
   18.1954  -17.4588  -12.2952 C   0  0  0  0  0  0  0  0  0  0  0  0
   18.5229  -18.7054  -12.7860 C   0  0  0  0  0  0  0  0  0  0  0  0
   19.0293  -18.8414  -14.0780 C   0  0  0  0  0  0  0  0  0  0  0  0
   19.3643  -20.2049  -14.5350 C   0  0  0  0  0  0  0  0  0  0  0  0
   20.7226  -20.6730  -14.0921 C   0  0  2  0  0  0  0  0  0  0  0  0
   21.6812  -20.2103  -15.1052 N   0  0  0  0  0  0  0  0  0  0  0  0
   20.7796  -22.1485  -14.0726 C   0  0  0  0  0  0  0  0  0  0  0  0
   20.0490  -22.8682  -13.1543 O   0  0  0  0  0  0  0  0  0  0  0  0
   19.1839  -17.7033  -14.8232 C   0  0  0  0  0  0  0  0  0  0  0  0
   18.8488  -16.4434  -14.3168 C   0  0  0  0  0  0  0  0  0  0  0  0
   21.4895  -22.8117  -14.8836 O   0  0  0  0  0  0  0  0  0  0  0  0
  2  3  1  0
  2  1  1  6
  3  4  1  0
  4  5  1  0
  5  6  1  0
  7  6  1  0
  8  2  1  0
  9  8  2  0
 10  8  1  0
 11 17  1  0
 11 10  1  0
 11 12  1  1
 13 12  1  0
 13 14  1  0
 15 14  1  0
 15 16  1  0
 17 26  1  0
 18 17  2  0
 19 20  1  0
 20 30  2  0
 21 20  1  0
 21 22  2  0
 22 23  1  0
 23 29  2  0
 23 24  1  0
 25 27  1  0
 25 24  1  6
 26 25  1  0
 27 31  2  0
 27 28  1  0
 30 29  1  0
M  END
$$$$
