KEG.pdb
     RDKit          3D

 23 22  0  0  1  0  0  0  0  0999 V2000
   22.6608  -11.2682  -16.1156 N   0  0  0  0  0  0  0  0  0  0  0  0
   22.3820  -10.4195  -17.2393 C   0  0  1  0  0  0  0  0  0  0  0  0
   21.6151  -11.1368  -18.2745 C   0  0  0  0  0  0  0  0  0  0  0  0
   22.0994  -12.5042  -18.5384 C   0  0  0  0  0  0  0  0  0  0  0  0
   21.3531  -13.3297  -19.5224 C   0  0  0  0  0  0  0  0  0  0  0  0
   21.9882  -14.7353  -19.6263 C   0  0  0  0  0  0  0  0  0  0  0  0
   21.2280  -15.4794  -20.5890 N   0  0  0  0  0  0  0  0  0  0  0  0
   21.6944   -9.1613  -16.8014 C   0  0  0  0  0  0  0  0  0  0  0  0
   21.5270   -8.2012  -17.5780 O   0  0  0  0  0  0  0  0  0  0  0  0
   21.2090   -9.0173  -15.4893 N   0  0  0  0  0  0  0  0  0  0  0  0
   20.4573   -7.9736  -14.9237 C   0  0  1  0  0  0  0  0  0  0  0  0
   19.1535   -8.2915  -14.2583 C   0  0  0  0  0  0  0  0  0  0  0  0
   18.1396   -8.9506  -15.1443 C   0  0  0  0  0  0  0  0  0  0  0  0
   16.8166   -9.1368  -14.4342 C   0  0  0  0  0  0  0  0  0  0  0  0
   15.8324   -8.4047  -14.7080 O   0  0  0  0  0  0  0  0  0  0  0  0
   21.3124   -7.0273  -14.2072 C   0  0  0  0  0  0  0  0  0  0  0  0
   22.2079   -7.4760  -13.4426 O   0  0  0  0  0  0  0  0  0  0  0  0
   16.6660  -10.1076  -13.4820 O   0  0  0  0  0  0  0  0  0  0  0  0
   21.2210   -5.6215  -14.2985 N   0  0  0  0  0  0  0  0  0  0  0  0
   22.0542   -4.7379  -13.4895 C   0  0  0  0  0  0  0  0  0  0  0  0
   21.7618   -3.3170  -13.8137 C   0  0  0  0  0  0  0  0  0  0  0  0
   20.8917   -2.9607  -14.8124 O   0  0  0  0  0  0  0  0  0  0  0  0
   22.3185   -2.3969  -13.1650 O   0  0  0  0  0  0  0  0  0  0  0  0
  2  1  1  1
  2  8  1  0
  3  2  1  0
  4  3  1  0
  5  4  1  0
  6  5  1  0
  7  6  1  0
  8  9  2  0
 10  8  1  0
 10 11  1  0
 11 12  1  1
 12 13  1  0
 13 14  1  0
 14 18  1  0
 15 14  2  0
 16 17  2  0
 16 11  1  0
 19 16  1  0
 20 19  1  0
 21 20  1  0
 21 22  1  0
 23 21  2  0
M  END
$$$$
