KEG.pdb
     RDKit          3D

 23 22  0  0  1  0  0  0  0  0999 V2000
   26.5432  -22.0343  -13.2129 N   0  0  0  0  0  0  0  0  0  0  0  0
   25.5695  -20.9983  -13.4115 C   0  0  1  0  0  0  0  0  0  0  0  0
   25.0092  -20.5374  -12.1278 C   0  0  0  0  0  0  0  0  0  0  0  0
   25.5533  -21.2392  -10.9508 C   0  0  0  0  0  0  0  0  0  0  0  0
   25.0685  -20.8271   -9.6084 C   0  0  0  0  0  0  0  0  0  0  0  0
   23.5238  -20.8703   -9.5655 C   0  0  0  0  0  0  0  0  0  0  0  0
   23.1175  -20.4048   -8.2707 N   0  0  0  0  0  0  0  0  0  0  0  0
   26.1462  -19.8687  -14.2109 C   0  0  0  0  0  0  0  0  0  0  0  0
   27.3582  -19.5834  -14.1632 O   0  0  0  0  0  0  0  0  0  0  0  0
   25.3350  -19.0841  -15.0502 N   0  0  0  0  0  0  0  0  0  0  0  0
   25.6978  -18.0617  -15.9431 C   0  0  1  0  0  0  0  0  0  0  0  0
   25.4915  -18.2692  -17.4122 C   0  0  0  0  0  0  0  0  0  0  0  0
   26.0114  -17.1648  -18.2824 C   0  0  0  0  0  0  0  0  0  0  0  0
   25.7294  -17.4288  -19.7453 C   0  0  0  0  0  0  0  0  0  0  0  0
   24.7072  -16.9506  -20.2984 O   0  0  0  0  0  0  0  0  0  0  0  0
   25.3084  -16.7463  -15.4351 C   0  0  0  0  0  0  0  0  0  0  0  0
   24.1179  -16.5665  -15.0631 O   0  0  0  0  0  0  0  0  0  0  0  0
   26.5834  -18.1912  -20.4944 O   0  0  0  0  0  0  0  0  0  0  0  0
   26.1691  -15.6330  -15.3221 N   0  0  0  0  0  0  0  0  0  0  0  0
   25.7146  -14.3552  -14.7835 C   0  0  0  0  0  0  0  0  0  0  0  0
   25.3311  -13.4389  -15.8893 C   0  0  0  0  0  0  0  0  0  0  0  0
   24.9705  -12.1348  -15.6644 O   0  0  0  0  0  0  0  0  0  0  0  0
   25.3302  -13.8513  -17.0757 O   0  0  0  0  0  0  0  0  0  0  0  0
  2  1  1  1
  2  8  1  0
  3  2  1  0
  4  3  1  0
  5  4  1  0
  6  5  1  0
  7  6  1  0
  8  9  2  0
 10  8  1  0
 10 11  1  0
 11 12  1  6
 12 13  1  0
 13 14  1  0
 14 18  1  0
 15 14  2  0
 16 17  2  0
 16 11  1  0
 19 16  1  0
 20 19  1  0
 21 20  1  0
 21 22  1  0
 23 21  2  0
M  END
$$$$
