KEG.pdb
     RDKit          3D

 23 22  0  0  1  0  0  0  0  0999 V2000
   27.4892  -19.8738  -15.3094 N   0  0  0  0  0  0  0  0  0  0  0  0
   27.0765  -21.0836  -15.9627 C   0  0  1  0  0  0  0  0  0  0  0  0
   28.1181  -22.1233  -15.8712 C   0  0  0  0  0  0  0  0  0  0  0  0
   29.0218  -22.1692  -17.0353 C   0  0  0  0  0  0  0  0  0  0  0  0
   29.2552  -23.4848  -17.6845 C   0  0  0  0  0  0  0  0  0  0  0  0
   30.2969  -23.3403  -18.8176 C   0  0  0  0  0  0  0  0  0  0  0  0
   30.4381  -24.6266  -19.4371 N   0  0  0  0  0  0  0  0  0  0  0  0
   25.7597  -21.5587  -15.4260 C   0  0  0  0  0  0  0  0  0  0  0  0
   25.2206  -22.6026  -15.8412 O   0  0  0  0  0  0  0  0  0  0  0  0
   25.0799  -20.8391  -14.4269 N   0  0  0  0  0  0  0  0  0  0  0  0
   23.9208  -21.1817  -13.7104 C   0  0  1  0  0  0  0  0  0  0  0  0
   23.9001  -20.9941  -12.2244 C   0  0  0  0  0  0  0  0  0  0  0  0
   25.0548  -21.6134  -11.4962 C   0  0  0  0  0  0  0  0  0  0  0  0
   25.0024  -21.3160  -10.0136 C   0  0  0  0  0  0  0  0  0  0  0  0
   24.0521  -20.6546   -9.5247 O   0  0  0  0  0  0  0  0  0  0  0  0
   22.7120  -20.7521  -14.4134 C   0  0  0  0  0  0  0  0  0  0  0  0
   22.6630  -19.5820  -14.8786 O   0  0  0  0  0  0  0  0  0  0  0  0
   25.9876  -21.7639   -9.1765 O   0  0  0  0  0  0  0  0  0  0  0  0
   21.5674  -21.5517  -14.6219 N   0  0  0  0  0  0  0  0  0  0  0  0
   20.4331  -21.0874  -15.4138 C   0  0  0  0  0  0  0  0  0  0  0  0
   19.3511  -20.5947  -14.5216 C   0  0  0  0  0  0  0  0  0  0  0  0
   19.5153  -20.4917  -13.1638 O   0  0  0  0  0  0  0  0  0  0  0  0
   18.2425  -20.2566  -15.0055 O   0  0  0  0  0  0  0  0  0  0  0  0
  2  1  1  1
  2  8  1  0
  3  2  1  0
  4  3  1  0
  5  4  1  0
  6  5  1  0
  7  6  1  0
  8  9  2  0
 10  8  1  0
 10 11  1  0
 11 12  1  1
 12 13  1  0
 13 14  1  0
 14 18  1  0
 15 14  2  0
 16 17  2  0
 16 11  1  0
 19 16  1  0
 20 19  1  0
 21 20  1  0
 21 22  1  0
 23 21  2  0
M  END
$$$$
