KEG.pdb
     RDKit          3D

 23 22  0  0  1  0  0  0  0  0999 V2000
   20.7193  -11.0476  -20.3449 N   0  0  0  0  0  0  0  0  0  0  0  0
   20.7665  -11.1764  -18.9160 C   0  0  1  0  0  0  0  0  0  0  0  0
   22.0605  -11.7256  -18.4706 C   0  0  0  0  0  0  0  0  0  0  0  0
   22.5342  -12.8676  -19.2739 C   0  0  0  0  0  0  0  0  0  0  0  0
   23.8945  -13.3970  -18.9975 C   0  0  0  0  0  0  0  0  0  0  0  0
   24.2456  -14.5124  -20.0086 C   0  0  0  0  0  0  0  0  0  0  0  0
   25.5479  -15.0075  -19.6661 N   0  0  0  0  0  0  0  0  0  0  0  0
   20.4515   -9.8704  -18.2506 C   0  0  0  0  0  0  0  0  0  0  0  0
   20.8676   -8.7866  -18.7036 O   0  0  0  0  0  0  0  0  0  0  0  0
   19.6690   -9.8196  -17.0831 N   0  0  0  0  0  0  0  0  0  0  0  0
   19.2063   -8.7043  -16.3648 C   0  0  1  0  0  0  0  0  0  0  0  0
   17.8430   -8.7499  -15.7458 C   0  0  0  0  0  0  0  0  0  0  0  0
   17.3818   -7.4565  -15.1444 C   0  0  0  0  0  0  0  0  0  0  0  0
   15.9987   -7.5831  -14.5443 C   0  0  0  0  0  0  0  0  0  0  0  0
   14.9905   -7.7294  -15.2803 O   0  0  0  0  0  0  0  0  0  0  0  0
   20.2590   -8.1381  -15.5214 C   0  0  0  0  0  0  0  0  0  0  0  0
   20.8981   -8.9037  -14.7512 O   0  0  0  0  0  0  0  0  0  0  0  0
   15.8195   -7.5432  -13.1885 O   0  0  0  0  0  0  0  0  0  0  0  0
   20.6314   -6.7767  -15.4932 N   0  0  0  0  0  0  0  0  0  0  0  0
   21.6633   -6.2754  -14.5913 C   0  0  0  0  0  0  0  0  0  0  0  0
   21.9288   -4.8383  -14.8627 C   0  0  0  0  0  0  0  0  0  0  0  0
   21.2887   -4.1547  -15.8647 O   0  0  0  0  0  0  0  0  0  0  0  0
   22.7626   -4.2103  -14.1641 O   0  0  0  0  0  0  0  0  0  0  0  0
  2  1  1  6
  2  8  1  0
  3  2  1  0
  4  3  1  0
  5  4  1  0
  6  5  1  0
  7  6  1  0
  8  9  2  0
 10  8  1  0
 10 11  1  0
 11 12  1  1
 12 13  1  0
 13 14  1  0
 14 18  1  0
 15 14  2  0
 16 17  2  0
 16 11  1  0
 19 16  1  0
 20 19  1  0
 21 20  1  0
 21 22  1  0
 23 21  2  0
M  END
$$$$
