KEG.pdb
     RDKit          3D

 23 22  0  0  1  0  0  0  0  0999 V2000
   23.2980  -12.0925  -16.4512 N   0  0  0  0  0  0  0  0  0  0  0  0
   23.2928  -11.2376  -17.6044 C   0  0  1  0  0  0  0  0  0  0  0  0
   22.8087  -11.9536  -18.7991 C   0  0  0  0  0  0  0  0  0  0  0  0
   23.3116  -13.3348  -18.9138 C   0  0  0  0  0  0  0  0  0  0  0  0
   22.9036  -14.1284  -20.1014 C   0  0  0  0  0  0  0  0  0  0  0  0
   23.4885  -15.5565  -20.0122 C   0  0  0  0  0  0  0  0  0  0  0  0
   24.9166  -15.4323  -19.9528 N   0  0  0  0  0  0  0  0  0  0  0  0
   22.5063   -9.9888  -17.3407 C   0  0  0  0  0  0  0  0  0  0  0  0
   22.3788   -9.0995  -18.2043 O   0  0  0  0  0  0  0  0  0  0  0  0
   21.8785   -9.7735  -16.1007 N   0  0  0  0  0  0  0  0  0  0  0  0
   20.9798   -8.7640  -15.7170 C   0  0  1  0  0  0  0  0  0  0  0  0
   19.5327   -9.1061  -15.5362 C   0  0  0  0  0  0  0  0  0  0  0  0
   18.6462   -7.9404  -15.2160 C   0  0  0  0  0  0  0  0  0  0  0  0
   17.1965   -8.3581  -15.1014 C   0  0  0  0  0  0  0  0  0  0  0  0
   16.8675   -9.5674  -15.1952 O   0  0  0  0  0  0  0  0  0  0  0  0
   21.5540   -7.9025  -14.6835 C   0  0  0  0  0  0  0  0  0  0  0  0
   22.2349   -8.4287  -13.7630 O   0  0  0  0  0  0  0  0  0  0  0  0
   16.2163   -7.4271  -14.8908 O   0  0  0  0  0  0  0  0  0  0  0  0
   21.4093   -6.4994  -14.6245 N   0  0  0  0  0  0  0  0  0  0  0  0
   21.9413   -5.7127  -13.5165 C   0  0  0  0  0  0  0  0  0  0  0  0
   21.6707   -4.2677  -13.7360 C   0  0  0  0  0  0  0  0  0  0  0  0
   21.9968   -3.3148  -12.8050 O   0  0  0  0  0  0  0  0  0  0  0  0
   21.1265   -3.8848  -14.8012 O   0  0  0  0  0  0  0  0  0  0  0  0
  2  1  1  1
  2  8  1  0
  3  2  1  0
  4  3  1  0
  5  4  1  0
  6  5  1  0
  7  6  1  0
  8  9  2  0
 10  8  1  0
 10 11  1  0
 11 12  1  1
 12 13  1  0
 13 14  1  0
 14 18  1  0
 15 14  2  0
 16 17  2  0
 16 11  1  0
 19 16  1  0
 20 19  1  0
 21 20  1  0
 21 22  1  0
 23 21  2  0
M  END
$$$$
