KEG.pdb
     RDKit          3D

 23 22  0  0  1  0  0  0  0  0999 V2000
   16.4186  -14.1496  -15.2354 N   0  0  0  0  0  0  0  0  0  0  0  0
   16.4517  -12.9559  -16.0321 C   0  0  1  0  0  0  0  0  0  0  0  0
   15.1210  -12.6453  -16.5862 C   0  0  0  0  0  0  0  0  0  0  0  0
   14.0451  -12.6156  -15.5785 C   0  0  0  0  0  0  0  0  0  0  0  0
   12.6550  -12.3880  -16.0502 C   0  0  0  0  0  0  0  0  0  0  0  0
   11.6785  -12.4038  -14.8519 C   0  0  0  0  0  0  0  0  0  0  0  0
   10.3538  -12.2329  -15.3758 N   0  0  0  0  0  0  0  0  0  0  0  0
   17.0174  -11.8076  -15.2517 C   0  0  0  0  0  0  0  0  0  0  0  0
   17.0713  -11.8241  -14.0068 O   0  0  0  0  0  0  0  0  0  0  0  0
   17.5120  -10.6617  -15.9000 N   0  0  0  0  0  0  0  0  0  0  0  0
   18.0962   -9.5070  -15.3528 C   0  0  1  0  0  0  0  0  0  0  0  0
   19.5858   -9.4417  -15.2084 C   0  0  0  0  0  0  0  0  0  0  0  0
   20.0922   -8.2541  -14.4465 C   0  0  0  0  0  0  0  0  0  0  0  0
   21.5941   -8.3044  -14.2707 C   0  0  0  0  0  0  0  0  0  0  0  0
   22.2100   -7.3491  -13.7344 O   0  0  0  0  0  0  0  0  0  0  0  0
   17.4625   -8.2930  -15.8672 C   0  0  0  0  0  0  0  0  0  0  0  0
   17.2477   -8.1974  -17.1052 O   0  0  0  0  0  0  0  0  0  0  0  0
   22.3101   -9.3922  -14.6902 O   0  0  0  0  0  0  0  0  0  0  0  0
   17.0604   -7.1920  -15.0803 N   0  0  0  0  0  0  0  0  0  0  0  0
   16.4961   -5.9833  -15.6719 C   0  0  0  0  0  0  0  0  0  0  0  0
   16.3899   -4.9114  -14.6476 C   0  0  0  0  0  0  0  0  0  0  0  0
   16.0636   -3.6199  -14.9743 O   0  0  0  0  0  0  0  0  0  0  0  0
   16.6019   -5.1746  -13.4379 O   0  0  0  0  0  0  0  0  0  0  0  0
  2  1  1  1
  2  8  1  0
  3  2  1  0
  4  3  1  0
  5  4  1  0
  6  5  1  0
  7  6  1  0
  8  9  2  0
 10  8  1  0
 10 11  1  0
 11 12  1  6
 12 13  1  0
 13 14  1  0
 14 18  1  0
 15 14  2  0
 16 17  2  0
 16 11  1  0
 19 16  1  0
 20 19  1  0
 21 20  1  0
 21 22  1  0
 23 21  2  0
M  END
$$$$
