KEG.pdb
     RDKit          3D

 23 22  0  0  1  0  0  0  0  0999 V2000
   25.1097  -20.6514   -9.8224 N   0  0  0  0  0  0  0  0  0  0  0  0
   23.8182  -20.7706  -10.4376 C   0  0  1  0  0  0  0  0  0  0  0  0
   22.7721  -20.1387   -9.6125 C   0  0  0  0  0  0  0  0  0  0  0  0
   22.0187  -21.0871   -8.7718 C   0  0  0  0  0  0  0  0  0  0  0  0
   21.0716  -22.0134   -9.4438 C   0  0  0  0  0  0  0  0  0  0  0  0
   20.3571  -22.8955   -8.3945 C   0  0  0  0  0  0  0  0  0  0  0  0
   19.4616  -23.7644   -9.1027 N   0  0  0  0  0  0  0  0  0  0  0  0
   23.8386  -20.2249  -11.8338 C   0  0  0  0  0  0  0  0  0  0  0  0
   24.0292  -19.0148  -12.0622 O   0  0  0  0  0  0  0  0  0  0  0  0
   23.6425  -21.0643  -12.9451 N   0  0  0  0  0  0  0  0  0  0  0  0
   23.6275  -20.7467  -14.3137 C   0  0  1  0  0  0  0  0  0  0  0  0
   24.6180  -21.4033  -15.2256 C   0  0  0  0  0  0  0  0  0  0  0  0
   26.0411  -21.3398  -14.7585 C   0  0  0  0  0  0  0  0  0  0  0  0
   26.9772  -22.0251  -15.7297 C   0  0  0  0  0  0  0  0  0  0  0  0
   28.2138  -22.0657  -15.5093 O   0  0  0  0  0  0  0  0  0  0  0  0
   22.2603  -20.6651  -14.8279 C   0  0  0  0  0  0  0  0  0  0  0  0
   21.4437  -21.5775  -14.5305 O   0  0  0  0  0  0  0  0  0  0  0  0
   26.4946  -22.6159  -16.8655 O   0  0  0  0  0  0  0  0  0  0  0  0
   21.7627  -19.6294  -15.6481 N   0  0  0  0  0  0  0  0  0  0  0  0
   20.3897  -19.6261  -16.1424 C   0  0  0  0  0  0  0  0  0  0  0  0
   19.5104  -18.8708  -15.2119 C   0  0  0  0  0  0  0  0  0  0  0  0
   18.3822  -18.2196  -15.6411 O   0  0  0  0  0  0  0  0  0  0  0  0
   19.7909  -18.8139  -13.9889 O   0  0  0  0  0  0  0  0  0  0  0  0
  2  1  1  1
  2  8  1  0
  3  2  1  0
  4  3  1  0
  5  4  1  0
  6  5  1  0
  7  6  1  0
  8  9  2  0
 10  8  1  0
 10 11  1  0
 11 12  1  6
 12 13  1  0
 13 14  1  0
 14 18  1  0
 15 14  2  0
 16 17  2  0
 16 11  1  0
 19 16  1  0
 20 19  1  0
 21 20  1  0
 21 22  1  0
 23 21  2  0
M  END
$$$$
