MSW.pdb
     RDKit          3D

 29 30  0  0  1  0  0  0  0  0999 V2000
    8.7835  -11.3549   21.0721 C   0  0  0  0  0  0  0  0  0  0  0  0
    7.2850  -11.9625   20.2190 S   0  0  0  0  0  0  0  0  0  0  0  0
    7.4935  -13.7325   19.8067 C   0  0  0  0  0  0  0  0  0  0  0  0
    7.6484  -14.5442   21.0806 C   0  0  0  0  0  0  0  0  0  0  0  0
    7.8588  -15.9904   20.6685 C   0  0  2  0  0  0  0  0  0  0  0  0
    6.6416  -16.5407   20.1027 N   0  0  0  0  0  0  0  0  0  0  0  0
    8.3043  -16.7144   21.8640 C   0  0  0  0  0  0  0  0  0  0  0  0
    7.4484  -16.9610   22.7665 O   0  0  0  0  0  0  0  0  0  0  0  0
   12.2526  -17.7798   22.4105 O   0  0  0  0  0  0  0  0  0  0  0  0
   11.3667  -18.5396   23.1397 C   0  0  0  0  0  0  0  0  0  0  0  0
   10.0210  -17.7953   23.3013 C   0  0  2  0  0  0  0  0  0  0  0  0
    9.6552  -17.1590   22.0643 N   0  0  0  0  0  0  0  0  0  0  0  0
   10.2257  -16.7963   24.3854 C   0  0  0  0  0  0  0  0  0  0  0  0
   10.7816  -15.6879   24.1841 O   0  0  0  0  0  0  0  0  0  0  0  0
    9.8027  -17.0386   25.7238 N   0  0  0  0  0  0  0  0  0  0  0  0
   10.2969  -16.2232   26.8132 C   0  0  1  0  0  0  0  0  0  0  0  0
    9.0412  -15.8489   27.6170 C   0  0  0  0  0  0  0  0  0  0  0  0
    7.9587  -15.3318   26.7891 C   0  0  0  0  0  0  0  0  0  0  0  0
    7.0371  -16.1108   26.1295 C   0  0  0  0  0  0  0  0  0  0  0  0
    6.1999  -15.2892   25.4721 N   0  0  0  0  0  0  0  0  0  0  0  0
    6.5767  -13.9986   25.7039 C   0  0  0  0  0  0  0  0  0  0  0  0
    6.0374  -12.7955   25.2540 C   0  0  0  0  0  0  0  0  0  0  0  0
    6.6502  -11.6389   25.6700 C   0  0  0  0  0  0  0  0  0  0  0  0
    7.7497  -11.6495   26.4937 C   0  0  0  0  0  0  0  0  0  0  0  0
    8.2850  -12.8152   26.9383 C   0  0  0  0  0  0  0  0  0  0  0  0
    7.6833  -14.0109   26.5334 C   0  0  0  0  0  0  0  0  0  0  0  0
   11.1655  -17.0048   27.7331 C   0  0  0  0  0  0  0  0  0  0  0  0
   11.7089  -16.4450   28.7201 O   0  0  0  0  0  0  0  0  0  0  0  0
   11.4100  -18.3548   27.5468 O   0  0  0  0  0  0  0  0  0  0  0  0
  2  1  1  0
  3  2  1  0
  4  5  1  0
  4  3  1  0
  5  7  1  0
  5  6  1  1
  7  8  2  0
  9 10  1  0
 11 10  1  6
 11 13  1  0
 12 11  1  0
 12  7  1  0
 13 14  2  0
 15 16  1  0
 15 13  1  0
 16 27  1  0
 16 17  1  1
 18 17  1  0
 19 18  2  0
 20 21  1  0
 20 19  1  0
 21 26  2  0
 22 21  1  0
 22 23  2  0
 23 24  1  0
 24 25  2  0
 26 18  1  0
 26 25  1  0
 27 28  2  0
 27 29  1  0
M  END
$$$$
