MSW.pdb
     RDKit          3D

 29 30  0  0  1  0  0  0  0  0999 V2000
    7.0426  -12.1041   26.4446 C   0  0  0  0  0  0  0  0  0  0  0  0
    5.7854  -13.3117   26.9955 S   0  0  0  0  0  0  0  0  0  0  0  0
    5.4079  -14.4660   25.6274 C   0  0  0  0  0  0  0  0  0  0  0  0
    6.6779  -15.1675   25.1791 C   0  0  0  0  0  0  0  0  0  0  0  0
    6.3128  -16.0416   23.9924 C   0  0  2  0  0  0  0  0  0  0  0  0
    5.3622  -17.0641   24.3867 N   0  0  0  0  0  0  0  0  0  0  0  0
    7.5651  -16.6033   23.4747 C   0  0  0  0  0  0  0  0  0  0  0  0
    8.0531  -17.6160   24.0614 O   0  0  0  0  0  0  0  0  0  0  0  0
    9.7392  -14.5589   20.6637 O   0  0  0  0  0  0  0  0  0  0  0  0
   10.0968  -15.8864   20.7270 C   0  0  0  0  0  0  0  0  0  0  0  0
    9.5993  -16.5181   22.0478 C   0  0  2  0  0  0  0  0  0  0  0  0
    8.2646  -16.0686   22.3400 N   0  0  0  0  0  0  0  0  0  0  0  0
   10.5590  -16.0893   23.1014 C   0  0  0  0  0  0  0  0  0  0  0  0
   10.3374  -15.1101   23.8566 O   0  0  0  0  0  0  0  0  0  0  0  0
   11.7937  -16.7659   23.3174 N   0  0  0  0  0  0  0  0  0  0  0  0
   12.6199  -16.4470   24.4626 C   0  0  1  0  0  0  0  0  0  0  0  0
   11.9008  -17.1019   25.6530 C   0  0  0  0  0  0  0  0  0  0  0  0
   10.8232  -16.2849   26.1970 C   0  0  0  0  0  0  0  0  0  0  0  0
    9.5096  -16.3537   25.7958 C   0  0  0  0  0  0  0  0  0  0  0  0
    8.8128  -15.4563   26.5148 N   0  0  0  0  0  0  0  0  0  0  0  0
    9.6649  -14.8172   27.3672 C   0  0  0  0  0  0  0  0  0  0  0  0
    9.4344  -13.8154   28.3074 C   0  0  0  0  0  0  0  0  0  0  0  0
   10.5157  -13.3702   29.0275 C   0  0  0  0  0  0  0  0  0  0  0  0
   11.7782  -13.8788   28.8407 C   0  0  0  0  0  0  0  0  0  0  0  0
   12.0159  -14.8545   27.9272 C   0  0  0  0  0  0  0  0  0  0  0  0
   10.9351  -15.3305   27.1782 C   0  0  0  0  0  0  0  0  0  0  0  0
   13.9557  -17.0942   24.3726 C   0  0  0  0  0  0  0  0  0  0  0  0
   14.8001  -16.9353   25.2916 O   0  0  0  0  0  0  0  0  0  0  0  0
   14.3215  -17.8830   23.2951 O   0  0  0  0  0  0  0  0  0  0  0  0
  2  1  1  0
  3  2  1  0
  4  5  1  0
  4  3  1  0
  5  7  1  0
  5  6  1  1
  7  8  2  0
  9 10  1  0
 11 10  1  6
 11 13  1  0
 12 11  1  0
 12  7  1  0
 13 14  2  0
 15 16  1  0
 15 13  1  0
 16 27  1  0
 16 17  1  1
 18 17  1  0
 19 18  2  0
 20 21  1  0
 20 19  1  0
 21 26  2  0
 22 21  1  0
 22 23  2  0
 23 24  1  0
 24 25  2  0
 26 18  1  0
 26 25  1  0
 27 28  2  0
 27 29  1  0
M  END
$$$$
