MSW.pdb
     RDKit          3D

 29 30  0  0  1  0  0  0  0  0999 V2000
    9.5120  -11.8011   19.1007 C   0  0  0  0  0  0  0  0  0  0  0  0
    8.3176  -11.7607   20.4843 S   0  0  0  0  0  0  0  0  0  0  0  0
    7.5459  -13.4086   20.6719 C   0  0  0  0  0  0  0  0  0  0  0  0
    8.2704  -14.4197   19.8009 C   0  0  0  0  0  0  0  0  0  0  0  0
    7.5462  -15.7454   19.9549 C   0  0  2  0  0  0  0  0  0  0  0  0
    6.1110  -15.5552   19.8615 N   0  0  0  0  0  0  0  0  0  0  0  0
    7.9590  -16.3100   21.2443 C   0  0  0  0  0  0  0  0  0  0  0  0
    7.1784  -16.1724   22.2341 O   0  0  0  0  0  0  0  0  0  0  0  0
   11.6333  -18.1968   21.8553 O   0  0  0  0  0  0  0  0  0  0  0  0
   10.5478  -18.7707   22.4770 C   0  0  0  0  0  0  0  0  0  0  0  0
    9.4213  -17.7290   22.6690 C   0  0  2  0  0  0  0  0  0  0  0  0
    9.1970  -17.0103   21.4433 N   0  0  0  0  0  0  0  0  0  0  0  0
    9.8764  -16.8195   23.7556 C   0  0  0  0  0  0  0  0  0  0  0  0
   10.4986  -15.7528   23.5251 O   0  0  0  0  0  0  0  0  0  0  0  0
    9.6340  -17.1059   25.1297 N   0  0  0  0  0  0  0  0  0  0  0  0
   10.2606  -16.3177   26.1698 C   0  0  1  0  0  0  0  0  0  0  0  0
    9.1531  -16.1045   27.2142 C   0  0  0  0  0  0  0  0  0  0  0  0
    7.9349  -15.5316   26.6552 C   0  0  0  0  0  0  0  0  0  0  0  0
    6.8889  -16.2633   26.1436 C   0  0  0  0  0  0  0  0  0  0  0  0
    5.9497  -15.3983   25.7221 N   0  0  0  0  0  0  0  0  0  0  0  0
    6.3840  -14.1267   25.9579 C   0  0  0  0  0  0  0  0  0  0  0  0
    5.7836  -12.8954   25.7047 C   0  0  0  0  0  0  0  0  0  0  0  0
    6.4840  -11.7702   26.0646 C   0  0  0  0  0  0  0  0  0  0  0  0
    7.7253  -11.8375   26.6493 C   0  0  0  0  0  0  0  0  0  0  0  0
    8.3213  -13.0311   26.9006 C   0  0  0  0  0  0  0  0  0  0  0  0
    7.6335  -14.1961   26.5468 C   0  0  0  0  0  0  0  0  0  0  0  0
   11.3423  -17.0741   26.8548 C   0  0  0  0  0  0  0  0  0  0  0  0
   11.5555  -18.2792   26.5633 O   0  0  0  0  0  0  0  0  0  0  0  0
   12.1451  -16.4972   27.8242 O   0  0  0  0  0  0  0  0  0  0  0  0
  2  1  1  0
  3  2  1  0
  4  5  1  0
  4  3  1  0
  5  7  1  0
  5  6  1  1
  7  8  2  0
  9 10  1  0
 11 10  1  6
 11 13  1  0
 12 11  1  0
 12  7  1  0
 13 14  2  0
 15 16  1  0
 15 13  1  0
 16 27  1  0
 16 17  1  1
 18 17  1  0
 19 18  2  0
 20 21  1  0
 20 19  1  0
 21 26  2  0
 22 21  1  0
 22 23  2  0
 23 24  1  0
 24 25  2  0
 26 18  1  0
 26 25  1  0
 27 28  2  0
 27 29  1  0
M  END
$$$$
