MSW.pdb
     RDKit          3D

 29 30  0  0  1  0  0  0  0  0999 V2000
    7.6028  -11.9993   19.5991 C   0  0  0  0  0  0  0  0  0  0  0  0
    8.9490  -13.2049   19.3219 S   0  0  0  0  0  0  0  0  0  0  0  0
    8.2401  -14.7866   18.7367 C   0  0  0  0  0  0  0  0  0  0  0  0
    6.9687  -15.0981   19.5064 C   0  0  0  0  0  0  0  0  0  0  0  0
    7.0325  -16.5620   19.9046 C   0  0  2  0  0  0  0  0  0  0  0  0
    5.9225  -17.2956   19.3263 N   0  0  0  0  0  0  0  0  0  0  0  0
    7.0365  -16.6059   21.3708 C   0  0  0  0  0  0  0  0  0  0  0  0
    5.9197  -16.6313   21.9707 O   0  0  0  0  0  0  0  0  0  0  0  0
    8.7515  -19.0639   24.2860 O   0  0  0  0  0  0  0  0  0  0  0  0
    7.6915  -18.2944   23.8638 C   0  0  0  0  0  0  0  0  0  0  0  0
    8.1538  -16.8467   23.5788 C   0  0  2  0  0  0  0  0  0  0  0  0
    8.2362  -16.6231   22.1602 N   0  0  0  0  0  0  0  0  0  0  0  0
    9.4842  -16.6990   24.2293 C   0  0  0  0  0  0  0  0  0  0  0  0
   10.5115  -17.2828   23.8026 O   0  0  0  0  0  0  0  0  0  0  0  0
    9.6738  -15.8838   25.3819 N   0  0  0  0  0  0  0  0  0  0  0  0
   10.9994  -15.6637   25.9205 C   0  0  1  0  0  0  0  0  0  0  0  0
   10.8457  -14.4410   26.8394 C   0  0  0  0  0  0  0  0  0  0  0  0
    9.4973  -14.2834   27.3701 C   0  0  0  0  0  0  0  0  0  0  0  0
    9.0059  -14.9487   28.4688 C   0  0  0  0  0  0  0  0  0  0  0  0
    7.7349  -14.5513   28.6552 N   0  0  0  0  0  0  0  0  0  0  0  0
    7.4110  -13.6433   27.6900 C   0  0  0  0  0  0  0  0  0  0  0  0
    6.2283  -12.9465   27.4523 C   0  0  0  0  0  0  0  0  0  0  0  0
    6.2120  -12.0847   26.3831 C   0  0  0  0  0  0  0  0  0  0  0  0
    7.3058  -11.9061   25.5713 C   0  0  0  0  0  0  0  0  0  0  0  0
    8.4637  -12.5796   25.7919 C   0  0  0  0  0  0  0  0  0  0  0  0
    8.5131  -13.4643   26.8739 C   0  0  0  0  0  0  0  0  0  0  0  0
   11.4319  -16.7896   26.7904 C   0  0  0  0  0  0  0  0  0  0  0  0
   10.6243  -17.7074   27.0874 O   0  0  0  0  0  0  0  0  0  0  0  0
   12.7157  -16.8748   27.3019 O   0  0  0  0  0  0  0  0  0  0  0  0
  2  1  1  0
  3  2  1  0
  4  5  1  0
  4  3  1  0
  5  7  1  0
  5  6  1  1
  7  8  2  0
  9 10  1  0
 11 10  1  6
 11 13  1  0
 12 11  1  0
 12  7  1  0
 13 14  2  0
 15 16  1  0
 15 13  1  0
 16 27  1  0
 16 17  1  1
 18 17  1  0
 19 18  2  0
 20 21  1  0
 20 19  1  0
 21 26  2  0
 22 21  1  0
 22 23  2  0
 23 24  1  0
 24 25  2  0
 26 18  1  0
 26 25  1  0
 27 28  2  0
 27 29  1  0
M  END
$$$$
