MSW.pdb
     RDKit          3D

 29 30  0  0  1  0  0  0  0  0999 V2000
    7.0844  -11.2588   21.6116 C   0  0  0  0  0  0  0  0  0  0  0  0
    8.1609  -12.3055   20.5686 S   0  0  0  0  0  0  0  0  0  0  0  0
    7.5697  -14.0357   20.6259 C   0  0  0  0  0  0  0  0  0  0  0  0
    8.4467  -14.9098   19.7469 C   0  0  0  0  0  0  0  0  0  0  0  0
    7.9446  -16.3358   19.8889 C   0  0  2  0  0  0  0  0  0  0  0  0
    6.5090  -16.3923   19.6884 N   0  0  0  0  0  0  0  0  0  0  0  0
    8.3482  -16.7998   21.2206 C   0  0  0  0  0  0  0  0  0  0  0  0
    7.4623  -16.8611   22.1258 O   0  0  0  0  0  0  0  0  0  0  0  0
   12.2111  -18.0492   21.9977 O   0  0  0  0  0  0  0  0  0  0  0  0
   11.2249  -18.7328   22.6715 C   0  0  0  0  0  0  0  0  0  0  0  0
    9.9519  -17.8638   22.7947 C   0  0  2  0  0  0  0  0  0  0  0  0
    9.6905  -17.1890   21.5516 N   0  0  0  0  0  0  0  0  0  0  0  0
   10.2144  -16.8946   23.8932 C   0  0  0  0  0  0  0  0  0  0  0  0
   10.7903  -15.7952   23.6986 O   0  0  0  0  0  0  0  0  0  0  0  0
    9.8279  -17.1570   25.2388 N   0  0  0  0  0  0  0  0  0  0  0  0
   10.3231  -16.3352   26.3229 C   0  0  1  0  0  0  0  0  0  0  0  0
    9.0974  -16.0976   27.2196 C   0  0  0  0  0  0  0  0  0  0  0  0
    8.0113  -15.4021   26.5405 C   0  0  0  0  0  0  0  0  0  0  0  0
    6.9560  -16.0219   25.9133 C   0  0  0  0  0  0  0  0  0  0  0  0
    6.1612  -15.0646   25.4036 N   0  0  0  0  0  0  0  0  0  0  0  0
    6.6966  -13.8447   25.6973 C   0  0  0  0  0  0  0  0  0  0  0  0
    6.2566  -12.5580   25.3946 C   0  0  0  0  0  0  0  0  0  0  0  0
    7.0267  -11.5111   25.8384 C   0  0  0  0  0  0  0  0  0  0  0  0
    8.1851  -11.7061   26.5508 C   0  0  0  0  0  0  0  0  0  0  0  0
    8.6248  -12.9549   26.8514 C   0  0  0  0  0  0  0  0  0  0  0  0
    7.8623  -14.0427   26.4146 C   0  0  0  0  0  0  0  0  0  0  0  0
   11.3160  -17.0651   27.1553 C   0  0  0  0  0  0  0  0  0  0  0  0
   11.5207  -18.2921   26.9672 O   0  0  0  0  0  0  0  0  0  0  0  0
   12.0428  -16.4394   28.1538 O   0  0  0  0  0  0  0  0  0  0  0  0
  2  1  1  0
  3  2  1  0
  4  5  1  0
  4  3  1  0
  5  7  1  0
  5  6  1  1
  7  8  2  0
  9 10  1  0
 11 10  1  6
 11 13  1  0
 12 11  1  0
 12  7  1  0
 13 14  2  0
 15 16  1  0
 15 13  1  0
 16 27  1  0
 16 17  1  1
 18 17  1  0
 19 18  2  0
 20 21  1  0
 20 19  1  0
 21 26  2  0
 22 21  1  0
 22 23  2  0
 23 24  1  0
 24 25  2  0
 26 18  1  0
 26 25  1  0
 27 28  2  0
 27 29  1  0
M  END
$$$$
