MSW.pdb
     RDKit          3D

 29 30  0  0  1  0  0  0  0  0999 V2000
    7.8267  -11.3995   21.2358 C   0  0  0  0  0  0  0  0  0  0  0  0
    7.2607  -12.0016   19.6050 S   0  0  0  0  0  0  0  0  0  0  0  0
    8.0590  -13.6057   19.2365 C   0  0  0  0  0  0  0  0  0  0  0  0
    7.8566  -14.5617   20.3989 C   0  0  0  0  0  0  0  0  0  0  0  0
    8.4679  -15.8923   19.9973 C   0  0  2  0  0  0  0  0  0  0  0  0
    7.6110  -16.5812   19.0508 N   0  0  0  0  0  0  0  0  0  0  0  0
    8.6758  -16.6566   21.2320 C   0  0  0  0  0  0  0  0  0  0  0  0
    7.7873  -17.4948   21.5724 O   0  0  0  0  0  0  0  0  0  0  0  0
   12.2429  -17.7226   22.5114 O   0  0  0  0  0  0  0  0  0  0  0  0
   11.1289  -18.3570   23.0120 C   0  0  0  0  0  0  0  0  0  0  0  0
    9.9825  -17.3431   23.2326 C   0  0  2  0  0  0  0  0  0  0  0  0
    9.8308  -16.5067   22.0723 N   0  0  0  0  0  0  0  0  0  0  0  0
   10.3579  -16.5450   24.4314 C   0  0  0  0  0  0  0  0  0  0  0  0
   11.1681  -15.5865   24.3761 O   0  0  0  0  0  0  0  0  0  0  0  0
    9.8195  -16.8220   25.7207 N   0  0  0  0  0  0  0  0  0  0  0  0
   10.4879  -16.3532   26.9162 C   0  0  1  0  0  0  0  0  0  0  0  0
    9.3648  -15.7547   27.7782 C   0  0  0  0  0  0  0  0  0  0  0  0
    8.2066  -15.3283   27.0027 C   0  0  0  0  0  0  0  0  0  0  0  0
    7.2248  -16.1700   26.5348 C   0  0  0  0  0  0  0  0  0  0  0  0
    6.3276  -15.4237   25.8670 N   0  0  0  0  0  0  0  0  0  0  0  0
    6.7255  -14.1192   25.9029 C   0  0  0  0  0  0  0  0  0  0  0  0
    6.1451  -12.9728   25.3649 C   0  0  0  0  0  0  0  0  0  0  0  0
    6.7957  -11.7819   25.5763 C   0  0  0  0  0  0  0  0  0  0  0  0
    7.9704  -11.7063   26.2846 C   0  0  0  0  0  0  0  0  0  0  0  0
    8.5464  -12.8162   26.8132 C   0  0  0  0  0  0  0  0  0  0  0  0
    7.9078  -14.0447   26.6166 C   0  0  0  0  0  0  0  0  0  0  0  0
   11.0632  -17.4785   27.7001 C   0  0  0  0  0  0  0  0  0  0  0  0
   11.7386  -17.2488   28.7363 O   0  0  0  0  0  0  0  0  0  0  0  0
   10.8851  -18.8009   27.3307 O   0  0  0  0  0  0  0  0  0  0  0  0
  2  1  1  0
  3  2  1  0
  4  5  1  0
  4  3  1  0
  5  7  1  0
  5  6  1  6
  7  8  2  0
  9 10  1  0
 11 10  1  6
 11 13  1  0
 12 11  1  0
 12  7  1  0
 13 14  2  0
 15 16  1  0
 15 13  1  0
 16 27  1  0
 16 17  1  1
 18 17  1  0
 19 18  2  0
 20 21  1  0
 20 19  1  0
 21 26  2  0
 22 21  1  0
 22 23  2  0
 23 24  1  0
 24 25  2  0
 26 18  1  0
 26 25  1  0
 27 28  2  0
 27 29  1  0
M  END
$$$$
