MSW.pdb
     RDKit          3D

 29 30  0  0  1  0  0  0  0  0999 V2000
    5.7910  -22.0116   23.7240 C   0  0  0  0  0  0  0  0  0  0  0  0
    5.4683  -22.2528   21.9408 S   0  0  0  0  0  0  0  0  0  0  0  0
    7.0339  -22.0845   21.0096 C   0  0  0  0  0  0  0  0  0  0  0  0
    7.1924  -20.6555   20.5210 C   0  0  0  0  0  0  0  0  0  0  0  0
    7.8989  -19.8813   21.6197 C   0  0  2  0  0  0  0  0  0  0  0  0
    7.1060  -19.8834   22.8345 N   0  0  0  0  0  0  0  0  0  0  0  0
    8.1383  -18.5294   21.1031 C   0  0  0  0  0  0  0  0  0  0  0  0
    8.8172  -18.4080   20.0390 O   0  0  0  0  0  0  0  0  0  0  0  0
    6.1712  -15.1531   22.2308 O   0  0  0  0  0  0  0  0  0  0  0  0
    7.1547  -14.9841   21.2832 C   0  0  0  0  0  0  0  0  0  0  0  0
    8.2465  -16.0681   21.4375 C   0  0  2  0  0  0  0  0  0  0  0  0
    7.6436  -17.3393   21.7369 N   0  0  0  0  0  0  0  0  0  0  0  0
    9.1311  -15.6131   22.5445 C   0  0  0  0  0  0  0  0  0  0  0  0
    9.8067  -14.5562   22.4761 O   0  0  0  0  0  0  0  0  0  0  0  0
    9.2669  -16.3531   23.7540 N   0  0  0  0  0  0  0  0  0  0  0  0
   10.1836  -15.9182   24.7866 C   0  0  1  0  0  0  0  0  0  0  0  0
    9.3852  -16.0494   26.0935 C   0  0  0  0  0  0  0  0  0  0  0  0
    8.1210  -15.3241   26.0730 C   0  0  0  0  0  0  0  0  0  0  0  0
    6.8895  -15.9032   25.8742 C   0  0  0  0  0  0  0  0  0  0  0  0
    5.9648  -14.9281   25.9198 N   0  0  0  0  0  0  0  0  0  0  0  0
    6.5910  -13.7370   26.1440 C   0  0  0  0  0  0  0  0  0  0  0  0
    6.0803  -12.4472   26.2723 C   0  0  0  0  0  0  0  0  0  0  0  0
    6.9809  -11.4358   26.5004 C   0  0  0  0  0  0  0  0  0  0  0  0
    8.3314  -11.6678   26.5993 C   0  0  0  0  0  0  0  0  0  0  0  0
    8.8414  -12.9198   26.4754 C   0  0  0  0  0  0  0  0  0  0  0  0
    7.9502  -13.9722   26.2437 C   0  0  0  0  0  0  0  0  0  0  0  0
   11.3455  -16.8379   24.9114 C   0  0  0  0  0  0  0  0  0  0  0  0
   11.3429  -17.9466   24.3167 O   0  0  0  0  0  0  0  0  0  0  0  0
   12.4577  -16.5214   25.6729 O   0  0  0  0  0  0  0  0  0  0  0  0
  2  1  1  0
  3  2  1  0
  4  5  1  0
  4  3  1  0
  5  7  1  0
  5  6  1  1
  7  8  2  0
  9 10  1  0
 11 10  1  1
 11 13  1  0
 12 11  1  0
 12  7  1  0
 13 14  2  0
 15 16  1  0
 15 13  1  0
 16 27  1  0
 16 17  1  1
 18 17  1  0
 19 18  2  0
 20 21  1  0
 20 19  1  0
 21 26  2  0
 22 21  1  0
 22 23  2  0
 23 24  1  0
 24 25  2  0
 26 18  1  0
 26 25  1  0
 27 28  2  0
 27 29  1  0
M  END
$$$$
