MSW.pdb
     RDKit          3D

 29 30  0  0  1  0  0  0  0  0999 V2000
   12.1261  -16.2464   14.3409 C   0  0  0  0  0  0  0  0  0  0  0  0
   11.8600  -15.5390   16.0056 S   0  0  0  0  0  0  0  0  0  0  0  0
   10.0663  -15.3362   16.3022 C   0  0  0  0  0  0  0  0  0  0  0  0
    9.8291  -14.8629   17.7255 C   0  0  0  0  0  0  0  0  0  0  0  0
    8.3318  -14.6728   17.8915 C   0  0  2  0  0  0  0  0  0  0  0  0
    7.9389  -13.3393   17.4768 N   0  0  0  0  0  0  0  0  0  0  0  0
    8.0210  -14.9414   19.2997 C   0  0  0  0  0  0  0  0  0  0  0  0
    8.1810  -14.0022   20.1365 O   0  0  0  0  0  0  0  0  0  0  0  0
    7.3916  -18.7655   20.9326 O   0  0  0  0  0  0  0  0  0  0  0  0
    6.5919  -17.7564   21.4187 C   0  0  0  0  0  0  0  0  0  0  0  0
    7.2519  -16.3792   21.1767 C   0  0  2  0  0  0  0  0  0  0  0  0
    7.5445  -16.2089   19.7787 N   0  0  0  0  0  0  0  0  0  0  0  0
    8.4938  -16.3631   21.9967 C   0  0  0  0  0  0  0  0  0  0  0  0
    9.6399  -16.4172   21.4851 O   0  0  0  0  0  0  0  0  0  0  0  0
    8.4576  -16.2863   23.4186 N   0  0  0  0  0  0  0  0  0  0  0  0
    9.6838  -16.2398   24.1868 C   0  0  1  0  0  0  0  0  0  0  0  0
    9.5988  -14.9210   24.9719 C   0  0  0  0  0  0  0  0  0  0  0  0
    8.2851  -14.6804   25.5559 C   0  0  0  0  0  0  0  0  0  0  0  0
    7.3361  -15.6514   25.7749 C   0  0  0  0  0  0  0  0  0  0  0  0
    6.2603  -15.0585   26.3219 N   0  0  0  0  0  0  0  0  0  0  0  0
    6.5117  -13.7241   26.4533 C   0  0  0  0  0  0  0  0  0  0  0  0
    5.7238  -12.6923   26.9587 C   0  0  0  0  0  0  0  0  0  0  0  0
    6.2670  -11.4310   26.9596 C   0  0  0  0  0  0  0  0  0  0  0  0
    7.5314  -11.1791   26.4848 C   0  0  0  0  0  0  0  0  0  0  0  0
    8.3086  -12.1757   25.9892 C   0  0  0  0  0  0  0  0  0  0  0  0
    7.7848  -13.4722   25.9754 C   0  0  0  0  0  0  0  0  0  0  0  0
    9.7382  -17.3274   25.1995 C   0  0  0  0  0  0  0  0  0  0  0  0
    8.7240  -18.0380   25.4215 O   0  0  0  0  0  0  0  0  0  0  0  0
   10.8837  -17.5993   25.9282 O   0  0  0  0  0  0  0  0  0  0  0  0
  2  1  1  0
  3  2  1  0
  4  5  1  0
  4  3  1  0
  5  7  1  0
  5  6  1  1
  7  8  2  0
  9 10  1  0
 11 10  1  6
 11 13  1  0
 12 11  1  0
 12  7  1  0
 13 14  2  0
 15 16  1  0
 15 13  1  0
 16 27  1  0
 16 17  1  1
 18 17  1  0
 19 18  2  0
 20 21  1  0
 20 19  1  0
 21 26  2  0
 22 21  1  0
 22 23  2  0
 23 24  1  0
 24 25  2  0
 26 18  1  0
 26 25  1  0
 27 28  2  0
 27 29  1  0
M  END
$$$$
