MSW.pdb
     RDKit          3D

 29 30  0  0  1  0  0  0  0  0999 V2000
    8.3038  -11.2344   20.1120 C   0  0  0  0  0  0  0  0  0  0  0  0
    6.7603  -12.2046   20.2482 S   0  0  0  0  0  0  0  0  0  0  0  0
    7.1197  -13.9700   19.9309 C   0  0  0  0  0  0  0  0  0  0  0  0
    7.5730  -14.6429   21.2145 C   0  0  0  0  0  0  0  0  0  0  0  0
    7.7510  -16.1195   20.9085 C   0  0  2  0  0  0  0  0  0  0  0  0
    6.4699  -16.7390   20.6268 N   0  0  0  0  0  0  0  0  0  0  0  0
    8.4257  -16.7170   22.0659 C   0  0  0  0  0  0  0  0  0  0  0  0
    7.7280  -17.3936   22.8804 O   0  0  0  0  0  0  0  0  0  0  0  0
   12.5110  -16.7443   22.3106 O   0  0  0  0  0  0  0  0  0  0  0  0
   11.8702  -17.7689   22.9692 C   0  0  0  0  0  0  0  0  0  0  0  0
   10.4428  -17.3388   23.3797 C   0  0  2  0  0  0  0  0  0  0  0  0
    9.8318  -16.5775   22.3233 N   0  0  0  0  0  0  0  0  0  0  0  0
   10.5930  -16.5258   24.6173 C   0  0  0  0  0  0  0  0  0  0  0  0
   11.2872  -15.4795   24.6561 O   0  0  0  0  0  0  0  0  0  0  0  0
    9.9565  -16.8876   25.8391 N   0  0  0  0  0  0  0  0  0  0  0  0
   10.4304  -16.3625   27.1022 C   0  0  1  0  0  0  0  0  0  0  0  0
    9.1535  -16.1099   27.9199 C   0  0  0  0  0  0  0  0  0  0  0  0
    8.0751  -15.5176   27.1383 C   0  0  0  0  0  0  0  0  0  0  0  0
    7.1304  -16.2327   26.4401 C   0  0  0  0  0  0  0  0  0  0  0  0
    6.3057  -15.3528   25.8455 N   0  0  0  0  0  0  0  0  0  0  0  0
    6.7130  -14.0882   26.1554 C   0  0  0  0  0  0  0  0  0  0  0  0
    6.1964  -12.8473   25.7890 C   0  0  0  0  0  0  0  0  0  0  0  0
    6.8384  -11.7333   26.2717 C   0  0  0  0  0  0  0  0  0  0  0  0
    7.9449  -11.8204   27.0812 C   0  0  0  0  0  0  0  0  0  0  0  0
    8.4583  -13.0234   27.4447 C   0  0  0  0  0  0  0  0  0  0  0  0
    7.8266  -14.1774   26.9705 C   0  0  0  0  0  0  0  0  0  0  0  0
   11.2175  -17.3742   27.8562 C   0  0  0  0  0  0  0  0  0  0  0  0
   11.6983  -17.0911   28.9838 O   0  0  0  0  0  0  0  0  0  0  0  0
   11.4516  -18.6453   27.3600 O   0  0  0  0  0  0  0  0  0  0  0  0
  2  1  1  0
  3  2  1  0
  4  5  1  0
  4  3  1  0
  5  7  1  0
  5  6  1  1
  7  8  2  0
  9 10  1  0
 11 10  1  6
 11 13  1  0
 12 11  1  0
 12  7  1  0
 13 14  2  0
 15 16  1  0
 15 13  1  0
 16 27  1  0
 16 17  1  1
 18 17  1  0
 19 18  2  0
 20 21  1  0
 20 19  1  0
 21 26  2  0
 22 21  1  0
 22 23  2  0
 23 24  1  0
 24 25  2  0
 26 18  1  0
 26 25  1  0
 27 28  2  0
 27 29  1  0
M  END
$$$$
