IIE.pdb
     RDKit          3D

 26 25  0  0  1  0  0  0  0  0999 V2000
   24.4813  -25.2576  -14.4478 C   0  0  0  0  0  0  0  0  0  0  0  0
   25.4131  -24.1303  -14.1143 C   0  0  0  0  0  0  0  0  0  0  0  0
   24.8060  -22.7660  -14.1487 C   0  0  2  0  0  0  0  0  0  0  0  0
   24.2264  -22.4816  -15.5398 C   0  0  0  0  0  0  0  0  0  0  0  0
   25.6997  -21.6436  -13.7763 C   0  0  2  0  0  0  0  0  0  0  0  0
   26.2660  -21.8119  -12.4538 N   0  0  0  0  0  0  0  0  0  0  0  0
   25.1176  -20.2803  -13.9320 C   0  0  0  0  0  0  0  0  0  0  0  0
   24.4860  -19.8413  -12.9296 O   0  0  0  0  0  0  0  0  0  0  0  0
   28.1566  -16.3958  -15.8634 C   0  0  0  0  0  0  0  0  0  0  0  0
   27.1066  -17.1810  -15.0636 C   0  0  0  0  0  0  0  0  0  0  0  0
   25.8173  -17.2782  -15.8375 C   0  0  2  0  0  0  0  0  0  0  0  0
   25.4115  -15.8816  -16.2041 C   0  0  0  0  0  0  0  0  0  0  0  0
   24.7960  -18.1807  -15.3072 C   0  0  2  0  0  0  0  0  0  0  0  0
   25.2729  -19.5461  -15.1247 N   0  0  0  0  0  0  0  0  0  0  0  0
   23.4536  -18.2268  -15.8837 C   0  0  0  0  0  0  0  0  0  0  0  0
   23.3241  -18.7138  -17.0414 O   0  0  0  0  0  0  0  0  0  0  0  0
   22.2497  -17.7834  -15.2848 N   0  0  0  0  0  0  0  0  0  0  0  0
   21.0078  -17.9002  -16.0719 C   0  0  1  0  0  0  0  0  0  0  0  0
   19.9490  -18.5594  -15.1858 C   0  0  0  0  0  0  0  0  0  0  0  0
   19.8132  -17.8769  -13.8468 C   0  0  0  0  0  0  0  0  0  0  0  0
   18.7798  -18.6301  -13.1002 C   0  0  0  0  0  0  0  0  0  0  0  0
   18.1950  -19.5843  -13.6419 O   0  0  0  0  0  0  0  0  0  0  0  0
   20.6269  -16.5517  -16.5258 C   0  0  0  0  0  0  0  0  0  0  0  0
   21.2469  -15.3751  -16.1540 O   0  0  0  0  0  0  0  0  0  0  0  0
   18.4703  -18.2652  -11.8073 O   0  0  0  0  0  0  0  0  0  0  0  0
   19.6476  -16.4180  -17.3283 O   0  0  0  0  0  0  0  0  0  0  0  0
  2  1  1  0
  3  2  1  0
  3  4  1  6
  5  3  1  0
  5  6  1  1
  7  5  1  0
  8  7  2  0
  9 10  1  0
 10 11  1  0
 11 13  1  0
 11 12  1  1
 13 14  1  6
 14  7  1  0
 15 17  1  0
 15 13  1  0
 16 15  2  0
 18 23  1  0
 18 17  1  0
 18 19  1  1
 19 20  1  0
 20 21  1  0
 21 22  2  0
 23 24  1  0
 25 21  1  0
 26 23  2  0
M  END
$$$$
