IIE.pdb
     RDKit          3D

 26 25  0  0  1  0  0  0  0  0999 V2000
   15.9523  -10.0771  -19.7169 C   0  0  0  0  0  0  0  0  0  0  0  0
   17.0020  -11.0549  -19.2782 C   0  0  0  0  0  0  0  0  0  0  0  0
   17.8540  -10.6100  -18.1350 C   0  0  2  0  0  0  0  0  0  0  0  0
   18.6362   -9.3483  -18.5199 C   0  0  0  0  0  0  0  0  0  0  0  0
   18.8115  -11.6102  -17.6056 C   0  0  2  0  0  0  0  0  0  0  0  0
   18.1663  -12.8658  -17.2816 N   0  0  0  0  0  0  0  0  0  0  0  0
   19.6641  -11.1470  -16.4742 C   0  0  0  0  0  0  0  0  0  0  0  0
   19.1077  -11.1450  -15.3399 O   0  0  0  0  0  0  0  0  0  0  0  0
   24.4028  -12.9549  -15.0015 C   0  0  0  0  0  0  0  0  0  0  0  0
   23.0032  -12.3270  -15.0762 C   0  0  0  0  0  0  0  0  0  0  0  0
   23.0977  -10.8679  -15.4407 C   0  0  2  0  0  0  0  0  0  0  0  0
   24.1309  -10.2512  -14.5452 C   0  0  0  0  0  0  0  0  0  0  0  0
   21.8367  -10.1544  -15.6389 C   0  0  2  0  0  0  0  0  0  0  0  0
   20.9989  -10.7434  -16.6765 N   0  0  0  0  0  0  0  0  0  0  0  0
   21.8040   -8.7000  -15.7804 C   0  0  0  0  0  0  0  0  0  0  0  0
   22.3271   -8.1948  -16.8126 O   0  0  0  0  0  0  0  0  0  0  0  0
   21.2397   -7.7653  -14.8790 N   0  0  0  0  0  0  0  0  0  0  0  0
   21.3876   -6.3321  -15.1944 C   0  0  1  0  0  0  0  0  0  0  0  0
   20.0126   -5.7939  -15.5952 C   0  0  0  0  0  0  0  0  0  0  0  0
   20.0415   -4.3183  -15.9093 C   0  0  0  0  0  0  0  0  0  0  0  0
   18.6287   -3.8948  -16.0426 C   0  0  0  0  0  0  0  0  0  0  0  0
   18.3093   -2.7168  -15.8061 O   0  0  0  0  0  0  0  0  0  0  0  0
   21.9512   -5.6603  -14.0109 C   0  0  0  0  0  0  0  0  0  0  0  0
   22.0673   -6.2163  -12.7521 O   0  0  0  0  0  0  0  0  0  0  0  0
   17.6745   -4.8131  -16.4258 O   0  0  0  0  0  0  0  0  0  0  0  0
   22.3768   -4.4651  -14.1167 O   0  0  0  0  0  0  0  0  0  0  0  0
  2  1  1  0
  3  2  1  0
  3  4  1  6
  5  3  1  0
  5  6  1  1
  7  5  1  0
  8  7  2  0
  9 10  1  0
 10 11  1  0
 11 13  1  0
 11 12  1  1
 13 14  1  6
 14  7  1  0
 15 17  1  0
 15 13  1  0
 16 15  2  0
 18 23  1  0
 18 17  1  0
 18 19  1  1
 19 20  1  0
 20 21  1  0
 21 22  2  0
 23 24  1  0
 25 21  1  0
 26 23  2  0
M  END
$$$$
