IIE.pdb
     RDKit          3D

 26 25  0  0  1  0  0  0  0  0999 V2000
   21.6189  -11.0496    7.4115 C   0  0  0  0  0  0  0  0  0  0  0  0
   20.6943  -11.3107    6.2594 C   0  0  0  0  0  0  0  0  0  0  0  0
   19.7700  -12.4716    6.4303 C   0  0  2  0  0  0  0  0  0  0  0  0
   20.5682  -13.7351    6.7743 C   0  0  0  0  0  0  0  0  0  0  0  0
   18.8847  -12.7765    5.2811 C   0  0  2  0  0  0  0  0  0  0  0  0
   18.0026  -11.6726    4.9631 N   0  0  0  0  0  0  0  0  0  0  0  0
   18.1200  -14.0521    5.3803 C   0  0  0  0  0  0  0  0  0  0  0  0
   17.0575  -13.9971    6.0620 O   0  0  0  0  0  0  0  0  0  0  0  0
   16.1749  -18.6898    2.1811 C   0  0  0  0  0  0  0  0  0  0  0  0
   16.7557  -18.3701    3.5664 C   0  0  0  0  0  0  0  0  0  0  0  0
   17.2880  -16.9608    3.6036 C   0  0  2  0  0  0  0  0  0  0  0  0
   18.0456  -16.7372    2.3286 C   0  0  0  0  0  0  0  0  0  0  0  0
   17.8950  -16.5178    4.8581 C   0  0  2  0  0  0  0  0  0  0  0  0
   18.5680  -15.2292    4.7485 N   0  0  0  0  0  0  0  0  0  0  0  0
   18.7299  -17.4158    5.6537 C   0  0  0  0  0  0  0  0  0  0  0  0
   19.9608  -17.4767    5.3787 O   0  0  0  0  0  0  0  0  0  0  0  0
   18.3160  -18.2443    6.7246 N   0  0  0  0  0  0  0  0  0  0  0  0
   19.3310  -19.1085    7.3558 C   0  0  1  0  0  0  0  0  0  0  0  0
   19.8815  -18.3721    8.5788 C   0  0  0  0  0  0  0  0  0  0  0  0
   18.8587  -18.2418    9.6806 C   0  0  0  0  0  0  0  0  0  0  0  0
   19.5584  -17.6119   10.8236 C   0  0  0  0  0  0  0  0  0  0  0  0
   20.7554  -17.8713   11.0376 O   0  0  0  0  0  0  0  0  0  0  0  0
   18.6922  -20.3927    7.6907 C   0  0  0  0  0  0  0  0  0  0  0  0
   19.3436  -21.5119    8.1705 O   0  0  0  0  0  0  0  0  0  0  0  0
   18.8749  -16.7423   11.6466 O   0  0  0  0  0  0  0  0  0  0  0  0
   17.4349  -20.5217    7.5375 O   0  0  0  0  0  0  0  0  0  0  0  0
  2  1  1  0
  3  2  1  0
  3  4  1  6
  5  3  1  0
  5  6  1  1
  7  5  1  0
  8  7  2  0
  9 10  1  0
 10 11  1  0
 11 13  1  0
 11 12  1  6
 13 14  1  6
 14  7  1  0
 15 17  1  0
 15 13  1  0
 16 15  2  0
 18 23  1  0
 18 17  1  0
 18 19  1  1
 19 20  1  0
 20 21  1  0
 21 22  2  0
 23 24  1  0
 25 21  1  0
 26 23  2  0
M  END
$$$$
