IIE.pdb
     RDKit          3D

 26 25  0  0  1  0  0  0  0  0999 V2000
   17.5217  -12.1470  -21.5400 C   0  0  0  0  0  0  0  0  0  0  0  0
   18.9184  -11.8526  -21.0789 C   0  0  0  0  0  0  0  0  0  0  0  0
   19.0296  -11.2501  -19.7166 C   0  0  2  0  0  0  0  0  0  0  0  0
   18.2831   -9.9113  -19.6694 C   0  0  0  0  0  0  0  0  0  0  0  0
   20.4051  -11.0365  -19.2069 C   0  0  2  0  0  0  0  0  0  0  0  0
   21.2368  -12.2110  -19.3706 N   0  0  0  0  0  0  0  0  0  0  0  0
   20.4999  -10.5120  -17.8149 C   0  0  0  0  0  0  0  0  0  0  0  0
   19.4008  -10.1978  -17.2766 O   0  0  0  0  0  0  0  0  0  0  0  0
   23.5781  -12.9396  -14.1772 C   0  0  0  0  0  0  0  0  0  0  0  0
   22.4519  -12.1782  -14.8916 C   0  0  0  0  0  0  0  0  0  0  0  0
   22.7790  -10.7097  -14.9778 C   0  0  2  0  0  0  0  0  0  0  0  0
   23.1012  -10.2431  -13.5892 C   0  0  0  0  0  0  0  0  0  0  0  0
   21.8950   -9.8840  -15.7995 C   0  0  2  0  0  0  0  0  0  0  0  0
   21.7411  -10.3834  -17.1604 N   0  0  0  0  0  0  0  0  0  0  0  0
   22.0455   -8.4309  -15.8482 C   0  0  0  0  0  0  0  0  0  0  0  0
   22.9938   -7.9578  -16.5348 O   0  0  0  0  0  0  0  0  0  0  0  0
   21.2344   -7.4648  -15.2054 N   0  0  0  0  0  0  0  0  0  0  0  0
   21.5727   -6.0429  -15.4036 C   0  0  1  0  0  0  0  0  0  0  0  0
   20.3352   -5.3380  -15.9627 C   0  0  0  0  0  0  0  0  0  0  0  0
   20.4980   -3.8385  -16.0070 C   0  0  0  0  0  0  0  0  0  0  0  0
   19.2178   -3.2972  -16.5178 C   0  0  0  0  0  0  0  0  0  0  0  0
   18.6516   -3.8463  -17.4789 O   0  0  0  0  0  0  0  0  0  0  0  0
   22.0178   -5.4954  -14.1106 C   0  0  0  0  0  0  0  0  0  0  0  0
   22.7951   -4.3664  -13.9422 O   0  0  0  0  0  0  0  0  0  0  0  0
   18.6629   -2.1833  -15.9247 O   0  0  0  0  0  0  0  0  0  0  0  0
   21.6788   -6.0852  -13.0345 O   0  0  0  0  0  0  0  0  0  0  0  0
  2  1  1  0
  3  2  1  0
  3  4  1  6
  5  3  1  0
  5  6  1  1
  7  5  1  0
  8  7  2  0
  9 10  1  0
 10 11  1  0
 11 13  1  0
 11 12  1  1
 13 14  1  6
 14  7  1  0
 15 17  1  0
 15 13  1  0
 16 15  2  0
 18 23  1  0
 18 17  1  0
 18 19  1  1
 19 20  1  0
 20 21  1  0
 21 22  2  0
 23 24  1  0
 25 21  1  0
 26 23  2  0
M  END
$$$$
