IIE.pdb
     RDKit          3D

 26 25  0  0  1  0  0  0  0  0999 V2000
   23.7726   -8.3933  -23.0561 C   0  0  0  0  0  0  0  0  0  0  0  0
   23.8906   -9.2758  -21.8487 C   0  0  0  0  0  0  0  0  0  0  0  0
   23.0413   -8.8845  -20.6840 C   0  0  2  0  0  0  0  0  0  0  0  0
   23.3992   -7.4663  -20.2230 C   0  0  0  0  0  0  0  0  0  0  0  0
   23.0909   -9.7849  -19.5074 C   0  0  2  0  0  0  0  0  0  0  0  0
   22.8212  -11.1629  -19.8625 N   0  0  0  0  0  0  0  0  0  0  0  0
   22.2592   -9.3668  -18.3433 C   0  0  0  0  0  0  0  0  0  0  0  0
   21.0166   -9.5596  -18.4660 O   0  0  0  0  0  0  0  0  0  0  0  0
   22.7928  -11.1239  -13.5102 C   0  0  0  0  0  0  0  0  0  0  0  0
   22.2233  -10.5180  -14.8014 C   0  0  0  0  0  0  0  0  0  0  0  0
   22.3974   -9.0212  -14.8039 C   0  0  2  0  0  0  0  0  0  0  0  0
   21.8147   -8.5030  -13.5227 C   0  0  0  0  0  0  0  0  0  0  0  0
   22.0732   -8.3214  -16.0464 C   0  0  2  0  0  0  0  0  0  0  0  0
   22.8389   -8.7975  -17.1920 N   0  0  0  0  0  0  0  0  0  0  0  0
   22.0105   -6.8620  -16.0991 C   0  0  0  0  0  0  0  0  0  0  0  0
   23.0969   -6.2214  -16.0380 O   0  0  0  0  0  0  0  0  0  0  0  0
   20.8502   -6.0593  -16.2165 N   0  0  0  0  0  0  0  0  0  0  0  0
   21.0308   -4.5967  -16.2791 C   0  0  1  0  0  0  0  0  0  0  0  0
   20.1116   -4.0554  -17.3759 C   0  0  0  0  0  0  0  0  0  0  0  0
   20.1047   -2.5474  -17.4285 C   0  0  0  0  0  0  0  0  0  0  0  0
   19.0980   -2.1725  -18.4477 C   0  0  0  0  0  0  0  0  0  0  0  0
   18.4068   -1.1510  -18.2906 O   0  0  0  0  0  0  0  0  0  0  0  0
   20.7332   -4.0429  -14.9470 C   0  0  0  0  0  0  0  0  0  0  0  0
   21.2948   -2.9019  -14.4088 O   0  0  0  0  0  0  0  0  0  0  0  0
   18.9316   -2.9625  -19.5652 O   0  0  0  0  0  0  0  0  0  0  0  0
   19.8935   -4.6386  -14.1981 O   0  0  0  0  0  0  0  0  0  0  0  0
  2  1  1  0
  3  2  1  0
  3  4  1  1
  5  3  1  0
  5  6  1  6
  7  5  1  0
  8  7  2  0
  9 10  1  0
 10 11  1  0
 11 13  1  0
 11 12  1  1
 13 14  1  6
 14  7  1  0
 15 17  1  0
 15 13  1  0
 16 15  2  0
 18 23  1  0
 18 17  1  0
 18 19  1  6
 19 20  1  0
 20 21  1  0
 21 22  2  0
 23 24  1  0
 25 21  1  0
 26 23  2  0
M  END
$$$$
