IIE.pdb
     RDKit          3D

 26 25  0  0  1  0  0  0  0  0999 V2000
   18.4300  -14.4389  -20.0261 C   0  0  0  0  0  0  0  0  0  0  0  0
   19.7724  -14.7594  -19.4383 C   0  0  0  0  0  0  0  0  0  0  0  0
   20.2439  -13.8262  -18.3715 C   0  0  2  0  0  0  0  0  0  0  0  0
   20.3135  -12.3944  -18.9163 C   0  0  0  0  0  0  0  0  0  0  0  0
   21.5483  -14.1527  -17.7475 C   0  0  2  0  0  0  0  0  0  0  0  0
   21.5965  -15.5176  -17.2650 N   0  0  0  0  0  0  0  0  0  0  0  0
   22.0125  -13.2039  -16.6959 C   0  0  0  0  0  0  0  0  0  0  0  0
   21.4700  -13.3406  -15.5629 O   0  0  0  0  0  0  0  0  0  0  0  0
   27.0615  -12.3265  -15.3415 C   0  0  0  0  0  0  0  0  0  0  0  0
   25.5340  -12.4833  -15.3750 C   0  0  0  0  0  0  0  0  0  0  0  0
   24.8809  -11.1992  -15.8169 C   0  0  2  0  0  0  0  0  0  0  0  0
   25.4726  -10.0928  -14.9950 C   0  0  0  0  0  0  0  0  0  0  0  0
   23.4306  -11.2264  -16.0021 C   0  0  2  0  0  0  0  0  0  0  0  0
   22.9920  -12.2278  -16.9665 N   0  0  0  0  0  0  0  0  0  0  0  0
   22.6729   -9.9968  -16.2267 C   0  0  0  0  0  0  0  0  0  0  0  0
   22.7293   -9.4690  -17.3724 O   0  0  0  0  0  0  0  0  0  0  0  0
   21.8603   -9.3100  -15.2927 N   0  0  0  0  0  0  0  0  0  0  0  0
   21.1995   -8.0693  -15.7394 C   0  0  1  0  0  0  0  0  0  0  0  0
   19.6969   -8.2216  -15.4944 C   0  0  0  0  0  0  0  0  0  0  0  0
   18.9308   -6.9622  -15.8167 C   0  0  0  0  0  0  0  0  0  0  0  0
   17.5066   -7.2616  -15.5432 C   0  0  0  0  0  0  0  0  0  0  0  0
   17.1803   -8.3793  -15.1071 O   0  0  0  0  0  0  0  0  0  0  0  0
   21.7965   -6.9432  -15.0011 C   0  0  0  0  0  0  0  0  0  0  0  0
   21.7360   -5.6156  -15.3764 O   0  0  0  0  0  0  0  0  0  0  0  0
   16.5494   -6.2976  -15.7779 O   0  0  0  0  0  0  0  0  0  0  0  0
   22.4310   -7.1727  -13.9215 O   0  0  0  0  0  0  0  0  0  0  0  0
  2  1  1  0
  3  2  1  0
  3  4  1  6
  5  3  1  0
  5  6  1  1
  7  5  1  0
  8  7  2  0
  9 10  1  0
 10 11  1  0
 11 13  1  0
 11 12  1  1
 13 14  1  6
 14  7  1  0
 15 17  1  0
 15 13  1  0
 16 15  2  0
 18 23  1  0
 18 17  1  0
 18 19  1  1
 19 20  1  0
 20 21  1  0
 21 22  2  0
 23 24  1  0
 25 21  1  0
 26 23  2  0
M  END
$$$$
