IIE.pdb
     RDKit          3D

 26 25  0  0  1  0  0  0  0  0999 V2000
   27.6738  -18.0612  -17.8803 C   0  0  0  0  0  0  0  0  0  0  0  0
   28.1153  -18.9835  -16.7827 C   0  0  0  0  0  0  0  0  0  0  0  0
   27.0268  -19.4867  -15.8922 C   0  0  2  0  0  0  0  0  0  0  0  0
   26.2912  -18.3090  -15.2412 C   0  0  0  0  0  0  0  0  0  0  0  0
   27.4393  -20.4281  -14.8240 C   0  0  2  0  0  0  0  0  0  0  0  0
   28.1677  -21.5647  -15.3490 N   0  0  0  0  0  0  0  0  0  0  0  0
   26.3525  -20.8749  -13.9070 C   0  0  0  0  0  0  0  0  0  0  0  0
   25.6486  -21.8366  -14.3265 O   0  0  0  0  0  0  0  0  0  0  0  0
   27.2918  -20.6005   -8.5788 C   0  0  0  0  0  0  0  0  0  0  0  0
   26.7687  -21.1942   -9.8951 C   0  0  0  0  0  0  0  0  0  0  0  0
   25.4999  -20.5010  -10.3198 C   0  0  2  0  0  0  0  0  0  0  0  0
   24.4744  -20.7584   -9.2560 C   0  0  0  0  0  0  0  0  0  0  0  0
   25.1016  -20.6528  -11.7186 C   0  0  2  0  0  0  0  0  0  0  0  0
   26.1410  -20.2541  -12.6598 N   0  0  0  0  0  0  0  0  0  0  0  0
   23.8166  -20.1481  -12.1989 C   0  0  0  0  0  0  0  0  0  0  0  0
   23.7224  -18.9139  -12.4478 O   0  0  0  0  0  0  0  0  0  0  0  0
   22.6357  -20.8949  -12.4276 N   0  0  0  0  0  0  0  0  0  0  0  0
   21.4488  -20.1692  -12.9176 C   0  0  1  0  0  0  0  0  0  0  0  0
   21.2280  -20.5609  -14.3801 C   0  0  0  0  0  0  0  0  0  0  0  0
   19.9460  -19.9953  -14.9400 C   0  0  0  0  0  0  0  0  0  0  0  0
   19.7906  -20.5793  -16.2919 C   0  0  0  0  0  0  0  0  0  0  0  0
   19.0075  -21.5282  -16.4714 O   0  0  0  0  0  0  0  0  0  0  0  0
   20.3119  -20.5136  -12.0467 C   0  0  0  0  0  0  0  0  0  0  0  0
   19.2029  -19.7213  -11.8242 O   0  0  0  0  0  0  0  0  0  0  0  0
   20.5196  -20.0676  -17.3441 O   0  0  0  0  0  0  0  0  0  0  0  0
   20.3154  -21.6266  -11.4286 O   0  0  0  0  0  0  0  0  0  0  0  0
  2  1  1  0
  3  2  1  0
  3  4  1  1
  5  3  1  0
  5  6  1  6
  7  5  1  0
  8  7  2  0
  9 10  1  0
 10 11  1  0
 11 13  1  0
 11 12  1  1
 13 14  1  6
 14  7  1  0
 15 17  1  0
 15 13  1  0
 16 15  2  0
 18 23  1  0
 18 17  1  0
 18 19  1  6
 19 20  1  0
 20 21  1  0
 21 22  2  0
 23 24  1  0
 25 21  1  0
 26 23  2  0
M  END
$$$$
