IIE.pdb
     RDKit          3D

 26 25  0  0  1  0  0  0  0  0999 V2000
   16.6585  -15.1179  -19.0688 C   0  0  0  0  0  0  0  0  0  0  0  0
   18.0380  -15.6585  -18.8339 C   0  0  0  0  0  0  0  0  0  0  0  0
   18.8111  -14.9899  -17.7448 C   0  0  2  0  0  0  0  0  0  0  0  0
   17.9593  -14.8985  -16.4729 C   0  0  0  0  0  0  0  0  0  0  0  0
   19.3383  -13.6389  -18.0523 C   0  0  2  0  0  0  0  0  0  0  0  0
   20.1482  -13.6290  -19.2531 N   0  0  0  0  0  0  0  0  0  0  0  0
   20.0455  -12.9553  -16.9324 C   0  0  0  0  0  0  0  0  0  0  0  0
   19.4855  -13.0413  -15.8030 O   0  0  0  0  0  0  0  0  0  0  0  0
   25.5241  -11.6243  -14.7483 C   0  0  0  0  0  0  0  0  0  0  0  0
   24.1023  -11.0621  -14.8932 C   0  0  0  0  0  0  0  0  0  0  0  0
   23.3276  -11.8440  -15.9224 C   0  0  2  0  0  0  0  0  0  0  0  0
   24.2025  -11.9750  -17.1336 C   0  0  0  0  0  0  0  0  0  0  0  0
   21.9264  -11.4727  -16.1157 C   0  0  2  0  0  0  0  0  0  0  0  0
   21.2566  -12.2655  -17.1395 N   0  0  0  0  0  0  0  0  0  0  0  0
   21.5282  -10.0749  -16.2711 C   0  0  0  0  0  0  0  0  0  0  0  0
   21.7576   -9.5149  -17.3793 O   0  0  0  0  0  0  0  0  0  0  0  0
   20.8976   -9.2528  -15.3063 N   0  0  0  0  0  0  0  0  0  0  0  0
   20.6264   -7.8498  -15.6717 C   0  0  1  0  0  0  0  0  0  0  0  0
   19.1117   -7.6836  -15.8097 C   0  0  0  0  0  0  0  0  0  0  0  0
   18.7058   -6.2425  -15.9982 C   0  0  0  0  0  0  0  0  0  0  0  0
   17.2251   -6.2264  -16.0067 C   0  0  0  0  0  0  0  0  0  0  0  0
   16.6172   -5.1516  -16.1526 O   0  0  0  0  0  0  0  0  0  0  0  0
   21.2125   -6.9862  -14.6324 C   0  0  0  0  0  0  0  0  0  0  0  0
   21.5166   -5.6471  -14.7796 O   0  0  0  0  0  0  0  0  0  0  0  0
   16.5290   -7.4059  -15.8491 O   0  0  0  0  0  0  0  0  0  0  0  0
   21.4767   -7.4793  -13.4888 O   0  0  0  0  0  0  0  0  0  0  0  0
  2  1  1  0
  3  2  1  0
  3  4  1  1
  5  3  1  0
  5  6  1  6
  7  5  1  0
  8  7  2  0
  9 10  1  0
 10 11  1  0
 11 13  1  0
 11 12  1  6
 13 14  1  6
 14  7  1  0
 15 17  1  0
 15 13  1  0
 16 15  2  0
 18 23  1  0
 18 17  1  0
 18 19  1  1
 19 20  1  0
 20 21  1  0
 21 22  2  0
 23 24  1  0
 25 21  1  0
 26 23  2  0
M  END
$$$$
