IIE.pdb
     RDKit          3D

 26 25  0  0  1  0  0  0  0  0999 V2000
   15.4467  -13.3416  -19.1977 C   0  0  0  0  0  0  0  0  0  0  0  0
   16.8164  -13.8099  -18.8042 C   0  0  0  0  0  0  0  0  0  0  0  0
   17.4974  -12.9903  -17.7575 C   0  0  2  0  0  0  0  0  0  0  0  0
   17.6513  -11.5423  -18.2388 C   0  0  0  0  0  0  0  0  0  0  0  0
   18.8234  -13.4764  -17.3071 C   0  0  2  0  0  0  0  0  0  0  0  0
   18.7822  -14.8606  -16.8824 N   0  0  0  0  0  0  0  0  0  0  0  0
   19.5046  -12.6307  -16.2861 C   0  0  0  0  0  0  0  0  0  0  0  0
   19.0215  -12.6913  -15.1202 O   0  0  0  0  0  0  0  0  0  0  0  0
   24.3761  -12.8435  -14.6142 C   0  0  0  0  0  0  0  0  0  0  0  0
   22.8700  -12.5796  -14.7586 C   0  0  0  0  0  0  0  0  0  0  0  0
   22.6278  -11.2293  -15.3820 C   0  0  2  0  0  0  0  0  0  0  0  0
   23.4510  -10.2332  -14.6206 C   0  0  0  0  0  0  0  0  0  0  0  0
   21.2412  -10.8872  -15.6969 C   0  0  2  0  0  0  0  0  0  0  0  0
   20.6119  -11.8252  -16.6185 N   0  0  0  0  0  0  0  0  0  0  0  0
   20.8658   -9.5284  -16.0829 C   0  0  0  0  0  0  0  0  0  0  0  0
   21.2716   -9.0976  -17.1983 O   0  0  0  0  0  0  0  0  0  0  0  0
   20.0796   -8.6145  -15.3405 N   0  0  0  0  0  0  0  0  0  0  0  0
   19.8957   -7.2597  -15.8939 C   0  0  1  0  0  0  0  0  0  0  0  0
   18.4620   -6.8186  -15.5923 C   0  0  0  0  0  0  0  0  0  0  0  0
   18.2371   -5.3551  -15.8829 C   0  0  0  0  0  0  0  0  0  0  0  0
   16.8376   -5.0655  -15.4951 C   0  0  0  0  0  0  0  0  0  0  0  0
   16.1251   -5.9685  -15.0232 O   0  0  0  0  0  0  0  0  0  0  0  0
   20.9122   -6.3795  -15.2927 C   0  0  0  0  0  0  0  0  0  0  0  0
   21.5269   -6.5802  -14.0725 O   0  0  0  0  0  0  0  0  0  0  0  0
   16.3322   -3.7940  -15.6634 O   0  0  0  0  0  0  0  0  0  0  0  0
   21.2808   -5.3345  -15.9197 O   0  0  0  0  0  0  0  0  0  0  0  0
  2  1  1  0
  3  2  1  0
  3  4  1  6
  5  3  1  0
  5  6  1  1
  7  5  1  0
  8  7  2  0
  9 10  1  0
 10 11  1  0
 11 13  1  0
 11 12  1  1
 13 14  1  6
 14  7  1  0
 15 17  1  0
 15 13  1  0
 16 15  2  0
 18 23  1  0
 18 17  1  0
 18 19  1  1
 19 20  1  0
 20 21  1  0
 21 22  2  0
 23 24  1  0
 25 21  1  0
 26 23  2  0
M  END
$$$$
