IIE.pdb
     RDKit          3D

 26 25  0  0  1  0  0  0  0  0999 V2000
   29.9896  -21.8739  -16.8256 C   0  0  0  0  0  0  0  0  0  0  0  0
   28.6204  -21.2613  -16.8112 C   0  0  0  0  0  0  0  0  0  0  0  0
   27.7439  -21.6785  -15.6759 C   0  0  2  0  0  0  0  0  0  0  0  0
   27.5581  -23.2008  -15.6847 C   0  0  0  0  0  0  0  0  0  0  0  0
   26.4053  -21.0446  -15.6167 C   0  0  2  0  0  0  0  0  0  0  0  0
   26.4822  -19.5994  -15.6746 N   0  0  0  0  0  0  0  0  0  0  0  0
   25.5367  -21.4825  -14.4874 C   0  0  0  0  0  0  0  0  0  0  0  0
   25.3058  -22.7234  -14.4289 O   0  0  0  0  0  0  0  0  0  0  0  0
   25.9498  -22.1246  -10.0054 C   0  0  0  0  0  0  0  0  0  0  0  0
   25.9254  -20.7807  -10.7484 C   0  0  0  0  0  0  0  0  0  0  0  0
   24.5209  -20.4374  -11.1730 C   0  0  2  0  0  0  0  0  0  0  0  0
   23.6252  -20.6935   -9.9976 C   0  0  0  0  0  0  0  0  0  0  0  0
   24.0939  -20.9147  -12.4877 C   0  0  2  0  0  0  0  0  0  0  0  0
   25.0184  -20.5594  -13.5574 N   0  0  0  0  0  0  0  0  0  0  0  0
   22.7270  -20.7057  -12.9616 C   0  0  0  0  0  0  0  0  0  0  0  0
   22.3036  -19.5186  -13.0391 O   0  0  0  0  0  0  0  0  0  0  0  0
   21.7977  -21.6977  -13.3573 N   0  0  0  0  0  0  0  0  0  0  0  0
   20.4789  -21.2488  -13.8417 C   0  0  1  0  0  0  0  0  0  0  0  0
   20.1499  -22.0374  -15.1108 C   0  0  0  0  0  0  0  0  0  0  0  0
   18.7986  -21.6777  -15.6778 C   0  0  0  0  0  0  0  0  0  0  0  0
   18.6162  -22.5203  -16.8817 C   0  0  0  0  0  0  0  0  0  0  0  0
   19.5936  -23.0980  -17.3884 O   0  0  0  0  0  0  0  0  0  0  0  0
   19.5009  -21.4560  -12.7599 C   0  0  0  0  0  0  0  0  0  0  0  0
   18.3466  -20.7219  -12.5704 O   0  0  0  0  0  0  0  0  0  0  0  0
   17.3611  -22.6562  -17.4357 O   0  0  0  0  0  0  0  0  0  0  0  0
   19.7020  -22.3794  -11.9068 O   0  0  0  0  0  0  0  0  0  0  0  0
  2  1  1  0
  3  2  1  0
  3  4  1  6
  5  3  1  0
  5  6  1  1
  7  5  1  0
  8  7  2  0
  9 10  1  0
 10 11  1  0
 11 13  1  0
 11 12  1  1
 13 14  1  6
 14  7  1  0
 15 17  1  0
 15 13  1  0
 16 15  2  0
 18 23  1  0
 18 17  1  0
 18 19  1  6
 19 20  1  0
 20 21  1  0
 21 22  2  0
 23 24  1  0
 25 21  1  0
 26 23  2  0
M  END
$$$$
