IIE.pdb
     RDKit          3D

 26 25  0  0  1  0  0  0  0  0999 V2000
   28.2591  -17.3258  -17.3578 C   0  0  0  0  0  0  0  0  0  0  0  0
   28.6525  -18.4054  -16.3934 C   0  0  0  0  0  0  0  0  0  0  0  0
   27.5246  -19.0410  -15.6485 C   0  0  2  0  0  0  0  0  0  0  0  0
   26.7514  -17.9798  -14.8561 C   0  0  0  0  0  0  0  0  0  0  0  0
   27.8896  -20.1408  -14.7241 C   0  0  2  0  0  0  0  0  0  0  0  0
   28.6072  -21.2041  -15.3966 N   0  0  0  0  0  0  0  0  0  0  0  0
   26.7704  -20.6923  -13.9086 C   0  0  0  0  0  0  0  0  0  0  0  0
   26.1335  -21.6478  -14.4357 O   0  0  0  0  0  0  0  0  0  0  0  0
   27.2788  -20.5844   -8.4398 C   0  0  0  0  0  0  0  0  0  0  0  0
   26.9496  -21.1336   -9.8358 C   0  0  0  0  0  0  0  0  0  0  0  0
   25.6736  -20.5235  -10.3559 C   0  0  2  0  0  0  0  0  0  0  0  0
   24.5876  -20.8614   -9.3782 C   0  0  0  0  0  0  0  0  0  0  0  0
   25.3980  -20.6870  -11.7827 C   0  0  2  0  0  0  0  0  0  0  0  0
   26.4600  -20.1700  -12.6372 N   0  0  0  0  0  0  0  0  0  0  0  0
   24.1087  -20.3020  -12.3536 C   0  0  0  0  0  0  0  0  0  0  0  0
   23.8912  -19.0733  -12.5466 O   0  0  0  0  0  0  0  0  0  0  0  0
   23.0483  -21.1618  -12.7289 N   0  0  0  0  0  0  0  0  0  0  0  0
   21.8691  -20.5557  -13.3752 C   0  0  1  0  0  0  0  0  0  0  0  0
   21.5192  -21.3995  -14.6026 C   0  0  0  0  0  0  0  0  0  0  0  0
   20.2062  -20.9928  -15.2252 C   0  0  0  0  0  0  0  0  0  0  0  0
   19.9737  -21.9270  -16.3504 C   0  0  0  0  0  0  0  0  0  0  0  0
   20.8229  -22.7933  -16.6230 O   0  0  0  0  0  0  0  0  0  0  0  0
   20.7832  -20.4988  -12.3816 C   0  0  0  0  0  0  0  0  0  0  0  0
   19.6933  -19.6521  -12.4318 O   0  0  0  0  0  0  0  0  0  0  0  0
   18.8157  -21.8273  -17.0918 O   0  0  0  0  0  0  0  0  0  0  0  0
   20.8170  -21.2794  -11.3765 O   0  0  0  0  0  0  0  0  0  0  0  0
  2  1  1  0
  3  2  1  0
  3  4  1  1
  5  3  1  0
  5  6  1  6
  7  5  1  0
  8  7  2  0
  9 10  1  0
 10 11  1  0
 11 13  1  0
 11 12  1  1
 13 14  1  6
 14  7  1  0
 15 17  1  0
 15 13  1  0
 16 15  2  0
 18 23  1  0
 18 17  1  0
 18 19  1  6
 19 20  1  0
 20 21  1  0
 21 22  2  0
 23 24  1  0
 25 21  1  0
 26 23  2  0
M  END
$$$$
