SFQ.pdb
     RDKit          3D

 27 27  0  0  1  0  0  0  0  0999 V2000
    9.7579  -18.5100   20.7973 O   0  0  0  0  0  0  0  0  0  0  0  0
    8.8791  -17.7732   20.0083 C   0  0  0  0  0  0  0  0  0  0  0  0
    9.3547  -16.3433   19.8709 C   0  0  2  0  0  0  0  0  0  0  0  0
   10.6585  -16.3044   19.2795 N   0  0  0  0  0  0  0  0  0  0  0  0
    9.4309  -15.7242   21.2208 C   0  0  0  0  0  0  0  0  0  0  0  0
   10.5496  -15.5718   21.8161 O   0  0  0  0  0  0  0  0  0  0  0  0
    8.2750  -15.2679   21.9259 N   0  0  0  0  0  0  0  0  0  0  0  0
    8.3560  -14.6526   23.2304 C   0  0  1  0  0  0  0  0  0  0  0  0
    7.0393  -14.0159   23.6157 C   0  0  0  0  0  0  0  0  0  0  0  0
    7.0823  -13.3570   24.9244 C   0  0  0  0  0  0  0  0  0  0  0  0
    7.9783  -12.3470   25.1761 C   0  0  0  0  0  0  0  0  0  0  0  0
    7.9990  -11.7375   26.4271 C   0  0  0  0  0  0  0  0  0  0  0  0
    7.1345  -12.1236   27.4339 C   0  0  0  0  0  0  0  0  0  0  0  0
    6.2347  -13.1387   27.1794 C   0  0  0  0  0  0  0  0  0  0  0  0
    6.2172  -13.7440   25.9305 C   0  0  0  0  0  0  0  0  0  0  0  0
    8.6316  -15.7195   24.2237 C   0  0  0  0  0  0  0  0  0  0  0  0
    8.0174  -16.8064   24.1105 O   0  0  0  0  0  0  0  0  0  0  0  0
   13.2359  -18.5754   23.6923 N   0  0  0  0  0  0  0  0  0  0  0  0
   11.8513  -18.8468   23.7662 C   0  0  0  0  0  0  0  0  0  0  0  0
   11.2565  -19.2561   22.7419 O   0  0  0  0  0  0  0  0  0  0  0  0
   11.0379  -18.6721   25.0152 C   0  0  0  0  0  0  0  0  0  0  0  0
   11.2081  -17.3125   25.5949 C   0  0  0  0  0  0  0  0  0  0  0  0
    9.9038  -16.7534   26.0713 C   0  0  2  0  0  0  0  0  0  0  0  0
    9.5501  -15.5618   25.2830 N   0  0  0  0  0  0  0  0  0  0  0  0
    9.9477  -16.3252   27.4829 C   0  0  0  0  0  0  0  0  0  0  0  0
   10.0245  -15.0727   27.7226 O   0  0  0  0  0  0  0  0  0  0  0  0
    9.9068  -17.2188   28.5641 O   0  0  0  0  0  0  0  0  0  0  0  0
  2  1  1  0
  3  4  1  1
  3  2  1  0
  5  3  1  0
  6  5  2  0
  7  5  1  0
  8 16  1  0
  8  7  1  0
  8  9  1  1
 10  9  1  0
 11 10  2  0
 12 11  1  0
 13 12  2  0
 13 14  1  0
 14 15  2  0
 15 10  1  0
 16 17  2  0
 19 21  1  0
 19 18  1  0
 20 19  2  0
 22 21  1  0
 23 22  1  6
 24 23  1  0
 24 16  1  0
 25 27  1  0
 25 23  1  0
 26 25  2  0
M  END
$$$$
