SFQ.pdb
     RDKit          3D

 27 27  0  0  1  0  0  0  0  0999 V2000
    9.1132  -18.5721   21.2627 O   0  0  0  0  0  0  0  0  0  0  0  0
    9.9976  -17.9839   20.3628 C   0  0  0  0  0  0  0  0  0  0  0  0
    9.6297  -16.5360   20.1210 C   0  0  2  0  0  0  0  0  0  0  0  0
   10.5770  -15.9195   19.2415 N   0  0  0  0  0  0  0  0  0  0  0  0
    9.6461  -15.8071   21.4171 C   0  0  0  0  0  0  0  0  0  0  0  0
   10.7406  -15.4023   21.9342 O   0  0  0  0  0  0  0  0  0  0  0  0
    8.4567  -15.5181   22.1540 N   0  0  0  0  0  0  0  0  0  0  0  0
    8.4741  -14.7763   23.3935 C   0  0  1  0  0  0  0  0  0  0  0  0
    7.0861  -14.3059   23.7671 C   0  0  0  0  0  0  0  0  0  0  0  0
    7.0661  -13.4867   24.9825 C   0  0  0  0  0  0  0  0  0  0  0  0
    7.7811  -12.3163   25.0556 C   0  0  0  0  0  0  0  0  0  0  0  0
    7.7455  -11.5565   26.2211 C   0  0  0  0  0  0  0  0  0  0  0  0
    7.0034  -11.9502   27.3186 C   0  0  0  0  0  0  0  0  0  0  0  0
    6.2856  -13.1266   27.2435 C   0  0  0  0  0  0  0  0  0  0  0  0
    6.3237  -13.8815   26.0794 C   0  0  0  0  0  0  0  0  0  0  0  0
    8.9284  -15.6919   24.4688 C   0  0  0  0  0  0  0  0  0  0  0  0
    8.3649  -16.8066   24.5741 O   0  0  0  0  0  0  0  0  0  0  0  0
   14.2036  -17.7813   23.4958 N   0  0  0  0  0  0  0  0  0  0  0  0
   13.7364  -16.7976   24.3960 C   0  0  0  0  0  0  0  0  0  0  0  0
   14.5693  -16.1235   25.0459 O   0  0  0  0  0  0  0  0  0  0  0  0
   12.2820  -16.5069   24.6244 C   0  0  0  0  0  0  0  0  0  0  0  0
   11.9169  -16.6306   26.0614 C   0  0  0  0  0  0  0  0  0  0  0  0
   10.4508  -16.4156   26.2741 C   0  0  2  0  0  0  0  0  0  0  0  0
    9.9614  -15.3613   25.3712 N   0  0  0  0  0  0  0  0  0  0  0  0
   10.1316  -15.9752   27.6461 C   0  0  0  0  0  0  0  0  0  0  0  0
    9.6824  -14.7893   27.8008 O   0  0  0  0  0  0  0  0  0  0  0  0
   10.2938  -16.7894   28.7774 O   0  0  0  0  0  0  0  0  0  0  0  0
  2  1  1  0
  3  4  1  6
  3  2  1  0
  5  3  1  0
  6  5  2  0
  7  5  1  0
  8 16  1  0
  8  7  1  0
  8  9  1  1
 10  9  1  0
 11 10  2  0
 12 11  1  0
 13 12  2  0
 13 14  1  0
 14 15  2  0
 15 10  1  0
 16 17  2  0
 19 21  1  0
 19 18  1  0
 20 19  2  0
 22 21  1  0
 23 22  1  1
 24 23  1  0
 24 16  1  0
 25 27  1  0
 25 23  1  0
 26 25  2  0
M  END
$$$$
