SFQ.pdb
     RDKit          3D

 27 27  0  0  1  0  0  0  0  0999 V2000
   10.6903  -18.7154   21.3786 O   0  0  0  0  0  0  0  0  0  0  0  0
    9.4801  -18.3973   20.7687 C   0  0  0  0  0  0  0  0  0  0  0  0
    9.4526  -16.9396   20.3636 C   0  0  2  0  0  0  0  0  0  0  0  0
   10.5796  -16.6290   19.5364 N   0  0  0  0  0  0  0  0  0  0  0  0
    9.5174  -16.0940   21.5852 C   0  0  0  0  0  0  0  0  0  0  0  0
   10.6060  -15.5322   21.9435 O   0  0  0  0  0  0  0  0  0  0  0  0
    8.3832  -15.8605   22.4221 N   0  0  0  0  0  0  0  0  0  0  0  0
    8.4391  -14.9989   23.5803 C   0  0  1  0  0  0  0  0  0  0  0  0
    7.0510  -14.6139   24.0411 C   0  0  0  0  0  0  0  0  0  0  0  0
    7.0602  -13.7066   25.1924 C   0  0  0  0  0  0  0  0  0  0  0  0
    6.3817  -14.0222   26.3440 C   0  0  0  0  0  0  0  0  0  0  0  0
    6.4060  -13.1437   27.4232 C   0  0  0  0  0  0  0  0  0  0  0  0
    7.1009  -11.9502   27.3685 C   0  0  0  0  0  0  0  0  0  0  0  0
    7.7822  -11.6345   26.2105 C   0  0  0  0  0  0  0  0  0  0  0  0
    7.7554  -12.5134   25.1365 C   0  0  0  0  0  0  0  0  0  0  0  0
    9.0707  -15.7593   24.6866 C   0  0  0  0  0  0  0  0  0  0  0  0
    8.6161  -16.8953   24.9589 O   0  0  0  0  0  0  0  0  0  0  0  0
   13.9999  -15.4826   24.0821 N   0  0  0  0  0  0  0  0  0  0  0  0
   13.9088  -16.7813   24.6309 C   0  0  0  0  0  0  0  0  0  0  0  0
   14.5651  -17.7108   24.1057 O   0  0  0  0  0  0  0  0  0  0  0  0
   13.0613  -17.1201   25.8222 C   0  0  0  0  0  0  0  0  0  0  0  0
   12.3174  -15.9325   26.3218 C   0  0  0  0  0  0  0  0  0  0  0  0
   10.8422  -16.1844   26.3544 C   0  0  2  0  0  0  0  0  0  0  0  0
   10.1542  -15.2594   25.4393 N   0  0  0  0  0  0  0  0  0  0  0  0
   10.2553  -15.9670   27.6910 C   0  0  0  0  0  0  0  0  0  0  0  0
   10.0457  -16.9930   28.4227 O   0  0  0  0  0  0  0  0  0  0  0  0
    9.9221  -14.6996   28.1928 O   0  0  0  0  0  0  0  0  0  0  0  0
  2  1  1  0
  3  4  1  6
  3  2  1  0
  5  3  1  0
  6  5  2  0
  7  5  1  0
  8 16  1  0
  8  7  1  0
  8  9  1  1
 10  9  1  0
 11 10  2  0
 12 11  1  0
 13 12  2  0
 13 14  1  0
 14 15  2  0
 15 10  1  0
 16 17  2  0
 19 21  1  0
 19 18  1  0
 20 19  2  0
 22 21  1  0
 23 22  1  1
 24 23  1  0
 24 16  1  0
 25 27  1  0
 25 23  1  0
 26 25  2  0
M  END
$$$$
