SFQ.pdb
     RDKit          3D

 27 27  0  0  1  0  0  0  0  0999 V2000
    9.0084  -15.7534   18.5252 O   0  0  0  0  0  0  0  0  0  0  0  0
    7.6526  -15.4384   18.5421 C   0  0  0  0  0  0  0  0  0  0  0  0
    7.4406  -14.0142   19.0074 C   0  0  2  0  0  0  0  0  0  0  0  0
    8.1488  -13.1010   18.1616 N   0  0  0  0  0  0  0  0  0  0  0  0
    7.9606  -13.8728   20.3934 C   0  0  0  0  0  0  0  0  0  0  0  0
    9.1436  -13.4482   20.6156 O   0  0  0  0  0  0  0  0  0  0  0  0
    7.1815  -14.1981   21.5460 N   0  0  0  0  0  0  0  0  0  0  0  0
    7.6575  -13.9742   22.8914 C   0  0  1  0  0  0  0  0  0  0  0  0
    6.5053  -13.8107   23.8574 C   0  0  0  0  0  0  0  0  0  0  0  0
    6.9370  -13.4319   25.2060 C   0  0  0  0  0  0  0  0  0  0  0  0
    7.0178  -12.1116   25.5754 C   0  0  0  0  0  0  0  0  0  0  0  0
    7.4306  -11.7780   26.8620 C   0  0  0  0  0  0  0  0  0  0  0  0
    7.7650  -12.7478   27.7883 C   0  0  0  0  0  0  0  0  0  0  0  0
    7.6833  -14.0741   27.4155 C   0  0  0  0  0  0  0  0  0  0  0  0
    7.2712  -14.4026   26.1314 C   0  0  0  0  0  0  0  0  0  0  0  0
    8.4148  -15.1773   23.3155 C   0  0  0  0  0  0  0  0  0  0  0  0
    7.9940  -16.3004   22.9508 O   0  0  0  0  0  0  0  0  0  0  0  0
   15.2917  -17.3176   23.9823 N   0  0  0  0  0  0  0  0  0  0  0  0
   14.1132  -16.8286   23.3754 C   0  0  0  0  0  0  0  0  0  0  0  0
   14.2096  -16.0932   22.3652 O   0  0  0  0  0  0  0  0  0  0  0  0
   12.7328  -17.1411   23.8745 C   0  0  0  0  0  0  0  0  0  0  0  0
   11.8114  -15.9863   23.6984 C   0  0  0  0  0  0  0  0  0  0  0  0
   10.4322  -16.3077   24.1834 C   0  0  2  0  0  0  0  0  0  0  0  0
    9.5808  -15.1095   24.1069 N   0  0  0  0  0  0  0  0  0  0  0  0
   10.4105  -16.7492   25.5914 C   0  0  0  0  0  0  0  0  0  0  0  0
    9.9482  -15.9370   26.4625 O   0  0  0  0  0  0  0  0  0  0  0  0
   10.8664  -18.0068   26.0151 O   0  0  0  0  0  0  0  0  0  0  0  0
  2  1  1  0
  3  4  1  6
  3  2  1  0
  5  3  1  0
  6  5  2  0
  7  5  1  0
  8 16  1  0
  8  7  1  0
  8  9  1  1
 10  9  1  0
 11 10  2  0
 12 11  1  0
 13 12  2  0
 13 14  1  0
 14 15  2  0
 15 10  1  0
 16 17  2  0
 19 21  1  0
 19 18  1  0
 20 19  2  0
 22 21  1  0
 23 22  1  1
 24 23  1  0
 24 16  1  0
 25 27  1  0
 25 23  1  0
 26 25  2  0
M  END
$$$$
