SFQ.pdb
     RDKit          3D

 27 27  0  0  1  0  0  0  0  0999 V2000
    9.6152  -19.0312   19.9453 O   0  0  0  0  0  0  0  0  0  0  0  0
    8.5877  -18.1276   20.2013 C   0  0  0  0  0  0  0  0  0  0  0  0
    9.0328  -16.7129   19.9003 C   0  0  2  0  0  0  0  0  0  0  0  0
   10.2999  -16.7185   19.2329 N   0  0  0  0  0  0  0  0  0  0  0  0
    9.1765  -15.9659   21.1781 C   0  0  0  0  0  0  0  0  0  0  0  0
   10.3012  -15.8902   21.7768 O   0  0  0  0  0  0  0  0  0  0  0  0
    8.0821  -15.2962   21.8067 N   0  0  0  0  0  0  0  0  0  0  0  0
    8.1961  -14.6779   23.1073 C   0  0  1  0  0  0  0  0  0  0  0  0
    6.9162  -13.9672   23.4872 C   0  0  0  0  0  0  0  0  0  0  0  0
    6.9865  -13.3235   24.8024 C   0  0  0  0  0  0  0  0  0  0  0  0
    6.2172  -13.7712   25.8483 C   0  0  0  0  0  0  0  0  0  0  0  0
    6.3023  -13.1429   27.0872 C   0  0  0  0  0  0  0  0  0  0  0  0
    7.1478  -12.0699   27.2972 C   0  0  0  0  0  0  0  0  0  0  0  0
    7.9202  -11.6212   26.2451 C   0  0  0  0  0  0  0  0  0  0  0  0
    7.8324  -12.2506   25.0111 C   0  0  0  0  0  0  0  0  0  0  0  0
    8.4120  -15.7518   24.1077 C   0  0  0  0  0  0  0  0  0  0  0  0
    7.7049  -16.7839   24.0299 O   0  0  0  0  0  0  0  0  0  0  0  0
   12.8409  -19.2092   24.0085 N   0  0  0  0  0  0  0  0  0  0  0  0
   12.2794  -19.6080   25.2421 C   0  0  0  0  0  0  0  0  0  0  0  0
   12.7300  -20.6281   25.8138 O   0  0  0  0  0  0  0  0  0  0  0  0
   11.1596  -18.8733   25.9192 C   0  0  0  0  0  0  0  0  0  0  0  0
   10.8108  -17.6197   25.1978 C   0  0  0  0  0  0  0  0  0  0  0  0
    9.7024  -16.8838   25.8838 C   0  0  2  0  0  0  0  0  0  0  0  0
    9.3739  -15.6595   25.1358 N   0  0  0  0  0  0  0  0  0  0  0  0
   10.0603  -16.4576   27.2507 C   0  0  0  0  0  0  0  0  0  0  0  0
   10.3101  -17.3679   28.1115 O   0  0  0  0  0  0  0  0  0  0  0  0
   10.1411  -15.1135   27.6458 O   0  0  0  0  0  0  0  0  0  0  0  0
  2  1  1  0
  3  4  1  1
  3  2  1  0
  5  3  1  0
  6  5  2  0
  7  5  1  0
  8 16  1  0
  8  7  1  0
  8  9  1  1
 10  9  1  0
 11 10  2  0
 12 11  1  0
 13 12  2  0
 13 14  1  0
 14 15  2  0
 15 10  1  0
 16 17  2  0
 19 21  1  0
 19 18  1  0
 20 19  2  0
 22 21  1  0
 23 22  1  6
 24 23  1  0
 24 16  1  0
 25 27  1  0
 25 23  1  0
 26 25  2  0
M  END
$$$$
