SFQ.pdb
     RDKit          3D

 27 27  0  0  1  0  0  0  0  0999 V2000
    8.3092  -18.7204   21.3523 O   0  0  0  0  0  0  0  0  0  0  0  0
    9.4197  -18.3544   20.5970 C   0  0  0  0  0  0  0  0  0  0  0  0
    9.4384  -16.8592   20.3642 C   0  0  2  0  0  0  0  0  0  0  0  0
   10.6060  -16.4826   19.6253 N   0  0  0  0  0  0  0  0  0  0  0  0
    9.4670  -16.1628   21.6778 C   0  0  0  0  0  0  0  0  0  0  0  0
   10.5469  -16.0657   22.3513 O   0  0  0  0  0  0  0  0  0  0  0  0
    8.3060  -15.5677   22.2603 N   0  0  0  0  0  0  0  0  0  0  0  0
    8.3520  -14.8364   23.5053 C   0  0  1  0  0  0  0  0  0  0  0  0
    7.0590  -14.0900   23.7473 C   0  0  0  0  0  0  0  0  0  0  0  0
    7.0626  -13.3281   24.9996 C   0  0  0  0  0  0  0  0  0  0  0  0
    6.0068  -13.4053   25.8746 C   0  0  0  0  0  0  0  0  0  0  0  0
    6.0344  -12.6720   27.0572 C   0  0  0  0  0  0  0  0  0  0  0  0
    7.1052  -11.8597   27.3794 C   0  0  0  0  0  0  0  0  0  0  0  0
    8.1653  -11.7832   26.4990 C   0  0  0  0  0  0  0  0  0  0  0  0
    8.1339  -12.5162   25.3208 C   0  0  0  0  0  0  0  0  0  0  0  0
    8.5017  -15.8179   24.6077 C   0  0  0  0  0  0  0  0  0  0  0  0
    7.7092  -16.7882   24.6478 O   0  0  0  0  0  0  0  0  0  0  0  0
   11.9921  -19.7643   24.3539 N   0  0  0  0  0  0  0  0  0  0  0  0
   11.8394  -19.8860   25.7532 C   0  0  0  0  0  0  0  0  0  0  0  0
   12.0460  -20.9980   26.2929 O   0  0  0  0  0  0  0  0  0  0  0  0
   11.4391  -18.7477   26.6454 C   0  0  0  0  0  0  0  0  0  0  0  0
   11.0664  -17.5401   25.8603 C   0  0  0  0  0  0  0  0  0  0  0  0
    9.8194  -16.9050   26.3917 C   0  0  2  0  0  0  0  0  0  0  0  0
    9.4928  -15.7044   25.6055 N   0  0  0  0  0  0  0  0  0  0  0  0
    9.9558  -16.4647   27.7937 C   0  0  0  0  0  0  0  0  0  0  0  0
   10.1705  -15.2239   28.0093 O   0  0  0  0  0  0  0  0  0  0  0  0
    9.8595  -17.3344   28.8907 O   0  0  0  0  0  0  0  0  0  0  0  0
  2  1  1  0
  3  4  1  6
  3  2  1  0
  5  3  1  0
  6  5  2  0
  7  5  1  0
  8 16  1  0
  8  7  1  0
  8  9  1  1
 10  9  1  0
 11 10  2  0
 12 11  1  0
 13 12  2  0
 13 14  1  0
 14 15  2  0
 15 10  1  0
 16 17  2  0
 19 21  1  0
 19 18  1  0
 20 19  2  0
 22 21  1  0
 23 22  1  6
 24 23  1  0
 24 16  1  0
 25 27  1  0
 25 23  1  0
 26 25  2  0
M  END
$$$$
