SFQ.pdb
     RDKit          3D

 27 27  0  0  1  0  0  0  0  0999 V2000
    7.7876  -15.8567   18.9362 O   0  0  0  0  0  0  0  0  0  0  0  0
    8.1919  -14.5621   18.6227 C   0  0  0  0  0  0  0  0  0  0  0  0
    7.6502  -13.5738   19.6325 C   0  0  2  0  0  0  0  0  0  0  0  0
    7.9830  -12.2345   19.2498 N   0  0  0  0  0  0  0  0  0  0  0  0
    8.2612  -13.8503   20.9598 C   0  0  0  0  0  0  0  0  0  0  0  0
    9.4869  -13.5805   21.1925 O   0  0  0  0  0  0  0  0  0  0  0  0
    7.5268  -14.4262   22.0416 N   0  0  0  0  0  0  0  0  0  0  0  0
    8.1277  -14.7019   23.3260 C   0  0  1  0  0  0  0  0  0  0  0  0
    7.0723  -14.8829   24.3941 C   0  0  0  0  0  0  0  0  0  0  0  0
    6.8850  -13.6886   25.2233 C   0  0  0  0  0  0  0  0  0  0  0  0
    7.3876  -13.6310   26.5001 C   0  0  0  0  0  0  0  0  0  0  0  0
    7.1962  -12.4855   27.2671 C   0  0  0  0  0  0  0  0  0  0  0  0
    6.5076  -11.3928   26.7752 C   0  0  0  0  0  0  0  0  0  0  0  0
    6.0032  -11.4522   25.4919 C   0  0  0  0  0  0  0  0  0  0  0  0
    6.1963  -12.5965   24.7303 C   0  0  0  0  0  0  0  0  0  0  0  0
    8.8658  -15.9845   23.2205 C   0  0  0  0  0  0  0  0  0  0  0  0
    8.7507  -16.6483   22.1635 O   0  0  0  0  0  0  0  0  0  0  0  0
   12.3868  -14.2796   20.2902 N   0  0  0  0  0  0  0  0  0  0  0  0
   12.9885  -15.2770   21.0898 C   0  0  0  0  0  0  0  0  0  0  0  0
   14.2361  -15.2909   21.2079 O   0  0  0  0  0  0  0  0  0  0  0  0
   12.2129  -16.3361   21.8170 C   0  0  0  0  0  0  0  0  0  0  0  0
   11.7656  -15.8666   23.1560 C   0  0  0  0  0  0  0  0  0  0  0  0
   11.0385  -16.9436   23.8990 C   0  0  2  0  0  0  0  0  0  0  0  0
    9.6862  -16.4839   24.2541 N   0  0  0  0  0  0  0  0  0  0  0  0
   11.7025  -17.3125   25.1643 C   0  0  0  0  0  0  0  0  0  0  0  0
   11.3733  -16.6698   26.2183 O   0  0  0  0  0  0  0  0  0  0  0  0
   12.6667  -18.3270   25.2650 O   0  0  0  0  0  0  0  0  0  0  0  0
  2  1  1  0
  3  4  1  6
  3  2  1  0
  5  3  1  0
  6  5  2  0
  7  5  1  0
  8 16  1  0
  8  7  1  0
  8  9  1  1
 10  9  1  0
 11 10  2  0
 12 11  1  0
 13 12  2  0
 13 14  1  0
 14 15  2  0
 15 10  1  0
 16 17  2  0
 19 21  1  0
 19 18  1  0
 20 19  2  0
 22 21  1  0
 23 22  1  1
 24 23  1  0
 24 16  1  0
 25 27  1  0
 25 23  1  0
 26 25  2  0
M  END
$$$$
