SFQ.pdb
     RDKit          3D

 27 27  0  0  1  0  0  0  0  0999 V2000
    6.6629  -18.3567   21.9927 O   0  0  0  0  0  0  0  0  0  0  0  0
    5.9182  -17.3452   21.3926 C   0  0  0  0  0  0  0  0  0  0  0  0
    6.8152  -16.4198   20.5996 C   0  0  2  0  0  0  0  0  0  0  0  0
    7.2834  -17.0720   19.4136 N   0  0  0  0  0  0  0  0  0  0  0  0
    7.9920  -16.0524   21.4312 C   0  0  0  0  0  0  0  0  0  0  0  0
    9.1130  -16.6460   21.2894 O   0  0  0  0  0  0  0  0  0  0  0  0
    7.9432  -15.0281   22.4260 N   0  0  0  0  0  0  0  0  0  0  0  0
    9.1006  -14.6450   23.2011 C   0  0  1  0  0  0  0  0  0  0  0  0
    8.9853  -13.2163   23.6835 C   0  0  0  0  0  0  0  0  0  0  0  0
    8.0984  -13.0720   24.8418 C   0  0  0  0  0  0  0  0  0  0  0  0
    8.6105  -12.9063   26.1053 C   0  0  0  0  0  0  0  0  0  0  0  0
    7.7472  -12.7716   27.1886 C   0  0  0  0  0  0  0  0  0  0  0  0
    6.3748  -12.8001   27.0274 C   0  0  0  0  0  0  0  0  0  0  0  0
    5.8618  -12.9667   25.7570 C   0  0  0  0  0  0  0  0  0  0  0  0
    6.7262  -13.1007   24.6793 C   0  0  0  0  0  0  0  0  0  0  0  0
    9.1516  -15.5093   24.4058 C   0  0  0  0  0  0  0  0  0  0  0  0
    8.0809  -16.0151   24.8170 O   0  0  0  0  0  0  0  0  0  0  0  0
   12.3673  -20.8035   23.1141 N   0  0  0  0  0  0  0  0  0  0  0  0
   12.4423  -19.6108   23.8678 C   0  0  0  0  0  0  0  0  0  0  0  0
   13.5000  -18.9393   23.8398 O   0  0  0  0  0  0  0  0  0  0  0  0
   11.3154  -19.0918   24.7122 C   0  0  0  0  0  0  0  0  0  0  0  0
   11.6704  -17.8054   25.3701 C   0  0  0  0  0  0  0  0  0  0  0  0
   10.4494  -17.0649   25.8188 C   0  0  2  0  0  0  0  0  0  0  0  0
   10.3475  -15.7832   25.1025 N   0  0  0  0  0  0  0  0  0  0  0  0
   10.4752  -16.7406   27.2584 C   0  0  0  0  0  0  0  0  0  0  0  0
   11.0126  -15.6361   27.6098 O   0  0  0  0  0  0  0  0  0  0  0  0
    9.9408  -17.5776   28.2498 O   0  0  0  0  0  0  0  0  0  0  0  0
  2  1  1  0
  3  4  1  6
  3  2  1  0
  5  3  1  0
  6  5  2  0
  7  5  1  0
  8 16  1  0
  8  7  1  0
  8  9  1  1
 10  9  1  0
 11 10  2  0
 12 11  1  0
 13 12  2  0
 13 14  1  0
 14 15  2  0
 15 10  1  0
 16 17  2  0
 19 21  1  0
 19 18  1  0
 20 19  2  0
 22 21  1  0
 23 22  1  6
 24 23  1  0
 24 16  1  0
 25 27  1  0
 25 23  1  0
 26 25  2  0
M  END
$$$$
