SFQ.pdb
     RDKit          3D

 27 27  0  0  1  0  0  0  0  0999 V2000
    9.3037  -18.6181   21.0495 O   0  0  0  0  0  0  0  0  0  0  0  0
    8.5492  -17.9177   20.1124 C   0  0  0  0  0  0  0  0  0  0  0  0
    9.0819  -16.5117   19.9406 C   0  0  2  0  0  0  0  0  0  0  0  0
   10.3849  -16.5396   19.3470 N   0  0  0  0  0  0  0  0  0  0  0  0
    9.1858  -15.8644   21.2753 C   0  0  0  0  0  0  0  0  0  0  0  0
   10.2910  -15.8383   21.9132 O   0  0  0  0  0  0  0  0  0  0  0  0
    8.0727  -15.2406   21.9183 N   0  0  0  0  0  0  0  0  0  0  0  0
    8.1860  -14.5863   23.2011 C   0  0  1  0  0  0  0  0  0  0  0  0
    6.9529  -13.7648   23.5050 C   0  0  0  0  0  0  0  0  0  0  0  0
    7.0130  -13.1022   24.8113 C   0  0  0  0  0  0  0  0  0  0  0  0
    7.8692  -12.0508   25.0297 C   0  0  0  0  0  0  0  0  0  0  0  0
    7.9072  -11.4387   26.2790 C   0  0  0  0  0  0  0  0  0  0  0  0
    7.0993  -11.8632   27.3170 C   0  0  0  0  0  0  0  0  0  0  0  0
    6.2395  -12.9198   27.0959 C   0  0  0  0  0  0  0  0  0  0  0  0
    6.2046  -13.5276   25.8485 C   0  0  0  0  0  0  0  0  0  0  0  0
    8.2781  -15.6368   24.2446 C   0  0  0  0  0  0  0  0  0  0  0  0
    7.4857  -16.6059   24.1803 O   0  0  0  0  0  0  0  0  0  0  0  0
   11.7741  -19.7388   24.1287 N   0  0  0  0  0  0  0  0  0  0  0  0
   12.3233  -18.4987   24.5245 C   0  0  0  0  0  0  0  0  0  0  0  0
   13.5316  -18.2653   24.2873 O   0  0  0  0  0  0  0  0  0  0  0  0
   11.5359  -17.4282   25.2218 C   0  0  0  0  0  0  0  0  0  0  0  0
   10.1232  -17.8405   25.4400 C   0  0  0  0  0  0  0  0  0  0  0  0
    9.3475  -16.7791   26.1558 C   0  0  2  0  0  0  0  0  0  0  0  0
    9.2146  -15.5898   25.2989 N   0  0  0  0  0  0  0  0  0  0  0  0
   10.0060  -16.3303   27.3979 C   0  0  0  0  0  0  0  0  0  0  0  0
   10.1865  -17.1945   28.3213 O   0  0  0  0  0  0  0  0  0  0  0  0
   10.4417  -15.0134   27.6104 O   0  0  0  0  0  0  0  0  0  0  0  0
  2  1  1  0
  3  4  1  1
  3  2  1  0
  5  3  1  0
  6  5  2  0
  7  5  1  0
  8 16  1  0
  8  7  1  0
  8  9  1  1
 10  9  1  0
 11 10  2  0
 12 11  1  0
 13 12  2  0
 13 14  1  0
 14 15  2  0
 15 10  1  0
 16 17  2  0
 19 21  1  0
 19 18  1  0
 20 19  2  0
 22 21  1  0
 23 22  1  6
 24 23  1  0
 24 16  1  0
 25 27  1  0
 25 23  1  0
 26 25  2  0
M  END
$$$$
