SFQ.pdb
     RDKit          3D

 27 27  0  0  1  0  0  0  0  0999 V2000
    9.7467  -18.7467   20.9144 O   0  0  0  0  0  0  0  0  0  0  0  0
    8.7269  -18.0444   20.2784 C   0  0  0  0  0  0  0  0  0  0  0  0
    9.1360  -16.6071   20.0398 C   0  0  2  0  0  0  0  0  0  0  0  0
   10.4040  -16.5515   19.3764 N   0  0  0  0  0  0  0  0  0  0  0  0
    9.2582  -15.9125   21.3490 C   0  0  0  0  0  0  0  0  0  0  0  0
   10.4003  -15.6655   21.8623 O   0  0  0  0  0  0  0  0  0  0  0  0
    8.1228  -15.4843   22.1033 N   0  0  0  0  0  0  0  0  0  0  0  0
    8.2472  -14.7484   23.3402 C   0  0  1  0  0  0  0  0  0  0  0  0
    6.9234  -14.1419   23.7493 C   0  0  0  0  0  0  0  0  0  0  0  0
    7.0099  -13.3558   24.9836 C   0  0  0  0  0  0  0  0  0  0  0  0
    6.3130  -13.7284   26.1069 C   0  0  0  0  0  0  0  0  0  0  0  0
    6.4121  -12.9650   27.2663 C   0  0  0  0  0  0  0  0  0  0  0  0
    7.2001  -11.8308   27.3202 C   0  0  0  0  0  0  0  0  0  0  0  0
    7.8998  -11.4578   26.1905 C   0  0  0  0  0  0  0  0  0  0  0  0
    7.7982  -12.2218   25.0362 C   0  0  0  0  0  0  0  0  0  0  0  0
    8.6362  -15.7052   24.4052 C   0  0  0  0  0  0  0  0  0  0  0  0
    7.9802  -16.7678   24.5146 O   0  0  0  0  0  0  0  0  0  0  0  0
   13.4065  -19.2873   23.8424 N   0  0  0  0  0  0  0  0  0  0  0  0
   13.0723  -18.0256   24.3832 C   0  0  0  0  0  0  0  0  0  0  0  0
   13.9926  -17.2300   24.6843 O   0  0  0  0  0  0  0  0  0  0  0  0
   11.6613  -17.5737   24.6222 C   0  0  0  0  0  0  0  0  0  0  0  0
   11.5015  -16.9636   25.9697 C   0  0  0  0  0  0  0  0  0  0  0  0
   10.0847  -16.5500   26.2188 C   0  0  2  0  0  0  0  0  0  0  0  0
    9.7066  -15.4695   25.2936 N   0  0  0  0  0  0  0  0  0  0  0  0
    9.8737  -16.0279   27.5830 C   0  0  0  0  0  0  0  0  0  0  0  0
   10.0012  -16.8431   28.5583 O   0  0  0  0  0  0  0  0  0  0  0  0
    9.5457  -14.6914   27.8578 O   0  0  0  0  0  0  0  0  0  0  0  0
  2  1  1  0
  3  4  1  1
  3  2  1  0
  5  3  1  0
  6  5  2  0
  7  5  1  0
  8 16  1  0
  8  7  1  0
  8  9  1  1
 10  9  1  0
 11 10  2  0
 12 11  1  0
 13 12  2  0
 13 14  1  0
 14 15  2  0
 15 10  1  0
 16 17  2  0
 19 21  1  0
 19 18  1  0
 20 19  2  0
 22 21  1  0
 23 22  1  1
 24 23  1  0
 24 16  1  0
 25 27  1  0
 25 23  1  0
 26 25  2  0
M  END
$$$$
