RHC.pdb
     RDKit          3D

 28 28  0  0  1  0  0  0  0  0999 V2000
   23.6911  -20.9820  -11.7233 N   0  0  0  0  0  0  0  0  0  0  0  0
   24.4758  -20.7084  -10.5765 C   0  0  0  0  0  0  0  0  0  0  0  0
   23.8667  -20.4386   -9.4519 N   0  0  0  0  0  0  0  0  0  0  0  0
   25.8767  -20.7087  -10.5654 N   0  0  0  0  0  0  0  0  0  0  0  0
   26.6710  -20.9811  -11.7421 C   0  0  0  0  0  0  0  0  0  0  0  0
   27.0486  -19.6958  -12.4621 C   0  0  0  0  0  0  0  0  0  0  0  0
   27.6747  -19.8611  -13.7825 C   0  0  0  0  0  0  0  0  0  0  0  0
   26.9535  -20.6988  -14.7909 C   0  0  2  0  0  0  0  0  0  0  0  0
   27.7276  -21.1570  -15.8923 N   0  0  0  0  0  0  0  0  0  0  0  0
   25.7111  -20.0420  -15.2714 C   0  0  0  0  0  0  0  0  0  0  0  0
   25.8316  -19.0679  -16.0921 O   0  0  0  0  0  0  0  0  0  0  0  0
   24.3870  -20.1983   -8.6011 N   0  0  0  0  0  0  0  0  0  0  0  0
   24.4191  -20.4469  -14.8548 C   0  0  1  0  0  0  0  0  0  0  0  0
   23.2945  -19.7263  -15.4878 C   0  0  0  0  0  0  0  0  0  0  0  0
   22.9640  -20.4719  -16.7232 C   0  0  0  0  0  0  0  0  0  0  0  0
   23.7547  -20.1690  -17.9190 C   0  0  0  0  0  0  0  0  0  0  0  0
   24.5905  -20.9086  -18.6808 N   0  0  0  0  0  0  0  0  0  0  0  0
   25.0123  -20.1422  -19.6968 C   0  0  0  0  0  0  0  0  0  0  0  0
   24.4431  -18.9407  -19.5692 N   0  0  0  0  0  0  0  0  0  0  0  0
   23.6755  -18.9304  -18.5017 C   0  0  0  0  0  0  0  0  0  0  0  0
   22.1439  -19.8560  -14.5088 O   0  0  0  0  0  0  0  0  0  0  0  0
   22.0182  -20.9184  -13.8972 N   0  0  0  0  0  0  0  0  0  0  0  0
   21.2406  -18.7943  -14.3067 C   0  0  1  0  0  0  0  0  0  0  0  0
   20.1155  -18.6694  -13.4583 C   0  0  0  0  0  0  0  0  0  0  0  0
   19.5045  -17.3124  -13.1845 S   0  0  0  0  0  0  0  0  0  0  0  0
   20.7917  -16.0222  -13.2523 C   0  0  0  0  0  0  0  0  0  0  0  0
   19.0413  -19.6256  -13.8831 O   0  0  0  0  0  0  0  0  0  0  0  0
   19.1127  -20.1002  -15.0039 O   0  0  0  0  0  0  0  0  0  0  0  0
  2  1  1  0
  2  3  2  0
  4  5  1  0
  4  2  1  0
  6  5  1  0
  7  6  1  0
  8  9  1  6
  8  7  1  0
 10 11  2  0
 10  8  1  0
 12 10  1  0
 13 20  1  0
 13 12  1  0
 13 14  1  1
 15 14  1  0
 16 15  2  0
 17 16  1  0
 18 17  1  0
 18 19  2  0
 19 15  1  0
 20 22  1  0
 21 20  2  0
 22 23  1  0
 23 26  1  0
 23 24  1  1
 25 24  1  0
 26 27  2  0
 26 28  1  0
M  END
$$$$
