RHC.pdb
     RDKit          3D

 28 28  0  0  1  0  0  0  0  0999 V2000
   29.2359  -18.3859  -17.9812 N   0  0  0  0  0  0  0  0  0  0  0  0
   28.7673  -18.4202  -19.3173 C   0  0  0  0  0  0  0  0  0  0  0  0
   29.6383  -18.3322  -20.2878 N   0  0  0  0  0  0  0  0  0  0  0  0
   27.4181  -18.5449  -19.6730 N   0  0  0  0  0  0  0  0  0  0  0  0
   26.4023  -19.0027  -18.7519 C   0  0  0  0  0  0  0  0  0  0  0  0
   26.3867  -20.5206  -18.6583 C   0  0  0  0  0  0  0  0  0  0  0  0
   25.4135  -21.0945  -17.7169 C   0  0  0  0  0  0  0  0  0  0  0  0
   25.8102  -21.1795  -16.2767 C   0  0  2  0  0  0  0  0  0  0  0  0
   26.9827  -21.9328  -15.9941 N   0  0  0  0  0  0  0  0  0  0  0  0
   24.6867  -21.6322  -15.4173 C   0  0  0  0  0  0  0  0  0  0  0  0
   24.5530  -22.8900  -15.2256 O   0  0  0  0  0  0  0  0  0  0  0  0
   29.3514  -18.3449  -21.2726 N   0  0  0  0  0  0  0  0  0  0  0  0
   23.7702  -20.7341  -14.8171 C   0  0  1  0  0  0  0  0  0  0  0  0
   22.7982  -21.3477  -13.8880 C   0  0  0  0  0  0  0  0  0  0  0  0
   22.9291  -20.6188  -12.6063 C   0  0  0  0  0  0  0  0  0  0  0  0
   24.0571  -20.9799  -11.7436 C   0  0  0  0  0  0  0  0  0  0  0  0
   25.0702  -21.8643  -11.8763 N   0  0  0  0  0  0  0  0  0  0  0  0
   25.8617  -21.7520  -10.7999 C   0  0  0  0  0  0  0  0  0  0  0  0
   25.3476  -20.8068  -10.0085 N   0  0  0  0  0  0  0  0  0  0  0  0
   24.2554  -20.3220  -10.5572 C   0  0  0  0  0  0  0  0  0  0  0  0
   21.4382  -21.0508  -14.4893 O   0  0  0  0  0  0  0  0  0  0  0  0
   21.2919  -19.9906  -15.1001 N   0  0  0  0  0  0  0  0  0  0  0  0
   20.3702  -21.9585  -14.3505 C   0  0  2  0  0  0  0  0  0  0  0  0
   19.0562  -21.9471  -14.8746 C   0  0  0  0  0  0  0  0  0  0  0  0
   18.1985  -23.1930  -14.8297 S   0  0  0  0  0  0  0  0  0  0  0  0
   17.9107  -23.6916  -13.0991 C   0  0  0  0  0  0  0  0  0  0  0  0
   18.2870  -20.7894  -14.3119 O   0  0  0  0  0  0  0  0  0  0  0  0
   18.7372  -20.2332  -13.3247 O   0  0  0  0  0  0  0  0  0  0  0  0
  2  1  1  0
  2  3  2  0
  4  5  1  0
  4  2  1  0
  6  5  1  0
  7  6  1  0
  8  9  1  6
  8  7  1  0
 10 11  2  0
 10  8  1  0
 12 10  1  0
 13 20  1  0
 13 12  1  0
 13 14  1  1
 15 14  1  0
 16 15  2  0
 17 16  1  0
 18 17  1  0
 18 19  2  0
 19 15  1  0
 20 22  1  0
 21 20  2  0
 22 23  1  0
 23 26  1  0
 23 24  1  1
 25 24  1  0
 26 27  2  0
 26 28  1  0
M  END
$$$$
