RHC.pdb
     RDKit          3D

 28 28  0  0  1  0  0  0  0  0999 V2000
   24.4479  -23.0220  -15.3153 N   0  0  0  0  0  0  0  0  0  0  0  0
   24.3757  -24.4166  -15.0791 C   0  0  0  0  0  0  0  0  0  0  0  0
   25.4895  -25.0961  -15.0009 N   0  0  0  0  0  0  0  0  0  0  0  0
   23.1775  -25.1249  -14.9202 N   0  0  0  0  0  0  0  0  0  0  0  0
   21.8776  -24.4993  -15.0129 C   0  0  0  0  0  0  0  0  0  0  0  0
   21.6592  -23.5107  -13.8781 C   0  0  0  0  0  0  0  0  0  0  0  0
   20.7336  -23.9434  -12.8204 C   0  0  0  0  0  0  0  0  0  0  0  0
   19.4742  -24.6328  -13.2418 C   0  0  2  0  0  0  0  0  0  0  0  0
   18.6178  -23.8975  -14.1067 N   0  0  0  0  0  0  0  0  0  0  0  0
   18.7102  -25.1524  -12.0790 C   0  0  0  0  0  0  0  0  0  0  0  0
   17.8378  -24.3821  -11.5474 O   0  0  0  0  0  0  0  0  0  0  0  0
   25.4929  -26.1194  -14.9295 N   0  0  0  0  0  0  0  0  0  0  0  0
   18.9147  -26.4480  -11.5440 C   0  0  2  0  0  0  0  0  0  0  0  0
   18.0096  -26.8272  -10.4387 C   0  0  0  0  0  0  0  0  0  0  0  0
   17.9390  -28.3058  -10.4462 C   0  0  0  0  0  0  0  0  0  0  0  0
   17.0434  -28.9277  -11.4251 C   0  0  0  0  0  0  0  0  0  0  0  0
   15.9120  -28.5081  -12.0334 N   0  0  0  0  0  0  0  0  0  0  0  0
   15.5222  -29.4647  -12.8881 C   0  0  0  0  0  0  0  0  0  0  0  0
   16.4027  -30.4663  -12.8137 N   0  0  0  0  0  0  0  0  0  0  0  0
   17.3348  -30.1661  -11.9363 C   0  0  0  0  0  0  0  0  0  0  0  0
   18.7174  -26.3721   -9.1774 O   0  0  0  0  0  0  0  0  0  0  0  0
   19.9204  -26.6149   -9.0663 N   0  0  0  0  0  0  0  0  0  0  0  0
   18.0196  -25.6948   -8.1585 C   0  0  1  0  0  0  0  0  0  0  0  0
   18.4633  -25.1004   -6.9538 C   0  0  0  0  0  0  0  0  0  0  0  0
   18.1744  -23.6440   -6.6618 S   0  0  0  0  0  0  0  0  0  0  0  0
   16.3748  -23.3774   -6.5331 C   0  0  0  0  0  0  0  0  0  0  0  0
   18.0465  -25.9382   -5.7820 O   0  0  0  0  0  0  0  0  0  0  0  0
   17.1409  -26.7375   -5.9474 O   0  0  0  0  0  0  0  0  0  0  0  0
  2  1  1  0
  2  3  2  0
  4  5  1  0
  4  2  1  0
  6  5  1  0
  7  6  1  0
  8  9  1  1
  8  7  1  0
 10 11  2  0
 10  8  1  0
 12 10  1  0
 13 20  1  0
 13 12  1  0
 13 14  1  6
 15 14  1  0
 16 15  2  0
 17 16  1  0
 18 17  1  0
 18 19  2  0
 19 15  1  0
 20 22  1  0
 21 20  2  0
 22 23  1  0
 23 26  1  0
 23 24  1  1
 25 24  1  0
 26 27  2  0
 26 28  1  0
M  END
$$$$
