RHC.pdb
     RDKit          3D

 28 28  0  0  1  0  0  0  0  0999 V2000
   18.6467  -25.9314   -8.1344 N   0  0  0  0  0  0  0  0  0  0  0  0
   17.8061  -24.7926   -8.0870 C   0  0  0  0  0  0  0  0  0  0  0  0
   16.9483  -24.6888   -7.1064 N   0  0  0  0  0  0  0  0  0  0  0  0
   17.8332  -23.7572   -9.0303 N   0  0  0  0  0  0  0  0  0  0  0  0
   18.3602  -23.9254  -10.3659 C   0  0  0  0  0  0  0  0  0  0  0  0
   18.0841  -22.7017  -11.2258 C   0  0  0  0  0  0  0  0  0  0  0  0
   18.6109  -22.7507  -12.5979 C   0  0  0  0  0  0  0  0  0  0  0  0
   20.0918  -22.8819  -12.7670 C   0  0  2  0  0  0  0  0  0  0  0  0
   20.8535  -21.7011  -12.5487 N   0  0  0  0  0  0  0  0  0  0  0  0
   20.4494  -23.4924  -14.0728 C   0  0  0  0  0  0  0  0  0  0  0  0
   20.4351  -22.7385  -15.1064 O   0  0  0  0  0  0  0  0  0  0  0  0
   16.3227  -23.8805   -7.0205 N   0  0  0  0  0  0  0  0  0  0  0  0
   20.7946  -24.8592  -14.2115 C   0  0  2  0  0  0  0  0  0  0  0  0
   21.2524  -25.2637  -15.5574 C   0  0  0  0  0  0  0  0  0  0  0  0
   22.6755  -25.6462  -15.4164 C   0  0  0  0  0  0  0  0  0  0  0  0
   23.6759  -24.6065  -15.6716 C   0  0  0  0  0  0  0  0  0  0  0  0
   23.5818  -23.3117  -16.0468 N   0  0  0  0  0  0  0  0  0  0  0  0
   24.8207  -22.8005  -16.0852 C   0  0  0  0  0  0  0  0  0  0  0  0
   25.6748  -23.7660  -15.7353 N   0  0  0  0  0  0  0  0  0  0  0  0
   25.0076  -24.8694  -15.4782 C   0  0  0  0  0  0  0  0  0  0  0  0
   20.4393  -26.4983  -15.8947 O   0  0  0  0  0  0  0  0  0  0  0  0
   20.1986  -27.3004  -14.9906 N   0  0  0  0  0  0  0  0  0  0  0  0
   19.9755  -26.7255  -17.2050 C   0  0  1  0  0  0  0  0  0  0  0  0
   19.1520  -27.7413  -17.7450 C   0  0  0  0  0  0  0  0  0  0  0  0
   17.7718  -27.4145  -18.2722 S   0  0  0  0  0  0  0  0  0  0  0  0
   16.9630  -26.1897  -17.1895 C   0  0  0  0  0  0  0  0  0  0  0  0
   19.9091  -28.5245  -18.7757 O   0  0  0  0  0  0  0  0  0  0  0  0
   20.9001  -28.0108  -19.2661 O   0  0  0  0  0  0  0  0  0  0  0  0
  2  1  1  0
  2  3  2  0
  4  5  1  0
  4  2  1  0
  6  5  1  0
  7  6  1  0
  8  9  1  6
  8  7  1  0
 10 11  2  0
 10  8  1  0
 12 10  1  0
 13 20  1  0
 13 12  1  0
 13 14  1  6
 15 14  1  0
 16 15  2  0
 17 16  1  0
 18 17  1  0
 18 19  2  0
 19 15  1  0
 20 22  1  0
 21 20  2  0
 22 23  1  0
 23 26  1  0
 23 24  1  6
 25 24  1  0
 26 27  2  0
 26 28  1  0
M  END
$$$$
