RHC.pdb
     RDKit          3D

 28 28  0  0  1  0  0  0  0  0999 V2000
   18.5412  -24.3912  -10.0472 N   0  0  0  0  0  0  0  0  0  0  0  0
   18.8938  -25.6070  -10.6822 C   0  0  0  0  0  0  0  0  0  0  0  0
   18.4819  -26.7300  -10.1554 N   0  0  0  0  0  0  0  0  0  0  0  0
   19.6620  -25.6883  -11.8509 N   0  0  0  0  0  0  0  0  0  0  0  0
   20.3143  -24.5421  -12.4429 C   0  0  0  0  0  0  0  0  0  0  0  0
   19.3298  -23.6953  -13.2346 C   0  0  0  0  0  0  0  0  0  0  0  0
   19.8751  -22.4651  -13.8279 C   0  0  0  0  0  0  0  0  0  0  0  0
   20.1694  -21.3234  -12.9066 C   0  0  2  0  0  0  0  0  0  0  0  0
   19.0425  -20.6974  -12.3062 N   0  0  0  0  0  0  0  0  0  0  0  0
   21.0450  -20.3072  -13.5442 C   0  0  0  0  0  0  0  0  0  0  0  0
   20.5371  -19.1618  -13.8033 O   0  0  0  0  0  0  0  0  0  0  0  0
   18.6617  -27.6344  -10.6049 N   0  0  0  0  0  0  0  0  0  0  0  0
   22.3990  -20.5604  -13.8748 C   0  0  2  0  0  0  0  0  0  0  0  0
   23.1302  -19.4209  -14.4676 C   0  0  0  0  0  0  0  0  0  0  0  0
   24.5616  -19.6378  -14.1587 C   0  0  0  0  0  0  0  0  0  0  0  0
   25.5115  -18.6375  -14.6528 C   0  0  0  0  0  0  0  0  0  0  0  0
   25.3552  -17.4598  -15.2967 N   0  0  0  0  0  0  0  0  0  0  0  0
   26.5694  -16.9181  -15.4698 C   0  0  0  0  0  0  0  0  0  0  0  0
   27.4697  -17.7487  -14.9373 N   0  0  0  0  0  0  0  0  0  0  0  0
   26.8556  -18.7969  -14.4344 C   0  0  0  0  0  0  0  0  0  0  0  0
   22.9210  -19.5549  -15.9634 O   0  0  0  0  0  0  0  0  0  0  0  0
   22.8172  -20.6880  -16.4364 N   0  0  0  0  0  0  0  0  0  0  0  0
   22.8515  -18.4171  -16.7907 C   0  0  1  0  0  0  0  0  0  0  0  0
   22.5706  -18.2768  -18.1701 C   0  0  0  0  0  0  0  0  0  0  0  0
   22.0890  -16.9548  -18.7272 S   0  0  0  0  0  0  0  0  0  0  0  0
   20.8592  -17.2419  -20.0430 C   0  0  0  0  0  0  0  0  0  0  0  0
   23.7286  -18.7712  -18.9846 O   0  0  0  0  0  0  0  0  0  0  0  0
   24.8498  -18.4393  -18.6395 O   0  0  0  0  0  0  0  0  0  0  0  0
  2  1  1  0
  2  3  2  0
  4  5  1  0
  4  2  1  0
  6  5  1  0
  7  6  1  0
  8  9  1  6
  8  7  1  0
 10 11  2  0
 10  8  1  0
 12 10  1  0
 13 20  1  0
 13 12  1  0
 13 14  1  1
 15 14  1  0
 16 15  2  0
 17 16  1  0
 18 17  1  0
 18 19  2  0
 19 15  1  0
 20 22  1  0
 21 20  2  0
 22 23  1  0
 23 26  1  0
 23 24  1  6
 25 24  1  0
 26 27  2  0
 26 28  1  0
M  END
$$$$
