RHC.pdb
     RDKit          3D

 28 28  0  0  1  0  0  0  0  0999 V2000
   26.0349  -25.2166  -18.4332 N   0  0  0  0  0  0  0  0  0  0  0  0
   26.9254  -25.7264  -17.4570 C   0  0  0  0  0  0  0  0  0  0  0  0
   28.0995  -25.1666  -17.3284 N   0  0  0  0  0  0  0  0  0  0  0  0
   26.6290  -26.8017  -16.6093 N   0  0  0  0  0  0  0  0  0  0  0  0
   25.3303  -26.9881  -16.0023 C   0  0  0  0  0  0  0  0  0  0  0  0
   24.9418  -25.7884  -15.1520 C   0  0  0  0  0  0  0  0  0  0  0  0
   23.6064  -25.8434  -14.5385 C   0  0  0  0  0  0  0  0  0  0  0  0
   22.4235  -25.6639  -15.4370 C   0  0  2  0  0  0  0  0  0  0  0  0
   22.5404  -24.6536  -16.4309 N   0  0  0  0  0  0  0  0  0  0  0  0
   21.1646  -25.4886  -14.6688 C   0  0  0  0  0  0  0  0  0  0  0  0
   20.9969  -24.3847  -14.0442 O   0  0  0  0  0  0  0  0  0  0  0  0
   28.7539  -25.4496  -16.5909 N   0  0  0  0  0  0  0  0  0  0  0  0
   20.1624  -26.4874  -14.6007 C   0  0  1  0  0  0  0  0  0  0  0  0
   18.9562  -26.1230  -13.8281 C   0  0  0  0  0  0  0  0  0  0  0  0
   17.9212  -27.1230  -14.1745 C   0  0  0  0  0  0  0  0  0  0  0  0
   16.9274  -26.7364  -15.1794 C   0  0  0  0  0  0  0  0  0  0  0  0
   16.7185  -25.5974  -15.8759 N   0  0  0  0  0  0  0  0  0  0  0  0
   15.6898  -25.8048  -16.7103 C   0  0  0  0  0  0  0  0  0  0  0  0
   15.2658  -27.0594  -16.5362 N   0  0  0  0  0  0  0  0  0  0  0  0
   15.9990  -27.6461  -15.6159 C   0  0  0  0  0  0  0  0  0  0  0  0
   19.3509  -26.3025  -12.3751 O   0  0  0  0  0  0  0  0  0  0  0  0
   20.1274  -27.2167  -12.0926 N   0  0  0  0  0  0  0  0  0  0  0  0
   18.8416  -25.4516  -11.3749 C   0  0  2  0  0  0  0  0  0  0  0  0
   19.1627  -25.3199  -10.0034 C   0  0  0  0  0  0  0  0  0  0  0  0
   18.8469  -24.0414   -9.2581 S   0  0  0  0  0  0  0  0  0  0  0  0
   18.5848  -24.3979   -7.4887 C   0  0  0  0  0  0  0  0  0  0  0  0
   18.6302  -26.4921   -9.2347 O   0  0  0  0  0  0  0  0  0  0  0  0
   17.6060  -27.0180   -9.6361 O   0  0  0  0  0  0  0  0  0  0  0  0
  2  1  1  0
  2  3  2  0
  4  5  1  0
  4  2  1  0
  6  5  1  0
  7  6  1  0
  8  9  1  1
  8  7  1  0
 10 11  2  0
 10  8  1  0
 12 10  1  0
 13 20  1  0
 13 12  1  0
 13 14  1  6
 15 14  1  0
 16 15  2  0
 17 16  1  0
 18 17  1  0
 18 19  2  0
 19 15  1  0
 20 22  1  0
 21 20  2  0
 22 23  1  0
 23 26  1  0
 23 24  1  1
 25 24  1  0
 26 27  2  0
 26 28  1  0
M  END
$$$$
