ERE.pdb
     RDKit          3D

 30 29  0  0  1  0  0  0  0  0999 V2000
   19.3819  -26.1867  -14.0141 N   0  0  0  0  0  0  0  0  0  0  0  0
   19.2598  -24.7564  -13.7228 C   0  0  1  0  0  0  0  0  0  0  0  0
   18.6610  -24.5507  -12.3575 C   0  0  0  0  0  0  0  0  0  0  0  0
   17.2290  -24.9373  -12.2260 C   0  0  0  0  0  0  0  0  0  0  0  0
   16.3355  -23.7785  -12.6048 C   0  0  0  0  0  0  0  0  0  0  0  0
   16.8766  -22.6764  -12.9146 O   0  0  0  0  0  0  0  0  0  0  0  0
   20.6097  -24.1093  -13.8345 C   0  0  0  0  0  0  0  0  0  0  0  0
   21.6099  -24.6143  -13.2829 O   0  0  0  0  0  0  0  0  0  0  0  0
   14.9595  -23.9355  -12.6076 O   0  0  0  0  0  0  0  0  0  0  0  0
   27.3562  -21.4461  -17.1150 N   0  0  0  0  0  0  0  0  0  0  0  0
   27.6148  -22.6070  -16.3140 C   0  0  0  0  0  0  0  0  0  0  0  0
   28.7958  -22.8067  -15.8574 N   0  0  0  0  0  0  0  0  0  0  0  0
   26.5835  -23.5278  -16.0258 N   0  0  0  0  0  0  0  0  0  0  0  0
   25.2508  -23.4098  -16.5619 C   0  0  0  0  0  0  0  0  0  0  0  0
   24.3832  -22.4617  -15.7360 C   0  0  0  0  0  0  0  0  0  0  0  0
   23.1093  -23.1612  -15.3994 C   0  0  0  0  0  0  0  0  0  0  0  0
   22.0117  -22.2878  -14.9221 C   0  0  2  0  0  0  0  0  0  0  0  0
   20.7858  -22.9067  -14.5699 N   0  0  0  0  0  0  0  0  0  0  0  0
   21.8920  -21.0470  -15.7435 C   0  0  0  0  0  0  0  0  0  0  0  0
   21.5773  -21.1949  -16.9398 O   0  0  0  0  0  0  0  0  0  0  0  0
   28.9887  -23.6233  -15.2232 N   0  0  0  0  0  0  0  0  0  0  0  0
   22.1191  -19.7492  -15.2327 C   0  0  2  0  0  0  0  0  0  0  0  0
   21.9450  -18.5097  -15.8956 C   0  0  0  0  0  0  0  0  0  0  0  0
   20.8781  -17.5852  -15.4779 C   0  0  0  0  0  0  0  0  0  0  0  0
   20.4529  -17.5753  -14.0612 C   0  0  0  0  0  0  0  0  0  0  0  0
   19.2602  -16.7751  -13.7527 O   0  0  0  0  0  0  0  0  0  0  0  0
   18.7789  -16.0064  -14.5936 C   0  0  0  0  0  0  0  0  0  0  0  0
   23.2429  -17.7723  -16.1700 O   0  0  0  0  0  0  0  0  0  0  0  0
   24.3279  -18.0275  -15.6216 O   0  0  0  0  0  0  0  0  0  0  0  0
   18.6191  -16.8425  -12.5095 O   0  0  0  0  0  0  0  0  0  0  0  0
  2  1  1  1
  2  3  1  0
  3  4  1  0
  4  5  1  0
  5  9  1  0
  5  6  2  0
  7  2  1  0
  7  8  2  0
 10 11  1  0
 11 12  2  0
 13 11  1  0
 13 14  1  0
 14 15  1  0
 17 16  1  6
 16 15  1  0
 17 18  1  0
 18  7  1  0
 19 17  1  0
 20 19  2  0
 21 19  1  0
 22 27  1  0
 22 21  1  0
 23 24  1  0
 22 23  1  1
 24 25  1  0
 25 29  1  0
 25 26  2  0
 27 30  1  0
 28 27  2  0
M  END
$$$$
