ERE.pdb
     RDKit          3D

 30 29  0  0  1  0  0  0  0  0999 V2000
   18.9648  -15.1576  -15.8659 N   0  0  0  0  0  0  0  0  0  0  0  0
   18.8857  -13.7628  -16.3060 C   0  0  1  0  0  0  0  0  0  0  0  0
   17.6583  -13.1041  -15.7364 C   0  0  0  0  0  0  0  0  0  0  0  0
   16.3609  -13.6865  -16.1779 C   0  0  0  0  0  0  0  0  0  0  0  0
   15.2085  -12.8726  -15.6354 C   0  0  0  0  0  0  0  0  0  0  0  0
   14.4693  -13.3916  -14.7478 O   0  0  0  0  0  0  0  0  0  0  0  0
   20.1370  -13.0409  -15.8975 C   0  0  0  0  0  0  0  0  0  0  0  0
   20.9843  -13.5923  -15.1642 O   0  0  0  0  0  0  0  0  0  0  0  0
   14.9803  -11.5914  -16.1091 O   0  0  0  0  0  0  0  0  0  0  0  0
   27.9505  -11.2185  -18.2234 N   0  0  0  0  0  0  0  0  0  0  0  0
   27.6984  -11.1140  -16.8157 C   0  0  0  0  0  0  0  0  0  0  0  0
   28.6188  -10.6687  -16.0426 N   0  0  0  0  0  0  0  0  0  0  0  0
   26.4502  -11.4963  -16.2769 N   0  0  0  0  0  0  0  0  0  0  0  0
   25.2605  -11.6460  -17.0767 C   0  0  0  0  0  0  0  0  0  0  0  0
   24.0911  -10.8352  -16.5210 C   0  0  0  0  0  0  0  0  0  0  0  0
   22.8537  -11.6623  -16.6226 C   0  0  0  0  0  0  0  0  0  0  0  0
   21.6016  -10.9858  -16.2102 C   0  0  2  0  0  0  0  0  0  0  0  0
   20.3908  -11.7129  -16.3337 N   0  0  0  0  0  0  0  0  0  0  0  0
   21.5523   -9.5712  -16.6845 C   0  0  0  0  0  0  0  0  0  0  0  0
   21.7694   -9.3782  -17.8960 O   0  0  0  0  0  0  0  0  0  0  0  0
   29.5819  -10.4770  -16.4194 N   0  0  0  0  0  0  0  0  0  0  0  0
   21.2809   -8.4738  -15.8366 C   0  0  2  0  0  0  0  0  0  0  0  0
   21.2459   -7.0990  -16.1757 C   0  0  0  0  0  0  0  0  0  0  0  0
   20.1784   -6.2300  -15.6533 C   0  0  0  0  0  0  0  0  0  0  0  0
   18.8270   -6.7971  -15.4529 C   0  0  0  0  0  0  0  0  0  0  0  0
   17.8129   -5.8735  -14.9271 O   0  0  0  0  0  0  0  0  0  0  0  0
   17.0306   -5.2923  -15.6886 C   0  0  0  0  0  0  0  0  0  0  0  0
   22.5996   -6.4159  -16.1112 O   0  0  0  0  0  0  0  0  0  0  0  0
   23.6265   -6.9300  -15.6377 O   0  0  0  0  0  0  0  0  0  0  0  0
   17.6841   -5.6097  -13.5579 O   0  0  0  0  0  0  0  0  0  0  0  0
  2  1  1  1
  2  3  1  0
  3  4  1  0
  4  5  1  0
  5  9  1  0
  5  6  2  0
  7  2  1  0
  7  8  2  0
 10 11  1  0
 11 12  2  0
 13 11  1  0
 13 14  1  0
 14 15  1  0
 17 16  1  6
 16 15  1  0
 17 18  1  0
 18  7  1  0
 19 17  1  0
 20 19  2  0
 21 19  1  0
 22 27  1  0
 22 21  1  0
 23 24  1  0
 22 23  1  1
 24 25  1  0
 25 29  1  0
 25 26  2  0
 27 30  1  0
 28 27  2  0
M  END
$$$$
