ERE.pdb
     RDKit          3D

 30 29  0  0  1  0  0  0  0  0999 V2000
   26.4202  -19.3874  -19.5255 N   0  0  0  0  0  0  0  0  0  0  0  0
   26.3650  -18.5081  -18.3554 C   0  0  1  0  0  0  0  0  0  0  0  0
   25.6500  -17.2286  -18.6967 C   0  0  0  0  0  0  0  0  0  0  0  0
   24.1667  -17.2767  -18.5745 C   0  0  0  0  0  0  0  0  0  0  0  0
   23.6447  -15.9787  -18.0024 C   0  0  0  0  0  0  0  0  0  0  0  0
   24.4785  -15.0750  -17.6996 O   0  0  0  0  0  0  0  0  0  0  0  0
   25.6924  -19.2288  -17.2232 C   0  0  0  0  0  0  0  0  0  0  0  0
   24.8786  -20.1502  -17.4437 O   0  0  0  0  0  0  0  0  0  0  0  0
   22.2838  -15.7984  -17.8200 O   0  0  0  0  0  0  0  0  0  0  0  0
   27.0150  -22.5325  -10.8100 N   0  0  0  0  0  0  0  0  0  0  0  0
   28.1007  -21.6011  -10.9094 C   0  0  0  0  0  0  0  0  0  0  0  0
   29.3067  -22.0303  -10.8416 N   0  0  0  0  0  0  0  0  0  0  0  0
   27.8529  -20.2213  -11.0804 N   0  0  0  0  0  0  0  0  0  0  0  0
   26.5314  -19.6478  -11.0364 C   0  0  0  0  0  0  0  0  0  0  0  0
   25.6963  -20.0394  -12.2543 C   0  0  0  0  0  0  0  0  0  0  0  0
   26.2188  -19.3019  -13.4410 C   0  0  0  0  0  0  0  0  0  0  0  0
   25.4853  -19.5343  -14.7072 C   0  0  2  0  0  0  0  0  0  0  0  0
   25.9631  -18.8828  -15.8722 N   0  0  0  0  0  0  0  0  0  0  0  0
   24.0064  -19.4914  -14.5084 C   0  0  0  0  0  0  0  0  0  0  0  0
   23.4948  -18.3669  -14.3467 O   0  0  0  0  0  0  0  0  0  0  0  0
   30.1138  -21.3662  -10.9589 N   0  0  0  0  0  0  0  0  0  0  0  0
   23.1882  -20.6435  -14.4927 C   0  0  2  0  0  0  0  0  0  0  0  0
   21.8013  -20.7230  -14.2166 C   0  0  0  0  0  0  0  0  0  0  0  0
   21.0324  -21.9177  -14.6024 C   0  0  0  0  0  0  0  0  0  0  0  0
   19.5742  -21.9419  -14.3548 C   0  0  0  0  0  0  0  0  0  0  0  0
   18.8769  -23.1770  -14.7370 O   0  0  0  0  0  0  0  0  0  0  0  0
   19.4967  -24.1274  -15.2292 C   0  0  0  0  0  0  0  0  0  0  0  0
   21.4232  -20.2440  -12.8270 O   0  0  0  0  0  0  0  0  0  0  0  0
   22.1735  -20.2885  -11.8379 O   0  0  0  0  0  0  0  0  0  0  0  0
   17.4963  -23.3366  -14.5651 O   0  0  0  0  0  0  0  0  0  0  0  0
  2  1  1  6
  2  3  1  0
  3  4  1  0
  4  5  1  0
  5  9  1  0
  5  6  2  0
  7  2  1  0
  7  8  2  0
 10 11  1  0
 11 12  2  0
 13 11  1  0
 13 14  1  0
 14 15  1  0
 17 16  1  1
 16 15  1  0
 17 18  1  0
 18  7  1  0
 19 17  1  0
 20 19  2  0
 21 19  1  0
 22 27  1  0
 22 21  1  0
 23 24  1  0
 22 23  1  6
 24 25  1  0
 25 29  1  0
 25 26  2  0
 27 30  1  0
 28 27  2  0
M  END
$$$$
