ERE.pdb
     RDKit          3D

 30 29  0  0  1  0  0  0  0  0999 V2000
   18.1398  -24.8292   -6.3685 N   0  0  0  0  0  0  0  0  0  0  0  0
   18.9043  -24.8425   -7.6178 C   0  0  1  0  0  0  0  0  0  0  0  0
   18.8116  -26.1944   -8.2726 C   0  0  0  0  0  0  0  0  0  0  0  0
   17.4289  -26.7029   -8.4889 C   0  0  0  0  0  0  0  0  0  0  0  0
   16.9616  -26.3743   -9.8883 C   0  0  0  0  0  0  0  0  0  0  0  0
   15.9517  -25.6227  -10.0255 O   0  0  0  0  0  0  0  0  0  0  0  0
   18.3971  -23.7573   -8.5227 C   0  0  0  0  0  0  0  0  0  0  0  0
   17.2243  -23.3390   -8.4264 O   0  0  0  0  0  0  0  0  0  0  0  0
   17.6332  -26.8914  -10.9834 O   0  0  0  0  0  0  0  0  0  0  0  0
   23.4796  -19.8002  -14.2444 N   0  0  0  0  0  0  0  0  0  0  0  0
   22.5703  -20.8533  -14.5914 C   0  0  0  0  0  0  0  0  0  0  0  0
   22.7980  -21.5638  -15.6337 N   0  0  0  0  0  0  0  0  0  0  0  0
   21.4312  -21.1123  -13.7977 N   0  0  0  0  0  0  0  0  0  0  0  0
   20.7507  -20.0916  -13.0412 C   0  0  0  0  0  0  0  0  0  0  0  0
   19.5114  -20.6349  -12.3320 C   0  0  0  0  0  0  0  0  0  0  0  0
   19.9476  -21.6595  -11.3393 C   0  0  0  0  0  0  0  0  0  0  0  0
   18.8669  -22.2389  -10.5076 C   0  0  2  0  0  0  0  0  0  0  0  0
   19.2364  -23.1776   -9.5114 N   0  0  0  0  0  0  0  0  0  0  0  0
   17.6731  -22.6066  -11.3251 C   0  0  0  0  0  0  0  0  0  0  0  0
   17.4603  -23.8228  -11.4911 O   0  0  0  0  0  0  0  0  0  0  0  0
   22.1474  -22.3482  -15.8939 N   0  0  0  0  0  0  0  0  0  0  0  0
   16.8026  -21.6562  -11.9047 C   0  0  1  0  0  0  0  0  0  0  0  0
   15.3952  -21.7350  -12.0432 C   0  0  0  0  0  0  0  0  0  0  0  0
   14.6538  -22.8743  -11.4777 C   0  0  0  0  0  0  0  0  0  0  0  0
   14.3329  -24.0244  -12.3509 C   0  0  0  0  0  0  0  0  0  0  0  0
   12.9402  -24.1157  -12.8092 O   0  0  0  0  0  0  0  0  0  0  0  0
   12.0567  -23.4222  -12.2912 C   0  0  0  0  0  0  0  0  0  0  0  0
   14.6783  -20.4225  -11.7849 O   0  0  0  0  0  0  0  0  0  0  0  0
   13.4438  -20.2900  -11.7444 O   0  0  0  0  0  0  0  0  0  0  0  0
   12.5504  -24.9796  -13.8400 O   0  0  0  0  0  0  0  0  0  0  0  0
  2  1  1  1
  2  3  1  0
  3  4  1  0
  4  5  1  0
  5  9  1  0
  5  6  2  0
  7  2  1  0
  7  8  2  0
 10 11  1  0
 11 12  2  0
 13 11  1  0
 13 14  1  0
 14 15  1  0
 17 16  1  6
 16 15  1  0
 17 18  1  0
 18  7  1  0
 19 17  1  0
 20 19  2  0
 21 19  1  0
 22 27  1  0
 22 21  1  0
 23 24  1  0
 22 23  1  6
 24 25  1  0
 25 29  1  0
 25 26  2  0
 27 30  1  0
 28 27  2  0
M  END
$$$$
