ERE.pdb
     RDKit          3D

 30 29  0  0  1  0  0  0  0  0999 V2000
   17.2302  -11.7772  -15.1961 N   0  0  0  0  0  0  0  0  0  0  0  0
   17.8259  -10.8813  -16.1901 C   0  0  1  0  0  0  0  0  0  0  0  0
   16.8540   -9.7943  -16.5627 C   0  0  0  0  0  0  0  0  0  0  0  0
   15.4532  -10.2447  -16.7917 C   0  0  0  0  0  0  0  0  0  0  0  0
   14.6086   -9.0970  -17.2958 C   0  0  0  0  0  0  0  0  0  0  0  0
   13.7809   -9.3216  -18.2274 O   0  0  0  0  0  0  0  0  0  0  0  0
   19.1038  -10.3130  -15.6446 C   0  0  0  0  0  0  0  0  0  0  0  0
   19.1586   -9.8597  -14.4821 O   0  0  0  0  0  0  0  0  0  0  0  0
   14.7494   -7.8359  -16.7410 O   0  0  0  0  0  0  0  0  0  0  0  0
   27.6067  -12.4695  -16.9320 N   0  0  0  0  0  0  0  0  0  0  0  0
   27.6575  -11.1479  -16.3781 C   0  0  0  0  0  0  0  0  0  0  0  0
   28.7921  -10.6379  -16.0688 N   0  0  0  0  0  0  0  0  0  0  0  0
   26.4728  -10.4074  -16.1713 N   0  0  0  0  0  0  0  0  0  0  0  0
   25.1706  -10.8784  -16.5709 C   0  0  0  0  0  0  0  0  0  0  0  0
   24.0641   -9.8976  -16.1868 C   0  0  0  0  0  0  0  0  0  0  0  0
   22.7509  -10.4986  -16.5602 C   0  0  0  0  0  0  0  0  0  0  0  0
   21.5570   -9.7826  -16.0529 C   0  0  2  0  0  0  0  0  0  0  0  0
   20.2838  -10.2756  -16.4347 N   0  0  0  0  0  0  0  0  0  0  0  0
   21.7223   -8.3010  -16.1327 C   0  0  0  0  0  0  0  0  0  0  0  0
   22.0885   -7.8361  -17.2290 O   0  0  0  0  0  0  0  0  0  0  0  0
   28.8491   -9.6554  -15.6977 N   0  0  0  0  0  0  0  0  0  0  0  0
   21.4901   -7.4310  -15.0436 C   0  0  1  0  0  0  0  0  0  0  0  0
   21.6737   -6.0274  -14.9959 C   0  0  0  0  0  0  0  0  0  0  0  0
   20.5115   -5.1237  -14.9996 C   0  0  0  0  0  0  0  0  0  0  0  0
   19.4986   -5.2639  -16.0686 C   0  0  0  0  0  0  0  0  0  0  0  0
   18.3737   -4.3207  -16.0171 O   0  0  0  0  0  0  0  0  0  0  0  0
   18.2241   -3.5662  -15.0486 C   0  0  0  0  0  0  0  0  0  0  0  0
   22.7227   -5.5789  -13.9949 O   0  0  0  0  0  0  0  0  0  0  0  0
   23.1160   -4.4079  -13.8633 O   0  0  0  0  0  0  0  0  0  0  0  0
   17.4292   -4.2308  -17.0471 O   0  0  0  0  0  0  0  0  0  0  0  0
  2  1  1  1
  2  3  1  0
  3  4  1  0
  4  5  1  0
  5  9  1  0
  5  6  2  0
  7  2  1  0
  7  8  2  0
 10 11  1  0
 11 12  2  0
 13 11  1  0
 13 14  1  0
 14 15  1  0
 17 16  1  6
 16 15  1  0
 17 18  1  0
 18  7  1  0
 19 17  1  0
 20 19  2  0
 21 19  1  0
 22 27  1  0
 22 21  1  0
 23 24  1  0
 22 23  1  1
 24 25  1  0
 25 29  1  0
 25 26  2  0
 27 30  1  0
 28 27  2  0
M  END
$$$$
