ERE.pdb
     RDKit          3D

 30 29  0  0  1  0  0  0  0  0999 V2000
   19.9061  -11.6526  -17.6322 N   0  0  0  0  0  0  0  0  0  0  0  0
   20.3096  -11.3540  -16.2561 C   0  0  1  0  0  0  0  0  0  0  0  0
   21.8047  -11.4541  -16.1168 C   0  0  0  0  0  0  0  0  0  0  0  0
   22.3594  -12.8341  -16.1888 C   0  0  0  0  0  0  0  0  0  0  0  0
   23.8665  -12.8005  -16.0790 C   0  0  0  0  0  0  0  0  0  0  0  0
   24.4936  -13.9004  -16.0522 O   0  0  0  0  0  0  0  0  0  0  0  0
   19.8121   -9.9893  -15.8772 C   0  0  0  0  0  0  0  0  0  0  0  0
   19.9392   -9.0217  -16.6566 O   0  0  0  0  0  0  0  0  0  0  0  0
   24.5303  -11.5870  -16.0100 O   0  0  0  0  0  0  0  0  0  0  0  0
   14.6859   -9.2402   -9.3558 N   0  0  0  0  0  0  0  0  0  0  0  0
   15.4791   -8.0461   -9.3244 C   0  0  0  0  0  0  0  0  0  0  0  0
   15.3750   -7.2470   -8.3277 N   0  0  0  0  0  0  0  0  0  0  0  0
   16.3699   -7.7450  -10.3783 N   0  0  0  0  0  0  0  0  0  0  0  0
   15.9329   -7.4746  -11.7249 C   0  0  0  0  0  0  0  0  0  0  0  0
   17.1083   -7.2397  -12.6720 C   0  0  0  0  0  0  0  0  0  0  0  0
   17.6655   -8.5651  -13.0697 C   0  0  0  0  0  0  0  0  0  0  0  0
   18.7233   -8.5247  -14.1064 C   0  0  2  0  0  0  0  0  0  0  0  0
   19.1838   -9.7618  -14.6236 N   0  0  0  0  0  0  0  0  0  0  0  0
   19.7872   -7.5309  -13.7760 C   0  0  0  0  0  0  0  0  0  0  0  0
   20.6517   -7.8879  -12.9530 O   0  0  0  0  0  0  0  0  0  0  0  0
   16.0209   -6.4215   -8.2394 N   0  0  0  0  0  0  0  0  0  0  0  0
   19.8477   -6.2370  -14.3408 C   0  0  2  0  0  0  0  0  0  0  0  0
   20.7574   -5.1951  -14.0354 C   0  0  0  0  0  0  0  0  0  0  0  0
   20.7392   -3.9409  -14.8061 C   0  0  0  0  0  0  0  0  0  0  0  0
   21.8046   -2.9415  -14.5730 C   0  0  0  0  0  0  0  0  0  0  0  0
   21.7006   -1.6974  -15.3472 O   0  0  0  0  0  0  0  0  0  0  0  0
   20.7854   -1.5342  -16.1629 C   0  0  0  0  0  0  0  0  0  0  0  0
   20.9125   -4.9314  -12.5489 O   0  0  0  0  0  0  0  0  0  0  0  0
   19.9706   -4.8759  -11.7410 O   0  0  0  0  0  0  0  0  0  0  0  0
   22.6191   -0.6505  -15.2015 O   0  0  0  0  0  0  0  0  0  0  0  0
  2  1  1  6
  2  3  1  0
  3  4  1  0
  4  5  1  0
  5  9  1  0
  5  6  2  0
  7  2  1  0
  7  8  2  0
 10 11  1  0
 11 12  2  0
 13 11  1  0
 13 14  1  0
 14 15  1  0
 17 16  1  1
 16 15  1  0
 17 18  1  0
 18  7  1  0
 19 17  1  0
 20 19  2  0
 21 19  1  0
 22 27  1  0
 22 21  1  0
 23 24  1  0
 22 23  1  6
 24 25  1  0
 25 29  1  0
 25 26  2  0
 27 30  1  0
 28 27  2  0
M  END
$$$$
