GYM.pdb
     RDKit          3D

 25 25  0  0  1  0  0  0  0  0999 V2000
   21.0552  -19.2963  -15.6564 N   0  0  0  0  0  0  0  0  0  0  0  0
   21.5707  -20.6237  -15.9726 C   0  0  0  0  0  0  0  0  0  0  0  0
   23.0029  -20.6990  -15.5571 C   0  0  0  0  0  0  0  0  0  0  0  0
   23.6343  -19.6246  -15.3616 O   0  0  0  0  0  0  0  0  0  0  0  0
   23.0548  -20.1881   -8.9718 O   0  0  0  0  0  0  0  0  0  0  0  0
   23.5653  -20.8221  -10.1171 C   0  0  0  0  0  0  0  0  0  0  0  0
   24.9175  -20.9304  -10.3240 C   0  0  0  0  0  0  0  0  0  0  0  0
   25.4056  -21.5523  -11.4472 C   0  0  0  0  0  0  0  0  0  0  0  0
   24.5915  -22.0964  -12.4189 C   0  0  0  0  0  0  0  0  0  0  0  0
   25.1183  -22.7274  -13.6239 C   0  0  0  0  0  0  0  0  0  0  0  0
   25.0855  -21.9802  -14.8933 C   0  0  2  0  0  0  0  0  0  0  0  0
   23.6798  -21.9231  -15.3741 N   0  0  0  0  0  0  0  0  0  0  0  0
   25.8681  -22.4471  -16.0213 C   0  0  0  0  0  0  0  0  0  0  0  0
   25.4250  -23.3253  -16.8500 O   0  0  0  0  0  0  0  0  0  0  0  0
   23.2369  -21.9817  -12.2001 C   0  0  0  0  0  0  0  0  0  0  0  0
   22.7269  -21.3564  -11.0707 C   0  0  0  0  0  0  0  0  0  0  0  0
   26.5175  -20.7103  -21.2731 C   0  0  0  0  0  0  0  0  0  0  0  0
   28.3237  -20.9859  -21.2091 S   0  0  0  0  0  0  0  0  0  0  0  0
   28.7150  -21.9841  -19.7389 C   0  0  0  0  0  0  0  0  0  0  0  0
   27.9429  -21.5147  -18.5542 C   0  0  0  0  0  0  0  0  0  0  0  0
   27.9742  -22.5057  -17.4081 C   0  0  2  0  0  0  0  0  0  0  0  0
   27.1711  -21.9811  -16.3124 N   0  0  0  0  0  0  0  0  0  0  0  0
   29.3319  -22.8989  -17.0225 C   0  0  0  0  0  0  0  0  0  0  0  0
   30.0509  -23.5100  -17.8448 O   0  0  0  0  0  0  0  0  0  0  0  0
   29.8872  -22.6359  -15.7859 O   0  0  0  0  0  0  0  0  0  0  0  0
  1  2  1  0
  3 12  1  0
  3  2  1  0
  4  3  2  0
  6  5  1  0
  7  6  2  0
  8  7  1  0
  9  8  2  0
  9 15  1  0
 10  9  1  0
 11 10  1  1
 11 12  1  0
 13 14  2  0
 13 11  1  0
 15 16  2  0
 16  6  1  0
 18 17  1  0
 19 18  1  0
 20 19  1  0
 21 20  1  6
 21 22  1  0
 22 13  1  0
 23 21  1  0
 24 23  2  0
 25 23  1  0
M  END
$$$$
