GYM.pdb
     RDKit          3D

 25 25  0  0  1  0  0  0  0  0999 V2000
   19.6891  -32.7638  -10.7887 N   0  0  0  0  0  0  0  0  0  0  0  0
   20.0764  -31.7592   -9.8046 C   0  0  0  0  0  0  0  0  0  0  0  0
   20.6900  -32.4443   -8.6284 C   0  0  0  0  0  0  0  0  0  0  0  0
   20.8984  -33.6868   -8.6918 O   0  0  0  0  0  0  0  0  0  0  0  0
   27.2278  -33.4231   -9.6428 O   0  0  0  0  0  0  0  0  0  0  0  0
   26.2009  -33.0318   -8.7673 C   0  0  0  0  0  0  0  0  0  0  0  0
   25.7034  -33.8977   -7.8261 C   0  0  0  0  0  0  0  0  0  0  0  0
   24.6993  -33.5045   -6.9754 C   0  0  0  0  0  0  0  0  0  0  0  0
   24.1368  -32.2454   -7.0076 C   0  0  0  0  0  0  0  0  0  0  0  0
   23.0493  -31.8465   -6.1210 C   0  0  0  0  0  0  0  0  0  0  0  0
   21.7168  -32.4454   -6.3121 C   0  0  2  0  0  0  0  0  0  0  0  0
   21.0466  -31.7590   -7.4479 N   0  0  0  0  0  0  0  0  0  0  0  0
   20.7596  -32.4287   -5.2227 C   0  0  0  0  0  0  0  0  0  0  0  0
   19.9418  -31.4530   -5.0401 O   0  0  0  0  0  0  0  0  0  0  0  0
   24.6442  -31.3856   -7.9559 C   0  0  0  0  0  0  0  0  0  0  0  0
   25.6585  -31.7667   -8.8234 C   0  0  0  0  0  0  0  0  0  0  0  0
   17.7041  -37.6577   -2.6845 C   0  0  0  0  0  0  0  0  0  0  0  0
   18.0535  -36.6708   -1.1859 S   0  0  0  0  0  0  0  0  0  0  0  0
   18.3588  -34.9451   -1.6756 C   0  0  0  0  0  0  0  0  0  0  0  0
   19.3845  -34.8697   -2.7537 C   0  0  0  0  0  0  0  0  0  0  0  0
   19.6701  -33.4463   -3.1881 C   0  0  2  0  0  0  0  0  0  0  0  0
   20.6361  -33.4732   -4.2775 N   0  0  0  0  0  0  0  0  0  0  0  0
   20.0432  -32.5679   -2.0765 C   0  0  0  0  0  0  0  0  0  0  0  0
   21.2542  -32.3656   -1.8338 O   0  0  0  0  0  0  0  0  0  0  0  0
   19.1304  -31.9319   -1.2586 O   0  0  0  0  0  0  0  0  0  0  0  0
  1  2  1  0
  3 12  1  0
  3  2  1  0
  4  3  2  0
  6  5  1  0
  7  6  2  0
  8  7  1  0
  9  8  2  0
  9 15  1  0
 10  9  1  0
 11 10  1  1
 11 12  1  0
 13 14  2  0
 13 11  1  0
 15 16  2  0
 16  6  1  0
 18 17  1  0
 19 18  1  0
 20 19  1  0
 21 20  1  1
 21 22  1  0
 22 13  1  0
 23 21  1  0
 24 23  2  0
 25 23  1  0
M  END
$$$$
