GYM.pdb
     RDKit          3D

 25 25  0  0  1  0  0  0  0  0999 V2000
   28.2072  -23.3640  -17.3389 N   0  0  0  0  0  0  0  0  0  0  0  0
   27.5390  -22.0880  -17.1085 C   0  0  0  0  0  0  0  0  0  0  0  0
   26.6738  -22.2057  -15.8973 C   0  0  0  0  0  0  0  0  0  0  0  0
   26.2588  -23.3476  -15.5579 O   0  0  0  0  0  0  0  0  0  0  0  0
   24.1193  -20.6268   -7.5029 O   0  0  0  0  0  0  0  0  0  0  0  0
   24.5978  -20.5671   -8.8226 C   0  0  0  0  0  0  0  0  0  0  0  0
   25.8092  -21.1149   -9.1629 C   0  0  0  0  0  0  0  0  0  0  0  0
   26.2672  -21.0506  -10.4562 C   0  0  0  0  0  0  0  0  0  0  0  0
   25.5598  -20.4471  -11.4751 C   0  0  0  0  0  0  0  0  0  0  0  0
   26.0681  -20.3560  -12.8393 C   0  0  0  0  0  0  0  0  0  0  0  0
   25.4972  -21.2362  -13.8737 C   0  0  2  0  0  0  0  0  0  0  0  0
   26.3008  -21.0918  -15.1161 N   0  0  0  0  0  0  0  0  0  0  0  0
   24.1148  -21.0659  -14.2777 C   0  0  0  0  0  0  0  0  0  0  0  0
   23.7502  -20.1662  -15.1214 O   0  0  0  0  0  0  0  0  0  0  0  0
   24.3461  -19.9012  -11.1215 C   0  0  0  0  0  0  0  0  0  0  0  0
   23.8684  -19.9573   -9.8195 C   0  0  0  0  0  0  0  0  0  0  0  0
   16.7346  -23.9849  -14.2334 C   0  0  0  0  0  0  0  0  0  0  0  0
   18.4957  -24.2414  -13.8155 S   0  0  0  0  0  0  0  0  0  0  0  0
   19.4120  -22.7077  -14.1612 C   0  0  0  0  0  0  0  0  0  0  0  0
   20.8695  -22.8887  -13.9104 C   0  0  0  0  0  0  0  0  0  0  0  0
   21.6577  -21.6092  -14.1054 C   0  0  2  0  0  0  0  0  0  0  0  0
   23.0561  -21.8672  -13.7913 N   0  0  0  0  0  0  0  0  0  0  0  0
   21.0841  -20.4642  -13.3937 C   0  0  0  0  0  0  0  0  0  0  0  0
   21.3540  -20.2959  -12.1832 O   0  0  0  0  0  0  0  0  0  0  0  0
   20.2467  -19.5353  -13.9790 O   0  0  0  0  0  0  0  0  0  0  0  0
  1  2  1  0
  3 12  1  0
  3  2  1  0
  4  3  2  0
  6  5  1  0
  7  6  2  0
  8  7  1  0
  9  8  2  0
  9 15  1  0
 10  9  1  0
 11 10  1  1
 11 12  1  0
 13 14  2  0
 13 11  1  0
 15 16  2  0
 16  6  1  0
 18 17  1  0
 19 18  1  0
 20 19  1  0
 21 20  1  1
 21 22  1  0
 22 13  1  0
 23 21  1  0
 24 23  2  0
 25 23  1  0
M  END
$$$$
