GYM.pdb
     RDKit          3D

 25 25  0  0  1  0  0  0  0  0999 V2000
   24.4750  -20.1812  -17.8906 N   0  0  0  0  0  0  0  0  0  0  0  0
   23.1753  -19.6223  -17.5354 C   0  0  0  0  0  0  0  0  0  0  0  0
   22.9005  -19.9110  -16.0965 C   0  0  0  0  0  0  0  0  0  0  0  0
   23.7478  -20.5756  -15.4394 O   0  0  0  0  0  0  0  0  0  0  0  0
   18.3305  -13.9566  -14.2369 O   0  0  0  0  0  0  0  0  0  0  0  0
   19.1771  -15.0544  -14.0081 C   0  0  0  0  0  0  0  0  0  0  0  0
   19.0644  -15.8112  -12.8689 C   0  0  0  0  0  0  0  0  0  0  0  0
   19.8973  -16.8822  -12.6555 C   0  0  0  0  0  0  0  0  0  0  0  0
   20.8786  -17.2608  -13.5481 C   0  0  0  0  0  0  0  0  0  0  0  0
   21.7794  -18.3808  -13.2987 C   0  0  0  0  0  0  0  0  0  0  0  0
   21.5295  -19.6629  -13.9804 C   0  0  2  0  0  0  0  0  0  0  0  0
   21.7315  -19.4711  -15.4407 N   0  0  0  0  0  0  0  0  0  0  0  0
   20.2382  -20.3085  -13.8436 C   0  0  0  0  0  0  0  0  0  0  0  0
   19.3088  -20.1820  -14.7236 O   0  0  0  0  0  0  0  0  0  0  0  0
   20.9819  -16.4942  -14.6872 C   0  0  0  0  0  0  0  0  0  0  0  0
   20.1484  -15.4086  -14.9185 C   0  0  0  0  0  0  0  0  0  0  0  0
   18.9057  -24.5492   -9.0582 C   0  0  0  0  0  0  0  0  0  0  0  0
   17.3982  -24.7493  -10.0729 S   0  0  0  0  0  0  0  0  0  0  0  0
   17.2644  -23.3372  -11.2128 C   0  0  0  0  0  0  0  0  0  0  0  0
   18.6108  -22.8015  -11.5592 C   0  0  0  0  0  0  0  0  0  0  0  0
   18.5445  -21.6483  -12.5402 C   0  0  2  0  0  0  0  0  0  0  0  0
   19.8898  -21.1303  -12.7468 N   0  0  0  0  0  0  0  0  0  0  0  0
   17.5599  -20.6296  -12.1671 C   0  0  0  0  0  0  0  0  0  0  0  0
   17.9326  -19.6209  -11.5267 O   0  0  0  0  0  0  0  0  0  0  0  0
   16.2172  -20.7060  -12.4806 O   0  0  0  0  0  0  0  0  0  0  0  0
  1  2  1  0
  3 12  1  0
  3  2  1  0
  4  3  2  0
  6  5  1  0
  7  6  2  0
  8  7  1  0
  9  8  2  0
  9 15  1  0
 10  9  1  0
 11 10  1  1
 11 12  1  0
 13 14  2  0
 13 11  1  0
 15 16  2  0
 16  6  1  0
 18 17  1  0
 19 18  1  0
 20 19  1  0
 21 20  1  1
 21 22  1  0
 22 13  1  0
 23 21  1  0
 24 23  2  0
 25 23  1  0
M  END
$$$$
