GYM.pdb
     RDKit          3D

 25 25  0  0  1  0  0  0  0  0999 V2000
   27.2525  -22.3211  -16.2831 N   0  0  0  0  0  0  0  0  0  0  0  0
   26.0625  -21.7230  -16.8781 C   0  0  0  0  0  0  0  0  0  0  0  0
   25.4335  -20.8035  -15.8840 C   0  0  0  0  0  0  0  0  0  0  0  0
   25.9873  -20.6558  -14.7603 O   0  0  0  0  0  0  0  0  0  0  0  0
   19.4303  -17.5788  -19.9121 O   0  0  0  0  0  0  0  0  0  0  0  0
   20.4059  -17.6578  -18.9041 C   0  0  0  0  0  0  0  0  0  0  0  0
   20.0774  -17.4776  -17.5839 C   0  0  0  0  0  0  0  0  0  0  0  0
   21.0393  -17.5570  -16.6067 C   0  0  0  0  0  0  0  0  0  0  0  0
   22.3667  -17.8167  -16.8779 C   0  0  0  0  0  0  0  0  0  0  0  0
   23.3870  -17.8684  -15.8366 C   0  0  0  0  0  0  0  0  0  0  0  0
   23.6539  -19.1509  -15.1622 C   0  0  2  0  0  0  0  0  0  0  0  0
   24.2444  -20.0924  -16.1496 N   0  0  0  0  0  0  0  0  0  0  0  0
   22.5634  -19.8722  -14.5347 C   0  0  0  0  0  0  0  0  0  0  0  0
   21.9207  -20.8090  -15.1377 O   0  0  0  0  0  0  0  0  0  0  0  0
   22.6840  -17.9959  -18.2057 C   0  0  0  0  0  0  0  0  0  0  0  0
   21.7245  -17.9188  -19.2057 C   0  0  0  0  0  0  0  0  0  0  0  0
   19.4648  -22.4538   -7.7883 C   0  0  0  0  0  0  0  0  0  0  0  0
   20.7289  -21.4241   -8.6153 S   0  0  0  0  0  0  0  0  0  0  0  0
   20.2676  -21.2168  -10.3633 C   0  0  0  0  0  0  0  0  0  0  0  0
   21.2803  -20.3997  -11.0892 C   0  0  0  0  0  0  0  0  0  0  0  0
   21.0422  -20.3712  -12.5855 C   0  0  2  0  0  0  0  0  0  0  0  0
   22.1168  -19.6183  -13.2172 N   0  0  0  0  0  0  0  0  0  0  0  0
   19.6974  -19.9159  -12.9470 C   0  0  0  0  0  0  0  0  0  0  0  0
   18.7891  -20.7598  -13.1187 O   0  0  0  0  0  0  0  0  0  0  0  0
   19.3535  -18.5892  -13.1151 O   0  0  0  0  0  0  0  0  0  0  0  0
  1  2  1  0
  3 12  1  0
  3  2  1  0
  4  3  2  0
  6  5  1  0
  7  6  2  0
  8  7  1  0
  9  8  2  0
  9 15  1  0
 10  9  1  0
 11 10  1  6
 11 12  1  0
 13 14  2  0
 13 11  1  0
 15 16  2  0
 16  6  1  0
 18 17  1  0
 19 18  1  0
 20 19  1  0
 21 20  1  1
 21 22  1  0
 22 13  1  0
 23 21  1  0
 24 23  2  0
 25 23  1  0
M  END
$$$$
