GYM.pdb
     RDKit          3D

 25 25  0  0  1  0  0  0  0  0999 V2000
   24.3794  -33.6531  -15.0864 N   0  0  0  0  0  0  0  0  0  0  0  0
   23.9695  -32.7563  -14.0114 C   0  0  0  0  0  0  0  0  0  0  0  0
   24.3812  -33.3475  -12.7036 C   0  0  0  0  0  0  0  0  0  0  0  0
   25.0213  -34.4345  -12.7048 O   0  0  0  0  0  0  0  0  0  0  0  0
   27.5314  -33.3944   -4.3453 O   0  0  0  0  0  0  0  0  0  0  0  0
   27.0204  -33.1440   -5.6299 C   0  0  0  0  0  0  0  0  0  0  0  0
   27.6431  -33.6370   -6.7490 C   0  0  0  0  0  0  0  0  0  0  0  0
   27.1348  -33.3861   -8.0001 C   0  0  0  0  0  0  0  0  0  0  0  0
   25.9935  -32.6409   -8.2121 C   0  0  0  0  0  0  0  0  0  0  0  0
   25.4782  -32.3530   -9.5461 C   0  0  0  0  0  0  0  0  0  0  0  0
   24.5538  -33.3119  -10.1761 C   0  0  2  0  0  0  0  0  0  0  0  0
   24.0835  -32.7404  -11.4655 N   0  0  0  0  0  0  0  0  0  0  0  0
   23.3568  -33.7249   -9.4693 C   0  0  0  0  0  0  0  0  0  0  0  0
   22.3703  -32.9262   -9.2611 O   0  0  0  0  0  0  0  0  0  0  0  0
   25.3776  -32.1517   -7.0819 C   0  0  0  0  0  0  0  0  0  0  0  0
   25.8779  -32.3958   -5.8103 C   0  0  0  0  0  0  0  0  0  0  0  0
   23.0844  -39.3932   -5.2208 C   0  0  0  0  0  0  0  0  0  0  0  0
   23.5945  -37.7398   -4.6305 S   0  0  0  0  0  0  0  0  0  0  0  0
   22.6426  -36.4750   -5.5278 C   0  0  0  0  0  0  0  0  0  0  0  0
   23.3343  -36.0799   -6.7870 C   0  0  0  0  0  0  0  0  0  0  0  0
   22.4371  -35.2961   -7.7236 C   0  0  2  0  0  0  0  0  0  0  0  0
   23.1652  -35.0285   -8.9560 N   0  0  0  0  0  0  0  0  0  0  0  0
   21.8529  -34.1055   -7.1009 C   0  0  0  0  0  0  0  0  0  0  0  0
   21.0557  -34.2409   -6.1456 O   0  0  0  0  0  0  0  0  0  0  0  0
   22.1272  -32.8135   -7.5036 O   0  0  0  0  0  0  0  0  0  0  0  0
  1  2  1  0
  3 12  1  0
  3  2  1  0
  4  3  2  0
  6  5  1  0
  7  6  2  0
  8  7  1  0
  9  8  2  0
  9 15  1  0
 10  9  1  0
 11 10  1  1
 11 12  1  0
 13 14  2  0
 13 11  1  0
 15 16  2  0
 16  6  1  0
 18 17  1  0
 19 18  1  0
 20 19  1  0
 21 20  1  1
 21 22  1  0
 22 13  1  0
 23 21  1  0
 24 23  2  0
 25 23  1  0
M  END
$$$$
