GYM.pdb
     RDKit          3D

 25 25  0  0  1  0  0  0  0  0999 V2000
   16.1009  -19.9303    2.1454 N   0  0  0  0  0  0  0  0  0  0  0  0
   15.7117  -19.2863    3.3951 C   0  0  0  0  0  0  0  0  0  0  0  0
   16.7283  -18.2495    3.7431 C   0  0  0  0  0  0  0  0  0  0  0  0
   17.3509  -17.6740    2.8091 O   0  0  0  0  0  0  0  0  0  0  0  0
   19.5694  -10.4071    5.8377 O   0  0  0  0  0  0  0  0  0  0  0  0
   19.0070  -11.6708    5.5909 C   0  0  0  0  0  0  0  0  0  0  0  0
   19.4384  -12.4465    4.5442 C   0  0  0  0  0  0  0  0  0  0  0  0
   18.8816  -13.6803    4.3121 C   0  0  0  0  0  0  0  0  0  0  0  0
   17.8769  -14.2108    5.0945 C   0  0  0  0  0  0  0  0  0  0  0  0
   17.2697  -15.5089    4.8219 C   0  0  0  0  0  0  0  0  0  0  0  0
   17.8814  -16.7182    5.3998 C   0  0  2  0  0  0  0  0  0  0  0  0
   17.0217  -17.8867    5.0744 N   0  0  0  0  0  0  0  0  0  0  0  0
   18.1178  -16.7900    6.8288 C   0  0  0  0  0  0  0  0  0  0  0  0
   17.2496  -17.2712    7.6467 O   0  0  0  0  0  0  0  0  0  0  0  0
   17.4526  -13.4235    6.1414 C   0  0  0  0  0  0  0  0  0  0  0  0
   18.0044  -12.1744    6.3901 C   0  0  0  0  0  0  0  0  0  0  0  0
   24.2239  -18.9910    9.6181 C   0  0  0  0  0  0  0  0  0  0  0  0
   23.4665  -17.3576    9.3012 S   0  0  0  0  0  0  0  0  0  0  0  0
   21.6599  -17.5060    9.4593 C   0  0  0  0  0  0  0  0  0  0  0  0
   20.9907  -16.2051    9.1764 C   0  0  0  0  0  0  0  0  0  0  0  0
   19.5114  -16.3614    8.8871 C   0  0  2  0  0  0  0  0  0  0  0  0
   19.3116  -16.3482    7.4446 N   0  0  0  0  0  0  0  0  0  0  0  0
   18.6766  -15.4043    9.6174 C   0  0  0  0  0  0  0  0  0  0  0  0
   18.4577  -14.2765    9.1207 O   0  0  0  0  0  0  0  0  0  0  0  0
   18.1001  -15.6657   10.8447 O   0  0  0  0  0  0  0  0  0  0  0  0
  1  2  1  0
  3 12  1  0
  3  2  1  0
  4  3  2  0
  6  5  1  0
  7  6  2  0
  8  7  1  0
  9  8  2  0
  9 15  1  0
 10  9  1  0
 11 10  1  1
 11 12  1  0
 13 14  2  0
 13 11  1  0
 15 16  2  0
 16  6  1  0
 18 17  1  0
 19 18  1  0
 20 19  1  0
 21 20  1  6
 21 22  1  0
 22 13  1  0
 23 21  1  0
 24 23  2  0
 25 23  1  0
M  END
$$$$
