GYM.pdb
     RDKit          3D

 25 25  0  0  1  0  0  0  0  0999 V2000
   27.2719  -24.9378  -17.1835 N   0  0  0  0  0  0  0  0  0  0  0  0
   27.0466  -23.5091  -16.9942 C   0  0  0  0  0  0  0  0  0  0  0  0
   26.2229  -23.3070  -15.7653 C   0  0  0  0  0  0  0  0  0  0  0  0
   25.7114  -24.3155  -15.2063 O   0  0  0  0  0  0  0  0  0  0  0  0
   23.8903  -20.2690   -7.7969 O   0  0  0  0  0  0  0  0  0  0  0  0
   24.3658  -20.4041   -9.1121 C   0  0  0  0  0  0  0  0  0  0  0  0
   23.6510  -19.9178  -10.1778 C   0  0  0  0  0  0  0  0  0  0  0  0
   24.1254  -20.0555  -11.4594 C   0  0  0  0  0  0  0  0  0  0  0  0
   25.3215  -20.6755  -11.7556 C   0  0  0  0  0  0  0  0  0  0  0  0
   25.8026  -20.8449  -13.1223 C   0  0  0  0  0  0  0  0  0  0  0  0
   25.1594  -21.8507  -13.9857 C   0  0  2  0  0  0  0  0  0  0  0  0
   25.9928  -22.0338  -15.2031 N   0  0  0  0  0  0  0  0  0  0  0  0
   23.8086  -21.6273  -14.4640 C   0  0  0  0  0  0  0  0  0  0  0  0
   23.5537  -20.8894  -15.4861 O   0  0  0  0  0  0  0  0  0  0  0  0
   26.0296  -21.1592  -10.6783 C   0  0  0  0  0  0  0  0  0  0  0  0
   25.5648  -21.0286   -9.3770 C   0  0  0  0  0  0  0  0  0  0  0  0
   19.1119  -25.8532  -15.4119 C   0  0  0  0  0  0  0  0  0  0  0  0
   18.1384  -24.5107  -14.6424 S   0  0  0  0  0  0  0  0  0  0  0  0
   19.0917  -22.9636  -14.7371 C   0  0  0  0  0  0  0  0  0  0  0  0
   20.4734  -23.1553  -14.2135 C   0  0  0  0  0  0  0  0  0  0  0  0
   21.3062  -21.8916  -14.2899 C   0  0  2  0  0  0  0  0  0  0  0  0
   22.6638  -22.1979  -13.8611 N   0  0  0  0  0  0  0  0  0  0  0  0
   20.6977  -20.7567  -13.5913 C   0  0  0  0  0  0  0  0  0  0  0  0
   20.2215  -19.8097  -14.2570 O   0  0  0  0  0  0  0  0  0  0  0  0
   20.6103  -20.6563  -12.2169 O   0  0  0  0  0  0  0  0  0  0  0  0
  1  2  1  0
  3 12  1  0
  3  2  1  0
  4  3  2  0
  6  5  1  0
  7  6  2  0
  8  7  1  0
  9  8  2  0
  9 15  1  0
 10  9  1  0
 11 10  1  6
 11 12  1  0
 13 14  2  0
 13 11  1  0
 15 16  2  0
 16  6  1  0
 18 17  1  0
 19 18  1  0
 20 19  1  0
 21 20  1  1
 21 22  1  0
 22 13  1  0
 23 21  1  0
 24 23  2  0
 25 23  1  0
M  END
$$$$
