GYM.pdb
     RDKit          3D

 25 25  0  0  1  0  0  0  0  0999 V2000
   27.4114  -21.8840  -18.3741 N   0  0  0  0  0  0  0  0  0  0  0  0
   27.7796  -20.9349  -17.3293 C   0  0  0  0  0  0  0  0  0  0  0  0
   27.0074  -21.2530  -16.0916 C   0  0  0  0  0  0  0  0  0  0  0  0
   26.1048  -22.1322  -16.1498 O   0  0  0  0  0  0  0  0  0  0  0  0
   24.6535  -20.4542   -7.3666 O   0  0  0  0  0  0  0  0  0  0  0  0
   25.2733  -20.4712   -8.6274 C   0  0  0  0  0  0  0  0  0  0  0  0
   25.2775  -21.6053   -9.4001 C   0  0  0  0  0  0  0  0  0  0  0  0
   25.8864  -21.6106  -10.6312 C   0  0  0  0  0  0  0  0  0  0  0  0
   26.5190  -20.5054  -11.1617 C   0  0  0  0  0  0  0  0  0  0  0  0
   27.1902  -20.5290  -12.4566 C   0  0  0  0  0  0  0  0  0  0  0  0
   26.4118  -20.8793  -13.6575 C   0  0  2  0  0  0  0  0  0  0  0  0
   27.2457  -20.6103  -14.8586 N   0  0  0  0  0  0  0  0  0  0  0  0
   25.1420  -20.2244  -13.9058 C   0  0  0  0  0  0  0  0  0  0  0  0
   25.0625  -19.0578  -14.4415 O   0  0  0  0  0  0  0  0  0  0  0  0
   26.5081  -19.3737  -10.3774 C   0  0  0  0  0  0  0  0  0  0  0  0
   25.8974  -19.3512   -9.1311 C   0  0  0  0  0  0  0  0  0  0  0  0
   22.1567  -19.8661  -18.2632 C   0  0  0  0  0  0  0  0  0  0  0  0
   20.6259  -19.4854  -17.3391 S   0  0  0  0  0  0  0  0  0  0  0  0
   21.0155  -19.4025  -15.5635 C   0  0  0  0  0  0  0  0  0  0  0  0
   22.2993  -20.0977  -15.2658 C   0  0  0  0  0  0  0  0  0  0  0  0
   22.6250  -20.1115  -13.7859 C   0  0  2  0  0  0  0  0  0  0  0  0
   23.8912  -20.8040  -13.5908 N   0  0  0  0  0  0  0  0  0  0  0  0
   21.5285  -20.6212  -12.9587 C   0  0  0  0  0  0  0  0  0  0  0  0
   21.5036  -21.8344  -12.6518 O   0  0  0  0  0  0  0  0  0  0  0  0
   20.4959  -19.8380  -12.4822 O   0  0  0  0  0  0  0  0  0  0  0  0
  1  2  1  0
  3 12  1  0
  3  2  1  0
  4  3  2  0
  6  5  1  0
  7  6  2  0
  8  7  1  0
  9  8  2  0
  9 15  1  0
 10  9  1  0
 11 10  1  1
 11 12  1  0
 13 14  2  0
 13 11  1  0
 15 16  2  0
 16  6  1  0
 18 17  1  0
 19 18  1  0
 20 19  1  0
 21 20  1  6
 21 22  1  0
 22 13  1  0
 23 21  1  0
 24 23  2  0
 25 23  1  0
M  END
$$$$
