GYM.pdb
     RDKit          3D

 25 25  0  0  1  0  0  0  0  0999 V2000
   25.9644  -31.9268   -8.8234 N   0  0  0  0  0  0  0  0  0  0  0  0
   26.9632  -32.5124   -7.9360 C   0  0  0  0  0  0  0  0  0  0  0  0
   26.2660  -33.2074   -6.8133 C   0  0  0  0  0  0  0  0  0  0  0  0
   25.0069  -33.1558   -6.7576 O   0  0  0  0  0  0  0  0  0  0  0  0
   23.5661  -38.3910   -9.4086 O   0  0  0  0  0  0  0  0  0  0  0  0
   24.2717  -37.8400   -8.3257 C   0  0  0  0  0  0  0  0  0  0  0  0
   23.6283  -37.4876   -7.1659 C   0  0  0  0  0  0  0  0  0  0  0  0
   24.3280  -36.9497   -6.1136 C   0  0  0  0  0  0  0  0  0  0  0  0
   25.6897  -36.7325   -6.1491 C   0  0  0  0  0  0  0  0  0  0  0  0
   26.4199  -36.1317   -5.0382 C   0  0  0  0  0  0  0  0  0  0  0  0
   26.2441  -34.6951   -4.7626 C   0  0  2  0  0  0  0  0  0  0  0  0
   26.9578  -33.9199   -5.8114 N   0  0  0  0  0  0  0  0  0  0  0  0
   26.6911  -34.1474   -3.4964 C   0  0  0  0  0  0  0  0  0  0  0  0
   27.9327  -33.9302   -3.2404 O   0  0  0  0  0  0  0  0  0  0  0  0
   26.3242  -37.0900   -7.3176 C   0  0  0  0  0  0  0  0  0  0  0  0
   25.6323  -37.6347   -8.3906 C   0  0  0  0  0  0  0  0  0  0  0  0
   22.8890  -32.3273    2.0336 C   0  0  0  0  0  0  0  0  0  0  0  0
   24.0614  -31.0247    1.5129 S   0  0  0  0  0  0  0  0  0  0  0  0
   25.5037  -31.8102    0.7292 C   0  0  0  0  0  0  0  0  0  0  0  0
   25.1300  -32.4361   -0.5703 C   0  0  0  0  0  0  0  0  0  0  0  0
   26.2701  -33.2196   -1.1890 C   0  0  2  0  0  0  0  0  0  0  0  0
   25.8130  -33.8014   -2.4433 N   0  0  0  0  0  0  0  0  0  0  0  0
   26.8757  -34.1829   -0.2660 C   0  0  0  0  0  0  0  0  0  0  0  0
   27.7535  -33.7949    0.5374 O   0  0  0  0  0  0  0  0  0  0  0  0
   26.5373  -35.5208   -0.2189 O   0  0  0  0  0  0  0  0  0  0  0  0
  1  2  1  0
  3 12  1  0
  3  2  1  0
  4  3  2  0
  6  5  1  0
  7  6  2  0
  8  7  1  0
  9  8  2  0
  9 15  1  0
 10  9  1  0
 11 10  1  1
 11 12  1  0
 13 14  2  0
 13 11  1  0
 15 16  2  0
 16  6  1  0
 18 17  1  0
 19 18  1  0
 20 19  1  0
 21 20  1  1
 21 22  1  0
 22 13  1  0
 23 21  1  0
 24 23  2  0
 25 23  1  0
M  END
$$$$
