GGS.pdb
     RDKit          3D

 15 14  0  0  1  0  0  0  0  0999 V2000
    2.0588  -22.3263   21.3500 N   0  0  0  0  0  0  0  0  0  0  0  0
    2.6419  -21.3319   20.4370 C   0  0  0  0  0  0  0  0  0  0  0  0
    4.1314  -21.4723   20.4200 C   0  0  0  0  0  0  0  0  0  0  0  0
    4.8150  -20.6873   19.7306 O   0  0  0  0  0  0  0  0  0  0  0  0
    4.8106  -22.4732   21.1641 N   0  0  0  0  0  0  0  0  0  0  0  0
    6.2221  -22.6410   21.2418 C   0  0  0  0  0  0  0  0  0  0  0  0
    6.9634  -21.7135   22.0830 C   0  0  0  0  0  0  0  0  0  0  0  0
    7.3392  -20.6403   21.5468 O   0  0  0  0  0  0  0  0  0  0  0  0
    6.7910  -21.6671   26.2706 O   0  0  0  0  0  0  0  0  0  0  0  0
    7.1393  -20.5856   25.4933 C   0  0  0  0  0  0  0  0  0  0  0  0
    7.9604  -20.9769   24.2909 C   0  0  2  0  0  0  0  0  0  0  0  0
    7.2803  -21.9343   23.4370 N   0  0  0  0  0  0  0  0  0  0  0  0
    9.2956  -21.4552   24.7522 C   0  0  0  0  0  0  0  0  0  0  0  0
    9.7034  -22.6152   24.5958 O   0  0  0  0  0  0  0  0  0  0  0  0
   10.0933  -20.5141   25.3873 O   0  0  0  0  0  0  0  0  0  0  0  0
  2  1  1  0
  3  2  1  0
  4  3  2  0
  5  3  1  0
  6  5  1  0
  7  6  1  0
  7 12  1  0
  8  7  2  0
 10  9  1  0
 11 12  1  0
 11 10  1  1
 13 15  1  0
 13 11  1  0
 14 13  2  0
M  END
$$$$
