GGS.pdb
     RDKit          3D

 15 14  0  0  1  0  0  0  0  0999 V2000
   10.2427  -17.0450   19.9347 N   0  0  0  0  0  0  0  0  0  0  0  0
   10.9015  -16.1037   20.8526 C   0  0  0  0  0  0  0  0  0  0  0  0
   10.3650  -16.2875   22.2371 C   0  0  0  0  0  0  0  0  0  0  0  0
    9.2132  -15.8889   22.5079 O   0  0  0  0  0  0  0  0  0  0  0  0
   11.1191  -16.9039   23.2705 N   0  0  0  0  0  0  0  0  0  0  0  0
   10.6750  -17.1341   24.6033 C   0  0  0  0  0  0  0  0  0  0  0  0
   10.9958  -16.1253   25.6017 C   0  0  0  0  0  0  0  0  0  0  0  0
   12.1957  -15.7562   25.6676 O   0  0  0  0  0  0  0  0  0  0  0  0
    8.1146  -13.8450   27.5162 O   0  0  0  0  0  0  0  0  0  0  0  0
    9.4259  -13.4304   27.5771 C   0  0  0  0  0  0  0  0  0  0  0  0
   10.4000  -14.5796   27.5168 C   0  0  2  0  0  0  0  0  0  0  0  0
   10.0650  -15.5428   26.4832 N   0  0  0  0  0  0  0  0  0  0  0  0
   10.5072  -15.1942   28.8714 C   0  0  0  0  0  0  0  0  0  0  0  0
   10.2423  -16.3809   29.1123 O   0  0  0  0  0  0  0  0  0  0  0  0
   10.9313  -14.3527   29.8899 O   0  0  0  0  0  0  0  0  0  0  0  0
  2  1  1  0
  3  2  1  0
  4  3  2  0
  5  3  1  0
  6  5  1  0
  7  6  1  0
  7 12  1  0
  8  7  2  0
 10  9  1  0
 11 12  1  0
 11 10  1  1
 13 15  1  0
 13 11  1  0
 14 13  2  0
M  END
$$$$
