GGS.pdb
     RDKit          3D

 15 14  0  0  1  0  0  0  0  0999 V2000
    4.8815  -20.7122   22.2720 N   0  0  0  0  0  0  0  0  0  0  0  0
    5.1706  -19.6581   23.2558 C   0  0  0  0  0  0  0  0  0  0  0  0
    5.7589  -18.4685   22.5649 C   0  0  0  0  0  0  0  0  0  0  0  0
    5.1142  -17.4000   22.5247 O   0  0  0  0  0  0  0  0  0  0  0  0
    7.0358  -18.5024   21.9445 N   0  0  0  0  0  0  0  0  0  0  0  0
    7.6961  -17.3986   21.3343 C   0  0  0  0  0  0  0  0  0  0  0  0
    8.4403  -16.4981   22.2017 C   0  0  0  0  0  0  0  0  0  0  0  0
    9.4189  -15.8986   21.6885 O   0  0  0  0  0  0  0  0  0  0  0  0
    6.8674  -14.7484   25.5389 O   0  0  0  0  0  0  0  0  0  0  0  0
    8.0531  -14.2779   25.0212 C   0  0  0  0  0  0  0  0  0  0  0  0
    8.8992  -15.3732   24.4233 C   0  0  2  0  0  0  0  0  0  0  0  0
    8.1399  -16.2559   23.5559 N   0  0  0  0  0  0  0  0  0  0  0  0
    9.5982  -16.0990   25.5229 C   0  0  0  0  0  0  0  0  0  0  0  0
    9.4120  -17.2960   25.7855 O   0  0  0  0  0  0  0  0  0  0  0  0
   10.4994  -15.3524   26.2685 O   0  0  0  0  0  0  0  0  0  0  0  0
  2  1  1  0
  3  2  1  0
  4  3  2  0
  5  3  1  0
  6  5  1  0
  7  6  1  0
  7 12  1  0
  8  7  2  0
 10  9  1  0
 11 12  1  0
 11 10  1  1
 13 15  1  0
 13 11  1  0
 14 13  2  0
M  END
$$$$
