GGS.pdb
     RDKit          3D

 15 14  0  0  1  0  0  0  0  0999 V2000
    9.1013  -16.9512   13.8997 N   0  0  0  0  0  0  0  0  0  0  0  0
    9.8536  -16.5351   15.0928 C   0  0  0  0  0  0  0  0  0  0  0  0
    8.9066  -16.0505   16.1448 C   0  0  0  0  0  0  0  0  0  0  0  0
    8.0486  -15.1921   15.8513 O   0  0  0  0  0  0  0  0  0  0  0  0
    8.9415  -16.5309   17.4807 N   0  0  0  0  0  0  0  0  0  0  0  0
    8.1123  -16.0861   18.5490 C   0  0  0  0  0  0  0  0  0  0  0  0
    8.7703  -15.5885   19.7476 C   0  0  0  0  0  0  0  0  0  0  0  0
   10.0245  -15.5094   19.7128 O   0  0  0  0  0  0  0  0  0  0  0  0
    6.7228  -14.7961   23.3751 O   0  0  0  0  0  0  0  0  0  0  0  0
    7.8173  -14.0189   23.0700 C   0  0  0  0  0  0  0  0  0  0  0  0
    8.7671  -14.7034   22.1200 C   0  0  2  0  0  0  0  0  0  0  0  0
    8.1052  -15.1938   20.9243 N   0  0  0  0  0  0  0  0  0  0  0  0
    9.5019  -15.7715   22.8571 C   0  0  0  0  0  0  0  0  0  0  0  0
    9.3599  -16.9830   22.6369 O   0  0  0  0  0  0  0  0  0  0  0  0
   10.3845  -15.3385   23.8364 O   0  0  0  0  0  0  0  0  0  0  0  0
  2  1  1  0
  3  2  1  0
  4  3  2  0
  5  3  1  0
  6  5  1  0
  7  6  1  0
  7 12  1  0
  8  7  2  0
 10  9  1  0
 11 12  1  0
 11 10  1  1
 13 15  1  0
 13 11  1  0
 14 13  2  0
M  END
$$$$
