GGS.pdb
     RDKit          3D

 15 14  0  0  1  0  0  0  0  0999 V2000
    8.1161  -13.3451   16.0210 N   0  0  0  0  0  0  0  0  0  0  0  0
    8.6121  -14.6032   16.5986 C   0  0  0  0  0  0  0  0  0  0  0  0
    8.0695  -14.7733   17.9825 C   0  0  0  0  0  0  0  0  0  0  0  0
    7.6233  -13.7805   18.5942 O   0  0  0  0  0  0  0  0  0  0  0  0
    8.0395  -16.0319   18.6395 N   0  0  0  0  0  0  0  0  0  0  0  0
    7.4384  -16.2997   19.9018 C   0  0  0  0  0  0  0  0  0  0  0  0
    8.1259  -15.8155   21.0893 C   0  0  0  0  0  0  0  0  0  0  0  0
    9.3612  -16.0386   21.1582 O   0  0  0  0  0  0  0  0  0  0  0  0
    7.9165  -13.5831   25.4679 O   0  0  0  0  0  0  0  0  0  0  0  0
    7.2588  -14.0591   24.3562 C   0  0  0  0  0  0  0  0  0  0  0  0
    8.1990  -14.6441   23.3330 C   0  0  2  0  0  0  0  0  0  0  0  0
    7.5090  -15.1221   22.1483 N   0  0  0  0  0  0  0  0  0  0  0  0
    9.0301  -15.6963   23.9860 C   0  0  0  0  0  0  0  0  0  0  0  0
   10.1677  -15.4952   24.4354 O   0  0  0  0  0  0  0  0  0  0  0  0
    8.4574  -16.9571   24.0737 O   0  0  0  0  0  0  0  0  0  0  0  0
  2  1  1  0
  3  2  1  0
  4  3  2  0
  5  3  1  0
  6  5  1  0
  7  6  1  0
  7 12  1  0
  8  7  2  0
 10  9  1  0
 11 12  1  0
 11 10  1  1
 13 15  1  0
 13 11  1  0
 14 13  2  0
M  END
$$$$
