GGS.pdb
     RDKit          3D

 15 14  0  0  1  0  0  0  0  0999 V2000
    6.9397  -19.8302   22.2962 N   0  0  0  0  0  0  0  0  0  0  0  0
    6.1385  -19.2815   21.1919 C   0  0  0  0  0  0  0  0  0  0  0  0
    6.7544  -18.0084   20.7036 C   0  0  0  0  0  0  0  0  0  0  0  0
    7.9591  -17.9945   20.3759 O   0  0  0  0  0  0  0  0  0  0  0  0
    6.0184  -16.7988   20.5953 N   0  0  0  0  0  0  0  0  0  0  0  0
    6.5391  -15.5397   20.1827 C   0  0  0  0  0  0  0  0  0  0  0  0
    7.4177  -14.8405   21.1083 C   0  0  0  0  0  0  0  0  0  0  0  0
    8.0202  -13.8310   20.6629 O   0  0  0  0  0  0  0  0  0  0  0  0
    6.9568  -14.5155   25.1001 O   0  0  0  0  0  0  0  0  0  0  0  0
    7.9202  -13.7883   24.4380 C   0  0  0  0  0  0  0  0  0  0  0  0
    8.5868  -14.5758   23.3386 C   0  0  2  0  0  0  0  0  0  0  0  0
    7.6321  -15.2127   22.4492 N   0  0  0  0  0  0  0  0  0  0  0  0
    9.5462  -15.5409   23.9488 C   0  0  0  0  0  0  0  0  0  0  0  0
   10.5395  -15.2012   24.6081 O   0  0  0  0  0  0  0  0  0  0  0  0
    9.2724  -16.8853   23.7411 O   0  0  0  0  0  0  0  0  0  0  0  0
  2  1  1  0
  3  2  1  0
  4  3  2  0
  5  3  1  0
  6  5  1  0
  7  6  1  0
  7 12  1  0
  8  7  2  0
 10  9  1  0
 11 12  1  0
 11 10  1  1
 13 15  1  0
 13 11  1  0
 14 13  2  0
M  END
$$$$
