GGS.pdb
     RDKit          3D

 15 14  0  0  1  0  0  0  0  0999 V2000
    3.5869  -20.9570   20.7967 N   0  0  0  0  0  0  0  0  0  0  0  0
    4.9594  -20.4311   20.8457 C   0  0  0  0  0  0  0  0  0  0  0  0
    5.0397  -19.3184   21.8427 C   0  0  0  0  0  0  0  0  0  0  0  0
    4.5310  -18.2111   21.5703 O   0  0  0  0  0  0  0  0  0  0  0  0
    5.6782  -19.4689   23.1022 N   0  0  0  0  0  0  0  0  0  0  0  0
    5.7656  -18.4744   24.1171 C   0  0  0  0  0  0  0  0  0  0  0  0
    6.8873  -17.5495   24.0562 C   0  0  0  0  0  0  0  0  0  0  0  0
    7.9851  -18.0172   23.6605 O   0  0  0  0  0  0  0  0  0  0  0  0
    6.6401  -13.6582   25.5417 O   0  0  0  0  0  0  0  0  0  0  0  0
    7.5194  -13.8250   24.4957 C   0  0  0  0  0  0  0  0  0  0  0  0
    7.9405  -15.2616   24.3165 C   0  0  2  0  0  0  0  0  0  0  0  0
    6.8245  -16.1864   24.4034 N   0  0  0  0  0  0  0  0  0  0  0  0
    9.0289  -15.5711   25.2880 C   0  0  0  0  0  0  0  0  0  0  0  0
    8.9239  -16.4078   26.1966 O   0  0  0  0  0  0  0  0  0  0  0  0
   10.2085  -14.8580   25.1283 O   0  0  0  0  0  0  0  0  0  0  0  0
  2  1  1  0
  3  2  1  0
  4  3  2  0
  5  3  1  0
  6  5  1  0
  7  6  1  0
  7 12  1  0
  8  7  2  0
 10  9  1  0
 11 12  1  0
 11 10  1  1
 13 15  1  0
 13 11  1  0
 14 13  2  0
M  END
$$$$
