GGS.pdb
     RDKit          3D

 15 14  0  0  1  0  0  0  0  0999 V2000
   -2.1578  -27.1361   26.5409 N   0  0  0  0  0  0  0  0  0  0  0  0
   -2.8808  -27.1790   27.8207 C   0  0  0  0  0  0  0  0  0  0  0  0
   -3.8772  -26.0643   27.8768 C   0  0  0  0  0  0  0  0  0  0  0  0
   -3.9338  -25.3410   28.8930 O   0  0  0  0  0  0  0  0  0  0  0  0
   -4.7734  -25.7894   26.8100 N   0  0  0  0  0  0  0  0  0  0  0  0
   -5.6645  -24.6819   26.7338 C   0  0  0  0  0  0  0  0  0  0  0  0
   -6.5179  -24.4261   27.8843 C   0  0  0  0  0  0  0  0  0  0  0  0
   -7.2631  -25.3678   28.2562 O   0  0  0  0  0  0  0  0  0  0  0  0
   -6.1384  -20.9988   30.4063 O   0  0  0  0  0  0  0  0  0  0  0  0
   -6.5521  -22.2317   30.8577 C   0  0  0  0  0  0  0  0  0  0  0  0
   -7.3241  -23.0009   29.8158 C   0  0  2  0  0  0  0  0  0  0  0  0
   -6.5614  -23.2134   28.5986 N   0  0  0  0  0  0  0  0  0  0  0  0
   -8.6257  -22.3144   29.5738 C   0  0  0  0  0  0  0  0  0  0  0  0
   -8.9142  -21.7382   28.5149 O   0  0  0  0  0  0  0  0  0  0  0  0
   -9.5355  -22.3477   30.6210 O   0  0  0  0  0  0  0  0  0  0  0  0
  2  1  1  0
  3  2  1  0
  4  3  2  0
  5  3  1  0
  6  5  1  0
  7  6  1  0
  7 12  1  0
  8  7  2  0
 10  9  1  0
 11 12  1  0
 11 10  1  1
 13 15  1  0
 13 11  1  0
 14 13  2  0
M  END
$$$$
