PVV.pdb
     RDKit          3D

 22 22  0  0  1  0  0  0  0  0999 V2000
    8.1759  -15.3177   20.7536 N   0  0  0  0  0  0  0  0  0  0  0  0
    9.1219  -16.4004   20.8990 C   0  0  0  0  0  0  0  0  0  0  0  0
    8.4653  -17.4680   21.7293 C   0  0  0  0  0  0  0  0  0  0  0  0
    7.0484  -16.9506   21.9036 C   0  0  0  0  0  0  0  0  0  0  0  0
    7.2407  -15.4722   21.8440 C   0  0  1  0  0  0  0  0  0  0  0  0
    7.9150  -14.9920   23.1173 C   0  0  0  0  0  0  0  0  0  0  0  0
    9.1495  -14.9170   23.0843 O   0  0  0  0  0  0  0  0  0  0  0  0
    6.4867  -11.9010   25.0985 C   0  0  0  0  0  0  0  0  0  0  0  0
    6.7873  -13.0314   26.0820 C   0  0  2  0  0  0  0  0  0  0  0  0
    7.3154  -12.4185   27.3232 C   0  0  0  0  0  0  0  0  0  0  0  0
    7.6424  -14.0691   25.4516 C   0  0  2  0  0  0  0  0  0  0  0  0
    7.1732  -14.6616   24.2414 N   0  0  0  0  0  0  0  0  0  0  0  0
    8.2886  -15.0557   26.3333 C   0  0  0  0  0  0  0  0  0  0  0  0
    7.5899  -15.9804   26.8971 O   0  0  0  0  0  0  0  0  0  0  0  0
   11.7364  -16.9066   25.6385 C   0  0  0  0  0  0  0  0  0  0  0  0
   11.6578  -16.4883   27.0857 C   0  0  1  0  0  0  0  0  0  0  0  0
   12.5493  -15.2836   27.3348 C   0  0  0  0  0  0  0  0  0  0  0  0
   10.2195  -16.1923   27.4603 C   0  0  2  0  0  0  0  0  0  0  0  0
    9.6632  -15.1299   26.6561 N   0  0  0  0  0  0  0  0  0  0  0  0
   10.1913  -15.9021   28.9128 C   0  0  0  0  0  0  0  0  0  0  0  0
   10.4425  -16.8150   29.7317 O   0  0  0  0  0  0  0  0  0  0  0  0
    9.8936  -14.6471   29.3666 O   0  0  0  0  0  0  0  0  0  0  0  0
  1  5  1  0
  2  1  1  0
  3  2  1  0
  3  4  1  0
  4  5  1  0
  6  7  2  0
  5  6  1  1
  9  8  1  6
  9 11  1  0
 10  9  1  0
 11 12  1  6
 11 13  1  0
 12  6  1  0
 13 19  1  0
 14 13  2  0
 16 18  1  0
 16 15  1  6
 17 16  1  0
 18 20  1  0
 18 19  1  6
 20 21  2  0
 20 22  1  0
M  END
$$$$
