PVV.pdb
     RDKit          3D

 22 22  0  0  1  0  0  0  0  0999 V2000
    8.3004  -14.8934   19.2008 N   0  0  0  0  0  0  0  0  0  0  0  0
    7.0231  -14.2783   18.9209 C   0  0  0  0  0  0  0  0  0  0  0  0
    7.0603  -12.8821   19.4774 C   0  0  0  0  0  0  0  0  0  0  0  0
    8.4952  -12.7351   19.9517 C   0  0  0  0  0  0  0  0  0  0  0  0
    8.8604  -14.1395   20.2989 C   0  0  1  0  0  0  0  0  0  0  0  0
    8.1440  -14.5548   21.5719 C   0  0  0  0  0  0  0  0  0  0  0  0
    7.1799  -13.8555   21.9068 O   0  0  0  0  0  0  0  0  0  0  0  0
    6.4035  -17.6629   22.5527 C   0  0  0  0  0  0  0  0  0  0  0  0
    7.4881  -17.4805   23.6137 C   0  0  2  0  0  0  0  0  0  0  0  0
    6.9172  -17.8964   24.9161 C   0  0  0  0  0  0  0  0  0  0  0  0
    8.0582  -16.1102   23.5590 C   0  0  2  0  0  0  0  0  0  0  0  0
    8.5610  -15.6570   22.3030 N   0  0  0  0  0  0  0  0  0  0  0  0
    8.9050  -15.6728   24.6815 C   0  0  0  0  0  0  0  0  0  0  0  0
   10.1713  -15.9129   24.6731 O   0  0  0  0  0  0  0  0  0  0  0  0
    9.2723  -12.2621   26.6686 C   0  0  0  0  0  0  0  0  0  0  0  0
    9.0427  -13.4005   27.6314 C   0  0  1  0  0  0  0  0  0  0  0  0
    7.6130  -13.3758   28.1448 C   0  0  0  0  0  0  0  0  0  0  0  0
    9.3597  -14.7197   26.9563 C   0  0  2  0  0  0  0  0  0  0  0  0
    8.4847  -14.9733   25.8361 N   0  0  0  0  0  0  0  0  0  0  0  0
    9.2998  -15.7741   27.9953 C   0  0  0  0  0  0  0  0  0  0  0  0
    8.3324  -16.5684   28.0164 O   0  0  0  0  0  0  0  0  0  0  0  0
   10.2908  -15.8873   28.9306 O   0  0  0  0  0  0  0  0  0  0  0  0
  1  5  1  0
  2  1  1  0
  3  2  1  0
  3  4  1  0
  4  5  1  0
  6  7  2  0
  5  6  1  1
  9  8  1  6
  9 11  1  0
 10  9  1  0
 11 12  1  6
 11 13  1  0
 12  6  1  0
 13 19  1  0
 14 13  2  0
 16 18  1  0
 16 15  1  6
 17 16  1  0
 18 20  1  0
 18 19  1  6
 20 21  2  0
 20 22  1  0
M  END
$$$$
