PVV.pdb
     RDKit          3D

 22 22  0  0  1  0  0  0  0  0999 V2000
    8.0153  -14.8442   18.4151 N   0  0  0  0  0  0  0  0  0  0  0  0
    6.9137  -13.9185   18.5495 C   0  0  0  0  0  0  0  0  0  0  0  0
    7.4348  -12.6912   19.2441 C   0  0  0  0  0  0  0  0  0  0  0  0
    8.9259  -12.9577   19.3489 C   0  0  0  0  0  0  0  0  0  0  0  0
    8.9783  -14.4474   19.4164 C   0  0  1  0  0  0  0  0  0  0  0  0
    8.4740  -14.9163   20.7700 C   0  0  0  0  0  0  0  0  0  0  0  0
    7.2458  -14.9994   20.8943 O   0  0  0  0  0  0  0  0  0  0  0  0
    9.3442  -18.1768   22.1326 C   0  0  0  0  0  0  0  0  0  0  0  0
    9.6771  -17.2090   23.2674 C   0  0  2  0  0  0  0  0  0  0  0  0
    9.3218  -17.8733   24.5432 C   0  0  0  0  0  0  0  0  0  0  0  0
    9.0585  -15.8800   23.0294 C   0  0  2  0  0  0  0  0  0  0  0  0
    9.3544  -15.2287   21.7948 N   0  0  0  0  0  0  0  0  0  0  0  0
    9.0125  -14.9319   24.1551 C   0  0  0  0  0  0  0  0  0  0  0  0
   10.0737  -14.2931   24.5113 O   0  0  0  0  0  0  0  0  0  0  0  0
    6.7454  -12.1595   27.5712 C   0  0  0  0  0  0  0  0  0  0  0  0
    6.6151  -13.0881   26.3895 C   0  0  1  0  0  0  0  0  0  0  0  0
    6.0767  -12.3350   25.1848 C   0  0  0  0  0  0  0  0  0  0  0  0
    7.9556  -13.7252   26.0830 C   0  0  2  0  0  0  0  0  0  0  0  0
    7.8830  -14.6048   24.9403 N   0  0  0  0  0  0  0  0  0  0  0  0
    8.4144  -14.4056   27.3164 C   0  0  0  0  0  0  0  0  0  0  0  0
    8.9971  -13.7466   28.2071 O   0  0  0  0  0  0  0  0  0  0  0  0
    8.2073  -15.7459   27.4905 O   0  0  0  0  0  0  0  0  0  0  0  0
  1  5  1  0
  2  1  1  0
  3  2  1  0
  3  4  1  0
  4  5  1  0
  6  7  2  0
  5  6  1  1
  9  8  1  6
  9 11  1  0
 10  9  1  0
 11 12  1  6
 11 13  1  0
 12  6  1  0
 13 19  1  0
 14 13  2  0
 16 18  1  0
 16 15  1  1
 17 16  1  0
 18 20  1  0
 18 19  1  6
 20 21  2  0
 20 22  1  0
M  END
$$$$
