PVV.pdb
     RDKit          3D

 22 22  0  0  1  0  0  0  0  0999 V2000
    8.7127  -15.0513   18.9827 N   0  0  0  0  0  0  0  0  0  0  0  0
    7.4366  -14.7516   18.3741 C   0  0  0  0  0  0  0  0  0  0  0  0
    7.1152  -13.3148   18.6786 C   0  0  0  0  0  0  0  0  0  0  0  0
    8.3709  -12.8171   19.3722 C   0  0  0  0  0  0  0  0  0  0  0  0
    8.8906  -14.0583   20.0170 C   0  0  1  0  0  0  0  0  0  0  0  0
    8.0045  -14.4344   21.1916 C   0  0  0  0  0  0  0  0  0  0  0  0
    7.0225  -13.7077   21.3871 O   0  0  0  0  0  0  0  0  0  0  0  0
    6.6691  -17.9549   22.4411 C   0  0  0  0  0  0  0  0  0  0  0  0
    7.4988  -17.3015   23.5458 C   0  0  2  0  0  0  0  0  0  0  0  0
    6.8441  -17.6066   24.8394 C   0  0  0  0  0  0  0  0  0  0  0  0
    7.7304  -15.8638   23.2548 C   0  0  2  0  0  0  0  0  0  0  0  0
    8.2955  -15.5322   21.9873 N   0  0  0  0  0  0  0  0  0  0  0  0
    8.2706  -15.0222   24.3357 C   0  0  0  0  0  0  0  0  0  0  0  0
    9.5443  -14.8936   24.4852 O   0  0  0  0  0  0  0  0  0  0  0  0
    7.2674  -11.3807   25.7445 C   0  0  0  0  0  0  0  0  0  0  0  0
    7.3273  -12.4069   26.8485 C   0  0  1  0  0  0  0  0  0  0  0  0
    5.9244  -12.8224   27.2579 C   0  0  0  0  0  0  0  0  0  0  0  0
    8.1435  -13.6020   26.3990 C   0  0  2  0  0  0  0  0  0  0  0  0
    7.5273  -14.2846   25.2857 N   0  0  0  0  0  0  0  0  0  0  0  0
    8.3416  -14.4725   27.5812 C   0  0  0  0  0  0  0  0  0  0  0  0
    7.7368  -15.5661   27.6534 O   0  0  0  0  0  0  0  0  0  0  0  0
    9.1787  -14.0924   28.5934 O   0  0  0  0  0  0  0  0  0  0  0  0
  1  5  1  0
  2  1  1  0
  3  2  1  0
  3  4  1  0
  4  5  1  0
  6  7  2  0
  5  6  1  1
  9  8  1  6
  9 11  1  0
 10  9  1  0
 11 12  1  6
 11 13  1  0
 12  6  1  0
 13 19  1  0
 14 13  2  0
 16 18  1  0
 16 15  1  6
 17 16  1  0
 18 20  1  0
 18 19  1  6
 20 21  2  0
 20 22  1  0
M  END
$$$$
