PVV.pdb
     RDKit          3D

 22 22  0  0  1  0  0  0  0  0999 V2000
    8.4750  -15.1528   18.4929 N   0  0  0  0  0  0  0  0  0  0  0  0
    7.3664  -14.3191   18.0874 C   0  0  0  0  0  0  0  0  0  0  0  0
    7.5777  -12.9585   18.6911 C   0  0  0  0  0  0  0  0  0  0  0  0
    8.9488  -13.0722   19.3335 C   0  0  0  0  0  0  0  0  0  0  0  0
    9.0209  -14.5233   19.6732 C   0  0  1  0  0  0  0  0  0  0  0  0
    8.0957  -14.8224   20.8398 C   0  0  0  0  0  0  0  0  0  0  0  0
    7.0490  -14.1644   20.8870 O   0  0  0  0  0  0  0  0  0  0  0  0
    6.7473  -18.1687   22.0738 C   0  0  0  0  0  0  0  0  0  0  0  0
    7.4265  -17.5106   23.2742 C   0  0  2  0  0  0  0  0  0  0  0  0
    6.5897  -17.7791   24.4670 C   0  0  0  0  0  0  0  0  0  0  0  0
    7.7275  -16.0832   22.9962 C   0  0  2  0  0  0  0  0  0  0  0  0
    8.4223  -15.7810   21.7871 N   0  0  0  0  0  0  0  0  0  0  0  0
    8.1849  -15.2462   24.1181 C   0  0  0  0  0  0  0  0  0  0  0  0
    9.4328  -15.2138   24.4390 O   0  0  0  0  0  0  0  0  0  0  0  0
    5.7110  -13.2209   27.0553 C   0  0  0  0  0  0  0  0  0  0  0  0
    6.9560  -12.5764   26.4983 C   0  0  1  0  0  0  0  0  0  0  0  0
    7.5943  -11.6752   27.5417 C   0  0  0  0  0  0  0  0  0  0  0  0
    7.9245  -13.6435   26.0296 C   0  0  2  0  0  0  0  0  0  0  0  0
    7.3843  -14.4154   24.9354 N   0  0  0  0  0  0  0  0  0  0  0  0
    8.2784  -14.4683   27.2082 C   0  0  0  0  0  0  0  0  0  0  0  0
    7.6325  -15.5132   27.4494 O   0  0  0  0  0  0  0  0  0  0  0  0
    9.3035  -14.0989   28.0343 O   0  0  0  0  0  0  0  0  0  0  0  0
  1  5  1  0
  2  1  1  0
  3  2  1  0
  3  4  1  0
  4  5  1  0
  6  7  2  0
  5  6  1  1
  9  8  1  6
  9 11  1  0
 10  9  1  0
 11 12  1  6
 11 13  1  0
 12  6  1  0
 13 19  1  0
 14 13  2  0
 16 18  1  0
 16 15  1  1
 17 16  1  0
 18 20  1  0
 18 19  1  6
 20 21  2  0
 20 22  1  0
M  END
$$$$
