FAS.pdb
     RDKit          3D

 23 23  0  0  1  0  0  0  0  0999 V2000
    5.8191  -17.4958   23.5553 N   0  0  0  0  0  0  0  0  0  0  0  0
    6.6344  -16.4561   24.0916 C   0  0  1  0  0  0  0  0  0  0  0  0
    6.0459  -15.9549   25.3905 C   0  0  0  0  0  0  0  0  0  0  0  0
    6.8232  -14.7563   25.7993 C   0  0  0  0  0  0  0  0  0  0  0  0
    6.6842  -13.5183   25.1987 C   0  0  0  0  0  0  0  0  0  0  0  0
    7.4144  -12.4222   25.5934 C   0  0  0  0  0  0  0  0  0  0  0  0
    8.3197  -12.5510   26.6230 C   0  0  0  0  0  0  0  0  0  0  0  0
    8.5004  -13.7717   27.2626 C   0  0  0  0  0  0  0  0  0  0  0  0
    7.7405  -14.8406   26.8259 C   0  0  0  0  0  0  0  0  0  0  0  0
    8.0054  -16.9785   24.2604 C   0  0  0  0  0  0  0  0  0  0  0  0
    8.1929  -18.0540   24.8735 O   0  0  0  0  0  0  0  0  0  0  0  0
   11.4270  -16.0472   22.9294 C   0  0  0  0  0  0  0  0  0  0  0  0
   10.4892  -16.7706   23.8801 C   0  0  2  0  0  0  0  0  0  0  0  0
    9.1144  -16.2799   23.7381 N   0  0  0  0  0  0  0  0  0  0  0  0
   10.8788  -16.5529   25.2979 C   0  0  0  0  0  0  0  0  0  0  0  0
   11.2178  -15.4140   25.7329 O   0  0  0  0  0  0  0  0  0  0  0  0
    9.3937  -18.4932   28.3054 O   0  0  0  0  0  0  0  0  0  0  0  0
   10.2166  -17.4102   28.5452 C   0  0  0  0  0  0  0  0  0  0  0  0
   11.4014  -17.4157   27.6059 C   0  0  2  0  0  0  0  0  0  0  0  0
   10.8962  -17.6051   26.2548 N   0  0  0  0  0  0  0  0  0  0  0  0
   12.2917  -18.5821   27.8928 C   0  0  0  0  0  0  0  0  0  0  0  0
   12.8618  -18.6742   29.0106 O   0  0  0  0  0  0  0  0  0  0  0  0
   12.5287  -19.5904   26.9739 O   0  0  0  0  0  0  0  0  0  0  0  0
  2  1  1  1
  2 10  1  0
  3  2  1  0
  4  5  2  0
  4  3  1  0
  6  5  1  0
  7  6  2  0
  8  7  1  0
  8  9  2  0
  9  4  1  0
 10 11  2  0
 10 14  1  0
 13 15  1  0
 13 12  1  6
 14 13  1  0
 15 16  2  0
 18 17  1  0
 19 18  1  1
 20 19  1  0
 20 15  1  0
 21 19  1  0
 22 21  2  0
 23 21  1  0
M  END
$$$$
