FAS.pdb
     RDKit          3D

 23 23  0  0  1  0  0  0  0  0999 V2000
    5.5228  -17.2907   25.0435 N   0  0  0  0  0  0  0  0  0  0  0  0
    6.3696  -16.1710   24.7937 C   0  0  1  0  0  0  0  0  0  0  0  0
    7.3325  -15.9835   25.9437 C   0  0  0  0  0  0  0  0  0  0  0  0
    7.4019  -14.5280   26.2346 C   0  0  0  0  0  0  0  0  0  0  0  0
    6.4226  -13.8439   26.9315 C   0  0  0  0  0  0  0  0  0  0  0  0
    6.5075  -12.4961   27.1893 C   0  0  0  0  0  0  0  0  0  0  0  0
    7.6033  -11.7924   26.7418 C   0  0  0  0  0  0  0  0  0  0  0  0
    8.6177  -12.4289   26.0362 C   0  0  0  0  0  0  0  0  0  0  0  0
    8.4815  -13.7848   25.8049 C   0  0  0  0  0  0  0  0  0  0  0  0
    7.0646  -16.3892   23.5090 C   0  0  0  0  0  0  0  0  0  0  0  0
    7.4351  -17.5412   23.1870 O   0  0  0  0  0  0  0  0  0  0  0  0
    7.6506  -14.3674   20.3852 C   0  0  0  0  0  0  0  0  0  0  0  0
    7.9974  -15.4922   21.3450 C   0  0  2  0  0  0  0  0  0  0  0  0
    7.3192  -15.3128   22.6330 N   0  0  0  0  0  0  0  0  0  0  0  0
    9.4556  -15.5336   21.6294 C   0  0  0  0  0  0  0  0  0  0  0  0
   10.3210  -15.4358   20.7113 O   0  0  0  0  0  0  0  0  0  0  0  0
   10.8995  -16.0744   25.5169 O   0  0  0  0  0  0  0  0  0  0  0  0
   11.5516  -15.1901   24.6800 C   0  0  0  0  0  0  0  0  0  0  0  0
   11.3962  -15.6031   23.2338 C   0  0  2  0  0  0  0  0  0  0  0  0
    9.9724  -15.6853   22.9459 N   0  0  0  0  0  0  0  0  0  0  0  0
   11.9519  -16.9743   23.0182 C   0  0  0  0  0  0  0  0  0  0  0  0
   11.1782  -17.9262   22.7384 O   0  0  0  0  0  0  0  0  0  0  0  0
   13.3033  -17.2606   23.1120 O   0  0  0  0  0  0  0  0  0  0  0  0
  2  1  1  1
  2 10  1  0
  3  2  1  0
  4  5  2  0
  4  3  1  0
  6  5  1  0
  7  6  2  0
  8  7  1  0
  8  9  2  0
  9  4  1  0
 10 11  2  0
 10 14  1  0
 13 15  1  0
 13 12  1  6
 14 13  1  0
 15 16  2  0
 18 17  1  0
 19 18  1  1
 20 19  1  0
 20 15  1  0
 21 19  1  0
 22 21  2  0
 23 21  1  0
M  END
$$$$
