FAS.pdb
     RDKit          3D

 23 23  0  0  1  0  0  0  0  0999 V2000
   11.1697  -18.2751   28.4978 N   0  0  0  0  0  0  0  0  0  0  0  0
   10.9354  -17.7805   27.1812 C   0  0  1  0  0  0  0  0  0  0  0  0
   11.6547  -16.4654   26.9867 C   0  0  0  0  0  0  0  0  0  0  0  0
   10.9524  -15.4468   27.8097 C   0  0  0  0  0  0  0  0  0  0  0  0
   11.3150  -15.1359   29.1077 C   0  0  0  0  0  0  0  0  0  0  0  0
   10.6504  -14.1894   29.8512 C   0  0  0  0  0  0  0  0  0  0  0  0
    9.5839  -13.5209   29.2928 C   0  0  0  0  0  0  0  0  0  0  0  0
    9.1760  -13.7932   27.9922 C   0  0  0  0  0  0  0  0  0  0  0  0
    9.8792  -14.7538   27.2899 C   0  0  0  0  0  0  0  0  0  0  0  0
   11.3703  -18.8073   26.2129 C   0  0  0  0  0  0  0  0  0  0  0  0
   12.4427  -19.4266   26.3986 O   0  0  0  0  0  0  0  0  0  0  0  0
    9.8572  -20.5009   23.1865 C   0  0  0  0  0  0  0  0  0  0  0  0
   11.0244  -20.0645   24.0548 C   0  0  2  0  0  0  0  0  0  0  0  0
   10.5912  -19.1033   25.0745 N   0  0  0  0  0  0  0  0  0  0  0  0
   12.0782  -19.3921   23.2507 C   0  0  0  0  0  0  0  0  0  0  0  0
   12.0263  -18.1582   22.9747 O   0  0  0  0  0  0  0  0  0  0  0  0
   15.4836  -21.4330   22.3732 O   0  0  0  0  0  0  0  0  0  0  0  0
   15.5833  -20.0559   22.4108 C   0  0  0  0  0  0  0  0  0  0  0  0
   14.2741  -19.4102   22.0169 C   0  0  2  0  0  0  0  0  0  0  0  0
   13.2093  -20.0876   22.7408 N   0  0  0  0  0  0  0  0  0  0  0  0
   14.0010  -19.6249   20.5627 C   0  0  0  0  0  0  0  0  0  0  0  0
   13.0049  -20.3061   20.2069 O   0  0  0  0  0  0  0  0  0  0  0  0
   14.8035  -19.1027   19.5624 O   0  0  0  0  0  0  0  0  0  0  0  0
  2  1  1  1
  2 10  1  0
  3  2  1  0
  4  5  2  0
  4  3  1  0
  6  5  1  0
  7  6  2  0
  8  7  1  0
  8  9  2  0
  9  4  1  0
 10 11  2  0
 10 14  1  0
 13 15  1  0
 13 12  1  6
 14 13  1  0
 15 16  2  0
 18 17  1  0
 19 18  1  1
 20 19  1  0
 20 15  1  0
 21 19  1  0
 22 21  2  0
 23 21  1  0
M  END
$$$$
