FAS.pdb
     RDKit          3D

 23 23  0  0  1  0  0  0  0  0999 V2000
    5.7788  -17.8684   25.3977 N   0  0  0  0  0  0  0  0  0  0  0  0
    6.2210  -16.5180   25.2790 C   0  0  1  0  0  0  0  0  0  0  0  0
    6.9255  -16.0908   26.5463 C   0  0  0  0  0  0  0  0  0  0  0  0
    7.0248  -14.6084   26.5234 C   0  0  0  0  0  0  0  0  0  0  0  0
    8.2072  -13.9286   26.2941 C   0  0  0  0  0  0  0  0  0  0  0  0
    8.2760  -12.5556   26.2776 C   0  0  0  0  0  0  0  0  0  0  0  0
    7.1320  -11.8211   26.4962 C   0  0  0  0  0  0  0  0  0  0  0  0
    5.9160  -12.4519   26.7319 C   0  0  0  0  0  0  0  0  0  0  0  0
    5.9037  -13.8340   26.7375 C   0  0  0  0  0  0  0  0  0  0  0  0
    7.0914  -16.4150   24.0903 C   0  0  0  0  0  0  0  0  0  0  0  0
    7.9490  -17.2992   23.8656 O   0  0  0  0  0  0  0  0  0  0  0  0
    7.3612  -14.0183   21.1520 C   0  0  0  0  0  0  0  0  0  0  0  0
    7.7883  -15.2136   21.9859 C   0  0  2  0  0  0  0  0  0  0  0  0
    6.9707  -15.3286   23.1982 N   0  0  0  0  0  0  0  0  0  0  0  0
    9.2010  -15.0888   22.4308 C   0  0  0  0  0  0  0  0  0  0  0  0
    9.5611  -14.2293   23.2868 O   0  0  0  0  0  0  0  0  0  0  0  0
   11.2409  -17.4949   23.9414 O   0  0  0  0  0  0  0  0  0  0  0  0
   11.7262  -16.2117   23.7819 C   0  0  0  0  0  0  0  0  0  0  0  0
   11.6235  -15.7725   22.3388 C   0  0  2  0  0  0  0  0  0  0  0  0
   10.2365  -15.9233   21.9262 N   0  0  0  0  0  0  0  0  0  0  0  0
   12.4278  -16.6745   21.4586 C   0  0  0  0  0  0  0  0  0  0  0  0
   11.8478  -17.4051   20.6142 O   0  0  0  0  0  0  0  0  0  0  0  0
   13.8088  -16.7518   21.5232 O   0  0  0  0  0  0  0  0  0  0  0  0
  2  1  1  1
  2 10  1  0
  3  2  1  0
  4  5  2  0
  4  3  1  0
  6  5  1  0
  7  6  2  0
  8  7  1  0
  8  9  2  0
  9  4  1  0
 10 11  2  0
 10 14  1  0
 13 15  1  0
 13 12  1  1
 14 13  1  0
 15 16  2  0
 18 17  1  0
 19 18  1  1
 20 19  1  0
 20 15  1  0
 21 19  1  0
 22 21  2  0
 23 21  1  0
M  END
$$$$
