FAS.pdb
     RDKit          3D

 23 23  0  0  1  0  0  0  0  0999 V2000
    7.7448  -16.1908   26.7609 N   0  0  0  0  0  0  0  0  0  0  0  0
    7.4405  -15.9238   25.3937 C   0  0  1  0  0  0  0  0  0  0  0  0
    7.9864  -14.5714   24.9965 C   0  0  0  0  0  0  0  0  0  0  0  0
    7.2626  -13.5467   25.7929 C   0  0  0  0  0  0  0  0  0  0  0  0
    7.8636  -12.7852   26.7786 C   0  0  0  0  0  0  0  0  0  0  0  0
    7.1741  -11.8422   27.5036 C   0  0  0  0  0  0  0  0  0  0  0  0
    5.8363  -11.6408   27.2469 C   0  0  0  0  0  0  0  0  0  0  0  0
    5.1811  -12.3780   26.2674 C   0  0  0  0  0  0  0  0  0  0  0  0
    5.9220  -13.3126   25.5687 C   0  0  0  0  0  0  0  0  0  0  0  0
    7.9947  -17.0173   24.5702 C   0  0  0  0  0  0  0  0  0  0  0  0
    9.0476  -17.5946   24.9253 O   0  0  0  0  0  0  0  0  0  0  0  0
    6.9859  -18.7386   21.3338 C   0  0  0  0  0  0  0  0  0  0  0  0
    7.9371  -18.4156   22.4729 C   0  0  2  0  0  0  0  0  0  0  0  0
    7.3522  -17.4242   23.3819 N   0  0  0  0  0  0  0  0  0  0  0  0
    9.2109  -17.8383   21.9698 C   0  0  0  0  0  0  0  0  0  0  0  0
    9.2830  -16.6539   21.5300 O   0  0  0  0  0  0  0  0  0  0  0  0
   12.0985  -16.6043   23.2772 O   0  0  0  0  0  0  0  0  0  0  0  0
   12.5682  -17.6977   22.5762 C   0  0  0  0  0  0  0  0  0  0  0  0
   11.6602  -18.0212   21.4112 C   0  0  2  0  0  0  0  0  0  0  0  0
   10.4274  -18.5752   21.9495 N   0  0  0  0  0  0  0  0  0  0  0  0
   12.2659  -19.0874   20.5558 C   0  0  0  0  0  0  0  0  0  0  0  0
   13.3585  -18.8739   19.9695 O   0  0  0  0  0  0  0  0  0  0  0  0
   11.6763  -20.3262   20.3690 O   0  0  0  0  0  0  0  0  0  0  0  0
  2  1  1  1
  2 10  1  0
  3  2  1  0
  4  5  2  0
  4  3  1  0
  6  5  1  0
  7  6  2  0
  8  7  1  0
  8  9  2  0
  9  4  1  0
 10 11  2  0
 10 14  1  0
 13 15  1  0
 13 12  1  6
 14 13  1  0
 15 16  2  0
 18 17  1  0
 19 18  1  1
 20 19  1  0
 20 15  1  0
 21 19  1  0
 22 21  2  0
 23 21  1  0
M  END
$$$$
