FAS.pdb
     RDKit          3D

 23 23  0  0  1  0  0  0  0  0999 V2000
    5.8155  -17.5728   25.4021 N   0  0  0  0  0  0  0  0  0  0  0  0
    6.3994  -16.2884   25.1956 C   0  0  1  0  0  0  0  0  0  0  0  0
    7.1608  -15.8616   26.4297 C   0  0  0  0  0  0  0  0  0  0  0  0
    7.0336  -14.3856   26.5441 C   0  0  0  0  0  0  0  0  0  0  0  0
    8.1192  -13.5300   26.5927 C   0  0  0  0  0  0  0  0  0  0  0  0
    7.9780  -12.1666   26.6988 C   0  0  0  0  0  0  0  0  0  0  0  0
    6.7143  -11.6228   26.7597 C   0  0  0  0  0  0  0  0  0  0  0  0
    5.5875  -12.4354   26.7150 C   0  0  0  0  0  0  0  0  0  0  0  0
    5.7870  -13.7990   26.6079 C   0  0  0  0  0  0  0  0  0  0  0  0
    7.2617  -16.3551   23.9985 C   0  0  0  0  0  0  0  0  0  0  0  0
    7.8937  -17.4051   23.7416 O   0  0  0  0  0  0  0  0  0  0  0  0
    8.0544  -13.9956   21.1234 C   0  0  0  0  0  0  0  0  0  0  0  0
    8.1382  -15.3115   21.8772 C   0  0  2  0  0  0  0  0  0  0  0  0
    7.3853  -15.2468   23.1342 N   0  0  0  0  0  0  0  0  0  0  0  0
    9.5421  -15.6448   22.2340 C   0  0  0  0  0  0  0  0  0  0  0  0
   10.1729  -15.0163   23.1332 O   0  0  0  0  0  0  0  0  0  0  0  0
   11.3081  -18.8577   20.4665 O   0  0  0  0  0  0  0  0  0  0  0  0
   11.8036  -18.5221   21.7112 C   0  0  0  0  0  0  0  0  0  0  0  0
   11.6200  -17.0462   21.9839 C   0  0  2  0  0  0  0  0  0  0  0  0
   10.2659  -16.6871   21.5914 N   0  0  0  0  0  0  0  0  0  0  0  0
   12.5387  -16.2371   21.1256 C   0  0  0  0  0  0  0  0  0  0  0  0
   12.0696  -15.5473   20.1836 O   0  0  0  0  0  0  0  0  0  0  0  0
   13.9099  -16.2044   21.3150 O   0  0  0  0  0  0  0  0  0  0  0  0
  2  1  1  1
  2 10  1  0
  3  2  1  0
  4  5  2  0
  4  3  1  0
  6  5  1  0
  7  6  2  0
  8  7  1  0
  8  9  2  0
  9  4  1  0
 10 11  2  0
 10 14  1  0
 13 15  1  0
 13 12  1  1
 14 13  1  0
 15 16  2  0
 18 17  1  0
 19 18  1  6
 20 19  1  0
 20 15  1  0
 21 19  1  0
 22 21  2  0
 23 21  1  0
M  END
$$$$
