QQI.pdb
     RDKit          3D

 27 26  0  0  1  0  0  0  0  0999 V2000
    6.8671  -16.7660   15.9039 N   0  0  0  0  0  0  0  0  0  0  0  0
    7.4262  -17.6544   16.8522 C   0  0  0  0  0  0  0  0  0  0  0  0
    8.6535  -17.9093   16.7790 O   0  0  0  0  0  0  0  0  0  0  0  0
    6.6294  -18.2838   17.9103 C   0  0  0  0  0  0  0  0  0  0  0  0
    6.3070  -17.3467   19.0420 C   0  0  0  0  0  0  0  0  0  0  0  0
    7.5085  -17.2547   19.9317 C   0  0  2  0  0  0  0  0  0  0  0  0
    8.3793  -18.4003   19.8316 N   0  0  0  0  0  0  0  0  0  0  0  0
    7.1526  -17.0137   21.3531 C   0  0  0  0  0  0  0  0  0  0  0  0
    6.3060  -16.1008   21.6416 O   0  0  0  0  0  0  0  0  0  0  0  0
    8.0896  -20.7443   26.4079 N   0  0  0  0  0  0  0  0  0  0  0  0
    7.4840  -19.5921   26.9231 C   0  0  0  0  0  0  0  0  0  0  0  0
    7.1836  -19.6001   28.1673 O   0  0  0  0  0  0  0  0  0  0  0  0
    7.1815  -18.3853   26.1036 C   0  0  0  0  0  0  0  0  0  0  0  0
    7.5442  -18.6641   24.6880 C   0  0  0  0  0  0  0  0  0  0  0  0
    7.2839  -17.4978   23.7623 C   0  0  2  0  0  0  0  0  0  0  0  0
    7.7051  -17.7473   22.4189 N   0  0  0  0  0  0  0  0  0  0  0  0
    8.0121  -16.3268   24.3623 C   0  0  0  0  0  0  0  0  0  0  0  0
    9.2570  -16.2699   24.2152 O   0  0  0  0  0  0  0  0  0  0  0  0
    6.9477  -10.5633   26.4760 C   0  0  0  0  0  0  0  0  0  0  0  0
    7.8269  -11.7510   26.2912 C   0  0  0  0  0  0  0  0  0  0  0  0
    7.1979  -12.9762   25.7422 C   0  0  2  0  0  0  0  0  0  0  0  0
    5.7948  -13.2112   26.2153 C   0  0  0  0  0  0  0  0  0  0  0  0
    8.0844  -14.1534   25.6594 C   0  0  2  0  0  0  0  0  0  0  0  0
    7.3646  -15.3075   25.0714 N   0  0  0  0  0  0  0  0  0  0  0  0
    8.6999  -14.6554   26.8817 C   0  0  0  0  0  0  0  0  0  0  0  0
    9.7828  -14.0315   27.4786 O   0  0  0  0  0  0  0  0  0  0  0  0
    8.2692  -15.6807   27.4453 O   0  0  0  0  0  0  0  0  0  0  0  0
  2  1  1  0
  3  2  2  0
  4  2  1  0
  5  4  1  0
  6  8  1  0
  6  5  1  0
  6  7  1  1
  8 16  1  0
  8  9  2  0
 11 10  1  0
 11 13  1  0
 12 11  2  0
 14 13  1  0
 15 14  1  1
 16 15  1  0
 17 24  1  0
 17 15  1  0
 18 17  2  0
 19 20  1  0
 21 20  1  0
 21 22  1  1
 23 21  1  0
 23 24  1  1
 25 23  1  0
 26 25  1  0
 27 25  2  0
M  END
$$$$
