QQI.pdb
     RDKit          3D

 27 26  0  0  1  0  0  0  0  0999 V2000
    6.3143  -20.2364   26.1399 N   0  0  0  0  0  0  0  0  0  0  0  0
    7.1599  -21.3027   25.7537 C   0  0  0  0  0  0  0  0  0  0  0  0
    7.2432  -22.3014   26.5102 O   0  0  0  0  0  0  0  0  0  0  0  0
    7.9373  -21.2836   24.5104 C   0  0  0  0  0  0  0  0  0  0  0  0
    7.6059  -20.1129   23.6258 C   0  0  0  0  0  0  0  0  0  0  0  0
    8.8825  -19.5882   23.0441 C   0  0  2  0  0  0  0  0  0  0  0  0
   10.0576  -20.2333   23.5768 N   0  0  0  0  0  0  0  0  0  0  0  0
    9.0109  -18.1148   23.1779 C   0  0  0  0  0  0  0  0  0  0  0  0
    9.8494  -17.6316   24.0126 O   0  0  0  0  0  0  0  0  0  0  0  0
    6.3924  -12.9397   19.8350 N   0  0  0  0  0  0  0  0  0  0  0  0
    7.6865  -12.8293   20.3573 C   0  0  0  0  0  0  0  0  0  0  0  0
    8.5104  -12.0881   19.7169 O   0  0  0  0  0  0  0  0  0  0  0  0
    8.1347  -13.5217   21.5979 C   0  0  0  0  0  0  0  0  0  0  0  0
    7.9232  -14.9851   21.4329 C   0  0  0  0  0  0  0  0  0  0  0  0
    8.4089  -15.7968   22.6120 C   0  0  2  0  0  0  0  0  0  0  0  0
    8.2475  -17.2050   22.4238 N   0  0  0  0  0  0  0  0  0  0  0  0
    7.6286  -15.3040   23.7992 C   0  0  0  0  0  0  0  0  0  0  0  0
    6.4537  -15.7201   23.9452 O   0  0  0  0  0  0  0  0  0  0  0  0
   10.2087  -14.1569   28.5430 C   0  0  0  0  0  0  0  0  0  0  0  0
    9.1931  -14.5711   27.5357 C   0  0  0  0  0  0  0  0  0  0  0  0
    8.3101  -13.5106   26.9936 C   0  0  2  0  0  0  0  0  0  0  0  0
    7.7554  -12.5826   28.0323 C   0  0  0  0  0  0  0  0  0  0  0  0
    7.3919  -13.9454   25.9228 C   0  0  2  0  0  0  0  0  0  0  0  0
    8.1538  -14.4088   24.7393 N   0  0  0  0  0  0  0  0  0  0  0  0
    6.4108  -12.9962   25.4116 C   0  0  0  0  0  0  0  0  0  0  0  0
    5.2326  -12.7123   26.0820 O   0  0  0  0  0  0  0  0  0  0  0  0
    6.5969  -12.3946   24.3358 O   0  0  0  0  0  0  0  0  0  0  0  0
  2  1  1  0
  3  2  2  0
  4  2  1  0
  5  4  1  0
  6  8  1  0
  6  5  1  0
  6  7  1  1
  8 16  1  0
  8  9  2  0
 11 10  1  0
 11 13  1  0
 12 11  2  0
 14 13  1  0
 15 14  1  6
 16 15  1  0
 17 24  1  0
 17 15  1  0
 18 17  2  0
 19 20  1  0
 21 20  1  0
 21 22  1  1
 23 21  1  0
 23 24  1  6
 25 23  1  0
 26 25  1  0
 27 25  2  0
M  END
$$$$
