QQI.pdb
     RDKit          3D

 27 26  0  0  1  0  0  0  0  0999 V2000
   10.0374  -12.6226   19.3406 N   0  0  0  0  0  0  0  0  0  0  0  0
    9.4036  -13.2731   18.2559 C   0  0  0  0  0  0  0  0  0  0  0  0
   10.1173  -13.6849   17.3084 O   0  0  0  0  0  0  0  0  0  0  0  0
    7.9533  -13.4824   18.1989 C   0  0  0  0  0  0  0  0  0  0  0  0
    7.3407  -13.7356   19.5493 C   0  0  0  0  0  0  0  0  0  0  0  0
    7.6603  -15.1421   19.9532 C   0  0  2  0  0  0  0  0  0  0  0  0
    7.1891  -16.1258   19.0094 N   0  0  0  0  0  0  0  0  0  0  0  0
    7.1695  -15.4733   21.3151 C   0  0  0  0  0  0  0  0  0  0  0  0
    6.2348  -14.7720   21.8327 O   0  0  0  0  0  0  0  0  0  0  0  0
    8.0866  -20.1412   26.7243 N   0  0  0  0  0  0  0  0  0  0  0  0
    7.2217  -19.7814   25.6840 C   0  0  0  0  0  0  0  0  0  0  0  0
    6.6524  -20.7338   25.0459 O   0  0  0  0  0  0  0  0  0  0  0  0
    6.9425  -18.3701   25.2973 C   0  0  0  0  0  0  0  0  0  0  0  0
    7.3950  -18.1587   23.8959 C   0  0  0  0  0  0  0  0  0  0  0  0
    7.2544  -16.7274   23.4308 C   0  0  2  0  0  0  0  0  0  0  0  0
    7.6851  -16.5348   22.0810 N   0  0  0  0  0  0  0  0  0  0  0  0
    8.0628  -15.9015   24.3930 C   0  0  0  0  0  0  0  0  0  0  0  0
    9.2922  -15.7778   24.1735 O   0  0  0  0  0  0  0  0  0  0  0  0
    5.6398  -12.1757   28.1830 C   0  0  0  0  0  0  0  0  0  0  0  0
    6.3932  -13.3713   27.7130 C   0  0  0  0  0  0  0  0  0  0  0  0
    7.4462  -13.1466   26.6937 C   0  0  2  0  0  0  0  0  0  0  0  0
    7.0181  -12.2772   25.5497 C   0  0  0  0  0  0  0  0  0  0  0  0
    8.2663  -14.3296   26.3675 C   0  0  2  0  0  0  0  0  0  0  0  0
    7.5059  -15.2712   25.5126 N   0  0  0  0  0  0  0  0  0  0  0  0
    8.8018  -15.1343   27.4586 C   0  0  0  0  0  0  0  0  0  0  0  0
    9.7708  -14.6586   28.3263 O   0  0  0  0  0  0  0  0  0  0  0  0
    8.4027  -16.2988   27.6558 O   0  0  0  0  0  0  0  0  0  0  0  0
  2  1  1  0
  3  2  2  0
  4  2  1  0
  5  4  1  0
  6  8  1  0
  6  5  1  0
  6  7  1  6
  8 16  1  0
  8  9  2  0
 11 10  1  0
 11 13  1  0
 12 11  2  0
 14 13  1  0
 15 14  1  1
 16 15  1  0
 17 24  1  0
 17 15  1  0
 18 17  2  0
 19 20  1  0
 21 20  1  0
 21 22  1  6
 23 21  1  0
 23 24  1  6
 25 23  1  0
 26 25  1  0
 27 25  2  0
M  END
$$$$
