QQI.pdb
     RDKit          3D

 27 26  0  0  1  0  0  0  0  0999 V2000
    8.2991  -12.7106   17.0509 N   0  0  0  0  0  0  0  0  0  0  0  0
    8.1325  -14.0771   16.7251 C   0  0  0  0  0  0  0  0  0  0  0  0
    8.4007  -14.4481   15.5559 O   0  0  0  0  0  0  0  0  0  0  0  0
    7.6611  -15.0689   17.6971 C   0  0  0  0  0  0  0  0  0  0  0  0
    7.3631  -14.4759   19.0471 C   0  0  0  0  0  0  0  0  0  0  0  0
    8.0682  -15.2940   20.0849 C   0  0  2  0  0  0  0  0  0  0  0  0
    8.3906  -16.6265   19.6362 N   0  0  0  0  0  0  0  0  0  0  0  0
    7.3226  -15.3598   21.3674 C   0  0  0  0  0  0  0  0  0  0  0  0
    6.8704  -14.2827   21.8860 O   0  0  0  0  0  0  0  0  0  0  0  0
    6.2844  -19.8511   25.7381 N   0  0  0  0  0  0  0  0  0  0  0  0
    7.0166  -19.9776   24.5517 C   0  0  0  0  0  0  0  0  0  0  0  0
    7.8030  -20.9831   24.4584 O   0  0  0  0  0  0  0  0  0  0  0  0
    6.9213  -19.0138   23.4196 C   0  0  0  0  0  0  0  0  0  0  0  0
    6.0149  -17.9014   23.8123 C   0  0  0  0  0  0  0  0  0  0  0  0
    6.5045  -16.5434   23.3639 C   0  0  2  0  0  0  0  0  0  0  0  0
    7.0819  -16.5628   22.0559 N   0  0  0  0  0  0  0  0  0  0  0  0
    7.4995  -16.1023   24.4016 C   0  0  0  0  0  0  0  0  0  0  0  0
    8.7150  -16.3260   24.1842 O   0  0  0  0  0  0  0  0  0  0  0  0
    5.8505  -11.5969   26.6847 C   0  0  0  0  0  0  0  0  0  0  0  0
    6.6714  -12.6910   26.0958 C   0  0  0  0  0  0  0  0  0  0  0  0
    7.4489  -13.5319   27.0375 C   0  0  2  0  0  0  0  0  0  0  0  0
    8.2511  -12.7539   28.0369 C   0  0  0  0  0  0  0  0  0  0  0  0
    8.0920  -14.7166   26.4364 C   0  0  2  0  0  0  0  0  0  0  0  0
    7.1291  -15.4585   25.5888 N   0  0  0  0  0  0  0  0  0  0  0  0
    8.6895  -15.7130   27.3169 C   0  0  0  0  0  0  0  0  0  0  0  0
    9.9857  -15.6026   27.7920 O   0  0  0  0  0  0  0  0  0  0  0  0
    8.0476  -16.7176   27.6814 O   0  0  0  0  0  0  0  0  0  0  0  0
  2  1  1  0
  3  2  2  0
  4  2  1  0
  5  4  1  0
  6  8  1  0
  6  5  1  0
  6  7  1  6
  8 16  1  0
  8  9  2  0
 11 10  1  0
 11 13  1  0
 12 11  2  0
 14 13  1  0
 15 14  1  1
 16 15  1  0
 17 24  1  0
 17 15  1  0
 18 17  2  0
 19 20  1  0
 21 20  1  0
 21 22  1  6
 23 21  1  0
 23 24  1  1
 25 23  1  0
 26 25  1  0
 27 25  2  0
M  END
$$$$
