QQI.pdb
     RDKit          3D

 27 26  0  0  1  0  0  0  0  0999 V2000
    9.4396  -12.1662   19.2572 N   0  0  0  0  0  0  0  0  0  0  0  0
    8.1890  -12.8261   19.3012 C   0  0  0  0  0  0  0  0  0  0  0  0
    7.1471  -12.1382   19.1677 O   0  0  0  0  0  0  0  0  0  0  0  0
    8.0668  -14.2744   19.4959 C   0  0  0  0  0  0  0  0  0  0  0  0
    9.3924  -14.9559   19.6988 C   0  0  0  0  0  0  0  0  0  0  0  0
    9.1363  -16.4017   19.9946 C   0  0  2  0  0  0  0  0  0  0  0  0
    8.0747  -16.9658   19.1975 N   0  0  0  0  0  0  0  0  0  0  0  0
    8.8759  -16.6552   21.4345 C   0  0  0  0  0  0  0  0  0  0  0  0
    7.6700  -16.7581   21.8451 O   0  0  0  0  0  0  0  0  0  0  0  0
    8.2594  -21.0885   23.0901 N   0  0  0  0  0  0  0  0  0  0  0  0
    9.1772  -20.4061   23.8974 C   0  0  0  0  0  0  0  0  0  0  0  0
    9.0535  -20.5456   25.1637 O   0  0  0  0  0  0  0  0  0  0  0  0
   10.2662  -19.5448   23.3575 C   0  0  0  0  0  0  0  0  0  0  0  0
   10.3988  -18.3415   24.2224 C   0  0  0  0  0  0  0  0  0  0  0  0
    9.5901  -17.1614   23.7344 C   0  0  2  0  0  0  0  0  0  0  0  0
    9.9007  -16.7908   22.3888 N   0  0  0  0  0  0  0  0  0  0  0  0
    9.8755  -16.0417   24.6969 C   0  0  0  0  0  0  0  0  0  0  0  0
   10.9847  -15.4610   24.6119 O   0  0  0  0  0  0  0  0  0  0  0  0
    6.3266  -12.3149   25.6865 C   0  0  0  0  0  0  0  0  0  0  0  0
    7.5222  -13.1955   25.5728 C   0  0  0  0  0  0  0  0  0  0  0  0
    8.1451  -13.6527   26.8382 C   0  0  2  0  0  0  0  0  0  0  0  0
    8.2819  -12.5812   27.8778 C   0  0  0  0  0  0  0  0  0  0  0  0
    9.2807  -14.5820   26.6785 C   0  0  2  0  0  0  0  0  0  0  0  0
    8.9636  -15.6246   25.6743 N   0  0  0  0  0  0  0  0  0  0  0  0
    9.7699  -15.2997   27.8492 C   0  0  0  0  0  0  0  0  0  0  0  0
   10.6733  -14.7420   28.7385 O   0  0  0  0  0  0  0  0  0  0  0  0
    9.3886  -16.4601   28.0987 O   0  0  0  0  0  0  0  0  0  0  0  0
  2  1  1  0
  3  2  2  0
  4  2  1  0
  5  4  1  0
  6  8  1  0
  6  5  1  0
  6  7  1  6
  8 16  1  0
  8  9  2  0
 11 10  1  0
 11 13  1  0
 12 11  2  0
 14 13  1  0
 15 14  1  1
 16 15  1  0
 17 24  1  0
 17 15  1  0
 18 17  2  0
 19 20  1  0
 21 20  1  0
 21 22  1  6
 23 21  1  0
 23 24  1  6
 25 23  1  0
 26 25  1  0
 27 25  2  0
M  END
$$$$
