QQI.pdb
     RDKit          3D

 27 26  0  0  1  0  0  0  0  0999 V2000
    6.5859  -13.3347   18.5341 N   0  0  0  0  0  0  0  0  0  0  0  0
    7.8484  -13.8294   18.1308 C   0  0  0  0  0  0  0  0  0  0  0  0
    8.6034  -13.0713   17.4736 O   0  0  0  0  0  0  0  0  0  0  0  0
    8.3038  -15.1862   18.4505 C   0  0  0  0  0  0  0  0  0  0  0  0
    7.3045  -15.9683   19.2584 C   0  0  0  0  0  0  0  0  0  0  0  0
    8.0339  -16.6478   20.3763 C   0  0  2  0  0  0  0  0  0  0  0  0
    8.1591  -18.0728   20.1904 N   0  0  0  0  0  0  0  0  0  0  0  0
    7.4387  -16.3625   21.7065 C   0  0  0  0  0  0  0  0  0  0  0  0
    7.3085  -15.1498   22.0883 O   0  0  0  0  0  0  0  0  0  0  0  0
    8.0447  -20.5966   22.8906 N   0  0  0  0  0  0  0  0  0  0  0  0
    6.9465  -20.2385   23.6814 C   0  0  0  0  0  0  0  0  0  0  0  0
    5.8190  -20.7659   23.3833 O   0  0  0  0  0  0  0  0  0  0  0  0
    7.0327  -19.2917   24.8284 C   0  0  0  0  0  0  0  0  0  0  0  0
    6.0034  -18.2319   24.6533 C   0  0  0  0  0  0  0  0  0  0  0  0
    6.5046  -17.0320   23.8826 C   0  0  2  0  0  0  0  0  0  0  0  0
    7.0024  -17.3706   22.5856 N   0  0  0  0  0  0  0  0  0  0  0  0
    7.5719  -16.4097   24.7400 C   0  0  0  0  0  0  0  0  0  0  0  0
    8.7669  -16.7106   24.5031 O   0  0  0  0  0  0  0  0  0  0  0  0
    6.1771  -11.5645   26.5606 C   0  0  0  0  0  0  0  0  0  0  0  0
    7.0199  -12.6672   26.0207 C   0  0  0  0  0  0  0  0  0  0  0  0
    7.7849  -13.4732   27.0023 C   0  0  2  0  0  0  0  0  0  0  0  0
    8.6657  -12.6651   27.9072 C   0  0  0  0  0  0  0  0  0  0  0  0
    8.3390  -14.7376   26.4799 C   0  0  2  0  0  0  0  0  0  0  0  0
    7.2898  -15.5171   25.7816 N   0  0  0  0  0  0  0  0  0  0  0  0
    8.9645  -15.6675   27.4120 C   0  0  0  0  0  0  0  0  0  0  0  0
   10.2803  -15.5345   27.8233 O   0  0  0  0  0  0  0  0  0  0  0  0
    8.3303  -16.6325   27.8818 O   0  0  0  0  0  0  0  0  0  0  0  0
  2  1  1  0
  3  2  2  0
  4  2  1  0
  5  4  1  0
  6  8  1  0
  6  5  1  0
  6  7  1  6
  8 16  1  0
  8  9  2  0
 11 10  1  0
 11 13  1  0
 12 11  2  0
 14 13  1  0
 15 14  1  1
 16 15  1  0
 17 24  1  0
 17 15  1  0
 18 17  2  0
 19 20  1  0
 21 20  1  0
 21 22  1  6
 23 21  1  0
 23 24  1  1
 25 23  1  0
 26 25  1  0
 27 25  2  0
M  END
$$$$
