QQI.pdb
     RDKit          3D

 27 26  0  0  1  0  0  0  0  0999 V2000
    9.9992  -14.2232   20.8798 N   0  0  0  0  0  0  0  0  0  0  0  0
    9.7179  -14.0836   19.5004 C   0  0  0  0  0  0  0  0  0  0  0  0
   10.6779  -14.1040   18.6913 O   0  0  0  0  0  0  0  0  0  0  0  0
    8.3551  -13.9169   18.9853 C   0  0  0  0  0  0  0  0  0  0  0  0
    7.3070  -13.9697   20.0631 C   0  0  0  0  0  0  0  0  0  0  0  0
    6.9182  -15.4014   20.2697 C   0  0  2  0  0  0  0  0  0  0  0  0
    5.8227  -15.8201   19.4300 N   0  0  0  0  0  0  0  0  0  0  0  0
    6.6144  -15.7141   21.6893 C   0  0  0  0  0  0  0  0  0  0  0  0
    5.7734  -14.9913   22.3246 O   0  0  0  0  0  0  0  0  0  0  0  0
    7.7031  -20.9745   25.0702 N   0  0  0  0  0  0  0  0  0  0  0  0
    7.3384  -20.0167   26.0238 C   0  0  0  0  0  0  0  0  0  0  0  0
    7.2834  -20.4022   27.2431 O   0  0  0  0  0  0  0  0  0  0  0  0
    7.0192  -18.6010   25.6873 C   0  0  0  0  0  0  0  0  0  0  0  0
    7.1894  -18.4066   24.2222 C   0  0  0  0  0  0  0  0  0  0  0  0
    6.9247  -16.9882   23.7717 C   0  0  2  0  0  0  0  0  0  0  0  0
    7.2113  -16.7805   22.3863 N   0  0  0  0  0  0  0  0  0  0  0  0
    7.7753  -16.1128   24.6501 C   0  0  0  0  0  0  0  0  0  0  0  0
    8.9906  -15.9930   24.3615 O   0  0  0  0  0  0  0  0  0  0  0  0
    5.4277  -11.7881   26.9320 C   0  0  0  0  0  0  0  0  0  0  0  0
    6.4643  -12.6684   26.3251 C   0  0  0  0  0  0  0  0  0  0  0  0
    7.2624  -13.5073   27.2512 C   0  0  2  0  0  0  0  0  0  0  0  0
    7.8708  -12.7519   28.3945 C   0  0  0  0  0  0  0  0  0  0  0  0
    8.1015  -14.5339   26.6025 C   0  0  2  0  0  0  0  0  0  0  0  0
    7.2719  -15.4325   25.7659 N   0  0  0  0  0  0  0  0  0  0  0  0
    8.9093  -15.4116   27.4404 C   0  0  0  0  0  0  0  0  0  0  0  0
    8.4678  -16.6578   27.8529 O   0  0  0  0  0  0  0  0  0  0  0  0
   10.0451  -15.0695   27.8238 O   0  0  0  0  0  0  0  0  0  0  0  0
  2  1  1  0
  3  2  2  0
  4  2  1  0
  5  4  1  0
  6  8  1  0
  6  5  1  0
  6  7  1  6
  8 16  1  0
  8  9  2  0
 11 10  1  0
 11 13  1  0
 12 11  2  0
 14 13  1  0
 15 14  1  1
 16 15  1  0
 17 24  1  0
 17 15  1  0
 18 17  2  0
 19 20  1  0
 21 20  1  0
 21 22  1  6
 23 21  1  0
 23 24  1  1
 25 23  1  0
 26 25  1  0
 27 25  2  0
M  END
$$$$
