TPK.pdb
     RDKit          3D

 24 24  0  0  1  0  0  0  0  0999 V2000
   28.3901  -22.0060  -19.2884 C   0  0  0  0  0  0  0  0  0  0  0  0
   27.3979  -21.5179  -18.2514 C   0  0  1  0  0  0  0  0  0  0  0  0
   26.2739  -22.3682  -18.4215 O   0  0  0  0  0  0  0  0  0  0  0  0
   27.9407  -21.8728  -16.8752 C   0  0  2  0  0  0  0  0  0  0  0  0
   28.2968  -23.2686  -16.8149 N   0  0  0  0  0  0  0  0  0  0  0  0
   27.1581  -21.3679  -15.7635 C   0  0  0  0  0  0  0  0  0  0  0  0
   26.4384  -22.2385  -15.1552 O   0  0  0  0  0  0  0  0  0  0  0  0
   27.0879  -20.0478  -15.2671 N   0  0  0  0  0  0  0  0  0  0  0  0
   27.8809  -18.9254  -15.6655 C   0  0  0  0  0  0  0  0  0  0  0  0
   26.8584  -17.7717  -15.6179 C   0  0  0  0  0  0  0  0  0  0  0  0
   26.2876  -18.0613  -14.2202 C   0  0  0  0  0  0  0  0  0  0  0  0
   26.1794  -19.5709  -14.2283 C   0  0  1  0  0  0  0  0  0  0  0  0
   24.7670  -19.9098  -14.5417 C   0  0  0  0  0  0  0  0  0  0  0  0
   24.2947  -20.0314  -15.6946 O   0  0  0  0  0  0  0  0  0  0  0  0
   23.8838  -20.1115  -13.4494 N   0  0  0  0  0  0  0  0  0  0  0  0
   22.5154  -20.5619  -13.5758 C   0  0  1  0  0  0  0  0  0  0  0  0
   21.9915  -21.3792  -12.4812 C   0  0  0  0  0  0  0  0  0  0  0  0
   20.6962  -22.0192  -12.4340 C   0  0  0  0  0  0  0  0  0  0  0  0
   20.1413  -22.7605  -11.2997 C   0  0  0  0  0  0  0  0  0  0  0  0
   18.8069  -23.3828  -11.4053 C   0  0  0  0  0  0  0  0  0  0  0  0
   18.4138  -23.9064  -10.0876 N   0  0  0  0  0  0  0  0  0  0  0  0
   21.6594  -19.5113  -14.1514 C   0  0  0  0  0  0  0  0  0  0  0  0
   20.6793  -19.8062  -15.0800 O   0  0  0  0  0  0  0  0  0  0  0  0
   21.8001  -18.3135  -13.8102 O   0  0  0  0  0  0  0  0  0  0  0  0
  2  1  1  6
  3  2  1  0
  4  6  1  0
  4  2  1  0
  4  5  1  6
  6  8  1  0
  6  7  2  0
  8 12  1  0
  9  8  1  0
  9 10  1  0
 10 11  1  0
 12 11  1  0
 13 15  1  0
 12 13  1  6
 14 13  2  0
 16 17  1  1
 16 15  1  0
 17 18  1  0
 18 19  1  0
 20 19  1  0
 21 20  1  0
 22 16  1  0
 22 23  1  0
 24 22  2  0
M  END
$$$$
