TPK.pdb
     RDKit          3D

 24 24  0  0  1  0  0  0  0  0999 V2000
   20.4182   -8.3465  -18.7460 C   0  0  0  0  0  0  0  0  0  0  0  0
   19.8276   -9.5197  -17.9892 C   0  0  1  0  0  0  0  0  0  0  0  0
   20.4191  -10.6572  -18.5990 O   0  0  0  0  0  0  0  0  0  0  0  0
   20.3951   -9.5045  -16.5778 C   0  0  2  0  0  0  0  0  0  0  0  0
   20.1711  -10.7715  -15.9273 N   0  0  0  0  0  0  0  0  0  0  0  0
   20.0651   -8.3245  -15.8018 C   0  0  0  0  0  0  0  0  0  0  0  0
   18.8455   -7.9345  -15.8827 O   0  0  0  0  0  0  0  0  0  0  0  0
   20.9097   -7.5546  -14.9724 N   0  0  0  0  0  0  0  0  0  0  0  0
   22.2674   -7.8324  -14.6162 C   0  0  0  0  0  0  0  0  0  0  0  0
   22.8972   -6.4245  -14.6132 C   0  0  0  0  0  0  0  0  0  0  0  0
   21.8318   -5.7253  -13.7535 C   0  0  0  0  0  0  0  0  0  0  0  0
   20.5478   -6.3084  -14.3030 C   0  0  1  0  0  0  0  0  0  0  0  0
   19.9882   -5.3185  -15.2594 C   0  0  0  0  0  0  0  0  0  0  0  0
   20.3266   -5.2059  -16.4593 O   0  0  0  0  0  0  0  0  0  0  0  0
   18.9921   -4.4310  -14.7757 N   0  0  0  0  0  0  0  0  0  0  0  0
   18.3144   -3.4421  -15.5845 C   0  0  1  0  0  0  0  0  0  0  0  0
   17.2079   -3.9211  -16.4135 C   0  0  0  0  0  0  0  0  0  0  0  0
   15.8374   -4.1021  -15.9914 C   0  0  0  0  0  0  0  0  0  0  0  0
   14.7248   -4.5384  -16.8376 C   0  0  0  0  0  0  0  0  0  0  0  0
   13.3898   -4.7587  -16.2474 C   0  0  0  0  0  0  0  0  0  0  0  0
   12.4468   -5.1302  -17.3140 N   0  0  0  0  0  0  0  0  0  0  0  0
   18.1587   -2.1727  -14.8552 C   0  0  0  0  0  0  0  0  0  0  0  0
   18.4057   -2.0840  -13.4983 O   0  0  0  0  0  0  0  0  0  0  0  0
   17.7952   -1.1325  -15.4524 O   0  0  0  0  0  0  0  0  0  0  0  0
  2  1  1  6
  3  2  1  0
  4  6  1  0
  4  2  1  0
  4  5  1  1
  6  8  1  0
  6  7  2  0
  8 12  1  0
  9  8  1  0
  9 10  1  0
 10 11  1  0
 12 11  1  0
 13 15  1  0
 12 13  1  6
 14 13  2  0
 16 17  1  1
 16 15  1  0
 17 18  1  0
 18 19  1  0
 20 19  1  0
 21 20  1  0
 22 16  1  0
 22 23  1  0
 24 22  2  0
M  END
$$$$
