TPK.pdb
     RDKit          3D

 24 24  0  0  1  0  0  0  0  0999 V2000
   14.5088  -15.2758    4.2383 C   0  0  0  0  0  0  0  0  0  0  0  0
   15.1183  -16.6160    3.8770 C   0  0  1  0  0  0  0  0  0  0  0  0
   14.3930  -17.0268    2.7279 O   0  0  0  0  0  0  0  0  0  0  0  0
   16.5312  -16.3703    3.3694 C   0  0  2  0  0  0  0  0  0  0  0  0
   16.9835  -17.4817    2.5701 N   0  0  0  0  0  0  0  0  0  0  0  0
   17.4623  -15.8872    4.3709 C   0  0  0  0  0  0  0  0  0  0  0  0
   17.8478  -16.7575    5.2310 O   0  0  0  0  0  0  0  0  0  0  0  0
   17.9967  -14.5885    4.5190 N   0  0  0  0  0  0  0  0  0  0  0  0
   17.7616  -13.4507    3.6839 C   0  0  0  0  0  0  0  0  0  0  0  0
   17.7092  -12.2999    4.7094 C   0  0  0  0  0  0  0  0  0  0  0  0
   18.9980  -12.6465    5.4723 C   0  0  0  0  0  0  0  0  0  0  0  0
   18.9134  -14.1546    5.5694 C   0  0  1  0  0  0  0  0  0  0  0  0
   18.3878  -14.4804    6.9205 C   0  0  0  0  0  0  0  0  0  0  0  0
   17.1958  -14.3502    7.2799 O   0  0  0  0  0  0  0  0  0  0  0  0
   19.3083  -14.9781    7.8790 N   0  0  0  0  0  0  0  0  0  0  0  0
   18.9599  -15.3485    9.2328 C   0  0  1  0  0  0  0  0  0  0  0  0
   18.9325  -16.7802    9.5333 C   0  0  0  0  0  0  0  0  0  0  0  0
   17.9329  -17.7283    9.0959 C   0  0  0  0  0  0  0  0  0  0  0  0
   17.8981  -19.1559    9.4198 C   0  0  0  0  0  0  0  0  0  0  0  0
   16.7802  -19.9944    8.9444 C   0  0  0  0  0  0  0  0  0  0  0  0
   16.9907  -21.3791    9.3951 N   0  0  0  0  0  0  0  0  0  0  0  0
   19.5653  -14.4284   10.2098 C   0  0  0  0  0  0  0  0  0  0  0  0
   20.5142  -13.4968    9.8332 O   0  0  0  0  0  0  0  0  0  0  0  0
   19.2320  -14.4680   11.4174 O   0  0  0  0  0  0  0  0  0  0  0  0
  2  1  1  6
  3  2  1  0
  4  6  1  0
  4  2  1  0
  4  5  1  1
  6  8  1  0
  6  7  2  0
  8 12  1  0
  9  8  1  0
  9 10  1  0
 10 11  1  0
 12 11  1  0
 13 15  1  0
 12 13  1  1
 14 13  2  0
 16 17  1  1
 16 15  1  0
 17 18  1  0
 18 19  1  0
 20 19  1  0
 21 20  1  0
 22 16  1  0
 22 23  1  0
 24 22  2  0
M  END
$$$$
