TPK.pdb
     RDKit          3D

 24 24  0  0  1  0  0  0  0  0999 V2000
   27.3332  -19.2945  -18.0233 C   0  0  0  0  0  0  0  0  0  0  0  0
   27.6520  -20.3502  -16.9831 C   0  0  1  0  0  0  0  0  0  0  0  0
   29.0078  -20.6865  -17.2364 O   0  0  0  0  0  0  0  0  0  0  0  0
   27.6738  -19.6771  -15.6190 C   0  0  2  0  0  0  0  0  0  0  0  0
   28.2798  -20.5410  -14.6366 N   0  0  0  0  0  0  0  0  0  0  0  0
   26.4254  -19.0496  -15.2299 C   0  0  0  0  0  0  0  0  0  0  0  0
   25.5033  -19.8516  -14.8394 O   0  0  0  0  0  0  0  0  0  0  0  0
   26.0972  -17.6763  -15.2251 N   0  0  0  0  0  0  0  0  0  0  0  0
   26.9448  -16.5781  -15.5760 C   0  0  0  0  0  0  0  0  0  0  0  0
   25.9667  -15.6310  -16.3005 C   0  0  0  0  0  0  0  0  0  0  0  0
   24.8481  -15.6460  -15.2461 C   0  0  0  0  0  0  0  0  0  0  0  0
   24.8074  -17.1055  -14.8475 C   0  0  1  0  0  0  0  0  0  0  0  0
   23.6913  -17.7365  -15.5984 C   0  0  0  0  0  0  0  0  0  0  0  0
   23.8257  -18.5754  -16.5178 O   0  0  0  0  0  0  0  0  0  0  0  0
   22.3692  -17.3593  -15.2467 N   0  0  0  0  0  0  0  0  0  0  0  0
   21.2770  -18.2873  -15.0548 C   0  0  1  0  0  0  0  0  0  0  0  0
   21.5763  -19.5032  -14.2978 C   0  0  0  0  0  0  0  0  0  0  0  0
   20.6495  -20.5674  -13.9849 C   0  0  0  0  0  0  0  0  0  0  0  0
   20.4210  -21.7742  -14.7822 C   0  0  0  0  0  0  0  0  0  0  0  0
   19.4528  -22.7900  -14.3243 C   0  0  0  0  0  0  0  0  0  0  0  0
   19.3820  -23.8715  -15.3194 N   0  0  0  0  0  0  0  0  0  0  0  0
   20.0146  -17.5775  -14.7898 C   0  0  0  0  0  0  0  0  0  0  0  0
   18.8832  -17.8075  -15.5495 O   0  0  0  0  0  0  0  0  0  0  0  0
   19.9346  -16.7401  -13.8607 O   0  0  0  0  0  0  0  0  0  0  0  0
  2  1  1  6
  3  2  1  0
  4  6  1  0
  4  2  1  0
  4  5  1  1
  6  8  1  0
  6  7  2  0
  8 12  1  0
  9  8  1  0
  9 10  1  0
 10 11  1  0
 12 11  1  0
 13 15  1  0
 12 13  1  6
 14 13  2  0
 16 17  1  1
 16 15  1  0
 17 18  1  0
 18 19  1  0
 20 19  1  0
 21 20  1  0
 22 16  1  0
 22 23  1  0
 24 22  2  0
M  END
$$$$
