TPK.pdb
     RDKit          3D

 24 24  0  0  1  0  0  0  0  0999 V2000
   19.9893  -10.3078  -14.0080 C   0  0  0  0  0  0  0  0  0  0  0  0
   19.6088   -8.9032  -13.5837 C   0  0  1  0  0  0  0  0  0  0  0  0
   19.4991   -8.9868  -12.1707 O   0  0  0  0  0  0  0  0  0  0  0  0
   20.8079   -7.9975  -13.8207 C   0  0  2  0  0  0  0  0  0  0  0  0
   20.6441   -6.7460  -13.1238 N   0  0  0  0  0  0  0  0  0  0  0  0
   21.2360   -7.9038  -15.2033 C   0  0  0  0  0  0  0  0  0  0  0  0
   20.2955   -7.7536  -16.0628 O   0  0  0  0  0  0  0  0  0  0  0  0
   22.5485   -7.9556  -15.7215 N   0  0  0  0  0  0  0  0  0  0  0  0
   23.7697   -8.0795  -14.9861 C   0  0  0  0  0  0  0  0  0  0  0  0
   24.6063   -8.9999  -15.8981 C   0  0  0  0  0  0  0  0  0  0  0  0
   24.3840   -8.2398  -17.2156 C   0  0  0  0  0  0  0  0  0  0  0  0
   22.9152   -7.8844  -17.1330 C   0  0  1  0  0  0  0  0  0  0  0  0
   22.1731   -8.8872  -17.9402 C   0  0  0  0  0  0  0  0  0  0  0  0
   21.8947  -10.0490  -17.5662 O   0  0  0  0  0  0  0  0  0  0  0  0
   21.7462   -8.4986  -19.2365 N   0  0  0  0  0  0  0  0  0  0  0  0
   20.9562   -9.3266  -20.1205 C   0  0  1  0  0  0  0  0  0  0  0  0
   19.5080   -9.3105  -19.9125 C   0  0  0  0  0  0  0  0  0  0  0  0
   18.5630  -10.2944  -20.3901 C   0  0  0  0  0  0  0  0  0  0  0  0
   17.7886  -11.2202  -19.5610 C   0  0  0  0  0  0  0  0  0  0  0  0
   16.8316  -12.1516  -20.1899 C   0  0  0  0  0  0  0  0  0  0  0  0
   16.0965  -12.8706  -19.1374 N   0  0  0  0  0  0  0  0  0  0  0  0
   21.4773   -9.2853  -21.4969 C   0  0  0  0  0  0  0  0  0  0  0  0
   21.7472  -10.4427  -22.2023 O   0  0  0  0  0  0  0  0  0  0  0  0
   21.6905   -8.1898  -22.0674 O   0  0  0  0  0  0  0  0  0  0  0  0
  2  1  1  6
  3  2  1  0
  4  6  1  0
  4  2  1  0
  4  5  1  6
  6  8  1  0
  6  7  2  0
  8 12  1  0
  9  8  1  0
  9 10  1  0
 10 11  1  0
 12 11  1  0
 13 15  1  0
 12 13  1  6
 14 13  2  0
 16 17  1  6
 16 15  1  0
 17 18  1  0
 18 19  1  0
 20 19  1  0
 21 20  1  0
 22 16  1  0
 22 23  1  0
 24 22  2  0
M  END
$$$$
