TPK.pdb
     RDKit          3D

 24 24  0  0  1  0  0  0  0  0999 V2000
   25.3328  -14.0312  -20.7914 C   0  0  0  0  0  0  0  0  0  0  0  0
   24.8575  -12.9491  -19.8422 C   0  0  1  0  0  0  0  0  0  0  0  0
   23.4467  -12.9458  -20.0007 O   0  0  0  0  0  0  0  0  0  0  0  0
   25.0808  -13.4384  -18.4191 C   0  0  2  0  0  0  0  0  0  0  0  0
   24.5940  -14.7866  -18.2638 N   0  0  0  0  0  0  0  0  0  0  0  0
   24.6922  -12.4992  -17.3845 C   0  0  0  0  0  0  0  0  0  0  0  0
   23.4304  -12.4024  -17.1733 O   0  0  0  0  0  0  0  0  0  0  0  0
   25.5204  -11.6827  -16.5838 N   0  0  0  0  0  0  0  0  0  0  0  0
   26.9499  -11.6914  -16.5196 C   0  0  0  0  0  0  0  0  0  0  0  0
   27.2775  -10.1921  -16.3663 C   0  0  0  0  0  0  0  0  0  0  0  0
   26.2945   -9.8832  -15.2254 C   0  0  0  0  0  0  0  0  0  0  0  0
   25.0655  -10.6596  -15.6466 C   0  0  1  0  0  0  0  0  0  0  0  0
   24.1383   -9.6979  -16.2973 C   0  0  0  0  0  0  0  0  0  0  0  0
   24.1868   -9.3522  -17.4994 O   0  0  0  0  0  0  0  0  0  0  0  0
   23.1177   -9.1262  -15.4940 N   0  0  0  0  0  0  0  0  0  0  0  0
   22.0682   -8.2660  -15.9938 C   0  0  1  0  0  0  0  0  0  0  0  0
   20.9347   -8.9255  -16.6428 C   0  0  0  0  0  0  0  0  0  0  0  0
   19.7629   -8.2769  -17.1865 C   0  0  0  0  0  0  0  0  0  0  0  0
   18.6179   -8.9449  -17.8086 C   0  0  0  0  0  0  0  0  0  0  0  0
   17.5156   -8.1450  -18.3778 C   0  0  0  0  0  0  0  0  0  0  0  0
   16.5505   -9.0470  -19.0260 N   0  0  0  0  0  0  0  0  0  0  0  0
   21.8075   -7.1504  -15.0690 C   0  0  0  0  0  0  0  0  0  0  0  0
   21.2999   -5.9452  -15.5158 O   0  0  0  0  0  0  0  0  0  0  0  0
   22.0416   -7.2678  -13.8433 O   0  0  0  0  0  0  0  0  0  0  0  0
  2  1  1  6
  3  2  1  0
  4  6  1  0
  4  2  1  0
  4  5  1  1
  6  8  1  0
  6  7  2  0
  8 12  1  0
  9  8  1  0
  9 10  1  0
 10 11  1  0
 12 11  1  0
 13 15  1  0
 12 13  1  6
 14 13  2  0
 16 17  1  1
 16 15  1  0
 17 18  1  0
 18 19  1  0
 20 19  1  0
 21 20  1  0
 22 16  1  0
 22 23  1  0
 24 22  2  0
M  END
$$$$
