TPK.pdb
     RDKit          3D

 24 24  0  0  1  0  0  0  0  0999 V2000
   20.1448  -10.6361  -18.7594 C   0  0  0  0  0  0  0  0  0  0  0  0
   19.3023  -11.6554  -18.0183 C   0  0  1  0  0  0  0  0  0  0  0  0
   19.7179  -12.9025  -18.5545 O   0  0  0  0  0  0  0  0  0  0  0  0
   19.7670  -11.6883  -16.5701 C   0  0  2  0  0  0  0  0  0  0  0  0
   19.3060  -12.8879  -15.9165 N   0  0  0  0  0  0  0  0  0  0  0  0
   19.5704  -10.4509  -15.8396 C   0  0  0  0  0  0  0  0  0  0  0  0
   18.3768   -9.9811  -15.8615 O   0  0  0  0  0  0  0  0  0  0  0  0
   20.5195   -9.7015  -15.1105 N   0  0  0  0  0  0  0  0  0  0  0  0
   21.8799  -10.0512  -14.8372 C   0  0  0  0  0  0  0  0  0  0  0  0
   22.5943   -8.6888  -14.9479 C   0  0  0  0  0  0  0  0  0  0  0  0
   21.6401   -7.8836  -14.0511 C   0  0  0  0  0  0  0  0  0  0  0  0
   20.2856   -8.4056  -14.4797 C   0  0  1  0  0  0  0  0  0  0  0  0
   19.7199   -7.4251  -15.4421 C   0  0  0  0  0  0  0  0  0  0  0  0
   19.9790   -7.3861  -16.6662 O   0  0  0  0  0  0  0  0  0  0  0  0
   18.8150   -6.4566  -14.9350 N   0  0  0  0  0  0  0  0  0  0  0  0
   18.1397   -5.4653  -15.7427 C   0  0  1  0  0  0  0  0  0  0  0  0
   16.7549   -5.7566  -16.1146 C   0  0  0  0  0  0  0  0  0  0  0  0
   15.8418   -4.8603  -16.7871 C   0  0  0  0  0  0  0  0  0  0  0  0
   14.4689   -5.1708  -17.1907 C   0  0  0  0  0  0  0  0  0  0  0  0
   13.6500   -4.1488  -17.8718 C   0  0  0  0  0  0  0  0  0  0  0  0
   12.3166   -4.7059  -18.1489 N   0  0  0  0  0  0  0  0  0  0  0  0
   18.4888   -4.1007  -15.3143 C   0  0  0  0  0  0  0  0  0  0  0  0
   18.8914   -3.8305  -14.0201 O   0  0  0  0  0  0  0  0  0  0  0  0
   18.4288   -3.1424  -16.1199 O   0  0  0  0  0  0  0  0  0  0  0  0
  2  1  1  6
  3  2  1  0
  4  6  1  0
  4  2  1  0
  4  5  1  1
  6  8  1  0
  6  7  2  0
  8 12  1  0
  9  8  1  0
  9 10  1  0
 10 11  1  0
 12 11  1  0
 13 15  1  0
 12 13  1  6
 14 13  2  0
 16 17  1  1
 16 15  1  0
 17 18  1  0
 18 19  1  0
 20 19  1  0
 21 20  1  0
 22 16  1  0
 22 23  1  0
 24 22  2  0
M  END
$$$$
