TPK.pdb
     RDKit          3D

 24 24  0  0  1  0  0  0  0  0999 V2000
   24.6915  -13.5947  -18.7927 C   0  0  0  0  0  0  0  0  0  0  0  0
   23.9555  -14.5366  -17.8605 C   0  0  1  0  0  0  0  0  0  0  0  0
   24.3079  -15.8301  -18.3274 O   0  0  0  0  0  0  0  0  0  0  0  0
   24.5991  -14.4383  -16.4856 C   0  0  2  0  0  0  0  0  0  0  0  0
   24.2978  -15.6088  -15.6995 N   0  0  0  0  0  0  0  0  0  0  0  0
   24.4205  -13.1622  -15.8198 C   0  0  0  0  0  0  0  0  0  0  0  0
   23.2175  -12.8868  -15.4690 O   0  0  0  0  0  0  0  0  0  0  0  0
   25.3961  -12.1898  -15.5091 N   0  0  0  0  0  0  0  0  0  0  0  0
   26.8164  -12.3125  -15.6320 C   0  0  0  0  0  0  0  0  0  0  0  0
   27.2241  -10.9042  -16.1109 C   0  0  0  0  0  0  0  0  0  0  0  0
   26.4451  -10.0969  -15.0599 C   0  0  0  0  0  0  0  0  0  0  0  0
   25.1351  -10.8514  -14.9873 C   0  0  1  0  0  0  0  0  0  0  0  0
   24.1569  -10.1182  -15.8319 C   0  0  0  0  0  0  0  0  0  0  0  0
   24.1709  -10.0819  -17.0831 O   0  0  0  0  0  0  0  0  0  0  0  0
   23.1258   -9.4029  -15.1693 N   0  0  0  0  0  0  0  0  0  0  0  0
   22.0933   -8.6454  -15.8411 C   0  0  1  0  0  0  0  0  0  0  0  0
   20.9228   -9.3955  -16.2974 C   0  0  0  0  0  0  0  0  0  0  0  0
   19.7465   -8.8450  -16.9319 C   0  0  0  0  0  0  0  0  0  0  0  0
   18.5868   -9.6037  -17.4050 C   0  0  0  0  0  0  0  0  0  0  0  0
   17.4633   -8.9046  -18.0592 C   0  0  0  0  0  0  0  0  0  0  0  0
   16.5047   -9.9001  -18.5640 N   0  0  0  0  0  0  0  0  0  0  0  0
   21.8926   -7.3343  -15.2019 C   0  0  0  0  0  0  0  0  0  0  0  0
   22.2822   -7.0997  -13.8969 O   0  0  0  0  0  0  0  0  0  0  0  0
   21.3588   -6.3910  -15.8312 O   0  0  0  0  0  0  0  0  0  0  0  0
  2  1  1  6
  3  2  1  0
  4  6  1  0
  4  2  1  0
  4  5  1  1
  6  8  1  0
  6  7  2  0
  8 12  1  0
  9  8  1  0
  9 10  1  0
 10 11  1  0
 12 11  1  0
 13 15  1  0
 12 13  1  6
 14 13  2  0
 16 17  1  1
 16 15  1  0
 17 18  1  0
 18 19  1  0
 20 19  1  0
 21 20  1  0
 22 16  1  0
 22 23  1  0
 24 22  2  0
M  END
$$$$
