TLE.pdb
     RDKit          3D

 25 24  0  0  1  0  0  0  0  0999 V2000
   18.2164   -9.4516  -19.6875 C   0  0  0  0  0  0  0  0  0  0  0  0
   17.7867  -10.7629  -19.0725 C   0  0  1  0  0  0  0  0  0  0  0  0
   17.2875  -11.6162  -20.0426 O   0  0  0  0  0  0  0  0  0  0  0  0
   18.9107  -11.3869  -18.3053 C   0  0  2  0  0  0  0  0  0  0  0  0
   18.5113  -12.6645  -17.7955 N   0  0  0  0  0  0  0  0  0  0  0  0
   19.3708  -10.4459  -17.2714 C   0  0  0  0  0  0  0  0  0  0  0  0
   18.6126  -10.3621  -16.2482 O   0  0  0  0  0  0  0  0  0  0  0  0
   21.5296   -9.7832  -13.4003 C   0  0  0  0  0  0  0  0  0  0  0  0
   22.3253   -9.9268  -14.6472 C   0  0  2  0  0  0  0  0  0  0  0  0
   23.8258   -9.9741  -14.2935 C   0  0  0  0  0  0  0  0  0  0  0  0
   22.1103   -8.9163  -15.6864 C   0  0  0  0  0  0  0  0  0  0  0  0
   20.7926   -8.6597  -16.2727 C   0  0  2  0  0  0  0  0  0  0  0  0
   20.5202   -9.6721  -17.3201 N   0  0  0  0  0  0  0  0  0  0  0  0
   20.5230   -7.3222  -16.7983 C   0  0  0  0  0  0  0  0  0  0  0  0
   21.0810   -6.8218  -17.8241 O   0  0  0  0  0  0  0  0  0  0  0  0
   19.5524   -6.5057  -16.1048 N   0  0  0  0  0  0  0  0  0  0  0  0
   19.2638   -5.1639  -16.6387 C   0  0  1  0  0  0  0  0  0  0  0  0
   17.8264   -4.8350  -16.3981 C   0  0  0  0  0  0  0  0  0  0  0  0
   16.8983   -5.6847  -17.1782 C   0  0  0  0  0  0  0  0  0  0  0  0
   15.4719   -5.4010  -17.0451 C   0  0  0  0  0  0  0  0  0  0  0  0
   15.0045   -4.5565  -16.2515 O   0  0  0  0  0  0  0  0  0  0  0  0
   20.2203   -4.1856  -16.0587 C   0  0  0  0  0  0  0  0  0  0  0  0
   20.8888   -4.4172  -15.0299 O   0  0  0  0  0  0  0  0  0  0  0  0
   14.5830   -6.1069  -17.8433 O   0  0  0  0  0  0  0  0  0  0  0  0
   20.4115   -2.9402  -16.6583 O   0  0  0  0  0  0  0  0  0  0  0  0
  2  1  1  6
  3  2  1  0
  4  6  1  0
  4  2  1  0
  4  5  1  1
  6 13  1  0
  7  6  2  0
  9  8  1  1
  9 11  1  0
 10  9  1  0
 12 11  1  6
 13 12  1  0
 14 15  2  0
 14 12  1  0
 16 14  1  0
 17 16  1  0
 17 22  1  0
 17 18  1  1
 19 18  1  0
 20 19  1  0
 20 21  2  0
 22 25  1  0
 23 22  2  0
 24 20  1  0
M  END
$$$$
