TLE.pdb
     RDKit          3D

 25 24  0  0  1  0  0  0  0  0999 V2000
   22.0380   -8.3224  -20.4781 C   0  0  0  0  0  0  0  0  0  0  0  0
   20.7783   -9.1526  -20.5592 C   0  0  1  0  0  0  0  0  0  0  0  0
   20.5115   -9.5073  -21.8712 O   0  0  0  0  0  0  0  0  0  0  0  0
   20.8691  -10.3499  -19.6649 C   0  0  2  0  0  0  0  0  0  0  0  0
   19.7104  -11.1764  -19.8269 N   0  0  0  0  0  0  0  0  0  0  0  0
   21.0984   -9.9032  -18.2814 C   0  0  0  0  0  0  0  0  0  0  0  0
   20.1189   -9.2805  -17.7507 O   0  0  0  0  0  0  0  0  0  0  0  0
   21.4697  -12.0226  -14.2874 C   0  0  0  0  0  0  0  0  0  0  0  0
   22.7384  -11.8747  -15.0471 C   0  0  2  0  0  0  0  0  0  0  0  0
   23.8724  -12.6006  -14.2948 C   0  0  0  0  0  0  0  0  0  0  0  0
   23.1669  -10.5076  -15.3547 C   0  0  0  0  0  0  0  0  0  0  0  0
   22.3496   -9.5878  -16.1496 C   0  0  2  0  0  0  0  0  0  0  0  0
   22.2519  -10.0984  -17.5374 N   0  0  0  0  0  0  0  0  0  0  0  0
   22.7271   -8.1753  -16.1698 C   0  0  0  0  0  0  0  0  0  0  0  0
   23.7603   -7.7107  -16.7447 O   0  0  0  0  0  0  0  0  0  0  0  0
   21.8664   -7.2352  -15.4879 N   0  0  0  0  0  0  0  0  0  0  0  0
   22.2024   -5.8033  -15.5635 C   0  0  1  0  0  0  0  0  0  0  0  0
   21.1730   -5.0968  -16.3841 C   0  0  0  0  0  0  0  0  0  0  0  0
   19.8484   -5.0350  -15.7257 C   0  0  0  0  0  0  0  0  0  0  0  0
   18.7814   -4.3496  -16.4498 C   0  0  0  0  0  0  0  0  0  0  0  0
   18.9408   -3.7973  -17.5594 O   0  0  0  0  0  0  0  0  0  0  0  0
   22.3664   -5.2616  -14.1894 C   0  0  0  0  0  0  0  0  0  0  0  0
   22.0638   -5.9068  -13.1643 O   0  0  0  0  0  0  0  0  0  0  0  0
   17.5184   -4.3075  -15.8766 O   0  0  0  0  0  0  0  0  0  0  0  0
   22.8781   -3.9790  -13.9895 O   0  0  0  0  0  0  0  0  0  0  0  0
  2  1  1  6
  3  2  1  0
  4  6  1  0
  4  2  1  0
  4  5  1  1
  6 13  1  0
  7  6  2  0
  9  8  1  1
  9 11  1  0
 10  9  1  0
 12 11  1  1
 13 12  1  0
 14 15  2  0
 14 12  1  0
 16 14  1  0
 17 16  1  0
 17 22  1  0
 17 18  1  1
 19 18  1  0
 20 19  1  0
 20 21  2  0
 22 25  1  0
 23 22  2  0
 24 20  1  0
M  END
$$$$
