TLE.pdb
     RDKit          3D

 25 24  0  0  1  0  0  0  0  0999 V2000
   19.0898  -11.4959  -19.2490 C   0  0  0  0  0  0  0  0  0  0  0  0
   18.3255  -12.5459  -18.4770 C   0  0  1  0  0  0  0  0  0  0  0  0
   17.4053  -13.1798  -19.2955 O   0  0  0  0  0  0  0  0  0  0  0  0
   19.2608  -13.5197  -17.8301 C   0  0  2  0  0  0  0  0  0  0  0  0
   18.5204  -14.5725  -17.2014 N   0  0  0  0  0  0  0  0  0  0  0  0
   20.1609  -12.7933  -16.9200 C   0  0  0  0  0  0  0  0  0  0  0  0
   19.5989  -12.3195  -15.8767 O   0  0  0  0  0  0  0  0  0  0  0  0
   23.8126  -13.9243  -14.3457 C   0  0  0  0  0  0  0  0  0  0  0  0
   24.1098  -13.5329  -15.7483 C   0  0  2  0  0  0  0  0  0  0  0  0
   25.6199  -13.6965  -16.0156 C   0  0  0  0  0  0  0  0  0  0  0  0
   23.6938  -12.1896  -16.1600 C   0  0  0  0  0  0  0  0  0  0  0  0
   22.2928  -11.7616  -16.1455 C   0  0  2  0  0  0  0  0  0  0  0  0
   21.5205  -12.5907  -17.1006 N   0  0  0  0  0  0  0  0  0  0  0  0
   22.0040  -10.3468  -16.3758 C   0  0  0  0  0  0  0  0  0  0  0  0
   21.8567   -9.8154  -17.5203 O   0  0  0  0  0  0  0  0  0  0  0  0
   21.8760   -9.4859  -15.2217 N   0  0  0  0  0  0  0  0  0  0  0  0
   21.3977   -8.1088  -15.4308 C   0  0  1  0  0  0  0  0  0  0  0  0
   20.0959   -8.1438  -16.1630 C   0  0  0  0  0  0  0  0  0  0  0  0
   19.5440   -6.7962  -16.4302 C   0  0  0  0  0  0  0  0  0  0  0  0
   18.3038   -6.7299  -17.1983 C   0  0  0  0  0  0  0  0  0  0  0  0
   17.7107   -7.7351  -17.6448 O   0  0  0  0  0  0  0  0  0  0  0  0
   21.3463   -7.4006  -14.1254 C   0  0  0  0  0  0  0  0  0  0  0  0
   21.2917   -7.9977  -13.0302 O   0  0  0  0  0  0  0  0  0  0  0  0
   17.7501   -5.4823  -17.4483 O   0  0  0  0  0  0  0  0  0  0  0  0
   21.3577   -6.0062  -14.0744 O   0  0  0  0  0  0  0  0  0  0  0  0
  2  1  1  6
  3  2  1  0
  4  6  1  0
  4  2  1  0
  4  5  1  1
  6 13  1  0
  7  6  2  0
  9  8  1  1
  9 11  1  0
 10  9  1  0
 12 11  1  6
 13 12  1  0
 14 15  2  0
 14 12  1  0
 16 14  1  0
 17 16  1  0
 17 22  1  0
 17 18  1  1
 19 18  1  0
 20 19  1  0
 20 21  2  0
 22 25  1  0
 23 22  2  0
 24 20  1  0
M  END
$$$$
