TLE.pdb
     RDKit          3D

 25 24  0  0  1  0  0  0  0  0999 V2000
   32.6000   -4.3160  -15.0710 C   0  0  0  0  0  0  0  0  0  0  0  0
   33.8448   -3.8148  -15.7651 C   0  0  1  0  0  0  0  0  0  0  0  0
   34.1379   -2.5210  -15.3670 O   0  0  0  0  0  0  0  0  0  0  0  0
   34.9959   -4.7440  -15.5344 C   0  0  2  0  0  0  0  0  0  0  0  0
   36.2077   -4.1611  -16.0278 N   0  0  0  0  0  0  0  0  0  0  0  0
   34.6809   -6.0576  -16.1187 C   0  0  0  0  0  0  0  0  0  0  0  0
   34.6335   -6.0788  -17.3938 O   0  0  0  0  0  0  0  0  0  0  0  0
   36.6891  -10.2692  -16.4338 C   0  0  0  0  0  0  0  0  0  0  0  0
   35.9245   -9.9510  -15.1998 C   0  0  2  0  0  0  0  0  0  0  0  0
   36.0622  -11.1159  -14.1984 C   0  0  0  0  0  0  0  0  0  0  0  0
   34.5046   -9.6303  -15.3684 C   0  0  0  0  0  0  0  0  0  0  0  0
   34.0468   -8.4674  -16.1326 C   0  0  2  0  0  0  0  0  0  0  0  0
   34.4405   -7.2299  -15.4186 N   0  0  0  0  0  0  0  0  0  0  0  0
   32.6323   -8.3975  -16.4962 C   0  0  0  0  0  0  0  0  0  0  0  0
   31.7115   -7.9584  -15.7391 O   0  0  0  0  0  0  0  0  0  0  0  0
   32.2481   -8.8603  -17.8106 N   0  0  0  0  0  0  0  0  0  0  0  0
   30.8199   -8.8296  -18.1689 C   0  0  1  0  0  0  0  0  0  0  0  0
   30.5310   -7.5840  -18.9417 C   0  0  0  0  0  0  0  0  0  0  0  0
   29.1363   -7.5167  -19.4337 C   0  0  0  0  0  0  0  0  0  0  0  0
   28.7712   -6.3473  -20.2285 C   0  0  0  0  0  0  0  0  0  0  0  0
   29.5899   -5.4802  -20.6019 O   0  0  0  0  0  0  0  0  0  0  0  0
   30.4616  -10.0858  -18.8773 C   0  0  0  0  0  0  0  0  0  0  0  0
   31.2824  -10.7449  -19.5486 O   0  0  0  0  0  0  0  0  0  0  0  0
   27.4415   -6.1868  -20.5912 O   0  0  0  0  0  0  0  0  0  0  0  0
   29.1611  -10.5877  -18.8165 O   0  0  0  0  0  0  0  0  0  0  0  0
  2  1  1  1
  3  2  1  0
  4  6  1  0
  4  2  1  0
  4  5  1  6
  6 13  1  0
  7  6  2  0
  9  8  1  6
  9 11  1  0
 10  9  1  0
 12 11  1  1
 13 12  1  0
 14 15  2  0
 14 12  1  0
 16 14  1  0
 17 16  1  0
 17 22  1  0
 17 18  1  6
 19 18  1  0
 20 19  1  0
 20 21  2  0
 22 25  1  0
 23 22  2  0
 24 20  1  0
M  END
$$$$
