TLE.pdb
     RDKit          3D

 25 24  0  0  1  0  0  0  0  0999 V2000
   20.1502   -9.7401  -13.4920 C   0  0  0  0  0  0  0  0  0  0  0  0
   19.4502  -10.5695  -14.5431 C   0  0  1  0  0  0  0  0  0  0  0  0
   20.3229  -11.4904  -15.0987 O   0  0  0  0  0  0  0  0  0  0  0  0
   18.2294  -11.2273  -13.9788 C   0  0  2  0  0  0  0  0  0  0  0  0
   17.6608  -12.1221  -14.9420 N   0  0  0  0  0  0  0  0  0  0  0  0
   17.2998  -10.1914  -13.5005 C   0  0  0  0  0  0  0  0  0  0  0  0
   16.7143   -9.5308  -14.4222 O   0  0  0  0  0  0  0  0  0  0  0  0
   13.6292   -8.5445   -8.9127 C   0  0  0  0  0  0  0  0  0  0  0  0
   14.4030   -8.0834  -10.0949 C   0  0  2  0  0  0  0  0  0  0  0  0
   13.4289   -7.5699  -11.1748 C   0  0  0  0  0  0  0  0  0  0  0  0
   15.3212   -9.0517  -10.7002 C   0  0  0  0  0  0  0  0  0  0  0  0
   16.1872   -8.7124  -11.8319 C   0  0  2  0  0  0  0  0  0  0  0  0
   17.0209   -9.8882  -12.1767 N   0  0  0  0  0  0  0  0  0  0  0  0
   17.0330   -7.5251  -11.7183 C   0  0  0  0  0  0  0  0  0  0  0  0
   18.1028   -7.4614  -11.0361 O   0  0  0  0  0  0  0  0  0  0  0  0
   16.6274   -6.3349  -12.4314 N   0  0  0  0  0  0  0  0  0  0  0  0
   17.5909   -5.2263  -12.5390 C   0  0  1  0  0  0  0  0  0  0  0  0
   18.8838   -5.7458  -13.0783 C   0  0  0  0  0  0  0  0  0  0  0  0
   19.8645   -4.6749  -13.3665 C   0  0  0  0  0  0  0  0  0  0  0  0
   21.1128   -5.0767  -14.0091 C   0  0  0  0  0  0  0  0  0  0  0  0
   22.0482   -4.2872  -14.2603 O   0  0  0  0  0  0  0  0  0  0  0  0
   16.9916   -4.1274  -13.3400 C   0  0  0  0  0  0  0  0  0  0  0  0
   16.0837   -4.3137  -14.1765 O   0  0  0  0  0  0  0  0  0  0  0  0
   21.2724   -6.4092  -14.3617 O   0  0  0  0  0  0  0  0  0  0  0  0
   17.4330   -2.8131  -13.1824 O   0  0  0  0  0  0  0  0  0  0  0  0
  2  1  1  1
  3  2  1  0
  4  6  1  0
  4  2  1  0
  4  5  1  6
  6 13  1  0
  7  6  2  0
  9  8  1  1
  9 11  1  0
 10  9  1  0
 12 11  1  1
 13 12  1  0
 14 15  2  0
 14 12  1  0
 16 14  1  0
 17 16  1  0
 17 22  1  0
 17 18  1  6
 19 18  1  0
 20 19  1  0
 20 21  2  0
 22 25  1  0
 23 22  2  0
 24 20  1  0
M  END
$$$$
