TLE.pdb
     RDKit          3D

 25 24  0  0  1  0  0  0  0  0999 V2000
   20.5853   -8.2107  -20.0528 C   0  0  0  0  0  0  0  0  0  0  0  0
   19.4542   -9.1864  -19.8264 C   0  0  1  0  0  0  0  0  0  0  0  0
   18.7635   -9.4145  -21.0051 O   0  0  0  0  0  0  0  0  0  0  0  0
   19.9596  -10.4588  -19.2205 C   0  0  2  0  0  0  0  0  0  0  0  0
   18.9148  -11.4380  -19.1850 N   0  0  0  0  0  0  0  0  0  0  0  0
   20.5517  -10.1657  -17.9053 C   0  0  0  0  0  0  0  0  0  0  0  0
   19.7260   -9.7434  -17.0286 O   0  0  0  0  0  0  0  0  0  0  0  0
   22.4591  -12.6494  -14.5493 C   0  0  0  0  0  0  0  0  0  0  0  0
   23.3592  -12.1941  -15.6408 C   0  0  2  0  0  0  0  0  0  0  0  0
   24.7603  -12.8057  -15.4366 C   0  0  0  0  0  0  0  0  0  0  0  0
   23.4915  -10.7464  -15.8254 C   0  0  0  0  0  0  0  0  0  0  0  0
   22.3630   -9.8975  -16.2151 C   0  0  2  0  0  0  0  0  0  0  0  0
   21.8863  -10.3070  -17.5572 N   0  0  0  0  0  0  0  0  0  0  0  0
   22.5495   -8.4477  -16.1798 C   0  0  0  0  0  0  0  0  0  0  0  0
   22.8406   -7.7308  -17.1875 O   0  0  0  0  0  0  0  0  0  0  0  0
   22.3927   -7.7762  -14.9093 N   0  0  0  0  0  0  0  0  0  0  0  0
   22.3697   -6.3037  -14.8990 C   0  0  1  0  0  0  0  0  0  0  0  0
   21.2413   -5.8211  -15.7511 C   0  0  0  0  0  0  0  0  0  0  0  0
   21.0585   -4.3531  -15.6949 C   0  0  0  0  0  0  0  0  0  0  0  0
   19.9037   -3.8031  -16.3997 C   0  0  0  0  0  0  0  0  0  0  0  0
   19.0987   -4.4964  -17.0575 O   0  0  0  0  0  0  0  0  0  0  0  0
   22.3255   -5.8205  -13.4944 C   0  0  0  0  0  0  0  0  0  0  0  0
   21.8249   -6.4845  -12.5631 O   0  0  0  0  0  0  0  0  0  0  0  0
   19.6849   -2.4342  -16.3373 O   0  0  0  0  0  0  0  0  0  0  0  0
   22.8557   -4.5749  -13.1562 O   0  0  0  0  0  0  0  0  0  0  0  0
  2  1  1  6
  3  2  1  0
  4  6  1  0
  4  2  1  0
  4  5  1  1
  6 13  1  0
  7  6  2  0
  9  8  1  1
  9 11  1  0
 10  9  1  0
 12 11  1  6
 13 12  1  0
 14 15  2  0
 14 12  1  0
 16 14  1  0
 17 16  1  0
 17 22  1  0
 17 18  1  6
 19 18  1  0
 20 19  1  0
 20 21  2  0
 22 25  1  0
 23 22  2  0
 24 20  1  0
M  END
$$$$
