TLE.pdb
     RDKit          3D

 25 24  0  0  1  0  0  0  0  0999 V2000
   20.7454  -10.2050  -19.5695 C   0  0  0  0  0  0  0  0  0  0  0  0
   20.3931  -11.3467  -18.6449 C   0  0  1  0  0  0  0  0  0  0  0  0
   19.6386  -12.2985  -19.3106 O   0  0  0  0  0  0  0  0  0  0  0  0
   21.6250  -11.9386  -18.0336 C   0  0  2  0  0  0  0  0  0  0  0  0
   21.2985  -13.1457  -17.3349 N   0  0  0  0  0  0  0  0  0  0  0  0
   22.2861  -10.9226  -17.1989 C   0  0  0  0  0  0  0  0  0  0  0  0
   21.6403  -10.5888  -16.1499 O   0  0  0  0  0  0  0  0  0  0  0  0
   26.2211  -11.0656  -14.9147 C   0  0  0  0  0  0  0  0  0  0  0  0
   26.3290  -10.5316  -16.2975 C   0  0  2  0  0  0  0  0  0  0  0  0
   27.8097  -10.2456  -16.6210 C   0  0  0  0  0  0  0  0  0  0  0  0
   25.5328   -9.3414  -16.6085 C   0  0  0  0  0  0  0  0  0  0  0  0
   24.0712   -9.3260  -16.5107 C   0  0  2  0  0  0  0  0  0  0  0  0
   23.5095  -10.3221  -17.4533 N   0  0  0  0  0  0  0  0  0  0  0  0
   23.3847   -8.0461  -16.6796 C   0  0  0  0  0  0  0  0  0  0  0  0
   22.9400   -7.6038  -17.7845 O   0  0  0  0  0  0  0  0  0  0  0  0
   23.1956   -7.2201  -15.5085 N   0  0  0  0  0  0  0  0  0  0  0  0
   22.4035   -5.9863  -15.6481 C   0  0  1  0  0  0  0  0  0  0  0  0
   21.0588   -6.3228  -16.2055 C   0  0  0  0  0  0  0  0  0  0  0  0
   20.1536   -5.1539  -16.2827 C   0  0  0  0  0  0  0  0  0  0  0  0
   18.7449   -5.3871  -15.9765 C   0  0  0  0  0  0  0  0  0  0  0  0
   18.3455   -5.9363  -14.9275 O   0  0  0  0  0  0  0  0  0  0  0  0
   22.3643   -5.2748  -14.3440 C   0  0  0  0  0  0  0  0  0  0  0  0
   22.7314   -5.7998  -13.2724 O   0  0  0  0  0  0  0  0  0  0  0  0
   17.7938   -4.9768  -16.8998 O   0  0  0  0  0  0  0  0  0  0  0  0
   21.9043   -3.9597  -14.2676 O   0  0  0  0  0  0  0  0  0  0  0  0
  2  1  1  6
  3  2  1  0
  4  6  1  0
  4  2  1  0
  4  5  1  1
  6 13  1  0
  7  6  2  0
  9  8  1  1
  9 11  1  0
 10  9  1  0
 12 11  1  6
 13 12  1  0
 14 15  2  0
 14 12  1  0
 16 14  1  0
 17 16  1  0
 17 22  1  0
 17 18  1  1
 19 18  1  0
 20 19  1  0
 20 21  2  0
 22 25  1  0
 23 22  2  0
 24 20  1  0
M  END
$$$$
