TLE.pdb
     RDKit          3D

 25 24  0  0  1  0  0  0  0  0999 V2000
   20.1557  -11.4012  -15.0834 C   0  0  0  0  0  0  0  0  0  0  0  0
   20.5333  -12.8270  -15.4108 C   0  0  1  0  0  0  0  0  0  0  0  0
   19.4399  -13.5203  -15.9032 O   0  0  0  0  0  0  0  0  0  0  0  0
   21.6928  -12.8688  -16.3569 C   0  0  2  0  0  0  0  0  0  0  0  0
   21.2894  -12.4116  -17.6531 N   0  0  0  0  0  0  0  0  0  0  0  0
   22.2721  -14.2217  -16.3518 C   0  0  0  0  0  0  0  0  0  0  0  0
   21.8747  -14.9778  -17.3001 O   0  0  0  0  0  0  0  0  0  0  0  0
   26.3111  -16.0306  -17.4631 C   0  0  0  0  0  0  0  0  0  0  0  0
   26.1572  -15.4644  -16.0976 C   0  0  2  0  0  0  0  0  0  0  0  0
   27.5202  -15.4913  -15.3765 C   0  0  0  0  0  0  0  0  0  0  0  0
   25.1478  -16.0860  -15.2363 C   0  0  0  0  0  0  0  0  0  0  0  0
   23.7225  -16.0930  -15.5745 C   0  0  2  0  0  0  0  0  0  0  0  0
   23.1814  -14.7208  -15.4318 N   0  0  0  0  0  0  0  0  0  0  0  0
   22.8549  -17.0398  -14.8752 C   0  0  0  0  0  0  0  0  0  0  0  0
   22.5157  -16.9449  -13.6546 O   0  0  0  0  0  0  0  0  0  0  0  0
   22.3436  -18.1672  -15.6216 N   0  0  0  0  0  0  0  0  0  0  0  0
   21.2433  -18.9496  -15.0331 C   0  0  1  0  0  0  0  0  0  0  0  0
   20.1079  -18.0358  -14.7044 C   0  0  0  0  0  0  0  0  0  0  0  0
   19.5690  -18.2469  -13.3417 C   0  0  0  0  0  0  0  0  0  0  0  0
   18.1169  -18.2082  -13.1916 C   0  0  0  0  0  0  0  0  0  0  0  0
   17.5338  -18.2265  -12.0865 O   0  0  0  0  0  0  0  0  0  0  0  0
   20.8858  -20.0645  -15.9483 C   0  0  0  0  0  0  0  0  0  0  0  0
   20.8296  -19.9336  -17.1887 O   0  0  0  0  0  0  0  0  0  0  0  0
   17.3379  -18.1475  -14.3383 O   0  0  0  0  0  0  0  0  0  0  0  0
   20.5926  -21.3311  -15.4418 O   0  0  0  0  0  0  0  0  0  0  0  0
  2  1  1  6
  3  2  1  0
  4  6  1  0
  4  2  1  0
  4  5  1  6
  6 13  1  0
  7  6  2  0
  9  8  1  6
  9 11  1  0
 10  9  1  0
 12 11  1  1
 13 12  1  0
 14 15  2  0
 14 12  1  0
 16 14  1  0
 17 16  1  0
 17 22  1  0
 17 18  1  6
 19 18  1  0
 20 19  1  0
 20 21  2  0
 22 25  1  0
 23 22  2  0
 24 20  1  0
M  END
$$$$
