TLE.pdb
     RDKit          3D

 25 24  0  0  1  0  0  0  0  0999 V2000
   36.9985  -26.7391    4.8162 C   0  0  0  0  0  0  0  0  0  0  0  0
   38.3063  -26.0725    5.1738 C   0  0  1  0  0  0  0  0  0  0  0  0
   39.3675  -26.7235    4.5667 O   0  0  0  0  0  0  0  0  0  0  0  0
   38.2748  -24.6157    4.8301 C   0  0  2  0  0  0  0  0  0  0  0  0
   39.5578  -24.0245    5.0671 N   0  0  0  0  0  0  0  0  0  0  0  0
   37.1728  -23.9704    5.5617 C   0  0  0  0  0  0  0  0  0  0  0  0
   37.4247  -23.7058    6.7845 O   0  0  0  0  0  0  0  0  0  0  0  0
   31.6511  -21.3036    4.6572 C   0  0  0  0  0  0  0  0  0  0  0  0
   32.6395  -21.8342    5.6321 C   0  0  2  0  0  0  0  0  0  0  0  0
   32.9994  -20.7304    6.6474 C   0  0  0  0  0  0  0  0  0  0  0  0
   33.8744  -22.3966    5.0790 C   0  0  0  0  0  0  0  0  0  0  0  0
   34.8852  -23.0479    5.9156 C   0  0  2  0  0  0  0  0  0  0  0  0
   35.9290  -23.6401    5.0460 N   0  0  0  0  0  0  0  0  0  0  0  0
   34.4349  -24.0404    6.8904 C   0  0  0  0  0  0  0  0  0  0  0  0
   34.0737  -25.2241    6.6037 O   0  0  0  0  0  0  0  0  0  0  0  0
   34.3955  -23.6520    8.2823 N   0  0  0  0  0  0  0  0  0  0  0  0
   34.0585  -24.6798    9.2818 C   0  0  1  0  0  0  0  0  0  0  0  0
   35.1623  -24.7748   10.2842 C   0  0  0  0  0  0  0  0  0  0  0  0
   34.9060  -25.7852   11.3355 C   0  0  0  0  0  0  0  0  0  0  0  0
   35.9235  -25.9332   12.3725 C   0  0  0  0  0  0  0  0  0  0  0  0
   36.1819  -27.0161   12.9402 O   0  0  0  0  0  0  0  0  0  0  0  0
   32.7254  -24.3813    9.8666 C   0  0  0  0  0  0  0  0  0  0  0  0
   32.2279  -23.2361    9.8743 O   0  0  0  0  0  0  0  0  0  0  0  0
   36.6458  -24.8106   12.7512 O   0  0  0  0  0  0  0  0  0  0  0  0
   31.9608  -25.3962   10.4431 O   0  0  0  0  0  0  0  0  0  0  0  0
  2  1  1  6
  3  2  1  0
  4  6  1  0
  4  2  1  0
  4  5  1  1
  6 13  1  0
  7  6  2  0
  9  8  1  6
  9 11  1  0
 10  9  1  0
 12 11  1  6
 13 12  1  0
 14 15  2  0
 14 12  1  0
 16 14  1  0
 17 16  1  0
 17 22  1  0
 17 18  1  1
 19 18  1  0
 20 19  1  0
 20 21  2  0
 22 25  1  0
 23 22  2  0
 24 20  1  0
M  END
$$$$
