TLE.pdb
     RDKit          3D

 25 24  0  0  1  0  0  0  0  0999 V2000
   19.4005  -22.0337  -13.9184 C   0  0  0  0  0  0  0  0  0  0  0  0
   20.8587  -21.7925  -13.6052 C   0  0  1  0  0  0  0  0  0  0  0  0
   21.6504  -22.1044  -14.6981 O   0  0  0  0  0  0  0  0  0  0  0  0
   21.0796  -20.3870  -13.1390 C   0  0  2  0  0  0  0  0  0  0  0  0
   20.7447  -19.4628  -14.1808 N   0  0  0  0  0  0  0  0  0  0  0  0
   22.4579  -20.2545  -12.6400 C   0  0  0  0  0  0  0  0  0  0  0  0
   23.2379  -19.5825  -13.3941 O   0  0  0  0  0  0  0  0  0  0  0  0
   25.8765  -21.3451   -7.5972 C   0  0  0  0  0  0  0  0  0  0  0  0
   25.8012  -20.7157   -8.9414 C   0  0  2  0  0  0  0  0  0  0  0  0
   26.2563  -19.2453   -8.8436 C   0  0  0  0  0  0  0  0  0  0  0  0
   24.5056  -20.7712   -9.6237 C   0  0  0  0  0  0  0  0  0  0  0  0
   24.3662  -20.5505  -11.0651 C   0  0  2  0  0  0  0  0  0  0  0  0
   22.9566  -20.7830  -11.4592 N   0  0  0  0  0  0  0  0  0  0  0  0
   25.2563  -21.2860  -11.9622 C   0  0  0  0  0  0  0  0  0  0  0  0
   25.3769  -22.5505  -11.9849 O   0  0  0  0  0  0  0  0  0  0  0  0
   26.0593  -20.5247  -12.8923 N   0  0  0  0  0  0  0  0  0  0  0  0
   26.6677  -21.2354  -14.0297 C   0  0  1  0  0  0  0  0  0  0  0  0
   25.6163  -22.0265  -14.7375 C   0  0  0  0  0  0  0  0  0  0  0  0
   26.1212  -22.7073  -15.9514 C   0  0  0  0  0  0  0  0  0  0  0  0
   25.1576  -23.4915  -16.7189 C   0  0  0  0  0  0  0  0  0  0  0  0
   23.9595  -23.6297  -16.3918 O   0  0  0  0  0  0  0  0  0  0  0  0
   27.3855  -20.2619  -14.8931 C   0  0  0  0  0  0  0  0  0  0  0  0
   27.0250  -19.0736  -15.0222 O   0  0  0  0  0  0  0  0  0  0  0  0
   25.5934  -24.1196  -17.8769 O   0  0  0  0  0  0  0  0  0  0  0  0
   28.5183  -20.6503  -15.6094 O   0  0  0  0  0  0  0  0  0  0  0  0
  2  1  1  6
  3  2  1  0
  4  6  1  0
  4  2  1  0
  4  5  1  6
  6 13  1  0
  7  6  2  0
  9  8  1  1
  9 11  1  0
 10  9  1  0
 12 11  1  1
 13 12  1  0
 14 15  2  0
 14 12  1  0
 16 14  1  0
 17 16  1  0
 17 22  1  0
 17 18  1  6
 19 18  1  0
 20 19  1  0
 20 21  2  0
 22 25  1  0
 23 22  2  0
 24 20  1  0
M  END
$$$$
