TLE.pdb
     RDKit          3D

 25 24  0  0  1  0  0  0  0  0999 V2000
   18.2237  -12.1208  -16.4075 C   0  0  0  0  0  0  0  0  0  0  0  0
   19.2290  -12.4822  -17.4759 C   0  0  1  0  0  0  0  0  0  0  0  0
   18.6515  -13.3015  -18.4318 O   0  0  0  0  0  0  0  0  0  0  0  0
   19.8282  -11.2521  -18.0835 C   0  0  2  0  0  0  0  0  0  0  0  0
   20.2783  -11.5280  -19.4150 N   0  0  0  0  0  0  0  0  0  0  0  0
   20.8778  -10.7346  -17.1909 C   0  0  0  0  0  0  0  0  0  0  0  0
   20.4871  -10.4621  -16.0068 O   0  0  0  0  0  0  0  0  0  0  0  0
   26.9696  -10.6896  -16.4920 C   0  0  0  0  0  0  0  0  0  0  0  0
   25.6646  -10.1859  -15.9901 C   0  0  2  0  0  0  0  0  0  0  0  0
   25.5132  -10.5542  -14.5001 C   0  0  0  0  0  0  0  0  0  0  0  0
   24.4674  -10.6209  -16.7146 C   0  0  0  0  0  0  0  0  0  0  0  0
   23.1598   -9.9890  -16.5230 C   0  0  2  0  0  0  0  0  0  0  0  0
   22.2077  -10.5272  -17.5231 N   0  0  0  0  0  0  0  0  0  0  0  0
   23.0964   -8.5282  -16.5189 C   0  0  0  0  0  0  0  0  0  0  0  0
   23.2802   -7.7932  -17.5387 O   0  0  0  0  0  0  0  0  0  0  0  0
   22.8042   -7.8673  -15.2670 N   0  0  0  0  0  0  0  0  0  0  0  0
   22.6122   -6.4072  -15.2795 C   0  0  1  0  0  0  0  0  0  0  0  0
   21.5550   -6.0563  -16.2751 C   0  0  0  0  0  0  0  0  0  0  0  0
   21.1721   -4.6268  -16.2355 C   0  0  0  0  0  0  0  0  0  0  0  0
   20.1110   -4.2009  -17.1440 C   0  0  0  0  0  0  0  0  0  0  0  0
   19.5190   -4.9730  -17.9282 O   0  0  0  0  0  0  0  0  0  0  0  0
   22.3331   -5.9341  -13.8987 C   0  0  0  0  0  0  0  0  0  0  0  0
   21.7955   -6.6523  -13.0303 O   0  0  0  0  0  0  0  0  0  0  0  0
   19.7366   -2.8648  -17.1388 O   0  0  0  0  0  0  0  0  0  0  0  0
   22.6706   -4.6366  -13.5121 O   0  0  0  0  0  0  0  0  0  0  0  0
  2  1  1  1
  3  2  1  0
  4  6  1  0
  4  2  1  0
  4  5  1  6
  6 13  1  0
  7  6  2  0
  9  8  1  6
  9 11  1  0
 10  9  1  0
 12 11  1  6
 13 12  1  0
 14 15  2  0
 14 12  1  0
 16 14  1  0
 17 16  1  0
 17 22  1  0
 17 18  1  6
 19 18  1  0
 20 19  1  0
 20 21  2  0
 22 25  1  0
 23 22  2  0
 24 20  1  0
M  END
$$$$
