TLE.pdb
     RDKit          3D

 25 24  0  0  1  0  0  0  0  0999 V2000
   16.9305   -9.7565  -15.9938 C   0  0  0  0  0  0  0  0  0  0  0  0
   17.7519  -10.8313  -16.6666 C   0  0  1  0  0  0  0  0  0  0  0  0
   16.9461  -11.6456  -17.4451 O   0  0  0  0  0  0  0  0  0  0  0  0
   18.8705  -10.2306  -17.4600 C   0  0  2  0  0  0  0  0  0  0  0  0
   19.3191  -11.1542  -18.4588 N   0  0  0  0  0  0  0  0  0  0  0  0
   19.9282   -9.7815  -16.5403 C   0  0  0  0  0  0  0  0  0  0  0  0
   19.5112   -9.1519  -15.5115 O   0  0  0  0  0  0  0  0  0  0  0  0
   22.9370  -12.0370  -13.9232 C   0  0  0  0  0  0  0  0  0  0  0  0
   23.3780  -11.7234  -15.3074 C   0  0  2  0  0  0  0  0  0  0  0  0
   24.7544  -12.3701  -15.5643 C   0  0  0  0  0  0  0  0  0  0  0  0
   23.4393  -10.3061  -15.6744 C   0  0  0  0  0  0  0  0  0  0  0  0
   22.2514   -9.4493  -15.7026 C   0  0  2  0  0  0  0  0  0  0  0  0
   21.2911   -9.9810  -16.6983 N   0  0  0  0  0  0  0  0  0  0  0  0
   22.4429   -8.0160  -15.9194 C   0  0  0  0  0  0  0  0  0  0  0  0
   22.7215   -7.4845  -17.0392 O   0  0  0  0  0  0  0  0  0  0  0  0
   22.3066   -7.1355  -14.7811 N   0  0  0  0  0  0  0  0  0  0  0  0
   22.3480   -5.6824  -15.0170 C   0  0  1  0  0  0  0  0  0  0  0  0
   21.2391   -5.3002  -15.9425 C   0  0  0  0  0  0  0  0  0  0  0  0
   19.9569   -5.0582  -15.2431 C   0  0  0  0  0  0  0  0  0  0  0  0
   18.8273   -4.6286  -16.0629 C   0  0  0  0  0  0  0  0  0  0  0  0
   17.6346   -4.7188  -15.7011 O   0  0  0  0  0  0  0  0  0  0  0  0
   22.3290   -4.9699  -13.7130 C   0  0  0  0  0  0  0  0  0  0  0  0
   22.5218   -3.7408  -13.6075 O   0  0  0  0  0  0  0  0  0  0  0  0
   19.0894   -4.0893  -17.3143 O   0  0  0  0  0  0  0  0  0  0  0  0
   22.0887   -5.6664  -12.5281 O   0  0  0  0  0  0  0  0  0  0  0  0
  2  1  1  6
  3  2  1  0
  4  6  1  0
  4  2  1  0
  4  5  1  6
  6 13  1  0
  7  6  2  0
  9  8  1  1
  9 11  1  0
 10  9  1  0
 12 11  1  6
 13 12  1  0
 14 15  2  0
 14 12  1  0
 16 14  1  0
 17 16  1  0
 17 22  1  0
 17 18  1  6
 19 18  1  0
 20 19  1  0
 20 21  2  0
 22 25  1  0
 23 22  2  0
 24 20  1  0
M  END
$$$$
