TLE.pdb
     RDKit          3D

 25 24  0  0  1  0  0  0  0  0999 V2000
   26.9494  -20.4711  -17.4177 C   0  0  0  0  0  0  0  0  0  0  0  0
   27.8041  -19.8787  -16.3218 C   0  0  1  0  0  0  0  0  0  0  0  0
   28.8078  -19.0895  -16.8588 O   0  0  0  0  0  0  0  0  0  0  0  0
   26.9648  -19.1224  -15.3396 C   0  0  2  0  0  0  0  0  0  0  0  0
   27.7976  -18.3290  -14.4860 N   0  0  0  0  0  0  0  0  0  0  0  0
   26.0949  -20.0664  -14.6196 C   0  0  0  0  0  0  0  0  0  0  0  0
   25.3410  -20.7756  -15.3662 O   0  0  0  0  0  0  0  0  0  0  0  0
   27.5360  -20.7355  -10.2151 C   0  0  0  0  0  0  0  0  0  0  0  0
   26.0584  -20.6495  -10.3496 C   0  0  2  0  0  0  0  0  0  0  0  0
   25.4059  -20.8685   -8.9694 C   0  0  0  0  0  0  0  0  0  0  0  0
   25.4318  -21.5477  -11.3231 C   0  0  0  0  0  0  0  0  0  0  0  0
   24.9807  -21.0890  -12.6391 C   0  0  2  0  0  0  0  0  0  0  0  0
   26.0325  -20.2390  -13.2454 N   0  0  0  0  0  0  0  0  0  0  0  0
   23.6886  -20.4098  -12.7244 C   0  0  0  0  0  0  0  0  0  0  0  0
   23.5253  -19.1526  -12.6423 O   0  0  0  0  0  0  0  0  0  0  0  0
   22.5085  -21.2223  -12.9159 N   0  0  0  0  0  0  0  0  0  0  0  0
   21.3008  -20.5778  -13.4588 C   0  0  1  0  0  0  0  0  0  0  0  0
   21.6253  -19.9492  -14.7748 C   0  0  0  0  0  0  0  0  0  0  0  0
   20.4409  -19.3718  -15.4498 C   0  0  0  0  0  0  0  0  0  0  0  0
   20.6659  -18.7193  -16.7367 C   0  0  0  0  0  0  0  0  0  0  0  0
   21.7855  -18.6373  -17.2857 O   0  0  0  0  0  0  0  0  0  0  0  0
   20.1937  -21.5678  -13.5103 C   0  0  0  0  0  0  0  0  0  0  0  0
   20.3525  -22.7451  -13.8945 O   0  0  0  0  0  0  0  0  0  0  0  0
   19.5777  -18.1579  -17.3894 O   0  0  0  0  0  0  0  0  0  0  0  0
   18.9028  -21.2086  -13.1210 O   0  0  0  0  0  0  0  0  0  0  0  0
  2  1  1  6
  3  2  1  0
  4  6  1  0
  4  2  1  0
  4  5  1  1
  6 13  1  0
  7  6  2  0
  9  8  1  1
  9 11  1  0
 10  9  1  0
 12 11  1  1
 13 12  1  0
 14 15  2  0
 14 12  1  0
 16 14  1  0
 17 16  1  0
 17 22  1  0
 17 18  1  6
 19 18  1  0
 20 19  1  0
 20 21  2  0
 22 25  1  0
 23 22  2  0
 24 20  1  0
M  END
$$$$
