TVG.pdb
     RDKit          3D

 19 18  0  0  1  0  0  0  0  0999 V2000
   17.2438  -10.8645  -19.4024 C   0  0  0  0  0  0  0  0  0  0  0  0
   17.8457  -10.1189  -18.2132 C   0  0  1  0  0  0  0  0  0  0  0  0
   16.8041   -9.4078  -17.5979 O   0  0  0  0  0  0  0  0  0  0  0  0
   18.3063  -11.2053  -17.2367 C   0  0  2  0  0  0  0  0  0  0  0  0
   17.1429  -11.9466  -16.8532 N   0  0  0  0  0  0  0  0  0  0  0  0
   19.0288  -10.6295  -16.1027 C   0  0  0  0  0  0  0  0  0  0  0  0
   18.4510  -10.5049  -14.9989 O   0  0  0  0  0  0  0  0  0  0  0  0
   22.2084  -11.7491  -14.8055 C   0  0  0  0  0  0  0  0  0  0  0  0
   22.4394  -10.2701  -14.9869 C   0  0  2  0  0  0  0  0  0  0  0  0
   23.2468   -9.7583  -13.8360 C   0  0  0  0  0  0  0  0  0  0  0  0
   21.0975   -9.5742  -15.1162 C   0  0  2  0  0  0  0  0  0  0  0  0
   20.3765  -10.2006  -16.2043 N   0  0  0  0  0  0  0  0  0  0  0  0
   21.2313   -8.1208  -15.2905 C   0  0  0  0  0  0  0  0  0  0  0  0
   21.8893   -7.6632  -16.2566 O   0  0  0  0  0  0  0  0  0  0  0  0
   20.6313   -7.2111  -14.3880 N   0  0  0  0  0  0  0  0  0  0  0  0
   20.7595   -5.7701  -14.6180 C   0  0  0  0  0  0  0  0  0  0  0  0
   21.9193   -5.2404  -13.8639 C   0  0  0  0  0  0  0  0  0  0  0  0
   22.5413   -6.0274  -13.1052 O   0  0  0  0  0  0  0  0  0  0  0  0
   22.3238   -3.9318  -13.9726 O   0  0  0  0  0  0  0  0  0  0  0  0
  2  1  1  6
  2  3  1  0
  4  5  1  1
  4  2  1  0
  6  4  1  0
  7  6  2  0
  9  8  1  1
  9 11  1  0
 10  9  1  0
 11 12  1  6
 11 13  1  0
 12  6  1  0
 13 15  1  0
 14 13  2  0
 15 16  1  0
 16 17  1  0
 17 19  1  0
 18 17  2  0
M  END
$$$$
