TVG.pdb
     RDKit          3D

 19 18  0  0  1  0  0  0  0  0999 V2000
   16.4865   -5.5600   -9.8981 C   0  0  0  0  0  0  0  0  0  0  0  0
   15.8660   -6.7422   -9.1566 C   0  0  1  0  0  0  0  0  0  0  0  0
   14.5467   -6.3864   -8.8371 O   0  0  0  0  0  0  0  0  0  0  0  0
   15.8050   -7.8822  -10.1777 C   0  0  2  0  0  0  0  0  0  0  0  0
   15.2351   -9.0139   -9.5108 N   0  0  0  0  0  0  0  0  0  0  0  0
   17.1218   -8.1501  -10.7553 C   0  0  0  0  0  0  0  0  0  0  0  0
   17.9964   -8.7213  -10.0650 O   0  0  0  0  0  0  0  0  0  0  0  0
   18.0272  -10.0139  -13.7016 C   0  0  0  0  0  0  0  0  0  0  0  0
   18.6566   -8.6680  -13.9583 C   0  0  2  0  0  0  0  0  0  0  0  0
   19.9754   -8.8682  -14.6360 C   0  0  0  0  0  0  0  0  0  0  0  0
   18.7815   -7.9236  -12.6422 C   0  0  2  0  0  0  0  0  0  0  0  0
   17.4528   -7.7836  -12.0845 N   0  0  0  0  0  0  0  0  0  0  0  0
   19.4712   -6.6338  -12.7881 C   0  0  0  0  0  0  0  0  0  0  0  0
   18.9014   -5.6808  -13.3735 O   0  0  0  0  0  0  0  0  0  0  0  0
   20.7767   -6.4336  -12.2804 N   0  0  0  0  0  0  0  0  0  0  0  0
   21.4831   -5.1830  -12.5681 C   0  0  0  0  0  0  0  0  0  0  0  0
   22.1040   -5.2522  -13.9112 C   0  0  0  0  0  0  0  0  0  0  0  0
   22.0391   -6.3407  -14.5378 O   0  0  0  0  0  0  0  0  0  0  0  0
   22.7380   -4.1730  -14.4780 O   0  0  0  0  0  0  0  0  0  0  0  0
  2  1  1  6
  2  3  1  0
  4  5  1  1
  4  2  1  0
  6  4  1  0
  7  6  2  0
  9  8  1  1
  9 11  1  0
 10  9  1  0
 11 12  1  6
 11 13  1  0
 12  6  1  0
 13 15  1  0
 14 13  2  0
 15 16  1  0
 16 17  1  0
 17 19  1  0
 18 17  2  0
M  END
$$$$
