TVG.pdb
     RDKit          3D

 19 18  0  0  1  0  0  0  0  0999 V2000
   24.5424  -25.8452  -17.1825 C   0  0  0  0  0  0  0  0  0  0  0  0
   26.0347  -25.9533  -16.8763 C   0  0  1  0  0  0  0  0  0  0  0  0
   26.6276  -26.6522  -17.9388 O   0  0  0  0  0  0  0  0  0  0  0  0
   26.5669  -24.5175  -16.9106 C   0  0  2  0  0  0  0  0  0  0  0  0
   27.9761  -24.5855  -16.6660 N   0  0  0  0  0  0  0  0  0  0  0  0
   25.8528  -23.6627  -15.9626 C   0  0  0  0  0  0  0  0  0  0  0  0
   26.1801  -23.6697  -14.7540 O   0  0  0  0  0  0  0  0  0  0  0  0
   25.5207  -20.1092  -16.2762 C   0  0  0  0  0  0  0  0  0  0  0  0
   24.0931  -20.5417  -16.0565 C   0  0  2  0  0  0  0  0  0  0  0  0
   23.4064  -19.5336  -15.1901 C   0  0  0  0  0  0  0  0  0  0  0  0
   24.0874  -21.9335  -15.4528 C   0  0  2  0  0  0  0  0  0  0  0  0
   24.7895  -22.8141  -16.3626 N   0  0  0  0  0  0  0  0  0  0  0  0
   22.7310  -22.4074  -15.1428 C   0  0  0  0  0  0  0  0  0  0  0  0
   21.9041  -22.5911  -16.0692 O   0  0  0  0  0  0  0  0  0  0  0  0
   22.3257  -22.6656  -13.8119 N   0  0  0  0  0  0  0  0  0  0  0  0
   20.9705  -23.1552  -13.5483 C   0  0  0  0  0  0  0  0  0  0  0  0
   20.0583  -22.0120  -13.3137 C   0  0  0  0  0  0  0  0  0  0  0  0
   20.5492  -20.8541  -13.3101 O   0  0  0  0  0  0  0  0  0  0  0  0
   18.7114  -22.1849  -13.1037 O   0  0  0  0  0  0  0  0  0  0  0  0
  2  1  1  6
  2  3  1  0
  4  5  1  1
  4  2  1  0
  6  4  1  0
  7  6  2  0
  9  8  1  1
  9 11  1  0
 10  9  1  0
 11 12  1  6
 11 13  1  0
 12  6  1  0
 13 15  1  0
 14 13  2  0
 15 16  1  0
 16 17  1  0
 17 19  1  0
 18 17  2  0
M  END
$$$$
