TVG.pdb
     RDKit          3D

 19 18  0  0  1  0  0  0  0  0999 V2000
   22.0297  -12.0810  -19.5705 C   0  0  0  0  0  0  0  0  0  0  0  0
   21.7984  -13.3948  -18.8269 C   0  0  1  0  0  0  0  0  0  0  0  0
   21.4894  -14.3683  -19.7890 O   0  0  0  0  0  0  0  0  0  0  0  0
   23.1518  -13.7633  -18.2116 C   0  0  2  0  0  0  0  0  0  0  0  0
   23.0355  -15.0991  -17.7094 N   0  0  0  0  0  0  0  0  0  0  0  0
   23.5556  -12.7928  -17.1945 C   0  0  0  0  0  0  0  0  0  0  0  0
   23.0038  -12.8075  -16.0706 O   0  0  0  0  0  0  0  0  0  0  0  0
   27.0282  -12.3129  -16.1332 C   0  0  0  0  0  0  0  0  0  0  0  0
   26.5505  -10.9182  -16.4492 C   0  0  2  0  0  0  0  0  0  0  0  0
   27.1572   -9.9620  -15.4713 C   0  0  0  0  0  0  0  0  0  0  0  0
   25.0337  -10.8992  -16.4226 C   0  0  2  0  0  0  0  0  0  0  0  0
   24.5613  -11.8220  -17.4332 N   0  0  0  0  0  0  0  0  0  0  0  0
   24.4844   -9.5464  -16.5926 C   0  0  0  0  0  0  0  0  0  0  0  0
   24.5739   -8.9683  -17.7033 O   0  0  0  0  0  0  0  0  0  0  0  0
   23.8491   -8.8685  -15.5253 N   0  0  0  0  0  0  0  0  0  0  0  0
   23.1221   -7.6239  -15.7868 C   0  0  0  0  0  0  0  0  0  0  0  0
   21.9429   -7.5321  -14.8950 C   0  0  0  0  0  0  0  0  0  0  0  0
   21.3987   -8.6026  -14.5213 O   0  0  0  0  0  0  0  0  0  0  0  0
   21.4390   -6.3250  -14.4741 O   0  0  0  0  0  0  0  0  0  0  0  0
  2  1  1  6
  2  3  1  0
  4  5  1  1
  4  2  1  0
  6  4  1  0
  7  6  2  0
  9  8  1  1
  9 11  1  0
 10  9  1  0
 11 12  1  6
 11 13  1  0
 12  6  1  0
 13 15  1  0
 14 13  2  0
 15 16  1  0
 16 17  1  0
 17 19  1  0
 18 17  2  0
M  END
$$$$
