TVG.pdb
     RDKit          3D

 19 18  0  0  1  0  0  0  0  0999 V2000
   29.0722  -20.7927  -18.1528 C   0  0  0  0  0  0  0  0  0  0  0  0
   28.2131  -20.4564  -16.9357 C   0  0  1  0  0  0  0  0  0  0  0  0
   27.3928  -19.3751  -17.2918 O   0  0  0  0  0  0  0  0  0  0  0  0
   27.3090  -21.6739  -16.7210 C   0  0  2  0  0  0  0  0  0  0  0  0
   26.4082  -21.3463  -15.6573 N   0  0  0  0  0  0  0  0  0  0  0  0
   28.0944  -22.8814  -16.4667 C   0  0  0  0  0  0  0  0  0  0  0  0
   28.6342  -23.0453  -15.3489 O   0  0  0  0  0  0  0  0  0  0  0  0
   27.0057  -26.2236  -16.3993 C   0  0  0  0  0  0  0  0  0  0  0  0
   28.1054  -26.2790  -17.4293 C   0  0  2  0  0  0  0  0  0  0  0  0
   28.8100  -27.5942  -17.3195 C   0  0  0  0  0  0  0  0  0  0  0  0
   29.0347  -25.0977  -17.2219 C   0  0  2  0  0  0  0  0  0  0  0  0
   28.2716  -23.8885  -17.4492 N   0  0  0  0  0  0  0  0  0  0  0  0
   30.2374  -25.1728  -18.0635 C   0  0  0  0  0  0  0  0  0  0  0  0
   30.1662  -24.8931  -19.2852 O   0  0  0  0  0  0  0  0  0  0  0  0
   31.4898  -25.5564  -17.5282 N   0  0  0  0  0  0  0  0  0  0  0  0
   32.6586  -25.6428  -18.4071 C   0  0  0  0  0  0  0  0  0  0  0  0
   33.8648  -25.9675  -17.6112 C   0  0  0  0  0  0  0  0  0  0  0  0
   33.7255  -26.1563  -16.3755 O   0  0  0  0  0  0  0  0  0  0  0  0
   35.1108  -26.0655  -18.1821 O   0  0  0  0  0  0  0  0  0  0  0  0
  2  1  1  6
  2  3  1  0
  4  5  1  1
  4  2  1  0
  6  4  1  0
  7  6  2  0
  9  8  1  1
  9 11  1  0
 10  9  1  0
 11 12  1  6
 11 13  1  0
 12  6  1  0
 13 15  1  0
 14 13  2  0
 15 16  1  0
 16 17  1  0
 17 19  1  0
 18 17  2  0
M  END
$$$$
