TVG.pdb
     RDKit          3D

 19 18  0  0  1  0  0  0  0  0999 V2000
   22.6178  -21.6021  -12.2263 C   0  0  0  0  0  0  0  0  0  0  0  0
   22.6069  -20.7832  -10.9373 C   0  0  1  0  0  0  0  0  0  0  0  0
   21.6866  -21.3884  -10.0680 O   0  0  0  0  0  0  0  0  0  0  0  0
   24.0020  -20.9547  -10.3290 C   0  0  2  0  0  0  0  0  0  0  0  0
   23.9183  -20.5392   -8.9613 N   0  0  0  0  0  0  0  0  0  0  0  0
   25.0107  -20.2255  -11.0974 C   0  0  0  0  0  0  0  0  0  0  0  0
   25.2252  -19.0173  -10.8485 O   0  0  0  0  0  0  0  0  0  0  0  0
   28.3850  -20.9700  -11.2451 C   0  0  0  0  0  0  0  0  0  0  0  0
   28.0882  -20.8657  -12.7197 C   0  0  2  0  0  0  0  0  0  0  0  0
   29.2272  -20.1723  -13.3981 C   0  0  0  0  0  0  0  0  0  0  0  0
   26.7675  -20.1426  -12.9065 C   0  0  2  0  0  0  0  0  0  0  0  0
   25.7663  -20.8405  -12.1277 N   0  0  0  0  0  0  0  0  0  0  0  0
   26.3921  -20.0123  -14.3216 C   0  0  0  0  0  0  0  0  0  0  0  0
   27.1378  -20.4848  -15.2141 O   0  0  0  0  0  0  0  0  0  0  0  0
   25.1982  -19.3605  -14.7113 N   0  0  0  0  0  0  0  0  0  0  0  0
   24.8802  -19.2187  -16.1342 C   0  0  0  0  0  0  0  0  0  0  0  0
   23.6367  -18.4304  -16.2967 C   0  0  0  0  0  0  0  0  0  0  0  0
   22.5499  -19.0545  -16.4025 O   0  0  0  0  0  0  0  0  0  0  0  0
   23.6435  -17.0569  -16.3339 O   0  0  0  0  0  0  0  0  0  0  0  0
  2  1  1  6
  2  3  1  0
  4  5  1  1
  4  2  1  0
  6  4  1  0
  7  6  2  0
  9  8  1  1
  9 11  1  0
 10  9  1  0
 11 12  1  1
 11 13  1  0
 12  6  1  0
 13 15  1  0
 14 13  2  0
 15 16  1  0
 16 17  1  0
 17 19  1  0
 18 17  2  0
M  END
$$$$
