TVG.pdb
     RDKit          3D

 19 18  0  0  1  0  0  0  0  0999 V2000
   26.2616  -10.2001  -14.8441 C   0  0  0  0  0  0  0  0  0  0  0  0
   26.5034  -10.7156  -16.2612 C   0  0  1  0  0  0  0  0  0  0  0  0
   27.3273  -11.8467  -16.1572 O   0  0  0  0  0  0  0  0  0  0  0  0
   25.1356  -11.1827  -16.7681 C   0  0  2  0  0  0  0  0  0  0  0  0
   25.3579  -11.8714  -18.0037 N   0  0  0  0  0  0  0  0  0  0  0  0
   24.2015  -10.0634  -16.8862 C   0  0  0  0  0  0  0  0  0  0  0  0
   24.3020   -9.2718  -17.8510 O   0  0  0  0  0  0  0  0  0  0  0  0
   20.7777   -9.9946  -17.4931 C   0  0  0  0  0  0  0  0  0  0  0  0
   20.8578   -9.2601  -16.1787 C   0  0  2  0  0  0  0  0  0  0  0  0
   19.8124   -8.1901  -16.1540 C   0  0  0  0  0  0  0  0  0  0  0  0
   22.2616   -8.7113  -16.0058 C   0  0  2  0  0  0  0  0  0  0  0  0
   23.1716   -9.8353  -15.9384 N   0  0  0  0  0  0  0  0  0  0  0  0
   22.3785   -7.8200  -14.8428 C   0  0  0  0  0  0  0  0  0  0  0  0
   22.3229   -8.2938  -13.6817 O   0  0  0  0  0  0  0  0  0  0  0  0
   22.5544   -6.4245  -14.9974 N   0  0  0  0  0  0  0  0  0  0  0  0
   22.5562   -5.5583  -13.8160 C   0  0  0  0  0  0  0  0  0  0  0  0
   22.1205   -4.1932  -14.1911 C   0  0  0  0  0  0  0  0  0  0  0  0
   21.8240   -3.9762  -15.3940 O   0  0  0  0  0  0  0  0  0  0  0  0
   22.0344   -3.1764  -13.2709 O   0  0  0  0  0  0  0  0  0  0  0  0
  2  1  1  1
  2  3  1  0
  4  5  1  6
  4  2  1  0
  6  4  1  0
  7  6  2  0
  9  8  1  6
  9 11  1  0
 10  9  1  0
 11 12  1  1
 11 13  1  0
 12  6  1  0
 13 15  1  0
 14 13  2  0
 15 16  1  0
 16 17  1  0
 17 19  1  0
 18 17  2  0
M  END
$$$$
