TVG.pdb
     RDKit          3D

 19 18  0  0  1  0  0  0  0  0999 V2000
   18.3962   -7.6472  -17.0613 C   0  0  0  0  0  0  0  0  0  0  0  0
   17.6558   -8.9777  -16.9421 C   0  0  1  0  0  0  0  0  0  0  0  0
   17.0227   -9.2127  -18.1721 O   0  0  0  0  0  0  0  0  0  0  0  0
   18.7451  -10.0407  -16.7701 C   0  0  2  0  0  0  0  0  0  0  0  0
   18.1097  -11.3177  -16.8952 N   0  0  0  0  0  0  0  0  0  0  0  0
   19.4611   -9.8689  -15.5063 C   0  0  0  0  0  0  0  0  0  0  0  0
   18.8774  -10.1119  -14.4256 O   0  0  0  0  0  0  0  0  0  0  0  0
   23.6704   -9.5661  -15.3784 C   0  0  0  0  0  0  0  0  0  0  0  0
   22.7890  -10.0548  -14.2570 C   0  0  2  0  0  0  0  0  0  0  0  0
   22.5043  -11.5095  -14.4595 C   0  0  0  0  0  0  0  0  0  0  0  0
   21.5285   -9.2113  -14.2179 C   0  0  2  0  0  0  0  0  0  0  0  0
   20.8092   -9.4320  -15.4548 N   0  0  0  0  0  0  0  0  0  0  0  0
   21.8097   -7.7893  -13.9744 C   0  0  0  0  0  0  0  0  0  0  0  0
   22.2464   -7.4188  -12.8573 O   0  0  0  0  0  0  0  0  0  0  0  0
   21.5993   -6.8133  -14.9771 N   0  0  0  0  0  0  0  0  0  0  0  0
   21.8543   -5.4016  -14.6803 C   0  0  0  0  0  0  0  0  0  0  0  0
   20.5708   -4.6844  -14.5010 C   0  0  0  0  0  0  0  0  0  0  0  0
   19.5169   -5.3667  -14.4259 O   0  0  0  0  0  0  0  0  0  0  0  0
   20.5065   -3.3144  -14.4163 O   0  0  0  0  0  0  0  0  0  0  0  0
  2  1  1  6
  2  3  1  0
  4  5  1  1
  4  2  1  0
  6  4  1  0
  7  6  2  0
  9  8  1  6
  9 11  1  0
 10  9  1  0
 11 12  1  6
 11 13  1  0
 12  6  1  0
 13 15  1  0
 14 13  2  0
 15 16  1  0
 16 17  1  0
 17 19  1  0
 18 17  2  0
M  END
$$$$
