TVG.pdb
     RDKit          3D

 19 18  0  0  1  0  0  0  0  0999 V2000
   25.8809  -10.7323  -20.5662 C   0  0  0  0  0  0  0  0  0  0  0  0
   24.8891   -9.9156  -19.7405 C   0  0  1  0  0  0  0  0  0  0  0  0
   23.7883   -9.6404  -20.5661 O   0  0  0  0  0  0  0  0  0  0  0  0
   24.4113  -10.8522  -18.6268 C   0  0  2  0  0  0  0  0  0  0  0  0
   23.8284  -11.9961  -19.2607 N   0  0  0  0  0  0  0  0  0  0  0  0
   23.4995  -10.1675  -17.7106 C   0  0  0  0  0  0  0  0  0  0  0  0
   22.2850  -10.0744  -18.0001 O   0  0  0  0  0  0  0  0  0  0  0  0
   22.3612  -10.9875  -14.5766 C   0  0  0  0  0  0  0  0  0  0  0  0
   22.9809   -9.6420  -14.2956 C   0  0  2  0  0  0  0  0  0  0  0  0
   22.1667   -8.9380  -13.2565 C   0  0  0  0  0  0  0  0  0  0  0  0
   23.0746   -8.8621  -15.5936 C   0  0  2  0  0  0  0  0  0  0  0  0
   23.9420   -9.5967  -16.4903 N   0  0  0  0  0  0  0  0  0  0  0  0
   23.5195   -7.4764  -15.3872 C   0  0  0  0  0  0  0  0  0  0  0  0
   24.7224   -7.2375  -15.1197 O   0  0  0  0  0  0  0  0  0  0  0  0
   22.6180   -6.3900  -15.4828 N   0  0  0  0  0  0  0  0  0  0  0  0
   23.1053   -5.0232  -15.2823 C   0  0  0  0  0  0  0  0  0  0  0  0
   22.9845   -4.2550  -16.5430 C   0  0  0  0  0  0  0  0  0  0  0  0
   22.6157   -4.8687  -17.5770 O   0  0  0  0  0  0  0  0  0  0  0  0
   23.2615   -2.9107  -16.6073 O   0  0  0  0  0  0  0  0  0  0  0  0
  2  1  1  6
  2  3  1  0
  4  5  1  6
  4  2  1  0
  6  4  1  0
  7  6  2  0
  9  8  1  6
  9 11  1  0
 10  9  1  0
 11 12  1  6
 11 13  1  0
 12  6  1  0
 13 15  1  0
 14 13  2  0
 15 16  1  0
 16 17  1  0
 17 19  1  0
 18 17  2  0
M  END
$$$$
