KLR.pdb
     RDKit          3D

 29 28  0  0  1  0  0  0  0  0999 V2000
    7.2872  -16.1259   20.9728 N   0  0  0  0  0  0  0  0  0  0  0  0
    8.4629  -15.3133   20.8584 C   0  0  1  0  0  0  0  0  0  0  0  0
    8.3225  -14.2948   19.7183 C   0  0  0  0  0  0  0  0  0  0  0  0
    7.8618  -14.9978   18.4787 C   0  0  0  0  0  0  0  0  0  0  0  0
    8.0500  -14.2529   17.2083 C   0  0  0  0  0  0  0  0  0  0  0  0
    7.4295  -14.8504   15.9897 C   0  0  0  0  0  0  0  0  0  0  0  0
    7.6196  -14.1187   14.7774 N   0  0  0  0  0  0  0  0  0  0  0  0
    8.7598  -14.5946   22.1052 C   0  0  0  0  0  0  0  0  0  0  0  0
    9.8363  -13.9583   22.2365 O   0  0  0  0  0  0  0  0  0  0  0  0
    5.6118  -12.2236   26.8293 C   0  0  0  0  0  0  0  0  0  0  0  0
    7.0352  -12.4423   26.2827 C   0  0  2  0  0  0  0  0  0  0  0  0
    7.6512  -11.0870   26.1224 C   0  0  0  0  0  0  0  0  0  0  0  0
    6.8612  -13.2154   25.0144 C   0  0  0  0  0  0  0  0  0  0  0  0
    8.0930  -13.7571   24.3938 C   0  0  2  0  0  0  0  0  0  0  0  0
    7.8615  -14.5749   23.2232 N   0  0  0  0  0  0  0  0  0  0  0  0
    8.9063  -14.4975   25.4056 C   0  0  0  0  0  0  0  0  0  0  0  0
    9.1701  -13.9824   26.5118 O   0  0  0  0  0  0  0  0  0  0  0  0
   11.8727  -21.4903   29.4340 N   0  0  0  0  0  0  0  0  0  0  0  0
   10.7706  -20.8564   30.1048 C   0  0  0  0  0  0  0  0  0  0  0  0
   10.5310  -21.1529   31.3295 N   0  0  0  0  0  0  0  0  0  0  0  0
    9.9472  -19.9194   29.4499 N   0  0  0  0  0  0  0  0  0  0  0  0
    9.8468  -19.7807   28.0348 C   0  0  0  0  0  0  0  0  0  0  0  0
   10.4319  -18.5167   27.4861 C   0  0  0  0  0  0  0  0  0  0  0  0
    9.4690  -17.8140   26.5326 C   0  0  0  0  0  0  0  0  0  0  0  0
   10.1681  -16.5809   26.0338 C   0  0  2  0  0  0  0  0  0  0  0  0
    9.3936  -15.7877   25.1412 N   0  0  0  0  0  0  0  0  0  0  0  0
   11.4302  -16.9608   25.3601 C   0  0  0  0  0  0  0  0  0  0  0  0
   12.6054  -17.0295   26.0875 O   0  0  0  0  0  0  0  0  0  0  0  0
   11.5041  -17.2337   24.1297 O   0  0  0  0  0  0  0  0  0  0  0  0
  2  8  1  0
  2  1  1  1
  3  2  1  0
  4  5  1  0
  4  3  1  0
  5  6  1  0
  7  6  1  0
  8  9  2  0
 11 13  1  0
 11 10  1  6
 12 11  1  0
 14 13  1  1
 15 14  1  0
 15  8  1  0
 16 14  1  0
 16 17  2  0
 19 18  1  0
 20 19  2  0
 21 19  1  0
 22 21  1  0
 23 22  1  0
 23 24  1  0
 25 24  1  6
 25 26  1  0
 25 27  1  0
 26 16  1  0
 27 28  1  0
 29 27  2  0
M  END
$$$$
