KLR.pdb
     RDKit          3D

 29 28  0  0  1  0  0  0  0  0999 V2000
    8.4423  -15.5550   19.7793 N   0  0  0  0  0  0  0  0  0  0  0  0
    7.6540  -15.8108   20.9493 C   0  0  1  0  0  0  0  0  0  0  0  0
    7.6409  -17.3075   21.2910 C   0  0  0  0  0  0  0  0  0  0  0  0
    6.9773  -18.0640   20.1818 C   0  0  0  0  0  0  0  0  0  0  0  0
    6.9077  -19.5365   20.3584 C   0  0  0  0  0  0  0  0  0  0  0  0
    5.7534  -20.2290   19.7141 C   0  0  0  0  0  0  0  0  0  0  0  0
    5.7611  -21.6550   19.8016 N   0  0  0  0  0  0  0  0  0  0  0  0
    8.1387  -15.0602   22.1157 C   0  0  0  0  0  0  0  0  0  0  0  0
    9.3648  -14.8208   22.2587 O   0  0  0  0  0  0  0  0  0  0  0  0
    5.8910  -11.8071   26.9078 C   0  0  0  0  0  0  0  0  0  0  0  0
    7.1750  -12.3240   26.2317 C   0  0  2  0  0  0  0  0  0  0  0  0
    8.0074  -11.1227   25.9060 C   0  0  0  0  0  0  0  0  0  0  0  0
    6.7128  -13.1162   25.0505 C   0  0  0  0  0  0  0  0  0  0  0  0
    7.7514  -13.8721   24.3117 C   0  0  2  0  0  0  0  0  0  0  0  0
    7.2642  -14.5657   23.1394 N   0  0  0  0  0  0  0  0  0  0  0  0
    8.4633  -14.8143   25.2276 C   0  0  0  0  0  0  0  0  0  0  0  0
    9.0371  -14.3941   26.2537 O   0  0  0  0  0  0  0  0  0  0  0  0
    9.8073  -21.1564   28.9801 N   0  0  0  0  0  0  0  0  0  0  0  0
    8.4168  -21.5187   29.0207 C   0  0  0  0  0  0  0  0  0  0  0  0
    7.9689  -22.1635   30.0351 N   0  0  0  0  0  0  0  0  0  0  0  0
    7.5353  -21.1845   27.9738 N   0  0  0  0  0  0  0  0  0  0  0  0
    7.9323  -20.5871   26.7419 C   0  0  0  0  0  0  0  0  0  0  0  0
    8.3987  -19.1691   26.8550 C   0  0  0  0  0  0  0  0  0  0  0  0
    8.7562  -18.5801   25.4929 C   0  0  0  0  0  0  0  0  0  0  0  0
    9.2029  -17.1652   25.7308 C   0  0  2  0  0  0  0  0  0  0  0  0
    8.5059  -16.1923   24.9607 N   0  0  0  0  0  0  0  0  0  0  0  0
   10.6515  -17.0455   25.4507 C   0  0  0  0  0  0  0  0  0  0  0  0
   11.5654  -17.1763   26.4817 O   0  0  0  0  0  0  0  0  0  0  0  0
   11.1188  -16.8256   24.2987 O   0  0  0  0  0  0  0  0  0  0  0  0
  2  8  1  0
  2  1  1  6
  3  2  1  0
  4  5  1  0
  4  3  1  0
  5  6  1  0
  7  6  1  0
  8  9  2  0
 11 13  1  0
 11 10  1  6
 12 11  1  0
 14 13  1  1
 15 14  1  0
 15  8  1  0
 16 14  1  0
 16 17  2  0
 19 18  1  0
 20 19  2  0
 21 19  1  0
 22 21  1  0
 23 22  1  0
 23 24  1  0
 25 24  1  6
 25 26  1  0
 25 27  1  0
 26 16  1  0
 27 28  1  0
 29 27  2  0
M  END
$$$$
