KLR.pdb
     RDKit          3D

 29 28  0  0  1  0  0  0  0  0999 V2000
    7.6815  -17.6131   21.6307 N   0  0  0  0  0  0  0  0  0  0  0  0
    8.7238  -16.7228   21.2103 C   0  0  1  0  0  0  0  0  0  0  0  0
    8.4431  -16.1660   19.8074 C   0  0  0  0  0  0  0  0  0  0  0  0
    7.2855  -16.9004   19.2043 C   0  0  0  0  0  0  0  0  0  0  0  0
    7.5274  -17.4959   17.8660 C   0  0  0  0  0  0  0  0  0  0  0  0
    6.3316  -18.0295   17.1504 C   0  0  0  0  0  0  0  0  0  0  0  0
    6.5883  -18.6271   15.8783 N   0  0  0  0  0  0  0  0  0  0  0  0
    8.8993  -15.6003   22.1419 C   0  0  0  0  0  0  0  0  0  0  0  0
    9.8259  -14.7672   21.9733 O   0  0  0  0  0  0  0  0  0  0  0  0
    6.0039  -12.7828   26.8318 C   0  0  0  0  0  0  0  0  0  0  0  0
    7.3637  -12.9402   26.1255 C   0  0  2  0  0  0  0  0  0  0  0  0
    7.7914  -11.5705   25.6978 C   0  0  0  0  0  0  0  0  0  0  0  0
    7.1246  -13.9083   25.0109 C   0  0  0  0  0  0  0  0  0  0  0  0
    8.3223  -14.3923   24.2847 C   0  0  2  0  0  0  0  0  0  0  0  0
    8.0450  -15.3902   23.2748 N   0  0  0  0  0  0  0  0  0  0  0  0
    9.3541  -14.8844   25.2473 C   0  0  0  0  0  0  0  0  0  0  0  0
    9.6534  -14.2153   26.2580 O   0  0  0  0  0  0  0  0  0  0  0  0
    9.3951  -20.2163   30.8599 N   0  0  0  0  0  0  0  0  0  0  0  0
   10.7655  -19.7961   30.7515 C   0  0  0  0  0  0  0  0  0  0  0  0
   11.6094  -20.1839   31.6362 N   0  0  0  0  0  0  0  0  0  0  0  0
   11.2035  -18.9682   29.6991 N   0  0  0  0  0  0  0  0  0  0  0  0
   11.5262  -19.4281   28.3890 C   0  0  0  0  0  0  0  0  0  0  0  0
   11.8548  -18.3459   27.4083 C   0  0  0  0  0  0  0  0  0  0  0  0
   10.6031  -17.8012   26.7253 C   0  0  0  0  0  0  0  0  0  0  0  0
   11.0387  -16.6460   25.8687 C   0  0  2  0  0  0  0  0  0  0  0  0
   10.0122  -16.1079   25.0427 N   0  0  0  0  0  0  0  0  0  0  0  0
   12.1718  -17.0602   25.0110 C   0  0  0  0  0  0  0  0  0  0  0  0
   11.9774  -17.2397   23.6526 O   0  0  0  0  0  0  0  0  0  0  0  0
   13.3364  -17.2656   25.4526 O   0  0  0  0  0  0  0  0  0  0  0  0
  2  8  1  0
  2  1  1  1
  3  2  1  0
  4  5  1  0
  4  3  1  0
  5  6  1  0
  7  6  1  0
  8  9  2  0
 11 13  1  0
 11 10  1  6
 12 11  1  0
 14 13  1  1
 15 14  1  0
 15  8  1  0
 16 14  1  0
 16 17  2  0
 19 18  1  0
 20 19  2  0
 21 19  1  0
 22 21  1  0
 23 22  1  0
 23 24  1  0
 25 24  1  6
 25 26  1  0
 25 27  1  0
 26 16  1  0
 27 28  1  0
 29 27  2  0
M  END
$$$$
