KLR.pdb
     RDKit          3D

 29 28  0  0  1  0  0  0  0  0999 V2000
    6.8921  -15.6962   20.9755 N   0  0  0  0  0  0  0  0  0  0  0  0
    8.1308  -14.9818   21.0807 C   0  0  1  0  0  0  0  0  0  0  0  0
    8.0463  -13.6213   20.3743 C   0  0  0  0  0  0  0  0  0  0  0  0
    7.8213  -13.8358   18.9093 C   0  0  0  0  0  0  0  0  0  0  0  0
    8.5109  -12.8811   18.0053 C   0  0  0  0  0  0  0  0  0  0  0  0
    8.3125  -13.0910   16.5412 C   0  0  0  0  0  0  0  0  0  0  0  0
    8.9004  -12.1053   15.6904 N   0  0  0  0  0  0  0  0  0  0  0  0
    8.5274  -14.7685   22.4793 C   0  0  0  0  0  0  0  0  0  0  0  0
    9.6997  -14.4155   22.7657 O   0  0  0  0  0  0  0  0  0  0  0  0
    7.6826  -12.0425   25.9791 C   0  0  0  0  0  0  0  0  0  0  0  0
    6.4850  -12.9595   25.6668 C   0  0  2  0  0  0  0  0  0  0  0  0
    5.3684  -12.5376   26.5707 C   0  0  0  0  0  0  0  0  0  0  0  0
    6.9834  -14.3533   25.8802 C   0  0  0  0  0  0  0  0  0  0  0  0
    8.0422  -14.8273   24.9582 C   0  0  2  0  0  0  0  0  0  0  0  0
    7.6233  -14.9456   23.5787 N   0  0  0  0  0  0  0  0  0  0  0  0
    8.6244  -16.1137   25.4478 C   0  0  0  0  0  0  0  0  0  0  0  0
    7.9017  -16.9742   25.9917 O   0  0  0  0  0  0  0  0  0  0  0  0
   13.4624  -21.9551   27.2220 N   0  0  0  0  0  0  0  0  0  0  0  0
   13.2150  -22.2366   25.8342 C   0  0  0  0  0  0  0  0  0  0  0  0
   13.8472  -23.1995   25.2699 N   0  0  0  0  0  0  0  0  0  0  0  0
   12.2969  -21.4804   25.0791 N   0  0  0  0  0  0  0  0  0  0  0  0
   12.5380  -20.1597   24.5998 C   0  0  0  0  0  0  0  0  0  0  0  0
   12.5524  -19.1018   25.6589 C   0  0  0  0  0  0  0  0  0  0  0  0
   12.0222  -17.7694   25.1358 C   0  0  0  0  0  0  0  0  0  0  0  0
   10.6426  -17.5929   25.7046 C   0  0  2  0  0  0  0  0  0  0  0  0
    9.9945  -16.3890   25.3097 N   0  0  0  0  0  0  0  0  0  0  0  0
   10.7028  -17.6383   27.1830 C   0  0  0  0  0  0  0  0  0  0  0  0
   10.7056  -18.8590   27.8349 O   0  0  0  0  0  0  0  0  0  0  0  0
   10.7533  -16.6050   27.9065 O   0  0  0  0  0  0  0  0  0  0  0  0
  2  8  1  0
  2  1  1  1
  3  2  1  0
  4  5  1  0
  4  3  1  0
  5  6  1  0
  7  6  1  0
  8  9  2  0
 11 13  1  0
 11 10  1  1
 12 11  1  0
 14 13  1  1
 15 14  1  0
 15  8  1  0
 16 14  1  0
 16 17  2  0
 19 18  1  0
 20 19  2  0
 21 19  1  0
 22 21  1  0
 23 22  1  0
 23 24  1  0
 25 24  1  6
 25 26  1  0
 25 27  1  0
 26 16  1  0
 27 28  1  0
 29 27  2  0
M  END
$$$$
