SNQ.pdb
     RDKit          3D

 24 23  0  0  1  0  0  0  0  0999 V2000
   28.7395  -18.5188  -17.0979 O   0  0  0  0  0  0  0  0  0  0  0  0
   27.6896  -19.3243  -16.6177 C   0  0  0  0  0  0  0  0  0  0  0  0
   28.3162  -20.3697  -15.7405 C   0  0  2  0  0  0  0  0  0  0  0  0
   28.7938  -21.4443  -16.5993 N   0  0  0  0  0  0  0  0  0  0  0  0
   27.4197  -20.9425  -14.7316 C   0  0  0  0  0  0  0  0  0  0  0  0
   26.8431  -22.0544  -14.8435 O   0  0  0  0  0  0  0  0  0  0  0  0
   25.3598  -21.8055   -9.9971 N   0  0  0  0  0  0  0  0  0  0  0  0
   25.9182  -20.5091  -10.0800 C   0  0  0  0  0  0  0  0  0  0  0  0
   26.1038  -19.9077   -8.9856 O   0  0  0  0  0  0  0  0  0  0  0  0
   26.2939  -19.8172  -11.3112 C   0  0  0  0  0  0  0  0  0  0  0  0
   26.1460  -20.6230  -12.5702 C   0  0  2  0  0  0  0  0  0  0  0  0
   27.1444  -20.2262  -13.5083 N   0  0  0  0  0  0  0  0  0  0  0  0
   24.7775  -20.6014  -13.1261 C   0  0  0  0  0  0  0  0  0  0  0  0
   24.4424  -19.6168  -13.8322 O   0  0  0  0  0  0  0  0  0  0  0  0
   21.8341  -25.2782  -15.4008 N   0  0  0  0  0  0  0  0  0  0  0  0
   20.7254  -24.3676  -15.4879 C   0  0  0  0  0  0  0  0  0  0  0  0
   19.6557  -24.6654  -16.0643 O   0  0  0  0  0  0  0  0  0  0  0  0
   20.9024  -23.0358  -14.8557 C   0  0  0  0  0  0  0  0  0  0  0  0
   22.2611  -22.9664  -14.1961 C   0  0  0  0  0  0  0  0  0  0  0  0
   22.5181  -21.6130  -13.5839 C   0  0  2  0  0  0  0  0  0  0  0  0
   23.8120  -21.6170  -12.9182 N   0  0  0  0  0  0  0  0  0  0  0  0
   21.4088  -21.3932  -12.5940 C   0  0  0  0  0  0  0  0  0  0  0  0
   21.5218  -21.6585  -11.3926 O   0  0  0  0  0  0  0  0  0  0  0  0
   20.2246  -20.8690  -13.0893 O   0  0  0  0  0  0  0  0  0  0  0  0
  2  1  1  0
  2  3  1  0
  3  4  1  6
  5  3  1  0
  6  5  2  0
  7  8  1  0
  8  9  2  0
  8 10  1  0
 11 10  1  1
 11 12  1  0
 11 13  1  0
 12  5  1  0
 13 21  1  0
 13 14  2  0
 15 16  1  0
 16 18  1  0
 17 16  2  0
 19 18  1  0
 20 19  1  1
 21 20  1  0
 22 20  1  0
 22 24  1  0
 23 22  2  0
M  END
$$$$
