SNQ.pdb
     RDKit          3D

 24 23  0  0  1  0  0  0  0  0999 V2000
   14.8395  -11.6335  -15.6881 O   0  0  0  0  0  0  0  0  0  0  0  0
   15.9984  -11.9469  -16.4233 C   0  0  0  0  0  0  0  0  0  0  0  0
   17.0006  -12.4792  -15.4399 C   0  0  2  0  0  0  0  0  0  0  0  0
   16.4342  -13.6733  -14.8285 N   0  0  0  0  0  0  0  0  0  0  0  0
   17.3737  -11.5425  -14.3754 C   0  0  0  0  0  0  0  0  0  0  0  0
   16.9498  -11.6060  -13.1932 O   0  0  0  0  0  0  0  0  0  0  0  0
   20.1532   -7.7489  -11.8063 N   0  0  0  0  0  0  0  0  0  0  0  0
   20.6548   -8.0388  -13.0961 C   0  0  0  0  0  0  0  0  0  0  0  0
   21.7463   -7.4877  -13.4099 O   0  0  0  0  0  0  0  0  0  0  0  0
   20.0230   -8.9126  -14.0826 C   0  0  0  0  0  0  0  0  0  0  0  0
   18.7216   -9.5281  -13.6539 C   0  0  2  0  0  0  0  0  0  0  0  0
   18.2853  -10.4556  -14.6455 N   0  0  0  0  0  0  0  0  0  0  0  0
   17.6923   -8.5339  -13.2875 C   0  0  0  0  0  0  0  0  0  0  0  0
   17.0093   -8.0231  -14.2112 O   0  0  0  0  0  0  0  0  0  0  0  0
   15.6416   -7.2294   -7.5414 N   0  0  0  0  0  0  0  0  0  0  0  0
   14.6586   -6.4990   -8.2939 C   0  0  0  0  0  0  0  0  0  0  0  0
   13.6964   -5.9128   -7.7504 O   0  0  0  0  0  0  0  0  0  0  0  0
   14.8330   -6.4668   -9.7682 C   0  0  0  0  0  0  0  0  0  0  0  0
   16.0625   -7.2603  -10.1488 C   0  0  0  0  0  0  0  0  0  0  0  0
   16.3104   -7.2304  -11.6354 C   0  0  2  0  0  0  0  0  0  0  0  0
   17.4195   -8.1137  -11.9624 N   0  0  0  0  0  0  0  0  0  0  0  0
   16.6481   -5.8039  -11.9665 C   0  0  0  0  0  0  0  0  0  0  0  0
   17.8101   -5.3894  -12.0329 O   0  0  0  0  0  0  0  0  0  0  0  0
   15.5826   -4.9480  -12.2006 O   0  0  0  0  0  0  0  0  0  0  0  0
  2  1  1  0
  2  3  1  0
  3  4  1  1
  5  3  1  0
  6  5  2  0
  7  8  1  0
  8  9  2  0
  8 10  1  0
 11 10  1  6
 11 12  1  0
 11 13  1  0
 12  5  1  0
 13 21  1  0
 13 14  2  0
 15 16  1  0
 16 18  1  0
 17 16  2  0
 19 18  1  0
 20 19  1  1
 21 20  1  0
 22 20  1  0
 22 24  1  0
 23 22  2  0
M  END
$$$$
