SNQ.pdb
     RDKit          3D

 24 23  0  0  1  0  0  0  0  0999 V2000
   28.9119  -18.5965  -17.1380 O   0  0  0  0  0  0  0  0  0  0  0  0
   27.7573  -19.3110  -16.7659 C   0  0  0  0  0  0  0  0  0  0  0  0
   28.2262  -20.5309  -16.0265 C   0  0  2  0  0  0  0  0  0  0  0  0
   28.4742  -21.5785  -17.0070 N   0  0  0  0  0  0  0  0  0  0  0  0
   27.2843  -21.0423  -15.0259 C   0  0  0  0  0  0  0  0  0  0  0  0
   26.4162  -21.9233  -15.2531 O   0  0  0  0  0  0  0  0  0  0  0  0
   24.5361  -21.2341  -10.3997 N   0  0  0  0  0  0  0  0  0  0  0  0
   25.8005  -20.6145  -10.2707 C   0  0  0  0  0  0  0  0  0  0  0  0
   26.1456  -20.2828   -9.1026 O   0  0  0  0  0  0  0  0  0  0  0  0
   26.7288  -20.3307  -11.3631 C   0  0  0  0  0  0  0  0  0  0  0  0
   26.2722  -20.7734  -12.7240 C   0  0  2  0  0  0  0  0  0  0  0  0
   27.3099  -20.5368  -13.6735 N   0  0  0  0  0  0  0  0  0  0  0  0
   24.9702  -20.2011  -13.1234 C   0  0  0  0  0  0  0  0  0  0  0  0
   24.9605  -19.0477  -13.6234 O   0  0  0  0  0  0  0  0  0  0  0  0
   22.9873  -18.1506  -16.5473 N   0  0  0  0  0  0  0  0  0  0  0  0
   21.5929  -18.4421  -16.3559 C   0  0  0  0  0  0  0  0  0  0  0  0
   20.6856  -17.7133  -16.8148 O   0  0  0  0  0  0  0  0  0  0  0  0
   21.2655  -19.6639  -15.5783 C   0  0  0  0  0  0  0  0  0  0  0  0
   22.5333  -20.2466  -14.9957 C   0  0  0  0  0  0  0  0  0  0  0  0
   22.4818  -20.3068  -13.4903 C   0  0  2  0  0  0  0  0  0  0  0  0
   23.7262  -20.8639  -12.9820 N   0  0  0  0  0  0  0  0  0  0  0  0
   21.3205  -21.1998  -13.1549 C   0  0  0  0  0  0  0  0  0  0  0  0
   20.1458  -20.8738  -13.3559 O   0  0  0  0  0  0  0  0  0  0  0  0
   21.6216  -22.4333  -12.5979 O   0  0  0  0  0  0  0  0  0  0  0  0
  2  1  1  0
  2  3  1  0
  3  4  1  6
  5  3  1  0
  6  5  2  0
  7  8  1  0
  8  9  2  0
  8 10  1  0
 11 10  1  1
 11 12  1  0
 11 13  1  0
 12  5  1  0
 13 21  1  0
 13 14  2  0
 15 16  1  0
 16 18  1  0
 17 16  2  0
 19 18  1  0
 20 19  1  6
 21 20  1  0
 22 20  1  0
 22 24  1  0
 23 22  2  0
M  END
$$$$
