SNQ.pdb
     RDKit          3D

 24 23  0  0  1  0  0  0  0  0999 V2000
   12.0205  -14.9930  -11.6665 O   0  0  0  0  0  0  0  0  0  0  0  0
   13.2310  -14.3359  -11.9575 C   0  0  0  0  0  0  0  0  0  0  0  0
   12.9404  -12.8631  -11.9213 C   0  0  2  0  0  0  0  0  0  0  0  0
   12.1308  -12.5398  -13.0878 N   0  0  0  0  0  0  0  0  0  0  0  0
   14.1275  -12.0027  -11.9247 C   0  0  0  0  0  0  0  0  0  0  0  0
   15.0053  -12.0005  -11.0242 O   0  0  0  0  0  0  0  0  0  0  0  0
   15.9726  -12.3301  -16.0706 N   0  0  0  0  0  0  0  0  0  0  0  0
   16.4642  -11.6567  -14.9287 C   0  0  0  0  0  0  0  0  0  0  0  0
   17.3169  -12.2779  -14.2354 O   0  0  0  0  0  0  0  0  0  0  0  0
   16.0725  -10.3186  -14.4906 C   0  0  0  0  0  0  0  0  0  0  0  0
   15.5058  -10.2389  -13.1017 C   0  0  2  0  0  0  0  0  0  0  0  0
   14.3553  -11.0769  -13.0093 N   0  0  0  0  0  0  0  0  0  0  0  0
   15.2622   -8.8559  -12.6434 C   0  0  0  0  0  0  0  0  0  0  0  0
   14.1716   -8.3138  -12.9553 O   0  0  0  0  0  0  0  0  0  0  0  0
   15.6147   -6.8827   -7.2240 N   0  0  0  0  0  0  0  0  0  0  0  0
   15.4162   -5.5741   -7.7843 C   0  0  0  0  0  0  0  0  0  0  0  0
   15.2206   -4.5626   -7.0747 O   0  0  0  0  0  0  0  0  0  0  0  0
   15.4531   -5.4677   -9.2649 C   0  0  0  0  0  0  0  0  0  0  0  0
   15.6895   -6.8358   -9.8638 C   0  0  0  0  0  0  0  0  0  0  0  0
   15.8521   -6.7712  -11.3610 C   0  0  2  0  0  0  0  0  0  0  0  0
   16.1754   -8.0941  -11.8736 N   0  0  0  0  0  0  0  0  0  0  0  0
   16.9812   -5.8112  -11.6102 C   0  0  0  0  0  0  0  0  0  0  0  0
   16.8751   -4.5930  -11.4329 O   0  0  0  0  0  0  0  0  0  0  0  0
   18.1759   -6.3545  -12.0572 O   0  0  0  0  0  0  0  0  0  0  0  0
  2  1  1  0
  2  3  1  0
  3  4  1  6
  5  3  1  0
  6  5  2  0
  7  8  1  0
  8  9  2  0
  8 10  1  0
 11 10  1  6
 11 12  1  0
 11 13  1  0
 12  5  1  0
 13 21  1  0
 13 14  2  0
 15 16  1  0
 16 18  1  0
 17 16  2  0
 19 18  1  0
 20 19  1  1
 21 20  1  0
 22 20  1  0
 22 24  1  0
 23 22  2  0
M  END
$$$$
