SNQ.pdb
     RDKit          3D

 24 23  0  0  1  0  0  0  0  0999 V2000
   16.0427  -11.3182  -18.0416 O   0  0  0  0  0  0  0  0  0  0  0  0
   16.3938  -10.2890  -17.1476 C   0  0  0  0  0  0  0  0  0  0  0  0
   17.6598  -10.7238  -16.4670 C   0  0  2  0  0  0  0  0  0  0  0  0
   17.3559  -11.9069  -15.6743 N   0  0  0  0  0  0  0  0  0  0  0  0
   18.2621   -9.7160  -15.5887 C   0  0  0  0  0  0  0  0  0  0  0  0
   18.1023   -9.6742  -14.3421 O   0  0  0  0  0  0  0  0  0  0  0  0
   21.3551   -5.9528  -13.6043 N   0  0  0  0  0  0  0  0  0  0  0  0
   21.3719   -7.3622  -13.4921 C   0  0  0  0  0  0  0  0  0  0  0  0
   22.0866   -7.8425  -12.5690 O   0  0  0  0  0  0  0  0  0  0  0  0
   20.6398   -8.2965  -14.3447 C   0  0  0  0  0  0  0  0  0  0  0  0
   19.7182   -7.6625  -15.3472 C   0  0  2  0  0  0  0  0  0  0  0  0
   19.1040   -8.6788  -16.1371 N   0  0  0  0  0  0  0  0  0  0  0  0
   20.3615   -6.6034  -16.1513 C   0  0  0  0  0  0  0  0  0  0  0  0
   21.2735   -6.9391  -16.9488 O   0  0  0  0  0  0  0  0  0  0  0  0
   17.6749   -1.8656  -15.8106 N   0  0  0  0  0  0  0  0  0  0  0  0
   17.3206   -2.5730  -17.0106 C   0  0  0  0  0  0  0  0  0  0  0  0
   16.1523   -2.5942  -17.4573 O   0  0  0  0  0  0  0  0  0  0  0  0
   18.4151   -3.2907  -17.7119 C   0  0  0  0  0  0  0  0  0  0  0  0
   19.7282   -3.0137  -17.0153 C   0  0  0  0  0  0  0  0  0  0  0  0
   20.6086   -4.2366  -16.9731 C   0  0  2  0  0  0  0  0  0  0  0  0
   20.0213   -5.2297  -16.0866 N   0  0  0  0  0  0  0  0  0  0  0  0
   21.9360   -3.7685  -16.4462 C   0  0  0  0  0  0  0  0  0  0  0  0
   22.3279   -4.0200  -15.3018 O   0  0  0  0  0  0  0  0  0  0  0  0
   22.7249   -3.0260  -17.3115 O   0  0  0  0  0  0  0  0  0  0  0  0
  2  1  1  0
  2  3  1  0
  3  4  1  1
  5  3  1  0
  6  5  2  0
  7  8  1  0
  8  9  2  0
  8 10  1  0
 11 10  1  1
 11 12  1  0
 11 13  1  0
 12  5  1  0
 13 21  1  0
 13 14  2  0
 15 16  1  0
 16 18  1  0
 17 16  2  0
 19 18  1  0
 20 19  1  1
 21 20  1  0
 22 20  1  0
 22 24  1  0
 23 22  2  0
M  END
$$$$
