SNQ.pdb
     RDKit          3D

 24 23  0  0  1  0  0  0  0  0999 V2000
   13.1192  -11.7049  -12.1396 O   0  0  0  0  0  0  0  0  0  0  0  0
   13.5550  -12.1317  -10.8709 C   0  0  0  0  0  0  0  0  0  0  0  0
   13.0341  -11.1322   -9.8786 C   0  0  2  0  0  0  0  0  0  0  0  0
   11.5793  -11.1680   -9.9318 N   0  0  0  0  0  0  0  0  0  0  0  0
   13.4753   -9.7528  -10.1072 C   0  0  0  0  0  0  0  0  0  0  0  0
   12.7240   -8.8223  -10.4958 O   0  0  0  0  0  0  0  0  0  0  0  0
   16.8632   -5.5589  -10.3601 N   0  0  0  0  0  0  0  0  0  0  0  0
   16.7516   -6.2670   -9.1414 C   0  0  0  0  0  0  0  0  0  0  0  0
   17.3063   -5.7428   -8.1358 O   0  0  0  0  0  0  0  0  0  0  0  0
   16.0559   -7.5381   -8.9518 C   0  0  0  0  0  0  0  0  0  0  0  0
   15.3752   -8.0850  -10.1741 C   0  0  2  0  0  0  0  0  0  0  0  0
   14.8532   -9.3810   -9.8874 N   0  0  0  0  0  0  0  0  0  0  0  0
   16.2202   -8.0478  -11.3852 C   0  0  0  0  0  0  0  0  0  0  0  0
   17.4498   -8.2746  -11.2546 O   0  0  0  0  0  0  0  0  0  0  0  0
   15.0863   -3.1043  -13.7902 N   0  0  0  0  0  0  0  0  0  0  0  0
   16.1422   -3.3739  -14.7274 C   0  0  0  0  0  0  0  0  0  0  0  0
   16.5896   -2.5011  -15.5040 O   0  0  0  0  0  0  0  0  0  0  0  0
   16.6912   -4.7535  -14.7380 C   0  0  0  0  0  0  0  0  0  0  0  0
   16.0138   -5.5748  -13.6644 C   0  0  0  0  0  0  0  0  0  0  0  0
   16.5040   -7.0003  -13.6568 C   0  0  2  0  0  0  0  0  0  0  0  0
   15.7400   -7.7733  -12.6894 N   0  0  0  0  0  0  0  0  0  0  0  0
   17.9528   -6.9339  -13.2629 C   0  0  0  0  0  0  0  0  0  0  0  0
   18.3366   -6.4151  -12.2092 O   0  0  0  0  0  0  0  0  0  0  0  0
   18.8662   -7.4893  -14.1458 O   0  0  0  0  0  0  0  0  0  0  0  0
  2  1  1  0
  2  3  1  0
  3  4  1  6
  5  3  1  0
  6  5  2  0
  7  8  1  0
  8  9  2  0
  8 10  1  0
 11 10  1  1
 11 12  1  0
 11 13  1  0
 12  5  1  0
 13 21  1  0
 13 14  2  0
 15 16  1  0
 16 18  1  0
 17 16  2  0
 19 18  1  0
 20 19  1  1
 21 20  1  0
 22 20  1  0
 22 24  1  0
 23 22  2  0
M  END
$$$$
