SNQ.pdb
     RDKit          3D

 24 23  0  0  1  0  0  0  0  0999 V2000
   17.1651  -14.1407  -15.8731 O   0  0  0  0  0  0  0  0  0  0  0  0
   16.8862  -12.7935  -16.1719 C   0  0  0  0  0  0  0  0  0  0  0  0
   18.1998  -12.0665  -16.1463 C   0  0  2  0  0  0  0  0  0  0  0  0
   18.7798  -12.2405  -14.8220 N   0  0  0  0  0  0  0  0  0  0  0  0
   18.1129  -10.6312  -16.4325 C   0  0  0  0  0  0  0  0  0  0  0  0
   18.0030  -10.1426  -17.5860 O   0  0  0  0  0  0  0  0  0  0  0  0
   14.4286   -8.6868  -14.9052 N   0  0  0  0  0  0  0  0  0  0  0  0
   15.5532   -8.1103  -15.5393 C   0  0  0  0  0  0  0  0  0  0  0  0
   15.4492   -7.8966  -16.7791 O   0  0  0  0  0  0  0  0  0  0  0  0
   16.8091   -7.7458  -14.8869 C   0  0  0  0  0  0  0  0  0  0  0  0
   18.0519   -8.2597  -15.5560 C   0  0  2  0  0  0  0  0  0  0  0  0
   18.1508   -9.6685  -15.3567 N   0  0  0  0  0  0  0  0  0  0  0  0
   19.2747   -7.5258  -15.1708 C   0  0  0  0  0  0  0  0  0  0  0  0
   19.8840   -7.8956  -14.1352 O   0  0  0  0  0  0  0  0  0  0  0  0
   23.8996   -6.1135  -18.4699 N   0  0  0  0  0  0  0  0  0  0  0  0
   24.3353   -5.3544  -17.3298 C   0  0  0  0  0  0  0  0  0  0  0  0
   25.4802   -4.8561  -17.2527 O   0  0  0  0  0  0  0  0  0  0  0  0
   23.3558   -5.1816  -16.2272 C   0  0  0  0  0  0  0  0  0  0  0  0
   22.0699   -5.8956  -16.5775 C   0  0  0  0  0  0  0  0  0  0  0  0
   21.0373   -5.7564  -15.4881 C   0  0  2  0  0  0  0  0  0  0  0  0
   19.8113   -6.4294  -15.8898 N   0  0  0  0  0  0  0  0  0  0  0  0
   20.8078   -4.2800  -15.3265 C   0  0  0  0  0  0  0  0  0  0  0  0
   20.0564   -3.6348  -16.0652 O   0  0  0  0  0  0  0  0  0  0  0  0
   21.4861   -3.6519  -14.2931 O   0  0  0  0  0  0  0  0  0  0  0  0
  2  1  1  0
  2  3  1  0
  3  4  1  1
  5  3  1  0
  6  5  2  0
  7  8  1  0
  8  9  2  0
  8 10  1  0
 11 10  1  1
 11 12  1  0
 11 13  1  0
 12  5  1  0
 13 21  1  0
 13 14  2  0
 15 16  1  0
 16 18  1  0
 17 16  2  0
 19 18  1  0
 20 19  1  6
 21 20  1  0
 22 20  1  0
 22 24  1  0
 23 22  2  0
M  END
$$$$
