YGW.pdb
     RDKit          3D

 31 33  0  0  1  0  0  0  0  0999 V2000
   28.5912  -18.5886  -25.5612 O   0  0  0  0  0  0  0  0  0  0  0  0
   27.2816  -18.5244  -25.1191 C   0  0  0  0  0  0  0  0  0  0  0  0
   26.9455  -18.7540  -23.8064 C   0  0  0  0  0  0  0  0  0  0  0  0
   25.6502  -18.6903  -23.3701 C   0  0  0  0  0  0  0  0  0  0  0  0
   24.6750  -18.3860  -24.2913 C   0  0  0  0  0  0  0  0  0  0  0  0
   23.2532  -18.3059  -23.8696 C   0  0  0  0  0  0  0  0  0  0  0  0
   22.5959  -19.6703  -23.8835 C   0  0  2  0  0  0  0  0  0  0  0  0
   22.6388  -20.2888  -25.1728 N   0  0  0  0  0  0  0  0  0  0  0  0
   21.2188  -19.6314  -23.3556 C   0  0  0  0  0  0  0  0  0  0  0  0
   20.2520  -19.9098  -24.1323 O   0  0  0  0  0  0  0  0  0  0  0  0
   25.0071  -18.1515  -25.6254 C   0  0  0  0  0  0  0  0  0  0  0  0
   26.3104  -18.2161  -26.0618 C   0  0  0  0  0  0  0  0  0  0  0  0
   20.8859  -19.3014  -22.0249 N   0  0  0  0  0  0  0  0  0  0  0  0
   19.5037  -19.2076  -21.5690 C   0  0  0  0  0  0  0  0  0  0  0  0
   19.4546  -18.9538  -20.0997 C   0  0  0  0  0  0  0  0  0  0  0  0
   20.5197  -19.0221  -19.4500 O   0  0  0  0  0  0  0  0  0  0  0  0
   18.2564  -18.6413  -19.4217 N   0  0  0  0  0  0  0  0  0  0  0  0
   18.1562  -18.2526  -18.0263 C   0  0  1  0  0  0  0  0  0  0  0  0
   17.5680  -16.8935  -17.9577 C   0  0  0  0  0  0  0  0  0  0  0  0
   16.1514  -16.7482  -18.2574 C   0  0  0  0  0  0  0  0  0  0  0  0
   15.0515  -16.8727  -17.3995 C   0  0  0  0  0  0  0  0  0  0  0  0
   13.9332  -16.6900  -18.0797 N   0  0  0  0  0  0  0  0  0  0  0  0
   14.1978  -16.4400  -19.3873 C   0  0  0  0  0  0  0  0  0  0  0  0
   13.3423  -16.1819  -20.4368 C   0  0  0  0  0  0  0  0  0  0  0  0
   13.8891  -15.9422  -21.6780 C   0  0  0  0  0  0  0  0  0  0  0  0
   15.2770  -15.9668  -21.8376 C   0  0  0  0  0  0  0  0  0  0  0  0
   16.0875  -16.2275  -20.7697 C   0  0  0  0  0  0  0  0  0  0  0  0
   15.5740  -16.4751  -19.5009 C   0  0  0  0  0  0  0  0  0  0  0  0
   17.6700  -19.2695  -17.1156 C   0  0  0  0  0  0  0  0  0  0  0  0
   16.8295  -20.1316  -17.4514 O   0  0  0  0  0  0  0  0  0  0  0  0
   18.1227  -19.3416  -15.8089 O   0  0  0  0  0  0  0  0  0  0  0  0
  2  1  1  0
  3  2  2  0
  4  3  1  0
  5  4  2  0
  5 11  1  0
  6  5  1  0
  7  9  1  0
  7  8  1  6
  7  6  1  0
  9 13  1  0
 10  9  2  0
 11 12  2  0
 12  2  1  0
 13 14  1  0
 15 14  1  0
 16 15  2  0
 17 15  1  0
 18 19  1  6
 18 17  1  0
 19 20  1  0
 20 21  2  0
 21 22  1  0
 23 22  1  0
 24 23  2  0
 25 24  1  0
 26 27  1  0
 26 25  2  0
 27 28  2  0
 28 20  1  0
 28 23  1  0
 29 18  1  0
 29 31  1  0
 30 29  2  0
M  END
$$$$
