YGW.pdb
     RDKit          3D

 31 33  0  0  1  0  0  0  0  0999 V2000
   26.0638  -12.9839  -17.2787 O   0  0  0  0  0  0  0  0  0  0  0  0
   26.1197  -14.3255  -16.9445 C   0  0  0  0  0  0  0  0  0  0  0  0
   26.8450  -14.7767  -15.8679 C   0  0  0  0  0  0  0  0  0  0  0  0
   26.8997  -16.1035  -15.5382 C   0  0  0  0  0  0  0  0  0  0  0  0
   26.2000  -16.9910  -16.3224 C   0  0  0  0  0  0  0  0  0  0  0  0
   26.2275  -18.4424  -16.0083 C   0  0  0  0  0  0  0  0  0  0  0  0
   27.5862  -19.0444  -16.3004 C   0  0  2  0  0  0  0  0  0  0  0  0
   28.0189  -18.8016  -17.6422 N   0  0  0  0  0  0  0  0  0  0  0  0
   27.6411  -20.4820  -15.9736 C   0  0  0  0  0  0  0  0  0  0  0  0
   28.4348  -21.2327  -16.6232 O   0  0  0  0  0  0  0  0  0  0  0  0
   25.4613  -16.5418  -17.4168 C   0  0  0  0  0  0  0  0  0  0  0  0
   25.4078  -15.2070  -17.7464 C   0  0  0  0  0  0  0  0  0  0  0  0
   26.8625  -21.1007  -14.9729 N   0  0  0  0  0  0  0  0  0  0  0  0
   27.0761  -22.4847  -14.5655 C   0  0  0  0  0  0  0  0  0  0  0  0
   26.0347  -22.9069  -13.5843 C   0  0  0  0  0  0  0  0  0  0  0  0
   26.0418  -24.0906  -13.1842 O   0  0  0  0  0  0  0  0  0  0  0  0
   25.0483  -22.0234  -13.0949 N   0  0  0  0  0  0  0  0  0  0  0  0
   24.8777  -21.6396  -11.7050 C   0  0  1  0  0  0  0  0  0  0  0  0
   26.2170  -21.4046  -11.1141 C   0  0  0  0  0  0  0  0  0  0  0  0
   26.2811  -20.8658   -9.7639 C   0  0  0  0  0  0  0  0  0  0  0  0
   25.2335  -20.4878   -8.9148 C   0  0  0  0  0  0  0  0  0  0  0  0
   25.7258  -20.0209   -7.7806 N   0  0  0  0  0  0  0  0  0  0  0  0
   27.0827  -20.0539   -7.7925 C   0  0  0  0  0  0  0  0  0  0  0  0
   27.9923  -19.6799   -6.8267 C   0  0  0  0  0  0  0  0  0  0  0  0
   29.3330  -19.8381   -7.0997 C   0  0  0  0  0  0  0  0  0  0  0  0
   29.7294  -20.3660   -8.3312 C   0  0  0  0  0  0  0  0  0  0  0  0
   28.7935  -20.7229   -9.2596 C   0  0  0  0  0  0  0  0  0  0  0  0
   27.4307  -20.5782   -9.0222 C   0  0  0  0  0  0  0  0  0  0  0  0
   23.8190  -20.6884  -11.4327 C   0  0  0  0  0  0  0  0  0  0  0  0
   23.7605  -19.5667  -11.9810 O   0  0  0  0  0  0  0  0  0  0  0  0
   22.8002  -20.9808  -10.5413 O   0  0  0  0  0  0  0  0  0  0  0  0
  2  1  1  0
  3  2  2  0
  4  3  1  0
  5  4  2  0
  5 11  1  0
  6  5  1  0
  7  9  1  0
  7  8  1  6
  7  6  1  0
  9 13  1  0
 10  9  2  0
 11 12  2  0
 12  2  1  0
 13 14  1  0
 15 14  1  0
 16 15  2  0
 17 15  1  0
 18 19  1  6
 18 17  1  0
 19 20  1  0
 20 21  2  0
 21 22  1  0
 23 22  1  0
 24 23  2  0
 25 24  1  0
 26 27  1  0
 26 25  2  0
 27 28  2  0
 28 20  1  0
 28 23  1  0
 29 18  1  0
 29 31  1  0
 30 29  2  0
M  END
$$$$
