YGW.pdb
     RDKit          3D

 31 33  0  0  1  0  0  0  0  0999 V2000
   19.7531  -16.5879  -17.1592 O   0  0  0  0  0  0  0  0  0  0  0  0
   21.0147  -17.0159  -16.7853 C   0  0  0  0  0  0  0  0  0  0  0  0
   21.6397  -16.5388  -15.6581 C   0  0  0  0  0  0  0  0  0  0  0  0
   22.8872  -16.9625  -15.2892 C   0  0  0  0  0  0  0  0  0  0  0  0
   23.5127  -17.8932  -16.0860 C   0  0  0  0  0  0  0  0  0  0  0  0
   24.8683  -18.3850  -15.7307 C   0  0  0  0  0  0  0  0  0  0  0  0
   24.8089  -19.7632  -15.1054 C   0  0  2  0  0  0  0  0  0  0  0  0
   23.8523  -19.8456  -14.0449 N   0  0  0  0  0  0  0  0  0  0  0  0
   26.1360  -20.2335  -14.6650 C   0  0  0  0  0  0  0  0  0  0  0  0
   27.0921  -20.2553  -15.5021 O   0  0  0  0  0  0  0  0  0  0  0  0
   22.8858  -18.3828  -17.2316 C   0  0  0  0  0  0  0  0  0  0  0  0
   21.6312  -17.9552  -17.6006 C   0  0  0  0  0  0  0  0  0  0  0  0
   26.4313  -20.6706  -13.3565 N   0  0  0  0  0  0  0  0  0  0  0  0
   27.8003  -20.8401  -12.8831 C   0  0  0  0  0  0  0  0  0  0  0  0
   27.8128  -21.1694  -11.4281 C   0  0  0  0  0  0  0  0  0  0  0  0
   28.8503  -21.6673  -10.9415 O   0  0  0  0  0  0  0  0  0  0  0  0
   26.7023  -20.9402  -10.5871 N   0  0  0  0  0  0  0  0  0  0  0  0
   26.3591  -21.7247   -9.4145 C   0  0  1  0  0  0  0  0  0  0  0  0
   27.4300  -21.5532   -8.4038 C   0  0  0  0  0  0  0  0  0  0  0  0
   27.4680  -20.3053   -7.6562 C   0  0  0  0  0  0  0  0  0  0  0  0
   26.7613  -19.1182   -7.8857 C   0  0  0  0  0  0  0  0  0  0  0  0
   27.1076  -18.2129   -6.9873 N   0  0  0  0  0  0  0  0  0  0  0  0
   28.0326  -18.7126   -6.1288 C   0  0  0  0  0  0  0  0  0  0  0  0
   28.6529  -18.1269   -5.0461 C   0  0  0  0  0  0  0  0  0  0  0  0
   29.5538  -18.8802   -4.3265 C   0  0  0  0  0  0  0  0  0  0  0  0
   29.8113  -20.1994   -4.7081 C   0  0  0  0  0  0  0  0  0  0  0  0
   29.1740  -20.7396   -5.7886 C   0  0  0  0  0  0  0  0  0  0  0  0
   28.2583  -20.0116   -6.5411 C   0  0  0  0  0  0  0  0  0  0  0  0
   24.9770  -21.6552   -8.9844 C   0  0  0  0  0  0  0  0  0  0  0  0
   24.5372  -22.3091   -8.0142 O   0  0  0  0  0  0  0  0  0  0  0  0
   24.0609  -20.8445   -9.6335 O   0  0  0  0  0  0  0  0  0  0  0  0
  2  1  1  0
  3  2  2  0
  4  3  1  0
  5  4  2  0
  5 11  1  0
  6  5  1  0
  7  9  1  0
  7  8  1  1
  7  6  1  0
  9 13  1  0
 10  9  2  0
 11 12  2  0
 12  2  1  0
 13 14  1  0
 15 14  1  0
 16 15  2  0
 17 15  1  0
 18 19  1  1
 18 17  1  0
 19 20  1  0
 20 21  2  0
 21 22  1  0
 23 22  1  0
 24 23  2  0
 25 24  1  0
 26 27  1  0
 26 25  2  0
 27 28  2  0
 28 20  1  0
 28 23  1  0
 29 18  1  0
 29 31  1  0
 30 29  2  0
M  END
$$$$
