YGW.pdb
     RDKit          3D

 31 33  0  0  1  0  0  0  0  0999 V2000
   28.8014  -14.4845  -18.9513 O   0  0  0  0  0  0  0  0  0  0  0  0
   28.4248  -15.1620  -17.8051 C   0  0  0  0  0  0  0  0  0  0  0  0
   27.4388  -14.6896  -16.9724 C   0  0  0  0  0  0  0  0  0  0  0  0
   27.0671  -15.3602  -15.8392 C   0  0  0  0  0  0  0  0  0  0  0  0
   27.7140  -16.5386  -15.5471 C   0  0  0  0  0  0  0  0  0  0  0  0
   27.3492  -17.3044  -14.3281 C   0  0  0  0  0  0  0  0  0  0  0  0
   26.5509  -18.5443  -14.6738 C   0  0  2  0  0  0  0  0  0  0  0  0
   25.3234  -18.2398  -15.3426 N   0  0  0  0  0  0  0  0  0  0  0  0
   26.3190  -19.4042  -13.4976 C   0  0  0  0  0  0  0  0  0  0  0  0
   25.5541  -18.9896  -12.5712 O   0  0  0  0  0  0  0  0  0  0  0  0
   28.7157  -17.0253  -16.3866 C   0  0  0  0  0  0  0  0  0  0  0  0
   29.0878  -16.3491  -17.5257 C   0  0  0  0  0  0  0  0  0  0  0  0
   26.8943  -20.6800  -13.3190 N   0  0  0  0  0  0  0  0  0  0  0  0
   28.0357  -20.9025  -12.4389 C   0  0  0  0  0  0  0  0  0  0  0  0
   27.5804  -21.4052  -11.1102 C   0  0  0  0  0  0  0  0  0  0  0  0
   28.3087  -22.2185  -10.5023 O   0  0  0  0  0  0  0  0  0  0  0  0
   26.3649  -20.9981  -10.5188 N   0  0  0  0  0  0  0  0  0  0  0  0
   25.8319  -21.4958   -9.2633 C   0  0  1  0  0  0  0  0  0  0  0  0
   26.9527  -21.6515   -8.3054 C   0  0  0  0  0  0  0  0  0  0  0  0
   27.2226  -20.5545   -7.3882 C   0  0  0  0  0  0  0  0  0  0  0  0
   26.8731  -19.2031   -7.5028 C   0  0  0  0  0  0  0  0  0  0  0  0
   27.3345  -18.5338   -6.4608 N   0  0  0  0  0  0  0  0  0  0  0  0
   27.9974  -19.3589   -5.6109 C   0  0  0  0  0  0  0  0  0  0  0  0
   28.6192  -19.0899   -4.4105 C   0  0  0  0  0  0  0  0  0  0  0  0
   29.2102  -20.1350   -3.7355 C   0  0  0  0  0  0  0  0  0  0  0  0
   29.1640  -21.4217   -4.2782 C   0  0  0  0  0  0  0  0  0  0  0  0
   28.5372  -21.6428   -5.4713 C   0  0  0  0  0  0  0  0  0  0  0  0
   27.9295  -20.6142   -6.1836 C   0  0  0  0  0  0  0  0  0  0  0  0
   24.6032  -20.8797   -8.8045 C   0  0  0  0  0  0  0  0  0  0  0  0
   24.0339  -21.2151   -7.7435 O   0  0  0  0  0  0  0  0  0  0  0  0
   23.9910  -19.8693   -9.5272 O   0  0  0  0  0  0  0  0  0  0  0  0
  2  1  1  0
  3  2  2  0
  4  3  1  0
  5  4  2  0
  5 11  1  0
  6  5  1  0
  7  9  1  0
  7  8  1  1
  7  6  1  0
  9 13  1  0
 10  9  2  0
 11 12  2  0
 12  2  1  0
 13 14  1  0
 15 14  1  0
 16 15  2  0
 17 15  1  0
 18 19  1  1
 18 17  1  0
 19 20  1  0
 20 21  2  0
 21 22  1  0
 23 22  1  0
 24 23  2  0
 25 24  1  0
 26 27  1  0
 26 25  2  0
 27 28  2  0
 28 20  1  0
 28 23  1  0
 29 18  1  0
 29 31  1  0
 30 29  2  0
M  END
$$$$
