YGW.pdb
     RDKit          3D

 31 33  0  0  1  0  0  0  0  0999 V2000
   22.6017  -18.4510  -23.4158 O   0  0  0  0  0  0  0  0  0  0  0  0
   22.5801  -17.1683  -22.8974 C   0  0  0  0  0  0  0  0  0  0  0  0
   22.9013  -16.9085  -21.5866 C   0  0  0  0  0  0  0  0  0  0  0  0
   22.8797  -15.6397  -21.0749 C   0  0  0  0  0  0  0  0  0  0  0  0
   22.5227  -14.6121  -21.9169 C   0  0  0  0  0  0  0  0  0  0  0  0
   22.4820  -13.2165  -21.4107 C   0  0  0  0  0  0  0  0  0  0  0  0
   21.3085  -13.0020  -20.4775 C   0  0  2  0  0  0  0  0  0  0  0  0
   20.0662  -13.4212  -21.0502 N   0  0  0  0  0  0  0  0  0  0  0  0
   21.2298  -11.6116  -19.9908 C   0  0  0  0  0  0  0  0  0  0  0  0
   20.4512  -10.7957  -20.5768 O   0  0  0  0  0  0  0  0  0  0  0  0
   22.1952  -14.8667  -23.2484 C   0  0  0  0  0  0  0  0  0  0  0  0
   22.2178  -16.1434  -23.7608 C   0  0  0  0  0  0  0  0  0  0  0  0
   21.9693  -11.1074  -18.9002 N   0  0  0  0  0  0  0  0  0  0  0  0
   21.9066   -9.7067  -18.4986 C   0  0  0  0  0  0  0  0  0  0  0  0
   21.3814   -9.5853  -17.1076 C   0  0  0  0  0  0  0  0  0  0  0  0
   20.9232  -10.6081  -16.5551 O   0  0  0  0  0  0  0  0  0  0  0  0
   21.3835   -8.3649  -16.3978 N   0  0  0  0  0  0  0  0  0  0  0  0
   20.9110   -8.1824  -15.0371 C   0  0  1  0  0  0  0  0  0  0  0  0
   22.0693   -7.8349  -14.1796 C   0  0  0  0  0  0  0  0  0  0  0  0
   22.7223   -6.5537  -14.4025 C   0  0  0  0  0  0  0  0  0  0  0  0
   22.4029   -5.2974  -13.8724 C   0  0  0  0  0  0  0  0  0  0  0  0
   23.2326   -4.3875  -14.3522 N   0  0  0  0  0  0  0  0  0  0  0  0
   24.1289   -4.9504  -15.2021 C   0  0  0  0  0  0  0  0  0  0  0  0
   25.1670   -4.3817  -15.9084 C   0  0  0  0  0  0  0  0  0  0  0  0
   25.9434   -5.2017  -16.6969 C   0  0  0  0  0  0  0  0  0  0  0  0
   25.6617   -6.5689  -16.7588 C   0  0  0  0  0  0  0  0  0  0  0  0
   24.6224   -7.0899  -16.0423 C   0  0  0  0  0  0  0  0  0  0  0  0
   23.8150   -6.2953  -15.2353 C   0  0  0  0  0  0  0  0  0  0  0  0
   19.6813   -7.4308  -14.8858 C   0  0  0  0  0  0  0  0  0  0  0  0
   19.2640   -6.6353  -15.7548 O   0  0  0  0  0  0  0  0  0  0  0  0
   18.8919   -7.5619  -13.7555 O   0  0  0  0  0  0  0  0  0  0  0  0
  2  1  1  0
  3  2  2  0
  4  3  1  0
  5  4  2  0
  5 11  1  0
  6  5  1  0
  7  9  1  0
  7  8  1  6
  7  6  1  0
  9 13  1  0
 10  9  2  0
 11 12  2  0
 12  2  1  0
 13 14  1  0
 15 14  1  0
 16 15  2  0
 17 15  1  0
 18 19  1  1
 18 17  1  0
 19 20  1  0
 20 21  2  0
 21 22  1  0
 23 22  1  0
 24 23  2  0
 25 24  1  0
 26 27  1  0
 26 25  2  0
 27 28  2  0
 28 20  1  0
 28 23  1  0
 29 18  1  0
 29 31  1  0
 30 29  2  0
M  END
$$$$
