YGW.pdb
     RDKit          3D

 31 33  0  0  1  0  0  0  0  0999 V2000
   30.6683  -16.5166  -18.4422 O   0  0  0  0  0  0  0  0  0  0  0  0
   29.8192  -16.8161  -17.3916 C   0  0  0  0  0  0  0  0  0  0  0  0
   30.1557  -17.7316  -16.4233 C   0  0  0  0  0  0  0  0  0  0  0  0
   29.3154  -18.0271  -15.3847 C   0  0  0  0  0  0  0  0  0  0  0  0
   28.1049  -17.3758  -15.3308 C   0  0  0  0  0  0  0  0  0  0  0  0
   27.1557  -17.6616  -14.2248 C   0  0  0  0  0  0  0  0  0  0  0  0
   26.5873  -19.0612  -14.3334 C   0  0  2  0  0  0  0  0  0  0  0  0
   25.9812  -19.3120  -15.6048 N   0  0  0  0  0  0  0  0  0  0  0  0
   25.6603  -19.3739  -13.2291 C   0  0  0  0  0  0  0  0  0  0  0  0
   24.5752  -18.7196  -13.1302 O   0  0  0  0  0  0  0  0  0  0  0  0
   27.7553  -16.4454  -16.3091 C   0  0  0  0  0  0  0  0  0  0  0  0
   28.6020  -16.1498  -17.3526 C   0  0  0  0  0  0  0  0  0  0  0  0
   25.8917  -20.3659  -12.2529 N   0  0  0  0  0  0  0  0  0  0  0  0
   24.9464  -20.6318  -11.1745 C   0  0  0  0  0  0  0  0  0  0  0  0
   25.6701  -21.0272   -9.9314 C   0  0  0  0  0  0  0  0  0  0  0  0
   26.7265  -21.6850  -10.0438 O   0  0  0  0  0  0  0  0  0  0  0  0
   25.2077  -20.6874   -8.6415 N   0  0  0  0  0  0  0  0  0  0  0  0
   25.0560  -21.6113   -7.5318 C   0  0  1  0  0  0  0  0  0  0  0  0
   25.4409  -20.9127   -6.2821 C   0  0  0  0  0  0  0  0  0  0  0  0
   26.6103  -20.0474   -6.3176 C   0  0  0  0  0  0  0  0  0  0  0  0
   26.9324  -19.0375   -7.2330 C   0  0  0  0  0  0  0  0  0  0  0  0
   28.1030  -18.5097   -6.9203 N   0  0  0  0  0  0  0  0  0  0  0  0
   28.6234  -19.1061   -5.8176 C   0  0  0  0  0  0  0  0  0  0  0  0
   29.8022  -18.8644   -5.1454 C   0  0  0  0  0  0  0  0  0  0  0  0
   30.0797  -19.6185   -4.0268 C   0  0  0  0  0  0  0  0  0  0  0  0
   29.1714  -20.5948   -3.6094 C   0  0  0  0  0  0  0  0  0  0  0  0
   28.0151  -20.8012   -4.3063 C   0  0  0  0  0  0  0  0  0  0  0  0
   27.6990  -20.0611   -5.4408 C   0  0  0  0  0  0  0  0  0  0  0  0
   23.8534  -22.4197   -7.5365 C   0  0  0  0  0  0  0  0  0  0  0  0
   22.8766  -22.1740   -8.2766 O   0  0  0  0  0  0  0  0  0  0  0  0
   23.7257  -23.5251   -6.7121 O   0  0  0  0  0  0  0  0  0  0  0  0
  2  1  1  0
  3  2  2  0
  4  3  1  0
  5  4  2  0
  5 11  1  0
  6  5  1  0
  7  9  1  0
  7  8  1  6
  7  6  1  0
  9 13  1  0
 10  9  2  0
 11 12  2  0
 12  2  1  0
 13 14  1  0
 15 14  1  0
 16 15  2  0
 17 15  1  0
 18 19  1  1
 18 17  1  0
 19 20  1  0
 20 21  2  0
 21 22  1  0
 23 22  1  0
 24 23  2  0
 25 24  1  0
 26 27  1  0
 26 25  2  0
 27 28  2  0
 28 20  1  0
 28 23  1  0
 29 18  1  0
 29 31  1  0
 30 29  2  0
M  END
$$$$
