ICM.pdb
     RDKit          3D

 23 22  0  0  1  0  0  0  0  0999 V2000
    5.6028  -12.2527   25.3819 C   0  0  0  0  0  0  0  0  0  0  0  0
    6.0089  -13.2403   26.4442 C   0  0  0  0  0  0  0  0  0  0  0  0
    7.2319  -14.0435   25.9794 C   0  0  2  0  0  0  0  0  0  0  0  0
    8.1180  -13.0978   25.2465 C   0  0  0  0  0  0  0  0  0  0  0  0
    6.7633  -15.2309   25.1844 C   0  0  2  0  0  0  0  0  0  0  0  0
    5.9043  -16.0252   26.0959 N   0  0  0  0  0  0  0  0  0  0  0  0
    7.8656  -16.0883   24.6803 C   0  0  0  0  0  0  0  0  0  0  0  0
    8.2227  -17.1227   25.3506 O   0  0  0  0  0  0  0  0  0  0  0  0
    8.5899  -15.8714   23.4869 N   0  0  0  0  0  0  0  0  0  0  0  0
    9.5726  -16.8313   22.9842 C   0  0  1  0  0  0  0  0  0  0  0  0
    9.7282  -16.7046   21.4823 C   0  0  0  0  0  0  0  0  0  0  0  0
   10.1766  -15.0140   21.0082 S   0  0  0  0  0  0  0  0  0  0  0  0
   10.8616  -16.7026   23.6898 C   0  0  0  0  0  0  0  0  0  0  0  0
   11.5831  -15.6678   23.4813 O   0  0  0  0  0  0  0  0  0  0  0  0
    9.9919  -13.4346   28.7919 C   0  0  0  0  0  0  0  0  0  0  0  0
   11.4625  -14.3594   28.3461 S   0  0  0  0  0  0  0  0  0  0  0  0
   11.1197  -16.1166   28.0334 C   0  0  0  0  0  0  0  0  0  0  0  0
   10.7950  -16.3735   26.5905 C   0  0  0  0  0  0  0  0  0  0  0  0
   11.7654  -17.3146   25.9758 C   0  0  2  0  0  0  0  0  0  0  0  0
   11.3627  -17.6654   24.5984 N   0  0  0  0  0  0  0  0  0  0  0  0
   12.0688  -18.5303   26.7450 C   0  0  0  0  0  0  0  0  0  0  0  0
   11.5772  -19.7461   26.2938 O   0  0  0  0  0  0  0  0  0  0  0  0
   12.7474  -18.5318   27.7870 O   0  0  0  0  0  0  0  0  0  0  0  0
  2  1  1  0
  2  3  1  0
  3  4  1  6
  5  3  1  0
  5  7  1  0
  5  6  1  1
  7  8  2  0
  7  9  1  0
  9 10  1  0
 10 13  1  0
 10 11  1  6
 11 12  1  0
 13 14  2  0
 16 15  1  0
 17 16  1  0
 17 18  1  0
 19 18  1  1
 20 19  1  0
 20 13  1  0
 21 19  1  0
 22 21  1  0
 23 21  2  0
M  END
$$$$
