ICM.pdb
     RDKit          3D

 23 22  0  0  1  0  0  0  0  0999 V2000
    8.1374  -11.8153   20.2011 C   0  0  0  0  0  0  0  0  0  0  0  0
    7.3652  -13.0853   20.4451 C   0  0  0  0  0  0  0  0  0  0  0  0
    8.0996  -14.2790   19.8185 C   0  0  2  0  0  0  0  0  0  0  0  0
    8.1861  -14.0150   18.3559 C   0  0  0  0  0  0  0  0  0  0  0  0
    7.3865  -15.5467   20.2008 C   0  0  2  0  0  0  0  0  0  0  0  0
    5.9961  -15.4040   19.7049 N   0  0  0  0  0  0  0  0  0  0  0  0
    7.3605  -15.8027   21.6630 C   0  0  0  0  0  0  0  0  0  0  0  0
    6.6582  -15.0482   22.4274 O   0  0  0  0  0  0  0  0  0  0  0  0
    8.0591  -16.8372   22.3246 N   0  0  0  0  0  0  0  0  0  0  0  0
    8.0970  -16.9458   23.7829 C   0  0  1  0  0  0  0  0  0  0  0  0
    7.1835  -18.0553   24.2632 C   0  0  0  0  0  0  0  0  0  0  0  0
    5.5917  -18.0171   23.3980 S   0  0  0  0  0  0  0  0  0  0  0  0
    9.4776  -17.1096   24.2756 C   0  0  0  0  0  0  0  0  0  0  0  0
   10.0191  -18.2671   24.2327 O   0  0  0  0  0  0  0  0  0  0  0  0
   10.7590  -13.6752   30.4311 C   0  0  0  0  0  0  0  0  0  0  0  0
   10.3111  -13.6932   28.6944 S   0  0  0  0  0  0  0  0  0  0  0  0
    9.1693  -15.0443   28.2773 C   0  0  0  0  0  0  0  0  0  0  0  0
    9.0860  -15.2666   26.7950 C   0  0  0  0  0  0  0  0  0  0  0  0
   10.3627  -15.7981   26.2540 C   0  0  2  0  0  0  0  0  0  0  0  0
   10.2574  -16.0523   24.8026 N   0  0  0  0  0  0  0  0  0  0  0  0
   10.9205  -16.9730   26.9396 C   0  0  0  0  0  0  0  0  0  0  0  0
   10.0526  -17.9512   27.4015 O   0  0  0  0  0  0  0  0  0  0  0  0
   12.1374  -17.1423   27.1314 O   0  0  0  0  0  0  0  0  0  0  0  0
  2  1  1  0
  2  3  1  0
  3  4  1  6
  5  3  1  0
  5  7  1  0
  5  6  1  1
  7  8  2  0
  7  9  1  0
  9 10  1  0
 10 13  1  0
 10 11  1  6
 11 12  1  0
 13 14  2  0
 16 15  1  0
 17 16  1  0
 17 18  1  0
 19 18  1  1
 20 19  1  0
 20 13  1  0
 21 19  1  0
 22 21  1  0
 23 21  2  0
M  END
$$$$
