ICM.pdb
     RDKit          3D

 23 22  0  0  1  0  0  0  0  0999 V2000
    7.3536  -19.8423   18.8295 C   0  0  0  0  0  0  0  0  0  0  0  0
    7.2110  -18.3432   18.8638 C   0  0  0  0  0  0  0  0  0  0  0  0
    7.7740  -17.7887   20.1800 C   0  0  2  0  0  0  0  0  0  0  0  0
    7.0926  -18.5187   21.2842 C   0  0  0  0  0  0  0  0  0  0  0  0
    7.6001  -16.2949   20.1949 C   0  0  2  0  0  0  0  0  0  0  0  0
    8.3396  -15.7814   19.0164 N   0  0  0  0  0  0  0  0  0  0  0  0
    8.1220  -15.6425   21.4222 C   0  0  0  0  0  0  0  0  0  0  0  0
    9.3872  -15.6096   21.6349 O   0  0  0  0  0  0  0  0  0  0  0  0
    7.3332  -15.0276   22.4201 N   0  0  0  0  0  0  0  0  0  0  0  0
    7.9165  -14.4472   23.6295 C   0  0  1  0  0  0  0  0  0  0  0  0
    6.8861  -13.6337   24.3861 C   0  0  0  0  0  0  0  0  0  0  0  0
    7.5005  -13.1520   26.0215 S   0  0  0  0  0  0  0  0  0  0  0  0
    8.5404  -15.4810   24.4767 C   0  0  0  0  0  0  0  0  0  0  0  0
    7.7913  -16.2502   25.1710 O   0  0  0  0  0  0  0  0  0  0  0  0
   10.9501  -12.4770   28.9467 C   0  0  0  0  0  0  0  0  0  0  0  0
   10.6035  -14.1503   29.4914 S   0  0  0  0  0  0  0  0  0  0  0  0
   10.9389  -15.3911   28.2064 C   0  0  0  0  0  0  0  0  0  0  0  0
   10.2859  -15.0345   26.9026 C   0  0  0  0  0  0  0  0  0  0  0  0
   10.5963  -16.0344   25.8495 C   0  0  2  0  0  0  0  0  0  0  0  0
    9.9382  -15.6822   24.5747 N   0  0  0  0  0  0  0  0  0  0  0  0
   10.3325  -17.4403   26.1897 C   0  0  0  0  0  0  0  0  0  0  0  0
    9.0204  -17.8894   26.2026 O   0  0  0  0  0  0  0  0  0  0  0  0
   11.2264  -18.2582   26.4693 O   0  0  0  0  0  0  0  0  0  0  0  0
  2  1  1  0
  2  3  1  0
  3  4  1  1
  5  3  1  0
  5  7  1  0
  5  6  1  6
  7  8  2  0
  7  9  1  0
  9 10  1  0
 10 13  1  0
 10 11  1  1
 11 12  1  0
 13 14  2  0
 16 15  1  0
 17 16  1  0
 17 18  1  0
 19 18  1  1
 20 19  1  0
 20 13  1  0
 21 19  1  0
 22 21  1  0
 23 21  2  0
M  END
$$$$
