ICM.pdb
     RDKit          3D

 23 22  0  0  1  0  0  0  0  0999 V2000
    8.0911  -12.3844   26.8021 C   0  0  0  0  0  0  0  0  0  0  0  0
    7.7982  -13.8334   26.5137 C   0  0  0  0  0  0  0  0  0  0  0  0
    6.5679  -13.9529   25.6031 C   0  0  2  0  0  0  0  0  0  0  0  0
    5.4273  -13.3340   26.3328 C   0  0  0  0  0  0  0  0  0  0  0  0
    6.3796  -15.3958   25.2230 C   0  0  2  0  0  0  0  0  0  0  0  0
    6.3635  -16.1590   26.4946 N   0  0  0  0  0  0  0  0  0  0  0  0
    7.4516  -15.9297   24.3456 C   0  0  0  0  0  0  0  0  0  0  0  0
    7.8071  -17.1581   24.4530 O   0  0  0  0  0  0  0  0  0  0  0  0
    8.1476  -15.1912   23.3626 N   0  0  0  0  0  0  0  0  0  0  0  0
    9.1147  -15.8123   22.4579 C   0  0  1  0  0  0  0  0  0  0  0  0
    9.2177  -15.0320   21.1632 C   0  0  0  0  0  0  0  0  0  0  0  0
    7.6136  -14.3380   20.6845 S   0  0  0  0  0  0  0  0  0  0  0  0
   10.4271  -15.9859   23.1086 C   0  0  0  0  0  0  0  0  0  0  0  0
   11.3556  -16.6003   22.4799 O   0  0  0  0  0  0  0  0  0  0  0  0
   10.9434  -13.0677   28.8615 C   0  0  0  0  0  0  0  0  0  0  0  0
    9.9736  -14.2917   27.9794 S   0  0  0  0  0  0  0  0  0  0  0  0
   10.9769  -15.6828   27.3782 C   0  0  0  0  0  0  0  0  0  0  0  0
   12.0555  -15.2276   26.4386 C   0  0  0  0  0  0  0  0  0  0  0  0
   11.9572  -15.9157   25.1263 C   0  0  2  0  0  0  0  0  0  0  0  0
   10.7332  -15.5094   24.4059 N   0  0  0  0  0  0  0  0  0  0  0  0
   12.0737  -17.3812   25.1502 C   0  0  0  0  0  0  0  0  0  0  0  0
   13.3007  -17.9486   25.4597 O   0  0  0  0  0  0  0  0  0  0  0  0
   11.1265  -18.1491   24.9067 O   0  0  0  0  0  0  0  0  0  0  0  0
  2  1  1  0
  2  3  1  0
  3  4  1  1
  5  3  1  0
  5  7  1  0
  5  6  1  1
  7  8  2  0
  7  9  1  0
  9 10  1  0
 10 13  1  0
 10 11  1  6
 11 12  1  0
 13 14  2  0
 16 15  1  0
 17 16  1  0
 17 18  1  0
 19 18  1  1
 20 19  1  0
 20 13  1  0
 21 19  1  0
 22 21  1  0
 23 21  2  0
M  END
$$$$
