ICM.pdb
     RDKit          3D

 23 22  0  0  1  0  0  0  0  0999 V2000
    7.9561  -12.1709   18.9301 C   0  0  0  0  0  0  0  0  0  0  0  0
    8.0161  -13.6759   18.9162 C   0  0  0  0  0  0  0  0  0  0  0  0
    8.0651  -14.2162   20.3525 C   0  0  2  0  0  0  0  0  0  0  0  0
    9.2181  -13.5561   21.0243 C   0  0  0  0  0  0  0  0  0  0  0  0
    8.1224  -15.7183   20.3077 C   0  0  2  0  0  0  0  0  0  0  0  0
    6.8241  -16.1645   19.7465 N   0  0  0  0  0  0  0  0  0  0  0  0
    8.3246  -16.3508   21.6356 C   0  0  0  0  0  0  0  0  0  0  0  0
    7.3625  -16.3662   22.4847 O   0  0  0  0  0  0  0  0  0  0  0  0
    9.5188  -16.9639   22.0760 N   0  0  0  0  0  0  0  0  0  0  0  0
    9.6844  -17.4600   23.4422 C   0  0  1  0  0  0  0  0  0  0  0  0
   10.7355  -18.5502   23.4944 C   0  0  0  0  0  0  0  0  0  0  0  0
   11.1441  -18.9880   25.2047 S   0  0  0  0  0  0  0  0  0  0  0  0
    9.9750  -16.3616   24.3829 C   0  0  0  0  0  0  0  0  0  0  0  0
   10.8194  -15.4625   24.0461 O   0  0  0  0  0  0  0  0  0  0  0  0
    5.6494  -12.8776   27.0851 C   0  0  0  0  0  0  0  0  0  0  0  0
    7.0671  -12.1746   27.9294 S   0  0  0  0  0  0  0  0  0  0  0  0
    8.5840  -13.1447   27.6823 C   0  0  0  0  0  0  0  0  0  0  0  0
    8.3721  -14.2757   26.7183 C   0  0  0  0  0  0  0  0  0  0  0  0
    9.6140  -15.0681   26.5309 C   0  0  2  0  0  0  0  0  0  0  0  0
    9.3711  -16.2340   25.6568 N   0  0  0  0  0  0  0  0  0  0  0  0
   10.3108  -15.4846   27.7568 C   0  0  0  0  0  0  0  0  0  0  0  0
   10.8987  -14.5135   28.5534 O   0  0  0  0  0  0  0  0  0  0  0  0
   10.4046  -16.6688   28.1244 O   0  0  0  0  0  0  0  0  0  0  0  0
  2  1  1  0
  2  3  1  0
  3  4  1  6
  5  3  1  0
  5  7  1  0
  5  6  1  1
  7  8  2  0
  7  9  1  0
  9 10  1  0
 10 13  1  0
 10 11  1  6
 11 12  1  0
 13 14  2  0
 16 15  1  0
 17 16  1  0
 17 18  1  0
 19 18  1  1
 20 19  1  0
 20 13  1  0
 21 19  1  0
 22 21  1  0
 23 21  2  0
M  END
$$$$
