ICM.pdb
     RDKit          3D

 23 22  0  0  1  0  0  0  0  0999 V2000
    7.8659  -12.1139   18.5517 C   0  0  0  0  0  0  0  0  0  0  0  0
    7.9132  -13.6189   18.5925 C   0  0  0  0  0  0  0  0  0  0  0  0
    7.7837  -14.1127   20.0404 C   0  0  2  0  0  0  0  0  0  0  0  0
    8.8933  -13.4880   20.8118 C   0  0  0  0  0  0  0  0  0  0  0  0
    7.7666  -15.6165   20.0440 C   0  0  2  0  0  0  0  0  0  0  0  0
    6.5132  -16.0168   19.3597 N   0  0  0  0  0  0  0  0  0  0  0  0
    7.7941  -16.2134   21.4031 C   0  0  0  0  0  0  0  0  0  0  0  0
    6.7255  -16.2239   22.1137 O   0  0  0  0  0  0  0  0  0  0  0  0
    8.9248  -16.7963   22.0176 N   0  0  0  0  0  0  0  0  0  0  0  0
    8.8712  -17.3812   23.3573 C   0  0  1  0  0  0  0  0  0  0  0  0
    9.7609  -18.6047   23.4456 C   0  0  0  0  0  0  0  0  0  0  0  0
   11.4461  -18.2334   22.8923 S   0  0  0  0  0  0  0  0  0  0  0  0
    9.1935  -16.3832   24.3945 C   0  0  0  0  0  0  0  0  0  0  0  0
   10.1718  -15.5824   24.2032 O   0  0  0  0  0  0  0  0  0  0  0  0
    6.9572  -11.0321   27.2797 C   0  0  0  0  0  0  0  0  0  0  0  0
    6.0735  -12.3990   26.5264 S   0  0  0  0  0  0  0  0  0  0  0  0
    7.1797  -13.7294   25.9700 C   0  0  0  0  0  0  0  0  0  0  0  0
    7.7943  -14.4639   27.1260 C   0  0  0  0  0  0  0  0  0  0  0  0
    8.9143  -15.3324   26.6826 C   0  0  2  0  0  0  0  0  0  0  0  0
    8.4798  -16.2501   25.6097 N   0  0  0  0  0  0  0  0  0  0  0  0
    9.6176  -16.0763   27.7379 C   0  0  0  0  0  0  0  0  0  0  0  0
   10.3289  -15.3670   28.6942 O   0  0  0  0  0  0  0  0  0  0  0  0
    9.6116  -17.3167   27.8239 O   0  0  0  0  0  0  0  0  0  0  0  0
  2  1  1  0
  2  3  1  0
  3  4  1  1
  5  3  1  0
  5  7  1  0
  5  6  1  1
  7  8  2  0
  7  9  1  0
  9 10  1  0
 10 13  1  0
 10 11  1  6
 11 12  1  0
 13 14  2  0
 16 15  1  0
 17 16  1  0
 17 18  1  0
 19 18  1  1
 20 19  1  0
 20 13  1  0
 21 19  1  0
 22 21  1  0
 23 21  2  0
M  END
$$$$
