ICM.pdb
     RDKit          3D

 23 22  0  0  1  0  0  0  0  0999 V2000
    6.4604  -12.0756   26.9747 C   0  0  0  0  0  0  0  0  0  0  0  0
    6.0488  -13.2481   26.1236 C   0  0  0  0  0  0  0  0  0  0  0  0
    7.2910  -13.9799   25.5958 C   0  0  2  0  0  0  0  0  0  0  0  0
    8.0942  -12.9799   24.8399 C   0  0  0  0  0  0  0  0  0  0  0  0
    6.8512  -15.1806   24.8042 C   0  0  2  0  0  0  0  0  0  0  0  0
    6.0273  -16.0023   25.7238 N   0  0  0  0  0  0  0  0  0  0  0  0
    7.9743  -16.0025   24.2871 C   0  0  0  0  0  0  0  0  0  0  0  0
    8.3950  -17.0043   24.9700 O   0  0  0  0  0  0  0  0  0  0  0  0
    8.6537  -15.7842   23.0678 N   0  0  0  0  0  0  0  0  0  0  0  0
    9.6831  -16.6980   22.5727 C   0  0  1  0  0  0  0  0  0  0  0  0
    9.7183  -16.6980   21.0578 C   0  0  0  0  0  0  0  0  0  0  0  0
   10.9452  -17.8739   20.4287 S   0  0  0  0  0  0  0  0  0  0  0  0
   11.0016  -16.3936   23.1597 C   0  0  0  0  0  0  0  0  0  0  0  0
   11.9788  -17.1876   22.9372 O   0  0  0  0  0  0  0  0  0  0  0  0
   10.0138  -13.3210   28.9370 C   0  0  0  0  0  0  0  0  0  0  0  0
   10.8070  -14.9188   29.1235 S   0  0  0  0  0  0  0  0  0  0  0  0
   11.8468  -15.3576   27.6990 C   0  0  0  0  0  0  0  0  0  0  0  0
   11.0994  -15.2326   26.4032 C   0  0  0  0  0  0  0  0  0  0  0  0
   12.0114  -15.3542   25.2375 C   0  0  2  0  0  0  0  0  0  0  0  0
   11.2625  -15.2609   23.9676 N   0  0  0  0  0  0  0  0  0  0  0  0
   12.8964  -16.5282   25.2240 C   0  0  0  0  0  0  0  0  0  0  0  0
   12.3336  -17.7871   25.0771 O   0  0  0  0  0  0  0  0  0  0  0  0
   14.1327  -16.4572   25.3378 O   0  0  0  0  0  0  0  0  0  0  0  0
  2  1  1  0
  2  3  1  0
  3  4  1  6
  5  3  1  0
  5  7  1  0
  5  6  1  1
  7  8  2  0
  7  9  1  0
  9 10  1  0
 10 13  1  0
 10 11  1  6
 11 12  1  0
 13 14  2  0
 16 15  1  0
 17 16  1  0
 17 18  1  0
 19 18  1  1
 20 19  1  0
 20 13  1  0
 21 19  1  0
 22 21  1  0
 23 21  2  0
M  END
$$$$
