ICM.pdb
     RDKit          3D

 23 22  0  0  1  0  0  0  0  0999 V2000
    8.0815  -13.2577   18.2560 C   0  0  0  0  0  0  0  0  0  0  0  0
    7.2325  -14.2637   18.9881 C   0  0  0  0  0  0  0  0  0  0  0  0
    7.8644  -14.5997   20.3464 C   0  0  2  0  0  0  0  0  0  0  0  0
    7.1253  -15.7723   20.8896 C   0  0  0  0  0  0  0  0  0  0  0  0
    7.8434  -13.3704   21.2125 C   0  0  2  0  0  0  0  0  0  0  0  0
    8.7954  -12.4147   20.5961 N   0  0  0  0  0  0  0  0  0  0  0  0
    8.2443  -13.6212   22.6198 C   0  0  0  0  0  0  0  0  0  0  0  0
    9.4671  -13.8997   22.8917 O   0  0  0  0  0  0  0  0  0  0  0  0
    7.3792  -13.5811   23.7361 N   0  0  0  0  0  0  0  0  0  0  0  0
    7.8025  -14.0122   25.0683 C   0  0  1  0  0  0  0  0  0  0  0  0
    6.7973  -13.5817   26.1172 C   0  0  0  0  0  0  0  0  0  0  0  0
    6.4262  -11.8128   25.9853 S   0  0  0  0  0  0  0  0  0  0  0  0
    8.0609  -15.4639   25.1083 C   0  0  0  0  0  0  0  0  0  0  0  0
    7.7276  -16.1819   24.1042 O   0  0  0  0  0  0  0  0  0  0  0  0
   13.1567  -17.0561   22.1926 C   0  0  0  0  0  0  0  0  0  0  0  0
   13.2977  -16.5551   23.9090 S   0  0  0  0  0  0  0  0  0  0  0  0
   12.0302  -17.3127   24.9684 C   0  0  0  0  0  0  0  0  0  0  0  0
   10.8926  -16.3709   25.2379 C   0  0  0  0  0  0  0  0  0  0  0  0
    9.8264  -17.0240   26.0391 C   0  0  2  0  0  0  0  0  0  0  0  0
    8.6638  -16.1276   26.2036 N   0  0  0  0  0  0  0  0  0  0  0  0
   10.2353  -17.5749   27.3395 C   0  0  0  0  0  0  0  0  0  0  0  0
   10.4607  -16.7020   28.3934 O   0  0  0  0  0  0  0  0  0  0  0  0
   10.3923  -18.7901   27.5514 O   0  0  0  0  0  0  0  0  0  0  0  0
  2  1  1  0
  2  3  1  0
  3  4  1  1
  5  3  1  0
  5  7  1  0
  5  6  1  6
  7  8  2  0
  7  9  1  0
  9 10  1  0
 10 13  1  0
 10 11  1  1
 11 12  1  0
 13 14  2  0
 16 15  1  0
 17 16  1  0
 17 18  1  0
 19 18  1  1
 20 19  1  0
 20 13  1  0
 21 19  1  0
 22 21  1  0
 23 21  2  0
M  END
$$$$
