ANI.pdb
     RDKit          3D

 22 21  0  0  1  0  0  0  0  0999 V2000
   17.6411  -11.1954  -18.2014 C   0  0  0  0  0  0  0  0  0  0  0  0
   18.2172  -11.4633  -16.8269 C   0  0  2  0  0  0  0  0  0  0  0  0
   17.4402  -12.4757  -16.1462 N   0  0  0  0  0  0  0  0  0  0  0  0
   18.2502  -10.1867  -16.0880 C   0  0  0  0  0  0  0  0  0  0  0  0
   18.0359   -9.1146  -16.7480 O   0  0  0  0  0  0  0  0  0  0  0  0
   15.5697   -8.8424  -13.9246 N   0  0  0  0  0  0  0  0  0  0  0  0
   16.3358   -8.9497  -12.7418 C   0  0  0  0  0  0  0  0  0  0  0  0
   15.6917   -9.1309  -11.6723 O   0  0  0  0  0  0  0  0  0  0  0  0
   17.7933   -8.8677  -12.6907 C   0  0  0  0  0  0  0  0  0  0  0  0
   18.4918   -8.7715  -14.0127 C   0  0  2  0  0  0  0  0  0  0  0  0
   18.4979  -10.0392  -14.7115 N   0  0  0  0  0  0  0  0  0  0  0  0
   19.8364   -8.2067  -13.8390 C   0  0  0  0  0  0  0  0  0  0  0  0
   20.7637   -8.9125  -13.4018 O   0  0  0  0  0  0  0  0  0  0  0  0
   23.9763   -5.4064  -16.9899 C   0  0  0  0  0  0  0  0  0  0  0  0
   23.3479   -5.5456  -15.6435 C   0  0  0  0  0  0  0  0  0  0  0  0
   21.9767   -6.1636  -15.6723 C   0  0  2  0  0  0  0  0  0  0  0  0
   21.0349   -5.2058  -16.3535 C   0  0  0  0  0  0  0  0  0  0  0  0
   21.5152   -6.3466  -14.2485 C   0  0  2  0  0  0  0  0  0  0  0  0
   20.1654   -6.8554  -14.1474 N   0  0  0  0  0  0  0  0  0  0  0  0
   21.6059   -5.0925  -13.4547 C   0  0  0  0  0  0  0  0  0  0  0  0
   20.5848   -4.3893  -13.2040 O   0  0  0  0  0  0  0  0  0  0  0  0
   22.8138   -4.6285  -12.9483 O   0  0  0  0  0  0  0  0  0  0  0  0
  2  1  1  6
  2  4  1  0
  3  2  1  0
  4  5  2  0
  7  6  1  0
  7  9  1  0
  8  7  2  0
 10  9  1  1
 10 12  1  0
 11 10  1  0
 11  4  1  0
 12 13  2  0
 12 19  1  0
 14 15  1  0
 16 15  1  0
 16 17  1  6
 18 16  1  0
 18 19  1  6
 20 18  1  0
 20 22  1  0
 21 20  2  0
M  END
$$$$
