ANI.pdb
     RDKit          3D

 22 21  0  0  1  0  0  0  0  0999 V2000
   14.8360  -11.1787  -17.0255 C   0  0  0  0  0  0  0  0  0  0  0  0
   15.4702  -10.7197  -15.7294 C   0  0  2  0  0  0  0  0  0  0  0  0
   14.4496  -10.3191  -14.7860 N   0  0  0  0  0  0  0  0  0  0  0  0
   16.4093   -9.6256  -16.0420 C   0  0  0  0  0  0  0  0  0  0  0  0
   17.3884   -9.8892  -16.8185 O   0  0  0  0  0  0  0  0  0  0  0  0
   18.9324   -4.9302  -16.4783 N   0  0  0  0  0  0  0  0  0  0  0  0
   17.5300   -4.8209  -16.3410 C   0  0  0  0  0  0  0  0  0  0  0  0
   17.0325   -3.6838  -16.5673 O   0  0  0  0  0  0  0  0  0  0  0  0
   16.6479   -5.9226  -15.9648 C   0  0  0  0  0  0  0  0  0  0  0  0
   17.2933   -7.2698  -15.8493 C   0  0  2  0  0  0  0  0  0  0  0  0
   16.3257   -8.3070  -15.5602 N   0  0  0  0  0  0  0  0  0  0  0  0
   18.3940   -7.2263  -14.8778 C   0  0  0  0  0  0  0  0  0  0  0  0
   18.1592   -7.2955  -13.6575 O   0  0  0  0  0  0  0  0  0  0  0  0
   23.3731  -10.1092  -13.6290 C   0  0  0  0  0  0  0  0  0  0  0  0
   22.6295   -8.8185  -13.5377 C   0  0  0  0  0  0  0  0  0  0  0  0
   21.5781   -8.6450  -14.5995 C   0  0  2  0  0  0  0  0  0  0  0  0
   22.2605   -8.5700  -15.9401 C   0  0  0  0  0  0  0  0  0  0  0  0
   20.8759   -7.3335  -14.3536 C   0  0  2  0  0  0  0  0  0  0  0  0
   19.7638   -7.1053  -15.2494 N   0  0  0  0  0  0  0  0  0  0  0  0
   21.7967   -6.1692  -14.4407 C   0  0  0  0  0  0  0  0  0  0  0  0
   21.9030   -5.4837  -15.4984 O   0  0  0  0  0  0  0  0  0  0  0  0
   22.5865   -5.7745  -13.3678 O   0  0  0  0  0  0  0  0  0  0  0  0
  2  1  1  6
  2  4  1  0
  3  2  1  0
  4  5  2  0
  7  6  1  0
  7  9  1  0
  8  7  2  0
 10  9  1  1
 10 12  1  0
 11 10  1  0
 11  4  1  0
 12 13  2  0
 12 19  1  0
 14 15  1  0
 16 15  1  0
 16 17  1  6
 18 16  1  0
 18 19  1  6
 20 18  1  0
 20 22  1  0
 21 20  2  0
M  END
$$$$
