ANI.pdb
     RDKit          3D

 22 21  0  0  1  0  0  0  0  0999 V2000
   25.5550  -20.7904   -9.7383 C   0  0  0  0  0  0  0  0  0  0  0  0
   25.9916  -21.4611  -11.0237 C   0  0  2  0  0  0  0  0  0  0  0  0
   27.4252  -21.3543  -11.1832 N   0  0  0  0  0  0  0  0  0  0  0  0
   25.2525  -20.8384  -12.1384 C   0  0  0  0  0  0  0  0  0  0  0  0
   25.6156  -19.6723  -12.5116 O   0  0  0  0  0  0  0  0  0  0  0  0
   26.2287  -21.0696  -14.9683 N   0  0  0  0  0  0  0  0  0  0  0  0
   25.1366  -21.6463  -15.6557 C   0  0  0  0  0  0  0  0  0  0  0  0
   25.4136  -22.2969  -16.7005 O   0  0  0  0  0  0  0  0  0  0  0  0
   23.7428  -21.5362  -15.2332 C   0  0  0  0  0  0  0  0  0  0  0  0
   23.5013  -20.7929  -13.9549 C   0  0  2  0  0  0  0  0  0  0  0  0
   24.1755  -21.4151  -12.8352 N   0  0  0  0  0  0  0  0  0  0  0  0
   22.0603  -20.6184  -13.7309 C   0  0  0  0  0  0  0  0  0  0  0  0
   21.4202  -21.4568  -13.0702 O   0  0  0  0  0  0  0  0  0  0  0  0
   20.3051  -15.9531  -12.5988 C   0  0  0  0  0  0  0  0  0  0  0  0
   19.9735  -17.4081  -12.6065 C   0  0  0  0  0  0  0  0  0  0  0  0
   19.4670  -17.9105  -13.9308 C   0  0  2  0  0  0  0  0  0  0  0  0
   17.9618  -17.8584  -13.9178 C   0  0  0  0  0  0  0  0  0  0  0  0
   19.8879  -19.3509  -14.0777 C   0  0  2  0  0  0  0  0  0  0  0  0
   21.3159  -19.5143  -14.2370 N   0  0  0  0  0  0  0  0  0  0  0  0
   19.2072  -20.0305  -15.2116 C   0  0  0  0  0  0  0  0  0  0  0  0
   18.1546  -20.7114  -15.0432 O   0  0  0  0  0  0  0  0  0  0  0  0
   19.6904  -19.9533  -16.5122 O   0  0  0  0  0  0  0  0  0  0  0  0
  2  1  1  1
  2  4  1  0
  3  2  1  0
  4  5  2  0
  7  6  1  0
  7  9  1  0
  8  7  2  0
 10  9  1  6
 10 12  1  0
 11 10  1  0
 11  4  1  0
 12 13  2  0
 12 19  1  0
 14 15  1  0
 16 15  1  0
 16 17  1  1
 18 16  1  0
 18 19  1  6
 20 18  1  0
 20 22  1  0
 21 20  2  0
M  END
$$$$
