CRE.pdb
     RDKit          3D

 27 26  0  0  1  0  0  0  0  0999 V2000
   26.0927  -20.8529  -16.7855 N   0  0  0  0  0  0  0  0  0  0  0  0
   24.8933  -20.1149  -16.5392 C   0  0  1  0  0  0  0  0  0  0  0  0
   24.1743  -19.7322  -17.8171 C   0  0  0  0  0  0  0  0  0  0  0  0
   24.8599  -18.2029  -18.4965 S   0  0  0  0  0  0  0  0  0  0  0  0
   23.9573  -20.9299  -15.7351 C   0  0  0  0  0  0  0  0  0  0  0  0
   23.5575  -22.0170  -16.1803 O   0  0  0  0  0  0  0  0  0  0  0  0
   27.4384  -21.0459  -12.2777 N   0  0  0  0  0  0  0  0  0  0  0  0
   26.8761  -21.1340  -10.9697 C   0  0  0  0  0  0  0  0  0  0  0  0
   27.1492  -22.1573  -10.2354 N   0  0  0  0  0  0  0  0  0  0  0  0
   26.0322  -20.1278  -10.4695 N   0  0  0  0  0  0  0  0  0  0  0  0
   24.6199  -20.2110  -10.7780 C   0  0  0  0  0  0  0  0  0  0  0  0
   24.3462  -21.2177  -11.8923 C   0  0  0  0  0  0  0  0  0  0  0  0
   22.8949  -21.2514  -12.2201 C   0  0  0  0  0  0  0  0  0  0  0  0
   22.5869  -21.2728  -13.6752 C   0  0  2  0  0  0  0  0  0  0  0  0
   23.4989  -20.5076  -14.4647 N   0  0  0  0  0  0  0  0  0  0  0  0
   21.1779  -20.8337  -13.9612 C   0  0  0  0  0  0  0  0  0  0  0  0
   20.8522  -19.6229  -14.0384 O   0  0  0  0  0  0  0  0  0  0  0  0
   26.7687  -22.2479   -9.2807 N   0  0  0  0  0  0  0  0  0  0  0  0
   20.1399  -21.7768  -14.1593 C   0  0  2  0  0  0  0  0  0  0  0  0
   18.7530  -21.3854  -14.4288 C   0  0  0  0  0  0  0  0  0  0  0  0
   18.0698  -22.3825  -15.2982 C   0  0  0  0  0  0  0  0  0  0  0  0
   18.6652  -22.5681  -16.6625 C   0  0  0  0  0  0  0  0  0  0  0  0
   17.9052  -23.6289  -17.4256 O   0  0  0  0  0  0  0  0  0  0  0  0
   17.3214  -24.5466  -16.8131 C   0  0  0  0  0  0  0  0  0  0  0  0
   18.0377  -21.1591  -13.1625 O   0  0  0  0  0  0  0  0  0  0  0  0
   16.8087  -20.4629  -13.2084 O   0  0  0  0  0  0  0  0  0  0  0  0
   17.8575  -23.5812  -18.8085 O   0  0  0  0  0  0  0  0  0  0  0  0
  2  5  1  0
  2  1  1  6
  3  4  1  0
  3  2  1  0
  5  6  2  0
  8  7  1  0
  8 10  1  0
  9  8  2  0
 11 10  1  0
 11 12  1  0
 13 12  1  0
 14 13  1  1
 14 15  1  0
 15  5  1  0
 16 14  1  0
 17 16  2  0
 18 16  1  0
 19 18  1  0
 19 24  1  0
 19 20  1  6
 21 20  1  0
 22 21  1  0
 23 22  2  0
 24 25  1  0
 26 22  1  0
 27 24  2  0
M  END
$$$$
