CRE.pdb
     RDKit          3D

 27 26  0  0  1  0  0  0  0  0999 V2000
   26.7768  -10.1767  -17.7337 N   0  0  0  0  0  0  0  0  0  0  0  0
   25.9733  -11.0609  -16.9483 C   0  0  1  0  0  0  0  0  0  0  0  0
   26.4154  -11.1148  -15.4999 C   0  0  0  0  0  0  0  0  0  0  0  0
   28.0629  -11.8486  -15.3669 S   0  0  0  0  0  0  0  0  0  0  0  0
   24.5659  -10.6074  -16.9620 C   0  0  0  0  0  0  0  0  0  0  0  0
   24.3163   -9.3920  -16.9439 O   0  0  0  0  0  0  0  0  0  0  0  0
   18.9069  -14.3540  -15.4099 N   0  0  0  0  0  0  0  0  0  0  0  0
   17.7302  -13.7032  -15.8856 C   0  0  0  0  0  0  0  0  0  0  0  0
   16.6598  -13.7359  -15.1685 N   0  0  0  0  0  0  0  0  0  0  0  0
   17.7176  -13.0290  -17.1186 N   0  0  0  0  0  0  0  0  0  0  0  0
   18.9160  -13.0759  -17.9300 C   0  0  0  0  0  0  0  0  0  0  0  0
   19.7912  -11.8445  -17.7118 C   0  0  0  0  0  0  0  0  0  0  0  0
   21.1987  -12.2459  -17.4425 C   0  0  0  0  0  0  0  0  0  0  0  0
   22.1310  -11.1139  -17.1936 C   0  0  2  0  0  0  0  0  0  0  0  0
   23.4858  -11.5210  -16.9954 N   0  0  0  0  0  0  0  0  0  0  0  0
   21.6858  -10.2579  -16.0408 C   0  0  0  0  0  0  0  0  0  0  0  0
   21.8718  -10.5903  -14.8437 O   0  0  0  0  0  0  0  0  0  0  0  0
   15.7741  -13.3317  -15.5100 N   0  0  0  0  0  0  0  0  0  0  0  0
   21.0278   -9.0219  -16.2541 C   0  0  1  0  0  0  0  0  0  0  0  0
   20.5219   -8.1925  -15.1562 C   0  0  0  0  0  0  0  0  0  0  0  0
   21.4298   -7.0443  -14.8842 C   0  0  0  0  0  0  0  0  0  0  0  0
   20.9672   -6.0899  -13.8233 C   0  0  0  0  0  0  0  0  0  0  0  0
   22.0378   -5.0604  -13.5421 O   0  0  0  0  0  0  0  0  0  0  0  0
   22.5450   -4.9759  -12.4047 C   0  0  0  0  0  0  0  0  0  0  0  0
   19.1430   -7.7642  -15.4416 O   0  0  0  0  0  0  0  0  0  0  0  0
   18.6077   -8.0528  -16.7174 O   0  0  0  0  0  0  0  0  0  0  0  0
   22.4563   -4.2091  -14.5506 O   0  0  0  0  0  0  0  0  0  0  0  0
  2  5  1  0
  2  1  1  6
  3  4  1  0
  3  2  1  0
  5  6  2  0
  8  7  1  0
  8 10  1  0
  9  8  2  0
 11 10  1  0
 11 12  1  0
 13 12  1  0
 14 13  1  1
 14 15  1  0
 15  5  1  0
 16 14  1  0
 17 16  2  0
 18 16  1  0
 19 18  1  0
 19 24  1  0
 19 20  1  6
 21 20  1  0
 22 21  1  0
 23 22  2  0
 24 25  1  0
 26 22  1  0
 27 24  2  0
M  END
$$$$
