CRE.pdb
     RDKit          3D

 27 26  0  0  1  0  0  0  0  0999 V2000
   25.7739  -13.6267  -16.9991 N   0  0  0  0  0  0  0  0  0  0  0  0
   25.5350  -12.6095  -16.0232 C   0  0  1  0  0  0  0  0  0  0  0  0
   26.7651  -11.7682  -15.7485 C   0  0  0  0  0  0  0  0  0  0  0  0
   28.1215  -12.8046  -15.1515 S   0  0  0  0  0  0  0  0  0  0  0  0
   24.4742  -11.6955  -16.4986 C   0  0  0  0  0  0  0  0  0  0  0  0
   23.9477  -11.8947  -17.6044 O   0  0  0  0  0  0  0  0  0  0  0  0
   16.8137  -11.6954  -15.5195 N   0  0  0  0  0  0  0  0  0  0  0  0
   17.3240  -11.6501  -16.8508 C   0  0  0  0  0  0  0  0  0  0  0  0
   16.7048  -12.2881  -17.7837 N   0  0  0  0  0  0  0  0  0  0  0  0
   18.4865  -10.9242  -17.1618 N   0  0  0  0  0  0  0  0  0  0  0  0
   19.1764  -10.2519  -16.0807 C   0  0  0  0  0  0  0  0  0  0  0  0
   20.4815   -9.6179  -16.5548 C   0  0  0  0  0  0  0  0  0  0  0  0
   21.6418  -10.4729  -16.1840 C   0  0  0  0  0  0  0  0  0  0  0  0
   22.9445   -9.7580  -16.1180 C   0  0  2  0  0  0  0  0  0  0  0  0
   24.0363  -10.5925  -15.7279 N   0  0  0  0  0  0  0  0  0  0  0  0
   22.8831   -8.5528  -15.2216 C   0  0  0  0  0  0  0  0  0  0  0  0
   22.7984   -8.6464  -13.9717 O   0  0  0  0  0  0  0  0  0  0  0  0
   17.0207  -12.2414  -18.7648 N   0  0  0  0  0  0  0  0  0  0  0  0
   22.9183   -7.2398  -15.7517 C   0  0  2  0  0  0  0  0  0  0  0  0
   22.9559   -6.0432  -14.9056 C   0  0  0  0  0  0  0  0  0  0  0  0
   23.1639   -4.8133  -15.7185 C   0  0  0  0  0  0  0  0  0  0  0  0
   22.0555   -4.4703  -16.6694 C   0  0  0  0  0  0  0  0  0  0  0  0
   22.4338   -3.2668  -17.5023 O   0  0  0  0  0  0  0  0  0  0  0  0
   23.0604   -3.4146  -18.5717 C   0  0  0  0  0  0  0  0  0  0  0  0
   21.7406   -5.9721  -14.0784 O   0  0  0  0  0  0  0  0  0  0  0  0
   20.5844   -6.6436  -14.5363 O   0  0  0  0  0  0  0  0  0  0  0  0
   22.0835   -1.9969  -17.0762 O   0  0  0  0  0  0  0  0  0  0  0  0
  2  5  1  0
  2  1  1  6
  3  4  1  0
  3  2  1  0
  5  6  2  0
  8  7  1  0
  8 10  1  0
  9  8  2  0
 11 10  1  0
 11 12  1  0
 13 12  1  0
 14 13  1  1
 14 15  1  0
 15  5  1  0
 16 14  1  0
 17 16  2  0
 18 16  1  0
 19 18  1  0
 19 24  1  0
 19 20  1  6
 21 20  1  0
 22 21  1  0
 23 22  2  0
 24 25  1  0
 26 22  1  0
 27 24  2  0
M  END
$$$$
