CRE.pdb
     RDKit          3D

 27 26  0  0  1  0  0  0  0  0999 V2000
   27.1860  -21.7291  -20.1208 N   0  0  0  0  0  0  0  0  0  0  0  0
   27.1284  -20.4680  -19.4497 C   0  0  1  0  0  0  0  0  0  0  0  0
   26.4910  -19.3869  -20.2991 C   0  0  0  0  0  0  0  0  0  0  0  0
   27.5459  -18.9870  -21.7124 S   0  0  0  0  0  0  0  0  0  0  0  0
   26.3220  -20.5909  -18.2163 C   0  0  0  0  0  0  0  0  0  0  0  0
   25.3420  -21.3520  -18.2013 O   0  0  0  0  0  0  0  0  0  0  0  0
   27.6280  -21.3128  -10.8977 N   0  0  0  0  0  0  0  0  0  0  0  0
   26.5246  -20.5641  -10.3913 C   0  0  0  0  0  0  0  0  0  0  0  0
   25.8408  -21.0390   -9.4076 N   0  0  0  0  0  0  0  0  0  0  0  0
   26.1711  -19.3216  -10.9447 N   0  0  0  0  0  0  0  0  0  0  0  0
   26.7342  -18.9664  -12.2305 C   0  0  0  0  0  0  0  0  0  0  0  0
   25.8604  -19.4571  -13.3819 C   0  0  0  0  0  0  0  0  0  0  0  0
   26.6756  -19.6431  -14.6130 C   0  0  0  0  0  0  0  0  0  0  0  0
   25.8941  -19.9967  -15.8282 C   0  0  2  0  0  0  0  0  0  0  0  0
   26.6335  -19.8634  -17.0432 N   0  0  0  0  0  0  0  0  0  0  0  0
   24.6149  -19.2131  -15.9255 C   0  0  0  0  0  0  0  0  0  0  0  0
   24.5341  -18.1315  -16.5594 O   0  0  0  0  0  0  0  0  0  0  0  0
   25.0369  -20.5241   -9.0164 N   0  0  0  0  0  0  0  0  0  0  0  0
   23.4272  -19.6638  -15.2991 C   0  0  2  0  0  0  0  0  0  0  0  0
   22.0929  -19.2260  -15.7200 C   0  0  0  0  0  0  0  0  0  0  0  0
   21.8733  -19.4813  -17.1703 C   0  0  0  0  0  0  0  0  0  0  0  0
   21.5882  -20.9066  -17.5412 C   0  0  0  0  0  0  0  0  0  0  0  0
   21.3713  -21.0263  -19.0324 O   0  0  0  0  0  0  0  0  0  0  0  0
   21.7718  -20.1269  -19.7998 C   0  0  0  0  0  0  0  0  0  0  0  0
   21.0655  -19.8569  -14.8757 O   0  0  0  0  0  0  0  0  0  0  0  0
   21.4867  -20.7892  -13.9007 O   0  0  0  0  0  0  0  0  0  0  0  0
   20.7260  -22.1377  -19.5474 O   0  0  0  0  0  0  0  0  0  0  0  0
  2  5  1  0
  2  1  1  6
  3  4  1  0
  3  2  1  0
  5  6  2  0
  8  7  1  0
  8 10  1  0
  9  8  2  0
 11 10  1  0
 11 12  1  0
 13 12  1  0
 14 13  1  1
 14 15  1  0
 15  5  1  0
 16 14  1  0
 17 16  2  0
 18 16  1  0
 19 18  1  0
 19 24  1  0
 19 20  1  6
 21 20  1  0
 22 21  1  0
 23 22  2  0
 24 25  1  0
 26 22  1  0
 27 24  2  0
M  END
$$$$
