CRE.pdb
     RDKit          3D

 27 26  0  0  1  0  0  0  0  0999 V2000
   25.0062  -13.2961  -17.6727 N   0  0  0  0  0  0  0  0  0  0  0  0
   24.7625  -12.6359  -16.4282 C   0  0  1  0  0  0  0  0  0  0  0  0
   25.9984  -11.9480  -15.8842 C   0  0  0  0  0  0  0  0  0  0  0  0
   27.2975  -13.1581  -15.5399 S   0  0  0  0  0  0  0  0  0  0  0  0
   23.7234  -11.5986  -16.6040 C   0  0  0  0  0  0  0  0  0  0  0  0
   23.6669  -10.9660  -17.6700 O   0  0  0  0  0  0  0  0  0  0  0  0
   15.8926  -13.3271  -14.9987 N   0  0  0  0  0  0  0  0  0  0  0  0
   16.6532  -13.9399  -16.0382 C   0  0  0  0  0  0  0  0  0  0  0  0
   16.1398  -14.9200  -16.6991 N   0  0  0  0  0  0  0  0  0  0  0  0
   17.9486  -13.4952  -16.3532 N   0  0  0  0  0  0  0  0  0  0  0  0
   18.4646  -12.3469  -15.6378 C   0  0  0  0  0  0  0  0  0  0  0  0
   19.8465  -11.9430  -16.1449 C   0  0  0  0  0  0  0  0  0  0  0  0
   20.4030  -10.8374  -15.3186 C   0  0  0  0  0  0  0  0  0  0  0  0
   21.7363  -10.3446  -15.7566 C   0  0  2  0  0  0  0  0  0  0  0  0
   22.7837  -11.3013  -15.5885 N   0  0  0  0  0  0  0  0  0  0  0  0
   22.1134   -9.0567  -15.0792 C   0  0  0  0  0  0  0  0  0  0  0  0
   22.5941   -9.0214  -13.9190 O   0  0  0  0  0  0  0  0  0  0  0  0
   16.6920  -15.4433  -17.3959 N   0  0  0  0  0  0  0  0  0  0  0  0
   21.9421   -7.8083  -15.7259 C   0  0  2  0  0  0  0  0  0  0  0  0
   22.3436   -6.5370  -15.1160 C   0  0  0  0  0  0  0  0  0  0  0  0
   22.1172   -5.3967  -16.0461 C   0  0  0  0  0  0  0  0  0  0  0  0
   22.5248   -4.0486  -15.5294 C   0  0  0  0  0  0  0  0  0  0  0  0
   22.1658   -2.9738  -16.5298 O   0  0  0  0  0  0  0  0  0  0  0  0
   22.3713   -1.7721  -16.2619 C   0  0  0  0  0  0  0  0  0  0  0  0
   21.6563   -6.3568  -13.8270 O   0  0  0  0  0  0  0  0  0  0  0  0
   20.3194   -6.8018  -13.7184 O   0  0  0  0  0  0  0  0  0  0  0  0
   21.6071   -3.3249  -17.7470 O   0  0  0  0  0  0  0  0  0  0  0  0
  2  5  1  0
  2  1  1  6
  3  4  1  0
  3  2  1  0
  5  6  2  0
  8  7  1  0
  8 10  1  0
  9  8  2  0
 11 10  1  0
 11 12  1  0
 13 12  1  0
 14 13  1  1
 14 15  1  0
 15  5  1  0
 16 14  1  0
 17 16  2  0
 18 16  1  0
 19 18  1  0
 19 24  1  0
 19 20  1  6
 21 20  1  0
 22 21  1  0
 23 22  2  0
 24 25  1  0
 26 22  1  0
 27 24  2  0
M  END
$$$$
