CRE.pdb
     RDKit          3D

 27 26  0  0  1  0  0  0  0  0999 V2000
   23.9191  -20.0376   -7.4152 N   0  0  0  0  0  0  0  0  0  0  0  0
   23.5320  -20.9707   -8.4269 C   0  0  1  0  0  0  0  0  0  0  0  0
   22.0441  -21.2575   -8.4133 C   0  0  0  0  0  0  0  0  0  0  0  0
   21.6315  -22.4029   -7.0761 S   0  0  0  0  0  0  0  0  0  0  0  0
   23.8636  -20.4306   -9.7629 C   0  0  0  0  0  0  0  0  0  0  0  0
   23.4834  -19.2904  -10.0716 O   0  0  0  0  0  0  0  0  0  0  0  0
   27.0925  -22.3570  -16.5014 N   0  0  0  0  0  0  0  0  0  0  0  0
   27.8473  -21.1513  -16.6068 C   0  0  0  0  0  0  0  0  0  0  0  0
   27.9459  -20.5691  -17.7523 N   0  0  0  0  0  0  0  0  0  0  0  0
   28.4832  -20.5888  -15.4869 N   0  0  0  0  0  0  0  0  0  0  0  0
   28.0904  -21.0603  -14.1754 C   0  0  0  0  0  0  0  0  0  0  0  0
   26.6683  -20.6295  -13.8258 C   0  0  0  0  0  0  0  0  0  0  0  0
   26.2947  -21.1148  -12.4695 C   0  0  0  0  0  0  0  0  0  0  0  0
   24.9575  -20.6675  -11.9959 C   0  0  2  0  0  0  0  0  0  0  0  0
   24.6063  -21.1769  -10.7083 N   0  0  0  0  0  0  0  0  0  0  0  0
   23.8707  -20.9922  -12.9825 C   0  0  0  0  0  0  0  0  0  0  0  0
   23.4176  -22.1549  -13.1272 O   0  0  0  0  0  0  0  0  0  0  0  0
   28.5559  -19.7477  -17.8846 N   0  0  0  0  0  0  0  0  0  0  0  0
   23.3005  -19.9895  -13.8045 C   0  0  2  0  0  0  0  0  0  0  0  0
   22.2204  -20.2638  -14.7571 C   0  0  0  0  0  0  0  0  0  0  0  0
   21.2773  -19.1154  -14.8494 C   0  0  0  0  0  0  0  0  0  0  0  0
   20.1429  -19.1284  -13.8678 C   0  0  0  0  0  0  0  0  0  0  0  0
   19.2328  -17.9446  -14.1037 O   0  0  0  0  0  0  0  0  0  0  0  0
   18.2141  -17.7852  -13.4000 C   0  0  0  0  0  0  0  0  0  0  0  0
   22.7838  -20.6357  -16.0650 O   0  0  0  0  0  0  0  0  0  0  0  0
   21.9789  -21.3951  -16.9440 O   0  0  0  0  0  0  0  0  0  0  0  0
   19.5313  -17.0350  -15.1038 O   0  0  0  0  0  0  0  0  0  0  0  0
  2  5  1  0
  2  1  1  1
  3  4  1  0
  3  2  1  0
  5  6  2  0
  8  7  1  0
  8 10  1  0
  9  8  2  0
 11 10  1  0
 11 12  1  0
 13 12  1  0
 14 13  1  6
 14 15  1  0
 15  5  1  0
 16 14  1  0
 17 16  2  0
 18 16  1  0
 19 18  1  0
 19 24  1  0
 19 20  1  1
 21 20  1  0
 22 21  1  0
 23 22  2  0
 24 25  1  0
 26 22  1  0
 27 24  2  0
M  END
$$$$
