CRE.pdb
     RDKit          3D

 27 26  0  0  1  0  0  0  0  0999 V2000
   26.5821  -21.2223   -8.3989 N   0  0  0  0  0  0  0  0  0  0  0  0
   26.1025  -20.0918   -9.1313 C   0  0  1  0  0  0  0  0  0  0  0  0
   26.9878  -18.8734   -8.9636 C   0  0  0  0  0  0  0  0  0  0  0  0
   26.9003  -18.2550   -7.2665 S   0  0  0  0  0  0  0  0  0  0  0  0
   26.0597  -20.4091  -10.5749 C   0  0  0  0  0  0  0  0  0  0  0  0
   27.1194  -20.6207  -11.1848 O   0  0  0  0  0  0  0  0  0  0  0  0
   23.6838  -26.1123  -15.5413 N   0  0  0  0  0  0  0  0  0  0  0  0
   24.7586  -25.5671  -16.3043 C   0  0  0  0  0  0  0  0  0  0  0  0
   24.9002  -25.9229  -17.5349 N   0  0  0  0  0  0  0  0  0  0  0  0
   25.6630  -24.6517  -15.7395 N   0  0  0  0  0  0  0  0  0  0  0  0
   25.4383  -24.2315  -14.3722 C   0  0  0  0  0  0  0  0  0  0  0  0
   25.2725  -22.7175  -14.2693 C   0  0  0  0  0  0  0  0  0  0  0  0
   24.8955  -22.3269  -12.8837 C   0  0  0  0  0  0  0  0  0  0  0  0
   24.7677  -20.8612  -12.6642 C   0  0  2  0  0  0  0  0  0  0  0  0
   24.8403  -20.4797  -11.2895 N   0  0  0  0  0  0  0  0  0  0  0  0
   23.5134  -20.3050  -13.2784 C   0  0  0  0  0  0  0  0  0  0  0  0
   22.3959  -20.3753  -12.7087 O   0  0  0  0  0  0  0  0  0  0  0  0
   25.6421  -25.5188  -18.1270 N   0  0  0  0  0  0  0  0  0  0  0  0
   23.5341  -19.6681  -14.5433 C   0  0  2  0  0  0  0  0  0  0  0  0
   22.3362  -19.0911  -15.1609 C   0  0  0  0  0  0  0  0  0  0  0  0
   22.6950  -18.1156  -16.2270 C   0  0  0  0  0  0  0  0  0  0  0  0
   21.5431  -17.5613  -17.0120 C   0  0  0  0  0  0  0  0  0  0  0  0
   21.2102  -16.1649  -16.5381 O   0  0  0  0  0  0  0  0  0  0  0  0
   22.0932  -15.2830  -16.5123 C   0  0  0  0  0  0  0  0  0  0  0  0
   21.4559  -20.1633  -15.6523 O   0  0  0  0  0  0  0  0  0  0  0  0
   20.0595  -19.9898  -15.5207 O   0  0  0  0  0  0  0  0  0  0  0  0
   19.9212  -15.8646  -16.1317 O   0  0  0  0  0  0  0  0  0  0  0  0
  2  5  1  0
  2  1  1  1
  3  4  1  0
  3  2  1  0
  5  6  2  0
  8  7  1  0
  8 10  1  0
  9  8  2  0
 11 10  1  0
 11 12  1  0
 13 12  1  0
 14 13  1  1
 14 15  1  0
 15  5  1  0
 16 14  1  0
 17 16  2  0
 18 16  1  0
 19 18  1  0
 19 24  1  0
 19 20  1  1
 21 20  1  0
 22 21  1  0
 23 22  2  0
 24 25  1  0
 26 22  1  0
 27 24  2  0
M  END
$$$$
