TCA.pdb
     RDKit          3D

 19 18  0  0  1  0  0  0  0  0999 V2000
   11.2232  -15.8372   21.6833 C   0  0  0  0  0  0  0  0  0  0  0  0
   10.2069  -15.8811   20.5768 C   0  0  1  0  0  0  0  0  0  0  0  0
   10.7533  -16.3763   19.4196 O   0  0  0  0  0  0  0  0  0  0  0  0
    8.9614  -16.6669   20.9913 C   0  0  2  0  0  0  0  0  0  0  0  0
    8.0697  -16.6648   19.8166 N   0  0  0  0  0  0  0  0  0  0  0  0
    8.2745  -16.0805   22.1476 C   0  0  0  0  0  0  0  0  0  0  0  0
    7.4512  -15.1473   21.9836 O   0  0  0  0  0  0  0  0  0  0  0  0
    8.5435  -16.5710   23.4478 N   0  0  0  0  0  0  0  0  0  0  0  0
    7.9301  -15.9956   24.6366 C   0  0  1  0  0  0  0  0  0  0  0  0
    6.9661  -17.0128   25.1962 C   0  0  0  0  0  0  0  0  0  0  0  0
    7.8382  -18.5143   25.6951 S   0  0  0  0  0  0  0  0  0  0  0  0
    9.0090  -15.6618   25.5862 C   0  0  0  0  0  0  0  0  0  0  0  0
   10.1374  -16.2637   25.5617 O   0  0  0  0  0  0  0  0  0  0  0  0
    9.4809  -13.1313   28.3199 C   0  0  0  0  0  0  0  0  0  0  0  0
    9.9396  -14.3487   27.5365 C   0  0  2  0  0  0  0  0  0  0  0  0
    8.8857  -14.6598   26.5906 N   0  0  0  0  0  0  0  0  0  0  0  0
   10.2049  -15.4783   28.4609 C   0  0  0  0  0  0  0  0  0  0  0  0
   11.1304  -15.3201   29.2980 O   0  0  0  0  0  0  0  0  0  0  0  0
    9.5199  -16.6612   28.4623 O   0  0  0  0  0  0  0  0  0  0  0  0
  2  1  1  1
  2  3  1  0
  4  2  1  0
  4  5  1  6
  6  4  1  0
  7  6  2  0
  8  6  1  0
  9  8  1  0
  9 12  1  0
  9 10  1  1
 11 10  1  0
 12 16  1  0
 13 12  2  0
 15 14  1  1
 15 17  1  0
 16 15  1  0
 17 18  2  0
 17 19  1  0
M  END
$$$$
