TCA.pdb
     RDKit          3D

 19 18  0  0  1  0  0  0  0  0999 V2000
    8.6491  -20.0224   19.6590 C   0  0  0  0  0  0  0  0  0  0  0  0
    9.0596  -19.5010   18.3104 C   0  0  1  0  0  0  0  0  0  0  0  0
    8.6727  -20.3551   17.3086 O   0  0  0  0  0  0  0  0  0  0  0  0
    8.5342  -18.0836   18.0745 C   0  0  2  0  0  0  0  0  0  0  0  0
    9.0180  -17.6877   16.7387 N   0  0  0  0  0  0  0  0  0  0  0  0
    8.9997  -17.1263   19.0842 C   0  0  0  0  0  0  0  0  0  0  0  0
   10.2178  -16.8325   19.1584 O   0  0  0  0  0  0  0  0  0  0  0  0
    8.0704  -16.5356   19.9735 N   0  0  0  0  0  0  0  0  0  0  0  0
    8.4789  -15.6087   21.0198 C   0  0  1  0  0  0  0  0  0  0  0  0
    7.2362  -14.9405   21.5546 C   0  0  0  0  0  0  0  0  0  0  0  0
    7.5865  -14.0868   23.1079 S   0  0  0  0  0  0  0  0  0  0  0  0
    9.1919  -16.3809   22.0555 C   0  0  0  0  0  0  0  0  0  0  0  0
    8.7048  -17.4562   22.5482 O   0  0  0  0  0  0  0  0  0  0  0  0
   12.6707  -16.4413   23.3531 C   0  0  0  0  0  0  0  0  0  0  0  0
   11.2083  -16.8160   23.5179 C   0  0  2  0  0  0  0  0  0  0  0  0
   10.4587  -16.0000   22.5828 N   0  0  0  0  0  0  0  0  0  0  0  0
   10.7792  -16.5874   24.9195 C   0  0  0  0  0  0  0  0  0  0  0  0
    9.9311  -15.6784   25.1114 O   0  0  0  0  0  0  0  0  0  0  0  0
   11.2381  -17.2891   25.9990 O   0  0  0  0  0  0  0  0  0  0  0  0
  2  1  1  1
  2  3  1  0
  4  2  1  0
  4  5  1  6
  6  4  1  0
  7  6  2  0
  8  6  1  0
  9  8  1  0
  9 12  1  0
  9 10  1  1
 11 10  1  0
 12 16  1  0
 13 12  2  0
 15 14  1  1
 15 17  1  0
 16 15  1  0
 17 18  2  0
 17 19  1  0
M  END
$$$$
