TCA.pdb
     RDKit          3D

 19 18  0  0  1  0  0  0  0  0999 V2000
    7.5611  -20.5282   20.1140 C   0  0  0  0  0  0  0  0  0  0  0  0
    7.7784  -20.0568   18.7034 C   0  0  1  0  0  0  0  0  0  0  0  0
    7.0773  -20.8256   17.8089 O   0  0  0  0  0  0  0  0  0  0  0  0
    7.4435  -18.5717   18.5515 C   0  0  2  0  0  0  0  0  0  0  0  0
    7.6230  -18.2586   17.1216 N   0  0  0  0  0  0  0  0  0  0  0  0
    8.3005  -17.7062   19.3694 C   0  0  0  0  0  0  0  0  0  0  0  0
    9.4949  -17.5089   19.0377 O   0  0  0  0  0  0  0  0  0  0  0  0
    7.7756  -17.0948   20.5330 N   0  0  0  0  0  0  0  0  0  0  0  0
    8.5798  -16.2308   21.3859 C   0  0  1  0  0  0  0  0  0  0  0  0
    7.6366  -15.3848   22.2054 C   0  0  0  0  0  0  0  0  0  0  0  0
    8.5176  -14.5683   23.5549 S   0  0  0  0  0  0  0  0  0  0  0  0
    9.4352  -17.0922   22.2246 C   0  0  0  0  0  0  0  0  0  0  0  0
    8.9639  -18.1022   22.8523 O   0  0  0  0  0  0  0  0  0  0  0  0
   13.0527  -17.7176   22.5911 C   0  0  0  0  0  0  0  0  0  0  0  0
   11.6710  -17.7264   23.2212 C   0  0  2  0  0  0  0  0  0  0  0  0
   10.8314  -16.8745   22.4017 N   0  0  0  0  0  0  0  0  0  0  0  0
   11.7476  -17.2450   24.6223 C   0  0  0  0  0  0  0  0  0  0  0  0
   11.2337  -16.1227   24.8649 O   0  0  0  0  0  0  0  0  0  0  0  0
   12.3309  -17.9307   25.6509 O   0  0  0  0  0  0  0  0  0  0  0  0
  2  1  1  1
  2  3  1  0
  4  2  1  0
  4  5  1  6
  6  4  1  0
  7  6  2  0
  8  6  1  0
  9  8  1  0
  9 12  1  0
  9 10  1  1
 11 10  1  0
 12 16  1  0
 13 12  2  0
 15 14  1  6
 15 17  1  0
 16 15  1  0
 17 18  2  0
 17 19  1  0
M  END
$$$$
