TCA.pdb
     RDKit          3D

 19 18  0  0  1  0  0  0  0  0999 V2000
   13.2266  -20.0591   19.7255 C   0  0  0  0  0  0  0  0  0  0  0  0
   12.5067  -19.2047   18.7200 C   0  0  1  0  0  0  0  0  0  0  0  0
   11.8038  -19.9736   17.8271 O   0  0  0  0  0  0  0  0  0  0  0  0
   11.6070  -18.1733   19.4037 C   0  0  2  0  0  0  0  0  0  0  0  0
   10.8245  -17.5389   18.3266 N   0  0  0  0  0  0  0  0  0  0  0  0
   12.3631  -17.1571   20.1441 C   0  0  0  0  0  0  0  0  0  0  0  0
   13.1317  -16.3752   19.5330 O   0  0  0  0  0  0  0  0  0  0  0  0
   12.2223  -17.0617   21.5494 N   0  0  0  0  0  0  0  0  0  0  0  0
   13.0412  -16.1643   22.3522 C   0  0  1  0  0  0  0  0  0  0  0  0
   12.1609  -15.5734   23.4258 C   0  0  0  0  0  0  0  0  0  0  0  0
   11.3584  -16.8771   24.3851 S   0  0  0  0  0  0  0  0  0  0  0  0
   14.1588  -16.9494   22.9107 C   0  0  0  0  0  0  0  0  0  0  0  0
   14.0338  -18.1902   23.1952 O   0  0  0  0  0  0  0  0  0  0  0  0
   17.8252  -16.3736   23.3172 C   0  0  0  0  0  0  0  0  0  0  0  0
   16.5814  -17.2010   23.5902 C   0  0  2  0  0  0  0  0  0  0  0  0
   15.4462  -16.4006   23.1747 N   0  0  0  0  0  0  0  0  0  0  0  0
   16.5117  -17.5554   25.0291 C   0  0  0  0  0  0  0  0  0  0  0  0
   15.7056  -16.8976   25.7363 O   0  0  0  0  0  0  0  0  0  0  0  0
   17.2545  -18.5346   25.6272 O   0  0  0  0  0  0  0  0  0  0  0  0
  2  1  1  1
  2  3  1  0
  4  2  1  0
  4  5  1  6
  6  4  1  0
  7  6  2  0
  8  6  1  0
  9  8  1  0
  9 12  1  0
  9 10  1  1
 11 10  1  0
 12 16  1  0
 13 12  2  0
 15 14  1  1
 15 17  1  0
 16 15  1  0
 17 18  2  0
 17 19  1  0
M  END
$$$$
