TCA.pdb
     RDKit          3D

 19 18  0  0  1  0  0  0  0  0999 V2000
    7.1948  -16.0744   19.9535 C   0  0  0  0  0  0  0  0  0  0  0  0
    7.9191  -14.9415   19.2819 C   0  0  1  0  0  0  0  0  0  0  0  0
    7.6348  -14.8958   17.9403 O   0  0  0  0  0  0  0  0  0  0  0  0
    7.6235  -13.6048   19.9649 C   0  0  2  0  0  0  0  0  0  0  0  0
    8.2109  -12.5665   19.0977 N   0  0  0  0  0  0  0  0  0  0  0  0
    8.1909  -13.5153   21.3149 C   0  0  0  0  0  0  0  0  0  0  0  0
    9.4271  -13.3619   21.4690 O   0  0  0  0  0  0  0  0  0  0  0  0
    7.3393  -13.6022   22.4422 N   0  0  0  0  0  0  0  0  0  0  0  0
    7.8565  -13.6972   23.8001 C   0  0  1  0  0  0  0  0  0  0  0  0
    6.7781  -13.2154   24.7391 C   0  0  0  0  0  0  0  0  0  0  0  0
    7.1997  -13.6055   26.4520 S   0  0  0  0  0  0  0  0  0  0  0  0
    8.2282  -15.1040   24.0454 C   0  0  0  0  0  0  0  0  0  0  0  0
    7.3900  -16.0581   23.8927 O   0  0  0  0  0  0  0  0  0  0  0  0
   11.2694  -17.0990   24.1215 C   0  0  0  0  0  0  0  0  0  0  0  0
    9.8872  -16.8909   24.7152 C   0  0  2  0  0  0  0  0  0  0  0  0
    9.5275  -15.5088   24.4651 N   0  0  0  0  0  0  0  0  0  0  0  0
    9.9036  -17.2048   26.1651 C   0  0  0  0  0  0  0  0  0  0  0  0
    9.6481  -16.2579   26.9529 O   0  0  0  0  0  0  0  0  0  0  0  0
   10.1740  -18.4365   26.6925 O   0  0  0  0  0  0  0  0  0  0  0  0
  2  1  1  1
  2  3  1  0
  4  2  1  0
  4  5  1  6
  6  4  1  0
  7  6  2  0
  8  6  1  0
  9  8  1  0
  9 12  1  0
  9 10  1  1
 11 10  1  0
 12 16  1  0
 13 12  2  0
 15 14  1  1
 15 17  1  0
 16 15  1  0
 17 18  2  0
 17 19  1  0
M  END
$$$$
