TCA.pdb
     RDKit          3D

 19 18  0  0  1  0  0  0  0  0999 V2000
    6.4592  -15.5941   20.6227 C   0  0  0  0  0  0  0  0  0  0  0  0
    7.3302  -14.6480   19.8445 C   0  0  1  0  0  0  0  0  0  0  0  0
    6.9086  -14.5409   18.5431 O   0  0  0  0  0  0  0  0  0  0  0  0
    7.4149  -13.2791   20.5222 C   0  0  2  0  0  0  0  0  0  0  0  0
    8.2140  -12.4280   19.6210 N   0  0  0  0  0  0  0  0  0  0  0  0
    8.0395  -13.3359   21.8486 C   0  0  0  0  0  0  0  0  0  0  0  0
    9.2860  -13.4407   21.9531 O   0  0  0  0  0  0  0  0  0  0  0  0
    7.2317  -13.2718   23.0091 N   0  0  0  0  0  0  0  0  0  0  0  0
    7.7735  -13.4810   24.3444 C   0  0  1  0  0  0  0  0  0  0  0  0
    6.7899  -12.9095   25.3358 C   0  0  0  0  0  0  0  0  0  0  0  0
    7.2976  -13.2832   27.0290 S   0  0  0  0  0  0  0  0  0  0  0  0
    7.9784  -14.9307   24.5278 C   0  0  0  0  0  0  0  0  0  0  0  0
    7.0100  -15.7626   24.4495 O   0  0  0  0  0  0  0  0  0  0  0  0
   10.4272  -17.4640   24.1045 C   0  0  0  0  0  0  0  0  0  0  0  0
    9.4284  -16.9187   25.1102 C   0  0  2  0  0  0  0  0  0  0  0  0
    9.2486  -15.5134   24.8022 N   0  0  0  0  0  0  0  0  0  0  0  0
    9.9330  -17.1227   26.4903 C   0  0  0  0  0  0  0  0  0  0  0  0
   10.1170  -18.3121   26.8563 O   0  0  0  0  0  0  0  0  0  0  0  0
   10.2066  -16.1184   27.3762 O   0  0  0  0  0  0  0  0  0  0  0  0
  2  1  1  1
  2  3  1  0
  4  2  1  0
  4  5  1  6
  6  4  1  0
  7  6  2  0
  8  6  1  0
  9  8  1  0
  9 12  1  0
  9 10  1  1
 11 10  1  0
 12 16  1  0
 13 12  2  0
 15 14  1  6
 15 17  1  0
 16 15  1  0
 17 18  2  0
 17 19  1  0
M  END
$$$$
