TCA.pdb
     RDKit          3D

 19 18  0  0  1  0  0  0  0  0999 V2000
    7.7061  -18.5985   18.2446 C   0  0  0  0  0  0  0  0  0  0  0  0
    8.3201  -17.8784   17.0768 C   0  0  1  0  0  0  0  0  0  0  0  0
    7.8281  -18.3518   15.8867 O   0  0  0  0  0  0  0  0  0  0  0  0
    8.1413  -16.3637   17.1961 C   0  0  2  0  0  0  0  0  0  0  0  0
    8.6338  -15.7950   15.9277 N   0  0  0  0  0  0  0  0  0  0  0  0
    8.8783  -15.7887   18.3270 C   0  0  0  0  0  0  0  0  0  0  0  0
   10.1204  -15.6242   18.2502 O   0  0  0  0  0  0  0  0  0  0  0  0
    8.1838  -15.4203   19.5040 N   0  0  0  0  0  0  0  0  0  0  0  0
    8.8614  -14.8429   20.6564 C   0  0  1  0  0  0  0  0  0  0  0  0
    7.8468  -14.0410   21.4338 C   0  0  0  0  0  0  0  0  0  0  0  0
    6.4852  -15.0931   21.9845 S   0  0  0  0  0  0  0  0  0  0  0  0
    9.4295  -15.9503   21.4491 C   0  0  0  0  0  0  0  0  0  0  0  0
    8.8864  -17.1082   21.4739 O   0  0  0  0  0  0  0  0  0  0  0  0
   12.7138  -16.7361   22.8832 C   0  0  0  0  0  0  0  0  0  0  0  0
   11.2096  -16.9336   22.9518 C   0  0  2  0  0  0  0  0  0  0  0  0
   10.6083  -15.8240   22.2380 N   0  0  0  0  0  0  0  0  0  0  0  0
   10.7672  -16.9863   24.3668 C   0  0  0  0  0  0  0  0  0  0  0  0
   10.0460  -16.0380   24.7708 O   0  0  0  0  0  0  0  0  0  0  0  0
   11.0872  -17.9823   25.2465 O   0  0  0  0  0  0  0  0  0  0  0  0
  2  1  1  1
  2  3  1  0
  4  2  1  0
  4  5  1  6
  6  4  1  0
  7  6  2  0
  8  6  1  0
  9  8  1  0
  9 12  1  0
  9 10  1  1
 11 10  1  0
 12 16  1  0
 13 12  2  0
 15 14  1  1
 15 17  1  0
 16 15  1  0
 17 18  2  0
 17 19  1  0
M  END
$$$$
