TCA.pdb
     RDKit          3D

 19 18  0  0  1  0  0  0  0  0999 V2000
    7.9753  -16.8121   14.8571 C   0  0  0  0  0  0  0  0  0  0  0  0
    8.3519  -15.5836   14.0772 C   0  0  1  0  0  0  0  0  0  0  0  0
    7.9057  -15.6611   12.7820 O   0  0  0  0  0  0  0  0  0  0  0  0
    7.8586  -14.3099   14.7663 C   0  0  2  0  0  0  0  0  0  0  0  0
    8.1417  -13.2057   13.8305 N   0  0  0  0  0  0  0  0  0  0  0  0
    8.5197  -14.0635   16.0527 C   0  0  0  0  0  0  0  0  0  0  0  0
    9.7484  -13.8097   16.0902 O   0  0  0  0  0  0  0  0  0  0  0  0
    7.7670  -14.1129   17.2504 N   0  0  0  0  0  0  0  0  0  0  0  0
    8.3741  -13.9057   18.5576 C   0  0  1  0  0  0  0  0  0  0  0  0
    7.2609  -13.7073   19.5568 C   0  0  0  0  0  0  0  0  0  0  0  0
    7.9105  -13.6839   21.2425 S   0  0  0  0  0  0  0  0  0  0  0  0
    9.2013  -15.0882   18.8652 C   0  0  0  0  0  0  0  0  0  0  0  0
    8.8205  -16.2723   18.5663 O   0  0  0  0  0  0  0  0  0  0  0  0
   12.7238  -15.7478   19.7445 C   0  0  0  0  0  0  0  0  0  0  0  0
   11.2694  -16.1762   19.8311 C   0  0  2  0  0  0  0  0  0  0  0  0
   10.4694  -15.0109   19.5086 N   0  0  0  0  0  0  0  0  0  0  0  0
   10.9714  -16.6936   21.1892 C   0  0  0  0  0  0  0  0  0  0  0  0
   10.1281  -16.0522   21.8675 O   0  0  0  0  0  0  0  0  0  0  0  0
   11.5444  -17.8042   21.7428 O   0  0  0  0  0  0  0  0  0  0  0  0
  2  1  1  1
  2  3  1  0
  4  2  1  0
  4  5  1  6
  6  4  1  0
  7  6  2  0
  8  6  1  0
  9  8  1  0
  9 12  1  0
  9 10  1  1
 11 10  1  0
 12 16  1  0
 13 12  2  0
 15 14  1  1
 15 17  1  0
 16 15  1  0
 17 18  2  0
 17 19  1  0
M  END
$$$$
