VVK.pdb
     RDKit          3D

 24 23  0  0  1  0  0  0  0  0999 V2000
    7.9323  -18.7086   17.9055 C   0  0  0  0  0  0  0  0  0  0  0  0
    8.4550  -18.1293   16.6180 C   0  0  1  0  0  0  0  0  0  0  0  0
    7.8642  -18.7300   15.3853 C   0  0  0  0  0  0  0  0  0  0  0  0
    8.5366  -16.6473   16.5767 C   0  0  2  0  0  0  0  0  0  0  0  0
    9.2608  -16.1635   15.3983 N   0  0  0  0  0  0  0  0  0  0  0  0
    9.0686  -15.9650   17.7504 C   0  0  0  0  0  0  0  0  0  0  0  0
   10.3482  -15.8739   17.9180 O   0  0  0  0  0  0  0  0  0  0  0  0
    8.0579  -12.5237   19.5228 C   0  0  0  0  0  0  0  0  0  0  0  0
    8.1726  -13.6115   20.5454 C   0  0  1  0  0  0  0  0  0  0  0  0
    6.8728  -14.0308   21.1357 C   0  0  0  0  0  0  0  0  0  0  0  0
    8.9643  -14.7479   19.9517 C   0  0  2  0  0  0  0  0  0  0  0  0
    8.3433  -15.3466   18.8020 N   0  0  0  0  0  0  0  0  0  0  0  0
    9.3573  -15.7437   20.9982 C   0  0  0  0  0  0  0  0  0  0  0  0
    8.6385  -16.7613   21.0840 O   0  0  0  0  0  0  0  0  0  0  0  0
   10.4515  -15.5512   21.8228 N   0  0  0  0  0  0  0  0  0  0  0  0
   11.0444  -16.5790   22.6448 C   0  0  1  0  0  0  0  0  0  0  0  0
   12.5317  -16.6148   22.5461 C   0  0  0  0  0  0  0  0  0  0  0  0
   13.1880  -17.6908   23.3728 C   0  0  0  0  0  0  0  0  0  0  0  0
   14.6712  -17.6283   23.2598 C   0  0  0  0  0  0  0  0  0  0  0  0
   15.3729  -18.6815   24.0920 C   0  0  0  0  0  0  0  0  0  0  0  0
   16.8099  -18.5627   24.0264 N   0  0  0  0  0  0  0  0  0  0  0  0
   10.6166  -16.3625   24.0554 C   0  0  0  0  0  0  0  0  0  0  0  0
   10.7636  -17.2904   25.0681 O   0  0  0  0  0  0  0  0  0  0  0  0
   10.0850  -15.2566   24.3496 O   0  0  0  0  0  0  0  0  0  0  0  0
  2  1  1  1
  2  3  1  0
  4  6  1  0
  4  2  1  0
  4  5  1  6
  6  7  2  0
  9  8  1  6
  9 11  1  0
 10  9  1  0
 11 12  1  6
 12  6  1  0
 13 14  2  0
 13 11  1  0
 15 13  1  0
 16 15  1  0
 16 17  1  1
 17 18  1  0
 19 20  1  0
 19 18  1  0
 21 20  1  0
 22 16  1  0
 23 22  1  0
 24 22  2  0
M  END
$$$$
