VVK.pdb
     RDKit          3D

 24 23  0  0  1  0  0  0  0  0999 V2000
   10.7613  -13.9198   28.6756 C   0  0  0  0  0  0  0  0  0  0  0  0
   10.5460  -15.2738   29.2977 C   0  0  1  0  0  0  0  0  0  0  0  0
   11.0008  -15.3818   30.7158 C   0  0  0  0  0  0  0  0  0  0  0  0
    9.2121  -15.8786   29.0535 C   0  0  2  0  0  0  0  0  0  0  0  0
    9.1386  -17.2670   29.5164 N   0  0  0  0  0  0  0  0  0  0  0  0
    8.6803  -15.8218   27.6971 C   0  0  0  0  0  0  0  0  0  0  0  0
    8.6372  -16.8953   26.9764 O   0  0  0  0  0  0  0  0  0  0  0  0
    7.8807  -12.2963   25.5290 C   0  0  0  0  0  0  0  0  0  0  0  0
    7.0104  -13.4712   25.2061 C   0  0  1  0  0  0  0  0  0  0  0  0
    6.5393  -13.5097   23.7954 C   0  0  0  0  0  0  0  0  0  0  0  0
    7.7169  -14.7279   25.6445 C   0  0  2  0  0  0  0  0  0  0  0  0
    8.1704  -14.6908   27.0078 N   0  0  0  0  0  0  0  0  0  0  0  0
    8.7886  -15.1174   24.6744 C   0  0  0  0  0  0  0  0  0  0  0  0
    9.9078  -14.5933   24.8545 O   0  0  0  0  0  0  0  0  0  0  0  0
    8.5564  -16.0052   23.6390 N   0  0  0  0  0  0  0  0  0  0  0  0
    9.5852  -16.5517   22.7866 C   0  0  1  0  0  0  0  0  0  0  0  0
    9.0704  -17.5898   21.8485 C   0  0  0  0  0  0  0  0  0  0  0  0
    9.9842  -18.7741   21.6631 C   0  0  0  0  0  0  0  0  0  0  0  0
    9.3946  -19.7686   20.7250 C   0  0  0  0  0  0  0  0  0  0  0  0
   10.2964  -20.9614   20.4838 C   0  0  0  0  0  0  0  0  0  0  0  0
   10.1653  -21.9635   21.5144 N   0  0  0  0  0  0  0  0  0  0  0  0
   10.2208  -15.4333   22.0350 C   0  0  0  0  0  0  0  0  0  0  0  0
   11.5842  -15.2417   21.9235 O   0  0  0  0  0  0  0  0  0  0  0  0
    9.4655  -14.6033   21.4581 O   0  0  0  0  0  0  0  0  0  0  0  0
  2  1  1  1
  2  3  1  0
  4  6  1  0
  4  2  1  0
  4  5  1  6
  6  7  2  0
  9  8  1  6
  9 11  1  0
 10  9  1  0
 11 12  1  1
 12  6  1  0
 13 14  2  0
 13 11  1  0
 15 13  1  0
 16 15  1  0
 16 17  1  6
 17 18  1  0
 19 20  1  0
 19 18  1  0
 21 20  1  0
 22 16  1  0
 23 22  1  0
 24 22  2  0
M  END
$$$$
