VVK.pdb
     RDKit          3D

 24 23  0  0  1  0  0  0  0  0999 V2000
    6.1210  -16.3193   20.0138 C   0  0  0  0  0  0  0  0  0  0  0  0
    6.8803  -16.0949   21.2942 C   0  0  1  0  0  0  0  0  0  0  0  0
    7.8516  -17.1767   21.6345 C   0  0  0  0  0  0  0  0  0  0  0  0
    7.4273  -14.7264   21.4752 C   0  0  2  0  0  0  0  0  0  0  0  0
    8.4108  -14.3806   20.4454 N   0  0  0  0  0  0  0  0  0  0  0  0
    7.9922  -14.3888   22.7763 C   0  0  0  0  0  0  0  0  0  0  0  0
    9.2618  -14.5266   22.9830 O   0  0  0  0  0  0  0  0  0  0  0  0
    5.8082  -13.5225   26.3661 C   0  0  0  0  0  0  0  0  0  0  0  0
    7.1321  -12.8575   26.1487 C   0  0  1  0  0  0  0  0  0  0  0  0
    7.8520  -12.5109   27.4038 C   0  0  0  0  0  0  0  0  0  0  0  0
    7.9424  -13.6991   25.1971 C   0  0  2  0  0  0  0  0  0  0  0  0
    7.3110  -13.9001   23.9216 N   0  0  0  0  0  0  0  0  0  0  0  0
    8.3914  -14.9730   25.8427 C   0  0  0  0  0  0  0  0  0  0  0  0
    7.5329  -15.8758   25.9294 O   0  0  0  0  0  0  0  0  0  0  0  0
    9.6802  -15.1433   26.3162 N   0  0  0  0  0  0  0  0  0  0  0  0
   10.1778  -16.3625   26.9074 C   0  0  1  0  0  0  0  0  0  0  0  0
   11.4044  -16.8759   26.2330 C   0  0  0  0  0  0  0  0  0  0  0  0
   11.3358  -18.3264   25.8290 C   0  0  0  0  0  0  0  0  0  0  0  0
   12.1149  -18.5773   24.5854 C   0  0  0  0  0  0  0  0  0  0  0  0
   11.9265  -19.9784   24.0417 C   0  0  0  0  0  0  0  0  0  0  0  0
   12.6370  -20.1843   22.8023 N   0  0  0  0  0  0  0  0  0  0  0  0
   10.4377  -16.1157   28.3536 C   0  0  0  0  0  0  0  0  0  0  0  0
   10.7655  -17.0980   29.2677 O   0  0  0  0  0  0  0  0  0  0  0  0
   10.3555  -14.9294   28.7756 O   0  0  0  0  0  0  0  0  0  0  0  0
  2  1  1  6
  2  3  1  0
  4  6  1  0
  4  2  1  0
  4  5  1  6
  6  7  2  0
  9  8  1  1
  9 11  1  0
 10  9  1  0
 11 12  1  6
 12  6  1  0
 13 14  2  0
 13 11  1  0
 15 13  1  0
 16 15  1  0
 16 17  1  6
 17 18  1  0
 19 20  1  0
 19 18  1  0
 21 20  1  0
 22 16  1  0
 23 22  1  0
 24 22  2  0
M  END
$$$$
