VVK.pdb
     RDKit          3D

 24 23  0  0  1  0  0  0  0  0999 V2000
    8.5230  -12.1732   25.9997 C   0  0  0  0  0  0  0  0  0  0  0  0
    7.0891  -12.3908   26.4033 C   0  0  1  0  0  0  0  0  0  0  0  0
    6.4444  -11.2113   27.0536 C   0  0  0  0  0  0  0  0  0  0  0  0
    6.2352  -13.0463   25.3807 C   0  0  2  0  0  0  0  0  0  0  0  0
    4.9888  -13.5670   25.9486 N   0  0  0  0  0  0  0  0  0  0  0  0
    6.8375  -14.0947   24.5658 C   0  0  0  0  0  0  0  0  0  0  0  0
    6.8596  -15.3139   24.9979 O   0  0  0  0  0  0  0  0  0  0  0  0
    8.9660  -15.9970   20.5313 C   0  0  0  0  0  0  0  0  0  0  0  0
    8.3226  -14.7880   21.1367 C   0  0  1  0  0  0  0  0  0  0  0  0
    7.1107  -14.3174   20.4131 C   0  0  0  0  0  0  0  0  0  0  0  0
    8.0909  -15.0497   22.6024 C   0  0  2  0  0  0  0  0  0  0  0  0
    7.4409  -13.9663   23.2876 N   0  0  0  0  0  0  0  0  0  0  0  0
    9.3444  -15.5108   23.2787 C   0  0  0  0  0  0  0  0  0  0  0  0
   10.0800  -14.6134   23.7404 O   0  0  0  0  0  0  0  0  0  0  0  0
    9.6713  -16.8508   23.3876 N   0  0  0  0  0  0  0  0  0  0  0  0
   10.7916  -17.3585   24.1433 C   0  0  1  0  0  0  0  0  0  0  0  0
   10.4970  -18.6558   24.8165 C   0  0  0  0  0  0  0  0  0  0  0  0
   11.6872  -19.3012   25.4791 C   0  0  0  0  0  0  0  0  0  0  0  0
   11.3497  -20.6584   25.9898 C   0  0  0  0  0  0  0  0  0  0  0  0
   12.5259  -21.3543   26.6428 C   0  0  0  0  0  0  0  0  0  0  0  0
   12.2266  -22.7220   26.9935 N   0  0  0  0  0  0  0  0  0  0  0  0
   11.9580  -17.4952   23.2266 C   0  0  0  0  0  0  0  0  0  0  0  0
   13.2730  -17.2955   23.5995 O   0  0  0  0  0  0  0  0  0  0  0  0
   11.7338  -17.8171   22.0273 O   0  0  0  0  0  0  0  0  0  0  0  0
  2  1  1  6
  2  3  1  0
  4  6  1  0
  4  2  1  0
  4  5  1  1
  6  7  2  0
  9  8  1  6
  9 11  1  0
 10  9  1  0
 11 12  1  1
 12  6  1  0
 13 14  2  0
 13 11  1  0
 15 13  1  0
 16 15  1  0
 16 17  1  6
 17 18  1  0
 19 20  1  0
 19 18  1  0
 21 20  1  0
 22 16  1  0
 23 22  1  0
 24 22  2  0
M  END
$$$$
