VVK.pdb
     RDKit          3D

 24 23  0  0  1  0  0  0  0  0999 V2000
    6.6744  -19.9997   16.8905 C   0  0  0  0  0  0  0  0  0  0  0  0
    7.4527  -19.1181   17.8305 C   0  0  1  0  0  0  0  0  0  0  0  0
    8.5352  -19.8199   18.5823 C   0  0  0  0  0  0  0  0  0  0  0  0
    7.8708  -17.8080   17.2706 C   0  0  2  0  0  0  0  0  0  0  0  0
    8.7872  -17.9555   16.1368 N   0  0  0  0  0  0  0  0  0  0  0  0
    8.4373  -16.8279   18.1896 C   0  0  0  0  0  0  0  0  0  0  0  0
    9.7177  -16.7752   18.3666 O   0  0  0  0  0  0  0  0  0  0  0  0
    6.3303  -14.1843   20.9120 C   0  0  0  0  0  0  0  0  0  0  0  0
    7.5776  -13.7405   20.2122 C   0  0  1  0  0  0  0  0  0  0  0  0
    8.3384  -12.6862   20.9356 C   0  0  0  0  0  0  0  0  0  0  0  0
    8.3988  -14.9581   19.8750 C   0  0  2  0  0  0  0  0  0  0  0  0
    7.7469  -15.8620   18.9674 N   0  0  0  0  0  0  0  0  0  0  0  0
    8.9129  -15.6283   21.1109 C   0  0  0  0  0  0  0  0  0  0  0  0
    8.1570  -16.4767   21.6293 O   0  0  0  0  0  0  0  0  0  0  0  0
   10.1516  -15.3284   21.6494 N   0  0  0  0  0  0  0  0  0  0  0  0
   10.7356  -16.0080   22.7812 C   0  0  1  0  0  0  0  0  0  0  0  0
   12.1894  -15.7201   22.9438 C   0  0  0  0  0  0  0  0  0  0  0  0
   13.0482  -16.9397   23.1610 C   0  0  0  0  0  0  0  0  0  0  0  0
   14.4925  -16.5809   23.2066 C   0  0  0  0  0  0  0  0  0  0  0  0
   15.3994  -17.7896   23.3087 C   0  0  0  0  0  0  0  0  0  0  0  0
   16.7899  -17.4470   23.1284 N   0  0  0  0  0  0  0  0  0  0  0  0
    9.9828  -15.6195   24.0068 C   0  0  0  0  0  0  0  0  0  0  0  0
    9.7406  -16.4610   25.0751 O   0  0  0  0  0  0  0  0  0  0  0  0
    9.5358  -14.4417   24.0784 O   0  0  0  0  0  0  0  0  0  0  0  0
  2  1  1  6
  2  3  1  0
  4  6  1  0
  4  2  1  0
  4  5  1  6
  6  7  2  0
  9  8  1  1
  9 11  1  0
 10  9  1  0
 11 12  1  1
 12  6  1  0
 13 14  2  0
 13 11  1  0
 15 13  1  0
 16 15  1  0
 16 17  1  1
 17 18  1  0
 19 20  1  0
 19 18  1  0
 21 20  1  0
 22 16  1  0
 23 22  1  0
 24 22  2  0
M  END
$$$$
