VVK.pdb
     RDKit          3D

 24 23  0  0  1  0  0  0  0  0999 V2000
    8.5729  -11.9441   26.1582 C   0  0  0  0  0  0  0  0  0  0  0  0
    7.2097  -12.2688   26.7085 C   0  0  1  0  0  0  0  0  0  0  0  0
    6.5426  -11.1352   27.4153 C   0  0  0  0  0  0  0  0  0  0  0  0
    6.3110  -13.0035   25.7827 C   0  0  2  0  0  0  0  0  0  0  0  0
    5.1328  -13.5450   26.4653 N   0  0  0  0  0  0  0  0  0  0  0  0
    6.8950  -14.0647   24.9710 C   0  0  0  0  0  0  0  0  0  0  0  0
    7.0348  -15.2517   25.4660 O   0  0  0  0  0  0  0  0  0  0  0  0
    8.9332  -16.0062   20.8986 C   0  0  0  0  0  0  0  0  0  0  0  0
    8.2524  -14.8102   21.4886 C   0  0  1  0  0  0  0  0  0  0  0  0
    7.0168  -14.3974   20.7698 C   0  0  0  0  0  0  0  0  0  0  0  0
    8.0453  -15.0527   22.9614 C   0  0  2  0  0  0  0  0  0  0  0  0
    7.3618  -13.9816   23.6333 N   0  0  0  0  0  0  0  0  0  0  0  0
    9.3219  -15.4537   23.6326 C   0  0  0  0  0  0  0  0  0  0  0  0
   10.1571  -14.5424   23.8111 O   0  0  0  0  0  0  0  0  0  0  0  0
    9.5652  -16.7555   24.0330 N   0  0  0  0  0  0  0  0  0  0  0  0
   10.7384  -17.1801   24.7590 C   0  0  1  0  0  0  0  0  0  0  0  0
   10.4881  -18.3709   25.6205 C   0  0  0  0  0  0  0  0  0  0  0  0
   11.7034  -18.8805   26.3521 C   0  0  0  0  0  0  0  0  0  0  0  0
   11.3874  -20.1082   27.1328 C   0  0  0  0  0  0  0  0  0  0  0  0
   12.5687  -20.6239   27.9284 C   0  0  0  0  0  0  0  0  0  0  0  0
   12.2322  -21.7851   28.7169 N   0  0  0  0  0  0  0  0  0  0  0  0
   11.8258  -17.4595   23.7795 C   0  0  0  0  0  0  0  0  0  0  0  0
   13.1538  -17.1309   23.9710 O   0  0  0  0  0  0  0  0  0  0  0  0
   11.5170  -18.0372   22.7011 O   0  0  0  0  0  0  0  0  0  0  0  0
  2  1  1  6
  2  3  1  0
  4  6  1  0
  4  2  1  0
  4  5  1  1
  6  7  2  0
  9  8  1  6
  9 11  1  0
 10  9  1  0
 11 12  1  1
 12  6  1  0
 13 14  2  0
 13 11  1  0
 15 13  1  0
 16 15  1  0
 16 17  1  6
 17 18  1  0
 19 20  1  0
 19 18  1  0
 21 20  1  0
 22 16  1  0
 23 22  1  0
 24 22  2  0
M  END
$$$$
