VVK.pdb
     RDKit          3D

 24 23  0  0  1  0  0  0  0  0999 V2000
    7.9987  -11.7088   25.9488 C   0  0  0  0  0  0  0  0  0  0  0  0
    6.8160  -12.3452   26.6291 C   0  0  1  0  0  0  0  0  0  0  0  0
    5.9091  -11.3819   27.3213 C   0  0  0  0  0  0  0  0  0  0  0  0
    6.0970  -13.3666   25.8263 C   0  0  2  0  0  0  0  0  0  0  0  0
    5.1699  -14.1595   26.6381 N   0  0  0  0  0  0  0  0  0  0  0  0
    6.8970  -14.2830   25.0224 C   0  0  0  0  0  0  0  0  0  0  0  0
    7.3387  -15.3810   25.5449 O   0  0  0  0  0  0  0  0  0  0  0  0
    8.8527  -15.9967   20.8148 C   0  0  0  0  0  0  0  0  0  0  0  0
    8.1704  -14.8371   21.4721 C   0  0  1  0  0  0  0  0  0  0  0  0
    6.8907  -14.4386   20.8262 C   0  0  0  0  0  0  0  0  0  0  0  0
    8.0422  -15.1268   22.9453 C   0  0  2  0  0  0  0  0  0  0  0  0
    7.2865  -14.1388   23.6653 N   0  0  0  0  0  0  0  0  0  0  0  0
    9.3750  -15.4179   23.5617 C   0  0  0  0  0  0  0  0  0  0  0  0
   10.0991  -14.4275   23.7948 O   0  0  0  0  0  0  0  0  0  0  0  0
    9.7833  -16.7064   23.8571 N   0  0  0  0  0  0  0  0  0  0  0  0
   10.9724  -17.0337   24.6073 C   0  0  1  0  0  0  0  0  0  0  0  0
   10.7424  -18.1015   25.6221 C   0  0  0  0  0  0  0  0  0  0  0  0
   11.9789  -18.5311   26.3696 C   0  0  0  0  0  0  0  0  0  0  0  0
   11.6694  -19.6079   27.3500 C   0  0  0  0  0  0  0  0  0  0  0  0
   12.8261  -19.9121   28.2794 C   0  0  0  0  0  0  0  0  0  0  0  0
   12.4382  -20.7712   29.3725 N   0  0  0  0  0  0  0  0  0  0  0  0
   12.0393  -17.4399   23.6500 C   0  0  0  0  0  0  0  0  0  0  0  0
   11.8053  -18.0255   22.4210 O   0  0  0  0  0  0  0  0  0  0  0  0
   13.2398  -17.2349   23.9799 O   0  0  0  0  0  0  0  0  0  0  0  0
  2  1  1  6
  2  3  1  0
  4  6  1  0
  4  2  1  0
  4  5  1  1
  6  7  2  0
  9  8  1  6
  9 11  1  0
 10  9  1  0
 11 12  1  1
 12  6  1  0
 13 14  2  0
 13 11  1  0
 15 13  1  0
 16 15  1  0
 16 17  1  1
 17 18  1  0
 19 20  1  0
 19 18  1  0
 21 20  1  0
 22 16  1  0
 23 22  1  0
 24 22  2  0
M  END
$$$$
