VVK.pdb
     RDKit          3D

 24 23  0  0  1  0  0  0  0  0999 V2000
    6.6046  -18.0684   23.8142 C   0  0  0  0  0  0  0  0  0  0  0  0
    6.9928  -17.5195   22.4671 C   0  0  1  0  0  0  0  0  0  0  0  0
    6.4054  -18.2545   21.3077 C   0  0  0  0  0  0  0  0  0  0  0  0
    6.9122  -16.0426   22.3373 C   0  0  2  0  0  0  0  0  0  0  0  0
    7.4551  -15.5666   21.0623 N   0  0  0  0  0  0  0  0  0  0  0  0
    7.4874  -15.2359   23.4070 C   0  0  0  0  0  0  0  0  0  0  0  0
    8.7643  -15.0314   23.4445 O   0  0  0  0  0  0  0  0  0  0  0  0
    7.3888  -12.4724   27.5090 C   0  0  0  0  0  0  0  0  0  0  0  0
    6.6100  -12.9986   26.3434 C   0  0  1  0  0  0  0  0  0  0  0  0
    5.9945  -11.9417   25.4961 C   0  0  0  0  0  0  0  0  0  0  0  0
    7.4816  -13.9597   25.5772 C   0  0  2  0  0  0  0  0  0  0  0  0
    6.8097  -14.6016   24.4807 N   0  0  0  0  0  0  0  0  0  0  0  0
    8.1700  -14.9216   26.4946 C   0  0  0  0  0  0  0  0  0  0  0  0
    7.4428  -15.7840   27.0306 O   0  0  0  0  0  0  0  0  0  0  0  0
    9.5310  -14.8619   26.7365 N   0  0  0  0  0  0  0  0  0  0  0  0
   10.2521  -15.7897   27.5750 C   0  0  1  0  0  0  0  0  0  0  0  0
   11.4905  -16.3125   26.9300 C   0  0  0  0  0  0  0  0  0  0  0  0
   11.2550  -17.0837   25.6565 C   0  0  0  0  0  0  0  0  0  0  0  0
   12.5332  -17.6012   25.0953 C   0  0  0  0  0  0  0  0  0  0  0  0
   12.3518  -18.3179   23.7733 C   0  0  0  0  0  0  0  0  0  0  0  0
   13.5889  -18.8714   23.2768 N   0  0  0  0  0  0  0  0  0  0  0  0
   10.5759  -15.1118   28.8616 C   0  0  0  0  0  0  0  0  0  0  0  0
   10.9813  -15.7653   30.0091 O   0  0  0  0  0  0  0  0  0  0  0  0
   10.4760  -13.8549   28.9099 O   0  0  0  0  0  0  0  0  0  0  0  0
  2  1  1  1
  2  3  1  0
  4  6  1  0
  4  2  1  0
  4  5  1  6
  6  7  2  0
  9  8  1  1
  9 11  1  0
 10  9  1  0
 11 12  1  6
 12  6  1  0
 13 14  2  0
 13 11  1  0
 15 13  1  0
 16 15  1  0
 16 17  1  6
 17 18  1  0
 19 20  1  0
 19 18  1  0
 21 20  1  0
 22 16  1  0
 23 22  1  0
 24 22  2  0
M  END
$$$$
