LNY.pdb
     RDKit          3D

 29 29  0  0  1  0  0  0  0  0999 V2000
    7.0186  -13.4221   20.6693 C   0  0  0  0  0  0  0  0  0  0  0  0
    8.1529  -14.1362   20.0114 C   0  0  2  0  0  0  0  0  0  0  0  0
    9.0187  -13.2292   19.1525 C   0  0  0  0  0  0  0  0  0  0  0  0
    7.5628  -15.2757   19.1791 C   0  0  0  0  0  0  0  0  0  0  0  0
    8.7668  -16.0885   18.6783 C   0  0  2  0  0  0  0  0  0  0  0  0
    8.1921  -17.0774   17.7642 N   0  0  0  0  0  0  0  0  0  0  0  0
    9.4294  -16.7732   19.8217 C   0  0  0  0  0  0  0  0  0  0  0  0
    8.8792  -17.8008   20.3018 O   0  0  0  0  0  0  0  0  0  0  0  0
   13.6738  -18.8096   20.1040 N   0  0  0  0  0  0  0  0  0  0  0  0
   13.3938  -17.4194   20.0541 C   0  0  0  0  0  0  0  0  0  0  0  0
   13.6360  -16.8011   18.9947 O   0  0  0  0  0  0  0  0  0  0  0  0
   12.8357  -16.7393   21.2221 C   0  0  0  0  0  0  0  0  0  0  0  0
   11.3355  -16.9485   21.4100 C   0  0  2  0  0  0  0  0  0  0  0  0
   10.6455  -16.2380   20.3127 N   0  0  0  0  0  0  0  0  0  0  0  0
   10.7946  -16.3951   22.6484 C   0  0  0  0  0  0  0  0  0  0  0  0
   11.2450  -16.7693   23.7905 O   0  0  0  0  0  0  0  0  0  0  0  0
    6.3361  -11.6092   28.5181 O   0  0  0  0  0  0  0  0  0  0  0  0
    6.7493  -12.1839   27.3251 C   0  0  0  0  0  0  0  0  0  0  0  0
    8.0509  -12.0280   26.9046 C   0  0  0  0  0  0  0  0  0  0  0  0
    8.5046  -12.5854   25.7185 C   0  0  0  0  0  0  0  0  0  0  0  0
    7.6758  -13.3253   24.8974 C   0  0  0  0  0  0  0  0  0  0  0  0
    8.1781  -13.9116   23.6310 C   0  0  0  0  0  0  0  0  0  0  0  0
    9.2511  -14.9305   23.9805 C   0  0  2  0  0  0  0  0  0  0  0  0
    9.7594  -15.4227   22.6838 N   0  0  0  0  0  0  0  0  0  0  0  0
    8.7798  -16.0549   24.7742 C   0  0  0  0  0  0  0  0  0  0  0  0
    8.9354  -16.1052   26.1484 O   0  0  0  0  0  0  0  0  0  0  0  0
    6.3602  -13.4760   25.3344 C   0  0  0  0  0  0  0  0  0  0  0  0
    5.9120  -12.9213   26.5131 C   0  0  0  0  0  0  0  0  0  0  0  0
    8.2034  -17.0463   24.2550 O   0  0  0  0  0  0  0  0  0  0  0  0
  2  1  1  6
  2  3  1  0
  4  2  1  0
  5  4  1  0
  5  6  1  6
  7  5  1  0
  8  7  2  0
  9 10  1  0
 10 12  1  0
 10 11  2  0
 13 12  1  1
 13 14  1  0
 14  7  1  0
 15 13  1  0
 15 24  1  0
 16 15  2  0
 17 18  1  0
 18 28  2  0
 19 20  2  0
 19 18  1  0
 20 21  1  0
 21 22  1  0
 21 27  2  0
 23 22  1  6
 23 24  1  0
 23 25  1  0
 25 26  1  0
 28 27  1  0
 29 25  2  0
M  END
$$$$
