LNY.pdb
     RDKit          3D

 29 29  0  0  1  0  0  0  0  0999 V2000
    9.1426  -12.4336   19.7216 C   0  0  0  0  0  0  0  0  0  0  0  0
    7.8998  -13.1326   19.2783 C   0  0  2  0  0  0  0  0  0  0  0  0
    6.6303  -12.3526   19.5782 C   0  0  0  0  0  0  0  0  0  0  0  0
    7.8717  -14.5029   19.9571 C   0  0  0  0  0  0  0  0  0  0  0  0
    9.3437  -14.8972   20.1539 C   0  0  2  0  0  0  0  0  0  0  0  0
    9.8801  -15.0168   18.7968 N   0  0  0  0  0  0  0  0  0  0  0  0
    9.4301  -16.2071   20.8553 C   0  0  0  0  0  0  0  0  0  0  0  0
    8.4874  -16.5347   21.6256 O   0  0  0  0  0  0  0  0  0  0  0  0
   11.7832  -19.3580   18.2027 N   0  0  0  0  0  0  0  0  0  0  0  0
   11.1533  -19.6821   19.4323 C   0  0  0  0  0  0  0  0  0  0  0  0
   10.1382  -20.4116   19.4069 O   0  0  0  0  0  0  0  0  0  0  0  0
   11.6899  -19.1674   20.6914 C   0  0  0  0  0  0  0  0  0  0  0  0
   10.7402  -18.2382   21.4425 C   0  0  2  0  0  0  0  0  0  0  0  0
   10.5654  -17.0213   20.6218 N   0  0  0  0  0  0  0  0  0  0  0  0
   11.2351  -17.7804   22.7379 C   0  0  0  0  0  0  0  0  0  0  0  0
   12.0990  -16.8344   22.8174 O   0  0  0  0  0  0  0  0  0  0  0  0
   10.1021  -13.6160   30.0741 O   0  0  0  0  0  0  0  0  0  0  0  0
   10.1334  -14.2323   28.8318 C   0  0  0  0  0  0  0  0  0  0  0  0
   11.1481  -15.1122   28.5292 C   0  0  0  0  0  0  0  0  0  0  0  0
   11.2168  -15.7493   27.2993 C   0  0  0  0  0  0  0  0  0  0  0  0
   10.2723  -15.5350   26.3141 C   0  0  0  0  0  0  0  0  0  0  0  0
   10.3638  -16.2233   25.0034 C   0  0  0  0  0  0  0  0  0  0  0  0
   11.0187  -17.5766   25.2306 C   0  0  2  0  0  0  0  0  0  0  0  0
   10.8069  -18.3283   23.9767 N   0  0  0  0  0  0  0  0  0  0  0  0
   10.4712  -18.3321   26.3467 C   0  0  0  0  0  0  0  0  0  0  0  0
   11.0188  -18.2750   27.6163 O   0  0  0  0  0  0  0  0  0  0  0  0
    9.2499  -14.6420   26.6328 C   0  0  0  0  0  0  0  0  0  0  0  0
    9.1839  -14.0104   27.8554 C   0  0  0  0  0  0  0  0  0  0  0  0
    9.4674  -19.0812   26.2200 O   0  0  0  0  0  0  0  0  0  0  0  0
  2  1  1  1
  2  3  1  0
  4  2  1  0
  5  4  1  0
  5  6  1  6
  7  5  1  0
  8  7  2  0
  9 10  1  0
 10 12  1  0
 10 11  2  0
 13 12  1  6
 13 14  1  0
 14  7  1  0
 15 13  1  0
 15 24  1  0
 16 15  2  0
 17 18  1  0
 18 28  2  0
 19 20  2  0
 19 18  1  0
 20 21  1  0
 21 22  1  0
 21 27  2  0
 23 22  1  6
 23 24  1  0
 23 25  1  0
 25 26  1  0
 28 27  1  0
 29 25  2  0
M  END
$$$$
