LNY.pdb
     RDKit          3D

 29 29  0  0  1  0  0  0  0  0999 V2000
    7.0296  -13.4785   20.9228 C   0  0  0  0  0  0  0  0  0  0  0  0
    8.3155  -13.2587   20.1963 C   0  0  2  0  0  0  0  0  0  0  0  0
    8.3450  -11.9628   19.4027 C   0  0  0  0  0  0  0  0  0  0  0  0
    8.5432  -14.4637   19.2824 C   0  0  0  0  0  0  0  0  0  0  0  0
    8.8082  -15.6507   20.2214 C   0  0  2  0  0  0  0  0  0  0  0  0
    8.4913  -15.1439   21.5580 N   0  0  0  0  0  0  0  0  0  0  0  0
   10.2416  -16.0452   20.1506 C   0  0  0  0  0  0  0  0  0  0  0  0
   10.5803  -16.9129   19.3010 O   0  0  0  0  0  0  0  0  0  0  0  0
   13.5709  -16.2545   18.3827 N   0  0  0  0  0  0  0  0  0  0  0  0
   13.6367  -14.9552   18.9493 C   0  0  0  0  0  0  0  0  0  0  0  0
   13.9090  -13.9921   18.1999 O   0  0  0  0  0  0  0  0  0  0  0  0
   13.3898  -14.7625   20.3776 C   0  0  0  0  0  0  0  0  0  0  0  0
   12.5638  -15.8709   21.0246 C   0  0  2  0  0  0  0  0  0  0  0  0
   11.1543  -15.4258   21.0392 N   0  0  0  0  0  0  0  0  0  0  0  0
   12.9090  -16.1543   22.4150 C   0  0  0  0  0  0  0  0  0  0  0  0
   13.8525  -15.5141   23.0042 O   0  0  0  0  0  0  0  0  0  0  0  0
   10.2885  -14.5204   30.2758 O   0  0  0  0  0  0  0  0  0  0  0  0
   10.5825  -14.7914   28.9475 C   0  0  0  0  0  0  0  0  0  0  0  0
    9.7517  -14.3254   27.9534 C   0  0  0  0  0  0  0  0  0  0  0  0
   10.0088  -14.5743   26.6136 C   0  0  0  0  0  0  0  0  0  0  0  0
   11.1103  -15.3017   26.2059 C   0  0  0  0  0  0  0  0  0  0  0  0
   11.3674  -15.5602   24.7682 C   0  0  0  0  0  0  0  0  0  0  0  0
   12.0565  -16.9105   24.6517 C   0  0  2  0  0  0  0  0  0  0  0  0
   12.2422  -17.1304   23.2029 N   0  0  0  0  0  0  0  0  0  0  0  0
   11.3070  -18.0212   25.2181 C   0  0  0  0  0  0  0  0  0  0  0  0
   11.5853  -18.5366   26.4719 O   0  0  0  0  0  0  0  0  0  0  0  0
   11.9438  -15.7679   27.2220 C   0  0  0  0  0  0  0  0  0  0  0  0
   11.6861  -15.5193   28.5523 C   0  0  0  0  0  0  0  0  0  0  0  0
   10.3621  -18.5766   24.5988 O   0  0  0  0  0  0  0  0  0  0  0  0
  2  1  1  6
  2  3  1  0
  4  2  1  0
  5  4  1  0
  5  6  1  1
  7  5  1  0
  8  7  2  0
  9 10  1  0
 10 12  1  0
 10 11  2  0
 13 12  1  1
 13 14  1  0
 14  7  1  0
 15 13  1  0
 15 24  1  0
 16 15  2  0
 17 18  1  0
 18 28  2  0
 19 20  2  0
 19 18  1  0
 20 21  1  0
 21 22  1  0
 21 27  2  0
 23 22  1  6
 23 24  1  0
 23 25  1  0
 25 26  1  0
 28 27  1  0
 29 25  2  0
M  END
$$$$
