LNY.pdb
     RDKit          3D

 29 29  0  0  1  0  0  0  0  0999 V2000
    8.7097  -12.5654   19.8252 C   0  0  0  0  0  0  0  0  0  0  0  0
    8.2391  -13.4543   18.7216 C   0  0  2  0  0  0  0  0  0  0  0  0
    7.0863  -12.8664   17.9245 C   0  0  0  0  0  0  0  0  0  0  0  0
    7.8453  -14.7954   19.3428 C   0  0  0  0  0  0  0  0  0  0  0  0
    8.9619  -15.1314   20.3433 C   0  0  2  0  0  0  0  0  0  0  0  0
   10.1635  -15.2837   19.5206 N   0  0  0  0  0  0  0  0  0  0  0  0
    8.6533  -16.4103   21.0394 C   0  0  0  0  0  0  0  0  0  0  0  0
    7.9788  -17.2780   20.4219 O   0  0  0  0  0  0  0  0  0  0  0  0
   12.1685  -18.3845   19.5023 N   0  0  0  0  0  0  0  0  0  0  0  0
   11.2760  -18.5460   20.5937 C   0  0  0  0  0  0  0  0  0  0  0  0
   10.5249  -19.5455   20.6056 O   0  0  0  0  0  0  0  0  0  0  0  0
   11.2465  -17.5584   21.6716 C   0  0  0  0  0  0  0  0  0  0  0  0
   10.0638  -17.7080   22.6247 C   0  0  2  0  0  0  0  0  0  0  0  0
    9.1337  -16.5901   22.3597 N   0  0  0  0  0  0  0  0  0  0  0  0
   10.4082  -17.6158   24.0409 C   0  0  0  0  0  0  0  0  0  0  0  0
   11.6017  -17.3239   24.4120 O   0  0  0  0  0  0  0  0  0  0  0  0
    6.3273  -11.2597   27.7898 O   0  0  0  0  0  0  0  0  0  0  0  0
    6.8054  -12.3494   27.0769 C   0  0  0  0  0  0  0  0  0  0  0  0
    8.1625  -12.5359   26.9395 C   0  0  0  0  0  0  0  0  0  0  0  0
    8.6820  -13.6114   26.2348 C   0  0  0  0  0  0  0  0  0  0  0  0
    7.8666  -14.5511   25.6341 C   0  0  0  0  0  0  0  0  0  0  0  0
    8.4404  -15.6934   24.8819 C   0  0  0  0  0  0  0  0  0  0  0  0
    8.9859  -16.6912   25.8912 C   0  0  2  0  0  0  0  0  0  0  0  0
    9.4734  -17.8315   25.0886 N   0  0  0  0  0  0  0  0  0  0  0  0
    8.0097  -17.1635   26.8609 C   0  0  0  0  0  0  0  0  0  0  0  0
    8.0989  -16.8572   28.2074 O   0  0  0  0  0  0  0  0  0  0  0  0
    6.4943  -14.3511   25.7805 C   0  0  0  0  0  0  0  0  0  0  0  0
    5.9808  -13.2818   26.4812 C   0  0  0  0  0  0  0  0  0  0  0  0
    7.0281  -17.8784   26.5291 O   0  0  0  0  0  0  0  0  0  0  0  0
  2  1  1  1
  2  3  1  0
  4  2  1  0
  5  4  1  0
  5  6  1  6
  7  5  1  0
  8  7  2  0
  9 10  1  0
 10 12  1  0
 10 11  2  0
 13 12  1  6
 13 14  1  0
 14  7  1  0
 15 13  1  0
 15 24  1  0
 16 15  2  0
 17 18  1  0
 18 28  2  0
 19 20  2  0
 19 18  1  0
 20 21  1  0
 21 22  1  0
 21 27  2  0
 23 22  1  6
 23 24  1  0
 23 25  1  0
 25 26  1  0
 28 27  1  0
 29 25  2  0
M  END
$$$$
