LNY.pdb
     RDKit          3D

 29 29  0  0  1  0  0  0  0  0999 V2000
    9.4523  -13.1688   19.8100 C   0  0  0  0  0  0  0  0  0  0  0  0
    8.3021  -13.3734   18.8801 C   0  0  2  0  0  0  0  0  0  0  0  0
    7.5092  -12.1042   18.6143 C   0  0  0  0  0  0  0  0  0  0  0  0
    7.4083  -14.4596   19.4806 C   0  0  0  0  0  0  0  0  0  0  0  0
    8.3445  -15.6350   19.8010 C   0  0  2  0  0  0  0  0  0  0  0  0
    8.3035  -16.4784   18.6049 N   0  0  0  0  0  0  0  0  0  0  0  0
    7.8302  -16.3892   20.9766 C   0  0  0  0  0  0  0  0  0  0  0  0
    7.0049  -17.3204   20.7734 O   0  0  0  0  0  0  0  0  0  0  0  0
    6.0504  -19.1380   24.4791 N   0  0  0  0  0  0  0  0  0  0  0  0
    7.4491  -19.1085   24.2413 C   0  0  0  0  0  0  0  0  0  0  0  0
    8.1871  -19.8367   24.9401 O   0  0  0  0  0  0  0  0  0  0  0  0
    7.9998  -18.2417   23.2004 C   0  0  0  0  0  0  0  0  0  0  0  0
    7.7621  -16.7526   23.4362 C   0  0  2  0  0  0  0  0  0  0  0  0
    8.2941  -16.0253   22.2644 N   0  0  0  0  0  0  0  0  0  0  0  0
    8.4552  -16.2024   24.5979 C   0  0  0  0  0  0  0  0  0  0  0  0
    8.6488  -14.9389   24.7135 O   0  0  0  0  0  0  0  0  0  0  0  0
    6.8461  -10.5286   26.1824 O   0  0  0  0  0  0  0  0  0  0  0  0
    7.0562  -11.8683   26.4745 C   0  0  0  0  0  0  0  0  0  0  0  0
    6.0101  -12.7596   26.3912 C   0  0  0  0  0  0  0  0  0  0  0  0
    6.1771  -14.1067   26.6750 C   0  0  0  0  0  0  0  0  0  0  0  0
    7.3998  -14.6249   27.0558 C   0  0  0  0  0  0  0  0  0  0  0  0
    7.5586  -16.0683   27.3583 C   0  0  0  0  0  0  0  0  0  0  0  0
    8.9925  -16.4585   27.0366 C   0  0  2  0  0  0  0  0  0  0  0  0
    8.9510  -17.0008   25.6633 N   0  0  0  0  0  0  0  0  0  0  0  0
    9.5628  -17.4524   27.9328 C   0  0  0  0  0  0  0  0  0  0  0  0
   10.1466  -17.1097   29.1398 O   0  0  0  0  0  0  0  0  0  0  0  0
    8.4510  -13.7123   27.1364 C   0  0  0  0  0  0  0  0  0  0  0  0
    8.2825  -12.3745   26.8538 C   0  0  0  0  0  0  0  0  0  0  0  0
    9.5575  -18.6814   27.6603 O   0  0  0  0  0  0  0  0  0  0  0  0
  2  1  1  1
  2  3  1  0
  4  2  1  0
  5  4  1  0
  5  6  1  6
  7  5  1  0
  8  7  2  0
  9 10  1  0
 10 12  1  0
 10 11  2  0
 13 12  1  6
 13 14  1  0
 14  7  1  0
 15 13  1  0
 15 24  1  0
 16 15  2  0
 17 18  1  0
 18 28  2  0
 19 20  2  0
 19 18  1  0
 20 21  1  0
 21 22  1  0
 21 27  2  0
 23 22  1  1
 23 24  1  0
 23 25  1  0
 25 26  1  0
 28 27  1  0
 29 25  2  0
M  END
$$$$
