LNY.pdb
     RDKit          3D

 29 29  0  0  1  0  0  0  0  0999 V2000
    9.2744  -12.0802   19.7652 C   0  0  0  0  0  0  0  0  0  0  0  0
    8.4470  -13.0067   18.9366 C   0  0  2  0  0  0  0  0  0  0  0  0
    7.1797  -12.3637   18.3976 C   0  0  0  0  0  0  0  0  0  0  0  0
    8.1165  -14.2275   19.7965 C   0  0  0  0  0  0  0  0  0  0  0  0
    9.4141  -14.5699   20.5447 C   0  0  2  0  0  0  0  0  0  0  0  0
   10.4297  -14.6771   19.4955 N   0  0  0  0  0  0  0  0  0  0  0  0
    9.2667  -15.8728   21.2489 C   0  0  0  0  0  0  0  0  0  0  0  0
    8.2889  -16.0211   22.0308 O   0  0  0  0  0  0  0  0  0  0  0  0
    9.9242  -21.3276   21.6415 N   0  0  0  0  0  0  0  0  0  0  0  0
   11.0645  -20.4841   21.6831 C   0  0  0  0  0  0  0  0  0  0  0  0
   12.0864  -20.8935   22.2760 O   0  0  0  0  0  0  0  0  0  0  0  0
   11.0305  -19.1695   21.0436 C   0  0  0  0  0  0  0  0  0  0  0  0
   10.1017  -18.1672   21.7236 C   0  0  2  0  0  0  0  0  0  0  0  0
   10.2303  -16.8818   21.0049 N   0  0  0  0  0  0  0  0  0  0  0  0
   10.4306  -17.8817   23.1175 C   0  0  0  0  0  0  0  0  0  0  0  0
    9.6210  -18.1930   24.0635 O   0  0  0  0  0  0  0  0  0  0  0  0
   10.5431  -14.4065   30.6802 O   0  0  0  0  0  0  0  0  0  0  0  0
   10.6038  -14.7711   29.3432 C   0  0  0  0  0  0  0  0  0  0  0  0
    9.8397  -14.1002   28.4151 C   0  0  0  0  0  0  0  0  0  0  0  0
    9.8704  -14.4332   27.0692 C   0  0  0  0  0  0  0  0  0  0  0  0
   10.6680  -15.4540   26.5892 C   0  0  0  0  0  0  0  0  0  0  0  0
   10.6856  -15.7977   25.1465 C   0  0  0  0  0  0  0  0  0  0  0  0
   11.8053  -16.8006   24.9182 C   0  0  2  0  0  0  0  0  0  0  0  0
   11.6410  -17.2587   23.5236 N   0  0  0  0  0  0  0  0  0  0  0  0
   11.7786  -17.9485   25.8115 C   0  0  0  0  0  0  0  0  0  0  0  0
   12.5462  -18.0072   26.9614 O   0  0  0  0  0  0  0  0  0  0  0  0
   11.4371  -16.1255   27.5390 C   0  0  0  0  0  0  0  0  0  0  0  0
   11.4047  -15.7928   28.8755 C   0  0  0  0  0  0  0  0  0  0  0  0
   11.0549  -18.9541   25.5882 O   0  0  0  0  0  0  0  0  0  0  0  0
  2  1  1  1
  2  3  1  0
  4  2  1  0
  5  4  1  0
  5  6  1  6
  7  5  1  0
  8  7  2  0
  9 10  1  0
 10 12  1  0
 10 11  2  0
 13 12  1  6
 13 14  1  0
 14  7  1  0
 15 13  1  0
 15 24  1  0
 16 15  2  0
 17 18  1  0
 18 28  2  0
 19 20  2  0
 19 18  1  0
 20 21  1  0
 21 22  1  0
 21 27  2  0
 23 22  1  1
 23 24  1  0
 23 25  1  0
 25 26  1  0
 28 27  1  0
 29 25  2  0
M  END
$$$$
