LNY.pdb
     RDKit          3D

 29 29  0  0  1  0  0  0  0  0999 V2000
    8.1224  -13.9585   18.2000 C   0  0  0  0  0  0  0  0  0  0  0  0
    7.1742  -14.6302   19.1376 C   0  0  2  0  0  0  0  0  0  0  0  0
    6.1029  -13.6989   19.6808 C   0  0  0  0  0  0  0  0  0  0  0  0
    7.9982  -15.2363   20.2747 C   0  0  0  0  0  0  0  0  0  0  0  0
    9.0124  -16.1712   19.5976 C   0  0  2  0  0  0  0  0  0  0  0  0
    8.2215  -17.3248   19.1646 N   0  0  0  0  0  0  0  0  0  0  0  0
   10.0450  -16.5989   20.5805 C   0  0  0  0  0  0  0  0  0  0  0  0
   10.1601  -17.8298   20.8274 O   0  0  0  0  0  0  0  0  0  0  0  0
   13.7671  -13.8216   19.8774 N   0  0  0  0  0  0  0  0  0  0  0  0
   13.7201  -15.0130   20.6468 C   0  0  0  0  0  0  0  0  0  0  0  0
   14.2435  -16.0464   20.1763 O   0  0  0  0  0  0  0  0  0  0  0  0
   13.0710  -15.0169   21.9571 C   0  0  0  0  0  0  0  0  0  0  0  0
   11.9380  -16.0309   22.0907 C   0  0  2  0  0  0  0  0  0  0  0  0
   10.8483  -15.6030   21.1882 N   0  0  0  0  0  0  0  0  0  0  0  0
   11.3468  -16.1103   23.4236 C   0  0  0  0  0  0  0  0  0  0  0  0
   12.0778  -16.3144   24.4586 O   0  0  0  0  0  0  0  0  0  0  0  0
    7.3674  -10.7164   27.2401 O   0  0  0  0  0  0  0  0  0  0  0  0
    7.4671  -11.9817   26.6804 C   0  0  0  0  0  0  0  0  0  0  0  0
    8.7064  -12.5059   26.3890 C   0  0  0  0  0  0  0  0  0  0  0  0
    8.8503  -13.7663   25.8288 C   0  0  0  0  0  0  0  0  0  0  0  0
    7.7597  -14.5613   25.5337 C   0  0  0  0  0  0  0  0  0  0  0  0
    7.9331  -15.9059   24.9319 C   0  0  0  0  0  0  0  0  0  0  0  0
    9.4080  -16.2667   25.0105 C   0  0  2  0  0  0  0  0  0  0  0  0
    9.9553  -15.9670   23.6716 N   0  0  0  0  0  0  0  0  0  0  0  0
    9.6718  -17.6587   25.3411 C   0  0  0  0  0  0  0  0  0  0  0  0
    9.6128  -18.1330   26.6397 O   0  0  0  0  0  0  0  0  0  0  0  0
    6.5104  -14.0192   25.8335 C   0  0  0  0  0  0  0  0  0  0  0  0
    6.3701  -12.7668   26.3901 C   0  0  0  0  0  0  0  0  0  0  0  0
    9.9691  -18.5107   24.4633 O   0  0  0  0  0  0  0  0  0  0  0  0
  2  1  1  6
  2  3  1  0
  4  2  1  0
  5  4  1  0
  5  6  1  1
  7  5  1  0
  8  7  2  0
  9 10  1  0
 10 12  1  0
 10 11  2  0
 13 12  1  1
 13 14  1  0
 14  7  1  0
 15 13  1  0
 15 24  1  0
 16 15  2  0
 17 18  1  0
 18 28  2  0
 19 20  2  0
 19 18  1  0
 20 21  1  0
 21 22  1  0
 21 27  2  0
 23 22  1  6
 23 24  1  0
 23 25  1  0
 25 26  1  0
 28 27  1  0
 29 25  2  0
M  END
$$$$
