LNY.pdb
     RDKit          3D

 29 29  0  0  1  0  0  0  0  0999 V2000
    9.3390  -12.9597   18.4879 C   0  0  0  0  0  0  0  0  0  0  0  0
    7.9571  -13.5246   18.5119 C   0  0  2  0  0  0  0  0  0  0  0  0
    6.8739  -12.4630   18.6115 C   0  0  0  0  0  0  0  0  0  0  0  0
    7.8754  -14.4996   19.6875 C   0  0  0  0  0  0  0  0  0  0  0  0
    9.2664  -15.1446   19.7871 C   0  0  2  0  0  0  0  0  0  0  0  0
    9.4024  -15.9249   18.5557 N   0  0  0  0  0  0  0  0  0  0  0  0
    9.3265  -16.0439   20.9717 C   0  0  0  0  0  0  0  0  0  0  0  0
    8.3110  -16.1205   21.7147 O   0  0  0  0  0  0  0  0  0  0  0  0
   11.2199  -20.9507   21.5464 N   0  0  0  0  0  0  0  0  0  0  0  0
   11.5649  -19.6281   21.1653 C   0  0  0  0  0  0  0  0  0  0  0  0
   11.6850  -19.3717   19.9475 O   0  0  0  0  0  0  0  0  0  0  0  0
   11.7724  -18.5998   22.1840 C   0  0  0  0  0  0  0  0  0  0  0  0
   10.5823  -17.6645   22.3800 C   0  0  2  0  0  0  0  0  0  0  0  0
   10.5201  -16.7701   21.2047 N   0  0  0  0  0  0  0  0  0  0  0  0
   10.6817  -16.7893   23.5448 C   0  0  0  0  0  0  0  0  0  0  0  0
   11.2992  -15.6663   23.4756 O   0  0  0  0  0  0  0  0  0  0  0  0
    6.1655  -11.1426   27.8504 O   0  0  0  0  0  0  0  0  0  0  0  0
    6.7131  -12.1718   27.0988 C   0  0  0  0  0  0  0  0  0  0  0  0
    8.0382  -12.1195   26.7287 C   0  0  0  0  0  0  0  0  0  0  0  0
    8.6246  -13.1269   25.9772 C   0  0  0  0  0  0  0  0  0  0  0  0
    7.9114  -14.2343   25.5608 C   0  0  0  0  0  0  0  0  0  0  0  0
    8.5549  -15.3005   24.7551 C   0  0  0  0  0  0  0  0  0  0  0  0
    9.5442  -16.0301   25.6499 C   0  0  2  0  0  0  0  0  0  0  0  0
   10.1141  -17.1025   24.8089 N   0  0  0  0  0  0  0  0  0  0  0  0
    8.9587  -16.6131   26.8473 C   0  0  0  0  0  0  0  0  0  0  0  0
    9.2353  -16.1306   28.1144 O   0  0  0  0  0  0  0  0  0  0  0  0
    6.5707  -14.2756   25.9420 C   0  0  0  0  0  0  0  0  0  0  0  0
    5.9906  -13.2735   26.6886 C   0  0  0  0  0  0  0  0  0  0  0  0
    8.1667  -17.5904   26.7978 O   0  0  0  0  0  0  0  0  0  0  0  0
  2  1  1  1
  2  3  1  0
  4  2  1  0
  5  4  1  0
  5  6  1  6
  7  5  1  0
  8  7  2  0
  9 10  1  0
 10 12  1  0
 10 11  2  0
 13 12  1  6
 13 14  1  0
 14  7  1  0
 15 13  1  0
 15 24  1  0
 16 15  2  0
 17 18  1  0
 18 28  2  0
 19 20  2  0
 19 18  1  0
 20 21  1  0
 21 22  1  0
 21 27  2  0
 23 22  1  6
 23 24  1  0
 23 25  1  0
 25 26  1  0
 28 27  1  0
 29 25  2  0
M  END
$$$$
