LNY.pdb
     RDKit          3D

 29 29  0  0  1  0  0  0  0  0999 V2000
    9.3426  -13.3754   18.5835 C   0  0  0  0  0  0  0  0  0  0  0  0
    7.9478  -13.6248   19.0544 C   0  0  2  0  0  0  0  0  0  0  0  0
    7.2015  -12.3543   19.4270 C   0  0  0  0  0  0  0  0  0  0  0  0
    8.0248  -14.5817   20.2450 C   0  0  0  0  0  0  0  0  0  0  0  0
    8.6660  -15.8678   19.7011 C   0  0  2  0  0  0  0  0  0  0  0  0
    7.7319  -16.3443   18.6793 N   0  0  0  0  0  0  0  0  0  0  0  0
    8.7898  -16.8745   20.7904 C   0  0  0  0  0  0  0  0  0  0  0  0
    8.1747  -17.9678   20.6651 O   0  0  0  0  0  0  0  0  0  0  0  0
   12.4945  -20.3823   22.6078 N   0  0  0  0  0  0  0  0  0  0  0  0
   11.1617  -19.9015   22.5296 C   0  0  0  0  0  0  0  0  0  0  0  0
   10.2453  -20.6078   23.0036 O   0  0  0  0  0  0  0  0  0  0  0  0
   10.8818  -18.6088   21.9060 C   0  0  0  0  0  0  0  0  0  0  0  0
   10.0650  -17.6581   22.7770 C   0  0  2  0  0  0  0  0  0  0  0  0
    9.5933  -16.5558   21.9125 N   0  0  0  0  0  0  0  0  0  0  0  0
   10.8164  -17.0263   23.8581 C   0  0  0  0  0  0  0  0  0  0  0  0
   11.9008  -16.3825   23.6194 O   0  0  0  0  0  0  0  0  0  0  0  0
    6.1446  -10.9495   27.3346 O   0  0  0  0  0  0  0  0  0  0  0  0
    6.7316  -12.0487   26.7253 C   0  0  0  0  0  0  0  0  0  0  0  0
    7.9338  -12.5299   27.1928 C   0  0  0  0  0  0  0  0  0  0  0  0
    8.5547  -13.6258   26.6123 C   0  0  0  0  0  0  0  0  0  0  0  0
    8.0007  -14.2913   25.5358 C   0  0  0  0  0  0  0  0  0  0  0  0
    8.6808  -15.4600   24.9262 C   0  0  0  0  0  0  0  0  0  0  0  0
    9.8123  -15.8780   25.8518 C   0  0  2  0  0  0  0  0  0  0  0  0
   10.4138  -17.0700   25.2198 N   0  0  0  0  0  0  0  0  0  0  0  0
    9.3940  -16.2067   27.2058 C   0  0  0  0  0  0  0  0  0  0  0  0
    8.6923  -17.3621   27.5017 O   0  0  0  0  0  0  0  0  0  0  0  0
    6.7833  -13.7944   25.0719 C   0  0  0  0  0  0  0  0  0  0  0  0
    6.1686  -12.7056   25.6504 C   0  0  0  0  0  0  0  0  0  0  0  0
    9.6471  -15.4576   28.1853 O   0  0  0  0  0  0  0  0  0  0  0  0
  2  1  1  1
  2  3  1  0
  4  2  1  0
  5  4  1  0
  5  6  1  6
  7  5  1  0
  8  7  2  0
  9 10  1  0
 10 12  1  0
 10 11  2  0
 13 12  1  6
 13 14  1  0
 14  7  1  0
 15 13  1  0
 15 24  1  0
 16 15  2  0
 17 18  1  0
 18 28  2  0
 19 20  2  0
 19 18  1  0
 20 21  1  0
 21 22  1  0
 21 27  2  0
 23 22  1  6
 23 24  1  0
 23 25  1  0
 25 26  1  0
 28 27  1  0
 29 25  2  0
M  END
$$$$
