LNY.pdb
     RDKit          3D

 29 29  0  0  1  0  0  0  0  0999 V2000
    6.5788  -13.7165   19.5822 C   0  0  0  0  0  0  0  0  0  0  0  0
    7.8624  -13.3620   20.2576 C   0  0  2  0  0  0  0  0  0  0  0  0
    8.5297  -12.1278   19.6734 C   0  0  0  0  0  0  0  0  0  0  0  0
    8.7860  -14.5776   20.1647 C   0  0  0  0  0  0  0  0  0  0  0  0
    8.1392  -15.6568   21.0466 C   0  0  2  0  0  0  0  0  0  0  0  0
    7.7801  -14.9592   22.2828 N   0  0  0  0  0  0  0  0  0  0  0  0
    9.1237  -16.7351   21.3354 C   0  0  0  0  0  0  0  0  0  0  0  0
    9.4628  -17.5012   20.3934 O   0  0  0  0  0  0  0  0  0  0  0  0
   14.1668  -16.1015   21.7117 N   0  0  0  0  0  0  0  0  0  0  0  0
   12.8813  -16.3279   21.1550 C   0  0  0  0  0  0  0  0  0  0  0  0
   12.8026  -16.9452   20.0705 O   0  0  0  0  0  0  0  0  0  0  0  0
   11.6859  -15.8445   21.8445 C   0  0  0  0  0  0  0  0  0  0  0  0
   11.0976  -16.8352   22.8454 C   0  0  2  0  0  0  0  0  0  0  0  0
    9.6320  -16.8463   22.6528 N   0  0  0  0  0  0  0  0  0  0  0  0
   11.3150  -16.4859   24.2466 C   0  0  0  0  0  0  0  0  0  0  0  0
   12.4984  -16.4532   24.7425 O   0  0  0  0  0  0  0  0  0  0  0  0
    4.9414  -12.9542   26.2780 O   0  0  0  0  0  0  0  0  0  0  0  0
    6.2813  -13.2866   26.4135 C   0  0  0  0  0  0  0  0  0  0  0  0
    7.0166  -13.6335   25.3024 C   0  0  0  0  0  0  0  0  0  0  0  0
    8.3581  -13.9729   25.3940 C   0  0  0  0  0  0  0  0  0  0  0  0
    9.0266  -13.9811   26.6029 C   0  0  0  0  0  0  0  0  0  0  0  0
   10.4612  -14.3497   26.6818 C   0  0  0  0  0  0  0  0  0  0  0  0
   10.5630  -15.8617   26.5588 C   0  0  2  0  0  0  0  0  0  0  0  0
   10.2627  -16.1596   25.1435 N   0  0  0  0  0  0  0  0  0  0  0  0
    9.6463  -16.5997   27.4141 C   0  0  0  0  0  0  0  0  0  0  0  0
    8.7457  -17.5213   26.9095 O   0  0  0  0  0  0  0  0  0  0  0  0
    8.2711  -13.6279   27.7205 C   0  0  0  0  0  0  0  0  0  0  0  0
    6.9385  -13.2911   27.6268 C   0  0  0  0  0  0  0  0  0  0  0  0
    9.6208  -16.4411   28.6627 O   0  0  0  0  0  0  0  0  0  0  0  0
  2  1  1  6
  2  3  1  0
  4  2  1  0
  5  4  1  0
  5  6  1  1
  7  5  1  0
  8  7  2  0
  9 10  1  0
 10 12  1  0
 10 11  2  0
 13 12  1  6
 13 14  1  0
 14  7  1  0
 15 13  1  0
 15 24  1  0
 16 15  2  0
 17 18  1  0
 18 28  2  0
 19 20  2  0
 19 18  1  0
 20 21  1  0
 21 22  1  0
 21 27  2  0
 23 22  1  6
 23 24  1  0
 23 25  1  0
 25 26  1  0
 28 27  1  0
 29 25  2  0
M  END
$$$$
