YEI.pdb
     RDKit          3D

 30 30  0  0  1  0  0  0  0  0999 V2000
   14.6641  -18.3576  -16.5010 O   0  0  0  0  0  0  0  0  0  0  0  0
   15.3835  -17.1858  -16.7169 C   0  0  0  0  0  0  0  0  0  0  0  0
   14.7882  -15.9364  -16.6043 C   0  0  0  0  0  0  0  0  0  0  0  0
   15.5015  -14.7783  -16.8182 C   0  0  0  0  0  0  0  0  0  0  0  0
   16.8229  -14.8486  -17.1486 C   0  0  0  0  0  0  0  0  0  0  0  0
   17.6872  -13.6667  -17.4009 C   0  0  0  0  0  0  0  0  0  0  0  0
   17.2134  -12.9747  -18.6693 C   0  0  2  0  0  0  0  0  0  0  0  0
   17.5194  -13.8361  -19.7794 N   0  0  0  0  0  0  0  0  0  0  0  0
   17.8973  -11.6683  -18.8545 C   0  0  0  0  0  0  0  0  0  0  0  0
   18.2649  -11.3007  -20.0072 O   0  0  0  0  0  0  0  0  0  0  0  0
   17.4110  -16.1025  -17.2593 C   0  0  0  0  0  0  0  0  0  0  0  0
   16.7052  -17.2548  -17.0474 C   0  0  0  0  0  0  0  0  0  0  0  0
   18.1695  -10.7836  -17.7805 N   0  0  0  0  0  0  0  0  0  0  0  0
   18.6592   -9.4308  -17.9521 C   0  0  1  0  0  0  0  0  0  0  0  0
   17.8959   -8.6805  -18.9880 C   0  0  0  0  0  0  0  0  0  0  0  0
   18.3131   -7.2977  -19.2922 C   0  0  0  0  0  0  0  0  0  0  0  0
   17.5401   -6.4748  -20.1793 C   0  0  0  0  0  0  0  0  0  0  0  0
   16.5057   -6.7976  -20.7671 O   0  0  0  0  0  0  0  0  0  0  0  0
   18.9491   -8.7155  -16.7063 C   0  0  0  0  0  0  0  0  0  0  0  0
   18.0643   -8.4144  -15.8403 O   0  0  0  0  0  0  0  0  0  0  0  0
   17.9930   -5.1585  -20.4163 O   0  0  0  0  0  0  0  0  0  0  0  0
   23.6225  -10.8722  -13.7734 C   0  0  0  0  0  0  0  0  0  0  0  0
   22.6063   -9.7943  -13.7724 C   0  0  0  0  0  0  0  0  0  0  0  0
   21.9538   -9.4734  -15.0573 C   0  0  2  0  0  0  0  0  0  0  0  0
   23.0018   -9.1248  -16.1282 C   0  0  0  0  0  0  0  0  0  0  0  0
   20.8590   -8.4471  -15.0554 C   0  0  2  0  0  0  0  0  0  0  0  0
   20.2866   -8.2983  -16.3620 N   0  0  0  0  0  0  0  0  0  0  0  0
   21.5391   -7.1435  -14.7162 C   0  0  0  0  0  0  0  0  0  0  0  0
   21.8613   -6.3039  -15.5930 O   0  0  0  0  0  0  0  0  0  0  0  0
   21.8284   -6.8390  -13.3949 O   0  0  0  0  0  0  0  0  0  0  0  0
  2  1  1  0
  2  3  2  0
  4  3  1  0
  5  4  2  0
  6  5  1  0
  7  9  1  0
  7  6  1  0
  7  8  1  6
  9 10  2  0
 11 12  2  0
 11  5  1  0
 12  2  1  0
 13 14  1  0
 13  9  1  0
 14 15  1  1
 15 16  1  0
 16 17  1  0
 17 18  2  0
 19 20  2  0
 19 14  1  0
 21 17  1  0
 23 24  1  0
 23 22  1  0
 24 25  1  6
 24 26  1  0
 26 27  1  6
 27 19  1  0
 28 26  1  0
 28 30  1  0
 29 28  2  0
M  END
$$$$
