YEI.pdb
     RDKit          3D

 30 30  0  0  1  0  0  0  0  0999 V2000
   17.0367  -13.9287  -16.8497 O   0  0  0  0  0  0  0  0  0  0  0  0
   17.8746  -14.8718  -16.2618 C   0  0  0  0  0  0  0  0  0  0  0  0
   17.4003  -15.7840  -15.3285 C   0  0  0  0  0  0  0  0  0  0  0  0
   18.2307  -16.7163  -14.7481 C   0  0  0  0  0  0  0  0  0  0  0  0
   19.5505  -16.7533  -15.0904 C   0  0  0  0  0  0  0  0  0  0  0  0
   20.5347  -17.7143  -14.5289 C   0  0  0  0  0  0  0  0  0  0  0  0
   20.7147  -18.8614  -15.5108 C   0  0  2  0  0  0  0  0  0  0  0  0
   19.5309  -19.6759  -15.4556 N   0  0  0  0  0  0  0  0  0  0  0  0
   21.8993  -19.6871  -15.1590 C   0  0  0  0  0  0  0  0  0  0  0  0
   21.8666  -20.4488  -14.1502 O   0  0  0  0  0  0  0  0  0  0  0  0
   20.0172  -15.8372  -16.0249 C   0  0  0  0  0  0  0  0  0  0  0  0
   19.1948  -14.9098  -16.6033 C   0  0  0  0  0  0  0  0  0  0  0  0
   23.1004  -19.6692  -15.9121 N   0  0  0  0  0  0  0  0  0  0  0  0
   24.3274  -20.3153  -15.4920 C   0  0  1  0  0  0  0  0  0  0  0  0
   25.2541  -20.5641  -16.6313 C   0  0  0  0  0  0  0  0  0  0  0  0
   26.5101  -21.2900  -16.3589 C   0  0  0  0  0  0  0  0  0  0  0  0
   27.4147  -21.6194  -17.4242 C   0  0  0  0  0  0  0  0  0  0  0  0
   27.3967  -21.1662  -18.5704 O   0  0  0  0  0  0  0  0  0  0  0  0
   24.9247  -19.7721  -14.2689 C   0  0  0  0  0  0  0  0  0  0  0  0
   25.0429  -18.5258  -14.0317 O   0  0  0  0  0  0  0  0  0  0  0  0
   28.4364  -22.5556  -17.1526 O   0  0  0  0  0  0  0  0  0  0  0  0
   25.5544  -20.6314   -8.2775 C   0  0  0  0  0  0  0  0  0  0  0  0
   26.2202  -20.2388   -9.5411 C   0  0  0  0  0  0  0  0  0  0  0  0
   25.5752  -20.6462  -10.8051 C   0  0  2  0  0  0  0  0  0  0  0  0
   25.3926  -22.1729  -10.8558 C   0  0  0  0  0  0  0  0  0  0  0  0
   26.1725  -20.1564  -12.0916 C   0  0  2  0  0  0  0  0  0  0  0  0
   25.4263  -20.6284  -13.2218 N   0  0  0  0  0  0  0  0  0  0  0  0
   27.5382  -20.7942  -12.1621 C   0  0  0  0  0  0  0  0  0  0  0  0
   28.4943  -20.4203  -11.4385 O   0  0  0  0  0  0  0  0  0  0  0  0
   27.7698  -21.8335  -13.0501 O   0  0  0  0  0  0  0  0  0  0  0  0
  2  1  1  0
  2  3  2  0
  4  3  1  0
  5  4  2  0
  6  5  1  0
  7  9  1  0
  7  6  1  0
  7  8  1  1
  9 10  2  0
 11 12  2  0
 11  5  1  0
 12  2  1  0
 13 14  1  0
 13  9  1  0
 14 15  1  6
 15 16  1  0
 16 17  1  0
 17 18  2  0
 19 20  2  0
 19 14  1  0
 21 17  1  0
 23 24  1  0
 23 22  1  0
 24 25  1  6
 24 26  1  0
 26 27  1  6
 27 19  1  0
 28 26  1  0
 28 30  1  0
 29 28  2  0
M  END
$$$$
