YEI.pdb
     RDKit          3D

 30 30  0  0  1  0  0  0  0  0999 V2000
   16.3579  -15.1395  -13.4837 O   0  0  0  0  0  0  0  0  0  0  0  0
   17.3779  -15.9767  -13.0408 C   0  0  0  0  0  0  0  0  0  0  0  0
   18.6871  -15.8198  -13.4759 C   0  0  0  0  0  0  0  0  0  0  0  0
   19.6948  -16.6489  -13.0366 C   0  0  0  0  0  0  0  0  0  0  0  0
   19.4115  -17.6498  -12.1544 C   0  0  0  0  0  0  0  0  0  0  0  0
   20.4178  -18.6007  -11.6151 C   0  0  0  0  0  0  0  0  0  0  0  0
   20.9918  -19.4118  -12.7661 C   0  0  2  0  0  0  0  0  0  0  0  0
   19.9330  -20.2252  -13.3005 N   0  0  0  0  0  0  0  0  0  0  0  0
   22.1014  -20.2861  -12.3044 C   0  0  0  0  0  0  0  0  0  0  0  0
   21.8643  -21.2632  -11.5376 O   0  0  0  0  0  0  0  0  0  0  0  0
   18.0990  -17.8000  -11.7241 C   0  0  0  0  0  0  0  0  0  0  0  0
   17.0957  -16.9781  -12.1585 C   0  0  0  0  0  0  0  0  0  0  0  0
   23.4516  -20.0814  -12.6859 N   0  0  0  0  0  0  0  0  0  0  0  0
   24.5344  -20.9793  -12.3388 C   0  0  1  0  0  0  0  0  0  0  0  0
   24.8824  -21.9032  -13.4541 C   0  0  0  0  0  0  0  0  0  0  0  0
   25.3875  -23.2470  -13.1108 C   0  0  0  0  0  0  0  0  0  0  0  0
   24.5251  -24.3934  -13.1683 C   0  0  0  0  0  0  0  0  0  0  0  0
   23.3569  -24.4156  -13.5613 O   0  0  0  0  0  0  0  0  0  0  0  0
   25.6560  -20.3520  -11.6343 C   0  0  0  0  0  0  0  0  0  0  0  0
   26.0637  -19.1672  -11.8655 O   0  0  0  0  0  0  0  0  0  0  0  0
   25.0483  -25.6315  -12.7352 O   0  0  0  0  0  0  0  0  0  0  0  0
   26.9328  -20.1368   -6.2630 C   0  0  0  0  0  0  0  0  0  0  0  0
   26.8900  -19.9017   -7.7250 C   0  0  0  0  0  0  0  0  0  0  0  0
   27.6982  -20.7925   -8.5812 C   0  0  2  0  0  0  0  0  0  0  0  0
   29.1625  -20.8190   -8.1102 C   0  0  0  0  0  0  0  0  0  0  0  0
   27.6390  -20.5876  -10.0665 C   0  0  2  0  0  0  0  0  0  0  0  0
   26.3896  -21.0443  -10.6027 N   0  0  0  0  0  0  0  0  0  0  0  0
   28.7181  -21.4777  -10.6322 C   0  0  0  0  0  0  0  0  0  0  0  0
   28.4713  -22.6083  -11.1204 O   0  0  0  0  0  0  0  0  0  0  0  0
   30.0378  -21.0528  -10.6247 O   0  0  0  0  0  0  0  0  0  0  0  0
  2  1  1  0
  2  3  2  0
  4  3  1  0
  5  4  2  0
  6  5  1  0
  7  9  1  0
  7  6  1  0
  7  8  1  1
  9 10  2  0
 11 12  2  0
 11  5  1  0
 12  2  1  0
 13 14  1  0
 13  9  1  0
 14 15  1  6
 15 16  1  0
 16 17  1  0
 17 18  2  0
 19 20  2  0
 19 14  1  0
 21 17  1  0
 23 24  1  0
 23 22  1  0
 24 25  1  1
 24 26  1  0
 26 27  1  6
 27 19  1  0
 28 26  1  0
 28 30  1  0
 29 28  2  0
M  END
$$$$
