YEI.pdb
     RDKit          3D

 30 30  0  0  1  0  0  0  0  0999 V2000
   24.7616  -17.6732  -15.3625 O   0  0  0  0  0  0  0  0  0  0  0  0
   24.2851  -16.4051  -15.6821 C   0  0  0  0  0  0  0  0  0  0  0  0
   23.8261  -16.1013  -16.9569 C   0  0  0  0  0  0  0  0  0  0  0  0
   23.3550  -14.8462  -17.2712 C   0  0  0  0  0  0  0  0  0  0  0  0
   23.3345  -13.8724  -16.3164 C   0  0  0  0  0  0  0  0  0  0  0  0
   22.8485  -12.4868  -16.5437 C   0  0  0  0  0  0  0  0  0  0  0  0
   21.3845  -12.4085  -16.1402 C   0  0  2  0  0  0  0  0  0  0  0  0
   20.6294  -13.2006  -17.0733 N   0  0  0  0  0  0  0  0  0  0  0  0
   20.8940  -11.0060  -16.1724 C   0  0  0  0  0  0  0  0  0  0  0  0
   20.8533  -10.3715  -17.2655 O   0  0  0  0  0  0  0  0  0  0  0  0
   23.7956  -14.1845  -15.0435 C   0  0  0  0  0  0  0  0  0  0  0  0
   24.2641  -15.4302  -14.7281 C   0  0  0  0  0  0  0  0  0  0  0  0
   20.4559  -10.3176  -15.0129 N   0  0  0  0  0  0  0  0  0  0  0  0
   19.9742   -8.9511  -15.0181 C   0  0  1  0  0  0  0  0  0  0  0  0
   18.5885   -8.8381  -14.4838 C   0  0  0  0  0  0  0  0  0  0  0  0
   17.4843   -9.3859  -15.2959 C   0  0  0  0  0  0  0  0  0  0  0  0
   16.2517   -8.6645  -15.4431 C   0  0  0  0  0  0  0  0  0  0  0  0
   15.7254   -8.3169  -16.5023 O   0  0  0  0  0  0  0  0  0  0  0  0
   20.9399   -7.9534  -14.5492 C   0  0  0  0  0  0  0  0  0  0  0  0
   21.7313   -8.1402  -13.5683 O   0  0  0  0  0  0  0  0  0  0  0  0
   15.5554   -8.3068  -14.2678 O   0  0  0  0  0  0  0  0  0  0  0  0
   24.7012   -3.7723  -16.8955 C   0  0  0  0  0  0  0  0  0  0  0  0
   23.8271   -4.1361  -15.7562 C   0  0  0  0  0  0  0  0  0  0  0  0
   22.8522   -5.2246  -15.9671 C   0  0  2  0  0  0  0  0  0  0  0  0
   21.9345   -4.9098  -17.1611 C   0  0  0  0  0  0  0  0  0  0  0  0
   22.0332   -5.6751  -14.7933 C   0  0  2  0  0  0  0  0  0  0  0  0
   21.0700   -6.6638  -15.1829 N   0  0  0  0  0  0  0  0  0  0  0  0
   21.2642   -4.4530  -14.3548 C   0  0  0  0  0  0  0  0  0  0  0  0
   20.0481   -4.2903  -14.6234 O   0  0  0  0  0  0  0  0  0  0  0  0
   21.9021   -3.4603  -13.6270 O   0  0  0  0  0  0  0  0  0  0  0  0
  2  1  1  0
  2  3  2  0
  4  3  1  0
  5  4  2  0
  6  5  1  0
  7  9  1  0
  7  6  1  0
  7  8  1  6
  9 10  2  0
 11 12  2  0
 11  5  1  0
 12  2  1  0
 13 14  1  0
 13  9  1  0
 14 15  1  1
 15 16  1  0
 16 17  1  0
 17 18  2  0
 19 20  2  0
 19 14  1  0
 21 17  1  0
 23 24  1  0
 23 22  1  0
 24 25  1  6
 24 26  1  0
 26 27  1  6
 27 19  1  0
 28 26  1  0
 28 30  1  0
 29 28  2  0
M  END
$$$$
