YEI.pdb
     RDKit          3D

 30 30  0  0  1  0  0  0  0  0999 V2000
   29.2578   -7.9646  -18.6590 O   0  0  0  0  0  0  0  0  0  0  0  0
   28.5168   -8.7066  -17.7437 C   0  0  0  0  0  0  0  0  0  0  0  0
   28.9889   -9.9071  -17.2298 C   0  0  0  0  0  0  0  0  0  0  0  0
   28.2545  -10.6398  -16.3245 C   0  0  0  0  0  0  0  0  0  0  0  0
   27.0349  -10.1852  -15.9167 C   0  0  0  0  0  0  0  0  0  0  0  0
   26.1593  -10.8918  -14.9462 C   0  0  0  0  0  0  0  0  0  0  0  0
   24.9763  -11.4850  -15.6951 C   0  0  2  0  0  0  0  0  0  0  0  0
   25.4850  -12.1435  -16.8680 N   0  0  0  0  0  0  0  0  0  0  0  0
   24.0139  -10.4275  -16.1005 C   0  0  0  0  0  0  0  0  0  0  0  0
   24.0416   -9.9586  -17.2745 O   0  0  0  0  0  0  0  0  0  0  0  0
   26.5698   -8.9833  -16.4356 C   0  0  0  0  0  0  0  0  0  0  0  0
   27.2969   -8.2530  -17.3351 C   0  0  0  0  0  0  0  0  0  0  0  0
   23.0370   -9.8981  -15.2198 N   0  0  0  0  0  0  0  0  0  0  0  0
   22.0794   -8.8774  -15.5947 C   0  0  1  0  0  0  0  0  0  0  0  0
   20.6774   -9.2788  -15.2915 C   0  0  0  0  0  0  0  0  0  0  0  0
   20.1136  -10.4341  -16.0168 C   0  0  0  0  0  0  0  0  0  0  0  0
   18.7502  -10.8358  -15.8135 C   0  0  0  0  0  0  0  0  0  0  0  0
   18.2664  -11.2965  -14.7775 O   0  0  0  0  0  0  0  0  0  0  0  0
   22.4611   -7.5092  -15.2341 C   0  0  0  0  0  0  0  0  0  0  0  0
   23.2091   -7.2204  -14.2439 O   0  0  0  0  0  0  0  0  0  0  0  0
   17.8559  -10.6976  -16.8975 O   0  0  0  0  0  0  0  0  0  0  0  0
   23.7191   -2.1980  -18.0359 C   0  0  0  0  0  0  0  0  0  0  0  0
   23.2003   -2.8709  -16.8224 C   0  0  0  0  0  0  0  0  0  0  0  0
   22.8063   -4.2883  -16.9464 C   0  0  2  0  0  0  0  0  0  0  0  0
   21.7431   -4.4640  -18.0443 C   0  0  0  0  0  0  0  0  0  0  0  0
   22.3865   -5.0151  -15.7025 C   0  0  2  0  0  0  0  0  0  0  0  0
   22.0123   -6.3684  -15.9948 N   0  0  0  0  0  0  0  0  0  0  0  0
   21.1441   -4.3023  -15.2279 C   0  0  0  0  0  0  0  0  0  0  0  0
   19.9905   -4.7615  -15.4169 O   0  0  0  0  0  0  0  0  0  0  0  0
   21.2551   -3.0949  -14.5554 O   0  0  0  0  0  0  0  0  0  0  0  0
  2  1  1  0
  2  3  2  0
  4  3  1  0
  5  4  2  0
  6  5  1  0
  7  9  1  0
  7  6  1  0
  7  8  1  6
  9 10  2  0
 11 12  2  0
 11  5  1  0
 12  2  1  0
 13 14  1  0
 13  9  1  0
 14 15  1  1
 15 16  1  0
 16 17  1  0
 17 18  2  0
 19 20  2  0
 19 14  1  0
 21 17  1  0
 23 24  1  0
 23 22  1  0
 24 25  1  6
 24 26  1  0
 26 27  1  6
 27 19  1  0
 28 26  1  0
 28 30  1  0
 29 28  2  0
M  END
$$$$
