YEI.pdb
     RDKit          3D

 30 30  0  0  1  0  0  0  0  0999 V2000
   30.8150  -23.7180  -19.5659 O   0  0  0  0  0  0  0  0  0  0  0  0
   30.2305  -22.9786  -18.5417 C   0  0  0  0  0  0  0  0  0  0  0  0
   29.4622  -23.5836  -17.5558 C   0  0  0  0  0  0  0  0  0  0  0  0
   28.8848  -22.8506  -16.5434 C   0  0  0  0  0  0  0  0  0  0  0  0
   29.0652  -21.4993  -16.4985 C   0  0  0  0  0  0  0  0  0  0  0  0
   28.4907  -20.6119  -15.4544 C   0  0  0  0  0  0  0  0  0  0  0  0
   26.9852  -20.5324  -15.6529 C   0  0  2  0  0  0  0  0  0  0  0  0
   26.7313  -19.5918  -16.7108 N   0  0  0  0  0  0  0  0  0  0  0  0
   26.3046  -20.0766  -14.4128 C   0  0  0  0  0  0  0  0  0  0  0  0
   26.4486  -18.8871  -14.0087 O   0  0  0  0  0  0  0  0  0  0  0  0
   29.8351  -20.9018  -17.4886 C   0  0  0  0  0  0  0  0  0  0  0  0
   30.4101  -21.6271  -18.4957 C   0  0  0  0  0  0  0  0  0  0  0  0
   25.4780  -20.9247  -13.6331 N   0  0  0  0  0  0  0  0  0  0  0  0
   24.8360  -20.5163  -12.4001 C   0  0  1  0  0  0  0  0  0  0  0  0
   23.3510  -20.4988  -12.5148 C   0  0  0  0  0  0  0  0  0  0  0  0
   22.7572  -19.9880  -13.7658 C   0  0  0  0  0  0  0  0  0  0  0  0
   22.4279  -20.8803  -14.8413 C   0  0  0  0  0  0  0  0  0  0  0  0
   22.2036  -22.0891  -14.7510 O   0  0  0  0  0  0  0  0  0  0  0  0
   25.3916  -21.1182  -11.1849 C   0  0  0  0  0  0  0  0  0  0  0  0
   25.7775  -22.3301  -11.1077 O   0  0  0  0  0  0  0  0  0  0  0  0
   22.3476  -20.3389  -16.1431 O   0  0  0  0  0  0  0  0  0  0  0  0
   28.6911  -19.6055   -6.2193 C   0  0  0  0  0  0  0  0  0  0  0  0
   27.6031  -20.4343   -6.7883 C   0  0  0  0  0  0  0  0  0  0  0  0
   27.0881  -20.0598   -8.1203 C   0  0  2  0  0  0  0  0  0  0  0  0
   26.6455  -18.5866   -8.1385 C   0  0  0  0  0  0  0  0  0  0  0  0
   26.0260  -20.9239   -8.7343 C   0  0  2  0  0  0  0  0  0  0  0  0
   25.5502  -20.3633   -9.9657 N   0  0  0  0  0  0  0  0  0  0  0  0
   24.8764  -20.8923   -7.7574 C   0  0  0  0  0  0  0  0  0  0  0  0
   23.8517  -20.1908   -7.9455 O   0  0  0  0  0  0  0  0  0  0  0  0
   24.9302  -21.6582   -6.6029 O   0  0  0  0  0  0  0  0  0  0  0  0
  2  1  1  0
  2  3  2  0
  4  3  1  0
  5  4  2  0
  6  5  1  0
  7  9  1  0
  7  6  1  0
  7  8  1  6
  9 10  2  0
 11 12  2  0
 11  5  1  0
 12  2  1  0
 13 14  1  0
 13  9  1  0
 14 15  1  6
 15 16  1  0
 16 17  1  0
 17 18  2  0
 19 20  2  0
 19 14  1  0
 21 17  1  0
 23 24  1  0
 23 22  1  0
 24 25  1  1
 24 26  1  0
 26 27  1  6
 27 19  1  0
 28 26  1  0
 28 30  1  0
 29 28  2  0
M  END
$$$$
