YEI.pdb
     RDKit          3D

 30 30  0  0  1  0  0  0  0  0999 V2000
   19.6016  -15.3917  -20.9763 O   0  0  0  0  0  0  0  0  0  0  0  0
   19.3868  -14.1761  -20.3332 C   0  0  0  0  0  0  0  0  0  0  0  0
   20.4366  -13.3199  -20.0283 C   0  0  0  0  0  0  0  0  0  0  0  0
   20.2222  -12.1177  -19.3921 C   0  0  0  0  0  0  0  0  0  0  0  0
   18.9542  -11.7501  -19.0494 C   0  0  0  0  0  0  0  0  0  0  0  0
   18.6074  -10.4791  -18.3625 C   0  0  0  0  0  0  0  0  0  0  0  0
   19.0702  -10.5615  -16.9163 C   0  0  2  0  0  0  0  0  0  0  0  0
   18.2444  -11.5294  -16.2460 N   0  0  0  0  0  0  0  0  0  0  0  0
   18.9409   -9.2463  -16.2365 C   0  0  0  0  0  0  0  0  0  0  0  0
   17.8118   -8.8500  -15.8278 O   0  0  0  0  0  0  0  0  0  0  0  0
   17.9095  -12.6124  -19.3580 C   0  0  0  0  0  0  0  0  0  0  0  0
   18.1191  -13.8073  -19.9899 C   0  0  0  0  0  0  0  0  0  0  0  0
   20.0442   -8.3842  -16.0131 N   0  0  0  0  0  0  0  0  0  0  0  0
   19.9256   -7.0405  -15.4843 C   0  0  1  0  0  0  0  0  0  0  0  0
   21.1023   -6.6525  -14.6576 C   0  0  0  0  0  0  0  0  0  0  0  0
   21.1236   -5.2973  -14.0729 C   0  0  0  0  0  0  0  0  0  0  0  0
   22.2107   -4.8749  -13.2354 C   0  0  0  0  0  0  0  0  0  0  0  0
   23.0787   -5.5955  -12.7384 O   0  0  0  0  0  0  0  0  0  0  0  0
   19.4382   -6.0411  -16.4390 C   0  0  0  0  0  0  0  0  0  0  0  0
   19.7664   -6.0186  -17.6699 O   0  0  0  0  0  0  0  0  0  0  0  0
   22.3148   -3.4983  -12.9385 O   0  0  0  0  0  0  0  0  0  0  0  0
   14.6680   -3.5154  -18.7653 C   0  0  0  0  0  0  0  0  0  0  0  0
   15.9926   -3.1837  -18.1910 C   0  0  0  0  0  0  0  0  0  0  0  0
   16.6703   -4.2275  -17.3967 C   0  0  2  0  0  0  0  0  0  0  0  0
   15.7919   -4.6669  -16.2126 C   0  0  0  0  0  0  0  0  0  0  0  0
   18.0701   -3.9590  -16.9273 C   0  0  2  0  0  0  0  0  0  0  0  0
   18.5278   -4.9933  -16.0455 N   0  0  0  0  0  0  0  0  0  0  0  0
   17.9789   -2.6902  -16.1158 C   0  0  0  0  0  0  0  0  0  0  0  0
   18.0639   -2.6846  -14.8626 O   0  0  0  0  0  0  0  0  0  0  0  0
   17.7954   -1.4735  -16.7548 O   0  0  0  0  0  0  0  0  0  0  0  0
  2  1  1  0
  2  3  2  0
  4  3  1  0
  5  4  2  0
  6  5  1  0
  7  9  1  0
  7  6  1  0
  7  8  1  1
  9 10  2  0
 11 12  2  0
 11  5  1  0
 12  2  1  0
 13 14  1  0
 13  9  1  0
 14 15  1  6
 15 16  1  0
 16 17  1  0
 17 18  2  0
 19 20  2  0
 19 14  1  0
 21 17  1  0
 23 24  1  0
 23 22  1  0
 24 25  1  1
 24 26  1  0
 26 27  1  1
 27 19  1  0
 28 26  1  0
 28 30  1  0
 29 28  2  0
M  END
$$$$
