YEI.pdb
     RDKit          3D

 30 30  0  0  1  0  0  0  0  0999 V2000
   13.2399  -13.1954    2.2502 O   0  0  0  0  0  0  0  0  0  0  0  0
   13.9011  -14.3878    2.5300 C   0  0  0  0  0  0  0  0  0  0  0  0
   13.6060  -15.5601    1.8467 C   0  0  0  0  0  0  0  0  0  0  0  0
   14.2612  -16.7387    2.1248 C   0  0  0  0  0  0  0  0  0  0  0  0
   15.2233  -16.7664    3.0912 C   0  0  0  0  0  0  0  0  0  0  0  0
   15.9923  -17.9791    3.4729 C   0  0  0  0  0  0  0  0  0  0  0  0
   17.4503  -17.7749    3.0924 C   0  0  2  0  0  0  0  0  0  0  0  0
   17.5434  -17.8441    1.6590 N   0  0  0  0  0  0  0  0  0  0  0  0
   18.3133  -18.8242    3.6948 C   0  0  0  0  0  0  0  0  0  0  0  0
   18.6745  -19.8224    3.0076 O   0  0  0  0  0  0  0  0  0  0  0  0
   15.5126  -15.5894    3.7702 C   0  0  0  0  0  0  0  0  0  0  0  0
   14.8636  -14.4169    3.4964 C   0  0  0  0  0  0  0  0  0  0  0  0
   18.7688  -18.7688    5.0364 N   0  0  0  0  0  0  0  0  0  0  0  0
   19.5935  -19.7883    5.6525 C   0  0  1  0  0  0  0  0  0  0  0  0
   20.2313  -19.3144    6.9123 C   0  0  0  0  0  0  0  0  0  0  0  0
   21.0849  -20.2606    7.6572 C   0  0  0  0  0  0  0  0  0  0  0  0
   21.6914  -19.8807    8.9019 C   0  0  0  0  0  0  0  0  0  0  0  0
   21.9051  -18.7320    9.2951 O   0  0  0  0  0  0  0  0  0  0  0  0
   19.0007  -21.1283    5.6828 C   0  0  0  0  0  0  0  0  0  0  0  0
   17.8167  -21.3698    6.0866 O   0  0  0  0  0  0  0  0  0  0  0  0
   22.0912  -20.9120    9.7798 O   0  0  0  0  0  0  0  0  0  0  0  0
   21.0789  -24.8441    2.0500 C   0  0  0  0  0  0  0  0  0  0  0  0
   20.1599  -24.0517    2.8995 C   0  0  0  0  0  0  0  0  0  0  0  0
   19.9549  -24.5072    4.2889 C   0  0  2  0  0  0  0  0  0  0  0  0
   19.3729  -25.9310    4.3149 C   0  0  0  0  0  0  0  0  0  0  0  0
   19.1798  -23.6173    5.2157 C   0  0  2  0  0  0  0  0  0  0  0  0
   19.7295  -22.2929    5.2421 N   0  0  0  0  0  0  0  0  0  0  0  0
   19.3776  -24.2088    6.5898 C   0  0  0  0  0  0  0  0  0  0  0  0
   18.8309  -25.2819    6.9462 O   0  0  0  0  0  0  0  0  0  0  0  0
   20.1889  -23.5621    7.5095 O   0  0  0  0  0  0  0  0  0  0  0  0
  2  1  1  0
  2  3  2  0
  4  3  1  0
  5  4  2  0
  6  5  1  0
  7  9  1  0
  7  6  1  0
  7  8  1  6
  9 10  2  0
 11 12  2  0
 11  5  1  0
 12  2  1  0
 13 14  1  0
 13  9  1  0
 14 15  1  1
 15 16  1  0
 16 17  1  0
 17 18  2  0
 19 20  2  0
 19 14  1  0
 21 17  1  0
 23 24  1  0
 23 22  1  0
 24 25  1  6
 24 26  1  0
 26 27  1  1
 27 19  1  0
 28 26  1  0
 28 30  1  0
 29 28  2  0
M  END
$$$$
