ERI.pdb
     RDKit          3D

 29 28  0  0  1  0  0  0  0  0999 V2000
    9.0844  -17.2665   18.4151 N   0  0  0  0  0  0  0  0  0  0  0  0
    9.6858  -17.6030   19.6664 C   0  0  1  0  0  0  0  0  0  0  0  0
   11.0153  -16.9064   19.7971 C   0  0  0  0  0  0  0  0  0  0  0  0
   12.1550  -17.5433   19.0996 C   0  0  0  0  0  0  0  0  0  0  0  0
   13.4772  -16.9470   19.2722 C   0  0  0  0  0  0  0  0  0  0  0  0
   14.2911  -17.4561   20.0960 O   0  0  0  0  0  0  0  0  0  0  0  0
    8.8731  -17.1915   20.8576 C   0  0  0  0  0  0  0  0  0  0  0  0
    7.9937  -16.3208   20.6493 O   0  0  0  0  0  0  0  0  0  0  0  0
   13.8927  -15.8386   18.5761 O   0  0  0  0  0  0  0  0  0  0  0  0
    5.9580  -22.5842   26.6337 N   0  0  0  0  0  0  0  0  0  0  0  0
    5.7083  -22.2014   25.2720 C   0  0  0  0  0  0  0  0  0  0  0  0
    5.1718  -23.0585   24.4901 N   0  0  0  0  0  0  0  0  0  0  0  0
    6.0570  -20.9002   24.8250 N   0  0  0  0  0  0  0  0  0  0  0  0
    6.6692  -20.0027   25.7854 C   0  0  0  0  0  0  0  0  0  0  0  0
    6.9806  -18.6591   25.1660 C   0  0  0  0  0  0  0  0  0  0  0  0
    7.8361  -18.7720   23.9412 C   0  0  0  0  0  0  0  0  0  0  0  0
    8.1130  -17.4714   23.2607 C   0  0  2  0  0  0  0  0  0  0  0  0
    9.0280  -17.7010   22.1551 N   0  0  0  0  0  0  0  0  0  0  0  0
    8.6958  -16.5262   24.2542 C   0  0  0  0  0  0  0  0  0  0  0  0
    9.9147  -16.6168   24.5273 O   0  0  0  0  0  0  0  0  0  0  0  0
    4.9585  -22.8387   23.5160 C   0  0  0  0  0  0  0  0  0  0  0  0
    5.6478  -12.0581   25.8410 C   0  0  0  0  0  0  0  0  0  0  0  0
    6.8299  -12.8321   25.2998 C   0  0  2  0  0  0  0  0  0  0  0  0
    7.4710  -13.6571   26.3985 C   0  0  0  0  0  0  0  0  0  0  0  0
    8.0305  -12.7378   27.4461 C   0  0  2  0  0  0  0  0  0  0  0  0
    8.4529  -14.6476   25.8684 N   0  0  0  0  0  0  0  0  0  0  0  0
    7.8992  -15.5391   24.8864 C   0  0  0  0  0  0  0  0  0  0  0  0
    8.9802  -15.4183   27.0359 O   0  0  0  0  0  0  0  0  0  0  0  0
    9.8095  -14.8895   27.8194 O   0  0  0  0  0  0  0  0  0  0  0  0
  2  1  1  6
  3  4  1  0
  3  2  1  0
  4  5  1  0
  5  9  1  0
  5  6  2  0
  7  2  1  0
  7  8  2  0
 11 10  1  0
 11 13  1  0
 12 11  2  0
 14 13  1  0
 15 16  1  0
 15 14  1  0
 17 16  1  1
 17 18  1  0
 18  7  1  0
 19 17  1  0
 20 19  2  0
 21 22  1  0
 22 23  1  0
 23 25  1  0
 23 24  1  1
 25 26  1  6
 25 27  1  0
 26 19  1  0
 27 29  1  0
 28 27  2  0
M  END
$$$$
