ERI.pdb
     RDKit          3D

 29 28  0  0  1  0  0  0  0  0999 V2000
   14.2550  -17.9534   19.9922 N   0  0  0  0  0  0  0  0  0  0  0  0
   13.2873  -18.5172   20.8788 C   0  0  1  0  0  0  0  0  0  0  0  0
   13.9471  -19.5325   21.7753 C   0  0  0  0  0  0  0  0  0  0  0  0
   15.1787  -19.0882   22.4657 C   0  0  0  0  0  0  0  0  0  0  0  0
   15.9188  -20.0797   23.2420 C   0  0  0  0  0  0  0  0  0  0  0  0
   15.4503  -21.2472   23.3758 O   0  0  0  0  0  0  0  0  0  0  0  0
   12.6383  -17.5122   21.7831 C   0  0  0  0  0  0  0  0  0  0  0  0
   13.3412  -16.5218   22.0990 O   0  0  0  0  0  0  0  0  0  0  0  0
   17.1197  -19.8071   23.8497 O   0  0  0  0  0  0  0  0  0  0  0  0
    7.3520  -14.0297   18.8488 N   0  0  0  0  0  0  0  0  0  0  0  0
    7.1828  -13.2809   20.0628 C   0  0  0  0  0  0  0  0  0  0  0  0
    7.4634  -12.0338   20.0498 N   0  0  0  0  0  0  0  0  0  0  0  0
    6.7162  -13.9278   21.2367 N   0  0  0  0  0  0  0  0  0  0  0  0
    7.2351  -15.2507   21.5249 C   0  0  0  0  0  0  0  0  0  0  0  0
    8.6251  -15.1829   22.1160 C   0  0  0  0  0  0  0  0  0  0  0  0
    9.1882  -16.5366   22.4244 C   0  0  0  0  0  0  0  0  0  0  0  0
   10.5984  -16.5201   22.9168 C   0  0  2  0  0  0  0  0  0  0  0  0
   11.3325  -17.6046   22.2868 N   0  0  0  0  0  0  0  0  0  0  0  0
   10.5891  -16.6665   24.3996 C   0  0  0  0  0  0  0  0  0  0  0  0
   10.7531  -17.8061   24.8923 O   0  0  0  0  0  0  0  0  0  0  0  0
    7.3810  -11.4551   20.8869 C   0  0  0  0  0  0  0  0  0  0  0  0
    9.8754  -13.2705   29.5991 C   0  0  0  0  0  0  0  0  0  0  0  0
   10.3079  -14.5423   28.9027 C   0  0  2  0  0  0  0  0  0  0  0  0
   10.0721  -14.4350   27.4089 C   0  0  0  0  0  0  0  0  0  0  0  0
    8.6547  -14.0052   27.1606 C   0  0  2  0  0  0  0  0  0  0  0  0
   10.4711  -15.6734   26.6785 N   0  0  0  0  0  0  0  0  0  0  0  0
   10.3992  -15.5477   25.2486 C   0  0  0  0  0  0  0  0  0  0  0  0
    9.5782  -16.7751   27.1521 O   0  0  0  0  0  0  0  0  0  0  0  0
    9.7703  -17.3049   28.2762 O   0  0  0  0  0  0  0  0  0  0  0  0
  2  1  1  6
  3  4  1  0
  3  2  1  0
  4  5  1  0
  5  9  1  0
  5  6  2  0
  7  2  1  0
  7  8  2  0
 11 10  1  0
 11 13  1  0
 12 11  2  0
 14 13  1  0
 15 16  1  0
 15 14  1  0
 17 16  1  6
 17 18  1  0
 18  7  1  0
 19 17  1  0
 20 19  2  0
 21 22  1  0
 22 23  1  0
 23 25  1  0
 23 24  1  6
 25 26  1  1
 25 27  1  0
 26 19  1  0
 27 29  1  0
 28 27  2  0
M  END
$$$$
