ERI.pdb
     RDKit          3D

 29 28  0  0  1  0  0  0  0  0999 V2000
    7.7933  -17.5618   19.0906 N   0  0  0  0  0  0  0  0  0  0  0  0
    8.4807  -18.0720   20.2341 C   0  0  1  0  0  0  0  0  0  0  0  0
    9.9116  -17.6006   20.2216 C   0  0  0  0  0  0  0  0  0  0  0  0
   10.7784  -18.1798   19.1709 C   0  0  0  0  0  0  0  0  0  0  0  0
   12.1951  -17.8245   19.1856 C   0  0  0  0  0  0  0  0  0  0  0  0
   12.7273  -17.4160   20.2581 O   0  0  0  0  0  0  0  0  0  0  0  0
    7.8978  -17.6217   21.5404 C   0  0  0  0  0  0  0  0  0  0  0  0
    7.2545  -16.5446   21.5134 O   0  0  0  0  0  0  0  0  0  0  0  0
   12.9973  -17.9088   18.0742 O   0  0  0  0  0  0  0  0  0  0  0  0
    4.5881  -23.3610   24.0283 N   0  0  0  0  0  0  0  0  0  0  0  0
    5.7907  -22.9233   23.3762 C   0  0  0  0  0  0  0  0  0  0  0  0
    6.2544  -23.6334   22.4197 N   0  0  0  0  0  0  0  0  0  0  0  0
    6.4336  -21.7307   23.7988 N   0  0  0  0  0  0  0  0  0  0  0  0
    5.6327  -20.5237   23.8637 C   0  0  0  0  0  0  0  0  0  0  0  0
    6.0027  -19.6782   25.0613 C   0  0  0  0  0  0  0  0  0  0  0  0
    7.3643  -19.0656   24.9373 C   0  0  0  0  0  0  0  0  0  0  0  0
    7.4298  -17.8897   24.0183 C   0  0  2  0  0  0  0  0  0  0  0  0
    8.0223  -18.3062   22.7583 N   0  0  0  0  0  0  0  0  0  0  0  0
    8.2399  -16.8203   24.6666 C   0  0  0  0  0  0  0  0  0  0  0  0
    9.4760  -16.7978   24.4668 O   0  0  0  0  0  0  0  0  0  0  0  0
    7.1346  -23.4029   21.9565 C   0  0  0  0  0  0  0  0  0  0  0  0
    5.6809  -12.1686   26.3126 C   0  0  0  0  0  0  0  0  0  0  0  0
    6.7292  -13.0362   25.6510 C   0  0  2  0  0  0  0  0  0  0  0  0
    7.6013  -13.7037   26.6963 C   0  0  0  0  0  0  0  0  0  0  0  0
    8.4019  -12.6565   27.4158 C   0  0  2  0  0  0  0  0  0  0  0  0
    8.4196  -14.8156   26.1302 N   0  0  0  0  0  0  0  0  0  0  0  0
    7.6379  -15.8414   25.4960 C   0  0  0  0  0  0  0  0  0  0  0  0
    9.2244  -15.3897   27.2518 O   0  0  0  0  0  0  0  0  0  0  0  0
    8.8178  -16.4106   27.8631 O   0  0  0  0  0  0  0  0  0  0  0  0
  2  1  1  6
  3  4  1  0
  3  2  1  0
  4  5  1  0
  5  9  1  0
  5  6  2  0
  7  2  1  0
  7  8  2  0
 11 10  1  0
 11 13  1  0
 12 11  2  0
 14 13  1  0
 15 16  1  0
 15 14  1  0
 17 16  1  1
 17 18  1  0
 18  7  1  0
 19 17  1  0
 20 19  2  0
 21 22  1  0
 22 23  1  0
 23 25  1  0
 23 24  1  1
 25 26  1  6
 25 27  1  0
 26 19  1  0
 27 29  1  0
 28 27  2  0
M  END
$$$$
