ERI.pdb
     RDKit          3D

 29 28  0  0  1  0  0  0  0  0999 V2000
    8.5933  -13.6201   18.2694 N   0  0  0  0  0  0  0  0  0  0  0  0
    9.1988  -14.5417   19.1774 C   0  0  1  0  0  0  0  0  0  0  0  0
   10.5490  -14.0261   19.6030 C   0  0  0  0  0  0  0  0  0  0  0  0
   11.7121  -14.5523   18.8539 C   0  0  0  0  0  0  0  0  0  0  0  0
   13.0457  -14.2397   19.3611 C   0  0  0  0  0  0  0  0  0  0  0  0
   13.2175  -14.0579   20.6012 O   0  0  0  0  0  0  0  0  0  0  0  0
    8.4115  -14.7560   20.4356 C   0  0  0  0  0  0  0  0  0  0  0  0
    7.8896  -13.7318   20.9391 O   0  0  0  0  0  0  0  0  0  0  0  0
   14.1462  -14.1273   18.5475 O   0  0  0  0  0  0  0  0  0  0  0  0
    8.6159  -20.7876   24.4854 N   0  0  0  0  0  0  0  0  0  0  0  0
    7.6245  -20.6224   25.5114 C   0  0  0  0  0  0  0  0  0  0  0  0
    7.8735  -21.0880   26.6755 N   0  0  0  0  0  0  0  0  0  0  0  0
    6.4051  -19.9573   25.2197 N   0  0  0  0  0  0  0  0  0  0  0  0
    6.2093  -19.4789   23.8650 C   0  0  0  0  0  0  0  0  0  0  0  0
    6.5052  -18.0005   23.7525 C   0  0  0  0  0  0  0  0  0  0  0  0
    7.2662  -17.6568   22.5085 C   0  0  0  0  0  0  0  0  0  0  0  0
    7.5093  -16.1952   22.3186 C   0  0  2  0  0  0  0  0  0  0  0  0
    8.2262  -15.9928   21.0708 N   0  0  0  0  0  0  0  0  0  0  0  0
    8.2938  -15.6861   23.4787 C   0  0  0  0  0  0  0  0  0  0  0  0
    9.5223  -15.9249   23.5251 O   0  0  0  0  0  0  0  0  0  0  0  0
    7.2246  -20.9651   27.4542 C   0  0  0  0  0  0  0  0  0  0  0  0
    6.0862  -11.3742   26.1349 C   0  0  0  0  0  0  0  0  0  0  0  0
    7.0760  -12.2291   25.3742 C   0  0  2  0  0  0  0  0  0  0  0  0
    7.7059  -13.2565   26.2942 C   0  0  0  0  0  0  0  0  0  0  0  0
    8.5212  -12.5513   27.3399 C   0  0  2  0  0  0  0  0  0  0  0  0
    8.4522  -14.3100   25.5462 N   0  0  0  0  0  0  0  0  0  0  0  0
    7.6759  -14.9453   24.5170 C   0  0  0  0  0  0  0  0  0  0  0  0
    8.9188  -15.3182   26.5467 O   0  0  0  0  0  0  0  0  0  0  0  0
    8.2054  -16.3180   26.8160 O   0  0  0  0  0  0  0  0  0  0  0  0
  2  1  1  6
  3  4  1  0
  3  2  1  0
  4  5  1  0
  5  9  1  0
  5  6  2  0
  7  2  1  0
  7  8  2  0
 11 10  1  0
 11 13  1  0
 12 11  2  0
 14 13  1  0
 15 16  1  0
 15 14  1  0
 17 16  1  1
 17 18  1  0
 18  7  1  0
 19 17  1  0
 20 19  2  0
 21 22  1  0
 22 23  1  0
 23 25  1  0
 23 24  1  1
 25 26  1  6
 25 27  1  0
 26 19  1  0
 27 29  1  0
 28 27  2  0
M  END
$$$$
