ERI.pdb
     RDKit          3D

 29 28  0  0  1  0  0  0  0  0999 V2000
    9.6407  -16.5907   18.9447 N   0  0  0  0  0  0  0  0  0  0  0  0
   10.3860  -16.9073   20.1214 C   0  0  1  0  0  0  0  0  0  0  0  0
   11.5257  -15.9347   20.2805 C   0  0  0  0  0  0  0  0  0  0  0  0
   12.8750  -16.5291   20.4110 C   0  0  0  0  0  0  0  0  0  0  0  0
   13.9610  -15.9263   19.6426 C   0  0  0  0  0  0  0  0  0  0  0  0
   15.1559  -16.2767   19.8659 O   0  0  0  0  0  0  0  0  0  0  0  0
    9.5825  -16.8284   21.3851 C   0  0  0  0  0  0  0  0  0  0  0  0
    8.9235  -15.7737   21.5530 O   0  0  0  0  0  0  0  0  0  0  0  0
   13.7515  -14.9776   18.6721 O   0  0  0  0  0  0  0  0  0  0  0  0
    5.4220  -21.0825   26.2968 N   0  0  0  0  0  0  0  0  0  0  0  0
    6.0837  -20.7528   27.5282 C   0  0  0  0  0  0  0  0  0  0  0  0
    5.3853  -20.7055   28.5978 N   0  0  0  0  0  0  0  0  0  0  0  0
    7.4781  -20.4881   27.5360 N   0  0  0  0  0  0  0  0  0  0  0  0
    8.1666  -20.4808   26.2600 C   0  0  0  0  0  0  0  0  0  0  0  0
    8.1101  -19.1173   25.6090 C   0  0  0  0  0  0  0  0  0  0  0  0
    8.7824  -19.0882   24.2703 C   0  0  0  0  0  0  0  0  0  0  0  0
    8.7269  -17.7639   23.5814 C   0  0  2  0  0  0  0  0  0  0  0  0
    9.5218  -17.8287   22.3665 N   0  0  0  0  0  0  0  0  0  0  0  0
    9.2460  -16.7199   24.5093 C   0  0  0  0  0  0  0  0  0  0  0  0
   10.4781  -16.6688   24.7281 O   0  0  0  0  0  0  0  0  0  0  0  0
    5.7819  -20.3951   29.4859 C   0  0  0  0  0  0  0  0  0  0  0  0
    6.2447  -12.1130   25.3261 C   0  0  0  0  0  0  0  0  0  0  0  0
    7.4058  -13.0365   25.0288 C   0  0  2  0  0  0  0  0  0  0  0  0
    7.9025  -13.6906   26.3032 C   0  0  0  0  0  0  0  0  0  0  0  0
    8.4144  -12.6314   27.2368 C   0  0  2  0  0  0  0  0  0  0  0  0
    8.8742  -14.7913   26.0376 N   0  0  0  0  0  0  0  0  0  0  0  0
    8.3752  -15.7963   25.1395 C   0  0  0  0  0  0  0  0  0  0  0  0
    9.2282  -15.3986   27.3571 O   0  0  0  0  0  0  0  0  0  0  0  0
    8.5673  -16.3712   27.8026 O   0  0  0  0  0  0  0  0  0  0  0  0
  2  1  1  6
  3  4  1  0
  3  2  1  0
  4  5  1  0
  5  9  1  0
  5  6  2  0
  7  2  1  0
  7  8  2  0
 11 10  1  0
 11 13  1  0
 12 11  2  0
 14 13  1  0
 15 16  1  0
 15 14  1  0
 17 16  1  1
 17 18  1  0
 18  7  1  0
 19 17  1  0
 20 19  2  0
 21 22  1  0
 22 23  1  0
 23 25  1  0
 23 24  1  1
 25 26  1  6
 25 27  1  0
 26 19  1  0
 27 29  1  0
 28 27  2  0
M  END
$$$$
