ERI.pdb
     RDKit          3D

 29 28  0  0  1  0  0  0  0  0999 V2000
   13.3304  -14.4769   19.0975 N   0  0  0  0  0  0  0  0  0  0  0  0
   12.9058  -15.0892   20.3161 C   0  0  1  0  0  0  0  0  0  0  0  0
   13.9789  -14.9397   21.3631 C   0  0  0  0  0  0  0  0  0  0  0  0
   15.1428  -15.8452   21.2359 C   0  0  0  0  0  0  0  0  0  0  0  0
   16.1377  -15.8284   22.3052 C   0  0  0  0  0  0  0  0  0  0  0  0
   16.0277  -14.9943   23.2500 O   0  0  0  0  0  0  0  0  0  0  0  0
   11.6619  -14.4841   20.8952 C   0  0  0  0  0  0  0  0  0  0  0  0
   11.7394  -13.2751   21.2226 O   0  0  0  0  0  0  0  0  0  0  0  0
   17.2104  -16.6850   22.3401 O   0  0  0  0  0  0  0  0  0  0  0  0
    7.7160  -12.8311   17.6938 N   0  0  0  0  0  0  0  0  0  0  0  0
    7.6050  -14.0120   16.8837 C   0  0  0  0  0  0  0  0  0  0  0  0
    8.2295  -14.0430   15.7687 N   0  0  0  0  0  0  0  0  0  0  0  0
    6.8158  -15.1052   17.3268 N   0  0  0  0  0  0  0  0  0  0  0  0
    6.8025  -15.3902   18.7484 C   0  0  0  0  0  0  0  0  0  0  0  0
    8.0213  -14.8203   19.4381 C   0  0  0  0  0  0  0  0  0  0  0  0
    8.0583  -15.1384   20.9017 C   0  0  0  0  0  0  0  0  0  0  0  0
    9.2352  -14.5714   21.6262 C   0  0  2  0  0  0  0  0  0  0  0  0
   10.4502  -15.1628   21.0911 N   0  0  0  0  0  0  0  0  0  0  0  0
    9.0889  -14.8646   23.0798 C   0  0  0  0  0  0  0  0  0  0  0  0
    9.7870  -15.7744   23.5829 O   0  0  0  0  0  0  0  0  0  0  0  0
    8.2339  -14.8756   15.1777 C   0  0  0  0  0  0  0  0  0  0  0  0
    6.3122  -11.1938   26.3061 C   0  0  0  0  0  0  0  0  0  0  0  0
    7.4166  -12.0914   25.7926 C   0  0  2  0  0  0  0  0  0  0  0  0
    7.0456  -13.5493   25.9816 C   0  0  0  0  0  0  0  0  0  0  0  0
    6.8941  -13.8359   27.4480 C   0  0  2  0  0  0  0  0  0  0  0  0
    7.9800  -14.4718   25.2728 N   0  0  0  0  0  0  0  0  0  0  0  0
    8.1816  -14.1370   23.8897 C   0  0  0  0  0  0  0  0  0  0  0  0
    7.4219  -15.8529   25.4005 O   0  0  0  0  0  0  0  0  0  0  0  0
    6.5100  -16.2399   24.6260 O   0  0  0  0  0  0  0  0  0  0  0  0
  2  1  1  6
  3  4  1  0
  3  2  1  0
  4  5  1  0
  5  9  1  0
  5  6  2  0
  7  2  1  0
  7  8  2  0
 11 10  1  0
 11 13  1  0
 12 11  2  0
 14 13  1  0
 15 16  1  0
 15 14  1  0
 17 16  1  6
 17 18  1  0
 18  7  1  0
 19 17  1  0
 20 19  2  0
 21 22  1  0
 22 23  1  0
 23 25  1  0
 23 24  1  6
 25 26  1  1
 25 27  1  0
 26 19  1  0
 27 29  1  0
 28 27  2  0
M  END
$$$$
