ERI.pdb
     RDKit          3D

 29 28  0  0  1  0  0  0  0  0999 V2000
    8.2473  -13.7217   18.4208 N   0  0  0  0  0  0  0  0  0  0  0  0
    8.9447  -14.7102   19.1804 C   0  0  1  0  0  0  0  0  0  0  0  0
   10.3518  -14.2455   19.4526 C   0  0  0  0  0  0  0  0  0  0  0  0
   11.3383  -14.4927   18.3770 C   0  0  0  0  0  0  0  0  0  0  0  0
   12.7293  -14.1281   18.6330 C   0  0  0  0  0  0  0  0  0  0  0  0
   13.6587  -14.7474   18.0387 O   0  0  0  0  0  0  0  0  0  0  0  0
    8.3261  -14.9929   20.5169 C   0  0  0  0  0  0  0  0  0  0  0  0
    7.7280  -14.0328   21.0603 O   0  0  0  0  0  0  0  0  0  0  0  0
   13.0911  -13.1302   19.5042 O   0  0  0  0  0  0  0  0  0  0  0  0
    5.7643  -21.3601   25.2118 N   0  0  0  0  0  0  0  0  0  0  0  0
    6.5705  -20.7805   26.2496 C   0  0  0  0  0  0  0  0  0  0  0  0
    6.1864  -20.9141   27.4615 N   0  0  0  0  0  0  0  0  0  0  0  0
    7.7593  -20.0799   25.9173 N   0  0  0  0  0  0  0  0  0  0  0  0
    7.9851  -19.7671   24.5196 C   0  0  0  0  0  0  0  0  0  0  0  0
    7.7506  -18.3006   24.2362 C   0  0  0  0  0  0  0  0  0  0  0  0
    7.9401  -17.9541   22.7909 C   0  0  0  0  0  0  0  0  0  0  0  0
    7.7743  -16.5029   22.4781 C   0  0  2  0  0  0  0  0  0  0  0  0
    8.3721  -16.2267   21.1825 N   0  0  0  0  0  0  0  0  0  0  0  0
    8.4272  -15.7041   23.5534 C   0  0  0  0  0  0  0  0  0  0  0  0
    9.6630  -15.5110   23.4927 O   0  0  0  0  0  0  0  0  0  0  0  0
    6.7256  -20.5355   28.2415 C   0  0  0  0  0  0  0  0  0  0  0  0
    6.7661  -10.7587   26.6484 C   0  0  0  0  0  0  0  0  0  0  0  0
    7.7850  -11.8666   26.4943 C   0  0  2  0  0  0  0  0  0  0  0  0
    7.1864  -13.0356   25.7368 C   0  0  0  0  0  0  0  0  0  0  0  0
    5.9710  -13.5294   26.4677 C   0  0  2  0  0  0  0  0  0  0  0  0
    8.1922  -14.0966   25.4386 N   0  0  0  0  0  0  0  0  0  0  0  0
    7.6777  -15.1675   24.6299 C   0  0  0  0  0  0  0  0  0  0  0  0
    8.6855  -14.6212   26.7488 O   0  0  0  0  0  0  0  0  0  0  0  0
    9.3005  -13.8634   27.5416 O   0  0  0  0  0  0  0  0  0  0  0  0
  2  1  1  1
  3  4  1  0
  3  2  1  0
  4  5  1  0
  5  9  1  0
  5  6  2  0
  7  2  1  0
  7  8  2  0
 11 10  1  0
 11 13  1  0
 12 11  2  0
 14 13  1  0
 15 16  1  0
 15 14  1  0
 17 16  1  1
 17 18  1  0
 18  7  1  0
 19 17  1  0
 20 19  2  0
 21 22  1  0
 22 23  1  0
 23 25  1  0
 23 24  1  6
 25 26  1  1
 25 27  1  0
 26 19  1  0
 27 29  1  0
 28 27  2  0
M  END
$$$$
