ERI.pdb
     RDKit          3D

 29 28  0  0  1  0  0  0  0  0999 V2000
   13.0153  -17.4223   16.8649 N   0  0  0  0  0  0  0  0  0  0  0  0
   11.6696  -17.7001   17.2554 C   0  0  1  0  0  0  0  0  0  0  0  0
   11.5132  -19.1722   17.5354 C   0  0  0  0  0  0  0  0  0  0  0  0
   12.3344  -19.7152   18.6406 C   0  0  0  0  0  0  0  0  0  0  0  0
   12.2631  -21.1510   18.8991 C   0  0  0  0  0  0  0  0  0  0  0  0
   11.8687  -21.9330   17.9861 O   0  0  0  0  0  0  0  0  0  0  0  0
   11.2420  -16.9841   18.5018 C   0  0  0  0  0  0  0  0  0  0  0  0
   12.0773  -16.9632   19.4381 O   0  0  0  0  0  0  0  0  0  0  0  0
   12.6054  -21.7101   20.1058 O   0  0  0  0  0  0  0  0  0  0  0  0
    8.5810  -12.2162   16.7336 N   0  0  0  0  0  0  0  0  0  0  0  0
    7.5129  -12.7873   15.9617 C   0  0  0  0  0  0  0  0  0  0  0  0
    7.5128  -12.6021   14.6968 N   0  0  0  0  0  0  0  0  0  0  0  0
    6.4920  -13.5338   16.6058 N   0  0  0  0  0  0  0  0  0  0  0  0
    6.6993  -13.8940   17.9949 C   0  0  0  0  0  0  0  0  0  0  0  0
    8.0839  -14.4585   18.2191 C   0  0  0  0  0  0  0  0  0  0  0  0
    8.2827  -14.9631   19.6157 C   0  0  0  0  0  0  0  0  0  0  0  0
    9.6159  -15.5910   19.8603 C   0  0  2  0  0  0  0  0  0  0  0  0
   10.0023  -16.3544   18.6856 N   0  0  0  0  0  0  0  0  0  0  0  0
    9.5194  -16.4656   21.0629 C   0  0  0  0  0  0  0  0  0  0  0  0
    9.0650  -17.6249   20.9283 O   0  0  0  0  0  0  0  0  0  0  0  0
    6.8062  -13.0227   14.0916 C   0  0  0  0  0  0  0  0  0  0  0  0
   12.5510  -18.1593   23.6630 C   0  0  0  0  0  0  0  0  0  0  0  0
   12.2403  -16.7146   23.9880 C   0  0  1  0  0  0  0  0  0  0  0  0
   10.8355  -16.5868   24.5439 C   0  0  0  0  0  0  0  0  0  0  0  0
   10.7059  -17.4499   25.7661 C   0  0  2  0  0  0  0  0  0  0  0  0
    9.7886  -16.8325   23.5095 N   0  0  0  0  0  0  0  0  0  0  0  0
    9.9292  -16.0087   22.3402 C   0  0  0  0  0  0  0  0  0  0  0  0
    8.4615  -16.5989   24.1572 O   0  0  0  0  0  0  0  0  0  0  0  0
    8.0218  -17.4133   25.0083 O   0  0  0  0  0  0  0  0  0  0  0  0
  2  1  1  1
  3  4  1  0
  3  2  1  0
  4  5  1  0
  5  9  1  0
  5  6  2  0
  7  2  1  0
  7  8  2  0
 11 10  1  0
 11 13  1  0
 12 11  2  0
 14 13  1  0
 15 16  1  0
 15 14  1  0
 17 16  1  6
 17 18  1  0
 18  7  1  0
 19 17  1  0
 20 19  2  0
 21 22  1  0
 22 23  1  0
 23 25  1  0
 23 24  1  1
 25 26  1  6
 25 27  1  0
 26 19  1  0
 27 29  1  0
 28 27  2  0
M  END
$$$$
