TVE.pdb
     RDKit          3D

 24 23  0  0  1  0  0  0  0  0999 V2000
    7.5388  -19.6012   17.3656 C   0  0  0  0  0  0  0  0  0  0  0  0
    8.0404  -18.6810   18.4216 C   0  0  1  0  0  0  0  0  0  0  0  0
    9.1304  -19.2047   19.0740 O   0  0  0  0  0  0  0  0  0  0  0  0
    8.4306  -17.3257   17.8210 C   0  0  2  0  0  0  0  0  0  0  0  0
    9.5095  -17.5109   16.8768 N   0  0  0  0  0  0  0  0  0  0  0  0
    8.9503  -16.4590   18.9286 C   0  0  0  0  0  0  0  0  0  0  0  0
   10.1567  -16.4652   19.2824 O   0  0  0  0  0  0  0  0  0  0  0  0
    7.6210  -12.7435   19.8838 C   0  0  0  0  0  0  0  0  0  0  0  0
    7.5715  -13.7352   21.0093 C   0  0  2  0  0  0  0  0  0  0  0  0
    7.7585  -13.0679   22.3348 C   0  0  0  0  0  0  0  0  0  0  0  0
    8.5152  -14.8985   20.8053 C   0  0  2  0  0  0  0  0  0  0  0  0
    8.0458  -15.6013   19.6034 N   0  0  0  0  0  0  0  0  0  0  0  0
    8.6170  -15.8092   21.9374 C   0  0  0  0  0  0  0  0  0  0  0  0
    8.0284  -16.9459   21.9781 O   0  0  0  0  0  0  0  0  0  0  0  0
    9.3841  -15.4975   23.0784 N   0  0  0  0  0  0  0  0  0  0  0  0
    9.9304  -16.5931   23.9123 C   0  0  1  0  0  0  0  0  0  0  0  0
   10.9541  -17.2436   22.9688 C   0  0  0  0  0  0  0  0  0  0  0  0
   11.6486  -18.4072   23.5989 C   0  0  0  0  0  0  0  0  0  0  0  0
   12.6039  -19.0044   22.6058 C   0  0  0  0  0  0  0  0  0  0  0  0
   12.4820  -20.1860   22.1936 O   0  0  0  0  0  0  0  0  0  0  0  0
   10.5931  -16.0001   25.0873 C   0  0  0  0  0  0  0  0  0  0  0  0
   10.7399  -16.7369   26.2646 O   0  0  0  0  0  0  0  0  0  0  0  0
   13.6577  -18.2150   22.1337 O   0  0  0  0  0  0  0  0  0  0  0  0
   11.0269  -14.8192   25.0299 O   0  0  0  0  0  0  0  0  0  0  0  0
  2  1  1  6
  2  3  1  0
  4  5  1  6
  4  6  1  0
  4  2  1  0
  6  7  2  0
  9  8  1  6
  9 10  1  0
  9 11  1  0
 11 13  1  0
 12  6  1  0
 11 12  1  6
 13 14  2  0
 13 15  1  0
 15 16  1  0
 16 21  1  0
 16 17  1  6
 18 17  1  0
 19 20  2  0
 19 18  1  0
 21 24  2  0
 21 22  1  0
 23 19  1  0
M  END
$$$$
