TVE.pdb
     RDKit          3D

 24 23  0  0  1  0  0  0  0  0999 V2000
    6.1599  -14.8431   19.3163 C   0  0  0  0  0  0  0  0  0  0  0  0
    6.9527  -14.7964   20.5744 C   0  0  1  0  0  0  0  0  0  0  0  0
    8.1709  -15.4152   20.4289 O   0  0  0  0  0  0  0  0  0  0  0  0
    7.1865  -13.3473   21.0161 C   0  0  2  0  0  0  0  0  0  0  0  0
    8.0018  -12.6704   20.0328 N   0  0  0  0  0  0  0  0  0  0  0  0
    7.9622  -13.3719   22.2989 C   0  0  0  0  0  0  0  0  0  0  0  0
    9.2150  -13.4736   22.3294 O   0  0  0  0  0  0  0  0  0  0  0  0
    7.9408  -12.4051   27.0999 C   0  0  0  0  0  0  0  0  0  0  0  0
    7.1968  -12.6182   25.8139 C   0  0  2  0  0  0  0  0  0  0  0  0
    5.8666  -13.2596   26.0515 C   0  0  0  0  0  0  0  0  0  0  0  0
    8.0186  -13.3501   24.7774 C   0  0  2  0  0  0  0  0  0  0  0  0
    7.2553  -13.2787   23.5239 N   0  0  0  0  0  0  0  0  0  0  0  0
    8.3414  -14.7295   25.1153 C   0  0  0  0  0  0  0  0  0  0  0  0
    7.5629  -15.7143   24.8616 O   0  0  0  0  0  0  0  0  0  0  0  0
    9.5510  -15.0783   25.7500 N   0  0  0  0  0  0  0  0  0  0  0  0
    9.8442  -16.5030   26.0297 C   0  0  1  0  0  0  0  0  0  0  0  0
   11.1894  -16.7070   25.3155 C   0  0  0  0  0  0  0  0  0  0  0  0
   11.8020  -18.0344   25.6255 C   0  0  0  0  0  0  0  0  0  0  0  0
   13.1241  -18.1407   24.9212 C   0  0  0  0  0  0  0  0  0  0  0  0
   13.3456  -17.5552   23.8307 O   0  0  0  0  0  0  0  0  0  0  0  0
    9.9853  -16.6737   27.4866 C   0  0  0  0  0  0  0  0  0  0  0  0
   10.0165  -17.9510   28.0504 O   0  0  0  0  0  0  0  0  0  0  0  0
   14.1310  -18.9180   25.5031 O   0  0  0  0  0  0  0  0  0  0  0  0
   10.0748  -15.6599   28.2284 O   0  0  0  0  0  0  0  0  0  0  0  0
  2  1  1  6
  2  3  1  0
  4  5  1  6
  4  6  1  0
  4  2  1  0
  6  7  2  0
  9  8  1  1
  9 10  1  0
  9 11  1  0
 11 13  1  0
 12  6  1  0
 11 12  1  6
 13 14  2  0
 13 15  1  0
 15 16  1  0
 16 21  1  0
 16 17  1  6
 18 17  1  0
 19 20  2  0
 19 18  1  0
 21 24  2  0
 21 22  1  0
 23 19  1  0
M  END
$$$$
