TVE.pdb
     RDKit          3D

 24 23  0  0  1  0  0  0  0  0999 V2000
    6.4738  -17.4151   24.4071 C   0  0  0  0  0  0  0  0  0  0  0  0
    6.0331  -18.3413   23.3294 C   0  0  1  0  0  0  0  0  0  0  0  0
    4.9464  -19.0879   23.7161 O   0  0  0  0  0  0  0  0  0  0  0  0
    5.6693  -17.5637   22.0595 C   0  0  2  0  0  0  0  0  0  0  0  0
    5.1472  -18.4778   21.0688 N   0  0  0  0  0  0  0  0  0  0  0  0
    6.9281  -16.9710   21.5009 C   0  0  0  0  0  0  0  0  0  0  0  0
    7.8566  -17.6764   21.0307 O   0  0  0  0  0  0  0  0  0  0  0  0
    7.7905  -12.6485   21.7650 C   0  0  0  0  0  0  0  0  0  0  0  0
    8.0815  -13.5848   20.6287 C   0  0  2  0  0  0  0  0  0  0  0  0
    7.0109  -13.5283   19.5856 C   0  0  0  0  0  0  0  0  0  0  0  0
    8.3685  -14.9950   21.0919 C   0  0  2  0  0  0  0  0  0  0  0  0
    7.0772  -15.5615   21.5051 N   0  0  0  0  0  0  0  0  0  0  0  0
    9.3515  -15.0992   22.1615 C   0  0  0  0  0  0  0  0  0  0  0  0
    9.1131  -14.7476   23.3698 O   0  0  0  0  0  0  0  0  0  0  0  0
   10.6481  -15.6046   21.9359 N   0  0  0  0  0  0  0  0  0  0  0  0
   11.6076  -15.6817   23.0618 C   0  0  1  0  0  0  0  0  0  0  0  0
   10.9723  -16.7539   23.9608 C   0  0  0  0  0  0  0  0  0  0  0  0
   11.0048  -18.1112   23.3364 C   0  0  0  0  0  0  0  0  0  0  0  0
   10.5419  -19.1251   24.3430 C   0  0  0  0  0  0  0  0  0  0  0  0
   10.2540  -18.8056   25.5245 O   0  0  0  0  0  0  0  0  0  0  0  0
   12.9088  -16.1319   22.5368 C   0  0  0  0  0  0  0  0  0  0  0  0
   13.0395  -16.5134   21.1998 O   0  0  0  0  0  0  0  0  0  0  0  0
   10.4335  -20.4615   23.9444 O   0  0  0  0  0  0  0  0  0  0  0  0
   13.9091  -16.1759   23.3007 O   0  0  0  0  0  0  0  0  0  0  0  0
  2  1  1  1
  2  3  1  0
  4  5  1  6
  4  6  1  0
  4  2  1  0
  6  7  2  0
  9  8  1  1
  9 10  1  0
  9 11  1  0
 11 13  1  0
 12  6  1  0
 11 12  1  1
 13 14  2  0
 13 15  1  0
 15 16  1  0
 16 21  1  0
 16 17  1  1
 18 17  1  0
 19 20  2  0
 19 18  1  0
 21 24  2  0
 21 22  1  0
 23 19  1  0
M  END
$$$$
