TVE.pdb
     RDKit          3D

 24 23  0  0  1  0  0  0  0  0999 V2000
    6.5947  -15.7365   20.8729 C   0  0  0  0  0  0  0  0  0  0  0  0
    7.5252  -14.7669   20.2347 C   0  0  1  0  0  0  0  0  0  0  0  0
    7.3168  -14.6817   18.8792 O   0  0  0  0  0  0  0  0  0  0  0  0
    7.3598  -13.3713   20.8467 C   0  0  2  0  0  0  0  0  0  0  0  0
    8.1189  -12.4141   20.0738 N   0  0  0  0  0  0  0  0  0  0  0  0
    7.9459  -13.3965   22.2265 C   0  0  0  0  0  0  0  0  0  0  0  0
    9.1846  -13.4574   22.4337 O   0  0  0  0  0  0  0  0  0  0  0  0
    6.4697  -11.4290   25.3655 C   0  0  0  0  0  0  0  0  0  0  0  0
    6.6687  -12.8904   25.6439 C   0  0  2  0  0  0  0  0  0  0  0  0
    7.0313  -13.1300   27.0751 C   0  0  0  0  0  0  0  0  0  0  0  0
    7.6356  -13.5425   24.6819 C   0  0  2  0  0  0  0  0  0  0  0  0
    7.0694  -13.3518   23.3394 N   0  0  0  0  0  0  0  0  0  0  0  0
    7.9012  -14.9507   24.9422 C   0  0  0  0  0  0  0  0  0  0  0  0
    7.4045  -15.8995   24.2397 O   0  0  0  0  0  0  0  0  0  0  0  0
    8.7373  -15.3691   25.9973 N   0  0  0  0  0  0  0  0  0  0  0  0
    9.3564  -16.7139   25.9486 C   0  0  1  0  0  0  0  0  0  0  0  0
   10.3349  -16.5816   24.7711 C   0  0  0  0  0  0  0  0  0  0  0  0
   11.2116  -17.7826   24.6230 C   0  0  0  0  0  0  0  0  0  0  0  0
   12.1395  -17.5720   23.4610 C   0  0  0  0  0  0  0  0  0  0  0  0
   13.2583  -17.0143   23.5961 O   0  0  0  0  0  0  0  0  0  0  0  0
   10.0761  -16.9430   27.2139 C   0  0  0  0  0  0  0  0  0  0  0  0
   10.2920  -18.2414   27.6809 O   0  0  0  0  0  0  0  0  0  0  0  0
   11.7364  -18.0110   22.1955 O   0  0  0  0  0  0  0  0  0  0  0  0
   10.4963  -15.9605   27.8803 O   0  0  0  0  0  0  0  0  0  0  0  0
  2  1  1  1
  2  3  1  0
  4  5  1  6
  4  6  1  0
  4  2  1  0
  6  7  2  0
  9  8  1  6
  9 10  1  0
  9 11  1  0
 11 13  1  0
 12  6  1  0
 11 12  1  6
 13 14  2  0
 13 15  1  0
 15 16  1  0
 16 21  1  0
 16 17  1  6
 18 17  1  0
 19 20  2  0
 19 18  1  0
 21 24  2  0
 21 22  1  0
 23 19  1  0
M  END
$$$$
