TVE.pdb
     RDKit          3D

 24 23  0  0  1  0  0  0  0  0999 V2000
    7.2578  -18.7113   18.6566 C   0  0  0  0  0  0  0  0  0  0  0  0
    7.9002  -18.4083   17.3493 C   0  0  1  0  0  0  0  0  0  0  0  0
    7.2859  -19.0745   16.3164 O   0  0  0  0  0  0  0  0  0  0  0  0
    7.8579  -16.9038   17.0587 C   0  0  2  0  0  0  0  0  0  0  0  0
    8.4654  -16.6451   15.7727 N   0  0  0  0  0  0  0  0  0  0  0  0
    8.6894  -16.2071   18.0937 C   0  0  0  0  0  0  0  0  0  0  0  0
    9.9459  -16.1909   18.0525 O   0  0  0  0  0  0  0  0  0  0  0  0
    6.7737  -14.0585   21.3144 C   0  0  0  0  0  0  0  0  0  0  0  0
    8.0615  -13.6774   20.6442 C   0  0  2  0  0  0  0  0  0  0  0  0
    7.8359  -12.6784   19.5541 C   0  0  0  0  0  0  0  0  0  0  0  0
    8.8557  -14.8767   20.1791 C   0  0  2  0  0  0  0  0  0  0  0  0
    8.0331  -15.5430   19.1601 N   0  0  0  0  0  0  0  0  0  0  0  0
    9.2348  -15.8059   21.2346 C   0  0  0  0  0  0  0  0  0  0  0  0
    8.4992  -16.7879   21.6021 O   0  0  0  0  0  0  0  0  0  0  0  0
   10.4556  -15.6870   21.9297 N   0  0  0  0  0  0  0  0  0  0  0  0
   10.8753  -16.7631   22.8570 C   0  0  1  0  0  0  0  0  0  0  0  0
   12.4064  -16.6327   22.8386 C   0  0  0  0  0  0  0  0  0  0  0  0
   13.0842  -17.9333   22.5520 C   0  0  0  0  0  0  0  0  0  0  0  0
   14.5712  -17.7232   22.5586 C   0  0  0  0  0  0  0  0  0  0  0  0
   15.1972  -17.3684   21.5275 O   0  0  0  0  0  0  0  0  0  0  0  0
   10.3331  -16.4652   24.1945 C   0  0  0  0  0  0  0  0  0  0  0  0
   10.3268  -17.4442   25.1904 O   0  0  0  0  0  0  0  0  0  0  0  0
   15.2707  -17.9330   23.7517 O   0  0  0  0  0  0  0  0  0  0  0  0
    9.8691  -15.3203   24.4395 O   0  0  0  0  0  0  0  0  0  0  0  0
  2  1  1  1
  2  3  1  0
  4  5  1  6
  4  6  1  0
  4  2  1  0
  6  7  2  0
  9  8  1  6
  9 10  1  0
  9 11  1  0
 11 13  1  0
 12  6  1  0
 11 12  1  6
 13 14  2  0
 13 15  1  0
 15 16  1  0
 16 21  1  0
 16 17  1  1
 18 17  1  0
 19 20  2  0
 19 18  1  0
 21 24  2  0
 21 22  1  0
 23 19  1  0
M  END
$$$$
