TVE.pdb
     RDKit          3D

 24 23  0  0  1  0  0  0  0  0999 V2000
    6.2945  -15.9303   21.4643 C   0  0  0  0  0  0  0  0  0  0  0  0
    7.1804  -15.0349   20.6724 C   0  0  1  0  0  0  0  0  0  0  0  0
    6.7610  -14.9318   19.3680 O   0  0  0  0  0  0  0  0  0  0  0  0
    7.2248  -13.6316   21.2875 C   0  0  2  0  0  0  0  0  0  0  0  0
    7.9067  -12.7320   20.3845 N   0  0  0  0  0  0  0  0  0  0  0  0
    8.0367  -13.7013   22.5461 C   0  0  0  0  0  0  0  0  0  0  0  0
    9.2903  -13.7972   22.5373 O   0  0  0  0  0  0  0  0  0  0  0  0
    6.0363  -13.4795   26.3179 C   0  0  0  0  0  0  0  0  0  0  0  0
    7.4316  -12.9812   26.0778 C   0  0  2  0  0  0  0  0  0  0  0  0
    7.4476  -11.5107   25.8046 C   0  0  0  0  0  0  0  0  0  0  0  0
    8.1629  -13.7772   25.0209 C   0  0  2  0  0  0  0  0  0  0  0  0
    7.3644  -13.6593   23.7931 N   0  0  0  0  0  0  0  0  0  0  0  0
    8.3970  -15.1741   25.3603 C   0  0  0  0  0  0  0  0  0  0  0  0
    7.4949  -16.0787   25.2690 O   0  0  0  0  0  0  0  0  0  0  0  0
    9.6510  -15.6310   25.8147 N   0  0  0  0  0  0  0  0  0  0  0  0
    9.8554  -17.0773   26.0609 C   0  0  1  0  0  0  0  0  0  0  0  0
   11.1218  -17.3731   25.2424 C   0  0  0  0  0  0  0  0  0  0  0  0
   11.6643  -18.7399   25.5085 C   0  0  0  0  0  0  0  0  0  0  0  0
   12.9355  -18.9230   24.7300 C   0  0  0  0  0  0  0  0  0  0  0  0
   13.3944  -18.0205   23.9845 O   0  0  0  0  0  0  0  0  0  0  0  0
   10.0954  -17.2767   27.5011 C   0  0  0  0  0  0  0  0  0  0  0  0
   10.3157  -16.1825   28.3406 O   0  0  0  0  0  0  0  0  0  0  0  0
   13.6197  -20.1378   24.8434 O   0  0  0  0  0  0  0  0  0  0  0  0
   10.1053  -18.4426   27.9772 O   0  0  0  0  0  0  0  0  0  0  0  0
  2  1  1  1
  2  3  1  0
  4  5  1  6
  4  6  1  0
  4  2  1  0
  6  7  2  0
  9  8  1  6
  9 10  1  0
  9 11  1  0
 11 13  1  0
 12  6  1  0
 11 12  1  6
 13 14  2  0
 13 15  1  0
 15 16  1  0
 16 21  1  0
 16 17  1  6
 18 17  1  0
 19 20  2  0
 19 18  1  0
 21 24  2  0
 21 22  1  0
 23 19  1  0
M  END
$$$$
