TVE.pdb
     RDKit          3D

 24 23  0  0  1  0  0  0  0  0999 V2000
    6.7477  -16.7422   20.3441 C   0  0  0  0  0  0  0  0  0  0  0  0
    7.3372  -16.3341   21.6477 C   0  0  1  0  0  0  0  0  0  0  0  0
    8.4379  -17.0928   21.9657 O   0  0  0  0  0  0  0  0  0  0  0  0
    7.7486  -14.8578   21.6198 C   0  0  2  0  0  0  0  0  0  0  0  0
    8.8015  -14.6702   20.6472 N   0  0  0  0  0  0  0  0  0  0  0  0
    8.3143  -14.5075   22.9635 C   0  0  0  0  0  0  0  0  0  0  0  0
    9.5384  -14.6142   23.2302 O   0  0  0  0  0  0  0  0  0  0  0  0
    6.9297  -11.6375   25.4731 C   0  0  0  0  0  0  0  0  0  0  0  0
    6.9898  -13.0108   26.0757 C   0  0  2  0  0  0  0  0  0  0  0  0
    7.2597  -12.9516   27.5457 C   0  0  0  0  0  0  0  0  0  0  0  0
    7.9439  -13.9284   25.3455 C   0  0  2  0  0  0  0  0  0  0  0  0
    7.4346  -14.0402   23.9718 N   0  0  0  0  0  0  0  0  0  0  0  0
    8.1111  -15.2430   25.9498 C   0  0  0  0  0  0  0  0  0  0  0  0
    7.1848  -16.1272   25.9730 O   0  0  0  0  0  0  0  0  0  0  0  0
    9.3220  -15.6369   26.5548 N   0  0  0  0  0  0  0  0  0  0  0  0
    9.4385  -16.9928   27.1398 C   0  0  1  0  0  0  0  0  0  0  0  0
   10.2167  -17.7523   26.0540 C   0  0  0  0  0  0  0  0  0  0  0  0
   11.6888  -17.5075   26.1335 C   0  0  0  0  0  0  0  0  0  0  0  0
   12.3681  -18.2345   25.0087 C   0  0  0  0  0  0  0  0  0  0  0  0
   12.5249  -19.4820   25.0219 O   0  0  0  0  0  0  0  0  0  0  0  0
   10.2199  -16.8987   28.3856 C   0  0  0  0  0  0  0  0  0  0  0  0
   10.3147  -17.9941   29.2468 O   0  0  0  0  0  0  0  0  0  0  0  0
   12.8384  -17.4922   23.9203 O   0  0  0  0  0  0  0  0  0  0  0  0
   10.8035  -15.8214   28.6769 O   0  0  0  0  0  0  0  0  0  0  0  0
  2  1  1  6
  2  3  1  0
  4  5  1  6
  4  6  1  0
  4  2  1  0
  6  7  2  0
  9  8  1  6
  9 10  1  0
  9 11  1  0
 11 13  1  0
 12  6  1  0
 11 12  1  6
 13 14  2  0
 13 15  1  0
 15 16  1  0
 16 21  1  0
 16 17  1  6
 18 17  1  0
 19 20  2  0
 19 18  1  0
 21 24  2  0
 21 22  1  0
 23 19  1  0
M  END
$$$$
