TVE.pdb
     RDKit          3D

 24 23  0  0  1  0  0  0  0  0999 V2000
    5.6463  -17.0369   19.7475 C   0  0  0  0  0  0  0  0  0  0  0  0
    6.5789  -16.6510   20.8406 C   0  0  1  0  0  0  0  0  0  0  0  0
    7.7976  -17.2722   20.7097 O   0  0  0  0  0  0  0  0  0  0  0  0
    6.7991  -15.1341   20.8570 C   0  0  2  0  0  0  0  0  0  0  0  0
    7.4818  -14.7341   19.6473 N   0  0  0  0  0  0  0  0  0  0  0  0
    7.7024  -14.8082   22.0084 C   0  0  0  0  0  0  0  0  0  0  0  0
    8.9450  -14.6706   21.8747 O   0  0  0  0  0  0  0  0  0  0  0  0
    6.5142  -12.3918   25.0450 C   0  0  0  0  0  0  0  0  0  0  0  0
    7.1360  -13.6875   25.4777 C   0  0  2  0  0  0  0  0  0  0  0  0
    7.8327  -13.5471   26.7938 C   0  0  0  0  0  0  0  0  0  0  0  0
    8.0205  -14.2958   24.4132 C   0  0  2  0  0  0  0  0  0  0  0  0
    7.1334  -14.6511   23.2970 N   0  0  0  0  0  0  0  0  0  0  0  0
    8.7991  -15.4468   24.8492 C   0  0  0  0  0  0  0  0  0  0  0  0
    8.2820  -16.5944   25.0856 O   0  0  0  0  0  0  0  0  0  0  0  0
   10.1942  -15.3745   25.0394 N   0  0  0  0  0  0  0  0  0  0  0  0
   10.9603  -16.6149   25.3018 C   0  0  1  0  0  0  0  0  0  0  0  0
   12.3508  -16.2639   24.7500 C   0  0  0  0  0  0  0  0  0  0  0  0
   13.3807  -17.2837   25.1139 C   0  0  0  0  0  0  0  0  0  0  0  0
   14.7018  -16.8777   24.5262 C   0  0  0  0  0  0  0  0  0  0  0  0
   14.9114  -16.8944   23.2865 O   0  0  0  0  0  0  0  0  0  0  0  0
   11.0071  -16.8358   26.7580 C   0  0  0  0  0  0  0  0  0  0  0  0
   10.9092  -15.7586   27.6414 O   0  0  0  0  0  0  0  0  0  0  0  0
   15.7228  -16.4729   25.3925 O   0  0  0  0  0  0  0  0  0  0  0  0
   11.1399  -18.0044   27.2084 O   0  0  0  0  0  0  0  0  0  0  0  0
  2  1  1  6
  2  3  1  0
  4  5  1  6
  4  6  1  0
  4  2  1  0
  6  7  2  0
  9  8  1  6
  9 10  1  0
  9 11  1  0
 11 13  1  0
 12  6  1  0
 11 12  1  6
 13 14  2  0
 13 15  1  0
 15 16  1  0
 16 21  1  0
 16 17  1  1
 18 17  1  0
 19 20  2  0
 19 18  1  0
 21 24  2  0
 21 22  1  0
 23 19  1  0
M  END
$$$$
