MYS.pdb
     RDKit          3D

 27 27  0  0  1  0  0  0  0  0999 V2000
   29.9672  -10.0249  -17.3641 C   0  0  0  0  0  0  0  0  0  0  0  0
   28.2321   -9.6451  -17.0729 S   0  0  0  0  0  0  0  0  0  0  0  0
   27.3337   -9.5865  -18.6141 C   0  0  0  0  0  0  0  0  0  0  0  0
   25.8693   -9.3136  -18.4681 C   0  0  0  0  0  0  0  0  0  0  0  0
   25.1465  -10.2502  -17.5622 C   0  0  2  0  0  0  0  0  0  0  0  0
   25.2140  -11.6317  -17.9719 N   0  0  0  0  0  0  0  0  0  0  0  0
   23.7409   -9.8126  -17.4599 C   0  0  0  0  0  0  0  0  0  0  0  0
   22.8768  -10.2923  -18.2201 O   0  0  0  0  0  0  0  0  0  0  0  0
   17.6697  -13.1322  -15.4147 O   0  0  0  0  0  0  0  0  0  0  0  0
   18.5704  -12.0986  -15.3052 C   0  0  0  0  0  0  0  0  0  0  0  0
   19.8731  -12.3922  -15.0103 C   0  0  0  0  0  0  0  0  0  0  0  0
   20.8287  -11.3923  -14.8868 C   0  0  0  0  0  0  0  0  0  0  0  0
   20.5091  -10.0615  -15.0551 C   0  0  0  0  0  0  0  0  0  0  0  0
   21.5056   -8.9806  -14.9213 C   0  0  0  0  0  0  0  0  0  0  0  0
   22.0236   -8.4418  -16.2267 C   0  0  2  0  0  0  0  0  0  0  0  0
   23.3754   -8.8470  -16.4965 N   0  0  0  0  0  0  0  0  0  0  0  0
   21.9626   -6.9675  -16.2592 C   0  0  0  0  0  0  0  0  0  0  0  0
   22.7856   -6.2356  -15.6345 O   0  0  0  0  0  0  0  0  0  0  0  0
   19.1778   -9.7616  -15.3567 C   0  0  0  0  0  0  0  0  0  0  0  0
   18.2404  -10.7654  -15.4762 C   0  0  0  0  0  0  0  0  0  0  0  0
   19.9920   -3.2090  -18.6162 O   0  0  0  0  0  0  0  0  0  0  0  0
   19.9857   -4.5924  -18.3620 C   0  0  0  0  0  0  0  0  0  0  0  0
   20.8392   -4.9138  -17.1499 C   0  0  2  0  0  0  0  0  0  0  0  0
   20.9284   -6.3541  -17.0308 N   0  0  0  0  0  0  0  0  0  0  0  0
   20.1343   -4.3888  -15.9699 C   0  0  0  0  0  0  0  0  0  0  0  0
   20.5222   -3.1597  -15.4189 O   0  0  0  0  0  0  0  0  0  0  0  0
   19.2000   -5.0279  -15.4620 O   0  0  0  0  0  0  0  0  0  0  0  0
  2  1  1  0
  3  2  1  0
  4  3  1  0
  4  5  1  0
  5  7  1  0
  5  6  1  6
  7  8  2  0
  9 10  1  0
 10 20  2  0
 10 11  1  0
 11 12  2  0
 12 13  1  0
 13 14  1  0
 15 14  1  1
 16 15  1  0
 16  7  1  0
 17 24  1  0
 17 15  1  0
 18 17  2  0
 19 13  2  0
 20 19  1  0
 22 21  1  0
 23 24  1  0
 23 22  1  6
 25 23  1  0
 26 25  1  0
 27 25  2  0
M  END
$$$$
