MYS.pdb
     RDKit          3D

 27 27  0  0  1  0  0  0  0  0999 V2000
   29.8394  -16.5183  -19.0321 C   0  0  0  0  0  0  0  0  0  0  0  0
   28.9288  -17.2125  -17.6433 S   0  0  0  0  0  0  0  0  0  0  0  0
   28.7450  -18.9779  -17.8309 C   0  0  0  0  0  0  0  0  0  0  0  0
   27.9228  -19.6324  -16.7652 C   0  0  0  0  0  0  0  0  0  0  0  0
   26.5149  -19.9265  -17.1546 C   0  0  2  0  0  0  0  0  0  0  0  0
   25.7549  -18.7601  -17.5325 N   0  0  0  0  0  0  0  0  0  0  0  0
   25.8561  -20.6291  -16.0366 C   0  0  0  0  0  0  0  0  0  0  0  0
   26.3419  -21.6849  -15.5848 O   0  0  0  0  0  0  0  0  0  0  0  0
   29.3461  -21.0375  -10.6916 O   0  0  0  0  0  0  0  0  0  0  0  0
   28.1140  -20.7773  -11.2444 C   0  0  0  0  0  0  0  0  0  0  0  0
   28.0213  -19.8251  -12.2216 C   0  0  0  0  0  0  0  0  0  0  0  0
   26.8053  -19.5179  -12.8178 C   0  0  0  0  0  0  0  0  0  0  0  0
   25.6391  -20.1568  -12.4530 C   0  0  0  0  0  0  0  0  0  0  0  0
   24.3338  -19.8422  -13.0667 C   0  0  0  0  0  0  0  0  0  0  0  0
   24.0210  -20.6289  -14.3101 C   0  0  2  0  0  0  0  0  0  0  0  0
   24.6712  -20.1020  -15.4779 N   0  0  0  0  0  0  0  0  0  0  0  0
   22.5677  -20.6725  -14.5643 C   0  0  0  0  0  0  0  0  0  0  0  0
   21.9366  -19.7086  -15.0893 O   0  0  0  0  0  0  0  0  0  0  0  0
   25.7340  -21.1300  -11.4545 C   0  0  0  0  0  0  0  0  0  0  0  0
   26.9484  -21.4240  -10.8720 C   0  0  0  0  0  0  0  0  0  0  0  0
   20.6565  -23.8502  -15.8478 O   0  0  0  0  0  0  0  0  0  0  0  0
   20.0817  -23.4117  -14.6412 C   0  0  0  0  0  0  0  0  0  0  0  0
   20.4243  -21.9560  -14.3874 C   0  0  2  0  0  0  0  0  0  0  0  0
   21.8564  -21.8564  -14.1986 N   0  0  0  0  0  0  0  0  0  0  0  0
   19.7582  -21.5643  -13.1354 C   0  0  0  0  0  0  0  0  0  0  0  0
   20.5274  -21.2847  -11.9974 O   0  0  0  0  0  0  0  0  0  0  0  0
   18.5215  -21.4803  -13.0828 O   0  0  0  0  0  0  0  0  0  0  0  0
  2  1  1  0
  3  2  1  0
  4  3  1  0
  4  5  1  0
  5  7  1  0
  5  6  1  1
  7  8  2  0
  9 10  1  0
 10 20  2  0
 10 11  1  0
 11 12  2  0
 12 13  1  0
 13 14  1  0
 15 14  1  1
 16 15  1  0
 16  7  1  0
 17 24  1  0
 17 15  1  0
 18 17  2  0
 19 13  2  0
 20 19  1  0
 22 21  1  0
 23 24  1  0
 23 22  1  1
 25 23  1  0
 26 25  1  0
 27 25  2  0
M  END
$$$$
