MYS.pdb
     RDKit          3D

 27 27  0  0  1  0  0  0  0  0999 V2000
   23.7498  -23.8237  -18.7877 C   0  0  0  0  0  0  0  0  0  0  0  0
   23.6415  -22.6743  -20.1687 S   0  0  0  0  0  0  0  0  0  0  0  0
   24.9664  -21.4805  -20.0990 C   0  0  0  0  0  0  0  0  0  0  0  0
   24.9856  -20.6476  -18.8555 C   0  0  0  0  0  0  0  0  0  0  0  0
   23.7556  -19.8383  -18.6265 C   0  0  2  0  0  0  0  0  0  0  0  0
   23.6209  -18.7111  -19.5166 N   0  0  0  0  0  0  0  0  0  0  0  0
   23.7456  -19.3876  -17.2213 C   0  0  0  0  0  0  0  0  0  0  0  0
   24.6415  -18.6305  -16.7982 O   0  0  0  0  0  0  0  0  0  0  0  0
   16.8857  -17.4382  -17.5915 O   0  0  0  0  0  0  0  0  0  0  0  0
   18.1259  -17.5515  -17.0077 C   0  0  0  0  0  0  0  0  0  0  0  0
   18.2002  -17.7188  -15.6525 C   0  0  0  0  0  0  0  0  0  0  0  0
   19.4231  -17.8392  -15.0056 C   0  0  0  0  0  0  0  0  0  0  0  0
   20.6148  -17.7956  -15.6977 C   0  0  0  0  0  0  0  0  0  0  0  0
   21.9270  -17.9137  -15.0314 C   0  0  0  0  0  0  0  0  0  0  0  0
   22.5054  -19.3022  -15.0298 C   0  0  2  0  0  0  0  0  0  0  0  0
   22.7167  -19.8165  -16.3546 N   0  0  0  0  0  0  0  0  0  0  0  0
   21.6361  -20.2432  -14.2966 C   0  0  0  0  0  0  0  0  0  0  0  0
   20.7766  -20.9714  -14.8746 O   0  0  0  0  0  0  0  0  0  0  0  0
   20.5388  -17.6248  -17.0827 C   0  0  0  0  0  0  0  0  0  0  0  0
   19.3172  -17.5068  -17.7108 C   0  0  0  0  0  0  0  0  0  0  0  0
   21.6609  -19.9756  -10.1579 O   0  0  0  0  0  0  0  0  0  0  0  0
   21.5139  -21.2707  -10.6866 C   0  0  0  0  0  0  0  0  0  0  0  0
   20.9456  -21.2098  -12.0916 C   0  0  2  0  0  0  0  0  0  0  0  0
   21.7809  -20.3260  -12.8777 N   0  0  0  0  0  0  0  0  0  0  0  0
   19.6018  -20.6189  -11.9922 C   0  0  0  0  0  0  0  0  0  0  0  0
   18.5466  -21.3775  -11.4670 O   0  0  0  0  0  0  0  0  0  0  0  0
   19.3994  -19.4547  -12.3700 O   0  0  0  0  0  0  0  0  0  0  0  0
  2  1  1  0
  3  2  1  0
  4  3  1  0
  4  5  1  0
  5  7  1  0
  5  6  1  6
  7  8  2  0
  9 10  1  0
 10 20  2  0
 10 11  1  0
 11 12  2  0
 12 13  1  0
 13 14  1  0
 15 14  1  6
 16 15  1  0
 16  7  1  0
 17 24  1  0
 17 15  1  0
 18 17  2  0
 19 13  2  0
 20 19  1  0
 22 21  1  0
 23 24  1  0
 23 22  1  1
 25 23  1  0
 26 25  1  0
 27 25  2  0
M  END
$$$$
