MYS.pdb
     RDKit          3D

 27 27  0  0  1  0  0  0  0  0999 V2000
   28.8009  -35.1304  -24.6819 C   0  0  0  0  0  0  0  0  0  0  0  0
   29.4548  -34.7907  -23.0397 S   0  0  0  0  0  0  0  0  0  0  0  0
   28.3360  -33.7472  -22.1205 C   0  0  0  0  0  0  0  0  0  0  0  0
   28.8258  -33.3599  -20.7602 C   0  0  0  0  0  0  0  0  0  0  0  0
   28.7933  -31.8973  -20.4776 C   0  0  2  0  0  0  0  0  0  0  0  0
   29.9481  -31.1806  -20.9613 N   0  0  0  0  0  0  0  0  0  0  0  0
   28.6410  -31.7040  -19.0225 C   0  0  0  0  0  0  0  0  0  0  0  0
   29.6147  -31.3454  -18.3312 O   0  0  0  0  0  0  0  0  0  0  0  0
   29.2366  -25.6917  -17.7032 O   0  0  0  0  0  0  0  0  0  0  0  0
   28.5149  -26.8453  -17.5035 C   0  0  0  0  0  0  0  0  0  0  0  0
   28.7390  -27.5707  -16.3661 C   0  0  0  0  0  0  0  0  0  0  0  0
   28.0418  -28.7437  -16.1083 C   0  0  0  0  0  0  0  0  0  0  0  0
   27.0944  -29.2294  -16.9846 C   0  0  0  0  0  0  0  0  0  0  0  0
   26.3461  -30.4775  -16.7361 C   0  0  0  0  0  0  0  0  0  0  0  0
   27.1199  -31.7371  -17.0141 C   0  0  2  0  0  0  0  0  0  0  0  0
   27.3868  -31.9266  -18.4130 N   0  0  0  0  0  0  0  0  0  0  0  0
   26.4058  -32.9262  -16.5095 C   0  0  0  0  0  0  0  0  0  0  0  0
   25.7619  -33.7095  -17.2678 O   0  0  0  0  0  0  0  0  0  0  0  0
   26.8653  -28.4879  -18.1469 C   0  0  0  0  0  0  0  0  0  0  0  0
   27.5654  -27.3252  -18.3889 C   0  0  0  0  0  0  0  0  0  0  0  0
   26.4858  -33.2628  -12.5161 O   0  0  0  0  0  0  0  0  0  0  0  0
   26.2507  -34.5148  -13.1125 C   0  0  0  0  0  0  0  0  0  0  0  0
   25.7740  -34.3414  -14.5420 C   0  0  2  0  0  0  0  0  0  0  0  0
   26.4513  -33.1929  -15.1067 N   0  0  0  0  0  0  0  0  0  0  0  0
   24.3318  -34.0552  -14.4880 C   0  0  0  0  0  0  0  0  0  0  0  0
   23.4447  -35.0404  -14.0328 O   0  0  0  0  0  0  0  0  0  0  0  0
   23.8988  -32.9480  -14.8425 O   0  0  0  0  0  0  0  0  0  0  0  0
  2  1  1  0
  3  2  1  0
  4  3  1  0
  4  5  1  0
  5  7  1  0
  5  6  1  1
  7  8  2  0
  9 10  1  0
 10 20  2  0
 10 11  1  0
 11 12  2  0
 12 13  1  0
 13 14  1  0
 15 14  1  6
 16 15  1  0
 16  7  1  0
 17 24  1  0
 17 15  1  0
 18 17  2  0
 19 13  2  0
 20 19  1  0
 22 21  1  0
 23 24  1  0
 23 22  1  1
 25 23  1  0
 26 25  1  0
 27 25  2  0
M  END
$$$$
