MYS.pdb
     RDKit          3D

 27 27  0  0  1  0  0  0  0  0999 V2000
   19.5712  -34.8121  -18.2120 C   0  0  0  0  0  0  0  0  0  0  0  0
   21.3314  -35.0625  -17.9311 S   0  0  0  0  0  0  0  0  0  0  0  0
   21.6167  -35.7662  -16.3158 C   0  0  0  0  0  0  0  0  0  0  0  0
   23.0478  -36.0969  -16.0276 C   0  0  0  0  0  0  0  0  0  0  0  0
   24.0321  -35.0908  -16.5164 C   0  0  2  0  0  0  0  0  0  0  0  0
   24.6487  -35.4363  -17.7740 N   0  0  0  0  0  0  0  0  0  0  0  0
   25.0605  -34.8969  -15.4760 C   0  0  0  0  0  0  0  0  0  0  0  0
   26.0430  -35.6621  -15.4137 O   0  0  0  0  0  0  0  0  0  0  0  0
   30.5044  -32.9088  -18.0019 O   0  0  0  0  0  0  0  0  0  0  0  0
   29.5527  -32.7380  -17.0239 C   0  0  0  0  0  0  0  0  0  0  0  0
   29.8472  -33.1282  -15.7467 C   0  0  0  0  0  0  0  0  0  0  0  0
   28.9278  -32.9813  -14.7164 C   0  0  0  0  0  0  0  0  0  0  0  0
   27.6795  -32.4371  -14.9331 C   0  0  0  0  0  0  0  0  0  0  0  0
   26.6828  -32.2779  -13.8558 C   0  0  0  0  0  0  0  0  0  0  0  0
   25.9001  -33.5226  -13.5382 C   0  0  2  0  0  0  0  0  0  0  0  0
   24.9293  -33.8401  -14.5486 N   0  0  0  0  0  0  0  0  0  0  0  0
   25.2034  -33.4008  -12.2427 C   0  0  0  0  0  0  0  0  0  0  0  0
   24.0869  -32.8163  -12.1197 O   0  0  0  0  0  0  0  0  0  0  0  0
   27.3787  -32.0382  -16.2383 C   0  0  0  0  0  0  0  0  0  0  0  0
   28.3020  -32.1904  -17.2507 C   0  0  0  0  0  0  0  0  0  0  0  0
   23.6618  -35.6689   -9.9158 O   0  0  0  0  0  0  0  0  0  0  0  0
   24.8486  -35.2358   -9.2974 C   0  0  0  0  0  0  0  0  0  0  0  0
   25.2219  -33.8464   -9.7782 C   0  0  2  0  0  0  0  0  0  0  0  0
   25.8246  -33.9700  -11.0890 N   0  0  0  0  0  0  0  0  0  0  0  0
   26.2313  -33.3201   -8.8461 C   0  0  0  0  0  0  0  0  0  0  0  0
   25.8597  -32.9838   -7.5371 O   0  0  0  0  0  0  0  0  0  0  0  0
   27.4074  -33.1735   -9.2130 O   0  0  0  0  0  0  0  0  0  0  0  0
  2  1  1  0
  3  2  1  0
  4  3  1  0
  4  5  1  0
  5  7  1  0
  5  6  1  6
  7  8  2  0
  9 10  1  0
 10 20  2  0
 10 11  1  0
 11 12  2  0
 12 13  1  0
 13 14  1  0
 15 14  1  6
 16 15  1  0
 16  7  1  0
 17 24  1  0
 17 15  1  0
 18 17  2  0
 19 13  2  0
 20 19  1  0
 22 21  1  0
 23 24  1  0
 23 22  1  1
 25 23  1  0
 26 25  1  0
 27 25  2  0
M  END
$$$$
