MYS.pdb
     RDKit          3D

 27 27  0  0  1  0  0  0  0  0999 V2000
   33.0385  -39.7462  -19.0847 C   0  0  0  0  0  0  0  0  0  0  0  0
   33.4254  -39.5452  -20.8310 S   0  0  0  0  0  0  0  0  0  0  0  0
   32.5426  -38.1527  -21.5147 C   0  0  0  0  0  0  0  0  0  0  0  0
   32.4081  -36.9871  -20.5854 C   0  0  0  0  0  0  0  0  0  0  0  0
   31.3722  -35.9909  -20.9787 C   0  0  2  0  0  0  0  0  0  0  0  0
   31.6243  -35.3520  -22.2472 N   0  0  0  0  0  0  0  0  0  0  0  0
   31.2617  -34.9816  -19.9078 C   0  0  0  0  0  0  0  0  0  0  0  0
   31.9079  -33.9174  -19.9786 O   0  0  0  0  0  0  0  0  0  0  0  0
   33.2808  -28.6549  -18.2925 O   0  0  0  0  0  0  0  0  0  0  0  0
   32.4098  -29.7189  -18.2633 C   0  0  0  0  0  0  0  0  0  0  0  0
   31.3896  -29.7567  -19.1732 C   0  0  0  0  0  0  0  0  0  0  0  0
   30.4785  -30.8045  -19.1938 C   0  0  0  0  0  0  0  0  0  0  0  0
   30.5603  -31.8517  -18.3004 C   0  0  0  0  0  0  0  0  0  0  0  0
   29.5993  -32.9724  -18.2977 C   0  0  0  0  0  0  0  0  0  0  0  0
   30.1488  -34.2667  -17.7633 C   0  0  2  0  0  0  0  0  0  0  0  0
   30.4206  -35.2238  -18.7998 N   0  0  0  0  0  0  0  0  0  0  0  0
   29.2228  -34.8806  -16.7917 C   0  0  0  0  0  0  0  0  0  0  0  0
   28.1602  -35.4739  -17.1412 O   0  0  0  0  0  0  0  0  0  0  0  0
   31.6030  -31.8131  -17.3707 C   0  0  0  0  0  0  0  0  0  0  0  0
   32.4999  -30.7661  -17.3628 C   0  0  0  0  0  0  0  0  0  0  0  0
   28.6713  -35.9537  -12.0583 O   0  0  0  0  0  0  0  0  0  0  0  0
   29.4425  -35.3569  -13.0720 C   0  0  0  0  0  0  0  0  0  0  0  0
   28.7068  -35.4052  -14.3976 C   0  0  2  0  0  0  0  0  0  0  0  0
   29.5507  -34.7951  -15.4038 N   0  0  0  0  0  0  0  0  0  0  0  0
   27.4903  -34.5909  -14.2499 C   0  0  0  0  0  0  0  0  0  0  0  0
   27.4449  -33.3034  -14.8022 O   0  0  0  0  0  0  0  0  0  0  0  0
   26.5067  -35.0382  -13.6403 O   0  0  0  0  0  0  0  0  0  0  0  0
  2  1  1  0
  3  2  1  0
  4  3  1  0
  4  5  1  0
  5  7  1  0
  5  6  1  6
  7  8  2  0
  9 10  1  0
 10 20  2  0
 10 11  1  0
 11 12  2  0
 12 13  1  0
 13 14  1  0
 15 14  1  6
 16 15  1  0
 16  7  1  0
 17 24  1  0
 17 15  1  0
 18 17  2  0
 19 13  2  0
 20 19  1  0
 22 21  1  0
 23 24  1  0
 23 22  1  1
 25 23  1  0
 26 25  1  0
 27 25  2  0
M  END
$$$$
