MYS.pdb
     RDKit          3D

 27 27  0  0  1  0  0  0  0  0999 V2000
   25.3535  -15.2054  -13.8363 C   0  0  0  0  0  0  0  0  0  0  0  0
   27.0111  -15.0486  -14.5199 S   0  0  0  0  0  0  0  0  0  0  0  0
   27.2192  -16.1349  -15.9207 C   0  0  0  0  0  0  0  0  0  0  0  0
   26.4028  -17.3880  -15.8602 C   0  0  0  0  0  0  0  0  0  0  0  0
   26.9890  -18.4760  -15.0278 C   0  0  2  0  0  0  0  0  0  0  0  0
   28.2993  -18.9009  -15.4560 N   0  0  0  0  0  0  0  0  0  0  0  0
   26.0545  -19.6181  -15.0230 C   0  0  0  0  0  0  0  0  0  0  0  0
   25.8342  -20.2538  -16.0728 O   0  0  0  0  0  0  0  0  0  0  0  0
   26.2670  -19.3599   -7.7107 O   0  0  0  0  0  0  0  0  0  0  0  0
   25.9518  -20.0297   -8.8698 C   0  0  0  0  0  0  0  0  0  0  0  0
   26.8456  -20.0065   -9.9046 C   0  0  0  0  0  0  0  0  0  0  0  0
   26.5842  -20.6637  -11.0997 C   0  0  0  0  0  0  0  0  0  0  0  0
   25.4150  -21.3673  -11.2974 C   0  0  0  0  0  0  0  0  0  0  0  0
   25.1114  -22.0673  -12.5613 C   0  0  0  0  0  0  0  0  0  0  0  0
   24.6127  -21.1764  -13.6659 C   0  0  2  0  0  0  0  0  0  0  0  0
   25.4084  -19.9906  -13.8239 N   0  0  0  0  0  0  0  0  0  0  0  0
   23.2120  -20.7718  -13.4361 C   0  0  0  0  0  0  0  0  0  0  0  0
   22.8941  -19.8143  -12.6710 O   0  0  0  0  0  0  0  0  0  0  0  0
   24.5017  -21.3911  -10.2398 C   0  0  0  0  0  0  0  0  0  0  0  0
   24.7755  -20.7339   -9.0592 C   0  0  0  0  0  0  0  0  0  0  0  0
   20.5001  -23.0177  -15.4272 O   0  0  0  0  0  0  0  0  0  0  0  0
   19.9828  -21.7709  -15.0320 C   0  0  0  0  0  0  0  0  0  0  0  0
   20.7846  -21.2053  -13.8752 C   0  0  2  0  0  0  0  0  0  0  0  0
   22.1831  -21.4980  -14.1106 N   0  0  0  0  0  0  0  0  0  0  0  0
   20.3554  -21.9151  -12.6601 C   0  0  0  0  0  0  0  0  0  0  0  0
   21.2192  -22.8366  -12.0522 O   0  0  0  0  0  0  0  0  0  0  0  0
   19.2348  -21.7018  -12.1723 O   0  0  0  0  0  0  0  0  0  0  0  0
  2  1  1  0
  3  2  1  0
  4  3  1  0
  4  5  1  0
  5  7  1  0
  5  6  1  6
  7  8  2  0
  9 10  1  0
 10 20  2  0
 10 11  1  0
 11 12  2  0
 12 13  1  0
 13 14  1  0
 15 14  1  1
 16 15  1  0
 16  7  1  0
 17 24  1  0
 17 15  1  0
 18 17  2  0
 19 13  2  0
 20 19  1  0
 22 21  1  0
 23 24  1  0
 23 22  1  6
 25 23  1  0
 26 25  1  0
 27 25  2  0
M  END
$$$$
