MYS.pdb
     RDKit          3D

 27 27  0  0  1  0  0  0  0  0999 V2000
   23.1615  -12.2250  -23.7329 C   0  0  0  0  0  0  0  0  0  0  0  0
   23.3903  -13.4590  -22.4426 S   0  0  0  0  0  0  0  0  0  0  0  0
   21.8256  -13.8899  -21.6998 C   0  0  0  0  0  0  0  0  0  0  0  0
   21.4677  -13.0789  -20.4937 C   0  0  0  0  0  0  0  0  0  0  0  0
   22.2928  -13.3590  -19.2851 C   0  0  2  0  0  0  0  0  0  0  0  0
   22.2459  -14.7330  -18.8483 N   0  0  0  0  0  0  0  0  0  0  0  0
   21.8555  -12.4596  -18.2000 C   0  0  0  0  0  0  0  0  0  0  0  0
   20.8647  -12.7528  -17.5021 O   0  0  0  0  0  0  0  0  0  0  0  0
   22.0890   -5.3127  -12.8636 O   0  0  0  0  0  0  0  0  0  0  0  0
   22.4043   -6.3452  -13.7157 C   0  0  0  0  0  0  0  0  0  0  0  0
   22.2253   -7.6303  -13.2837 C   0  0  0  0  0  0  0  0  0  0  0  0
   22.5255   -8.7144  -14.0979 C   0  0  0  0  0  0  0  0  0  0  0  0
   23.0164   -8.5455  -15.3753 C   0  0  0  0  0  0  0  0  0  0  0  0
   23.3499   -9.6821  -16.2565 C   0  0  0  0  0  0  0  0  0  0  0  0
   22.1747  -10.2762  -16.9836 C   0  0  2  0  0  0  0  0  0  0  0  0
   22.5634  -11.2630  -17.9527 N   0  0  0  0  0  0  0  0  0  0  0  0
   21.3866   -9.2333  -17.6690 C   0  0  0  0  0  0  0  0  0  0  0  0
   21.7853   -8.6586  -18.7245 O   0  0  0  0  0  0  0  0  0  0  0  0
   23.1991   -7.2322  -15.8168 C   0  0  0  0  0  0  0  0  0  0  0  0
   22.8964   -6.1660  -14.9968 C   0  0  0  0  0  0  0  0  0  0  0  0
   17.5213   -8.9128  -16.5523 O   0  0  0  0  0  0  0  0  0  0  0  0
   17.8871   -8.2854  -17.7569 C   0  0  0  0  0  0  0  0  0  0  0  0
   19.3261   -7.8098  -17.6927 C   0  0  2  0  0  0  0  0  0  0  0  0
   20.1245   -8.8671  -17.1086 N   0  0  0  0  0  0  0  0  0  0  0  0
   19.3598   -6.6458  -16.7933 C   0  0  0  0  0  0  0  0  0  0  0  0
   18.7470   -5.4475  -17.1848 O   0  0  0  0  0  0  0  0  0  0  0  0
   19.9267   -6.7206  -15.6923 O   0  0  0  0  0  0  0  0  0  0  0  0
  2  1  1  0
  3  2  1  0
  4  3  1  0
  4  5  1  0
  5  7  1  0
  5  6  1  1
  7  8  2  0
  9 10  1  0
 10 20  2  0
 10 11  1  0
 11 12  2  0
 12 13  1  0
 13 14  1  0
 15 14  1  6
 16 15  1  0
 16  7  1  0
 17 24  1  0
 17 15  1  0
 18 17  2  0
 19 13  2  0
 20 19  1  0
 22 21  1  0
 23 24  1  0
 23 22  1  1
 25 23  1  0
 26 25  1  0
 27 25  2  0
M  END
$$$$
