MYS.pdb
     RDKit          3D

 27 27  0  0  1  0  0  0  0  0999 V2000
   23.6238  -11.3881  -22.3845 C   0  0  0  0  0  0  0  0  0  0  0  0
   23.1598  -10.5550  -20.8579 S   0  0  0  0  0  0  0  0  0  0  0  0
   21.4599  -10.9054  -20.4418 C   0  0  0  0  0  0  0  0  0  0  0  0
   20.9691  -10.2160  -19.2071 C   0  0  0  0  0  0  0  0  0  0  0  0
   21.5284  -10.7456  -17.9317 C   0  0  2  0  0  0  0  0  0  0  0  0
   21.3299  -12.1626  -17.7477 N   0  0  0  0  0  0  0  0  0  0  0  0
   20.9329   -9.9935  -16.8103 C   0  0  0  0  0  0  0  0  0  0  0  0
   19.7911  -10.2791  -16.3985 O   0  0  0  0  0  0  0  0  0  0  0  0
   19.9374   -5.4840   -9.3801 O   0  0  0  0  0  0  0  0  0  0  0  0
   20.4664   -6.0832  -10.4993 C   0  0  0  0  0  0  0  0  0  0  0  0
   20.2992   -7.4305  -10.6631 C   0  0  0  0  0  0  0  0  0  0  0  0
   20.8100   -8.0922  -11.7720 C   0  0  0  0  0  0  0  0  0  0  0  0
   21.5073   -7.4233  -12.7558 C   0  0  0  0  0  0  0  0  0  0  0  0
   22.0661   -8.1060  -13.9394 C   0  0  0  0  0  0  0  0  0  0  0  0
   21.1592   -8.1212  -15.1394 C   0  0  2  0  0  0  0  0  0  0  0  0
   21.6606   -8.9468  -16.2030 N   0  0  0  0  0  0  0  0  0  0  0  0
   20.9459   -6.7591  -15.6663 C   0  0  0  0  0  0  0  0  0  0  0  0
   21.8638   -6.0925  -16.2289 O   0  0  0  0  0  0  0  0  0  0  0  0
   21.6779   -6.0463  -12.5884 C   0  0  0  0  0  0  0  0  0  0  0  0
   21.1648   -5.4034  -11.4821 C   0  0  0  0  0  0  0  0  0  0  0  0
   17.0668   -5.5552  -15.7711 O   0  0  0  0  0  0  0  0  0  0  0  0
   17.9500   -4.9058  -16.6523 C   0  0  0  0  0  0  0  0  0  0  0  0
   19.3507   -4.8711  -16.0712 C   0  0  2  0  0  0  0  0  0  0  0  0
   19.6465   -6.1812  -15.5299 N   0  0  0  0  0  0  0  0  0  0  0  0
   19.3395   -3.8994  -14.9665 C   0  0  0  0  0  0  0  0  0  0  0  0
   19.2580   -2.5286  -15.2480 O   0  0  0  0  0  0  0  0  0  0  0  0
   19.4014   -4.2872  -13.7897 O   0  0  0  0  0  0  0  0  0  0  0  0
  2  1  1  0
  3  2  1  0
  4  3  1  0
  4  5  1  0
  5  7  1  0
  5  6  1  1
  7  8  2  0
  9 10  1  0
 10 20  2  0
 10 11  1  0
 11 12  2  0
 12 13  1  0
 13 14  1  0
 15 14  1  1
 16 15  1  0
 16  7  1  0
 17 24  1  0
 17 15  1  0
 18 17  2  0
 19 13  2  0
 20 19  1  0
 22 21  1  0
 23 24  1  0
 23 22  1  1
 25 23  1  0
 26 25  1  0
 27 25  2  0
M  END
$$$$
