LND.pdb
     RDKit          3D

 25 24  0  0  1  0  0  0  0  0999 V2000
   12.4411  -19.6300    1.0895 C   0  0  0  0  0  0  0  0  0  0  0  0
   13.0212  -20.9551    0.6231 C   0  0  2  0  0  0  0  0  0  0  0  0
   11.8512  -21.7243    0.0245 C   0  0  0  0  0  0  0  0  0  0  0  0
   13.6811  -21.6990    1.7521 C   0  0  0  0  0  0  0  0  0  0  0  0
   14.8141  -20.8791    2.3099 C   0  0  2  0  0  0  0  0  0  0  0  0
   15.7948  -20.6641    1.2654 N   0  0  0  0  0  0  0  0  0  0  0  0
   15.4611  -21.4942    3.4721 C   0  0  0  0  0  0  0  0  0  0  0  0
   14.7892  -21.6603    4.5333 O   0  0  0  0  0  0  0  0  0  0  0  0
   17.3495  -25.4738    4.4812 N   0  0  0  0  0  0  0  0  0  0  0  0
   18.5193  -24.7924    4.0549 C   0  0  0  0  0  0  0  0  0  0  0  0
   19.4518  -25.4814    3.6132 O   0  0  0  0  0  0  0  0  0  0  0  0
   18.5905  -23.3325    4.1462 C   0  0  0  0  0  0  0  0  0  0  0  0
   17.3829  -22.6335    4.6806 C   0  0  2  0  0  0  0  0  0  0  0  0
   16.7992  -21.9303    3.5188 N   0  0  0  0  0  0  0  0  0  0  0  0
   17.6767  -21.6257    5.7389 C   0  0  0  0  0  0  0  0  0  0  0  0
   18.2841  -20.5855    5.4032 O   0  0  0  0  0  0  0  0  0  0  0  0
   17.2937  -21.8118    7.0874 N   0  0  0  0  0  0  0  0  0  0  0  0
   17.7327  -20.8049    8.0769 C   0  0  1  0  0  0  0  0  0  0  0  0
   16.5982  -19.8356    8.2559 C   0  0  0  0  0  0  0  0  0  0  0  0
   16.7770  -18.8515    9.3110 C   0  0  0  0  0  0  0  0  0  0  0  0
   17.7754  -18.6674   10.0090 O   0  0  0  0  0  0  0  0  0  0  0  0
   18.0218  -21.5291    9.3648 C   0  0  0  0  0  0  0  0  0  0  0  0
   17.7529  -22.8647    9.5166 O   0  0  0  0  0  0  0  0  0  0  0  0
   15.6842  -17.9956    9.5805 O   0  0  0  0  0  0  0  0  0  0  0  0
   18.5230  -20.9183   10.3457 O   0  0  0  0  0  0  0  0  0  0  0  0
  2  1  1  1
  3  2  1  0
  4  5  1  0
  4  2  1  0
  5  6  1  6
  7  5  1  0
  7  8  2  0
 10  9  1  0
 10 12  1  0
 11 10  2  0
 13 12  1  6
 13 14  1  0
 14  7  1  0
 15 16  2  0
 15 13  1  0
 17 15  1  0
 18 17  1  0
 18 19  1  1
 20 19  1  0
 20 21  2  0
 22 18  1  0
 23 22  1  0
 24 20  1  0
 25 22  2  0
M  END
$$$$
