LND.pdb
     RDKit          3D

 25 24  0  0  1  0  0  0  0  0999 V2000
   17.1493  -11.3048  -16.5623 C   0  0  0  0  0  0  0  0  0  0  0  0
   17.4645  -11.6867  -15.1254 C   0  0  2  0  0  0  0  0  0  0  0  0
   16.9336  -13.1037  -14.9543 C   0  0  0  0  0  0  0  0  0  0  0  0
   16.8512  -10.7210  -14.1482 C   0  0  0  0  0  0  0  0  0  0  0  0
   17.3904   -9.3366  -14.3925 C   0  0  2  0  0  0  0  0  0  0  0  0
   18.8137   -9.3342  -14.1219 N   0  0  0  0  0  0  0  0  0  0  0  0
   16.7349   -8.3051  -13.5839 C   0  0  0  0  0  0  0  0  0  0  0  0
   15.4698   -8.2363  -13.5831 O   0  0  0  0  0  0  0  0  0  0  0  0
   15.6447   -7.7330   -9.8871 N   0  0  0  0  0  0  0  0  0  0  0  0
   16.8168   -6.9640   -9.6650 C   0  0  0  0  0  0  0  0  0  0  0  0
   17.3228   -7.0092   -8.5331 O   0  0  0  0  0  0  0  0  0  0  0  0
   17.3812   -6.1595  -10.7508 C   0  0  0  0  0  0  0  0  0  0  0  0
   16.7063   -6.2581  -12.0803 C   0  0  2  0  0  0  0  0  0  0  0  0
   17.4012   -7.3564  -12.7845 N   0  0  0  0  0  0  0  0  0  0  0  0
   16.8120   -5.0267  -12.9135 C   0  0  0  0  0  0  0  0  0  0  0  0
   17.9531   -4.5642  -13.1313 O   0  0  0  0  0  0  0  0  0  0  0  0
   15.6765   -4.3799  -13.4540 N   0  0  0  0  0  0  0  0  0  0  0  0
   15.8933   -3.1600  -14.2605 C   0  0  1  0  0  0  0  0  0  0  0  0
   14.7139   -3.0223  -15.1817 C   0  0  0  0  0  0  0  0  0  0  0  0
   14.5751   -4.0693  -16.1809 C   0  0  0  0  0  0  0  0  0  0  0  0
   15.3884   -4.3987  -17.0457 O   0  0  0  0  0  0  0  0  0  0  0  0
   15.9654   -1.9939  -13.3107 C   0  0  0  0  0  0  0  0  0  0  0  0
   15.8014   -2.1542  -11.9592 O   0  0  0  0  0  0  0  0  0  0  0  0
   13.3688   -4.8070  -16.1724 O   0  0  0  0  0  0  0  0  0  0  0  0
   16.1799   -0.8293  -13.7398 O   0  0  0  0  0  0  0  0  0  0  0  0
  2  1  1  6
  3  2  1  0
  4  5  1  0
  4  2  1  0
  5  6  1  1
  7  5  1  0
  7  8  2  0
 10  9  1  0
 10 12  1  0
 11 10  2  0
 13 12  1  1
 13 14  1  0
 14  7  1  0
 15 16  2  0
 15 13  1  0
 17 15  1  0
 18 17  1  0
 18 19  1  6
 20 19  1  0
 20 21  2  0
 22 18  1  0
 23 22  1  0
 24 20  1  0
 25 22  2  0
M  END
$$$$
