LND.pdb
     RDKit          3D

 25 24  0  0  1  0  0  0  0  0999 V2000
   26.1178  -18.7918  -18.5415 C   0  0  0  0  0  0  0  0  0  0  0  0
   25.4509  -20.0563  -19.0575 C   0  0  2  0  0  0  0  0  0  0  0  0
   25.1250  -19.7781  -20.5188 C   0  0  0  0  0  0  0  0  0  0  0  0
   24.2289  -20.4062  -18.2525 C   0  0  0  0  0  0  0  0  0  0  0  0
   24.6156  -20.6485  -16.8176 C   0  0  2  0  0  0  0  0  0  0  0  0
   25.4859  -21.8050  -16.7562 N   0  0  0  0  0  0  0  0  0  0  0  0
   23.4664  -20.8508  -15.9309 C   0  0  0  0  0  0  0  0  0  0  0  0
   23.0435  -22.0284  -15.7318 O   0  0  0  0  0  0  0  0  0  0  0  0
   19.6942  -20.0264  -12.2645 N   0  0  0  0  0  0  0  0  0  0  0  0
   20.7368  -19.0640  -12.2263 C   0  0  0  0  0  0  0  0  0  0  0  0
   20.7465  -18.2711  -11.2721 O   0  0  0  0  0  0  0  0  0  0  0  0
   21.7457  -19.0352  -13.2874 C   0  0  0  0  0  0  0  0  0  0  0  0
   21.6349  -20.0819  -14.3480 C   0  0  2  0  0  0  0  0  0  0  0  0
   22.7695  -19.8272  -15.2605 N   0  0  0  0  0  0  0  0  0  0  0  0
   20.3737  -20.0200  -15.1401 C   0  0  0  0  0  0  0  0  0  0  0  0
   20.2950  -19.1638  -16.0480 O   0  0  0  0  0  0  0  0  0  0  0  0
   19.2844  -20.8881  -14.8962 N   0  0  0  0  0  0  0  0  0  0  0  0
   18.0820  -20.7450  -15.7444 C   0  0  1  0  0  0  0  0  0  0  0  0
   17.9984  -21.9739  -16.6055 C   0  0  0  0  0  0  0  0  0  0  0  0
   17.1372  -21.8631  -17.7716 C   0  0  0  0  0  0  0  0  0  0  0  0
   16.3933  -20.9285  -18.0734 O   0  0  0  0  0  0  0  0  0  0  0  0
   16.8891  -20.6539  -14.8303 C   0  0  0  0  0  0  0  0  0  0  0  0
   15.7385  -20.0121  -15.2090 O   0  0  0  0  0  0  0  0  0  0  0  0
   17.1424  -22.9489  -18.6773 O   0  0  0  0  0  0  0  0  0  0  0  0
   16.9198  -21.1704  -13.6820 O   0  0  0  0  0  0  0  0  0  0  0  0
  2  1  1  1
  3  2  1  0
  4  5  1  0
  4  2  1  0
  5  6  1  6
  7  5  1  0
  7  8  2  0
 10  9  1  0
 10 12  1  0
 11 10  2  0
 13 12  1  1
 13 14  1  0
 14  7  1  0
 15 16  2  0
 15 13  1  0
 17 15  1  0
 18 17  1  0
 18 19  1  6
 20 19  1  0
 20 21  2  0
 22 18  1  0
 23 22  1  0
 24 20  1  0
 25 22  2  0
M  END
$$$$
