LND.pdb
     RDKit          3D

 25 24  0  0  1  0  0  0  0  0999 V2000
   24.7341  -17.8815  -22.0274 C   0  0  0  0  0  0  0  0  0  0  0  0
   25.2560  -18.3844  -20.6915 C   0  0  2  0  0  0  0  0  0  0  0  0
   26.2487  -19.4882  -21.0311 C   0  0  0  0  0  0  0  0  0  0  0  0
   24.1391  -18.8677  -19.8068 C   0  0  0  0  0  0  0  0  0  0  0  0
   23.6425  -17.7353  -18.9476 C   0  0  2  0  0  0  0  0  0  0  0  0
   24.7504  -17.2154  -18.1723 N   0  0  0  0  0  0  0  0  0  0  0  0
   22.5519  -18.1216  -18.0482 C   0  0  0  0  0  0  0  0  0  0  0  0
   21.5517  -18.7370  -18.5237 O   0  0  0  0  0  0  0  0  0  0  0  0
   19.7003  -19.2079  -13.7102 N   0  0  0  0  0  0  0  0  0  0  0  0
   21.0630  -18.9518  -13.4068 C   0  0  0  0  0  0  0  0  0  0  0  0
   21.4451  -19.1919  -12.2511 O   0  0  0  0  0  0  0  0  0  0  0  0
   21.9566  -18.4247  -14.4404 C   0  0  0  0  0  0  0  0  0  0  0  0
   21.3711  -18.2370  -15.8023 C   0  0  2  0  0  0  0  0  0  0  0  0
   22.5126  -17.8643  -16.6643 N   0  0  0  0  0  0  0  0  0  0  0  0
   20.3486  -17.1557  -15.8857 C   0  0  0  0  0  0  0  0  0  0  0  0
   19.2839  -17.3075  -15.2479 O   0  0  0  0  0  0  0  0  0  0  0  0
   20.5474  -15.9847  -16.6531 N   0  0  0  0  0  0  0  0  0  0  0  0
   19.4656  -14.9772  -16.6715 C   0  0  1  0  0  0  0  0  0  0  0  0
   19.9586  -13.7836  -15.9029 C   0  0  0  0  0  0  0  0  0  0  0  0
   19.0863  -12.6207  -15.9263 C   0  0  0  0  0  0  0  0  0  0  0  0
   17.9289  -12.5547  -16.3436 O   0  0  0  0  0  0  0  0  0  0  0  0
   19.2070  -14.6141  -18.1095 C   0  0  0  0  0  0  0  0  0  0  0  0
   19.9088  -15.1913  -19.1360 O   0  0  0  0  0  0  0  0  0  0  0  0
   19.6139  -11.4136  -15.4124 O   0  0  0  0  0  0  0  0  0  0  0  0
   18.3299  -13.7608  -18.4081 O   0  0  0  0  0  0  0  0  0  0  0  0
  2  1  1  6
  3  2  1  0
  4  5  1  0
  4  2  1  0
  5  6  1  1
  7  5  1  0
  7  8  2  0
 10  9  1  0
 10 12  1  0
 11 10  2  0
 13 12  1  1
 13 14  1  0
 14  7  1  0
 15 16  2  0
 15 13  1  0
 17 15  1  0
 18 17  1  0
 18 19  1  1
 20 19  1  0
 20 21  2  0
 22 18  1  0
 23 22  1  0
 24 20  1  0
 25 22  2  0
M  END
$$$$
