LND.pdb
     RDKit          3D

 25 24  0  0  1  0  0  0  0  0999 V2000
   16.2543  -12.2927  -16.9107 C   0  0  0  0  0  0  0  0  0  0  0  0
   15.8417  -12.6393  -15.4896 C   0  0  2  0  0  0  0  0  0  0  0  0
   14.7269  -13.6674  -15.6280 C   0  0  0  0  0  0  0  0  0  0  0  0
   15.4065  -11.4184  -14.7257 C   0  0  0  0  0  0  0  0  0  0  0  0
   16.5725  -10.4814  -14.5541 C   0  0  2  0  0  0  0  0  0  0  0  0
   17.6858  -11.2179  -13.9911 N   0  0  0  0  0  0  0  0  0  0  0  0
   16.2702   -9.3244  -13.7069 C   0  0  0  0  0  0  0  0  0  0  0  0
   15.3101   -8.5623  -14.0270 O   0  0  0  0  0  0  0  0  0  0  0  0
   16.2032   -5.8478   -9.6864 N   0  0  0  0  0  0  0  0  0  0  0  0
   16.3319   -7.2106   -9.3112 C   0  0  0  0  0  0  0  0  0  0  0  0
   16.2675   -7.4777   -8.1013 O   0  0  0  0  0  0  0  0  0  0  0  0
   16.5318   -8.2366  -10.3369 C   0  0  0  0  0  0  0  0  0  0  0  0
   16.6682   -7.7594  -11.7463 C   0  0  2  0  0  0  0  0  0  0  0  0
   16.9688   -8.9722  -12.5361 N   0  0  0  0  0  0  0  0  0  0  0  0
   17.7704   -6.7782  -11.9568 C   0  0  0  0  0  0  0  0  0  0  0  0
   17.6752   -5.6634  -11.3986 O   0  0  0  0  0  0  0  0  0  0  0  0
   18.8997   -7.0698  -12.7564 N   0  0  0  0  0  0  0  0  0  0  0  0
   19.8610   -5.9783  -13.0207 C   0  0  1  0  0  0  0  0  0  0  0  0
   21.1729   -6.6196  -13.3763 C   0  0  0  0  0  0  0  0  0  0  0  0
   22.2112   -5.7092  -13.8312 C   0  0  0  0  0  0  0  0  0  0  0  0
   22.5112   -4.6114  -13.3591 O   0  0  0  0  0  0  0  0  0  0  0  0
   19.3303   -5.1754  -14.1785 C   0  0  0  0  0  0  0  0  0  0  0  0
   18.8011   -5.7775  -15.2906 O   0  0  0  0  0  0  0  0  0  0  0  0
   22.9775   -6.1177  -14.9471 O   0  0  0  0  0  0  0  0  0  0  0  0
   19.3606   -3.9164  -14.1538 O   0  0  0  0  0  0  0  0  0  0  0  0
  2  1  1  6
  3  2  1  0
  4  5  1  0
  4  2  1  0
  5  6  1  1
  7  5  1  0
  7  8  2  0
 10  9  1  0
 10 12  1  0
 11 10  2  0
 13 12  1  1
 13 14  1  0
 14  7  1  0
 15 16  2  0
 15 13  1  0
 17 15  1  0
 18 17  1  0
 18 19  1  6
 20 19  1  0
 20 21  2  0
 22 18  1  0
 23 22  1  0
 24 20  1  0
 25 22  2  0
M  END
$$$$
