LND.pdb
     RDKit          3D

 25 24  0  0  1  0  0  0  0  0999 V2000
   19.5796  -23.7201  -11.3776 C   0  0  0  0  0  0  0  0  0  0  0  0
   18.3901  -24.6656  -11.3458 C   0  0  2  0  0  0  0  0  0  0  0  0
   17.6683  -24.4575  -12.6704 C   0  0  0  0  0  0  0  0  0  0  0  0
   17.5032  -24.4004  -10.1598 C   0  0  0  0  0  0  0  0  0  0  0  0
   18.2994  -24.5294   -8.8883 C   0  0  2  0  0  0  0  0  0  0  0  0
   18.6674  -25.9187   -8.7055 N   0  0  0  0  0  0  0  0  0  0  0  0
   17.5843  -24.0505   -7.7022 C   0  0  0  0  0  0  0  0  0  0  0  0
   17.1203  -22.8715   -7.6985 O   0  0  0  0  0  0  0  0  0  0  0  0
   14.3562  -22.5837   -4.6804 N   0  0  0  0  0  0  0  0  0  0  0  0
   14.0572  -23.4223   -5.7858 C   0  0  0  0  0  0  0  0  0  0  0  0
   12.9390  -23.2993   -6.3091 O   0  0  0  0  0  0  0  0  0  0  0  0
   15.0518  -24.3845   -6.2649 C   0  0  0  0  0  0  0  0  0  0  0  0
   16.3455  -24.4405   -5.5193 C   0  0  2  0  0  0  0  0  0  0  0  0
   17.3589  -24.8020   -6.5329 N   0  0  0  0  0  0  0  0  0  0  0  0
   16.3833  -25.4617   -4.4342 C   0  0  0  0  0  0  0  0  0  0  0  0
   16.5553  -26.6562   -4.7613 O   0  0  0  0  0  0  0  0  0  0  0  0
   16.2325  -25.1212   -3.0700 N   0  0  0  0  0  0  0  0  0  0  0  0
   16.2650  -26.2150   -2.0760 C   0  0  1  0  0  0  0  0  0  0  0  0
   16.8836  -25.6583   -0.8245 C   0  0  0  0  0  0  0  0  0  0  0  0
   16.9580  -26.5781    0.2990 C   0  0  0  0  0  0  0  0  0  0  0  0
   16.6412  -27.7685    0.3211 O   0  0  0  0  0  0  0  0  0  0  0  0
   14.8434  -26.6413   -1.8225 C   0  0  0  0  0  0  0  0  0  0  0  0
   14.5199  -27.9451   -1.5493 O   0  0  0  0  0  0  0  0  0  0  0  0
   17.4508  -26.0604    1.5191 O   0  0  0  0  0  0  0  0  0  0  0  0
   13.9059  -25.8008   -1.8562 O   0  0  0  0  0  0  0  0  0  0  0  0
  2  1  1  6
  3  2  1  0
  4  5  1  0
  4  2  1  0
  5  6  1  1
  7  5  1  0
  7  8  2  0
 10  9  1  0
 10 12  1  0
 11 10  2  0
 13 12  1  6
 13 14  1  0
 14  7  1  0
 15 16  2  0
 15 13  1  0
 17 15  1  0
 18 17  1  0
 18 19  1  1
 20 19  1  0
 20 21  2  0
 22 18  1  0
 23 22  1  0
 24 20  1  0
 25 22  2  0
M  END
$$$$
