LND.pdb
     RDKit          3D

 25 24  0  0  1  0  0  0  0  0999 V2000
   18.8427  -14.1894  -15.6679 C   0  0  0  0  0  0  0  0  0  0  0  0
   18.3274  -13.3011  -16.7884 C   0  0  2  0  0  0  0  0  0  0  0  0
   17.6765  -14.2451  -17.7904 C   0  0  0  0  0  0  0  0  0  0  0  0
   19.4329  -12.4851  -17.4013 C   0  0  0  0  0  0  0  0  0  0  0  0
   19.9242  -11.4647  -16.4091 C   0  0  2  0  0  0  0  0  0  0  0  0
   18.7821  -10.8693  -15.7458 N   0  0  0  0  0  0  0  0  0  0  0  0
   20.7447  -10.4120  -17.0142 C   0  0  0  0  0  0  0  0  0  0  0  0
   21.5819  -10.7249  -17.9122 O   0  0  0  0  0  0  0  0  0  0  0  0
   22.6947   -6.3264  -19.3320 N   0  0  0  0  0  0  0  0  0  0  0  0
   21.7268   -7.2602  -19.7854 C   0  0  0  0  0  0  0  0  0  0  0  0
   21.4893   -7.2900  -21.0028 O   0  0  0  0  0  0  0  0  0  0  0  0
   21.0532   -8.1398  -18.8277 C   0  0  0  0  0  0  0  0  0  0  0  0
   21.4517   -8.0021  -17.3942 C   0  0  2  0  0  0  0  0  0  0  0  0
   20.6862   -9.0454  -16.6797 N   0  0  0  0  0  0  0  0  0  0  0  0
   21.1190   -6.6807  -16.7902 C   0  0  0  0  0  0  0  0  0  0  0  0
   19.9209   -6.3228  -16.7903 O   0  0  0  0  0  0  0  0  0  0  0  0
   22.1045   -5.8369  -16.2276 N   0  0  0  0  0  0  0  0  0  0  0  0
   21.6616   -4.5623  -15.6235 C   0  0  1  0  0  0  0  0  0  0  0  0
   22.3532   -4.4375  -14.2951 C   0  0  0  0  0  0  0  0  0  0  0  0
   21.7835   -5.2288  -13.2166 C   0  0  0  0  0  0  0  0  0  0  0  0
   20.7082   -5.8300  -13.2094 O   0  0  0  0  0  0  0  0  0  0  0  0
   22.0815   -3.4509  -16.5483 C   0  0  0  0  0  0  0  0  0  0  0  0
   22.8366   -3.6907  -17.6670 O   0  0  0  0  0  0  0  0  0  0  0  0
   22.5416   -5.3307  -12.0274 O   0  0  0  0  0  0  0  0  0  0  0  0
   21.7459   -2.2597  -16.3136 O   0  0  0  0  0  0  0  0  0  0  0  0
  2  1  1  1
  3  2  1  0
  4  5  1  0
  4  2  1  0
  5  6  1  6
  7  5  1  0
  7  8  2  0
 10  9  1  0
 10 12  1  0
 11 10  2  0
 13 12  1  6
 13 14  1  0
 14  7  1  0
 15 16  2  0
 15 13  1  0
 17 15  1  0
 18 17  1  0
 18 19  1  1
 20 19  1  0
 20 21  2  0
 22 18  1  0
 23 22  1  0
 24 20  1  0
 25 22  2  0
M  END
$$$$
