LND.pdb
     RDKit          3D

 25 24  0  0  1  0  0  0  0  0999 V2000
   24.5029  -11.5526  -15.7949 C   0  0  0  0  0  0  0  0  0  0  0  0
   23.3138  -12.2846  -16.3950 C   0  0  2  0  0  0  0  0  0  0  0  0
   23.9052  -13.2868  -17.3772 C   0  0  0  0  0  0  0  0  0  0  0  0
   22.3523  -11.3329  -17.0536 C   0  0  0  0  0  0  0  0  0  0  0  0
   21.9136  -10.2855  -16.0649 C   0  0  2  0  0  0  0  0  0  0  0  0
   21.3992  -10.9449  -14.8819 N   0  0  0  0  0  0  0  0  0  0  0  0
   20.9001   -9.3704  -16.5971 C   0  0  0  0  0  0  0  0  0  0  0  0
   21.1465   -8.7338  -17.6644 O   0  0  0  0  0  0  0  0  0  0  0  0
   16.2363   -7.2327  -17.8043 N   0  0  0  0  0  0  0  0  0  0  0  0
   16.1110   -8.2606  -16.8336 C   0  0  0  0  0  0  0  0  0  0  0  0
   14.9643   -8.6363  -16.5454 O   0  0  0  0  0  0  0  0  0  0  0  0
   17.3085   -8.8340  -16.2156 C   0  0  0  0  0  0  0  0  0  0  0  0
   18.6211   -8.2493  -16.6254 C   0  0  2  0  0  0  0  0  0  0  0  0
   19.6414   -9.1271  -16.0145 N   0  0  0  0  0  0  0  0  0  0  0  0
   18.8497   -6.8581  -16.1415 C   0  0  0  0  0  0  0  0  0  0  0  0
   17.9006   -6.2723  -15.5763 O   0  0  0  0  0  0  0  0  0  0  0  0
   20.0889   -6.1959  -16.3019 N   0  0  0  0  0  0  0  0  0  0  0  0
   20.1953   -4.8012  -15.8233 C   0  0  1  0  0  0  0  0  0  0  0  0
   21.5003   -4.6837  -15.0872 C   0  0  0  0  0  0  0  0  0  0  0  0
   21.4782   -5.1219  -13.7011 C   0  0  0  0  0  0  0  0  0  0  0  0
   20.5063   -5.5010  -13.0456 O   0  0  0  0  0  0  0  0  0  0  0  0
   20.1838   -3.9036  -17.0320 C   0  0  0  0  0  0  0  0  0  0  0  0
   20.1770   -4.4103  -18.3058 O   0  0  0  0  0  0  0  0  0  0  0  0
   22.7110   -5.1189  -13.0085 O   0  0  0  0  0  0  0  0  0  0  0  0
   20.1808   -2.6509  -16.9010 O   0  0  0  0  0  0  0  0  0  0  0  0
  2  1  1  6
  3  2  1  0
  4  5  1  0
  4  2  1  0
  5  6  1  1
  7  5  1  0
  7  8  2  0
 10  9  1  0
 10 12  1  0
 11 10  2  0
 13 12  1  1
 13 14  1  0
 14  7  1  0
 15 16  2  0
 15 13  1  0
 17 15  1  0
 18 17  1  0
 18 19  1  6
 20 19  1  0
 20 21  2  0
 22 18  1  0
 23 22  1  0
 24 20  1  0
 25 22  2  0
M  END
$$$$
