LND.pdb
     RDKit          3D

 25 24  0  0  1  0  0  0  0  0999 V2000
   18.4035  -10.2460  -18.0535 C   0  0  0  0  0  0  0  0  0  0  0  0
   18.4009  -10.7920  -16.6351 C   0  0  2  0  0  0  0  0  0  0  0  0
   17.2461  -11.7832  -16.5819 C   0  0  0  0  0  0  0  0  0  0  0  0
   18.2617   -9.6918  -15.6183 C   0  0  0  0  0  0  0  0  0  0  0  0
   19.4383   -8.7572  -15.7136 C   0  0  2  0  0  0  0  0  0  0  0  0
   20.6512   -9.5029  -15.4456 N   0  0  0  0  0  0  0  0  0  0  0  0
   19.3512   -7.6158  -14.7985 C   0  0  0  0  0  0  0  0  0  0  0  0
   18.3568   -6.8352  -14.8824 O   0  0  0  0  0  0  0  0  0  0  0  0
   18.1646   -6.9178  -11.2443 N   0  0  0  0  0  0  0  0  0  0  0  0
   19.4941   -6.9183  -10.7473 C   0  0  0  0  0  0  0  0  0  0  0  0
   19.6653   -7.2906   -9.5762 O   0  0  0  0  0  0  0  0  0  0  0  0
   20.5980   -6.4901  -11.6091 C   0  0  0  0  0  0  0  0  0  0  0  0
   20.2406   -6.0632  -12.9958 C   0  0  2  0  0  0  0  0  0  0  0  0
   20.2981   -7.2982  -13.8059 N   0  0  0  0  0  0  0  0  0  0  0  0
   21.1777   -5.0685  -13.5910 C   0  0  0  0  0  0  0  0  0  0  0  0
   22.2438   -5.4936  -14.0872 O   0  0  0  0  0  0  0  0  0  0  0  0
   20.8977   -3.6825  -13.6089 N   0  0  0  0  0  0  0  0  0  0  0  0
   21.7404   -2.8171  -14.4612 C   0  0  1  0  0  0  0  0  0  0  0  0
   21.5305   -3.2560  -15.8831 C   0  0  0  0  0  0  0  0  0  0  0  0
   22.1178   -2.3949  -16.8967 C   0  0  0  0  0  0  0  0  0  0  0  0
   21.5313   -1.7119  -17.7378 O   0  0  0  0  0  0  0  0  0  0  0  0
   21.2757   -1.3980  -14.2684 C   0  0  0  0  0  0  0  0  0  0  0  0
   22.1517   -0.3438  -14.2885 O   0  0  0  0  0  0  0  0  0  0  0  0
   23.5294   -2.3212  -16.9350 O   0  0  0  0  0  0  0  0  0  0  0  0
   20.0567   -1.1420  -14.0811 O   0  0  0  0  0  0  0  0  0  0  0  0
  2  1  1  6
  3  2  1  0
  4  5  1  0
  4  2  1  0
  5  6  1  1
  7  5  1  0
  7  8  2  0
 10  9  1  0
 10 12  1  0
 11 10  2  0
 13 12  1  1
 13 14  1  0
 14  7  1  0
 15 16  2  0
 15 13  1  0
 17 15  1  0
 18 17  1  0
 18 19  1  6
 20 19  1  0
 20 21  2  0
 22 18  1  0
 23 22  1  0
 24 20  1  0
 25 22  2  0
M  END
$$$$
