LND.pdb
     RDKit          3D

 25 24  0  0  1  0  0  0  0  0999 V2000
   29.1716  -21.8706  -11.1261 C   0  0  0  0  0  0  0  0  0  0  0  0
   28.2355  -20.6906  -10.9232 C   0  0  2  0  0  0  0  0  0  0  0  0
   27.5141  -20.9636   -9.6102 C   0  0  0  0  0  0  0  0  0  0  0  0
   27.2855  -20.5319  -12.0791 C   0  0  0  0  0  0  0  0  0  0  0  0
   28.0486  -20.1397  -13.3164 C   0  0  2  0  0  0  0  0  0  0  0  0
   28.9268  -19.0337  -12.9937 N   0  0  0  0  0  0  0  0  0  0  0  0
   27.1845  -19.7691  -14.4405 C   0  0  0  0  0  0  0  0  0  0  0  0
   26.8408  -18.5575  -14.5783 O   0  0  0  0  0  0  0  0  0  0  0  0
   25.7195  -21.7183  -20.0126 N   0  0  0  0  0  0  0  0  0  0  0  0
   25.7424  -20.7052  -19.0188 C   0  0  0  0  0  0  0  0  0  0  0  0
   25.1932  -19.6265  -19.2909 O   0  0  0  0  0  0  0  0  0  0  0  0
   26.3970  -20.9558  -17.7329 C   0  0  0  0  0  0  0  0  0  0  0  0
   25.8429  -20.2368  -16.5460 C   0  0  2  0  0  0  0  0  0  0  0  0
   26.6872  -20.6617  -15.4095 N   0  0  0  0  0  0  0  0  0  0  0  0
   24.4265  -20.5770  -16.2301 C   0  0  0  0  0  0  0  0  0  0  0  0
   24.1978  -21.6773  -15.6817 O   0  0  0  0  0  0  0  0  0  0  0  0
   23.3546  -19.7044  -16.5287 N   0  0  0  0  0  0  0  0  0  0  0  0
   21.9878  -20.1388  -16.1700 C   0  0  1  0  0  0  0  0  0  0  0  0
   21.4876  -19.1979  -15.1101 C   0  0  0  0  0  0  0  0  0  0  0  0
   21.1763  -19.8087  -13.8279 C   0  0  0  0  0  0  0  0  0  0  0  0
   21.3063  -20.9903  -13.5044 O   0  0  0  0  0  0  0  0  0  0  0  0
   21.1398  -20.0421  -17.4103 C   0  0  0  0  0  0  0  0  0  0  0  0
   20.0677  -20.8711  -17.6167 O   0  0  0  0  0  0  0  0  0  0  0  0
   20.6625  -18.9588  -12.8215 O   0  0  0  0  0  0  0  0  0  0  0  0
   21.3980  -19.1877  -18.2990 O   0  0  0  0  0  0  0  0  0  0  0  0
  2  1  1  6
  3  2  1  0
  4  5  1  0
  4  2  1  0
  5  6  1  1
  7  5  1  0
  7  8  2  0
 10  9  1  0
 10 12  1  0
 11 10  2  0
 13 12  1  6
 13 14  1  0
 14  7  1  0
 15 16  2  0
 15 13  1  0
 17 15  1  0
 18 17  1  0
 18 19  1  1
 20 19  1  0
 20 21  2  0
 22 18  1  0
 23 22  1  0
 24 20  1  0
 25 22  2  0
M  END
$$$$
