LND.pdb
     RDKit          3D

 25 24  0  0  1  0  0  0  0  0999 V2000
   16.8575  -12.4272  -16.6269 C   0  0  0  0  0  0  0  0  0  0  0  0
   16.6569  -12.9078  -15.1990 C   0  0  2  0  0  0  0  0  0  0  0  0
   15.6863  -14.0772  -15.2950 C   0  0  0  0  0  0  0  0  0  0  0  0
   16.1448  -11.8068  -14.3107 C   0  0  0  0  0  0  0  0  0  0  0  0
   17.1272  -10.6659  -14.2944 C   0  0  2  0  0  0  0  0  0  0  0  0
   18.3763  -11.1320  -13.7275 N   0  0  0  0  0  0  0  0  0  0  0  0
   16.6527   -9.4993  -13.5450 C   0  0  0  0  0  0  0  0  0  0  0  0
   15.5410   -8.9784  -13.8578 O   0  0  0  0  0  0  0  0  0  0  0  0
   16.3205   -5.5395   -9.9838 N   0  0  0  0  0  0  0  0  0  0  0  0
   16.9505   -6.7058   -9.4765 C   0  0  0  0  0  0  0  0  0  0  0  0
   17.2102   -6.7321   -8.2636 O   0  0  0  0  0  0  0  0  0  0  0  0
   17.2679   -7.8166  -10.3764 C   0  0  0  0  0  0  0  0  0  0  0  0
   16.8619   -7.6599  -11.8059 C   0  0  2  0  0  0  0  0  0  0  0  0
   17.3384   -8.8870  -12.4784 N   0  0  0  0  0  0  0  0  0  0  0  0
   17.4710   -6.4841  -12.4902 C   0  0  0  0  0  0  0  0  0  0  0  0
   18.7183   -6.4285  -12.5579 O   0  0  0  0  0  0  0  0  0  0  0  0
   16.6896   -5.4492  -13.0542 N   0  0  0  0  0  0  0  0  0  0  0  0
   17.3936   -4.3519  -13.7513 C   0  0  1  0  0  0  0  0  0  0  0  0
   17.1994   -4.5671  -15.2259 C   0  0  0  0  0  0  0  0  0  0  0  0
   17.7897   -3.5565  -16.0886 C   0  0  0  0  0  0  0  0  0  0  0  0
   18.4703   -2.5851  -15.7555 O   0  0  0  0  0  0  0  0  0  0  0  0
   16.7617   -3.0568  -13.3149 C   0  0  0  0  0  0  0  0  0  0  0  0
   15.6423   -3.0317  -12.5240 O   0  0  0  0  0  0  0  0  0  0  0  0
   17.5654   -3.6901  -17.4783 O   0  0  0  0  0  0  0  0  0  0  0  0
   17.2513   -1.9522  -13.6707 O   0  0  0  0  0  0  0  0  0  0  0  0
  2  1  1  6
  3  2  1  0
  4  5  1  0
  4  2  1  0
  5  6  1  1
  7  5  1  0
  7  8  2  0
 10  9  1  0
 10 12  1  0
 11 10  2  0
 13 12  1  1
 13 14  1  0
 14  7  1  0
 15 16  2  0
 15 13  1  0
 17 15  1  0
 18 17  1  0
 18 19  1  6
 20 19  1  0
 20 21  2  0
 22 18  1  0
 23 22  1  0
 24 20  1  0
 25 22  2  0
M  END
$$$$
