LND.pdb
     RDKit          3D

 25 24  0  0  1  0  0  0  0  0999 V2000
   20.2036  -14.1917  -16.0686 C   0  0  0  0  0  0  0  0  0  0  0  0
   18.9488  -14.9407  -16.4862 C   0  0  2  0  0  0  0  0  0  0  0  0
   19.3916  -15.8968  -17.5857 C   0  0  0  0  0  0  0  0  0  0  0  0
   17.8681  -13.9992  -16.9438 C   0  0  0  0  0  0  0  0  0  0  0  0
   17.4266  -13.1323  -15.7946 C   0  0  2  0  0  0  0  0  0  0  0  0
   16.7655  -13.9629  -14.8088 N   0  0  0  0  0  0  0  0  0  0  0  0
   16.5335  -12.0422  -16.1969 C   0  0  0  0  0  0  0  0  0  0  0  0
   15.4143  -12.3253  -16.7188 O   0  0  0  0  0  0  0  0  0  0  0  0
   13.6067   -7.8097  -15.9817 N   0  0  0  0  0  0  0  0  0  0  0  0
   13.6776   -8.8996  -15.0752 C   0  0  0  0  0  0  0  0  0  0  0  0
   12.7685   -9.0050  -14.2376 O   0  0  0  0  0  0  0  0  0  0  0  0
   14.7936   -9.8447  -15.1525 C   0  0  0  0  0  0  0  0  0  0  0  0
   15.7973   -9.6115  -16.2347 C   0  0  2  0  0  0  0  0  0  0  0  0
   16.8132  -10.6697  -16.0524 N   0  0  0  0  0  0  0  0  0  0  0  0
   16.4805   -8.2887  -16.1616 C   0  0  0  0  0  0  0  0  0  0  0  0
   15.7823   -7.2614  -16.3050 O   0  0  0  0  0  0  0  0  0  0  0  0
   17.8717   -8.1676  -15.9386 N   0  0  0  0  0  0  0  0  0  0  0  0
   18.4956   -6.8457  -16.1594 C   0  0  1  0  0  0  0  0  0  0  0  0
   18.2732   -6.4861  -17.6016 C   0  0  0  0  0  0  0  0  0  0  0  0
   18.7646   -5.1779  -18.0029 C   0  0  0  0  0  0  0  0  0  0  0  0
   19.7259   -4.5599  -17.5427 O   0  0  0  0  0  0  0  0  0  0  0  0
   17.8063   -5.8606  -15.2531 C   0  0  0  0  0  0  0  0  0  0  0  0
   18.0133   -4.5102  -15.3664 O   0  0  0  0  0  0  0  0  0  0  0  0
   18.0672   -4.5236  -19.0445 O   0  0  0  0  0  0  0  0  0  0  0  0
   17.0142   -6.2578  -14.3580 O   0  0  0  0  0  0  0  0  0  0  0  0
  2  1  1  6
  3  2  1  0
  4  5  1  0
  4  2  1  0
  5  6  1  1
  7  5  1  0
  7  8  2  0
 10  9  1  0
 10 12  1  0
 11 10  2  0
 13 12  1  1
 13 14  1  0
 14  7  1  0
 15 16  2  0
 15 13  1  0
 17 15  1  0
 18 17  1  0
 18 19  1  6
 20 19  1  0
 20 21  2  0
 22 18  1  0
 23 22  1  0
 24 20  1  0
 25 22  2  0
M  END
$$$$
