HHP.pdb
     RDKit          3D

 28 30  0  0  1  0  0  0  0  0999 V2000
   13.1075  -15.6969   14.3910 N   0  0  0  0  0  0  0  0  0  0  0  0
   13.9635  -15.9552   15.5010 C   0  0  1  0  0  0  0  0  0  0  0  0
   14.8279  -14.7609   15.8284 C   0  0  0  0  0  0  0  0  0  0  0  0
   15.7865  -14.4733   14.7165 C   0  0  0  0  0  0  0  0  0  0  0  0
   16.9974  -15.0572   14.5042 C   0  0  0  0  0  0  0  0  0  0  0  0
   17.5451  -14.5199   13.4008 N   0  0  0  0  0  0  0  0  0  0  0  0
   16.6895  -13.6032   12.9172 C   0  0  0  0  0  0  0  0  0  0  0  0
   15.6118  -13.5807   13.7310 N   0  0  0  0  0  0  0  0  0  0  0  0
   13.2520  -16.3817   16.7181 C   0  0  0  0  0  0  0  0  0  0  0  0
   12.2657  -15.7751   17.2026 O   0  0  0  0  0  0  0  0  0  0  0  0
   13.7100  -17.5494   17.3826 N   0  0  0  0  0  0  0  0  0  0  0  0
   13.1416  -18.0178   18.6444 C   0  0  1  0  0  0  0  0  0  0  0  0
   13.5452  -19.4951   18.8268 C   0  0  0  0  0  0  0  0  0  0  0  0
   13.0471  -20.0024   20.1291 C   0  0  0  0  0  0  0  0  0  0  0  0
   13.8145  -20.2117   21.2552 C   0  0  0  0  0  0  0  0  0  0  0  0
   13.0071  -20.6804   22.2471 N   0  0  0  0  0  0  0  0  0  0  0  0
   11.7484  -20.7634   21.7470 C   0  0  0  0  0  0  0  0  0  0  0  0
   11.7942  -20.3520   20.4749 N   0  0  0  0  0  0  0  0  0  0  0  0
   13.5504  -17.2066   19.7792 C   0  0  0  0  0  0  0  0  0  0  0  0
   14.6869  -16.6693   19.7489 O   0  0  0  0  0  0  0  0  0  0  0  0
   12.7166  -17.0096   20.8938 N   0  0  0  0  0  0  0  0  0  0  0  0
   11.3516  -17.5624   20.9872 C   0  0  0  0  0  0  0  0  0  0  0  0
   10.5971  -16.7039   21.9468 C   0  0  0  0  0  0  0  0  0  0  0  0
   11.5562  -15.5252   22.1621 C   0  0  0  0  0  0  0  0  0  0  0  0
   12.8841  -16.2949   22.1211 C   0  0  1  0  0  0  0  0  0  0  0  0
   12.8539  -17.2043   23.3095 C   0  0  0  0  0  0  0  0  0  0  0  0
   12.4362  -18.3728   23.0976 O   0  0  0  0  0  0  0  0  0  0  0  0
   13.2478  -16.8300   24.5710 O   0  0  0  0  0  0  0  0  0  0  0  0
  2  3  1  0
  2  1  1  6
  3  4  1  0
  4  5  2  0
  4  8  1  0
  5  6  1  0
  6  7  1  0
  8  7  2  0
  9 11  1  0
  9  2  1  0
 10  9  2  0
 12 19  1  0
 12 11  1  0
 12 13  1  1
 14 13  1  0
 15 14  2  0
 16 17  1  0
 16 15  1  0
 17 18  2  0
 18 14  1  0
 19 21  1  0
 20 19  2  0
 21 25  1  0
 21 22  1  0
 22 23  1  0
 24 23  1  0
 25 24  1  0
 25 26  1  1
 26 27  2  0
 26 28  1  0
M  END
$$$$
