HHP.pdb
     RDKit          3D

 28 30  0  0  1  0  0  0  0  0999 V2000
    7.9052  -16.4469   19.2072 N   0  0  0  0  0  0  0  0  0  0  0  0
    8.2296  -15.3128   20.0073 C   0  0  1  0  0  0  0  0  0  0  0  0
    7.9196  -14.0191   19.2924 C   0  0  0  0  0  0  0  0  0  0  0  0
    8.5141  -14.0106   17.9197 C   0  0  0  0  0  0  0  0  0  0  0  0
    9.2692  -14.9866   17.3455 C   0  0  0  0  0  0  0  0  0  0  0  0
    9.6077  -14.5933   16.1057 N   0  0  0  0  0  0  0  0  0  0  0  0
    9.0724  -13.3787   15.8950 C   0  0  0  0  0  0  0  0  0  0  0  0
    8.4023  -13.0279   17.0140 N   0  0  0  0  0  0  0  0  0  0  0  0
    7.5720  -15.3032   21.3252 C   0  0  0  0  0  0  0  0  0  0  0  0
    6.3978  -14.9047   21.5200 O   0  0  0  0  0  0  0  0  0  0  0  0
    8.3115  -15.7731   22.4420 N   0  0  0  0  0  0  0  0  0  0  0  0
    7.7695  -15.7966   23.7985 C   0  0  1  0  0  0  0  0  0  0  0  0
    7.4534  -17.2629   24.1573 C   0  0  0  0  0  0  0  0  0  0  0  0
    6.3527  -17.7710   23.3019 C   0  0  0  0  0  0  0  0  0  0  0  0
    6.5086  -18.4300   22.1009 C   0  0  0  0  0  0  0  0  0  0  0  0
    5.2744  -18.7381   21.6140 N   0  0  0  0  0  0  0  0  0  0  0  0
    4.3565  -18.2770   22.5005 C   0  0  0  0  0  0  0  0  0  0  0  0
    5.0242  -17.7001   23.5060 N   0  0  0  0  0  0  0  0  0  0  0  0
    8.6629  -15.1878   24.7702 C   0  0  0  0  0  0  0  0  0  0  0  0
    9.8882  -15.1241   24.4949 O   0  0  0  0  0  0  0  0  0  0  0  0
    8.1961  -14.6739   25.9926 N   0  0  0  0  0  0  0  0  0  0  0  0
    6.7918  -14.7877   26.4314 C   0  0  0  0  0  0  0  0  0  0  0  0
    6.5450  -13.6785   27.3989 C   0  0  0  0  0  0  0  0  0  0  0  0
    7.8137  -12.8263   27.2571 C   0  0  0  0  0  0  0  0  0  0  0  0
    8.8323  -13.9571   27.0541 C   0  0  1  0  0  0  0  0  0  0  0  0
    8.8290  -14.7306   28.3354 C   0  0  0  0  0  0  0  0  0  0  0  0
    8.0945  -15.7527   28.3592 O   0  0  0  0  0  0  0  0  0  0  0  0
    9.5654  -14.3837   29.4419 O   0  0  0  0  0  0  0  0  0  0  0  0
  2  3  1  0
  2  1  1  6
  3  4  1  0
  4  5  2  0
  4  8  1  0
  5  6  1  0
  6  7  1  0
  8  7  2  0
  9 11  1  0
  9  2  1  0
 10  9  2  0
 12 19  1  0
 12 11  1  0
 12 13  1  1
 14 13  1  0
 15 14  2  0
 16 17  1  0
 16 15  1  0
 17 18  2  0
 18 14  1  0
 19 21  1  0
 20 19  2  0
 21 25  1  0
 21 22  1  0
 22 23  1  0
 24 23  1  0
 25 24  1  0
 25 26  1  1
 26 27  2  0
 26 28  1  0
M  END
$$$$
