HHP.pdb
     RDKit          3D

 28 30  0  0  1  0  0  0  0  0999 V2000
    8.6581  -18.1013   19.9893 N   0  0  0  0  0  0  0  0  0  0  0  0
    8.6354  -16.6959   20.2262 C   0  0  1  0  0  0  0  0  0  0  0  0
    8.1363  -15.9352   19.0208 C   0  0  0  0  0  0  0  0  0  0  0  0
    9.1048  -16.0372   17.8852 C   0  0  0  0  0  0  0  0  0  0  0  0
   10.3265  -16.6370   17.8988 C   0  0  0  0  0  0  0  0  0  0  0  0
   10.8805  -16.5093   16.6810 N   0  0  0  0  0  0  0  0  0  0  0  0
   10.0182  -15.8347   15.9015 C   0  0  0  0  0  0  0  0  0  0  0  0
    8.9301  -15.5484   16.6487 N   0  0  0  0  0  0  0  0  0  0  0  0
    7.8450  -16.3011   21.4047 C   0  0  0  0  0  0  0  0  0  0  0  0
    6.7135  -15.7613   21.3414 O   0  0  0  0  0  0  0  0  0  0  0  0
    8.3968  -16.5462   22.6893 N   0  0  0  0  0  0  0  0  0  0  0  0
    7.7673  -16.0836   23.9239 C   0  0  1  0  0  0  0  0  0  0  0  0
    7.3936  -17.3249   24.7595 C   0  0  0  0  0  0  0  0  0  0  0  0
    6.4680  -18.1953   23.9932 C   0  0  0  0  0  0  0  0  0  0  0  0
    5.1762  -17.8737   23.6345 C   0  0  0  0  0  0  0  0  0  0  0  0
    4.6466  -18.9207   22.9426 N   0  0  0  0  0  0  0  0  0  0  0  0
    5.5967  -19.8866   22.8691 C   0  0  0  0  0  0  0  0  0  0  0  0
    6.6817  -19.4314   23.5056 N   0  0  0  0  0  0  0  0  0  0  0  0
    8.6098  -15.1667   24.6739 C   0  0  0  0  0  0  0  0  0  0  0  0
    9.8177  -15.0602   24.3413 O   0  0  0  0  0  0  0  0  0  0  0  0
    8.1129  -14.4052   25.7460 N   0  0  0  0  0  0  0  0  0  0  0  0
    6.6942  -14.4139   26.1519 C   0  0  0  0  0  0  0  0  0  0  0  0
    6.4337  -13.1251   26.8579 C   0  0  0  0  0  0  0  0  0  0  0  0
    7.7184  -12.3313   26.5839 C   0  0  0  0  0  0  0  0  0  0  0  0
    8.7263  -13.4874   26.6553 C   0  0  1  0  0  0  0  0  0  0  0  0
    8.6720  -13.9761   28.0689 C   0  0  0  0  0  0  0  0  0  0  0  0
    7.8926  -14.9400   28.2882 O   0  0  0  0  0  0  0  0  0  0  0  0
    9.4087  -13.4365   29.0950 O   0  0  0  0  0  0  0  0  0  0  0  0
  2  3  1  0
  2  1  1  6
  3  4  1  0
  4  5  2  0
  4  8  1  0
  5  6  1  0
  6  7  1  0
  8  7  2  0
  9 11  1  0
  9  2  1  0
 10  9  2  0
 12 19  1  0
 12 11  1  0
 12 13  1  1
 14 13  1  0
 15 14  2  0
 16 17  1  0
 16 15  1  0
 17 18  2  0
 18 14  1  0
 19 21  1  0
 20 19  2  0
 21 25  1  0
 21 22  1  0
 22 23  1  0
 24 23  1  0
 25 24  1  0
 25 26  1  1
 26 27  2  0
 26 28  1  0
M  END
$$$$
