HHP.pdb
     RDKit          3D

 28 30  0  0  1  0  0  0  0  0999 V2000
   10.2813  -17.9212   20.5495 N   0  0  0  0  0  0  0  0  0  0  0  0
   11.3703  -17.1371   21.0301 C   0  0  1  0  0  0  0  0  0  0  0  0
   12.1716  -16.5418   19.8968 C   0  0  0  0  0  0  0  0  0  0  0  0
   12.6490  -17.6073   18.9616 C   0  0  0  0  0  0  0  0  0  0  0  0
   12.4998  -18.9526   19.1042 C   0  0  0  0  0  0  0  0  0  0  0  0
   13.0690  -19.5613   18.0499 N   0  0  0  0  0  0  0  0  0  0  0  0
   13.5750  -18.6110   17.2455 C   0  0  0  0  0  0  0  0  0  0  0  0
   13.3129  -17.4136   17.8126 N   0  0  0  0  0  0  0  0  0  0  0  0
   10.9707  -16.0612   21.9533 C   0  0  0  0  0  0  0  0  0  0  0  0
   11.7649  -15.2120   22.4260 O   0  0  0  0  0  0  0  0  0  0  0  0
    9.6047  -15.9807   22.3307 N   0  0  0  0  0  0  0  0  0  0  0  0
    9.1372  -15.1586   23.4443 C   0  0  1  0  0  0  0  0  0  0  0  0
    7.6685  -14.7773   23.1683 C   0  0  0  0  0  0  0  0  0  0  0  0
    7.5162  -14.3177   21.7658 C   0  0  0  0  0  0  0  0  0  0  0  0
    7.7914  -13.0485   21.3029 C   0  0  0  0  0  0  0  0  0  0  0  0
    7.5297  -13.0098   19.9668 N   0  0  0  0  0  0  0  0  0  0  0  0
    7.0955  -14.2412   19.5977 C   0  0  0  0  0  0  0  0  0  0  0  0
    7.0948  -15.0110   20.6919 N   0  0  0  0  0  0  0  0  0  0  0  0
    9.2867  -15.8191   24.7306 C   0  0  0  0  0  0  0  0  0  0  0  0
    9.5870  -17.0401   24.7419 O   0  0  0  0  0  0  0  0  0  0  0  0
    9.1078  -15.1346   25.9454 N   0  0  0  0  0  0  0  0  0  0  0  0
    8.1046  -14.0682   26.1298 C   0  0  0  0  0  0  0  0  0  0  0  0
    8.5810  -13.2097   27.2537 C   0  0  0  0  0  0  0  0  0  0  0  0
   10.0065  -13.7288   27.4864 C   0  0  0  0  0  0  0  0  0  0  0  0
    9.7585  -15.2197   27.2161 C   0  0  1  0  0  0  0  0  0  0  0  0
    8.8253  -15.6703   28.2960 C   0  0  0  0  0  0  0  0  0  0  0  0
    7.6071  -15.7241   27.9834 O   0  0  0  0  0  0  0  0  0  0  0  0
    9.2288  -16.0133   29.5635 O   0  0  0  0  0  0  0  0  0  0  0  0
  2  3  1  0
  2  1  1  6
  3  4  1  0
  4  5  2  0
  4  8  1  0
  5  6  1  0
  6  7  1  0
  8  7  2  0
  9 11  1  0
  9  2  1  0
 10  9  2  0
 12 19  1  0
 12 11  1  0
 12 13  1  6
 14 13  1  0
 15 14  2  0
 16 17  1  0
 16 15  1  0
 17 18  2  0
 18 14  1  0
 19 21  1  0
 20 19  2  0
 21 25  1  0
 21 22  1  0
 22 23  1  0
 24 23  1  0
 25 24  1  0
 25 26  1  1
 26 27  2  0
 26 28  1  0
M  END
$$$$
