HHP.pdb
     RDKit          3D

 28 30  0  0  1  0  0  0  0  0999 V2000
   10.7500  -17.0324   19.6789 N   0  0  0  0  0  0  0  0  0  0  0  0
   10.8081  -17.1431   21.0988 C   0  0  1  0  0  0  0  0  0  0  0  0
   12.2310  -17.1047   21.6033 C   0  0  0  0  0  0  0  0  0  0  0  0
   13.0369  -18.2204   21.0170 C   0  0  0  0  0  0  0  0  0  0  0  0
   13.4427  -19.3582   21.6440 C   0  0  0  0  0  0  0  0  0  0  0  0
   14.1443  -20.1017   20.7715 N   0  0  0  0  0  0  0  0  0  0  0  0
   14.1833  -19.4418   19.6014 C   0  0  0  0  0  0  0  0  0  0  0  0
   13.5008  -18.2872   19.7605 N   0  0  0  0  0  0  0  0  0  0  0  0
   10.0180  -16.1240   21.8107 C   0  0  0  0  0  0  0  0  0  0  0  0
   10.2348  -14.8900   21.7355 O   0  0  0  0  0  0  0  0  0  0  0  0
    8.9470  -16.5650   22.6312 N   0  0  0  0  0  0  0  0  0  0  0  0
    8.1424  -15.6540   23.4418 C   0  0  1  0  0  0  0  0  0  0  0  0
    6.8168  -16.3658   23.7806 C   0  0  0  0  0  0  0  0  0  0  0  0
    6.1607  -16.8398   22.5371 C   0  0  0  0  0  0  0  0  0  0  0  0
    5.6943  -16.0354   21.5191 C   0  0  0  0  0  0  0  0  0  0  0  0
    5.1581  -16.8303   20.5517 N   0  0  0  0  0  0  0  0  0  0  0  0
    5.2875  -18.1178   20.9600 C   0  0  0  0  0  0  0  0  0  0  0  0
    5.8915  -18.1015   22.1535 N   0  0  0  0  0  0  0  0  0  0  0  0
    8.8341  -15.2104   24.6410 C   0  0  0  0  0  0  0  0  0  0  0  0
   10.0447  -15.5206   24.7796 O   0  0  0  0  0  0  0  0  0  0  0  0
    8.1914  -14.4519   25.6349 N   0  0  0  0  0  0  0  0  0  0  0  0
    6.7367  -14.2042   25.6456 C   0  0  0  0  0  0  0  0  0  0  0  0
    6.5126  -12.9500   26.4227 C   0  0  0  0  0  0  0  0  0  0  0  0
    7.9392  -12.4147   26.6070 C   0  0  0  0  0  0  0  0  0  0  0  0
    8.6688  -13.7535   26.7880 C   0  0  1  0  0  0  0  0  0  0  0  0
    8.1294  -14.3322   28.0585 C   0  0  0  0  0  0  0  0  0  0  0  0
    7.1494  -15.1125   27.9352 O   0  0  0  0  0  0  0  0  0  0  0  0
    8.6404  -14.0569   29.3035 O   0  0  0  0  0  0  0  0  0  0  0  0
  2  3  1  0
  2  1  1  6
  3  4  1  0
  4  5  2  0
  4  8  1  0
  5  6  1  0
  6  7  1  0
  8  7  2  0
  9 11  1  0
  9  2  1  0
 10  9  2  0
 12 19  1  0
 12 11  1  0
 12 13  1  1
 14 13  1  0
 15 14  2  0
 16 17  1  0
 16 15  1  0
 17 18  2  0
 18 14  1  0
 19 21  1  0
 20 19  2  0
 21 25  1  0
 21 22  1  0
 22 23  1  0
 24 23  1  0
 25 24  1  0
 25 26  1  1
 26 27  2  0
 26 28  1  0
M  END
$$$$
