HHP.pdb
     RDKit          3D

 28 30  0  0  1  0  0  0  0  0999 V2000
   10.2850  -14.9055   18.6136 N   0  0  0  0  0  0  0  0  0  0  0  0
   10.6362  -14.7883   19.9900 C   0  0  1  0  0  0  0  0  0  0  0  0
   11.7142  -13.7525   20.2042 C   0  0  0  0  0  0  0  0  0  0  0  0
   13.0655  -14.3150   19.8951 C   0  0  0  0  0  0  0  0  0  0  0  0
   13.3516  -15.5708   19.4553 C   0  0  0  0  0  0  0  0  0  0  0  0
   14.6822  -15.6777   19.2990 N   0  0  0  0  0  0  0  0  0  0  0  0
   15.2355  -14.5004   19.6366 C   0  0  0  0  0  0  0  0  0  0  0  0
   14.2358  -13.6688   20.0015 N   0  0  0  0  0  0  0  0  0  0  0  0
    9.4973  -14.4865   20.8740 C   0  0  0  0  0  0  0  0  0  0  0  0
    8.7142  -13.5205   20.7035 O   0  0  0  0  0  0  0  0  0  0  0  0
    9.2725  -15.3402   21.9855 N   0  0  0  0  0  0  0  0  0  0  0  0
    8.3509  -15.0052   23.0686 C   0  0  1  0  0  0  0  0  0  0  0  0
    7.3868  -16.1944   23.2556 C   0  0  0  0  0  0  0  0  0  0  0  0
    6.7949  -16.5807   21.9510 C   0  0  0  0  0  0  0  0  0  0  0  0
    5.7938  -15.9002   21.2912 C   0  0  0  0  0  0  0  0  0  0  0  0
    5.5175  -16.5571   20.1304 N   0  0  0  0  0  0  0  0  0  0  0  0
    6.3368  -17.6367   20.0647 C   0  0  0  0  0  0  0  0  0  0  0  0
    7.0952  -17.6325   21.1668 N   0  0  0  0  0  0  0  0  0  0  0  0
    9.0370  -14.6719   24.3060 C   0  0  0  0  0  0  0  0  0  0  0  0
   10.2837  -14.8278   24.3566 O   0  0  0  0  0  0  0  0  0  0  0  0
    8.3500  -14.1844   25.4315 N   0  0  0  0  0  0  0  0  0  0  0  0
    6.9005  -13.9077   25.4338 C   0  0  0  0  0  0  0  0  0  0  0  0
    6.6502  -12.8969   26.5029 C   0  0  0  0  0  0  0  0  0  0  0  0
    8.0714  -12.4693   26.8942 C   0  0  0  0  0  0  0  0  0  0  0  0
    8.7713  -13.8284   26.7509 C   0  0  1  0  0  0  0  0  0  0  0  0
    8.1537  -14.7062   27.7940 C   0  0  0  0  0  0  0  0  0  0  0  0
    7.1622  -15.3874   27.4231 O   0  0  0  0  0  0  0  0  0  0  0  0
    8.6070  -14.7944   29.0877 O   0  0  0  0  0  0  0  0  0  0  0  0
  2  3  1  0
  2  1  1  6
  3  4  1  0
  4  5  2  0
  4  8  1  0
  5  6  1  0
  6  7  1  0
  8  7  2  0
  9 11  1  0
  9  2  1  0
 10  9  2  0
 12 19  1  0
 12 11  1  0
 12 13  1  1
 14 13  1  0
 15 14  2  0
 16 17  1  0
 16 15  1  0
 17 18  2  0
 18 14  1  0
 19 21  1  0
 20 19  2  0
 21 25  1  0
 21 22  1  0
 22 23  1  0
 24 23  1  0
 25 24  1  0
 25 26  1  1
 26 27  2  0
 26 28  1  0
M  END
$$$$
