MDT.pdb
     RDKit          3D

 24 23  0  0  1  0  0  0  0  0999 V2000
    7.7278  -11.6319   20.5513 C   0  0  0  0  0  0  0  0  0  0  0  0
    7.8796  -12.5285   18.9817 S   0  0  0  0  0  0  0  0  0  0  0  0
    7.0971  -14.1618   19.0852 C   0  0  0  0  0  0  0  0  0  0  0  0
    7.6237  -14.9257   20.2988 C   0  0  0  0  0  0  0  0  0  0  0  0
    8.2614  -16.1795   19.8013 C   0  0  2  0  0  0  0  0  0  0  0  0
    7.2555  -17.0300   19.2242 N   0  0  0  0  0  0  0  0  0  0  0  0
    9.0964  -16.8700   20.7996 C   0  0  0  0  0  0  0  0  0  0  0  0
    8.5379  -17.6767   21.6039 O   0  0  0  0  0  0  0  0  0  0  0  0
   10.4837  -16.7107   20.9419 N   0  0  0  0  0  0  0  0  0  0  0  0
   11.2963  -17.3466   21.9838 C   0  0  1  0  0  0  0  0  0  0  0  0
   12.7209  -17.0084   21.5835 C   0  0  0  0  0  0  0  0  0  0  0  0
   13.2136  -17.7606   20.4253 C   0  0  0  0  0  0  0  0  0  0  0  0
   14.1319  -17.2502   19.7270 O   0  0  0  0  0  0  0  0  0  0  0  0
   10.9705  -16.7864   23.3056 C   0  0  0  0  0  0  0  0  0  0  0  0
   11.5323  -15.7075   23.6357 O   0  0  0  0  0  0  0  0  0  0  0  0
   12.6916  -18.9869   20.1096 O   0  0  0  0  0  0  0  0  0  0  0  0
    8.3158  -14.8941   24.7399 C   0  0  0  0  0  0  0  0  0  0  0  0
    8.5114  -16.0911   25.6436 C   0  0  1  0  0  0  0  0  0  0  0  0
    7.5973  -17.0677   25.2267 O   0  0  0  0  0  0  0  0  0  0  0  0
    9.8845  -16.6943   25.5009 C   0  0  2  0  0  0  0  0  0  0  0  0
   10.0767  -17.3582   24.2342 N   0  0  0  0  0  0  0  0  0  0  0  0
   10.0244  -17.7003   26.5789 C   0  0  0  0  0  0  0  0  0  0  0  0
   10.1451  -18.9133   26.3276 O   0  0  0  0  0  0  0  0  0  0  0  0
   10.0247  -17.3116   27.9232 O   0  0  0  0  0  0  0  0  0  0  0  0
  1  2  1  0
  2  3  1  0
  4  5  1  0
  4  3  1  0
  5  7  1  0
  5  6  1  1
  7  8  2  0
  9  7  1  0
  9 10  1  0
 10 11  1  6
 12 11  1  0
 13 12  2  0
 14 10  1  0
 14 15  2  0
 16 12  1  0
 18 17  1  6
 18 20  1  0
 19 18  1  0
 20 21  1  6
 20 22  1  0
 21 14  1  0
 22 24  1  0
 23 22  2  0
M  END
$$$$
