MDT.pdb
     RDKit          3D

 24 23  0  0  1  0  0  0  0  0999 V2000
    8.2455  -11.5742   21.3460 C   0  0  0  0  0  0  0  0  0  0  0  0
    7.5772  -12.4056   19.8788 S   0  0  0  0  0  0  0  0  0  0  0  0
    7.9841  -14.1734   19.8888 C   0  0  0  0  0  0  0  0  0  0  0  0
    7.4315  -14.8372   21.1487 C   0  0  0  0  0  0  0  0  0  0  0  0
    7.9037  -16.2526   21.1577 C   0  0  2  0  0  0  0  0  0  0  0  0
    6.8423  -17.1125   20.7078 N   0  0  0  0  0  0  0  0  0  0  0  0
    8.4926  -16.6851   22.4370 C   0  0  0  0  0  0  0  0  0  0  0  0
    7.7482  -17.2732   23.2793 O   0  0  0  0  0  0  0  0  0  0  0  0
    9.8321  -16.5000   22.8135 N   0  0  0  0  0  0  0  0  0  0  0  0
   10.4081  -16.9267   24.0927 C   0  0  1  0  0  0  0  0  0  0  0  0
   11.8068  -17.3845   23.7209 C   0  0  0  0  0  0  0  0  0  0  0  0
   12.5982  -17.8760   24.8532 C   0  0  0  0  0  0  0  0  0  0  0  0
   11.9907  -18.4146   25.8188 O   0  0  0  0  0  0  0  0  0  0  0  0
   10.4539  -15.7999   25.0390 C   0  0  0  0  0  0  0  0  0  0  0  0
   11.1727  -14.8109   24.7331 O   0  0  0  0  0  0  0  0  0  0  0  0
   13.9624  -17.7550   24.8627 O   0  0  0  0  0  0  0  0  0  0  0  0
    8.3173  -13.0104   26.0851 C   0  0  0  0  0  0  0  0  0  0  0  0
    8.7170  -13.7774   27.3258 C   0  0  1  0  0  0  0  0  0  0  0  0
    7.6848  -14.6874   27.5903 O   0  0  0  0  0  0  0  0  0  0  0  0
    9.9675  -14.5907   27.1147 C   0  0  2  0  0  0  0  0  0  0  0  0
    9.7549  -15.7352   26.2620 N   0  0  0  0  0  0  0  0  0  0  0  0
   10.3923  -15.0767   28.4478 C   0  0  0  0  0  0  0  0  0  0  0  0
   10.4723  -16.2921   28.7040 O   0  0  0  0  0  0  0  0  0  0  0  0
   10.7188  -14.1745   29.4664 O   0  0  0  0  0  0  0  0  0  0  0  0
  1  2  1  0
  2  3  1  0
  4  5  1  0
  4  3  1  0
  5  7  1  0
  5  6  1  1
  7  8  2  0
  9  7  1  0
  9 10  1  0
 10 11  1  6
 12 11  1  0
 13 12  2  0
 14 10  1  0
 14 15  2  0
 16 12  1  0
 18 17  1  6
 18 20  1  0
 19 18  1  0
 20 21  1  6
 20 22  1  0
 21 14  1  0
 22 24  1  0
 23 22  2  0
M  END
$$$$
