MDT.pdb
     RDKit          3D

 24 23  0  0  1  0  0  0  0  0999 V2000
    8.5809  -10.9728   19.5447 C   0  0  0  0  0  0  0  0  0  0  0  0
    7.5839  -12.4082   20.0302 S   0  0  0  0  0  0  0  0  0  0  0  0
    8.3551  -13.9547   19.4786 C   0  0  0  0  0  0  0  0  0  0  0  0
    7.5463  -15.1544   19.9684 C   0  0  0  0  0  0  0  0  0  0  0  0
    8.2737  -16.3893   19.5535 C   0  0  2  0  0  0  0  0  0  0  0  0
    7.3986  -17.2174   18.7682 N   0  0  0  0  0  0  0  0  0  0  0  0
    8.9121  -17.1166   20.6644 C   0  0  0  0  0  0  0  0  0  0  0  0
    8.2367  -17.9956   21.2814 O   0  0  0  0  0  0  0  0  0  0  0  0
   10.2286  -16.9186   21.1090 N   0  0  0  0  0  0  0  0  0  0  0  0
   10.8386  -17.6078   22.2506 C   0  0  1  0  0  0  0  0  0  0  0  0
   12.3287  -17.4307   22.0216 C   0  0  0  0  0  0  0  0  0  0  0  0
   13.1729  -18.1334   22.9929 C   0  0  0  0  0  0  0  0  0  0  0  0
   12.6103  -18.8369   23.8761 O   0  0  0  0  0  0  0  0  0  0  0  0
   10.4193  -16.9816   23.5152 C   0  0  0  0  0  0  0  0  0  0  0  0
   10.8964  -15.8480   23.7904 O   0  0  0  0  0  0  0  0  0  0  0  0
   14.5377  -18.0303   22.9428 O   0  0  0  0  0  0  0  0  0  0  0  0
    7.3804  -15.3351   24.7503 C   0  0  0  0  0  0  0  0  0  0  0  0
    7.7537  -16.4244   25.7311 C   0  0  1  0  0  0  0  0  0  0  0  0
    7.0214  -17.5633   25.3704 O   0  0  0  0  0  0  0  0  0  0  0  0
    9.2099  -16.7991   25.6392 C   0  0  2  0  0  0  0  0  0  0  0  0
    9.5226  -17.5467   24.4452 N   0  0  0  0  0  0  0  0  0  0  0  0
    9.5074  -17.6522   26.8129 C   0  0  0  0  0  0  0  0  0  0  0  0
    9.9280  -18.8164   26.6834 O   0  0  0  0  0  0  0  0  0  0  0  0
    9.3221  -17.1686   28.1129 O   0  0  0  0  0  0  0  0  0  0  0  0
  1  2  1  0
  2  3  1  0
  4  5  1  0
  4  3  1  0
  5  7  1  0
  5  6  1  1
  7  8  2  0
  9  7  1  0
  9 10  1  0
 10 11  1  6
 12 11  1  0
 13 12  2  0
 14 10  1  0
 14 15  2  0
 16 12  1  0
 18 17  1  6
 18 20  1  0
 19 18  1  0
 20 21  1  6
 20 22  1  0
 21 14  1  0
 22 24  1  0
 23 22  2  0
M  END
$$$$
