MDT.pdb
     RDKit          3D

 24 23  0  0  1  0  0  0  0  0999 V2000
    7.2640  -11.2630   26.4500 C   0  0  0  0  0  0  0  0  0  0  0  0
    5.7086  -12.1206   26.0813 S   0  0  0  0  0  0  0  0  0  0  0  0
    5.9585  -13.4203   24.8409 C   0  0  0  0  0  0  0  0  0  0  0  0
    7.1880  -14.2569   25.1902 C   0  0  0  0  0  0  0  0  0  0  0  0
    7.3042  -15.3376   24.1681 C   0  0  2  0  0  0  0  0  0  0  0  0
    6.0722  -16.0776   24.1139 N   0  0  0  0  0  0  0  0  0  0  0  0
    8.4875  -16.1999   24.3322 C   0  0  0  0  0  0  0  0  0  0  0  0
    8.3704  -17.2688   25.0054 O   0  0  0  0  0  0  0  0  0  0  0  0
    9.7588  -15.9374   23.7982 N   0  0  0  0  0  0  0  0  0  0  0  0
   10.9633  -16.7249   24.0799 C   0  0  1  0  0  0  0  0  0  0  0  0
   11.9524  -16.2554   23.0285 C   0  0  0  0  0  0  0  0  0  0  0  0
   13.1661  -17.0733   22.9386 C   0  0  0  0  0  0  0  0  0  0  0  0
   13.2717  -18.0731   23.7007 O   0  0  0  0  0  0  0  0  0  0  0  0
   11.4589  -16.4419   25.4369 C   0  0  0  0  0  0  0  0  0  0  0  0
   12.1963  -15.4311   25.5889 O   0  0  0  0  0  0  0  0  0  0  0  0
   14.1599  -16.7612   22.0493 O   0  0  0  0  0  0  0  0  0  0  0  0
   10.2942  -14.6007   27.8974 C   0  0  0  0  0  0  0  0  0  0  0  0
   10.5789  -15.9157   28.5882 C   0  0  1  0  0  0  0  0  0  0  0  0
    9.3934  -16.6615   28.5452 O   0  0  0  0  0  0  0  0  0  0  0  0
   11.6251  -16.7240   27.8659 C   0  0  2  0  0  0  0  0  0  0  0  0
   11.1729  -17.2096   26.5845 N   0  0  0  0  0  0  0  0  0  0  0  0
   11.9317  -17.8918   28.7238 C   0  0  0  0  0  0  0  0  0  0  0  0
   11.6310  -19.0499   28.3810 O   0  0  0  0  0  0  0  0  0  0  0  0
   12.5744  -17.7243   29.9555 O   0  0  0  0  0  0  0  0  0  0  0  0
  1  2  1  0
  2  3  1  0
  4  5  1  0
  4  3  1  0
  5  7  1  0
  5  6  1  1
  7  8  2  0
  9  7  1  0
  9 10  1  0
 10 11  1  6
 12 11  1  0
 13 12  2  0
 14 10  1  0
 14 15  2  0
 16 12  1  0
 18 17  1  6
 18 20  1  0
 19 18  1  0
 20 21  1  6
 20 22  1  0
 21 14  1  0
 22 24  1  0
 23 22  2  0
M  END
$$$$
