NVC.pdb
     RDKit          3D

 22 21  0  0  1  0  0  0  0  0999 V2000
   10.7144  -19.2302   14.9636 N   0  0  0  0  0  0  0  0  0  0  0  0
   10.2546  -17.9027   14.8044 C   0  0  0  0  0  0  0  0  0  0  0  0
    9.7512  -17.5715   13.6864 O   0  0  0  0  0  0  0  0  0  0  0  0
   10.3630  -16.9421   15.9212 C   0  0  0  0  0  0  0  0  0  0  0  0
    9.4112  -17.3237   17.0011 C   0  0  2  0  0  0  0  0  0  0  0  0
    8.0506  -17.1657   16.5630 N   0  0  0  0  0  0  0  0  0  0  0  0
    9.5774  -16.4867   18.2206 C   0  0  0  0  0  0  0  0  0  0  0  0
   10.7507  -16.4695   18.6872 O   0  0  0  0  0  0  0  0  0  0  0  0
    7.5667  -13.0140   19.1941 C   0  0  0  0  0  0  0  0  0  0  0  0
    7.6459  -14.0175   20.3076 C   0  0  2  0  0  0  0  0  0  0  0  0
    7.6722  -13.2632   21.5989 C   0  0  0  0  0  0  0  0  0  0  0  0
    8.7220  -14.9973   20.1012 C   0  0  2  0  0  0  0  0  0  0  0  0
    8.5634  -15.7540   18.8487 N   0  0  0  0  0  0  0  0  0  0  0  0
    9.1399  -15.8603   21.1903 C   0  0  0  0  0  0  0  0  0  0  0  0
    8.3818  -16.8532   21.4932 O   0  0  0  0  0  0  0  0  0  0  0  0
   10.2879  -15.7838   21.9979 N   0  0  0  0  0  0  0  0  0  0  0  0
   10.5471  -16.6892   23.1309 C   0  0  1  0  0  0  0  0  0  0  0  0
   11.9439  -17.2095   22.9012 C   0  0  0  0  0  0  0  0  0  0  0  0
   13.1815  -15.9103   22.7301 S   0  0  0  0  0  0  0  0  0  0  0  0
   10.4353  -16.0286   24.4230 C   0  0  0  0  0  0  0  0  0  0  0  0
   10.5348  -16.6801   25.4816 O   0  0  0  0  0  0  0  0  0  0  0  0
   10.2108  -14.6433   24.4633 O   0  0  0  0  0  0  0  0  0  0  0  0
  1  2  1  0
  2  3  2  0
  4  2  1  0
  5  4  1  0
  5  6  1  6
  7  8  2  0
  7  5  1  0
 10  9  1  6
 10 12  1  0
 11 10  1  0
 12 14  1  0
 12 13  1  6
 13  7  1  0
 14 16  1  0
 15 14  2  0
 16 17  1  0
 17 20  1  0
 18 19  1  0
 17 18  1  6
 20 21  2  0
 20 22  1  0
M  END
$$$$
