NVC.pdb
     RDKit          3D

 22 21  0  0  1  0  0  0  0  0999 V2000
    7.2406  -19.4503   15.5142 N   0  0  0  0  0  0  0  0  0  0  0  0
    8.2100  -19.3920   16.5419 C   0  0  0  0  0  0  0  0  0  0  0  0
    8.6222  -20.4846   17.0414 O   0  0  0  0  0  0  0  0  0  0  0  0
    8.7196  -18.0858   17.0064 C   0  0  0  0  0  0  0  0  0  0  0  0
    8.7063  -18.0464   18.4950 C   0  0  2  0  0  0  0  0  0  0  0  0
    7.3969  -18.3556   19.0032 N   0  0  0  0  0  0  0  0  0  0  0  0
    9.0759  -16.7062   19.0267 C   0  0  0  0  0  0  0  0  0  0  0  0
   10.3063  -16.4332   18.9473 O   0  0  0  0  0  0  0  0  0  0  0  0
    7.2227  -13.2171   18.5767 C   0  0  0  0  0  0  0  0  0  0  0  0
    7.5571  -13.4545   20.0207 C   0  0  2  0  0  0  0  0  0  0  0  0
    7.8509  -12.1269   20.6439 C   0  0  0  0  0  0  0  0  0  0  0  0
    8.5782  -14.4977   20.1935 C   0  0  2  0  0  0  0  0  0  0  0  0
    8.1869  -15.7772   19.5802 N   0  0  0  0  0  0  0  0  0  0  0  0
    9.1995  -14.7011   21.4890 C   0  0  0  0  0  0  0  0  0  0  0  0
    9.7774  -13.6946   22.0414 O   0  0  0  0  0  0  0  0  0  0  0  0
    9.2713  -15.8679   22.2696 N   0  0  0  0  0  0  0  0  0  0  0  0
    9.9480  -15.9316   23.5768 C   0  0  1  0  0  0  0  0  0  0  0  0
    8.8880  -16.4029   24.5407 C   0  0  0  0  0  0  0  0  0  0  0  0
    7.5031  -15.2614   24.7088 S   0  0  0  0  0  0  0  0  0  0  0  0
   11.0979  -16.8238   23.5784 C   0  0  0  0  0  0  0  0  0  0  0  0
   11.4150  -17.4551   22.5510 O   0  0  0  0  0  0  0  0  0  0  0  0
   11.8475  -16.9675   24.7568 O   0  0  0  0  0  0  0  0  0  0  0  0
  1  2  1  0
  2  3  2  0
  4  2  1  0
  5  4  1  0
  5  6  1  6
  7  8  2  0
  7  5  1  0
 10  9  1  6
 10 12  1  0
 11 10  1  0
 12 14  1  0
 12 13  1  1
 13  7  1  0
 14 16  1  0
 15 14  2  0
 16 17  1  0
 17 20  1  0
 18 19  1  0
 17 18  1  1
 20 21  2  0
 20 22  1  0
M  END
$$$$
