NVC.pdb
     RDKit          3D

 22 21  0  0  1  0  0  0  0  0999 V2000
    5.7705  -20.2380   22.0138 N   0  0  0  0  0  0  0  0  0  0  0  0
    5.3670  -19.0063   22.5787 C   0  0  0  0  0  0  0  0  0  0  0  0
    4.2040  -18.5737   22.3078 O   0  0  0  0  0  0  0  0  0  0  0  0
    6.2867  -18.2589   23.4603 C   0  0  0  0  0  0  0  0  0  0  0  0
    6.6475  -16.9634   22.8207 C   0  0  2  0  0  0  0  0  0  0  0  0
    7.4242  -17.1797   21.6298 N   0  0  0  0  0  0  0  0  0  0  0  0
    7.4584  -16.0975   23.7196 C   0  0  0  0  0  0  0  0  0  0  0  0
    8.6613  -16.4592   23.8489 O   0  0  0  0  0  0  0  0  0  0  0  0
    7.8979  -12.2392   26.8539 C   0  0  0  0  0  0  0  0  0  0  0  0
    7.0663  -13.0181   25.8767 C   0  0  2  0  0  0  0  0  0  0  0  0
    5.6754  -13.0938   26.4217 C   0  0  0  0  0  0  0  0  0  0  0  0
    7.6922  -14.2947   25.5034 C   0  0  2  0  0  0  0  0  0  0  0  0
    6.9918  -14.9635   24.3950 N   0  0  0  0  0  0  0  0  0  0  0  0
    8.0816  -15.2427   26.5307 C   0  0  0  0  0  0  0  0  0  0  0  0
    7.1497  -15.8972   27.1268 O   0  0  0  0  0  0  0  0  0  0  0  0
    9.3657  -15.5758   26.9953 N   0  0  0  0  0  0  0  0  0  0  0  0
    9.6207  -16.6211   28.0018 C   0  0  1  0  0  0  0  0  0  0  0  0
    9.2697  -17.9168   27.3143 C   0  0  0  0  0  0  0  0  0  0  0  0
    9.7692  -19.3836   28.2353 S   0  0  0  0  0  0  0  0  0  0  0  0
   10.9970  -16.6303   28.4753 C   0  0  0  0  0  0  0  0  0  0  0  0
   11.9240  -16.2281   27.7448 O   0  0  0  0  0  0  0  0  0  0  0  0
   11.2696  -17.1018   29.7693 O   0  0  0  0  0  0  0  0  0  0  0  0
  1  2  1  0
  2  3  2  0
  4  2  1  0
  5  4  1  0
  5  6  1  6
  7  8  2  0
  7  5  1  0
 10  9  1  1
 10 12  1  0
 11 10  1  0
 12 14  1  0
 12 13  1  6
 13  7  1  0
 14 16  1  0
 15 14  2  0
 16 17  1  0
 17 20  1  0
 18 19  1  0
 17 18  1  6
 20 21  2  0
 20 22  1  0
M  END
$$$$
