NVC.pdb
     RDKit          3D

 22 21  0  0  1  0  0  0  0  0999 V2000
    9.7501  -17.1207   13.4831 N   0  0  0  0  0  0  0  0  0  0  0  0
   10.3493  -17.5831   14.6774 C   0  0  0  0  0  0  0  0  0  0  0  0
   10.6900  -18.8048   14.7444 O   0  0  0  0  0  0  0  0  0  0  0  0
   10.5673  -16.6542   15.8048 C   0  0  0  0  0  0  0  0  0  0  0  0
    9.7786  -17.1074   16.9839 C   0  0  2  0  0  0  0  0  0  0  0  0
    8.3841  -17.2238   16.6522 N   0  0  0  0  0  0  0  0  0  0  0  0
    9.8780  -16.1591   18.1268 C   0  0  0  0  0  0  0  0  0  0  0  0
   11.0388  -16.0421   18.6099 O   0  0  0  0  0  0  0  0  0  0  0  0
    7.7966  -12.6853   18.8913 C   0  0  0  0  0  0  0  0  0  0  0  0
    7.7929  -13.6664   20.0274 C   0  0  2  0  0  0  0  0  0  0  0  0
    7.7265  -12.8864   21.3020 C   0  0  0  0  0  0  0  0  0  0  0  0
    8.8796  -14.6503   19.9194 C   0  0  2  0  0  0  0  0  0  0  0  0
    8.8165  -15.4257   18.6699 N   0  0  0  0  0  0  0  0  0  0  0  0
    9.2103  -15.4972   21.0504 C   0  0  0  0  0  0  0  0  0  0  0  0
    8.3990  -16.4503   21.3431 O   0  0  0  0  0  0  0  0  0  0  0  0
   10.3211  -15.4426   21.9100 N   0  0  0  0  0  0  0  0  0  0  0  0
   10.5700  -16.4235   22.9807 C   0  0  1  0  0  0  0  0  0  0  0  0
   10.8011  -17.7306   22.2646 C   0  0  0  0  0  0  0  0  0  0  0  0
   10.7302  -19.1710   23.3458 S   0  0  0  0  0  0  0  0  0  0  0  0
   11.7065  -16.0727   23.8196 C   0  0  0  0  0  0  0  0  0  0  0  0
   12.4805  -15.1522   23.4903 O   0  0  0  0  0  0  0  0  0  0  0  0
   11.9229  -16.7881   25.0081 O   0  0  0  0  0  0  0  0  0  0  0  0
  1  2  1  0
  2  3  2  0
  4  2  1  0
  5  4  1  0
  5  6  1  6
  7  8  2  0
  7  5  1  0
 10  9  1  6
 10 12  1  0
 11 10  1  0
 12 14  1  0
 12 13  1  6
 13  7  1  0
 14 16  1  0
 15 14  2  0
 16 17  1  0
 17 20  1  0
 18 19  1  0
 17 18  1  6
 20 21  2  0
 20 22  1  0
M  END
$$$$
