NVC.pdb
     RDKit          3D

 22 21  0  0  1  0  0  0  0  0999 V2000
    6.0717  -19.3321   16.2248 N   0  0  0  0  0  0  0  0  0  0  0  0
    6.6075  -19.9579   17.3739 C   0  0  0  0  0  0  0  0  0  0  0  0
    6.3126  -21.1747   17.5875 O   0  0  0  0  0  0  0  0  0  0  0  0
    7.4868  -19.2009   18.2878 C   0  0  0  0  0  0  0  0  0  0  0  0
    7.5057  -17.7667   17.8873 C   0  0  2  0  0  0  0  0  0  0  0  0
    8.2315  -17.5883   16.6586 N   0  0  0  0  0  0  0  0  0  0  0  0
    8.1591  -16.9046   18.9097 C   0  0  0  0  0  0  0  0  0  0  0  0
    9.3323  -17.2560   19.2177 O   0  0  0  0  0  0  0  0  0  0  0  0
    7.2909  -12.8887   19.6047 C   0  0  0  0  0  0  0  0  0  0  0  0
    7.4841  -13.7251   20.8361 C   0  0  2  0  0  0  0  0  0  0  0  0
    8.0457  -12.8405   21.9035 C   0  0  0  0  0  0  0  0  0  0  0  0
    8.2234  -14.9650   20.5590 C   0  0  2  0  0  0  0  0  0  0  0  0
    7.5814  -15.7841   19.5183 N   0  0  0  0  0  0  0  0  0  0  0  0
    8.7056  -15.7856   21.6544 C   0  0  0  0  0  0  0  0  0  0  0  0
    7.8334  -16.3115   22.4385 O   0  0  0  0  0  0  0  0  0  0  0  0
   10.0259  -16.1134   22.0082 N   0  0  0  0  0  0  0  0  0  0  0  0
   10.3814  -16.8405   23.2394 C   0  0  1  0  0  0  0  0  0  0  0  0
   10.6447  -18.2566   22.7923 C   0  0  0  0  0  0  0  0  0  0  0  0
   11.2975  -19.3177   24.0950 S   0  0  0  0  0  0  0  0  0  0  0  0
   11.5391  -16.2769   23.9179 C   0  0  0  0  0  0  0  0  0  0  0  0
   11.8531  -16.6572   25.0631 O   0  0  0  0  0  0  0  0  0  0  0  0
   12.2998  -15.2937   23.2654 O   0  0  0  0  0  0  0  0  0  0  0  0
  1  2  1  0
  2  3  2  0
  4  2  1  0
  5  4  1  0
  5  6  1  6
  7  8  2  0
  7  5  1  0
 10  9  1  6
 10 12  1  0
 11 10  1  0
 12 14  1  0
 12 13  1  6
 13  7  1  0
 14 16  1  0
 15 14  2  0
 16 17  1  0
 17 20  1  0
 18 19  1  0
 17 18  1  6
 20 21  2  0
 20 22  1  0
M  END
$$$$
