NVC.pdb
     RDKit          3D

 22 21  0  0  1  0  0  0  0  0999 V2000
    7.2384  -21.3309   17.2793 N   0  0  0  0  0  0  0  0  0  0  0  0
    7.1471  -19.9216   17.2111 C   0  0  0  0  0  0  0  0  0  0  0  0
    6.5025  -19.4077   16.2449 O   0  0  0  0  0  0  0  0  0  0  0  0
    7.7887  -19.0866   18.2469 C   0  0  0  0  0  0  0  0  0  0  0  0
    8.1549  -17.7654   17.6657 C   0  0  2  0  0  0  0  0  0  0  0  0
    9.1848  -17.9112   16.6726 N   0  0  0  0  0  0  0  0  0  0  0  0
    8.6704  -16.8207   18.6940 C   0  0  0  0  0  0  0  0  0  0  0  0
    9.9074  -16.9245   18.9262 O   0  0  0  0  0  0  0  0  0  0  0  0
    7.4806  -12.9485   19.4460 C   0  0  0  0  0  0  0  0  0  0  0  0
    7.5631  -13.8177   20.6670 C   0  0  2  0  0  0  0  0  0  0  0  0
    7.9202  -12.9419   21.8258 C   0  0  0  0  0  0  0  0  0  0  0  0
    8.4113  -14.9994   20.4553 C   0  0  2  0  0  0  0  0  0  0  0  0
    7.9059  -15.8719   19.3832 N   0  0  0  0  0  0  0  0  0  0  0  0
    8.8780  -15.7736   21.5904 C   0  0  0  0  0  0  0  0  0  0  0  0
    8.0400  -16.5621   22.1636 O   0  0  0  0  0  0  0  0  0  0  0  0
   10.1509  -15.8035   22.1860 N   0  0  0  0  0  0  0  0  0  0  0  0
   10.4553  -16.5531   23.4174 C   0  0  1  0  0  0  0  0  0  0  0  0
   11.9587  -16.6723   23.4383 C   0  0  0  0  0  0  0  0  0  0  0  0
   12.6049  -17.4183   24.9466 S   0  0  0  0  0  0  0  0  0  0  0  0
    9.9607  -15.8972   24.6188 C   0  0  0  0  0  0  0  0  0  0  0  0
    9.9586  -14.6536   24.7100 O   0  0  0  0  0  0  0  0  0  0  0  0
    9.4860  -16.6852   25.6794 O   0  0  0  0  0  0  0  0  0  0  0  0
  1  2  1  0
  2  3  2  0
  4  2  1  0
  5  4  1  0
  5  6  1  6
  7  8  2  0
  7  5  1  0
 10  9  1  6
 10 12  1  0
 11 10  1  0
 12 14  1  0
 12 13  1  6
 13  7  1  0
 14 16  1  0
 15 14  2  0
 16 17  1  0
 17 20  1  0
 18 19  1  0
 17 18  1  1
 20 21  2  0
 20 22  1  0
M  END
$$$$
