NVC.pdb
     RDKit          3D

 22 21  0  0  1  0  0  0  0  0999 V2000
    7.1637  -21.2309   17.1906 N   0  0  0  0  0  0  0  0  0  0  0  0
    6.8595  -19.8526   17.2739 C   0  0  0  0  0  0  0  0  0  0  0  0
    6.0181  -19.3727   16.4523 O   0  0  0  0  0  0  0  0  0  0  0  0
    7.5110  -19.0106   18.2977 C   0  0  0  0  0  0  0  0  0  0  0  0
    7.8458  -17.6831   17.7119 C   0  0  2  0  0  0  0  0  0  0  0  0
    8.8078  -17.8198   16.6516 N   0  0  0  0  0  0  0  0  0  0  0  0
    8.4326  -16.7553   18.7171 C   0  0  0  0  0  0  0  0  0  0  0  0
    9.6711  -16.9089   18.9103 O   0  0  0  0  0  0  0  0  0  0  0  0
    7.2859  -12.8955   19.5056 C   0  0  0  0  0  0  0  0  0  0  0  0
    7.4926  -13.7236   20.7403 C   0  0  2  0  0  0  0  0  0  0  0  0
    7.9800  -12.8133   21.8225 C   0  0  0  0  0  0  0  0  0  0  0  0
    8.3032  -14.9219   20.4802 C   0  0  2  0  0  0  0  0  0  0  0  0
    7.7303  -15.7722   19.4241 N   0  0  0  0  0  0  0  0  0  0  0  0
    8.8023  -15.7177   21.5861 C   0  0  0  0  0  0  0  0  0  0  0  0
    8.0896  -16.7130   21.9782 O   0  0  0  0  0  0  0  0  0  0  0  0
    9.9889  -15.5712   22.3254 N   0  0  0  0  0  0  0  0  0  0  0  0
   10.4995  -16.5937   23.2552 C   0  0  1  0  0  0  0  0  0  0  0  0
   10.6509  -17.8392   22.4183 C   0  0  0  0  0  0  0  0  0  0  0  0
   11.3908  -19.2225   23.3061 S   0  0  0  0  0  0  0  0  0  0  0  0
   11.7610  -16.2178   23.8760 C   0  0  0  0  0  0  0  0  0  0  0  0
   12.5763  -15.4928   23.2723 O   0  0  0  0  0  0  0  0  0  0  0  0
   12.0512  -16.6855   25.1676 O   0  0  0  0  0  0  0  0  0  0  0  0
  1  2  1  0
  2  3  2  0
  4  2  1  0
  5  4  1  0
  5  6  1  6
  7  8  2  0
  7  5  1  0
 10  9  1  6
 10 12  1  0
 11 10  1  0
 12 14  1  0
 12 13  1  6
 13  7  1  0
 14 16  1  0
 15 14  2  0
 16 17  1  0
 17 20  1  0
 18 19  1  0
 17 18  1  6
 20 21  2  0
 20 22  1  0
M  END
$$$$
