NVC.pdb
     RDKit          3D

 22 21  0  0  1  0  0  0  0  0999 V2000
    7.6607  -18.2429   19.8353 N   0  0  0  0  0  0  0  0  0  0  0  0
    8.5718  -18.7147   20.8082 C   0  0  0  0  0  0  0  0  0  0  0  0
    8.7883  -19.9646   20.8721 O   0  0  0  0  0  0  0  0  0  0  0  0
    9.2459  -17.7634   21.7150 C   0  0  0  0  0  0  0  0  0  0  0  0
    8.7031  -16.3944   21.4942 C   0  0  2  0  0  0  0  0  0  0  0  0
    9.3140  -15.7810   20.3458 N   0  0  0  0  0  0  0  0  0  0  0  0
    8.9524  -15.4954   22.6540 C   0  0  0  0  0  0  0  0  0  0  0  0
   10.1239  -15.0274   22.7106 O   0  0  0  0  0  0  0  0  0  0  0  0
    7.4759  -12.4710   26.2150 C   0  0  0  0  0  0  0  0  0  0  0  0
    7.1153  -13.6111   25.3076 C   0  0  2  0  0  0  0  0  0  0  0  0
    6.0680  -14.4272   25.9964 C   0  0  0  0  0  0  0  0  0  0  0  0
    8.2988  -14.3384   24.8267 C   0  0  2  0  0  0  0  0  0  0  0  0
    8.0140  -15.1541   23.6351 N   0  0  0  0  0  0  0  0  0  0  0  0
    9.1464  -15.0510   25.7644 C   0  0  0  0  0  0  0  0  0  0  0  0
    9.1243  -16.3359   25.7355 O   0  0  0  0  0  0  0  0  0  0  0  0
   10.0252  -14.5418   26.7361 N   0  0  0  0  0  0  0  0  0  0  0  0
   10.8848  -15.3903   27.5799 C   0  0  1  0  0  0  0  0  0  0  0  0
   11.3876  -14.4744   28.6676 C   0  0  0  0  0  0  0  0  0  0  0  0
   10.0971  -13.4633   29.4167 S   0  0  0  0  0  0  0  0  0  0  0  0
   10.1809  -16.5357   28.1373 C   0  0  0  0  0  0  0  0  0  0  0  0
   10.8010  -17.4273   28.7500 O   0  0  0  0  0  0  0  0  0  0  0  0
    8.7894  -16.6262   27.9739 O   0  0  0  0  0  0  0  0  0  0  0  0
  1  2  1  0
  2  3  2  0
  4  2  1  0
  5  4  1  0
  5  6  1  6
  7  8  2  0
  7  5  1  0
 10  9  1  1
 10 12  1  0
 11 10  1  0
 12 14  1  0
 12 13  1  6
 13  7  1  0
 14 16  1  0
 15 14  2  0
 16 17  1  0
 17 20  1  0
 18 19  1  0
 17 18  1  1
 20 21  2  0
 20 22  1  0
M  END
$$$$
