NVC.pdb
     RDKit          3D

 22 21  0  0  1  0  0  0  0  0999 V2000
   10.3974  -17.9526   14.3663 N   0  0  0  0  0  0  0  0  0  0  0  0
   10.6217  -18.5534   15.6265 C   0  0  0  0  0  0  0  0  0  0  0  0
   10.6067  -19.8213   15.6985 O   0  0  0  0  0  0  0  0  0  0  0  0
   10.8680  -17.7118   16.8151 C   0  0  0  0  0  0  0  0  0  0  0  0
    9.6385  -17.6619   17.6539 C   0  0  2  0  0  0  0  0  0  0  0  0
    8.4987  -17.2724   16.8681 N   0  0  0  0  0  0  0  0  0  0  0  0
    9.7560  -16.6824   18.7684 C   0  0  0  0  0  0  0  0  0  0  0  0
   10.9249  -16.5503   19.2275 O   0  0  0  0  0  0  0  0  0  0  0  0
    7.6444  -13.2184   19.2658 C   0  0  0  0  0  0  0  0  0  0  0  0
    7.7281  -14.0441   20.5166 C   0  0  2  0  0  0  0  0  0  0  0  0
    7.7362  -13.1059   21.6815 C   0  0  0  0  0  0  0  0  0  0  0  0
    8.8175  -15.0295   20.4637 C   0  0  2  0  0  0  0  0  0  0  0  0
    8.7026  -15.9362   19.3100 N   0  0  0  0  0  0  0  0  0  0  0  0
    9.2092  -15.7472   21.6625 C   0  0  0  0  0  0  0  0  0  0  0  0
    8.4575  -16.7132   22.0553 O   0  0  0  0  0  0  0  0  0  0  0  0
   10.3245  -15.5501   22.4949 N   0  0  0  0  0  0  0  0  0  0  0  0
   10.5436  -16.2901   23.7500 C   0  0  1  0  0  0  0  0  0  0  0  0
   12.0421  -16.4040   23.8776 C   0  0  0  0  0  0  0  0  0  0  0  0
   12.8392  -17.1261   22.4311 S   0  0  0  0  0  0  0  0  0  0  0  0
    9.9636  -15.6275   24.9088 C   0  0  0  0  0  0  0  0  0  0  0  0
    9.4267  -14.5075   24.7990 O   0  0  0  0  0  0  0  0  0  0  0  0
   10.0185  -16.2665   26.1578 O   0  0  0  0  0  0  0  0  0  0  0  0
  1  2  1  0
  2  3  2  0
  4  2  1  0
  5  4  1  0
  5  6  1  6
  7  8  2  0
  7  5  1  0
 10  9  1  6
 10 12  1  0
 11 10  1  0
 12 14  1  0
 12 13  1  6
 13  7  1  0
 14 16  1  0
 15 14  2  0
 16 17  1  0
 17 20  1  0
 18 19  1  0
 17 18  1  1
 20 21  2  0
 20 22  1  0
M  END
$$$$
