NWR.pdb
     RDKit          3D

 34 35  0  0  1  0  0  0  0  0999 V2000
   27.0279  -23.5867  -17.9981 N   0  0  0  0  0  0  0  0  0  0  0  0
   27.8857  -23.6718  -16.8812 C   0  0  0  0  0  0  0  0  0  0  0  0
   29.1331  -23.7283  -17.0525 O   0  0  0  0  0  0  0  0  0  0  0  0
   27.3018  -23.6941  -15.5045 C   0  0  0  0  0  0  0  0  0  0  0  0
   26.3262  -22.5394  -15.3572 C   0  0  2  0  0  0  0  0  0  0  0  0
   27.1105  -21.3337  -15.5327 N   0  0  0  0  0  0  0  0  0  0  0  0
   25.7063  -22.5190  -14.0203 C   0  0  0  0  0  0  0  0  0  0  0  0
   25.1600  -23.5395  -13.5462 O   0  0  0  0  0  0  0  0  0  0  0  0
   25.6912  -21.3498  -13.1939 N   0  0  0  0  0  0  0  0  0  0  0  0
   24.9674  -21.2869  -11.9731 C   0  0  1  0  0  0  0  0  0  0  0  0
   25.4548  -20.1526  -11.0923 C   0  0  0  0  0  0  0  0  0  0  0  0
   26.7084  -20.5043  -10.3973 C   0  0  0  0  0  0  0  0  0  0  0  0
   27.8996  -20.9408  -10.9680 C   0  0  0  0  0  0  0  0  0  0  0  0
   28.8149  -21.1210  -10.0076 N   0  0  0  0  0  0  0  0  0  0  0  0
   28.2671  -20.8183   -8.8196 C   0  0  0  0  0  0  0  0  0  0  0  0
   28.7937  -20.8504   -7.5471 C   0  0  0  0  0  0  0  0  0  0  0  0
   28.0312  -20.5010   -6.4570 C   0  0  0  0  0  0  0  0  0  0  0  0
   26.7455  -20.1245   -6.6732 C   0  0  0  0  0  0  0  0  0  0  0  0
   26.1986  -20.0840   -7.9279 C   0  0  0  0  0  0  0  0  0  0  0  0
   26.9405  -20.4289   -9.0501 C   0  0  0  0  0  0  0  0  0  0  0  0
   23.5072  -21.0921  -12.1646 C   0  0  0  0  0  0  0  0  0  0  0  0
   23.1570  -20.4437  -13.1869 O   0  0  0  0  0  0  0  0  0  0  0  0
   16.8108  -24.3866   -7.5578 N   0  0  0  0  0  0  0  0  0  0  0  0
   18.2024  -24.1115   -7.6100 C   0  0  0  0  0  0  0  0  0  0  0  0
   18.9632  -24.5384   -6.6803 N   0  0  0  0  0  0  0  0  0  0  0  0
   18.8170  -23.3751   -8.6537 N   0  0  0  0  0  0  0  0  0  0  0  0
   18.0754  -22.9997   -9.8032 C   0  0  0  0  0  0  0  0  0  0  0  0
   18.8096  -22.1060  -10.7663 C   0  0  0  0  0  0  0  0  0  0  0  0
   20.2718  -22.2148  -10.5769 C   0  0  0  0  0  0  0  0  0  0  0  0
   21.0938  -21.3513  -11.4849 C   0  0  2  0  0  0  0  0  0  0  0  0
   22.5167  -21.5799  -11.2875 N   0  0  0  0  0  0  0  0  0  0  0  0
   20.7534  -19.9325  -11.4981 C   0  0  0  0  0  0  0  0  0  0  0  0
   19.8023  -19.5127  -12.4531 O   0  0  0  0  0  0  0  0  0  0  0  0
   21.2013  -19.0461  -10.7680 O   0  0  0  0  0  0  0  0  0  0  0  0
  2  4  1  0
  2  1  1  0
  3  2  2  0
  5  4  1  0
  5  7  1  0
  5  6  1  1
  7  8  2  0
  9 10  1  0
  9  7  1  0
 11 12  1  0
 10 11  1  1
 12 13  2  0
 14 13  1  0
 15 14  1  0
 16 15  2  0
 17 16  1  0
 18 19  1  0
 18 17  2  0
 19 20  2  0
 20 15  1  0
 20 12  1  0
 21 10  1  0
 21 22  2  0
 23 24  1  0
 24 26  1  0
 25 24  2  0
 26 27  1  0
 28 27  1  0
 28 29  1  0
 30 29  1  1
 30 31  1  0
 30 32  1  0
 31 21  1  0
 32 34  2  0
 32 33  1  0
M  END
$$$$
