NWR.pdb
     RDKit          3D

 34 35  0  0  1  0  0  0  0  0999 V2000
   26.6265  -25.4661  -18.8025 N   0  0  0  0  0  0  0  0  0  0  0  0
   25.6789  -26.2938  -18.1640 C   0  0  0  0  0  0  0  0  0  0  0  0
   25.4120  -27.4274  -18.6461 O   0  0  0  0  0  0  0  0  0  0  0  0
   25.0014  -25.8137  -16.9202 C   0  0  0  0  0  0  0  0  0  0  0  0
   25.6367  -24.5068  -16.4783 C   0  0  2  0  0  0  0  0  0  0  0  0
   26.8949  -24.8684  -15.8572 N   0  0  0  0  0  0  0  0  0  0  0  0
   24.7991  -23.8017  -15.4919 C   0  0  0  0  0  0  0  0  0  0  0  0
   24.1165  -24.4332  -14.6552 O   0  0  0  0  0  0  0  0  0  0  0  0
   24.7157  -22.3736  -15.4299 N   0  0  0  0  0  0  0  0  0  0  0  0
   23.9296  -21.6959  -14.4597 C   0  0  1  0  0  0  0  0  0  0  0  0
   24.5271  -20.3500  -14.0974 C   0  0  0  0  0  0  0  0  0  0  0  0
   25.7460  -20.4992  -13.2786 C   0  0  0  0  0  0  0  0  0  0  0  0
   27.0593  -20.6018  -13.7256 C   0  0  0  0  0  0  0  0  0  0  0  0
   27.8833  -20.6873  -12.6737 N   0  0  0  0  0  0  0  0  0  0  0  0
   27.1569  -20.6452  -11.5451 C   0  0  0  0  0  0  0  0  0  0  0  0
   27.5376  -20.7059  -10.2226 C   0  0  0  0  0  0  0  0  0  0  0  0
   26.6033  -20.6539   -9.2145 C   0  0  0  0  0  0  0  0  0  0  0  0
   25.2964  -20.5414   -9.5624 C   0  0  0  0  0  0  0  0  0  0  0  0
   24.8924  -20.4789  -10.8692 C   0  0  0  0  0  0  0  0  0  0  0  0
   25.8091  -20.5274  -11.9112 C   0  0  0  0  0  0  0  0  0  0  0  0
   22.5340  -21.4469  -14.9035 C   0  0  0  0  0  0  0  0  0  0  0  0
   22.2573  -21.7664  -16.0908 O   0  0  0  0  0  0  0  0  0  0  0  0
   16.2015  -24.9420  -11.6999 N   0  0  0  0  0  0  0  0  0  0  0  0
   17.3534  -24.5239  -10.9834 C   0  0  0  0  0  0  0  0  0  0  0  0
   17.3806  -24.6391   -9.7140 N   0  0  0  0  0  0  0  0  0  0  0  0
   18.5039  -23.9732  -11.6018 N   0  0  0  0  0  0  0  0  0  0  0  0
   18.5308  -23.7492  -13.0023 C   0  0  0  0  0  0  0  0  0  0  0  0
   19.8699  -23.3374  -13.5520 C   0  0  0  0  0  0  0  0  0  0  0  0
   19.7098  -22.4000  -14.6841 C   0  0  0  0  0  0  0  0  0  0  0  0
   20.1087  -20.9846  -14.3955 C   0  0  2  0  0  0  0  0  0  0  0  0
   21.5275  -20.8863  -14.0904 N   0  0  0  0  0  0  0  0  0  0  0  0
   19.2798  -20.2717  -13.4292 C   0  0  0  0  0  0  0  0  0  0  0  0
   17.8905  -20.2432  -13.6774 O   0  0  0  0  0  0  0  0  0  0  0  0
   19.6505  -19.6845  -12.4108 O   0  0  0  0  0  0  0  0  0  0  0  0
  2  4  1  0
  2  1  1  0
  3  2  2  0
  5  4  1  0
  5  7  1  0
  5  6  1  1
  7  8  2  0
  9 10  1  0
  9  7  1  0
 11 12  1  0
 10 11  1  6
 12 13  2  0
 14 13  1  0
 15 14  1  0
 16 15  2  0
 17 16  1  0
 18 19  1  0
 18 17  2  0
 19 20  2  0
 20 15  1  0
 20 12  1  0
 21 10  1  0
 21 22  2  0
 23 24  1  0
 24 26  1  0
 25 24  2  0
 26 27  1  0
 28 27  1  0
 28 29  1  0
 30 29  1  1
 30 31  1  0
 30 32  1  0
 31 21  1  0
 32 34  2  0
 32 33  1  0
M  END
$$$$
