NWR.pdb
     RDKit          3D

 34 35  0  0  1  0  0  0  0  0999 V2000
   27.8741  -16.1369  -18.9939 N   0  0  0  0  0  0  0  0  0  0  0  0
   27.4832  -17.3292  -19.6391 C   0  0  0  0  0  0  0  0  0  0  0  0
   27.5904  -17.4278  -20.8911 O   0  0  0  0  0  0  0  0  0  0  0  0
   26.9451  -18.4637  -18.8267 C   0  0  0  0  0  0  0  0  0  0  0  0
   27.8825  -18.7327  -17.6624 C   0  0  2  0  0  0  0  0  0  0  0  0
   28.9607  -19.5377  -18.2001 N   0  0  0  0  0  0  0  0  0  0  0  0
   27.2116  -19.4848  -16.5872 C   0  0  0  0  0  0  0  0  0  0  0  0
   26.4540  -20.4457  -16.8469 O   0  0  0  0  0  0  0  0  0  0  0  0
   27.3822  -19.1685  -15.2011 N   0  0  0  0  0  0  0  0  0  0  0  0
   26.8180  -19.9572  -14.1628 C   0  0  1  0  0  0  0  0  0  0  0  0
   27.2685  -19.4843  -12.7942 C   0  0  0  0  0  0  0  0  0  0  0  0
   26.7536  -20.3570  -11.7210 C   0  0  0  0  0  0  0  0  0  0  0  0
   26.4824  -21.7194  -11.7942 C   0  0  0  0  0  0  0  0  0  0  0  0
   26.0640  -22.1559  -10.5995 N   0  0  0  0  0  0  0  0  0  0  0  0
   26.0490  -21.1256   -9.7386 C   0  0  0  0  0  0  0  0  0  0  0  0
   25.6921  -21.0635   -8.4096 C   0  0  0  0  0  0  0  0  0  0  0  0
   25.7467  -19.8763   -7.7171 C   0  0  0  0  0  0  0  0  0  0  0  0
   26.1622  -18.7691   -8.3829 C   0  0  0  0  0  0  0  0  0  0  0  0
   26.5225  -18.8045   -9.7034 C   0  0  0  0  0  0  0  0  0  0  0  0
   26.4805  -19.9862  -10.4316 C   0  0  0  0  0  0  0  0  0  0  0  0
   25.3325  -19.9484  -14.1588 C   0  0  0  0  0  0  0  0  0  0  0  0
   24.7781  -18.8171  -14.1896 O   0  0  0  0  0  0  0  0  0  0  0  0
   20.4246  -26.2208  -15.4959 N   0  0  0  0  0  0  0  0  0  0  0  0
   21.6644  -26.2126  -14.8045 C   0  0  0  0  0  0  0  0  0  0  0  0
   22.5428  -27.0950  -15.0782 N   0  0  0  0  0  0  0  0  0  0  0  0
   21.9981  -25.2642  -13.8053 N   0  0  0  0  0  0  0  0  0  0  0  0
   21.0633  -24.2715  -13.4142 C   0  0  0  0  0  0  0  0  0  0  0  0
   21.6644  -22.9329  -13.0793 C   0  0  0  0  0  0  0  0  0  0  0  0
   22.4783  -22.4239  -14.2037 C   0  0  0  0  0  0  0  0  0  0  0  0
   23.0814  -21.0694  -13.9865 C   0  0  2  0  0  0  0  0  0  0  0  0
   24.5291  -21.1067  -14.1227 N   0  0  0  0  0  0  0  0  0  0  0  0
   22.6525  -20.3646  -12.7830 C   0  0  0  0  0  0  0  0  0  0  0  0
   21.4937  -19.5654  -12.8896 O   0  0  0  0  0  0  0  0  0  0  0  0
   23.1859  -20.3828  -11.6719 O   0  0  0  0  0  0  0  0  0  0  0  0
  2  4  1  0
  2  1  1  0
  3  2  2  0
  5  4  1  0
  5  7  1  0
  5  6  1  6
  7  8  2  0
  9 10  1  0
  9  7  1  0
 11 12  1  0
 10 11  1  1
 12 13  2  0
 14 13  1  0
 15 14  1  0
 16 15  2  0
 17 16  1  0
 18 19  1  0
 18 17  2  0
 19 20  2  0
 20 15  1  0
 20 12  1  0
 21 10  1  0
 21 22  2  0
 23 24  1  0
 24 26  1  0
 25 24  2  0
 26 27  1  0
 28 27  1  0
 28 29  1  0
 30 29  1  1
 30 31  1  0
 30 32  1  0
 31 21  1  0
 32 34  2  0
 32 33  1  0
M  END
$$$$
