NWR.pdb
     RDKit          3D

 34 35  0  0  1  0  0  0  0  0999 V2000
   20.2670  -20.9064  -10.1786 N   0  0  0  0  0  0  0  0  0  0  0  0
   20.6004  -19.6266  -10.6702 C   0  0  0  0  0  0  0  0  0  0  0  0
   19.6914  -18.7772  -10.8723 O   0  0  0  0  0  0  0  0  0  0  0  0
   22.0321  -19.2938  -10.9462 C   0  0  0  0  0  0  0  0  0  0  0  0
   22.8950  -20.5042  -10.6344 C   0  0  2  0  0  0  0  0  0  0  0  0
   22.6172  -20.8431   -9.2532 N   0  0  0  0  0  0  0  0  0  0  0  0
   24.3300  -20.1992  -10.7750 C   0  0  0  0  0  0  0  0  0  0  0  0
   24.7387  -19.4056  -11.6513 O   0  0  0  0  0  0  0  0  0  0  0  0
   25.3295  -20.7817   -9.9313 N   0  0  0  0  0  0  0  0  0  0  0  0
   26.7191  -20.6713  -10.2054 C   0  0  1  0  0  0  0  0  0  0  0  0
   27.5588  -21.1069   -9.0200 C   0  0  0  0  0  0  0  0  0  0  0  0
   27.3379  -20.2369   -7.8485 C   0  0  0  0  0  0  0  0  0  0  0  0
   26.4675  -19.1563   -7.7480 C   0  0  0  0  0  0  0  0  0  0  0  0
   26.5293  -18.6469   -6.5113 N   0  0  0  0  0  0  0  0  0  0  0  0
   27.4133  -19.3557   -5.7906 C   0  0  0  0  0  0  0  0  0  0  0  0
   27.8291  -19.2208   -4.4843 C   0  0  0  0  0  0  0  0  0  0  0  0
   28.7701  -20.0701   -3.9502 C   0  0  0  0  0  0  0  0  0  0  0  0
   29.2760  -21.0435   -4.7490 C   0  0  0  0  0  0  0  0  0  0  0  0
   28.8792  -21.1986   -6.0503 C   0  0  0  0  0  0  0  0  0  0  0  0
   27.9306  -20.3598   -6.6204 C   0  0  0  0  0  0  0  0  0  0  0  0
   27.1553  -21.4845  -11.3695 C   0  0  0  0  0  0  0  0  0  0  0  0
   27.1407  -22.7354  -11.2172 O   0  0  0  0  0  0  0  0  0  0  0  0
   24.9928  -25.7650  -16.0897 N   0  0  0  0  0  0  0  0  0  0  0  0
   24.0585  -25.5250  -15.0483 C   0  0  0  0  0  0  0  0  0  0  0  0
   23.4770  -26.5102  -14.4857 N   0  0  0  0  0  0  0  0  0  0  0  0
   23.7212  -24.2298  -14.5813 N   0  0  0  0  0  0  0  0  0  0  0  0
   24.1034  -23.0777  -15.3154 C   0  0  0  0  0  0  0  0  0  0  0  0
   25.5707  -22.7480  -15.2574 C   0  0  0  0  0  0  0  0  0  0  0  0
   25.9083  -22.0655  -13.9901 C   0  0  0  0  0  0  0  0  0  0  0  0
   27.3278  -21.5973  -13.8818 C   0  0  2  0  0  0  0  0  0  0  0  0
   27.5746  -20.9475  -12.6041 N   0  0  0  0  0  0  0  0  0  0  0  0
   27.8321  -20.8204  -15.0092 C   0  0  0  0  0  0  0  0  0  0  0  0
   27.8240  -19.4155  -14.8714 O   0  0  0  0  0  0  0  0  0  0  0  0
   28.2691  -21.2475  -16.0797 O   0  0  0  0  0  0  0  0  0  0  0  0
  2  4  1  0
  2  1  1  0
  3  2  2  0
  5  4  1  0
  5  7  1  0
  5  6  1  1
  7  8  2  0
  9 10  1  0
  9  7  1  0
 11 12  1  0
 10 11  1  1
 12 13  2  0
 14 13  1  0
 15 14  1  0
 16 15  2  0
 17 16  1  0
 18 19  1  0
 18 17  2  0
 19 20  2  0
 20 15  1  0
 20 12  1  0
 21 10  1  0
 21 22  2  0
 23 24  1  0
 24 26  1  0
 25 24  2  0
 26 27  1  0
 28 27  1  0
 28 29  1  0
 30 29  1  6
 30 31  1  0
 30 32  1  0
 31 21  1  0
 32 34  2  0
 32 33  1  0
M  END
$$$$
