NWR.pdb
     RDKit          3D

 34 35  0  0  1  0  0  0  0  0999 V2000
   30.0035  -18.1859  -15.7154 N   0  0  0  0  0  0  0  0  0  0  0  0
   28.8207  -17.4517  -15.4860 C   0  0  0  0  0  0  0  0  0  0  0  0
   28.8190  -16.2014  -15.6450 O   0  0  0  0  0  0  0  0  0  0  0  0
   27.5808  -18.1688  -15.0556 C   0  0  0  0  0  0  0  0  0  0  0  0
   27.8735  -19.6558  -14.9553 C   0  0  2  0  0  0  0  0  0  0  0  0
   28.1755  -20.0915  -16.3039 N   0  0  0  0  0  0  0  0  0  0  0  0
   26.7071  -20.4067  -14.4576 C   0  0  0  0  0  0  0  0  0  0  0  0
   25.7492  -20.6862  -15.2119 O   0  0  0  0  0  0  0  0  0  0  0  0
   26.5993  -20.8564  -13.1024 N   0  0  0  0  0  0  0  0  0  0  0  0
   25.4622  -21.5574  -12.6187 C   0  0  1  0  0  0  0  0  0  0  0  0
   25.7362  -22.2080  -11.2765 C   0  0  0  0  0  0  0  0  0  0  0  0
   26.2850  -21.2411  -10.3059 C   0  0  0  0  0  0  0  0  0  0  0  0
   25.5929  -20.2583   -9.6056 C   0  0  0  0  0  0  0  0  0  0  0  0
   26.4380  -19.6091   -8.7949 N   0  0  0  0  0  0  0  0  0  0  0  0
   27.6672  -20.1306   -8.9370 C   0  0  0  0  0  0  0  0  0  0  0  0
   28.8624  -19.8046   -8.3347 C   0  0  0  0  0  0  0  0  0  0  0  0
   30.0193  -20.4797   -8.6473 C   0  0  0  0  0  0  0  0  0  0  0  0
   29.9473  -21.4754   -9.5665 C   0  0  0  0  0  0  0  0  0  0  0  0
   28.7718  -21.8188  -10.1791 C   0  0  0  0  0  0  0  0  0  0  0  0
   27.5856  -21.1590   -9.8860 C   0  0  0  0  0  0  0  0  0  0  0  0
   24.2672  -20.6919  -12.4466 C   0  0  0  0  0  0  0  0  0  0  0  0
   24.4728  -19.5362  -11.9881 O   0  0  0  0  0  0  0  0  0  0  0  0
   22.5468  -19.7651  -18.4468 N   0  0  0  0  0  0  0  0  0  0  0  0
   21.1717  -19.4134  -18.4669 C   0  0  0  0  0  0  0  0  0  0  0  0
   20.4667  -19.6900  -19.4925 N   0  0  0  0  0  0  0  0  0  0  0  0
   20.5145  -18.7589  -17.3950 N   0  0  0  0  0  0  0  0  0  0  0  0
   21.2216  -18.4310  -16.2098 C   0  0  0  0  0  0  0  0  0  0  0  0
   20.9200  -19.3128  -15.0281 C   0  0  0  0  0  0  0  0  0  0  0  0
   21.9934  -19.2233  -14.0154 C   0  0  0  0  0  0  0  0  0  0  0  0
   21.8387  -20.1468  -12.8454 C   0  0  2  0  0  0  0  0  0  0  0  0
   22.9489  -21.0826  -12.7594 N   0  0  0  0  0  0  0  0  0  0  0  0
   20.5429  -20.8056  -12.7184 C   0  0  0  0  0  0  0  0  0  0  0  0
   19.5196  -20.0822  -12.0687 O   0  0  0  0  0  0  0  0  0  0  0  0
   20.2305  -21.9303  -13.1144 O   0  0  0  0  0  0  0  0  0  0  0  0
  2  4  1  0
  2  1  1  0
  3  2  2  0
  5  4  1  0
  5  7  1  0
  5  6  1  6
  7  8  2  0
  9 10  1  0
  9  7  1  0
 11 12  1  0
 10 11  1  1
 12 13  2  0
 14 13  1  0
 15 14  1  0
 16 15  2  0
 17 16  1  0
 18 19  1  0
 18 17  2  0
 19 20  2  0
 20 15  1  0
 20 12  1  0
 21 10  1  0
 21 22  2  0
 23 24  1  0
 24 26  1  0
 25 24  2  0
 26 27  1  0
 28 27  1  0
 28 29  1  0
 30 29  1  6
 30 31  1  0
 30 32  1  0
 31 21  1  0
 32 34  2  0
 32 33  1  0
M  END
$$$$
