NWR.pdb
     RDKit          3D

 34 35  0  0  1  0  0  0  0  0999 V2000
   29.2833  -21.3208  -19.3902 N   0  0  0  0  0  0  0  0  0  0  0  0
   27.9717  -21.8407  -19.3996 C   0  0  0  0  0  0  0  0  0  0  0  0
   27.3726  -22.0085  -20.4957 O   0  0  0  0  0  0  0  0  0  0  0  0
   27.3076  -22.1867  -18.1050 C   0  0  0  0  0  0  0  0  0  0  0  0
   28.2379  -21.8352  -16.9570 C   0  0  2  0  0  0  0  0  0  0  0  0
   29.2544  -22.8677  -16.9410 N   0  0  0  0  0  0  0  0  0  0  0  0
   27.5305  -21.8373  -15.6642 C   0  0  0  0  0  0  0  0  0  0  0  0
   26.6702  -22.7061  -15.4002 O   0  0  0  0  0  0  0  0  0  0  0  0
   27.7796  -20.8617  -14.6461 N   0  0  0  0  0  0  0  0  0  0  0  0
   27.1494  -20.9079  -13.3737 C   0  0  1  0  0  0  0  0  0  0  0  0
   27.6714  -19.8227  -12.4519 C   0  0  0  0  0  0  0  0  0  0  0  0
   28.2862  -20.3913  -11.2365 C   0  0  0  0  0  0  0  0  0  0  0  0
   29.4964  -21.0701  -11.1377 C   0  0  0  0  0  0  0  0  0  0  0  0
   29.7221  -21.3961   -9.8588 N   0  0  0  0  0  0  0  0  0  0  0  0
   28.6995  -20.9552   -9.1085 C   0  0  0  0  0  0  0  0  0  0  0  0
   28.4654  -21.0504   -7.7544 C   0  0  0  0  0  0  0  0  0  0  0  0
   27.3238  -20.5248   -7.1953 C   0  0  0  0  0  0  0  0  0  0  0  0
   26.4361  -19.9108   -8.0178 C   0  0  0  0  0  0  0  0  0  0  0  0
   26.6456  -19.8030   -9.3667 C   0  0  0  0  0  0  0  0  0  0  0  0
   27.7876  -20.3210   -9.9634 C   0  0  0  0  0  0  0  0  0  0  0  0
   25.6741  -20.7480  -13.4420 C   0  0  0  0  0  0  0  0  0  0  0  0
   25.2459  -19.7783  -14.1236 O   0  0  0  0  0  0  0  0  0  0  0  0
   18.5296  -23.7129  -11.4893 N   0  0  0  0  0  0  0  0  0  0  0  0
   18.1397  -23.6182  -12.8510 C   0  0  0  0  0  0  0  0  0  0  0  0
   16.9053  -23.4944  -13.1445 N   0  0  0  0  0  0  0  0  0  0  0  0
   19.0554  -23.6530  -13.9325 N   0  0  0  0  0  0  0  0  0  0  0  0
   20.4497  -23.7554  -13.6922 C   0  0  0  0  0  0  0  0  0  0  0  0
   21.0996  -22.4948  -13.1886 C   0  0  0  0  0  0  0  0  0  0  0  0
   22.5724  -22.5885  -13.2782 C   0  0  0  0  0  0  0  0  0  0  0  0
   23.3135  -21.3711  -12.8152 C   0  0  2  0  0  0  0  0  0  0  0  0
   24.7500  -21.5993  -12.8020 N   0  0  0  0  0  0  0  0  0  0  0  0
   22.8340  -20.7631  -11.5785 C   0  0  0  0  0  0  0  0  0  0  0  0
   21.5425  -20.1940  -11.6054 O   0  0  0  0  0  0  0  0  0  0  0  0
   23.4274  -20.6853  -10.5009 O   0  0  0  0  0  0  0  0  0  0  0  0
  2  4  1  0
  2  1  1  0
  3  2  2  0
  5  4  1  0
  5  7  1  0
  5  6  1  1
  7  8  2  0
  9 10  1  0
  9  7  1  0
 11 12  1  0
 10 11  1  1
 12 13  2  0
 14 13  1  0
 15 14  1  0
 16 15  2  0
 17 16  1  0
 18 19  1  0
 18 17  2  0
 19 20  2  0
 20 15  1  0
 20 12  1  0
 21 10  1  0
 21 22  2  0
 23 24  1  0
 24 26  1  0
 25 24  2  0
 26 27  1  0
 28 27  1  0
 28 29  1  0
 30 29  1  1
 30 31  1  0
 30 32  1  0
 31 21  1  0
 32 34  2  0
 32 33  1  0
M  END
$$$$
