NWR.pdb
     RDKit          3D

 34 35  0  0  1  0  0  0  0  0999 V2000
   28.2956  -20.7688  -20.0174 N   0  0  0  0  0  0  0  0  0  0  0  0
   27.6301  -22.0096  -19.9265 C   0  0  0  0  0  0  0  0  0  0  0  0
   27.6194  -22.7884  -20.9174 O   0  0  0  0  0  0  0  0  0  0  0  0
   26.9438  -22.3854  -18.6519 C   0  0  0  0  0  0  0  0  0  0  0  0
   27.9784  -22.5164  -17.5477 C   0  0  2  0  0  0  0  0  0  0  0  0
   28.6111  -23.8043  -17.7489 N   0  0  0  0  0  0  0  0  0  0  0  0
   27.3545  -22.4908  -16.2128 C   0  0  0  0  0  0  0  0  0  0  0  0
   26.7300  -23.4814  -15.7728 O   0  0  0  0  0  0  0  0  0  0  0  0
   27.4231  -21.3501  -15.3501 N   0  0  0  0  0  0  0  0  0  0  0  0
   26.7840  -21.3124  -14.0818 C   0  0  1  0  0  0  0  0  0  0  0  0
   27.2917  -20.1617  -13.2343 C   0  0  0  0  0  0  0  0  0  0  0  0
   26.7560  -20.2212  -11.8603 C   0  0  0  0  0  0  0  0  0  0  0  0
   25.5285  -19.7475  -11.4085 C   0  0  0  0  0  0  0  0  0  0  0  0
   25.3965  -20.0222  -10.1047 N   0  0  0  0  0  0  0  0  0  0  0  0
   26.4979  -20.6619   -9.6794 C   0  0  0  0  0  0  0  0  0  0  0  0
   26.8405  -21.1409   -8.4341 C   0  0  0  0  0  0  0  0  0  0  0  0
   28.0480  -21.7653   -8.2241 C   0  0  0  0  0  0  0  0  0  0  0  0
   28.8906  -21.8944   -9.2800 C   0  0  0  0  0  0  0  0  0  0  0  0
   28.5734  -21.4273  -10.5275 C   0  0  0  0  0  0  0  0  0  0  0  0
   27.3627  -20.7935  -10.7745 C   0  0  0  0  0  0  0  0  0  0  0  0
   25.3082  -21.1685  -14.1711 C   0  0  0  0  0  0  0  0  0  0  0  0
   24.8699  -20.4561  -15.1137 O   0  0  0  0  0  0  0  0  0  0  0  0
   17.8202  -23.8549  -11.0210 N   0  0  0  0  0  0  0  0  0  0  0  0
   19.0140  -24.1717  -10.3214 C   0  0  0  0  0  0  0  0  0  0  0  0
   19.1240  -25.3040   -9.7459 N   0  0  0  0  0  0  0  0  0  0  0  0
   20.1191  -23.2901  -10.2180 N   0  0  0  0  0  0  0  0  0  0  0  0
   20.1756  -22.1112  -11.0050 C   0  0  0  0  0  0  0  0  0  0  0  0
   20.7604  -22.2950  -12.3795 C   0  0  0  0  0  0  0  0  0  0  0  0
   22.2357  -22.3721  -12.3191 C   0  0  0  0  0  0  0  0  0  0  0  0
   22.9546  -21.5773  -13.3665 C   0  0  2  0  0  0  0  0  0  0  0  0
   24.3939  -21.7695  -13.2815 N   0  0  0  0  0  0  0  0  0  0  0  0
   22.5849  -20.1692  -13.4658 C   0  0  0  0  0  0  0  0  0  0  0  0
   21.5947  -19.8343  -14.4145 O   0  0  0  0  0  0  0  0  0  0  0  0
   23.0380  -19.2263  -12.8141 O   0  0  0  0  0  0  0  0  0  0  0  0
  2  4  1  0
  2  1  1  0
  3  2  2  0
  5  4  1  0
  5  7  1  0
  5  6  1  6
  7  8  2  0
  9 10  1  0
  9  7  1  0
 11 12  1  0
 10 11  1  1
 12 13  2  0
 14 13  1  0
 15 14  1  0
 16 15  2  0
 17 16  1  0
 18 19  1  0
 18 17  2  0
 19 20  2  0
 20 15  1  0
 20 12  1  0
 21 10  1  0
 21 22  2  0
 23 24  1  0
 24 26  1  0
 25 24  2  0
 26 27  1  0
 28 27  1  0
 28 29  1  0
 30 29  1  1
 30 31  1  0
 30 32  1  0
 31 21  1  0
 32 34  2  0
 32 33  1  0
M  END
$$$$
