NWR.pdb
     RDKit          3D

 34 35  0  0  1  0  0  0  0  0999 V2000
   28.4050  -22.6714  -21.5488 N   0  0  0  0  0  0  0  0  0  0  0  0
   27.8177  -21.9495  -20.4883 C   0  0  0  0  0  0  0  0  0  0  0  0
   27.4472  -20.7587  -20.6711 O   0  0  0  0  0  0  0  0  0  0  0  0
   27.6422  -22.6085  -19.1573 C   0  0  0  0  0  0  0  0  0  0  0  0
   28.0505  -21.6385  -18.0622 C   0  0  2  0  0  0  0  0  0  0  0  0
   29.4871  -21.7733  -17.9295 N   0  0  0  0  0  0  0  0  0  0  0  0
   27.4155  -21.9735  -16.7752 C   0  0  0  0  0  0  0  0  0  0  0  0
   27.3795  -23.1532  -16.3605 O   0  0  0  0  0  0  0  0  0  0  0  0
   26.8107  -20.9865  -15.9324 N   0  0  0  0  0  0  0  0  0  0  0  0
   26.1902  -21.3137  -14.6970 C   0  0  1  0  0  0  0  0  0  0  0  0
   26.2023  -20.1395  -13.7373 C   0  0  0  0  0  0  0  0  0  0  0  0
   25.7709  -20.5396  -12.3837 C   0  0  0  0  0  0  0  0  0  0  0  0
   26.5370  -21.1510  -11.3966 C   0  0  0  0  0  0  0  0  0  0  0  0
   25.7942  -21.3193  -10.2954 N   0  0  0  0  0  0  0  0  0  0  0  0
   24.5609  -20.8395  -10.5228 C   0  0  0  0  0  0  0  0  0  0  0  0
   23.4472  -20.7896   -9.7135 C   0  0  0  0  0  0  0  0  0  0  0  0
   22.2656  -20.2524  -10.1687 C   0  0  0  0  0  0  0  0  0  0  0  0
   22.2305  -19.7741  -11.4382 C   0  0  0  0  0  0  0  0  0  0  0  0
   23.3235  -19.8118  -12.2622 C   0  0  0  0  0  0  0  0  0  0  0  0
   24.5319  -20.3458  -11.8343 C   0  0  0  0  0  0  0  0  0  0  0  0
   24.7748  -21.7400  -14.8448 C   0  0  0  0  0  0  0  0  0  0  0  0
   24.0320  -20.9901  -15.5333 O   0  0  0  0  0  0  0  0  0  0  0  0
   20.4960  -29.3344  -12.8534 N   0  0  0  0  0  0  0  0  0  0  0  0
   19.4756  -28.4150  -13.2120 C   0  0  0  0  0  0  0  0  0  0  0  0
   18.2613  -28.8021  -13.2385 N   0  0  0  0  0  0  0  0  0  0  0  0
   19.7244  -27.0613  -13.5510 N   0  0  0  0  0  0  0  0  0  0  0  0
   21.0382  -26.5310  -13.4793 C   0  0  0  0  0  0  0  0  0  0  0  0
   21.1711  -25.1045  -13.9404 C   0  0  0  0  0  0  0  0  0  0  0  0
   22.5838  -24.6695  -13.9092 C   0  0  0  0  0  0  0  0  0  0  0  0
   22.8240  -23.2645  -14.3718 C   0  0  2  0  0  0  0  0  0  0  0  0
   24.2304  -22.9073  -14.2710 N   0  0  0  0  0  0  0  0  0  0  0  0
   21.9477  -22.2459  -13.8028 C   0  0  0  0  0  0  0  0  0  0  0  0
   22.3677  -21.6430  -12.5974 O   0  0  0  0  0  0  0  0  0  0  0  0
   20.8729  -21.8438  -14.2526 O   0  0  0  0  0  0  0  0  0  0  0  0
  2  4  1  0
  2  1  1  0
  3  2  2  0
  5  4  1  0
  5  7  1  0
  5  6  1  1
  7  8  2  0
  9 10  1  0
  9  7  1  0
 11 12  1  0
 10 11  1  1
 12 13  2  0
 14 13  1  0
 15 14  1  0
 16 15  2  0
 17 16  1  0
 18 19  1  0
 18 17  2  0
 19 20  2  0
 20 15  1  0
 20 12  1  0
 21 10  1  0
 21 22  2  0
 23 24  1  0
 24 26  1  0
 25 24  2  0
 26 27  1  0
 28 27  1  0
 28 29  1  0
 30 29  1  1
 30 31  1  0
 30 32  1  0
 31 21  1  0
 32 34  2  0
 32 33  1  0
M  END
$$$$
