NWR.pdb
     RDKit          3D

 34 35  0  0  1  0  0  0  0  0999 V2000
   30.0178  -22.9072  -19.6953 N   0  0  0  0  0  0  0  0  0  0  0  0
   30.2885  -21.9107  -18.7338 C   0  0  0  0  0  0  0  0  0  0  0  0
   30.9102  -20.8675  -19.0712 O   0  0  0  0  0  0  0  0  0  0  0  0
   29.8331  -22.1061  -17.3228 C   0  0  0  0  0  0  0  0  0  0  0  0
   28.4695  -21.4614  -17.1445 C   0  0  2  0  0  0  0  0  0  0  0  0
   28.6866  -20.0344  -17.2719 N   0  0  0  0  0  0  0  0  0  0  0  0
   27.9046  -21.7444  -15.8130 C   0  0  0  0  0  0  0  0  0  0  0  0
   27.7810  -22.9188  -15.4003 O   0  0  0  0  0  0  0  0  0  0  0  0
   27.4696  -20.7104  -14.9231 N   0  0  0  0  0  0  0  0  0  0  0  0
   26.8587  -20.9878  -13.6708 C   0  0  1  0  0  0  0  0  0  0  0  0
   27.1355  -19.8923  -12.6592 C   0  0  0  0  0  0  0  0  0  0  0  0
   27.8190  -20.4186  -11.4616 C   0  0  0  0  0  0  0  0  0  0  0  0
   29.0774  -21.0078  -11.3949 C   0  0  0  0  0  0  0  0  0  0  0  0
   29.3568  -21.3206  -10.1233 N   0  0  0  0  0  0  0  0  0  0  0  0
   28.3231  -20.9577   -9.3468 C   0  0  0  0  0  0  0  0  0  0  0  0
   28.1291  -21.0740   -7.9880 C   0  0  0  0  0  0  0  0  0  0  0  0
   26.9661  -20.6346   -7.3994 C   0  0  0  0  0  0  0  0  0  0  0  0
   26.0166  -20.0842   -8.1976 C   0  0  0  0  0  0  0  0  0  0  0  0
   26.1853  -19.9571   -9.5505 C   0  0  0  0  0  0  0  0  0  0  0  0
   27.3473  -20.3888  -10.1767 C   0  0  0  0  0  0  0  0  0  0  0  0
   25.3833  -21.1377  -13.7567 C   0  0  0  0  0  0  0  0  0  0  0  0
   24.7524  -20.1843  -14.2870 O   0  0  0  0  0  0  0  0  0  0  0  0
   18.9656  -24.9684  -15.6218 N   0  0  0  0  0  0  0  0  0  0  0  0
   20.1431  -25.7329  -15.8314 C   0  0  0  0  0  0  0  0  0  0  0  0
   20.3579  -26.2564  -16.9738 N   0  0  0  0  0  0  0  0  0  0  0  0
   21.1200  -25.9581  -14.8293 N   0  0  0  0  0  0  0  0  0  0  0  0
   20.9493  -25.4265  -13.5252 C   0  0  0  0  0  0  0  0  0  0  0  0
   21.2967  -23.9688  -13.3854 C   0  0  0  0  0  0  0  0  0  0  0  0
   22.7615  -23.7798  -13.3169 C   0  0  0  0  0  0  0  0  0  0  0  0
   23.2168  -22.3521  -13.3263 C   0  0  2  0  0  0  0  0  0  0  0  0
   24.6679  -22.2592  -13.2890 N   0  0  0  0  0  0  0  0  0  0  0  0
   22.5764  -21.4709  -12.3555 C   0  0  0  0  0  0  0  0  0  0  0  0
   23.2512  -21.2708  -11.1319 O   0  0  0  0  0  0  0  0  0  0  0  0
   21.5051  -20.8734  -12.4762 O   0  0  0  0  0  0  0  0  0  0  0  0
  2  4  1  0
  2  1  1  0
  3  2  2  0
  5  4  1  0
  5  7  1  0
  5  6  1  1
  7  8  2  0
  9 10  1  0
  9  7  1  0
 11 12  1  0
 10 11  1  1
 12 13  2  0
 14 13  1  0
 15 14  1  0
 16 15  2  0
 17 16  1  0
 18 19  1  0
 18 17  2  0
 19 20  2  0
 20 15  1  0
 20 12  1  0
 21 10  1  0
 21 22  2  0
 23 24  1  0
 24 26  1  0
 25 24  2  0
 26 27  1  0
 28 27  1  0
 28 29  1  0
 30 29  1  1
 30 31  1  0
 30 32  1  0
 31 21  1  0
 32 34  2  0
 32 33  1  0
M  END
$$$$
