SCL.pdb
     RDKit          3D

 21 20  0  0  1  0  0  0  0  0999 V2000
    8.1742  -16.1921   18.3577 O   0  0  0  0  0  0  0  0  0  0  0  0
    7.3008  -16.0902   19.4124 C   0  0  0  0  0  0  0  0  0  0  0  0
    7.1501  -17.4320   20.0938 C   0  0  2  0  0  0  0  0  0  0  0  0
    6.0654  -18.1184   19.4166 N   0  0  0  0  0  0  0  0  0  0  0  0
    6.7807  -17.2899   21.5196 C   0  0  0  0  0  0  0  0  0  0  0  0
    5.5824  -17.1389   21.8755 O   0  0  0  0  0  0  0  0  0  0  0  0
    7.7411  -17.3135   22.5754 N   0  0  0  0  0  0  0  0  0  0  0  0
    7.3657  -17.2027   23.9789 C   0  0  1  0  0  0  0  0  0  0  0  0
    7.5297  -18.5686   24.6141 C   0  0  0  0  0  0  0  0  0  0  0  0
    7.2419  -18.5201   26.3997 S   0  0  0  0  0  0  0  0  0  0  0  0
    8.3095  -16.2923   24.7051 C   0  0  0  0  0  0  0  0  0  0  0  0
    9.5460  -16.4193   24.5226 O   0  0  0  0  0  0  0  0  0  0  0  0
    5.9592  -11.8456   26.9003 C   0  0  0  0  0  0  0  0  0  0  0  0
    6.8726  -12.7806   26.1265 C   0  0  1  0  0  0  0  0  0  0  0  0
    7.5042  -12.0682   24.9495 C   0  0  0  0  0  0  0  0  0  0  0  0
    7.9730  -13.2890   27.0213 C   0  0  0  0  0  0  0  0  0  0  0  0
    8.7213  -14.3684   26.3128 C   0  0  2  0  0  0  0  0  0  0  0  0
    7.8660  -15.2901   25.5926 N   0  0  0  0  0  0  0  0  0  0  0  0
    9.5104  -15.1992   27.2921 C   0  0  0  0  0  0  0  0  0  0  0  0
   10.3687  -14.6363   28.0118 O   0  0  0  0  0  0  0  0  0  0  0  0
    9.3029  -16.5456   27.4030 O   0  0  0  0  0  0  0  0  0  0  0  0
  2  1  1  0
  3  2  1  0
  3  4  1  6
  5  3  1  0
  5  6  2  0
  7  5  1  0
  8  7  1  0
  9 10  1  0
  8  9  1  1
 11 12  2  0
 11  8  1  0
 14 13  1  1
 14 15  1  0
 16 14  1  0
 17 18  1  0
 17 16  1  1
 18 11  1  0
 19 17  1  0
 20 19  2  0
 21 19  1  0
M  END
$$$$
