SCL.pdb
     RDKit          3D

 21 20  0  0  1  0  0  0  0  0999 V2000
    7.6455  -17.8906   21.7892 O   0  0  0  0  0  0  0  0  0  0  0  0
    8.2952  -17.2872   20.7406 C   0  0  0  0  0  0  0  0  0  0  0  0
    8.0270  -15.7989   20.7504 C   0  0  2  0  0  0  0  0  0  0  0  0
    8.7879  -15.2359   19.6502 N   0  0  0  0  0  0  0  0  0  0  0  0
    8.4936  -15.1610   22.0014 C   0  0  0  0  0  0  0  0  0  0  0  0
    9.7131  -14.9185   22.1996 O   0  0  0  0  0  0  0  0  0  0  0  0
    7.6084  -14.7816   23.0550 N   0  0  0  0  0  0  0  0  0  0  0  0
    8.0861  -14.3195   24.3517 C   0  0  1  0  0  0  0  0  0  0  0  0
    6.9190  -13.6819   25.0779 C   0  0  0  0  0  0  0  0  0  0  0  0
    5.9849  -14.8923   26.0453 S   0  0  0  0  0  0  0  0  0  0  0  0
    8.5160  -15.4801   25.1975 C   0  0  0  0  0  0  0  0  0  0  0  0
    8.2256  -16.6463   24.8312 O   0  0  0  0  0  0  0  0  0  0  0  0
   10.5131  -14.0874   30.0599 C   0  0  0  0  0  0  0  0  0  0  0  0
   10.2272  -14.4811   28.6209 C   0  0  1  0  0  0  0  0  0  0  0  0
   11.1138  -13.7132   27.6638 C   0  0  0  0  0  0  0  0  0  0  0  0
   10.4795  -15.9537   28.4260 C   0  0  0  0  0  0  0  0  0  0  0  0
    9.9656  -16.3657   27.0868 C   0  0  2  0  0  0  0  0  0  0  0  0
    9.2388  -15.3187   26.3976 N   0  0  0  0  0  0  0  0  0  0  0  0
    9.0142  -17.5275   27.2169 C   0  0  0  0  0  0  0  0  0  0  0  0
    7.8204  -17.3764   26.8655 O   0  0  0  0  0  0  0  0  0  0  0  0
    9.4341  -18.7316   27.7088 O   0  0  0  0  0  0  0  0  0  0  0  0
  2  1  1  0
  3  2  1  0
  3  4  1  6
  5  3  1  0
  5  6  2  0
  7  5  1  0
  8  7  1  0
  9 10  1  0
  8  9  1  1
 11 12  2  0
 11  8  1  0
 14 13  1  1
 14 15  1  0
 16 14  1  0
 17 18  1  0
 17 16  1  1
 18 11  1  0
 19 17  1  0
 20 19  2  0
 21 19  1  0
M  END
$$$$
