SCL.pdb
     RDKit          3D

 21 20  0  0  1  0  0  0  0  0999 V2000
    8.3272  -15.9330   14.0109 O   0  0  0  0  0  0  0  0  0  0  0  0
    9.3136  -16.8868   14.0636 C   0  0  0  0  0  0  0  0  0  0  0  0
    8.7423  -18.1986   14.5534 C   0  0  2  0  0  0  0  0  0  0  0  0
    7.5921  -18.4854   13.7161 N   0  0  0  0  0  0  0  0  0  0  0  0
    8.2758  -18.1099   15.9549 C   0  0  0  0  0  0  0  0  0  0  0  0
    7.0762  -17.8466   16.2321 O   0  0  0  0  0  0  0  0  0  0  0  0
    9.1388  -18.3132   17.0736 N   0  0  0  0  0  0  0  0  0  0  0  0
    8.6627  -18.2641   18.4498 C   0  0  1  0  0  0  0  0  0  0  0  0
    8.9795  -19.5955   19.1001 C   0  0  0  0  0  0  0  0  0  0  0  0
    8.3467  -19.6860   20.7927 S   0  0  0  0  0  0  0  0  0  0  0  0
    9.4182  -17.2315   19.2308 C   0  0  0  0  0  0  0  0  0  0  0  0
   10.6282  -17.0246   18.9632 O   0  0  0  0  0  0  0  0  0  0  0  0
    6.4054  -13.2181   21.4834 C   0  0  0  0  0  0  0  0  0  0  0  0
    7.4785  -13.9980   20.7433 C   0  0  1  0  0  0  0  0  0  0  0  0
    8.1776  -13.1229   19.7248 C   0  0  0  0  0  0  0  0  0  0  0  0
    8.5083  -14.5135   21.7148 C   0  0  0  0  0  0  0  0  0  0  0  0
    9.4665  -15.3983   20.9893 C   0  0  2  0  0  0  0  0  0  0  0  0
    8.8247  -16.4750   20.2624 N   0  0  0  0  0  0  0  0  0  0  0  0
   10.4237  -16.0496   21.9544 C   0  0  0  0  0  0  0  0  0  0  0  0
   10.2170  -17.2346   22.3074 O   0  0  0  0  0  0  0  0  0  0  0  0
   11.5036  -15.3697   22.4441 O   0  0  0  0  0  0  0  0  0  0  0  0
  2  1  1  0
  3  2  1  0
  3  4  1  6
  5  3  1  0
  5  6  2  0
  7  5  1  0
  8  7  1  0
  9 10  1  0
  8  9  1  1
 11 12  2  0
 11  8  1  0
 14 13  1  1
 14 15  1  0
 16 14  1  0
 17 18  1  0
 17 16  1  1
 18 11  1  0
 19 17  1  0
 20 19  2  0
 21 19  1  0
M  END
$$$$
