WRS.pdb
     RDKit          3D

 32 33  0  0  1  0  0  0  0  0999 V2000
    8.9903  -16.3448   24.9716 N   0  0  0  0  0  0  0  0  0  0  0  0
    7.8188  -17.0483   24.4845 C   0  0  1  0  0  0  0  0  0  0  0  0
    6.6305  -16.3634   25.0898 C   0  0  0  0  0  0  0  0  0  0  0  0
    7.1142  -15.5011   26.2018 C   0  0  0  0  0  0  0  0  0  0  0  0
    7.6633  -15.8962   27.4148 C   0  0  0  0  0  0  0  0  0  0  0  0
    7.9410  -14.7720   28.0852 N   0  0  0  0  0  0  0  0  0  0  0  0
    7.5999  -13.6918   27.3671 C   0  0  0  0  0  0  0  0  0  0  0  0
    7.6743  -12.3192   27.5866 C   0  0  0  0  0  0  0  0  0  0  0  0
    7.2435  -11.4224   26.6538 C   0  0  0  0  0  0  0  0  0  0  0  0
    6.7129  -11.8547   25.4466 C   0  0  0  0  0  0  0  0  0  0  0  0
    6.6331  -13.2026   25.2162 C   0  0  0  0  0  0  0  0  0  0  0  0
    7.0640  -14.1225   26.1483 C   0  0  0  0  0  0  0  0  0  0  0  0
    7.8376  -17.0267   23.0140 C   0  0  0  0  0  0  0  0  0  0  0  0
    7.0168  -17.7573   22.4073 O   0  0  0  0  0  0  0  0  0  0  0  0
    9.5631  -13.4634   18.4637 N   0  0  0  0  0  0  0  0  0  0  0  0
    8.6332  -12.4594   18.9168 C   0  0  0  0  0  0  0  0  0  0  0  0
    9.0986  -11.3136   19.2603 N   0  0  0  0  0  0  0  0  0  0  0  0
    7.2409  -12.7240   18.9832 N   0  0  0  0  0  0  0  0  0  0  0  0
    6.7801  -14.0926   19.0977 C   0  0  0  0  0  0  0  0  0  0  0  0
    7.4840  -14.7944   20.2613 C   0  0  0  0  0  0  0  0  0  0  0  0
    8.4317  -15.8353   19.8227 C   0  0  0  0  0  0  0  0  0  0  0  0
    9.0964  -16.6459   20.8981 C   0  0  2  0  0  0  0  0  0  0  0  0
    8.7063  -16.2474   22.2283 N   0  0  0  0  0  0  0  0  0  0  0  0
   10.5759  -16.5514   20.7176 C   0  0  0  0  0  0  0  0  0  0  0  0
   11.0913  -15.6841   20.0030 O   0  0  0  0  0  0  0  0  0  0  0  0
    8.5033  -10.5424   19.6171 O   0  0  0  0  0  0  0  0  0  0  0  0
   13.9795  -15.7993   23.3092 C   0  0  0  0  0  0  0  0  0  0  0  0
   12.6744  -15.9678   22.8412 C   0  0  1  0  0  0  0  0  0  0  0  0
   12.6934  -17.1802   21.9404 N   0  0  0  0  0  0  0  0  0  0  0  0
   11.3909  -17.4762   21.3813 C   0  0  0  0  0  0  0  0  0  0  0  0
   13.3015  -18.3551   22.5878 O   0  0  0  0  0  0  0  0  0  0  0  0
   14.5093  -18.3720   22.9111 O   0  0  0  0  0  0  0  0  0  0  0  0
  2  1  1  1
  2  3  1  0
  4  5  2  0
  4  3  1  0
  6  5  1  0
  7 12  2  0
  7  6  1  0
  8  7  1  0
  9 10  1  0
  9  8  2  0
 10 11  2  0
 11 12  1  0
 12  4  1  0
 13  2  1  0
 13 14  2  0
 16 17  2  0
 16 15  1  0
 18 16  1  0
 19 18  1  0
 20 21  1  0
 20 19  1  0
 22 21  1  6
 22 23  1  0
 23 13  1  0
 24 22  1  0
 25 24  2  0
 26 27  1  0
 28 27  1  6
 28 29  1  0
 28 30  1  0
 29 24  1  0
 30 32  1  0
 31 30  2  0
M  END
$$$$
