WRS.pdb
     RDKit          3D

 32 33  0  0  1  0  0  0  0  0999 V2000
    7.0137  -17.6006   25.9065 N   0  0  0  0  0  0  0  0  0  0  0  0
    7.7370  -16.6014   25.1428 C   0  0  1  0  0  0  0  0  0  0  0  0
    8.7103  -15.9663   26.0899 C   0  0  0  0  0  0  0  0  0  0  0  0
    7.9866  -14.9173   26.8577 C   0  0  0  0  0  0  0  0  0  0  0  0
    7.6060  -14.9432   28.1932 C   0  0  0  0  0  0  0  0  0  0  0  0
    6.9820  -13.7832   28.4284 N   0  0  0  0  0  0  0  0  0  0  0  0
    6.9467  -13.0274   27.3210 C   0  0  0  0  0  0  0  0  0  0  0  0
    6.4346  -11.7677   27.0234 C   0  0  0  0  0  0  0  0  0  0  0  0
    6.5464  -11.2278   25.7759 C   0  0  0  0  0  0  0  0  0  0  0  0
    7.1796  -11.9241   24.7561 C   0  0  0  0  0  0  0  0  0  0  0  0
    7.6884  -13.1651   25.0338 C   0  0  0  0  0  0  0  0  0  0  0  0
    7.5841  -13.7254   26.2891 C   0  0  0  0  0  0  0  0  0  0  0  0
    8.3674  -17.2601   23.9888 C   0  0  0  0  0  0  0  0  0  0  0  0
    8.9232  -18.3693   24.1794 O   0  0  0  0  0  0  0  0  0  0  0  0
    7.1203  -13.2482   17.2177 N   0  0  0  0  0  0  0  0  0  0  0  0
    8.3185  -13.4222   18.0000 C   0  0  0  0  0  0  0  0  0  0  0  0
    8.9462  -12.3721   18.3883 N   0  0  0  0  0  0  0  0  0  0  0  0
    8.7959  -14.7155   18.3351 N   0  0  0  0  0  0  0  0  0  0  0  0
    7.8730  -15.8318   18.3592 C   0  0  0  0  0  0  0  0  0  0  0  0
    7.8697  -16.4885   19.7414 C   0  0  0  0  0  0  0  0  0  0  0  0
    9.2026  -16.5209   20.3710 C   0  0  0  0  0  0  0  0  0  0  0  0
    9.3161  -17.2387   21.6852 C   0  0  2  0  0  0  0  0  0  0  0  0
    8.3966  -16.7439   22.6803 N   0  0  0  0  0  0  0  0  0  0  0  0
   10.7291  -17.1411   22.1588 C   0  0  0  0  0  0  0  0  0  0  0  0
   11.1641  -16.1215   22.7061 O   0  0  0  0  0  0  0  0  0  0  0  0
    9.8316  -12.4065   18.9280 O   0  0  0  0  0  0  0  0  0  0  0  0
   12.8582  -20.5947   22.2113 C   0  0  0  0  0  0  0  0  0  0  0  0
   13.3934  -19.5576   22.9785 C   0  0  1  0  0  0  0  0  0  0  0  0
   12.9832  -18.2689   22.3057 N   0  0  0  0  0  0  0  0  0  0  0  0
   11.5745  -18.2414   21.9722 C   0  0  0  0  0  0  0  0  0  0  0  0
   13.8354  -17.9389   21.1506 O   0  0  0  0  0  0  0  0  0  0  0  0
   15.0775  -17.8453   21.2594 O   0  0  0  0  0  0  0  0  0  0  0  0
  2  1  1  1
  2  3  1  0
  4  5  2  0
  4  3  1  0
  6  5  1  0
  7 12  2  0
  7  6  1  0
  8  7  1  0
  9 10  1  0
  9  8  2  0
 10 11  2  0
 11 12  1  0
 12  4  1  0
 13  2  1  0
 13 14  2  0
 16 17  2  0
 16 15  1  0
 18 16  1  0
 19 18  1  0
 20 21  1  0
 20 19  1  0
 22 21  1  6
 22 23  1  0
 23 13  1  0
 24 22  1  0
 25 24  2  0
 26 27  1  0
 28 27  1  1
 28 29  1  0
 28 30  1  0
 29 24  1  0
 30 32  1  0
 31 30  2  0
M  END
$$$$
