WRS.pdb
     RDKit          3D

 32 33  0  0  1  0  0  0  0  0999 V2000
    6.8892  -18.3232   24.7484 N   0  0  0  0  0  0  0  0  0  0  0  0
    7.0518  -16.9304   24.3763 C   0  0  1  0  0  0  0  0  0  0  0  0
    7.8512  -16.2896   25.4707 C   0  0  0  0  0  0  0  0  0  0  0  0
    7.0511  -15.1647   26.0260 C   0  0  0  0  0  0  0  0  0  0  0  0
    5.8069  -15.2208   26.6408 C   0  0  0  0  0  0  0  0  0  0  0  0
    5.4923  -13.9620   26.9673 N   0  0  0  0  0  0  0  0  0  0  0  0
    6.4639  -13.1156   26.5953 C   0  0  0  0  0  0  0  0  0  0  0  0
    6.6401  -11.7384   26.6951 C   0  0  0  0  0  0  0  0  0  0  0  0
    7.7617  -11.1256   26.2193 C   0  0  0  0  0  0  0  0  0  0  0  0
    8.7706  -11.8628   25.6156 C   0  0  0  0  0  0  0  0  0  0  0  0
    8.6115  -13.2192   25.5101 C   0  0  0  0  0  0  0  0  0  0  0  0
    7.4841  -13.8544   25.9857 C   0  0  0  0  0  0  0  0  0  0  0  0
    7.6921  -16.8710   23.0536 C   0  0  0  0  0  0  0  0  0  0  0  0
    8.3893  -17.8516   22.6961 O   0  0  0  0  0  0  0  0  0  0  0  0
    7.8752  -14.1098   14.3863 N   0  0  0  0  0  0  0  0  0  0  0  0
    8.6543  -14.3188   15.5810 C   0  0  0  0  0  0  0  0  0  0  0  0
    9.2709  -15.4367   15.7141 N   0  0  0  0  0  0  0  0  0  0  0  0
    8.7415  -13.3207   16.5854 N   0  0  0  0  0  0  0  0  0  0  0  0
    7.9528  -13.4542   17.7932 C   0  0  0  0  0  0  0  0  0  0  0  0
    8.5402  -14.5434   18.6933 C   0  0  0  0  0  0  0  0  0  0  0  0
    7.8148  -14.6959   19.9679 C   0  0  0  0  0  0  0  0  0  0  0  0
    8.2763  -15.7914   20.8856 C   0  0  2  0  0  0  0  0  0  0  0  0
    7.5843  -15.7971   22.1511 N   0  0  0  0  0  0  0  0  0  0  0  0
    9.7516  -15.6601   21.0770 C   0  0  0  0  0  0  0  0  0  0  0  0
   10.3112  -14.5579   21.0941 O   0  0  0  0  0  0  0  0  0  0  0  0
    9.8790  -15.6569   16.5254 O   0  0  0  0  0  0  0  0  0  0  0  0
   11.8762  -19.1859   21.0915 C   0  0  0  0  0  0  0  0  0  0  0  0
   12.4693  -18.1804   21.8582 C   0  0  1  0  0  0  0  0  0  0  0  0
   11.9564  -16.8670   21.3162 N   0  0  0  0  0  0  0  0  0  0  0  0
   10.5110  -16.8250   21.2404 C   0  0  0  0  0  0  0  0  0  0  0  0
   12.5918  -16.4959   20.0403 O   0  0  0  0  0  0  0  0  0  0  0  0
   11.9174  -16.3032   19.0052 O   0  0  0  0  0  0  0  0  0  0  0  0
  2  1  1  1
  2  3  1  0
  4  5  2  0
  4  3  1  0
  6  5  1  0
  7 12  2  0
  7  6  1  0
  8  7  1  0
  9 10  1  0
  9  8  2  0
 10 11  2  0
 11 12  1  0
 12  4  1  0
 13  2  1  0
 13 14  2  0
 16 17  2  0
 16 15  1  0
 18 16  1  0
 19 18  1  0
 20 21  1  0
 20 19  1  0
 22 21  1  6
 22 23  1  0
 23 13  1  0
 24 22  1  0
 25 24  2  0
 26 27  1  0
 28 27  1  1
 28 29  1  0
 28 30  1  0
 29 24  1  0
 30 32  1  0
 31 30  2  0
M  END
$$$$
