WRS.pdb
     RDKit          3D

 32 33  0  0  1  0  0  0  0  0999 V2000
    6.8365  -17.1980   25.3720 N   0  0  0  0  0  0  0  0  0  0  0  0
    7.3478  -16.0164   24.7035 C   0  0  1  0  0  0  0  0  0  0  0  0
    8.6139  -15.6418   25.4135 C   0  0  0  0  0  0  0  0  0  0  0  0
    8.2522  -14.7951   26.5823 C   0  0  0  0  0  0  0  0  0  0  0  0
    8.4936  -15.0441   27.9272 C   0  0  0  0  0  0  0  0  0  0  0  0
    7.9843  -14.0049   28.5988 N   0  0  0  0  0  0  0  0  0  0  0  0
    7.4364  -13.1156   27.7576 C   0  0  0  0  0  0  0  0  0  0  0  0
    6.7910  -11.8937   27.9249 C   0  0  0  0  0  0  0  0  0  0  0  0
    6.3238  -11.1811   26.8599 C   0  0  0  0  0  0  0  0  0  0  0  0
    6.4788  -11.6568   25.5656 C   0  0  0  0  0  0  0  0  0  0  0  0
    7.1118  -12.8580   25.3851 C   0  0  0  0  0  0  0  0  0  0  0  0
    7.5900  -13.5909   26.4504 C   0  0  0  0  0  0  0  0  0  0  0  0
    7.5304  -16.3274   23.2777 C   0  0  0  0  0  0  0  0  0  0  0  0
    7.8918  -17.4904   22.9738 O   0  0  0  0  0  0  0  0  0  0  0  0
    9.4238  -14.8341   15.9612 N   0  0  0  0  0  0  0  0  0  0  0  0
    8.1584  -14.1585   15.8195 C   0  0  0  0  0  0  0  0  0  0  0  0
    7.4973  -14.3323   14.7331 N   0  0  0  0  0  0  0  0  0  0  0  0
    7.6520  -13.3233   16.8484 N   0  0  0  0  0  0  0  0  0  0  0  0
    8.4696  -13.0518   18.0131 C   0  0  0  0  0  0  0  0  0  0  0  0
    8.6654  -14.3285   18.8338 C   0  0  0  0  0  0  0  0  0  0  0  0
    7.9157  -14.3223   20.1034 C   0  0  0  0  0  0  0  0  0  0  0  0
    8.0262  -15.5482   20.9638 C   0  0  2  0  0  0  0  0  0  0  0  0
    7.3302  -15.4207   22.2207 N   0  0  0  0  0  0  0  0  0  0  0  0
    9.4734  -15.8505   21.1756 C   0  0  0  0  0  0  0  0  0  0  0  0
   10.1756  -15.1757   21.9371 O   0  0  0  0  0  0  0  0  0  0  0  0
    6.5607  -13.9185   14.5656 O   0  0  0  0  0  0  0  0  0  0  0  0
   12.3715  -18.0199   22.5634 C   0  0  0  0  0  0  0  0  0  0  0  0
   11.6679  -18.4989   21.4560 C   0  0  2  0  0  0  0  0  0  0  0  0
   11.4336  -17.3135   20.5496 N   0  0  0  0  0  0  0  0  0  0  0  0
   10.0385  -16.9306   20.4869 C   0  0  0  0  0  0  0  0  0  0  0  0
   12.0200  -17.5012   19.2116 O   0  0  0  0  0  0  0  0  0  0  0  0
   11.3229  -17.4311   18.1760 O   0  0  0  0  0  0  0  0  0  0  0  0
  2  1  1  1
  2  3  1  0
  4  5  2  0
  4  3  1  0
  6  5  1  0
  7 12  2  0
  7  6  1  0
  8  7  1  0
  9 10  1  0
  9  8  2  0
 10 11  2  0
 11 12  1  0
 12  4  1  0
 13  2  1  0
 13 14  2  0
 16 17  2  0
 16 15  1  0
 18 16  1  0
 19 18  1  0
 20 21  1  0
 20 19  1  0
 22 21  1  1
 22 23  1  0
 23 13  1  0
 24 22  1  0
 25 24  2  0
 26 27  1  0
 28 27  1  1
 28 29  1  0
 28 30  1  0
 29 24  1  0
 30 32  1  0
 31 30  2  0
M  END
$$$$
