WRS.pdb
     RDKit          3D

 32 33  0  0  1  0  0  0  0  0999 V2000
    7.2246  -17.5613   26.0856 N   0  0  0  0  0  0  0  0  0  0  0  0
    7.6746  -16.5411   25.1576 C   0  0  1  0  0  0  0  0  0  0  0  0
    8.8306  -15.8494   25.8155 C   0  0  0  0  0  0  0  0  0  0  0  0
    8.2839  -14.8485   26.7711 C   0  0  0  0  0  0  0  0  0  0  0  0
    8.3012  -14.8918   28.1592 C   0  0  0  0  0  0  0  0  0  0  0  0
    7.6908  -13.7769   28.5773 N   0  0  0  0  0  0  0  0  0  0  0  0
    7.2899  -13.0332   27.5356 C   0  0  0  0  0  0  0  0  0  0  0  0
    6.6284  -11.8147   27.4125 C   0  0  0  0  0  0  0  0  0  0  0  0
    6.3434  -11.2770   26.1919 C   0  0  0  0  0  0  0  0  0  0  0  0
    6.7074  -11.9341   25.0252 C   0  0  0  0  0  0  0  0  0  0  0  0
    7.3590  -13.1343   25.1304 C   0  0  0  0  0  0  0  0  0  0  0  0
    7.6548  -13.6918   26.3560 C   0  0  0  0  0  0  0  0  0  0  0  0
    8.0114  -17.1863   23.8797 C   0  0  0  0  0  0  0  0  0  0  0  0
    8.6348  -18.2751   23.9200 O   0  0  0  0  0  0  0  0  0  0  0  0
    7.6334  -14.4238   15.3470 N   0  0  0  0  0  0  0  0  0  0  0  0
    8.1977  -13.9278   16.5773 C   0  0  0  0  0  0  0  0  0  0  0  0
    8.4237  -12.6681   16.6755 N   0  0  0  0  0  0  0  0  0  0  0  0
    8.4972  -14.8024   17.6535 N   0  0  0  0  0  0  0  0  0  0  0  0
    7.9070  -16.1251   17.6824 C   0  0  0  0  0  0  0  0  0  0  0  0
    8.4272  -16.9125   18.8870 C   0  0  0  0  0  0  0  0  0  0  0  0
    7.8584  -16.4551   20.1682 C   0  0  0  0  0  0  0  0  0  0  0  0
    8.3570  -17.1311   21.4130 C   0  0  2  0  0  0  0  0  0  0  0  0
    7.6880  -16.6786   22.6081 N   0  0  0  0  0  0  0  0  0  0  0  0
    9.8328  -16.9224   21.5077 C   0  0  0  0  0  0  0  0  0  0  0  0
   10.3233  -15.7988   21.6669 O   0  0  0  0  0  0  0  0  0  0  0  0
    8.8911  -12.2371   17.4954 O   0  0  0  0  0  0  0  0  0  0  0  0
   12.1543  -20.3116   21.6963 C   0  0  0  0  0  0  0  0  0  0  0  0
   12.7056  -19.1499   22.2414 C   0  0  1  0  0  0  0  0  0  0  0  0
   12.1195  -17.9919   21.4685 N   0  0  0  0  0  0  0  0  0  0  0  0
   10.6734  -18.0380   21.4123 C   0  0  0  0  0  0  0  0  0  0  0  0
   12.7241  -17.8401   20.1340 O   0  0  0  0  0  0  0  0  0  0  0  0
   12.0283  -17.8538   19.0952 O   0  0  0  0  0  0  0  0  0  0  0  0
  2  1  1  1
  2  3  1  0
  4  5  2  0
  4  3  1  0
  6  5  1  0
  7 12  2  0
  7  6  1  0
  8  7  1  0
  9 10  1  0
  9  8  2  0
 10 11  2  0
 11 12  1  0
 12  4  1  0
 13  2  1  0
 13 14  2  0
 16 17  2  0
 16 15  1  0
 18 16  1  0
 19 18  1  0
 20 21  1  0
 20 19  1  0
 22 21  1  6
 22 23  1  0
 23 13  1  0
 24 22  1  0
 25 24  2  0
 26 27  1  0
 28 27  1  1
 28 29  1  0
 28 30  1  0
 29 24  1  0
 30 32  1  0
 31 30  2  0
M  END
$$$$
