FVC.pdb
     RDKit          3D

 25 25  0  0  1  0  0  0  0  0999 V2000
   21.9149  -11.8105  -19.5131 N   0  0  0  0  0  0  0  0  0  0  0  0
   22.5143  -10.6282  -18.9355 C   0  0  1  0  0  0  0  0  0  0  0  0
   22.4956   -9.5379  -19.9796 C   0  0  0  0  0  0  0  0  0  0  0  0
   23.3681   -9.9039  -21.1185 C   0  0  0  0  0  0  0  0  0  0  0  0
   24.7047  -10.2106  -20.9217 C   0  0  0  0  0  0  0  0  0  0  0  0
   25.5127  -10.5577  -22.0062 C   0  0  0  0  0  0  0  0  0  0  0  0
   25.0107  -10.6041  -23.2771 C   0  0  0  0  0  0  0  0  0  0  0  0
   23.6813  -10.2994  -23.4793 C   0  0  0  0  0  0  0  0  0  0  0  0
   22.8965   -9.9604  -22.4144 C   0  0  0  0  0  0  0  0  0  0  0  0
   21.7150  -10.1577  -17.7653 C   0  0  0  0  0  0  0  0  0  0  0  0
   20.4920  -10.4369  -17.7308 O   0  0  0  0  0  0  0  0  0  0  0  0
   21.8236   -8.8097  -13.0267 C   0  0  0  0  0  0  0  0  0  0  0  0
   22.3669   -9.3266  -14.3332 C   0  0  1  0  0  0  0  0  0  0  0  0
   22.7714  -10.7684  -14.2631 C   0  0  0  0  0  0  0  0  0  0  0  0
   21.5538   -8.9733  -15.5206 C   0  0  2  0  0  0  0  0  0  0  0  0
   22.2997   -9.4142  -16.7084 N   0  0  0  0  0  0  0  0  0  0  0  0
   21.1005   -7.5974  -15.6556 C   0  0  0  0  0  0  0  0  0  0  0  0
   22.0134   -6.6984  -15.7792 O   0  0  0  0  0  0  0  0  0  0  0  0
   19.7915   -7.1024  -15.6716 N   0  0  0  0  0  0  0  0  0  0  0  0
   19.4461   -5.6969  -15.6940 C   0  0  1  0  0  0  0  0  0  0  0  0
   18.7847   -5.2635  -16.9643 C   0  0  0  0  0  0  0  0  0  0  0  0
   18.1909   -3.5649  -16.8382 S   0  0  0  0  0  0  0  0  0  0  0  0
   18.6690   -5.2754  -14.5293 C   0  0  0  0  0  0  0  0  0  0  0  0
   18.5904   -3.9400  -14.2090 O   0  0  0  0  0  0  0  0  0  0  0  0
   18.0779   -6.1106  -13.8254 O   0  0  0  0  0  0  0  0  0  0  0  0
  2 10  1  0
  2  1  1  6
  3  2  1  0
  4  3  1  0
  5  4  2  0
  6  5  1  0
  7  6  2  0
  7  8  1  0
  8  9  2  0
  9  4  1  0
 10 16  1  0
 11 10  2  0
 13 12  1  1
 14 13  1  0
 15 13  1  0
 15 16  1  6
 17 18  2  0
 17 15  1  0
 19 17  1  0
 20 19  1  0
 21 22  1  0
 20 21  1  6
 23 20  1  0
 23 24  1  0
 25 23  2  0
M  END
$$$$
