FVC.pdb
     RDKit          3D

 25 25  0  0  1  0  0  0  0  0999 V2000
   27.5539  -20.0749  -11.3994 N   0  0  0  0  0  0  0  0  0  0  0  0
   26.4295  -20.9306  -11.0926 C   0  0  1  0  0  0  0  0  0  0  0  0
   25.9239  -20.5622   -9.7185 C   0  0  0  0  0  0  0  0  0  0  0  0
   27.0387  -20.5662   -8.7441 C   0  0  0  0  0  0  0  0  0  0  0  0
   28.1242  -21.4113   -8.9075 C   0  0  0  0  0  0  0  0  0  0  0  0
   29.1691  -21.3996   -7.9816 C   0  0  0  0  0  0  0  0  0  0  0  0
   29.1486  -20.5619   -6.9011 C   0  0  0  0  0  0  0  0  0  0  0  0
   28.0707  -19.7188   -6.7329 C   0  0  0  0  0  0  0  0  0  0  0  0
   27.0519  -19.7354   -7.6420 C   0  0  0  0  0  0  0  0  0  0  0  0
   25.3207  -20.7031  -12.0665 C   0  0  0  0  0  0  0  0  0  0  0  0
   25.0917  -19.5275  -12.4414 O   0  0  0  0  0  0  0  0  0  0  0  0
   23.1833  -22.2509  -16.0495 C   0  0  0  0  0  0  0  0  0  0  0  0
   24.1031  -22.2578  -14.8565 C   0  0  1  0  0  0  0  0  0  0  0  0
   25.5006  -21.8375  -15.1994 C   0  0  0  0  0  0  0  0  0  0  0  0
   23.5457  -21.6096  -13.6461 C   0  0  2  0  0  0  0  0  0  0  0  0
   24.5339  -21.7707  -12.5694 N   0  0  0  0  0  0  0  0  0  0  0  0
   22.2138  -22.0015  -13.2108 C   0  0  0  0  0  0  0  0  0  0  0  0
   22.0767  -23.2099  -12.7892 O   0  0  0  0  0  0  0  0  0  0  0  0
   21.0401  -21.2398  -13.1836 N   0  0  0  0  0  0  0  0  0  0  0  0
   19.7449  -21.7429  -12.7777 C   0  0  1  0  0  0  0  0  0  0  0  0
   18.8002  -20.6719  -12.3311 C   0  0  0  0  0  0  0  0  0  0  0  0
   19.5373  -19.6582  -11.0339 S   0  0  0  0  0  0  0  0  0  0  0  0
   19.1215  -22.6057  -13.7803 C   0  0  0  0  0  0  0  0  0  0  0  0
   18.2685  -23.6084  -13.3814 O   0  0  0  0  0  0  0  0  0  0  0  0
   19.3535  -22.4429  -14.9895 O   0  0  0  0  0  0  0  0  0  0  0  0
  2 10  1  0
  2  1  1  6
  3  2  1  0
  4  3  1  0
  5  4  2  0
  6  5  1  0
  7  6  2  0
  7  8  1  0
  8  9  2  0
  9  4  1  0
 10 16  1  0
 11 10  2  0
 13 12  1  6
 14 13  1  0
 15 13  1  0
 15 16  1  1
 17 18  2  0
 17 15  1  0
 19 17  1  0
 20 19  1  0
 21 22  1  0
 20 21  1  6
 23 20  1  0
 23 24  1  0
 25 23  2  0
M  END
$$$$
