YIV.pdb
     RDKit          3D

 28 28  0  0  1  0  0  0  0  0999 V2000
   21.3202  -18.1158  -16.7959 O   0  0  0  0  0  0  0  0  0  0  0  0
   21.7563  -18.6947  -15.6213 C   0  0  0  0  0  0  0  0  0  0  0  0
   21.7008  -20.0831  -15.4963 C   0  0  0  0  0  0  0  0  0  0  0  0
   22.1493  -20.6066  -14.3019 C   0  0  0  0  0  0  0  0  0  0  0  0
   22.6292  -19.8189  -13.2768 C   0  0  0  0  0  0  0  0  0  0  0  0
   23.0907  -20.4547  -12.0292 C   0  0  0  0  0  0  0  0  0  0  0  0
   24.5631  -20.2009  -11.7781 C   0  0  2  0  0  0  0  0  0  0  0  0
   25.2928  -20.8808  -12.8323 N   0  0  0  0  0  0  0  0  0  0  0  0
   24.8933  -20.7949  -10.4392 C   0  0  0  0  0  0  0  0  0  0  0  0
   25.0211  -22.0501  -10.3628 O   0  0  0  0  0  0  0  0  0  0  0  0
   22.6774  -18.4518  -13.4154 C   0  0  0  0  0  0  0  0  0  0  0  0
   22.2302  -17.9021  -14.6118 C   0  0  0  0  0  0  0  0  0  0  0  0
   28.1796  -18.8669   -6.8187 C   0  0  0  0  0  0  0  0  0  0  0  0
   27.3248  -19.7349   -7.7607 C   0  0  0  0  0  0  0  0  0  0  0  0
   25.9988  -19.8771   -7.1066 C   0  0  2  0  0  0  0  0  0  0  0  0
   26.0541  -20.5341   -5.7541 C   0  0  0  0  0  0  0  0  0  0  0  0
   25.0348  -20.6413   -7.9870 C   0  0  2  0  0  0  0  0  0  0  0  0
   25.0601  -19.9891   -9.2865 N   0  0  0  0  0  0  0  0  0  0  0  0
   23.6732  -20.7514   -7.4564 C   0  0  0  0  0  0  0  0  0  0  0  0
   22.9181  -19.7566   -7.3925 O   0  0  0  0  0  0  0  0  0  0  0  0
   21.0252  -23.0508   -8.7263 C   0  0  0  0  0  0  0  0  0  0  0  0
   21.0358  -23.2528   -7.2294 C   0  0  2  0  0  0  0  0  0  0  0  0
   19.6080  -23.2648   -6.7430 C   0  0  0  0  0  0  0  0  0  0  0  0
   21.7614  -22.1286   -6.5512 C   0  0  2  0  0  0  0  0  0  0  0  0
   23.1225  -21.9816   -6.9832 N   0  0  0  0  0  0  0  0  0  0  0  0
   21.6384  -22.1947   -5.0735 C   0  0  0  0  0  0  0  0  0  0  0  0
   20.6322  -21.5731   -4.3687 O   0  0  0  0  0  0  0  0  0  0  0  0
   22.4923  -22.8509   -4.4115 O   0  0  0  0  0  0  0  0  0  0  0  0
  2 12  2  0
  2  1  1  0
  3  2  1  0
  4  5  1  0
  4  3  2  0
  5 11  2  0
  6  5  1  0
  7  6  1  0
  7  8  1  6
  9 18  1  0
  9  7  1  0
 10  9  2  0
 11 12  1  0
 13 14  1  0
 15 16  1  1
 15 14  1  0
 17 18  1  6
 17 15  1  0
 19 17  1  0
 20 19  2  0
 22 21  1  6
 22 24  1  0
 23 22  1  0
 24 26  1  0
 24 25  1  1
 25 19  1  0
 26 27  1  0
 28 26  2  0
M  END
$$$$
