YIV.pdb
     RDKit          3D

 28 28  0  0  1  0  0  0  0  0999 V2000
   23.0576  -15.1505  -24.7946 O   0  0  0  0  0  0  0  0  0  0  0  0
   22.6156  -14.4687  -23.6789 C   0  0  0  0  0  0  0  0  0  0  0  0
   23.4708  -13.5483  -23.0723 C   0  0  0  0  0  0  0  0  0  0  0  0
   22.9771  -12.8967  -21.9617 C   0  0  0  0  0  0  0  0  0  0  0  0
   21.7122  -13.1278  -21.4634 C   0  0  0  0  0  0  0  0  0  0  0  0
   21.2571  -12.3904  -20.2706 C   0  0  0  0  0  0  0  0  0  0  0  0
   21.7837  -13.0077  -18.9911 C   0  0  2  0  0  0  0  0  0  0  0  0
   21.1267  -14.2932  -18.8428 N   0  0  0  0  0  0  0  0  0  0  0  0
   21.4046  -12.0879  -17.8664 C   0  0  0  0  0  0  0  0  0  0  0  0
   20.2742  -12.2489  -17.3243 O   0  0  0  0  0  0  0  0  0  0  0  0
   20.8813  -14.0382  -22.0726 C   0  0  0  0  0  0  0  0  0  0  0  0
   21.3585  -14.7071  -23.1944 C   0  0  0  0  0  0  0  0  0  0  0  0
   22.2048  -10.5845  -12.7682 C   0  0  0  0  0  0  0  0  0  0  0  0
   22.3961   -9.6573  -13.9828 C   0  0  0  0  0  0  0  0  0  0  0  0
   22.7039  -10.5409  -15.1364 C   0  0  2  0  0  0  0  0  0  0  0  0
   24.1442  -10.4975  -15.5696 C   0  0  0  0  0  0  0  0  0  0  0  0
   21.8223  -10.2175  -16.3223 C   0  0  2  0  0  0  0  0  0  0  0  0
   22.2742  -11.0658  -17.4135 N   0  0  0  0  0  0  0  0  0  0  0  0
   21.7988   -8.8024  -16.7029 C   0  0  0  0  0  0  0  0  0  0  0  0
   22.8170   -8.2338  -17.1544 O   0  0  0  0  0  0  0  0  0  0  0  0
   18.0945   -6.7236  -17.3449 C   0  0  0  0  0  0  0  0  0  0  0  0
   19.4101   -6.4079  -18.0167 C   0  0  2  0  0  0  0  0  0  0  0  0
   19.5713   -7.3303  -19.1993 C   0  0  0  0  0  0  0  0  0  0  0  0
   20.5525   -6.6388  -17.0723 C   0  0  2  0  0  0  0  0  0  0  0  0
   20.6313   -7.9875  -16.5868 N   0  0  0  0  0  0  0  0  0  0  0  0
   20.5831   -5.6380  -15.9767 C   0  0  0  0  0  0  0  0  0  0  0  0
   21.0033   -4.3383  -16.1496 O   0  0  0  0  0  0  0  0  0  0  0  0
   20.2077   -5.9785  -14.8185 O   0  0  0  0  0  0  0  0  0  0  0  0
  2 12  2  0
  2  1  1  0
  3  2  1  0
  4  5  1  0
  4  3  2  0
  5 11  2  0
  6  5  1  0
  7  6  1  0
  7  8  1  1
  9 18  1  0
  9  7  1  0
 10  9  2  0
 11 12  1  0
 13 14  1  0
 15 16  1  6
 15 14  1  0
 17 18  1  6
 17 15  1  0
 19 17  1  0
 20 19  2  0
 22 21  1  1
 22 24  1  0
 23 22  1  0
 24 26  1  0
 24 25  1  1
 25 19  1  0
 26 27  1  0
 28 26  2  0
M  END
$$$$
