YIV.pdb
     RDKit          3D

 28 28  0  0  1  0  0  0  0  0999 V2000
   18.4327  -17.7884  -16.4910 O   0  0  0  0  0  0  0  0  0  0  0  0
   19.3641  -18.3675  -15.6531 C   0  0  0  0  0  0  0  0  0  0  0  0
   18.9989  -19.4993  -14.9237 C   0  0  0  0  0  0  0  0  0  0  0  0
   19.9688  -20.0356  -14.1031 C   0  0  0  0  0  0  0  0  0  0  0  0
   21.2342  -19.4981  -13.9956 C   0  0  0  0  0  0  0  0  0  0  0  0
   22.2161  -20.1299  -13.0955 C   0  0  0  0  0  0  0  0  0  0  0  0
   23.3595  -20.7618  -13.8627 C   0  0  2  0  0  0  0  0  0  0  0  0
   22.8213  -21.9317  -14.5319 N   0  0  0  0  0  0  0  0  0  0  0  0
   24.4010  -21.1608  -12.8574 C   0  0  0  0  0  0  0  0  0  0  0  0
   24.1147  -22.0824  -12.0411 O   0  0  0  0  0  0  0  0  0  0  0  0
   21.5788  -18.3822  -14.7212 C   0  0  0  0  0  0  0  0  0  0  0  0
   20.6162  -17.8245  -15.5554 C   0  0  0  0  0  0  0  0  0  0  0  0
   29.6060  -21.2735  -14.0514 C   0  0  0  0  0  0  0  0  0  0  0  0
   28.1690  -21.5494  -13.5717 C   0  0  0  0  0  0  0  0  0  0  0  0
   27.9864  -20.7582  -12.3279 C   0  0  2  0  0  0  0  0  0  0  0  0
   28.9951  -21.0680  -11.2552 C   0  0  0  0  0  0  0  0  0  0  0  0
   26.5949  -20.9410  -11.7637 C   0  0  2  0  0  0  0  0  0  0  0  0
   25.6706  -20.5348  -12.8104 N   0  0  0  0  0  0  0  0  0  0  0  0
   26.3434  -20.2317  -10.5062 C   0  0  0  0  0  0  0  0  0  0  0  0
   26.1485  -18.9967  -10.4843 O   0  0  0  0  0  0  0  0  0  0  0  0
   25.4873  -22.2097   -6.6756 C   0  0  0  0  0  0  0  0  0  0  0  0
   25.0438  -20.8397   -7.1318 C   0  0  2  0  0  0  0  0  0  0  0  0
   23.7844  -20.9967   -7.9471 C   0  0  0  0  0  0  0  0  0  0  0  0
   26.0947  -20.2060   -7.9945 C   0  0  2  0  0  0  0  0  0  0  0  0
   26.3039  -20.8902   -9.2391 N   0  0  0  0  0  0  0  0  0  0  0  0
   27.3601  -19.9735   -7.2544 C   0  0  0  0  0  0  0  0  0  0  0  0
   28.5292  -20.6497   -7.5220 O   0  0  0  0  0  0  0  0  0  0  0  0
   27.3844  -19.1143   -6.3274 O   0  0  0  0  0  0  0  0  0  0  0  0
  2 12  2  0
  2  1  1  0
  3  2  1  0
  4  5  1  0
  4  3  2  0
  5 11  2  0
  6  5  1  0
  7  6  1  0
  7  8  1  1
  9 18  1  0
  9  7  1  0
 10  9  2  0
 11 12  1  0
 13 14  1  0
 15 16  1  1
 15 14  1  0
 17 18  1  6
 17 15  1  0
 19 17  1  0
 20 19  2  0
 22 21  1  6
 22 24  1  0
 23 22  1  0
 24 26  1  0
 24 25  1  6
 25 19  1  0
 26 27  1  0
 28 26  2  0
M  END
$$$$
