YIV.pdb
     RDKit          3D

 28 28  0  0  1  0  0  0  0  0999 V2000
   19.2870  -25.9124  -11.6451 O   0  0  0  0  0  0  0  0  0  0  0  0
   19.8817  -26.9816  -11.0062 C   0  0  0  0  0  0  0  0  0  0  0  0
   19.1870  -27.6205   -9.9788 C   0  0  0  0  0  0  0  0  0  0  0  0
   19.8289  -28.6820   -9.3764 C   0  0  0  0  0  0  0  0  0  0  0  0
   21.0866  -29.1034   -9.7538 C   0  0  0  0  0  0  0  0  0  0  0  0
   21.7063  -30.2472   -9.0600 C   0  0  0  0  0  0  0  0  0  0  0  0
   21.9370  -31.4165   -9.9955 C   0  0  2  0  0  0  0  0  0  0  0  0
   20.6283  -31.8992  -10.3961 N   0  0  0  0  0  0  0  0  0  0  0  0
   22.6726  -32.4687   -9.2170 C   0  0  0  0  0  0  0  0  0  0  0  0
   22.0372  -33.5073   -8.8771 O   0  0  0  0  0  0  0  0  0  0  0  0
   21.7584  -28.4632  -10.7683 C   0  0  0  0  0  0  0  0  0  0  0  0
   21.1298  -27.3899  -11.3901 C   0  0  0  0  0  0  0  0  0  0  0  0
   27.3205  -33.7497  -11.0682 C   0  0  0  0  0  0  0  0  0  0  0  0
   25.9038  -33.7691  -10.4649 C   0  0  0  0  0  0  0  0  0  0  0  0
   26.0695  -33.5408   -9.0065 C   0  0  2  0  0  0  0  0  0  0  0  0
   26.9253  -34.5718   -8.3219 C   0  0  0  0  0  0  0  0  0  0  0  0
   24.7291  -33.4706   -8.3091 C   0  0  2  0  0  0  0  0  0  0  0  0
   24.0364  -32.3193   -8.8652 N   0  0  0  0  0  0  0  0  0  0  0  0
   24.7996  -33.4127   -6.8464 C   0  0  0  0  0  0  0  0  0  0  0  0
   25.3308  -32.4449   -6.2591 O   0  0  0  0  0  0  0  0  0  0  0  0
   22.9280  -36.4067   -4.3083 C   0  0  0  0  0  0  0  0  0  0  0  0
   23.1962  -34.9873   -3.8665 C   0  0  2  0  0  0  0  0  0  0  0  0
   21.9979  -34.1448   -4.2263 C   0  0  0  0  0  0  0  0  0  0  0  0
   24.3981  -34.4338   -4.5732 C   0  0  2  0  0  0  0  0  0  0  0  0
   24.2755  -34.4401   -6.0035 N   0  0  0  0  0  0  0  0  0  0  0  0
   25.6592  -35.0636   -4.1084 C   0  0  0  0  0  0  0  0  0  0  0  0
   26.3921  -35.9443   -4.8718 O   0  0  0  0  0  0  0  0  0  0  0  0
   26.0982  -34.7889   -2.9552 O   0  0  0  0  0  0  0  0  0  0  0  0
  2 12  2  0
  2  1  1  0
  3  2  1  0
  4  5  1  0
  4  3  2  0
  5 11  2  0
  6  5  1  0
  7  6  1  0
  7  8  1  1
  9 18  1  0
  9  7  1  0
 10  9  2  0
 11 12  1  0
 13 14  1  0
 15 16  1  1
 15 14  1  0
 17 18  1  6
 17 15  1  0
 19 17  1  0
 20 19  2  0
 22 21  1  6
 22 24  1  0
 23 22  1  0
 24 26  1  0
 24 25  1  6
 25 19  1  0
 26 27  1  0
 28 26  2  0
M  END
$$$$
