YIV.pdb
     RDKit          3D

 28 28  0  0  1  0  0  0  0  0999 V2000
   18.0345  -19.5848  -13.1803 O   0  0  0  0  0  0  0  0  0  0  0  0
   19.1830  -19.9427  -12.5037 C   0  0  0  0  0  0  0  0  0  0  0  0
   19.7430  -19.0347  -11.6047 C   0  0  0  0  0  0  0  0  0  0  0  0
   20.8893  -19.4451  -10.9573 C   0  0  0  0  0  0  0  0  0  0  0  0
   21.4652  -20.6795  -11.1728 C   0  0  0  0  0  0  0  0  0  0  0  0
   22.6920  -21.0447  -10.4412 C   0  0  0  0  0  0  0  0  0  0  0  0
   23.8736  -20.1950  -10.8622 C   0  0  2  0  0  0  0  0  0  0  0  0
   24.1055  -20.4647  -12.2692 N   0  0  0  0  0  0  0  0  0  0  0  0
   25.0505  -20.6335  -10.0394 C   0  0  0  0  0  0  0  0  0  0  0  0
   24.8243  -21.2981   -8.9883 O   0  0  0  0  0  0  0  0  0  0  0  0
   20.9011  -21.5634  -12.0622 C   0  0  0  0  0  0  0  0  0  0  0  0
   19.7444  -21.1704  -12.7264 C   0  0  0  0  0  0  0  0  0  0  0  0
   30.0112  -21.3752  -12.2357 C   0  0  0  0  0  0  0  0  0  0  0  0
   28.6810  -21.5595  -11.4821 C   0  0  0  0  0  0  0  0  0  0  0  0
   28.7327  -20.6408  -10.3160 C   0  0  2  0  0  0  0  0  0  0  0  0
   29.9012  -20.8844   -9.3999 C   0  0  0  0  0  0  0  0  0  0  0  0
   27.4533  -20.7071   -9.5116 C   0  0  2  0  0  0  0  0  0  0  0  0
   26.3803  -20.3211  -10.4139 N   0  0  0  0  0  0  0  0  0  0  0  0
   27.4548  -19.9018   -8.2871 C   0  0  0  0  0  0  0  0  0  0  0  0
   27.1643  -18.6857   -8.3087 O   0  0  0  0  0  0  0  0  0  0  0  0
   26.8355  -21.3064   -4.3353 C   0  0  0  0  0  0  0  0  0  0  0  0
   28.0616  -20.4548   -4.5654 C   0  0  2  0  0  0  0  0  0  0  0  0
   28.2091  -19.5113   -3.3977 C   0  0  0  0  0  0  0  0  0  0  0  0
   27.9119  -19.6434   -5.8183 C   0  0  2  0  0  0  0  0  0  0  0  0
   27.7825  -20.4404   -7.0053 N   0  0  0  0  0  0  0  0  0  0  0  0
   28.9669  -18.6068   -5.9423 C   0  0  0  0  0  0  0  0  0  0  0  0
   28.8528  -17.3424   -5.4095 O   0  0  0  0  0  0  0  0  0  0  0  0
   30.0319  -18.8810   -6.5659 O   0  0  0  0  0  0  0  0  0  0  0  0
  2 12  2  0
  2  1  1  0
  3  2  1  0
  4  5  1  0
  4  3  2  0
  5 11  2  0
  6  5  1  0
  7  6  1  0
  7  8  1  6
  9 18  1  0
  9  7  1  0
 10  9  2  0
 11 12  1  0
 13 14  1  0
 15 16  1  1
 15 14  1  0
 17 18  1  6
 17 15  1  0
 19 17  1  0
 20 19  2  0
 22 21  1  1
 22 24  1  0
 23 22  1  0
 24 26  1  0
 24 25  1  6
 25 19  1  0
 26 27  1  0
 28 26  2  0
M  END
$$$$
