YIV.pdb
     RDKit          3D

 28 28  0  0  1  0  0  0  0  0999 V2000
   23.0190  -21.1380   -7.6252 O   0  0  0  0  0  0  0  0  0  0  0  0
   23.6846  -20.9361   -8.8173 C   0  0  0  0  0  0  0  0  0  0  0  0
   22.9373  -20.7041   -9.9723 C   0  0  0  0  0  0  0  0  0  0  0  0
   23.6542  -20.5091  -11.1341 C   0  0  0  0  0  0  0  0  0  0  0  0
   25.0324  -20.5381  -11.1726 C   0  0  0  0  0  0  0  0  0  0  0  0
   25.7264  -20.3204  -12.4550 C   0  0  0  0  0  0  0  0  0  0  0  0
   25.0632  -21.0736  -13.5900 C   0  0  2  0  0  0  0  0  0  0  0  0
   25.6939  -22.3791  -13.6537 N   0  0  0  0  0  0  0  0  0  0  0  0
   25.3250  -20.2986  -14.8491 C   0  0  0  0  0  0  0  0  0  0  0  0
   26.4663  -20.4020  -15.3824 O   0  0  0  0  0  0  0  0  0  0  0  0
   25.7547  -20.7680  -10.0255 C   0  0  0  0  0  0  0  0  0  0  0  0
   25.0522  -20.9673   -8.8422 C   0  0  0  0  0  0  0  0  0  0  0  0
   23.0204  -19.3154  -20.0414 C   0  0  0  0  0  0  0  0  0  0  0  0
   24.0379  -18.7108  -19.0562 C   0  0  0  0  0  0  0  0  0  0  0  0
   23.7572  -19.3304  -17.7357 C   0  0  2  0  0  0  0  0  0  0  0  0
   22.3287  -19.1851  -17.2860 C   0  0  0  0  0  0  0  0  0  0  0  0
   24.6701  -18.7730  -16.6660 C   0  0  2  0  0  0  0  0  0  0  0  0
   24.3356  -19.4720  -15.4355 N   0  0  0  0  0  0  0  0  0  0  0  0
   24.6087  -17.3179  -16.5027 C   0  0  0  0  0  0  0  0  0  0  0  0
   23.6951  -16.7758  -15.8430 O   0  0  0  0  0  0  0  0  0  0  0  0
   28.0219  -14.8099  -17.0635 C   0  0  0  0  0  0  0  0  0  0  0  0
   26.8092  -14.4905  -16.2214 C   0  0  2  0  0  0  0  0  0  0  0  0
   26.9694  -15.1692  -14.8839 C   0  0  0  0  0  0  0  0  0  0  0  0
   25.5627  -15.0107  -16.8741 C   0  0  2  0  0  0  0  0  0  0  0  0
   25.5717  -16.4320  -17.0759 N   0  0  0  0  0  0  0  0  0  0  0  0
   25.2260  -14.2634  -18.1115 C   0  0  0  0  0  0  0  0  0  0  0  0
   24.7979  -12.9549  -18.1132 O   0  0  0  0  0  0  0  0  0  0  0  0
   25.3318  -14.8420  -19.2305 O   0  0  0  0  0  0  0  0  0  0  0  0
  2 12  2  0
  2  1  1  0
  3  2  1  0
  4  5  1  0
  4  3  2  0
  5 11  2  0
  6  5  1  0
  7  6  1  0
  7  8  1  6
  9 18  1  0
  9  7  1  0
 10  9  2  0
 11 12  1  0
 13 14  1  0
 15 16  1  1
 15 14  1  0
 17 18  1  1
 17 15  1  0
 19 17  1  0
 20 19  2  0
 22 21  1  6
 22 24  1  0
 23 22  1  0
 24 26  1  0
 24 25  1  6
 25 19  1  0
 26 27  1  0
 28 26  2  0
M  END
$$$$
