YIV.pdb
     RDKit          3D

 28 28  0  0  1  0  0  0  0  0999 V2000
   20.0329  -13.3935  -18.3579 O   0  0  0  0  0  0  0  0  0  0  0  0
   20.6857  -14.4475  -17.7513 C   0  0  0  0  0  0  0  0  0  0  0  0
   20.1164  -15.7192  -17.8211 C   0  0  0  0  0  0  0  0  0  0  0  0
   20.8115  -16.7340  -17.1976 C   0  0  0  0  0  0  0  0  0  0  0  0
   22.0037  -16.5238  -16.5372 C   0  0  0  0  0  0  0  0  0  0  0  0
   22.6869  -17.6615  -15.8948 C   0  0  0  0  0  0  0  0  0  0  0  0
   23.8504  -18.1627  -16.7258 C   0  0  2  0  0  0  0  0  0  0  0  0
   23.2850  -18.9185  -17.8282 N   0  0  0  0  0  0  0  0  0  0  0  0
   24.6748  -19.0539  -15.8423 C   0  0  0  0  0  0  0  0  0  0  0  0
   24.2201  -20.2008  -15.5674 O   0  0  0  0  0  0  0  0  0  0  0  0
   22.5520  -15.2643  -16.4772 C   0  0  0  0  0  0  0  0  0  0  0  0
   21.8678  -14.2257  -17.0992 C   0  0  0  0  0  0  0  0  0  0  0  0
   28.3590  -18.5889  -17.0033 C   0  0  0  0  0  0  0  0  0  0  0  0
   28.5171  -19.7934  -16.0570 C   0  0  0  0  0  0  0  0  0  0  0  0
   28.1179  -19.3177  -14.7077 C   0  0  2  0  0  0  0  0  0  0  0  0
   28.9128  -19.9296  -13.5861 C   0  0  0  0  0  0  0  0  0  0  0  0
   26.6457  -19.5587  -14.4573 C   0  0  2  0  0  0  0  0  0  0  0  0
   25.9257  -18.6390  -15.3236 N   0  0  0  0  0  0  0  0  0  0  0  0
   26.2312  -19.4297  -13.0575 C   0  0  0  0  0  0  0  0  0  0  0  0
   26.1693  -18.3130  -12.4982 O   0  0  0  0  0  0  0  0  0  0  0  0
   23.9978  -22.4058  -10.8400 C   0  0  0  0  0  0  0  0  0  0  0  0
   24.1185  -20.9241  -10.5724 C   0  0  2  0  0  0  0  0  0  0  0  0
   23.1628  -20.1984  -11.4864 C   0  0  0  0  0  0  0  0  0  0  0  0
   25.5110  -20.4480  -10.8630 C   0  0  2  0  0  0  0  0  0  0  0  0
   25.8749  -20.5514  -12.2479 N   0  0  0  0  0  0  0  0  0  0  0  0
   26.5141  -21.0715   -9.9641 C   0  0  0  0  0  0  0  0  0  0  0  0
   26.5969  -20.7991   -8.6171 O   0  0  0  0  0  0  0  0  0  0  0  0
   27.3430  -21.8976  -10.4423 O   0  0  0  0  0  0  0  0  0  0  0  0
  2 12  2  0
  2  1  1  0
  3  2  1  0
  4  5  1  0
  4  3  2  0
  5 11  2  0
  6  5  1  0
  7  6  1  0
  7  8  1  6
  9 18  1  0
  9  7  1  0
 10  9  2  0
 11 12  1  0
 13 14  1  0
 15 16  1  1
 15 14  1  0
 17 18  1  6
 17 15  1  0
 19 17  1  0
 20 19  2  0
 22 21  1  6
 22 24  1  0
 23 22  1  0
 24 26  1  0
 24 25  1  6
 25 19  1  0
 26 27  1  0
 28 26  2  0
M  END
$$$$
