YIV.pdb
     RDKit          3D

 28 28  0  0  1  0  0  0  0  0999 V2000
   21.6804  -39.6162  -17.3599 O   0  0  0  0  0  0  0  0  0  0  0  0
   21.8023  -38.4043  -16.7107 C   0  0  0  0  0  0  0  0  0  0  0  0
   21.7680  -37.2318  -17.4661 C   0  0  0  0  0  0  0  0  0  0  0  0
   21.8943  -36.0508  -16.7655 C   0  0  0  0  0  0  0  0  0  0  0  0
   22.0466  -36.0098  -15.3956 C   0  0  0  0  0  0  0  0  0  0  0  0
   22.1754  -34.7062  -14.7191 C   0  0  0  0  0  0  0  0  0  0  0  0
   23.5271  -34.0705  -14.9727 C   0  0  2  0  0  0  0  0  0  0  0  0
   24.4678  -34.7084  -14.0705 N   0  0  0  0  0  0  0  0  0  0  0  0
   23.3966  -32.6092  -14.6530 C   0  0  0  0  0  0  0  0  0  0  0  0
   23.7385  -32.2219  -13.4994 O   0  0  0  0  0  0  0  0  0  0  0  0
   22.0785  -37.1743  -14.6651 C   0  0  0  0  0  0  0  0  0  0  0  0
   21.9529  -38.3773  -15.3511 C   0  0  0  0  0  0  0  0  0  0  0  0
   24.4267  -30.1298  -18.4278 C   0  0  0  0  0  0  0  0  0  0  0  0
   24.5505  -29.7619  -16.9375 C   0  0  0  0  0  0  0  0  0  0  0  0
   23.1717  -29.4798  -16.4626 C   0  0  2  0  0  0  0  0  0  0  0  0
   22.9059  -28.0233  -16.1942 C   0  0  0  0  0  0  0  0  0  0  0  0
   22.8487  -30.2774  -15.2186 C   0  0  2  0  0  0  0  0  0  0  0  0
   22.9076  -31.6788  -15.6024 N   0  0  0  0  0  0  0  0  0  0  0  0
   21.5722  -29.9370  -14.5844 C   0  0  0  0  0  0  0  0  0  0  0  0
   20.4932  -30.4158  -14.9971 O   0  0  0  0  0  0  0  0  0  0  0  0
   21.1974  -27.6507  -10.8162 C   0  0  0  0  0  0  0  0  0  0  0  0
   20.2951  -28.7450  -11.3359 C   0  0  2  0  0  0  0  0  0  0  0  0
   20.8702  -30.0738  -10.9128 C   0  0  0  0  0  0  0  0  0  0  0  0
   20.2313  -28.7081  -12.8342 C   0  0  2  0  0  0  0  0  0  0  0  0
   21.4726  -29.0495  -13.4694 N   0  0  0  0  0  0  0  0  0  0  0  0
   19.6676  -27.4310  -13.3384 C   0  0  0  0  0  0  0  0  0  0  0  0
   18.3241  -27.1317  -13.3077 O   0  0  0  0  0  0  0  0  0  0  0  0
   20.4460  -26.5616  -13.8246 O   0  0  0  0  0  0  0  0  0  0  0  0
  2 12  2  0
  2  1  1  0
  3  2  1  0
  4  5  1  0
  4  3  2  0
  5 11  2  0
  6  5  1  0
  7  6  1  0
  7  8  1  1
  9 18  1  0
  9  7  1  0
 10  9  2  0
 11 12  1  0
 13 14  1  0
 15 16  1  1
 15 14  1  0
 17 18  1  6
 17 15  1  0
 19 17  1  0
 20 19  2  0
 22 21  1  6
 22 24  1  0
 23 22  1  0
 24 26  1  0
 24 25  1  6
 25 19  1  0
 26 27  1  0
 28 26  2  0
M  END
$$$$
