YIV.pdb
     RDKit          3D

 28 28  0  0  1  0  0  0  0  0999 V2000
   28.4316  -13.7191  -17.4425 O   0  0  0  0  0  0  0  0  0  0  0  0
   27.9187  -14.8590  -16.8572 C   0  0  0  0  0  0  0  0  0  0  0  0
   27.6135  -14.8354  -15.4960 C   0  0  0  0  0  0  0  0  0  0  0  0
   27.1044  -16.0016  -14.9646 C   0  0  0  0  0  0  0  0  0  0  0  0
   26.9010  -17.1376  -15.7195 C   0  0  0  0  0  0  0  0  0  0  0  0
   26.3525  -18.3461  -15.0773 C   0  0  0  0  0  0  0  0  0  0  0  0
   27.3955  -19.0666  -14.2476 C   0  0  2  0  0  0  0  0  0  0  0  0
   28.3391  -19.6570  -15.1787 N   0  0  0  0  0  0  0  0  0  0  0  0
   26.6827  -20.1347  -13.4694 C   0  0  0  0  0  0  0  0  0  0  0  0
   26.4036  -21.2148  -14.0637 O   0  0  0  0  0  0  0  0  0  0  0  0
   27.2068  -17.1449  -17.0599 C   0  0  0  0  0  0  0  0  0  0  0  0
   27.7216  -15.9795  -17.6171 C   0  0  0  0  0  0  0  0  0  0  0  0
   26.7074  -20.6087   -8.0420 C   0  0  0  0  0  0  0  0  0  0  0  0
   26.7265  -20.9425   -9.5453 C   0  0  0  0  0  0  0  0  0  0  0  0
   25.3615  -20.6509  -10.0536 C   0  0  2  0  0  0  0  0  0  0  0  0
   24.2837  -21.4874   -9.4190 C   0  0  0  0  0  0  0  0  0  0  0  0
   25.2920  -20.8140  -11.5558 C   0  0  2  0  0  0  0  0  0  0  0  0
   26.3260  -19.9551  -12.1105 N   0  0  0  0  0  0  0  0  0  0  0  0
   23.9782  -20.5383  -12.1438 C   0  0  0  0  0  0  0  0  0  0  0  0
   23.4927  -19.3859  -12.1388 O   0  0  0  0  0  0  0  0  0  0  0  0
   20.4482  -21.5607  -15.3620 C   0  0  0  0  0  0  0  0  0  0  0  0
   21.7917  -21.8888  -14.7545 C   0  0  2  0  0  0  0  0  0  0  0  0
   21.9020  -23.3881  -14.6305 C   0  0  0  0  0  0  0  0  0  0  0  0
   21.9122  -21.2868  -13.3859 C   0  0  2  0  0  0  0  0  0  0  0  0
   23.1738  -21.5494  -12.7532 N   0  0  0  0  0  0  0  0  0  0  0  0
   20.7587  -21.6340  -12.5188 C   0  0  0  0  0  0  0  0  0  0  0  0
   19.6244  -20.8598  -12.4212 O   0  0  0  0  0  0  0  0  0  0  0  0
   20.8022  -22.6913  -11.8272 O   0  0  0  0  0  0  0  0  0  0  0  0
  2 12  2  0
  2  1  1  0
  3  2  1  0
  4  5  1  0
  4  3  2  0
  5 11  2  0
  6  5  1  0
  7  6  1  0
  7  8  1  6
  9 18  1  0
  9  7  1  0
 10  9  2  0
 11 12  1  0
 13 14  1  0
 15 16  1  1
 15 14  1  0
 17 18  1  6
 17 15  1  0
 19 17  1  0
 20 19  2  0
 22 21  1  1
 22 24  1  0
 23 22  1  0
 24 26  1  0
 24 25  1  1
 25 19  1  0
 26 27  1  0
 28 26  2  0
M  END
$$$$
