YIV.pdb
     RDKit          3D

 28 28  0  0  1  0  0  0  0  0999 V2000
   18.9601  -15.0564  -17.6430 O   0  0  0  0  0  0  0  0  0  0  0  0
   19.7135  -15.9857  -16.9548 C   0  0  0  0  0  0  0  0  0  0  0  0
   21.0845  -15.7678  -16.8155 C   0  0  0  0  0  0  0  0  0  0  0  0
   21.7873  -16.7283  -16.1189 C   0  0  0  0  0  0  0  0  0  0  0  0
   21.1870  -17.8481  -15.5826 C   0  0  0  0  0  0  0  0  0  0  0  0
   22.0077  -18.8301  -14.8507 C   0  0  0  0  0  0  0  0  0  0  0  0
   22.8956  -19.6292  -15.7826 C   0  0  2  0  0  0  0  0  0  0  0  0
   22.0636  -20.6601  -16.3752 N   0  0  0  0  0  0  0  0  0  0  0  0
   23.9799  -20.2426  -14.9444 C   0  0  0  0  0  0  0  0  0  0  0  0
   23.6919  -21.2635  -14.2571 O   0  0  0  0  0  0  0  0  0  0  0  0
   19.8346  -18.0484  -15.7285 C   0  0  0  0  0  0  0  0  0  0  0  0
   19.1060  -17.0924  -16.4275 C   0  0  0  0  0  0  0  0  0  0  0  0
   29.0432  -20.5555  -16.6043 C   0  0  0  0  0  0  0  0  0  0  0  0
   27.6454  -20.8291  -16.0189 C   0  0  0  0  0  0  0  0  0  0  0  0
   27.6123  -20.1626  -14.6919 C   0  0  2  0  0  0  0  0  0  0  0  0
   28.6848  -20.6329  -13.7471 C   0  0  0  0  0  0  0  0  0  0  0  0
   26.2629  -20.3317  -14.0295 C   0  0  2  0  0  0  0  0  0  0  0  0
   25.2908  -19.7072  -14.9124 N   0  0  0  0  0  0  0  0  0  0  0  0
   26.1785  -19.8065  -12.6639 C   0  0  0  0  0  0  0  0  0  0  0  0
   26.2714  -18.5812  -12.4319 O   0  0  0  0  0  0  0  0  0  0  0  0
   24.4580  -21.9151   -9.2879 C   0  0  0  0  0  0  0  0  0  0  0  0
   24.6541  -20.4286   -9.4707 C   0  0  2  0  0  0  0  0  0  0  0  0
   23.5245  -19.9028  -10.3209 C   0  0  0  0  0  0  0  0  0  0  0  0
   25.9498  -20.1506  -10.1739 C   0  0  2  0  0  0  0  0  0  0  0  0
   25.9875  -20.6430  -11.5218 N   0  0  0  0  0  0  0  0  0  0  0  0
   27.1233  -20.5869   -9.3767 C   0  0  0  0  0  0  0  0  0  0  0  0
   27.4831  -20.0090   -8.1799 O   0  0  0  0  0  0  0  0  0  0  0  0
   27.8409  -21.5364   -9.8028 O   0  0  0  0  0  0  0  0  0  0  0  0
  2 12  2  0
  2  1  1  0
  3  2  1  0
  4  5  1  0
  4  3  2  0
  5 11  2  0
  6  5  1  0
  7  6  1  0
  7  8  1  1
  9 18  1  0
  9  7  1  0
 10  9  2  0
 11 12  1  0
 13 14  1  0
 15 16  1  1
 15 14  1  0
 17 18  1  6
 17 15  1  0
 19 17  1  0
 20 19  2  0
 22 21  1  6
 22 24  1  0
 23 22  1  0
 24 26  1  0
 24 25  1  6
 25 19  1  0
 26 27  1  0
 28 26  2  0
M  END
$$$$
