YIV.pdb
     RDKit          3D

 28 28  0  0  1  0  0  0  0  0999 V2000
   18.8888  -16.1206  -17.6154 O   0  0  0  0  0  0  0  0  0  0  0  0
   19.7235  -16.8633  -16.8051 C   0  0  0  0  0  0  0  0  0  0  0  0
   19.2301  -18.0324  -16.2252 C   0  0  0  0  0  0  0  0  0  0  0  0
   20.1075  -18.7341  -15.4255 C   0  0  0  0  0  0  0  0  0  0  0  0
   21.4033  -18.3200  -15.1993 C   0  0  0  0  0  0  0  0  0  0  0  0
   22.2806  -19.1260  -14.3307 C   0  0  0  0  0  0  0  0  0  0  0  0
   23.1790  -20.0447  -15.1334 C   0  0  2  0  0  0  0  0  0  0  0  0
   22.3406  -21.1155  -15.6399 N   0  0  0  0  0  0  0  0  0  0  0  0
   24.2152  -20.5858  -14.1912 C   0  0  0  0  0  0  0  0  0  0  0  0
   23.9074  -21.5863  -13.4826 O   0  0  0  0  0  0  0  0  0  0  0  0
   21.8746  -17.1654  -15.7781 C   0  0  0  0  0  0  0  0  0  0  0  0
   21.0069  -16.4417  -16.5886 C   0  0  0  0  0  0  0  0  0  0  0  0
   29.3420  -20.9506  -15.4952 C   0  0  0  0  0  0  0  0  0  0  0  0
   27.9135  -21.1873  -14.9710 C   0  0  0  0  0  0  0  0  0  0  0  0
   27.8078  -20.4326  -13.6960 C   0  0  2  0  0  0  0  0  0  0  0  0
   28.8225  -20.8386  -12.6619 C   0  0  0  0  0  0  0  0  0  0  0  0
   26.4221  -20.5554  -13.1021 C   0  0  2  0  0  0  0  0  0  0  0  0
   25.5031  -20.0060  -14.0861 N   0  0  0  0  0  0  0  0  0  0  0  0
   26.2582  -19.9258  -11.7889 C   0  0  0  0  0  0  0  0  0  0  0  0
   26.2731  -18.6822  -11.6579 O   0  0  0  0  0  0  0  0  0  0  0  0
   24.6124  -21.8340   -8.2444 C   0  0  0  0  0  0  0  0  0  0  0  0
   24.7401  -20.3601   -8.5489 C   0  0  2  0  0  0  0  0  0  0  0  0
   23.5852  -19.9569   -9.4315 C   0  0  0  0  0  0  0  0  0  0  0  0
   26.0197  -20.0823   -9.2810 C   0  0  2  0  0  0  0  0  0  0  0  0
   26.0732  -20.6756  -10.5871 N   0  0  0  0  0  0  0  0  0  0  0  0
   27.2142  -20.4049   -8.4611 C   0  0  0  0  0  0  0  0  0  0  0  0
   27.5631  -19.7100   -7.3249 O   0  0  0  0  0  0  0  0  0  0  0  0
   27.9613  -21.3636   -8.8088 O   0  0  0  0  0  0  0  0  0  0  0  0
  2 12  2  0
  2  1  1  0
  3  2  1  0
  4  5  1  0
  4  3  2  0
  5 11  2  0
  6  5  1  0
  7  6  1  0
  7  8  1  1
  9 18  1  0
  9  7  1  0
 10  9  2  0
 11 12  1  0
 13 14  1  0
 15 16  1  1
 15 14  1  0
 17 18  1  6
 17 15  1  0
 19 17  1  0
 20 19  2  0
 22 21  1  6
 22 24  1  0
 23 22  1  0
 24 26  1  0
 24 25  1  6
 25 19  1  0
 26 27  1  0
 28 26  2  0
M  END
$$$$
