YIV.pdb
     RDKit          3D

 28 28  0  0  1  0  0  0  0  0999 V2000
   16.2715  -24.3397  -13.8749 O   0  0  0  0  0  0  0  0  0  0  0  0
   17.4888  -23.6898  -13.9007 C   0  0  0  0  0  0  0  0  0  0  0  0
   17.5500  -22.3999  -14.4288 C   0  0  0  0  0  0  0  0  0  0  0  0
   18.7912  -21.7990  -14.4292 C   0  0  0  0  0  0  0  0  0  0  0  0
   19.9203  -22.4213  -13.9398 C   0  0  0  0  0  0  0  0  0  0  0  0
   21.2122  -21.7118  -13.9756 C   0  0  0  0  0  0  0  0  0  0  0  0
   21.5302  -21.0522  -12.6493 C   0  0  2  0  0  0  0  0  0  0  0  0
   20.6192  -19.9314  -12.5078 N   0  0  0  0  0  0  0  0  0  0  0  0
   22.9510  -20.5721  -12.7223 C   0  0  0  0  0  0  0  0  0  0  0  0
   23.1649  -19.4251  -13.2086 O   0  0  0  0  0  0  0  0  0  0  0  0
   19.8435  -23.6929  -13.4225 C   0  0  0  0  0  0  0  0  0  0  0  0
   18.6015  -24.3182  -13.4120 C   0  0  0  0  0  0  0  0  0  0  0  0
   26.2855  -21.1460   -8.7052 C   0  0  0  0  0  0  0  0  0  0  0  0
   25.4507  -20.6710   -9.9090 C   0  0  0  0  0  0  0  0  0  0  0  0
   26.1072  -21.2314  -11.1178 C   0  0  2  0  0  0  0  0  0  0  0  0
   27.5587  -20.8578  -11.2512 C   0  0  0  0  0  0  0  0  0  0  0  0
   25.3749  -20.8218  -12.3763 C   0  0  2  0  0  0  0  0  0  0  0  0
   24.0310  -21.3662  -12.2653 N   0  0  0  0  0  0  0  0  0  0  0  0
   26.0269  -21.2247  -13.6255 C   0  0  0  0  0  0  0  0  0  0  0  0
   26.1896  -22.4305  -13.9143 O   0  0  0  0  0  0  0  0  0  0  0  0
   28.4138  -18.5610  -16.1292 C   0  0  0  0  0  0  0  0  0  0  0  0
   27.4025  -19.5043  -16.7367 C   0  0  2  0  0  0  0  0  0  0  0  0
   26.1110  -18.7505  -16.9349 C   0  0  0  0  0  0  0  0  0  0  0  0
   27.1433  -20.6616  -15.8181 C   0  0  2  0  0  0  0  0  0  0  0  0
   26.5138  -20.2843  -14.5843 N   0  0  0  0  0  0  0  0  0  0  0  0
   28.3565  -21.4901  -15.6067 C   0  0  0  0  0  0  0  0  0  0  0  0
   28.7156  -22.5317  -16.4324 O   0  0  0  0  0  0  0  0  0  0  0  0
   29.1107  -21.2412  -14.6232 O   0  0  0  0  0  0  0  0  0  0  0  0
  2 12  2  0
  2  1  1  0
  3  2  1  0
  4  5  1  0
  4  3  2  0
  5 11  2  0
  6  5  1  0
  7  6  1  0
  7  8  1  6
  9 18  1  0
  9  7  1  0
 10  9  2  0
 11 12  1  0
 13 14  1  0
 15 16  1  6
 15 14  1  0
 17 18  1  1
 17 15  1  0
 19 17  1  0
 20 19  2  0
 22 21  1  1
 22 24  1  0
 23 22  1  0
 24 26  1  0
 24 25  1  1
 25 19  1  0
 26 27  1  0
 28 26  2  0
M  END
$$$$
