FMA.pdb
     RDKit          3D

 25 25  0  0  1  0  0  0  0  0999 V2000
   18.9102  -11.0737  -17.8204 N   0  0  0  0  0  0  0  0  0  0  0  0
   19.5412   -9.7732  -17.8743 C   0  0  1  0  0  0  0  0  0  0  0  0
   18.5290   -8.7815  -18.4245 C   0  0  0  0  0  0  0  0  0  0  0  0
   18.1919   -9.0944  -19.8361 C   0  0  0  0  0  0  0  0  0  0  0  0
   17.0386   -9.7727  -20.1745 C   0  0  0  0  0  0  0  0  0  0  0  0
   16.7343  -10.0588  -21.4898 C   0  0  0  0  0  0  0  0  0  0  0  0
   17.6405   -9.6329  -22.4501 C   0  0  0  0  0  0  0  0  0  0  0  0
   18.7948   -8.9566  -22.1410 C   0  0  0  0  0  0  0  0  0  0  0  0
   19.0612   -8.6915  -20.8218 C   0  0  0  0  0  0  0  0  0  0  0  0
   19.9344   -9.3794  -16.5186 C   0  0  0  0  0  0  0  0  0  0  0  0
   19.2463   -9.6446  -15.4857 O   0  0  0  0  0  0  0  0  0  0  0  0
   26.5533  -10.3600  -15.9751 C   0  0  0  0  0  0  0  0  0  0  0  0
   25.2188  -10.0892  -14.7867 S   0  0  0  0  0  0  0  0  0  0  0  0
   23.8612   -9.1116  -15.5251 C   0  0  0  0  0  0  0  0  0  0  0  0
   22.7774   -9.0151  -14.4969 C   0  0  0  0  0  0  0  0  0  0  0  0
   21.5818   -8.2266  -14.9867 C   0  0  2  0  0  0  0  0  0  0  0  0
   21.1444   -8.6566  -16.2749 N   0  0  0  0  0  0  0  0  0  0  0  0
   21.8664   -6.7822  -14.9152 C   0  0  0  0  0  0  0  0  0  0  0  0
   22.2234   -6.2131  -13.8548 O   0  0  0  0  0  0  0  0  0  0  0  0
   22.1898   -3.9028  -17.3066 C   0  0  0  0  0  0  0  0  0  0  0  0
   21.9026   -4.5298  -15.9712 C   0  0  2  0  0  0  0  0  0  0  0  0
   21.7391   -5.9787  -16.0790 N   0  0  0  0  0  0  0  0  0  0  0  0
   20.6591   -3.9609  -15.3778 C   0  0  0  0  0  0  0  0  0  0  0  0
   20.6449   -2.7565  -14.6981 O   0  0  0  0  0  0  0  0  0  0  0  0
   19.5657   -4.5691  -15.4787 O   0  0  0  0  0  0  0  0  0  0  0  0
  2  1  1  1
  3  4  1  0
  3  2  1  0
  4  9  2  0
  5  6  2  0
  5  4  1  0
  6  7  1  0
  7  8  2  0
  9  8  1  0
 10  2  1  0
 10 17  1  0
 11 10  2  0
 12 13  1  0
 13 14  1  0
 15 14  1  0
 16 17  1  0
 16 15  1  6
 18 19  2  0
 18 16  1  0
 21 20  1  6
 21 23  1  0
 21 22  1  0
 22 18  1  0
 23 24  1  0
 25 23  2  0
M  END
$$$$
