FMA.pdb
     RDKit          3D

 25 25  0  0  1  0  0  0  0  0999 V2000
   21.4073  -32.5096    2.5748 N   0  0  0  0  0  0  0  0  0  0  0  0
   21.8272  -31.4690    3.4876 C   0  0  1  0  0  0  0  0  0  0  0  0
   20.5828  -30.8708    4.1236 C   0  0  0  0  0  0  0  0  0  0  0  0
   20.6970  -29.3942    4.2276 C   0  0  0  0  0  0  0  0  0  0  0  0
   20.8288  -28.7597    5.4462 C   0  0  0  0  0  0  0  0  0  0  0  0
   20.9343  -27.3864    5.5322 C   0  0  0  0  0  0  0  0  0  0  0  0
   20.9014  -26.6789    4.3393 C   0  0  0  0  0  0  0  0  0  0  0  0
   20.7712  -27.2848    3.1140 C   0  0  0  0  0  0  0  0  0  0  0  0
   20.6692  -28.6520    3.0709 C   0  0  0  0  0  0  0  0  0  0  0  0
   22.6777  -32.0609    4.5239 C   0  0  0  0  0  0  0  0  0  0  0  0
   22.3990  -33.1445    5.1230 O   0  0  0  0  0  0  0  0  0  0  0  0
   29.5514  -32.1071    5.8873 C   0  0  0  0  0  0  0  0  0  0  0  0
   28.5714  -31.6882    4.4276 S   0  0  0  0  0  0  0  0  0  0  0  0
   26.8561  -32.3030    4.5814 C   0  0  0  0  0  0  0  0  0  0  0  0
   26.2133  -31.5420    5.6989 C   0  0  0  0  0  0  0  0  0  0  0  0
   24.7756  -31.9549    5.9301 C   0  0  2  0  0  0  0  0  0  0  0  0
   23.8994  -31.4376    4.9298 N   0  0  0  0  0  0  0  0  0  0  0  0
   24.3665  -31.6110    7.3037 C   0  0  0  0  0  0  0  0  0  0  0  0
   23.8145  -30.5217    7.5942 O   0  0  0  0  0  0  0  0  0  0  0  0
   24.0553  -33.3899   10.5946 C   0  0  0  0  0  0  0  0  0  0  0  0
   24.1956  -32.1752    9.7208 C   0  0  2  0  0  0  0  0  0  0  0  0
   24.5947  -32.5319    8.3602 N   0  0  0  0  0  0  0  0  0  0  0  0
   25.2138  -31.2395   10.2776 C   0  0  0  0  0  0  0  0  0  0  0  0
   24.9676  -30.4482   11.3848 O   0  0  0  0  0  0  0  0  0  0  0  0
   26.3476  -31.1393    9.7485 O   0  0  0  0  0  0  0  0  0  0  0  0
  2  1  1  6
  3  4  1  0
  3  2  1  0
  4  9  2  0
  5  6  2  0
  5  4  1  0
  6  7  1  0
  7  8  2  0
  9  8  1  0
 10  2  1  0
 10 17  1  0
 11 10  2  0
 12 13  1  0
 13 14  1  0
 15 14  1  0
 16 17  1  0
 16 15  1  6
 18 19  2  0
 18 16  1  0
 21 20  1  1
 21 23  1  0
 21 22  1  0
 22 18  1  0
 23 24  1  0
 25 23  2  0
M  END
$$$$
