FMA.pdb
     RDKit          3D

 25 25  0  0  1  0  0  0  0  0999 V2000
   28.0936  -20.0531  -15.5663 N   0  0  0  0  0  0  0  0  0  0  0  0
   27.3298  -19.2396  -14.6459 C   0  0  1  0  0  0  0  0  0  0  0  0
   26.3338  -18.4237  -15.4541 C   0  0  0  0  0  0  0  0  0  0  0  0
   27.0135  -17.3179  -16.1747 C   0  0  0  0  0  0  0  0  0  0  0  0
   27.3784  -17.4309  -17.5009 C   0  0  0  0  0  0  0  0  0  0  0  0
   28.0099  -16.3971  -18.1618 C   0  0  0  0  0  0  0  0  0  0  0  0
   28.2586  -15.2445  -17.4307 C   0  0  0  0  0  0  0  0  0  0  0  0
   27.9064  -15.1057  -16.1108 C   0  0  0  0  0  0  0  0  0  0  0  0
   27.2803  -16.1563  -15.4897 C   0  0  0  0  0  0  0  0  0  0  0  0
   26.6131  -20.1182  -13.7174 C   0  0  0  0  0  0  0  0  0  0  0  0
   26.1718  -21.2641  -14.0383 O   0  0  0  0  0  0  0  0  0  0  0  0
   27.8296  -20.4979   -7.3649 C   0  0  0  0  0  0  0  0  0  0  0  0
   26.0298  -20.6625   -7.3553 S   0  0  0  0  0  0  0  0  0  0  0  0
   25.3971  -21.1252   -9.0074 C   0  0  0  0  0  0  0  0  0  0  0  0
   25.9995  -20.1729   -9.9930 C   0  0  0  0  0  0  0  0  0  0  0  0
   25.6273  -20.5048  -11.4221 C   0  0  2  0  0  0  0  0  0  0  0  0
   26.3635  -19.7265  -12.3647 N   0  0  0  0  0  0  0  0  0  0  0  0
   24.1669  -20.4124  -11.5977 C   0  0  0  0  0  0  0  0  0  0  0  0
   23.5901  -19.3489  -11.9325 O   0  0  0  0  0  0  0  0  0  0  0  0
   21.4143  -20.1433  -10.8887 C   0  0  0  0  0  0  0  0  0  0  0  0
   21.9022  -21.4357  -11.4809 C   0  0  2  0  0  0  0  0  0  0  0  0
   23.3560  -21.5585  -11.3857 N   0  0  0  0  0  0  0  0  0  0  0  0
   21.5165  -21.5366  -12.9173 C   0  0  0  0  0  0  0  0  0  0  0  0
   22.4519  -21.6118  -13.9332 O   0  0  0  0  0  0  0  0  0  0  0  0
   20.3078  -21.5567  -13.2553 O   0  0  0  0  0  0  0  0  0  0  0  0
  2  1  1  6
  3  4  1  0
  3  2  1  0
  4  9  2  0
  5  6  2  0
  5  4  1  0
  6  7  1  0
  7  8  2  0
  9  8  1  0
 10  2  1  0
 10 17  1  0
 11 10  2  0
 12 13  1  0
 13 14  1  0
 15 14  1  0
 16 17  1  0
 16 15  1  1
 18 19  2  0
 18 16  1  0
 21 20  1  6
 21 23  1  0
 21 22  1  0
 22 18  1  0
 23 24  1  0
 25 23  2  0
M  END
$$$$
