FMA.pdb
     RDKit          3D

 25 25  0  0  1  0  0  0  0  0999 V2000
   28.5307  -20.9799  -15.2817 N   0  0  0  0  0  0  0  0  0  0  0  0
   27.6657  -20.0685  -14.5651 C   0  0  1  0  0  0  0  0  0  0  0  0
   26.8654  -19.2775  -15.5872 C   0  0  0  0  0  0  0  0  0  0  0  0
   27.6941  -18.2082  -16.1987 C   0  0  0  0  0  0  0  0  0  0  0  0
   28.3109  -18.3768  -17.4218 C   0  0  0  0  0  0  0  0  0  0  0  0
   29.0792  -17.3765  -17.9817 C   0  0  0  0  0  0  0  0  0  0  0  0
   29.2003  -16.1991  -17.2578 C   0  0  0  0  0  0  0  0  0  0  0  0
   28.5977  -16.0052  -16.0394 C   0  0  0  0  0  0  0  0  0  0  0  0
   27.8422  -17.0237  -15.5168 C   0  0  0  0  0  0  0  0  0  0  0  0
   26.7568  -20.8442  -13.7167 C   0  0  0  0  0  0  0  0  0  0  0  0
   26.2280  -21.9402  -14.0769 O   0  0  0  0  0  0  0  0  0  0  0  0
   25.7834  -19.4958   -7.4158 C   0  0  0  0  0  0  0  0  0  0  0  0
   26.9881  -20.7891   -7.7930 S   0  0  0  0  0  0  0  0  0  0  0  0
   26.8847  -21.3016   -9.5452 C   0  0  0  0  0  0  0  0  0  0  0  0
   25.6335  -20.7015  -10.1071 C   0  0  0  0  0  0  0  0  0  0  0  0
   25.4360  -21.0362  -11.5700 C   0  0  2  0  0  0  0  0  0  0  0  0
   26.4047  -20.4011  -12.4031 N   0  0  0  0  0  0  0  0  0  0  0  0
   24.0449  -20.7558  -11.9684 C   0  0  0  0  0  0  0  0  0  0  0  0
   23.5806  -19.5916  -12.0366 O   0  0  0  0  0  0  0  0  0  0  0  0
   21.4116  -22.5624  -13.8354 C   0  0  0  0  0  0  0  0  0  0  0  0
   21.8437  -21.5357  -12.8264 C   0  0  2  0  0  0  0  0  0  0  0  0
   23.1734  -21.8286  -12.2935 N   0  0  0  0  0  0  0  0  0  0  0  0
   20.8842  -21.4795  -11.6869 C   0  0  0  0  0  0  0  0  0  0  0  0
   19.5677  -21.0860  -11.8440 O   0  0  0  0  0  0  0  0  0  0  0  0
   21.2488  -21.7937  -10.5276 O   0  0  0  0  0  0  0  0  0  0  0  0
  2  1  1  6
  3  4  1  0
  3  2  1  0
  4  9  2  0
  5  6  2  0
  5  4  1  0
  6  7  1  0
  7  8  2  0
  9  8  1  0
 10  2  1  0
 10 17  1  0
 11 10  2  0
 12 13  1  0
 13 14  1  0
 15 14  1  0
 16 17  1  0
 16 15  1  1
 18 19  2  0
 18 16  1  0
 21 20  1  6
 21 23  1  0
 21 22  1  0
 22 18  1  0
 23 24  1  0
 25 23  2  0
M  END
$$$$
