FMA.pdb
     RDKit          3D

 25 25  0  0  1  0  0  0  0  0999 V2000
   25.9504  -21.1504  -12.7157 N   0  0  0  0  0  0  0  0  0  0  0  0
   25.2942  -20.3768  -11.6845 C   0  0  1  0  0  0  0  0  0  0  0  0
   23.7933  -20.5562  -11.8449 C   0  0  0  0  0  0  0  0  0  0  0  0
   23.3182  -19.9489  -13.1136 C   0  0  0  0  0  0  0  0  0  0  0  0
   23.5392  -18.6192  -13.4100 C   0  0  0  0  0  0  0  0  0  0  0  0
   23.0935  -18.0641  -14.5922 C   0  0  0  0  0  0  0  0  0  0  0  0
   22.4157  -18.9046  -15.4635 C   0  0  0  0  0  0  0  0  0  0  0  0
   22.1824  -20.2305  -15.1934 C   0  0  0  0  0  0  0  0  0  0  0  0
   22.6415  -20.7444  -14.0074 C   0  0  0  0  0  0  0  0  0  0  0  0
   25.7160  -20.8780  -10.3736 C   0  0  0  0  0  0  0  0  0  0  0  0
   25.6215  -22.0951  -10.0265 O   0  0  0  0  0  0  0  0  0  0  0  0
   28.1316  -17.7987   -3.8598 C   0  0  0  0  0  0  0  0  0  0  0  0
   28.9669  -18.4319   -5.3322 S   0  0  0  0  0  0  0  0  0  0  0  0
   28.0471  -19.8313   -6.0665 C   0  0  0  0  0  0  0  0  0  0  0  0
   27.5650  -19.3850   -7.4116 C   0  0  0  0  0  0  0  0  0  0  0  0
   26.6887  -20.4186   -8.0861 C   0  0  2  0  0  0  0  0  0  0  0  0
   26.2715  -20.0048   -9.3863 N   0  0  0  0  0  0  0  0  0  0  0  0
   25.5700  -20.7872   -7.2002 C   0  0  0  0  0  0  0  0  0  0  0  0
   24.4756  -20.1723   -7.1983 O   0  0  0  0  0  0  0  0  0  0  0  0
   24.6002  -23.7299   -5.1360 C   0  0  0  0  0  0  0  0  0  0  0  0
   24.5787  -22.2623   -5.4592 C   0  0  2  0  0  0  0  0  0  0  0  0
   25.7097  -21.8785   -6.3026 N   0  0  0  0  0  0  0  0  0  0  0  0
   24.6263  -21.4468   -4.2122 C   0  0  0  0  0  0  0  0  0  0  0  0
   23.5708  -21.3928   -3.3201 O   0  0  0  0  0  0  0  0  0  0  0  0
   25.6453  -20.7712   -3.9282 O   0  0  0  0  0  0  0  0  0  0  0  0
  2  1  1  6
  3  4  1  0
  3  2  1  0
  4  9  2  0
  5  6  2  0
  5  4  1  0
  6  7  1  0
  7  8  2  0
  9  8  1  0
 10  2  1  0
 10 17  1  0
 11 10  2  0
 12 13  1  0
 13 14  1  0
 15 14  1  0
 16 17  1  0
 16 15  1  1
 18 19  2  0
 18 16  1  0
 21 20  1  1
 21 23  1  0
 21 22  1  0
 22 18  1  0
 23 24  1  0
 25 23  2  0
M  END
$$$$
