FMA.pdb
     RDKit          3D

 25 25  0  0  1  0  0  0  0  0999 V2000
   24.4200  -31.8506   -5.0234 N   0  0  0  0  0  0  0  0  0  0  0  0
   25.0547  -33.1398   -4.8580 C   0  0  1  0  0  0  0  0  0  0  0  0
   26.3961  -33.0990   -5.5720 C   0  0  0  0  0  0  0  0  0  0  0  0
   26.2254  -33.2895   -7.0344 C   0  0  0  0  0  0  0  0  0  0  0  0
   25.7149  -34.4590   -7.5601 C   0  0  0  0  0  0  0  0  0  0  0  0
   25.5602  -34.6262   -8.9212 C   0  0  0  0  0  0  0  0  0  0  0  0
   25.9413  -33.5658   -9.7307 C   0  0  0  0  0  0  0  0  0  0  0  0
   26.4518  -32.3919   -9.2340 C   0  0  0  0  0  0  0  0  0  0  0  0
   26.5900  -32.2649   -7.8753 C   0  0  0  0  0  0  0  0  0  0  0  0
   25.2615  -33.3876   -3.4285 C   0  0  0  0  0  0  0  0  0  0  0  0
   25.8321  -32.5627   -2.6509 O   0  0  0  0  0  0  0  0  0  0  0  0
   21.2242  -34.7874    1.6110 C   0  0  0  0  0  0  0  0  0  0  0  0
   21.0533  -34.2498   -0.1060 S   0  0  0  0  0  0  0  0  0  0  0  0
   22.6767  -33.8266   -0.8334 C   0  0  0  0  0  0  0  0  0  0  0  0
   23.5085  -35.0710   -0.8097 C   0  0  0  0  0  0  0  0  0  0  0  0
   24.8820  -34.8621   -1.4107 C   0  0  2  0  0  0  0  0  0  0  0  0
   24.8223  -34.6013   -2.8122 N   0  0  0  0  0  0  0  0  0  0  0  0
   25.7629  -35.9906   -1.0605 C   0  0  0  0  0  0  0  0  0  0  0  0
   25.8585  -37.0218   -1.7700 O   0  0  0  0  0  0  0  0  0  0  0  0
   28.5649  -36.6054    1.3452 C   0  0  0  0  0  0  0  0  0  0  0  0
   27.4488  -37.0409    0.4376 C   0  0  2  0  0  0  0  0  0  0  0  0
   26.5463  -35.9346    0.1224 N   0  0  0  0  0  0  0  0  0  0  0  0
   26.6512  -38.1311    1.0680 C   0  0  0  0  0  0  0  0  0  0  0  0
   27.1576  -39.4032    1.2636 O   0  0  0  0  0  0  0  0  0  0  0  0
   25.4729  -37.9241    1.4480 O   0  0  0  0  0  0  0  0  0  0  0  0
  2  1  1  1
  3  4  1  0
  3  2  1  0
  4  9  2  0
  5  6  2  0
  5  4  1  0
  6  7  1  0
  7  8  2  0
  9  8  1  0
 10  2  1  0
 10 17  1  0
 11 10  2  0
 12 13  1  0
 13 14  1  0
 15 14  1  0
 16 17  1  0
 16 15  1  6
 18 19  2  0
 18 16  1  0
 21 20  1  1
 21 23  1  0
 21 22  1  0
 22 18  1  0
 23 24  1  0
 25 23  2  0
M  END
$$$$
