FMA.pdb
     RDKit          3D

 25 25  0  0  1  0  0  0  0  0999 V2000
   22.1749  -12.5725  -13.9779 N   0  0  0  0  0  0  0  0  0  0  0  0
   22.7880  -11.5267  -14.7669 C   0  0  1  0  0  0  0  0  0  0  0  0
   23.0944  -12.0940  -16.1435 C   0  0  0  0  0  0  0  0  0  0  0  0
   24.3676  -12.8576  -16.1321 C   0  0  0  0  0  0  0  0  0  0  0  0
   24.3924  -14.2310  -16.2660 C   0  0  0  0  0  0  0  0  0  0  0  0
   25.5813  -14.9315  -16.2541 C   0  0  0  0  0  0  0  0  0  0  0  0
   26.7443  -14.1906  -16.1016 C   0  0  0  0  0  0  0  0  0  0  0  0
   26.7480  -12.8242  -15.9664 C   0  0  0  0  0  0  0  0  0  0  0  0
   25.5455  -12.1646  -15.9833 C   0  0  0  0  0  0  0  0  0  0  0  0
   21.8467  -10.4101  -14.8894 C   0  0  0  0  0  0  0  0  0  0  0  0
   20.5870  -10.5586  -14.9324 O   0  0  0  0  0  0  0  0  0  0  0  0
   23.6648   -3.8809  -15.3156 C   0  0  0  0  0  0  0  0  0  0  0  0
   22.2803   -4.0045  -14.1605 S   0  0  0  0  0  0  0  0  0  0  0  0
   21.2472   -5.4704  -14.5177 C   0  0  0  0  0  0  0  0  0  0  0  0
   22.1698   -6.6441  -14.6274 C   0  0  0  0  0  0  0  0  0  0  0  0
   21.4459   -7.9172  -15.0099 C   0  0  2  0  0  0  0  0  0  0  0  0
   22.3033   -9.0570  -14.9692 N   0  0  0  0  0  0  0  0  0  0  0  0
   20.7648   -7.7408  -16.3050 C   0  0  0  0  0  0  0  0  0  0  0  0
   21.3631   -7.8367  -17.4044 O   0  0  0  0  0  0  0  0  0  0  0  0
   17.2168   -7.2038  -17.4786 C   0  0  0  0  0  0  0  0  0  0  0  0
   18.7104   -7.2760  -17.6291 C   0  0  2  0  0  0  0  0  0  0  0  0
   19.3754   -7.4499  -16.3386 N   0  0  0  0  0  0  0  0  0  0  0  0
   19.2373   -6.0344  -18.2641 C   0  0  0  0  0  0  0  0  0  0  0  0
   19.4770   -5.9401  -19.6229 O   0  0  0  0  0  0  0  0  0  0  0  0
   19.4842   -5.0170  -17.5716 O   0  0  0  0  0  0  0  0  0  0  0  0
  2  1  1  1
  3  4  1  0
  3  2  1  0
  4  9  2  0
  5  6  2  0
  5  4  1  0
  6  7  1  0
  7  8  2  0
  9  8  1  0
 10  2  1  0
 10 17  1  0
 11 10  2  0
 12 13  1  0
 13 14  1  0
 15 14  1  0
 16 17  1  0
 16 15  1  6
 18 19  2  0
 18 16  1  0
 21 20  1  1
 21 23  1  0
 21 22  1  0
 22 18  1  0
 23 24  1  0
 25 23  2  0
M  END
$$$$
