FMA.pdb
     RDKit          3D

 25 25  0  0  1  0  0  0  0  0999 V2000
   25.8847  -10.5577  -18.8980 N   0  0  0  0  0  0  0  0  0  0  0  0
   25.2530   -9.8562  -17.8019 C   0  0  1  0  0  0  0  0  0  0  0  0
   26.3478   -9.2985  -16.9068 C   0  0  0  0  0  0  0  0  0  0  0  0
   27.1888  -10.3897  -16.3535 C   0  0  0  0  0  0  0  0  0  0  0  0
   26.6745  -11.3385  -15.4932 C   0  0  0  0  0  0  0  0  0  0  0  0
   27.4647  -12.3490  -14.9844 C   0  0  0  0  0  0  0  0  0  0  0  0
   28.7949  -12.3638  -15.3785 C   0  0  0  0  0  0  0  0  0  0  0  0
   29.3319  -11.4326  -16.2328 C   0  0  0  0  0  0  0  0  0  0  0  0
   28.5135  -10.4440  -16.7168 C   0  0  0  0  0  0  0  0  0  0  0  0
   24.4473   -8.7578  -18.3423 C   0  0  0  0  0  0  0  0  0  0  0  0
   24.8776   -7.9340  -19.2066 O   0  0  0  0  0  0  0  0  0  0  0  0
   18.6861  -10.5875  -18.8165 C   0  0  0  0  0  0  0  0  0  0  0  0
   19.2592   -9.7158  -20.2924 S   0  0  0  0  0  0  0  0  0  0  0  0
   20.9334   -9.0231  -20.0455 C   0  0  0  0  0  0  0  0  0  0  0  0
   20.8728   -8.1435  -18.8356 C   0  0  0  0  0  0  0  0  0  0  0  0
   22.2229   -7.5640  -18.4715 C   0  0  2  0  0  0  0  0  0  0  0  0
   23.0981   -8.5453  -17.9175 N   0  0  0  0  0  0  0  0  0  0  0  0
   22.0484   -6.3802  -17.6110 C   0  0  0  0  0  0  0  0  0  0  0  0
   22.0043   -6.4528  -16.3586 O   0  0  0  0  0  0  0  0  0  0  0  0
   21.9911   -2.6416  -18.1256 C   0  0  0  0  0  0  0  0  0  0  0  0
   21.8734   -3.9139  -17.3343 C   0  0  2  0  0  0  0  0  0  0  0  0
   21.9227   -5.0931  -18.1973 N   0  0  0  0  0  0  0  0  0  0  0  0
   20.5928   -3.9445  -16.5719 C   0  0  0  0  0  0  0  0  0  0  0  0
   20.4165   -3.2497  -15.3892 O   0  0  0  0  0  0  0  0  0  0  0  0
   19.6164   -4.6146  -16.9881 O   0  0  0  0  0  0  0  0  0  0  0  0
  2  1  1  6
  3  4  1  0
  3  2  1  0
  4  9  2  0
  5  6  2  0
  5  4  1  0
  6  7  1  0
  7  8  2  0
  9  8  1  0
 10  2  1  0
 10 17  1  0
 11 10  2  0
 12 13  1  0
 13 14  1  0
 15 14  1  0
 16 17  1  0
 16 15  1  1
 18 19  2  0
 18 16  1  0
 21 20  1  6
 21 23  1  0
 21 22  1  0
 22 18  1  0
 23 24  1  0
 25 23  2  0
M  END
$$$$
