FYD.pdb
     RDKit          3D

 32 33  0  0  1  0  0  0  0  0999 V2000
   22.2481    2.8196    0.9370 N   0  0  0  0  0  0  0  0  0  0  0  0
   22.9878    1.6265    1.1912 C   0  0  1  0  0  0  0  0  0  0  0  0
   24.4308    1.8353    0.8217 C   0  0  0  0  0  0  0  0  0  0  0  0
   24.8257    0.6722   -0.0286 C   0  0  0  0  0  0  0  0  0  0  0  0
   25.3564   -0.4795    0.5282 C   0  0  0  0  0  0  0  0  0  0  0  0
   25.7284   -1.5652   -0.2362 C   0  0  0  0  0  0  0  0  0  0  0  0
   25.5817   -1.5407   -1.6072 C   0  0  0  0  0  0  0  0  0  0  0  0
   25.0544   -0.3986   -2.1690 C   0  0  0  0  0  0  0  0  0  0  0  0
   24.6803    0.6931   -1.4007 C   0  0  0  0  0  0  0  0  0  0  0  0
   22.8282    1.2123    2.6237 C   0  0  0  0  0  0  0  0  0  0  0  0
   22.4934    2.0952    3.4331 O   0  0  0  0  0  0  0  0  0  0  0  0
   21.5011   -3.1746   10.0419 O   0  0  0  0  0  0  0  0  0  0  0  0
   21.7191   -2.8568    8.7008 C   0  0  0  0  0  0  0  0  0  0  0  0
   22.9377   -3.1276    8.1289 C   0  0  0  0  0  0  0  0  0  0  0  0
   23.1996   -2.8309    6.8057 C   0  0  0  0  0  0  0  0  0  0  0  0
   22.2037   -2.2445    6.0385 C   0  0  0  0  0  0  0  0  0  0  0  0
   22.4868   -1.9263    4.6143 C   0  0  0  0  0  0  0  0  0  0  0  0
   22.9299   -0.5219    4.4079 C   0  0  2  0  0  0  0  0  0  0  0  0
   23.0443   -0.1107    3.0449 N   0  0  0  0  0  0  0  0  0  0  0  0
   24.0567   -0.0976    5.2909 C   0  0  0  0  0  0  0  0  0  0  0  0
   25.2605   -0.1740    4.9472 O   0  0  0  0  0  0  0  0  0  0  0  0
   20.9670   -1.9696    6.6186 C   0  0  0  0  0  0  0  0  0  0  0  0
   20.7137   -2.2693    7.9415 C   0  0  0  0  0  0  0  0  0  0  0  0
   23.8245    0.4259    6.5931 N   0  0  0  0  0  0  0  0  0  0  0  0
   24.8884    0.8501    7.4822 C   0  0  1  0  0  0  0  0  0  0  0  0
   25.3184    2.2685    7.2131 C   0  0  0  0  0  0  0  0  0  0  0  0
   26.3950    2.6851    8.1342 C   0  0  0  0  0  0  0  0  0  0  0  0
   26.3192    2.6827    9.3879 O   0  0  0  0  0  0  0  0  0  0  0  0
   24.4648    0.5905    8.8640 C   0  0  0  0  0  0  0  0  0  0  0  0
   25.2490   -0.1643    9.7033 O   0  0  0  0  0  0  0  0  0  0  0  0
   27.6003    3.1194    7.5992 O   0  0  0  0  0  0  0  0  0  0  0  0
   23.3895    1.0538    9.2853 O   0  0  0  0  0  0  0  0  0  0  0  0
  2  1  1  1
  2  3  1  0
  3  4  1  0
  4  5  2  0
  5  6  1  0
  7  6  2  0
  8  7  1  0
  9  8  2  0
  9  4  1  0
 10  2  1  0
 11 10  2  0
 13 23  2  0
 13 12  1  0
 14 13  1  0
 15 16  1  0
 15 14  2  0
 16 22  2  0
 17 16  1  0
 18 19  1  0
 18 17  1  6
 19 10  1  0
 20 18  1  0
 21 20  2  0
 22 23  1  0
 24 20  1  0
 25 29  1  0
 25 24  1  0
 26 27  1  0
 25 26  1  1
 27 28  2  0
 29 30  1  0
 31 27  1  0
 32 29  2  0
M  END
$$$$
