FYD.pdb
     RDKit          3D

 32 33  0  0  1  0  0  0  0  0999 V2000
   28.5480  -22.5283  -18.0942 N   0  0  0  0  0  0  0  0  0  0  0  0
   28.0595  -21.2774  -17.6127 C   0  0  1  0  0  0  0  0  0  0  0  0
   27.1373  -20.6663  -18.6318 C   0  0  0  0  0  0  0  0  0  0  0  0
   28.0029  -20.1498  -19.7344 C   0  0  0  0  0  0  0  0  0  0  0  0
   28.7884  -19.0218  -19.5650 C   0  0  0  0  0  0  0  0  0  0  0  0
   29.5947  -18.5264  -20.5680 C   0  0  0  0  0  0  0  0  0  0  0  0
   29.6473  -19.1492  -21.7973 C   0  0  0  0  0  0  0  0  0  0  0  0
   28.8688  -20.2721  -21.9740 C   0  0  0  0  0  0  0  0  0  0  0  0
   28.0581  -20.7703  -20.9658 C   0  0  0  0  0  0  0  0  0  0  0  0
   27.3882  -21.4590  -16.2841 C   0  0  0  0  0  0  0  0  0  0  0  0
   26.6949  -22.4812  -16.1364 O   0  0  0  0  0  0  0  0  0  0  0  0
   24.5067  -20.6059   -8.0567 O   0  0  0  0  0  0  0  0  0  0  0  0
   25.2386  -20.4639   -9.2363 C   0  0  0  0  0  0  0  0  0  0  0  0
   25.0688  -19.3419  -10.0092 C   0  0  0  0  0  0  0  0  0  0  0  0
   25.7708  -19.1577  -11.1842 C   0  0  0  0  0  0  0  0  0  0  0  0
   26.6693  -20.1336  -11.5903 C   0  0  0  0  0  0  0  0  0  0  0  0
   27.4246  -19.9338  -12.8549 C   0  0  0  0  0  0  0  0  0  0  0  0
   26.7922  -20.6018  -14.0232 C   0  0  2  0  0  0  0  0  0  0  0  0
   27.5283  -20.5239  -15.2448 N   0  0  0  0  0  0  0  0  0  0  0  0
   25.3261  -20.3519  -14.1540 C   0  0  0  0  0  0  0  0  0  0  0  0
   24.8532  -19.3478  -14.7382 O   0  0  0  0  0  0  0  0  0  0  0  0
   26.8417  -21.2724  -10.8062 C   0  0  0  0  0  0  0  0  0  0  0  0
   26.1362  -21.4484   -9.6334 C   0  0  0  0  0  0  0  0  0  0  0  0
   24.3669  -21.2534  -13.6143 N   0  0  0  0  0  0  0  0  0  0  0  0
   22.9353  -21.0434  -13.7086 C   0  0  1  0  0  0  0  0  0  0  0  0
   22.2501  -22.1507  -14.4660 C   0  0  0  0  0  0  0  0  0  0  0  0
   21.3616  -21.6112  -15.5151 C   0  0  0  0  0  0  0  0  0  0  0  0
   21.1871  -20.3923  -15.7624 O   0  0  0  0  0  0  0  0  0  0  0  0
   22.4136  -20.8131  -12.3555 C   0  0  0  0  0  0  0  0  0  0  0  0
   22.9926  -21.4278  -11.2712 O   0  0  0  0  0  0  0  0  0  0  0  0
   20.6487  -22.5003  -16.3080 O   0  0  0  0  0  0  0  0  0  0  0  0
   21.4406  -20.0573  -12.1815 O   0  0  0  0  0  0  0  0  0  0  0  0
  2  1  1  6
  2  3  1  0
  3  4  1  0
  4  5  2  0
  5  6  1  0
  7  6  2  0
  8  7  1  0
  9  8  2  0
  9  4  1  0
 10  2  1  0
 11 10  2  0
 13 23  2  0
 13 12  1  0
 14 13  1  0
 15 16  1  0
 15 14  2  0
 16 22  2  0
 17 16  1  0
 18 19  1  0
 18 17  1  1
 19 10  1  0
 20 18  1  0
 21 20  2  0
 22 23  1  0
 24 20  1  0
 25 29  1  0
 25 24  1  0
 26 27  1  0
 25 26  1  1
 27 28  2  0
 29 30  1  0
 31 27  1  0
 32 29  2  0
M  END
$$$$
