FYD.pdb
     RDKit          3D

 32 33  0  0  1  0  0  0  0  0999 V2000
   20.5607  -31.4372  -10.7038 N   0  0  0  0  0  0  0  0  0  0  0  0
   21.6639  -30.7110  -10.1644 C   0  0  1  0  0  0  0  0  0  0  0  0
   21.1588  -29.5698   -9.3249 C   0  0  0  0  0  0  0  0  0  0  0  0
   20.5163  -28.6017  -10.2639 C   0  0  0  0  0  0  0  0  0  0  0  0
   19.1751  -28.2742  -10.1541 C   0  0  0  0  0  0  0  0  0  0  0  0
   18.5602  -27.3840  -11.0091 C   0  0  0  0  0  0  0  0  0  0  0  0
   19.2736  -26.7778  -12.0218 C   0  0  0  0  0  0  0  0  0  0  0  0
   20.6086  -27.0982  -12.1378 C   0  0  0  0  0  0  0  0  0  0  0  0
   21.2268  -27.9931  -11.2783 C   0  0  0  0  0  0  0  0  0  0  0  0
   22.5586  -31.6289   -9.3860 C   0  0  0  0  0  0  0  0  0  0  0  0
   22.0333  -32.6385   -8.8843 O   0  0  0  0  0  0  0  0  0  0  0  0
   29.2275  -36.5229   -6.7936 O   0  0  0  0  0  0  0  0  0  0  0  0
   28.4756  -35.4925   -7.3595 C   0  0  0  0  0  0  0  0  0  0  0  0
   28.4198  -34.2712   -6.7345 C   0  0  0  0  0  0  0  0  0  0  0  0
   27.6889  -33.2222   -7.2567 C   0  0  0  0  0  0  0  0  0  0  0  0
   26.9950  -33.4112   -8.4429 C   0  0  0  0  0  0  0  0  0  0  0  0
   26.2094  -32.2811   -9.0042 C   0  0  0  0  0  0  0  0  0  0  0  0
   24.8072  -32.2441   -8.5103 C   0  0  2  0  0  0  0  0  0  0  0  0
   23.9303  -31.3710   -9.2236 N   0  0  0  0  0  0  0  0  0  0  0  0
   24.6812  -32.1870   -7.0237 C   0  0  0  0  0  0  0  0  0  0  0  0
   24.9366  -31.1570   -6.3551 O   0  0  0  0  0  0  0  0  0  0  0  0
   27.0515  -34.6505   -9.0774 C   0  0  0  0  0  0  0  0  0  0  0  0
   27.7842  -35.6934   -8.5487 C   0  0  0  0  0  0  0  0  0  0  0  0
   24.2574  -33.3162   -6.2693 N   0  0  0  0  0  0  0  0  0  0  0  0
   24.0848  -33.2931   -4.8298 C   0  0  1  0  0  0  0  0  0  0  0  0
   22.8211  -33.9915   -4.4005 C   0  0  0  0  0  0  0  0  0  0  0  0
   22.6752  -33.9781   -2.9309 C   0  0  0  0  0  0  0  0  0  0  0  0
   22.7997  -32.9656   -2.1983 O   0  0  0  0  0  0  0  0  0  0  0  0
   25.3113  -33.8113   -4.2107 C   0  0  0  0  0  0  0  0  0  0  0  0
   25.9221  -34.9370   -4.7096 O   0  0  0  0  0  0  0  0  0  0  0  0
   22.3760  -35.1668   -2.2791 O   0  0  0  0  0  0  0  0  0  0  0  0
   25.8073  -33.2326   -3.2271 O   0  0  0  0  0  0  0  0  0  0  0  0
  2  1  1  1
  2  3  1  0
  3  4  1  0
  4  5  2  0
  5  6  1  0
  7  6  2  0
  8  7  1  0
  9  8  2  0
  9  4  1  0
 10  2  1  0
 11 10  2  0
 13 23  2  0
 13 12  1  0
 14 13  1  0
 15 16  1  0
 15 14  2  0
 16 22  2  0
 17 16  1  0
 18 19  1  0
 18 17  1  1
 19 10  1  0
 20 18  1  0
 21 20  2  0
 22 23  1  0
 24 20  1  0
 25 29  1  0
 25 24  1  0
 26 27  1  0
 25 26  1  6
 27 28  2  0
 29 30  1  0
 31 27  1  0
 32 29  2  0
M  END
$$$$
