FYD.pdb
     RDKit          3D

 32 33  0  0  1  0  0  0  0  0999 V2000
   24.4084  -20.7534  -19.2957 N   0  0  0  0  0  0  0  0  0  0  0  0
   23.5728  -19.8464  -18.5786 C   0  0  1  0  0  0  0  0  0  0  0  0
   22.2729  -19.6645  -19.3132 C   0  0  0  0  0  0  0  0  0  0  0  0
   22.6008  -18.9692  -20.5941 C   0  0  0  0  0  0  0  0  0  0  0  0
   22.5534  -19.6351  -21.8075 C   0  0  0  0  0  0  0  0  0  0  0  0
   22.8520  -19.0146  -23.0022 C   0  0  0  0  0  0  0  0  0  0  0  0
   23.2149  -17.6844  -23.0299 C   0  0  0  0  0  0  0  0  0  0  0  0
   23.2644  -17.0146  -21.8268 C   0  0  0  0  0  0  0  0  0  0  0  0
   22.9642  -17.6383  -20.6257 C   0  0  0  0  0  0  0  0  0  0  0  0
   23.3627  -20.3327  -17.1756 C   0  0  0  0  0  0  0  0  0  0  0  0
   23.0809  -21.5355  -17.0310 O   0  0  0  0  0  0  0  0  0  0  0  0
   23.0846  -21.2963   -8.4982 O   0  0  0  0  0  0  0  0  0  0  0  0
   23.2704  -20.7526   -9.7698 C   0  0  0  0  0  0  0  0  0  0  0  0
   24.3308  -21.1678  -10.5369 C   0  0  0  0  0  0  0  0  0  0  0  0
   24.5549  -20.6583  -11.8008 C   0  0  0  0  0  0  0  0  0  0  0  0
   23.6843  -19.7029  -12.3045 C   0  0  0  0  0  0  0  0  0  0  0  0
   23.9263  -19.1559  -13.6653 C   0  0  0  0  0  0  0  0  0  0  0  0
   23.1984  -19.8970  -14.7293 C   0  0  2  0  0  0  0  0  0  0  0  0
   23.4764  -19.4780  -16.0662 N   0  0  0  0  0  0  0  0  0  0  0  0
   21.7554  -20.1387  -14.4318 C   0  0  0  0  0  0  0  0  0  0  0  0
   20.8513  -19.3187  -14.7202 O   0  0  0  0  0  0  0  0  0  0  0  0
   22.6080  -19.2814  -11.5263 C   0  0  0  0  0  0  0  0  0  0  0  0
   22.3914  -19.7958  -10.2643 C   0  0  0  0  0  0  0  0  0  0  0  0
   21.3174  -21.3325  -13.7939 N   0  0  0  0  0  0  0  0  0  0  0  0
   19.9239  -21.6221  -13.5166 C   0  0  1  0  0  0  0  0  0  0  0  0
   19.5338  -23.0061  -13.9654 C   0  0  0  0  0  0  0  0  0  0  0  0
   18.1011  -23.2649  -13.7178 C   0  0  0  0  0  0  0  0  0  0  0  0
   17.2980  -22.4565  -13.1896 O   0  0  0  0  0  0  0  0  0  0  0  0
   19.6695  -21.3442  -12.0974 C   0  0  0  0  0  0  0  0  0  0  0  0
   18.7887  -20.3560  -11.7277 O   0  0  0  0  0  0  0  0  0  0  0  0
   17.5709  -24.4932  -14.0889 O   0  0  0  0  0  0  0  0  0  0  0  0
   20.2516  -22.0040  -11.2175 O   0  0  0  0  0  0  0  0  0  0  0  0
  2  1  1  6
  2  3  1  0
  3  4  1  0
  4  5  2  0
  5  6  1  0
  7  6  2  0
  8  7  1  0
  9  8  2  0
  9  4  1  0
 10  2  1  0
 11 10  2  0
 13 23  2  0
 13 12  1  0
 14 13  1  0
 15 16  1  0
 15 14  2  0
 16 22  2  0
 17 16  1  0
 18 19  1  0
 18 17  1  1
 19 10  1  0
 20 18  1  0
 21 20  2  0
 22 23  1  0
 24 20  1  0
 25 29  1  0
 25 24  1  0
 26 27  1  0
 25 26  1  1
 27 28  2  0
 29 30  1  0
 31 27  1  0
 32 29  2  0
M  END
$$$$
