FYD.pdb
     RDKit          3D

 32 33  0  0  1  0  0  0  0  0999 V2000
   39.2589  -24.0545    5.1933 N   0  0  0  0  0  0  0  0  0  0  0  0
   38.0156  -24.7254    4.9950 C   0  0  1  0  0  0  0  0  0  0  0  0
   38.1831  -26.1955    5.2653 C   0  0  0  0  0  0  0  0  0  0  0  0
   37.9771  -26.8948    3.9614 C   0  0  0  0  0  0  0  0  0  0  0  0
   39.0214  -27.0798    3.0706 C   0  0  0  0  0  0  0  0  0  0  0  0
   38.8554  -27.7216    1.8615 C   0  0  0  0  0  0  0  0  0  0  0  0
   37.6202  -28.2106    1.4911 C   0  0  0  0  0  0  0  0  0  0  0  0
   36.5760  -28.0308    2.3717 C   0  0  0  0  0  0  0  0  0  0  0  0
   36.7428  -27.3855    3.5873 C   0  0  0  0  0  0  0  0  0  0  0  0
   36.9520  -24.1127    5.8567 C   0  0  0  0  0  0  0  0  0  0  0  0
   37.1733  -24.0663    7.0798 O   0  0  0  0  0  0  0  0  0  0  0  0
   30.0709  -19.7900    8.9945 O   0  0  0  0  0  0  0  0  0  0  0  0
   30.9454  -20.4059    8.0983 C   0  0  0  0  0  0  0  0  0  0  0  0
   32.2965  -20.3781    8.3412 C   0  0  0  0  0  0  0  0  0  0  0  0
   33.1999  -20.9736    7.4830 C   0  0  0  0  0  0  0  0  0  0  0  0
   32.7262  -21.6150    6.3478 C   0  0  0  0  0  0  0  0  0  0  0  0
   33.6997  -22.2561    5.4253 C   0  0  0  0  0  0  0  0  0  0  0  0
   34.6823  -23.1244    6.1266 C   0  0  2  0  0  0  0  0  0  0  0  0
   35.7553  -23.6102    5.3186 N   0  0  0  0  0  0  0  0  0  0  0  0
   34.0678  -24.1383    7.0341 C   0  0  0  0  0  0  0  0  0  0  0  0
   33.7193  -25.2795    6.6478 O   0  0  0  0  0  0  0  0  0  0  0  0
   31.3552  -21.6434    6.1011 C   0  0  0  0  0  0  0  0  0  0  0  0
   30.4594  -21.0458    6.9639 C   0  0  0  0  0  0  0  0  0  0  0  0
   33.8391  -23.8625    8.4109 N   0  0  0  0  0  0  0  0  0  0  0  0
   33.2937  -24.8348    9.3380 C   0  0  1  0  0  0  0  0  0  0  0  0
   34.3717  -25.5295   10.1281 C   0  0  0  0  0  0  0  0  0  0  0  0
   33.7935  -26.4483   11.1294 C   0  0  0  0  0  0  0  0  0  0  0  0
   32.6469  -26.9576   11.0707 O   0  0  0  0  0  0  0  0  0  0  0  0
   32.2694  -24.1696   10.1532 C   0  0  0  0  0  0  0  0  0  0  0  0
   32.4527  -22.8776   10.5847 O   0  0  0  0  0  0  0  0  0  0  0  0
   34.5565  -26.7949   12.2363 O   0  0  0  0  0  0  0  0  0  0  0  0
   31.2255  -24.7734   10.4596 O   0  0  0  0  0  0  0  0  0  0  0  0
  2  1  1  1
  2  3  1  0
  3  4  1  0
  4  5  2  0
  5  6  1  0
  7  6  2  0
  8  7  1  0
  9  8  2  0
  9  4  1  0
 10  2  1  0
 11 10  2  0
 13 23  2  0
 13 12  1  0
 14 13  1  0
 15 16  1  0
 15 14  2  0
 16 22  2  0
 17 16  1  0
 18 19  1  0
 18 17  1  6
 19 10  1  0
 20 18  1  0
 21 20  2  0
 22 23  1  0
 24 20  1  0
 25 29  1  0
 25 24  1  0
 26 27  1  0
 25 26  1  1
 27 28  2  0
 29 30  1  0
 31 27  1  0
 32 29  2  0
M  END
$$$$
