EMR.pdb
     RDKit          3D

 29 28  0  0  1  0  0  0  0  0999 V2000
    7.9809  -17.7184   21.7051 N   0  0  0  0  0  0  0  0  0  0  0  0
    9.1996  -16.9883   21.5495 C   0  0  1  0  0  0  0  0  0  0  0  0
    9.4225  -16.4667   20.1467 C   0  0  0  0  0  0  0  0  0  0  0  0
    8.2582  -15.5776   19.7594 C   0  0  0  0  0  0  0  0  0  0  0  0
    8.4715  -15.0054   18.4073 C   0  0  0  0  0  0  0  0  0  0  0  0
    8.6148  -15.7610   17.4214 O   0  0  0  0  0  0  0  0  0  0  0  0
    9.3228  -15.9407   22.5794 C   0  0  0  0  0  0  0  0  0  0  0  0
   10.3169  -15.1713   22.6695 O   0  0  0  0  0  0  0  0  0  0  0  0
    8.5150  -13.6354   18.2158 O   0  0  0  0  0  0  0  0  0  0  0  0
    5.7273  -10.7990   25.3897 C   0  0  0  0  0  0  0  0  0  0  0  0
    5.4788  -12.4017   26.1954 S   0  0  0  0  0  0  0  0  0  0  0  0
    7.0660  -13.2997   26.1266 C   0  0  0  0  0  0  0  0  0  0  0  0
    7.1417  -14.1596   24.8983 C   0  0  0  0  0  0  0  0  0  0  0  0
    8.4006  -14.9346   24.7190 C   0  0  2  0  0  0  0  0  0  0  0  0
    8.2937  -15.7721   23.5193 N   0  0  0  0  0  0  0  0  0  0  0  0
    8.8445  -15.7306   25.8752 C   0  0  0  0  0  0  0  0  0  0  0  0
    8.8680  -15.1972   27.0113 O   0  0  0  0  0  0  0  0  0  0  0  0
    6.6026  -23.0633   28.2466 N   0  0  0  0  0  0  0  0  0  0  0  0
    6.1711  -22.0883   27.2980 C   0  0  0  0  0  0  0  0  0  0  0  0
    5.0279  -22.1992   26.7379 N   0  0  0  0  0  0  0  0  0  0  0  0
    7.0745  -21.0195   27.0261 N   0  0  0  0  0  0  0  0  0  0  0  0
    8.3570  -21.3316   26.4505 C   0  0  0  0  0  0  0  0  0  0  0  0
    9.1204  -20.0383   26.1531 C   0  0  0  0  0  0  0  0  0  0  0  0
    8.8468  -19.0025   27.2046 C   0  0  0  0  0  0  0  0  0  0  0  0
    9.6636  -17.7784   26.9739 C   0  0  2  0  0  0  0  0  0  0  0  0
    9.2530  -17.1025   25.7411 N   0  0  0  0  0  0  0  0  0  0  0  0
   11.0868  -18.1381   26.7981 C   0  0  0  0  0  0  0  0  0  0  0  0
   11.5965  -17.9583   25.6330 O   0  0  0  0  0  0  0  0  0  0  0  0
   11.8723  -18.6469   27.8223 O   0  0  0  0  0  0  0  0  0  0  0  0
  2  1  1  6
  2  3  1  0
  3  4  1  0
  4  5  1  0
  5  9  1  0
  5  6  2  0
  7  2  1  0
  7  8  2  0
 10 11  1  0
 11 12  1  0
 13 12  1  0
 14 13  1  1
 14 15  1  0
 15  7  1  0
 16 14  1  0
 17 16  2  0
 18 19  1  0
 19 21  1  0
 20 19  2  0
 21 22  1  0
 22 23  1  0
 23 24  1  0
 25 24  1  6
 25 26  1  0
 25 27  1  0
 26 16  1  0
 27 29  1  0
 28 27  2  0
M  END
$$$$
