EMR.pdb
     RDKit          3D

 29 28  0  0  1  0  0  0  0  0999 V2000
    6.5540  -17.4571   21.2698 N   0  0  0  0  0  0  0  0  0  0  0  0
    7.7362  -16.7486   20.8916 C   0  0  1  0  0  0  0  0  0  0  0  0
    7.5512  -15.8550   19.6846 C   0  0  0  0  0  0  0  0  0  0  0  0
    8.8749  -15.1984   19.3485 C   0  0  0  0  0  0  0  0  0  0  0  0
    9.6309  -16.0260   18.3765 C   0  0  0  0  0  0  0  0  0  0  0  0
    9.1717  -17.1255   17.9974 O   0  0  0  0  0  0  0  0  0  0  0  0
    8.3208  -16.0425   22.0462 C   0  0  0  0  0  0  0  0  0  0  0  0
    9.4187  -15.4254   21.9975 O   0  0  0  0  0  0  0  0  0  0  0  0
   10.8483  -15.5980   17.8765 O   0  0  0  0  0  0  0  0  0  0  0  0
    6.8469  -10.8957   27.2984 C   0  0  0  0  0  0  0  0  0  0  0  0
    6.1627  -12.3387   26.4444 S   0  0  0  0  0  0  0  0  0  0  0  0
    7.5674  -13.3087   25.7994 C   0  0  0  0  0  0  0  0  0  0  0  0
    7.0852  -14.5294   25.0706 C   0  0  0  0  0  0  0  0  0  0  0  0
    8.1413  -15.4086   24.4970 C   0  0  2  0  0  0  0  0  0  0  0  0
    7.6392  -16.0434   23.2735 N   0  0  0  0  0  0  0  0  0  0  0  0
    8.7185  -16.4111   25.4079 C   0  0  0  0  0  0  0  0  0  0  0  0
    7.9501  -17.1787   26.0373 O   0  0  0  0  0  0  0  0  0  0  0  0
   14.9493  -16.7151   22.9424 N   0  0  0  0  0  0  0  0  0  0  0  0
   14.1959  -17.8285   22.4633 C   0  0  0  0  0  0  0  0  0  0  0  0
   13.7252  -17.8219   21.2754 N   0  0  0  0  0  0  0  0  0  0  0  0
   14.0092  -18.9107   23.3723 N   0  0  0  0  0  0  0  0  0  0  0  0
   13.7618  -18.6106   24.7588 C   0  0  0  0  0  0  0  0  0  0  0  0
   12.2760  -18.3051   24.9660 C   0  0  0  0  0  0  0  0  0  0  0  0
   12.0105  -17.8776   26.3803 C   0  0  0  0  0  0  0  0  0  0  0  0
   10.5734  -17.5376   26.5747 C   0  0  2  0  0  0  0  0  0  0  0  0
   10.1379  -16.5366   25.5983 N   0  0  0  0  0  0  0  0  0  0  0  0
   10.3654  -16.9364   27.9093 C   0  0  0  0  0  0  0  0  0  0  0  0
    9.9973  -15.7065   27.9464 O   0  0  0  0  0  0  0  0  0  0  0  0
   10.5459  -17.6372   29.0930 O   0  0  0  0  0  0  0  0  0  0  0  0
  2  1  1  1
  2  3  1  0
  3  4  1  0
  4  5  1  0
  5  9  1  0
  5  6  2  0
  7  2  1  0
  7  8  2  0
 10 11  1  0
 11 12  1  0
 13 12  1  0
 14 13  1  1
 14 15  1  0
 15  7  1  0
 16 14  1  0
 17 16  2  0
 18 19  1  0
 19 21  1  0
 20 19  2  0
 21 22  1  0
 22 23  1  0
 23 24  1  0
 25 24  1  6
 25 26  1  0
 25 27  1  0
 26 16  1  0
 27 29  1  0
 28 27  2  0
M  END
$$$$
