EMR.pdb
     RDKit          3D

 29 28  0  0  1  0  0  0  0  0999 V2000
    8.0000  -12.8981   18.5749 N   0  0  0  0  0  0  0  0  0  0  0  0
    7.4707  -13.8609   19.4888 C   0  0  1  0  0  0  0  0  0  0  0  0
    7.3616  -15.2547   18.9101 C   0  0  0  0  0  0  0  0  0  0  0  0
    8.7235  -15.6887   18.4068 C   0  0  0  0  0  0  0  0  0  0  0  0
    8.6343  -17.0176   17.7534 C   0  0  0  0  0  0  0  0  0  0  0  0
    9.6518  -17.5366   17.2448 O   0  0  0  0  0  0  0  0  0  0  0  0
    8.1960  -13.8256   20.7718 C   0  0  0  0  0  0  0  0  0  0  0  0
    9.4360  -13.6186   20.8611 O   0  0  0  0  0  0  0  0  0  0  0  0
    7.4318  -17.7005   17.6961 O   0  0  0  0  0  0  0  0  0  0  0  0
    7.1289  -12.0077   28.2989 C   0  0  0  0  0  0  0  0  0  0  0  0
    6.3687  -12.3151   26.6843 S   0  0  0  0  0  0  0  0  0  0  0  0
    7.5691  -13.2605   25.6863 C   0  0  0  0  0  0  0  0  0  0  0  0
    7.1231  -13.3497   24.2556 C   0  0  0  0  0  0  0  0  0  0  0  0
    8.0947  -13.9565   23.3042 C   0  0  2  0  0  0  0  0  0  0  0  0
    7.4919  -14.0307   21.9689 N   0  0  0  0  0  0  0  0  0  0  0  0
    8.6618  -15.2577   23.6955 C   0  0  0  0  0  0  0  0  0  0  0  0
    7.9651  -16.2931   23.5607 O   0  0  0  0  0  0  0  0  0  0  0  0
   15.0200  -14.5158   21.4189 N   0  0  0  0  0  0  0  0  0  0  0  0
   14.0612  -14.8440   20.4139 C   0  0  0  0  0  0  0  0  0  0  0  0
   14.2004  -14.3995   19.2240 N   0  0  0  0  0  0  0  0  0  0  0  0
   12.9730  -15.6721   20.8169 N   0  0  0  0  0  0  0  0  0  0  0  0
   12.4697  -15.5427   22.1598 C   0  0  0  0  0  0  0  0  0  0  0  0
   12.2551  -16.9307   22.7691 C   0  0  0  0  0  0  0  0  0  0  0  0
   11.9435  -16.8289   24.2340 C   0  0  0  0  0  0  0  0  0  0  0  0
   10.4743  -16.7402   24.4626 C   0  0  2  0  0  0  0  0  0  0  0  0
    9.9916  -15.3774   24.2286 N   0  0  0  0  0  0  0  0  0  0  0  0
   10.1548  -17.0598   25.8704 C   0  0  0  0  0  0  0  0  0  0  0  0
   10.3787  -18.2620   26.2630 O   0  0  0  0  0  0  0  0  0  0  0  0
    9.6381  -16.1296   26.7606 O   0  0  0  0  0  0  0  0  0  0  0  0
  2  1  1  6
  2  3  1  0
  3  4  1  0
  4  5  1  0
  5  9  1  0
  5  6  2  0
  7  2  1  0
  7  8  2  0
 10 11  1  0
 11 12  1  0
 13 12  1  0
 14 13  1  1
 14 15  1  0
 15  7  1  0
 16 14  1  0
 17 16  2  0
 18 19  1  0
 19 21  1  0
 20 19  2  0
 21 22  1  0
 22 23  1  0
 23 24  1  0
 25 24  1  1
 25 26  1  0
 25 27  1  0
 26 16  1  0
 27 29  1  0
 28 27  2  0
M  END
$$$$
