EMR.pdb
     RDKit          3D

 29 28  0  0  1  0  0  0  0  0999 V2000
    8.4607  -15.1329   19.5494 N   0  0  0  0  0  0  0  0  0  0  0  0
    7.6545  -15.5840   20.6399 C   0  0  1  0  0  0  0  0  0  0  0  0
    7.2192  -17.0281   20.5194 C   0  0  0  0  0  0  0  0  0  0  0  0
    7.2663  -17.4382   19.0613 C   0  0  0  0  0  0  0  0  0  0  0  0
    8.4940  -18.2237   18.7841 C   0  0  0  0  0  0  0  0  0  0  0  0
    9.4190  -18.2601   19.6245 O   0  0  0  0  0  0  0  0  0  0  0  0
    8.2974  -15.2826   21.9319 C   0  0  0  0  0  0  0  0  0  0  0  0
    9.5120  -15.5173   22.1727 O   0  0  0  0  0  0  0  0  0  0  0  0
    8.6350  -18.9246   17.5990 O   0  0  0  0  0  0  0  0  0  0  0  0
    6.8435  -10.4586   26.2861 C   0  0  0  0  0  0  0  0  0  0  0  0
    6.4272  -11.9792   27.1771 S   0  0  0  0  0  0  0  0  0  0  0  0
    7.4681  -13.3143   26.4955 C   0  0  0  0  0  0  0  0  0  0  0  0
    7.1298  -13.5749   25.0563 C   0  0  0  0  0  0  0  0  0  0  0  0
    8.0112  -14.5391   24.3414 C   0  0  2  0  0  0  0  0  0  0  0  0
    7.5389  -14.7052   22.9625 N   0  0  0  0  0  0  0  0  0  0  0  0
    8.2048  -15.8468   24.9895 C   0  0  0  0  0  0  0  0  0  0  0  0
    7.2458  -16.6557   25.0316 O   0  0  0  0  0  0  0  0  0  0  0  0
   12.8945  -20.8092   21.6134 N   0  0  0  0  0  0  0  0  0  0  0  0
   13.6143  -19.6351   21.9877 C   0  0  0  0  0  0  0  0  0  0  0  0
   14.7610  -19.3949   21.4775 N   0  0  0  0  0  0  0  0  0  0  0  0
   12.9876  -18.7792   22.9400 N   0  0  0  0  0  0  0  0  0  0  0  0
   11.7267  -19.1844   23.5052 C   0  0  0  0  0  0  0  0  0  0  0  0
   11.3160  -18.2077   24.6103 C   0  0  0  0  0  0  0  0  0  0  0  0
    9.9703  -18.5684   25.1693 C   0  0  0  0  0  0  0  0  0  0  0  0
    9.5210  -17.5620   26.1713 C   0  0  2  0  0  0  0  0  0  0  0  0
    9.4614  -16.2250   25.5766 N   0  0  0  0  0  0  0  0  0  0  0  0
   10.4900  -17.4803   27.2851 C   0  0  0  0  0  0  0  0  0  0  0  0
   10.6695  -18.5429   27.9838 O   0  0  0  0  0  0  0  0  0  0  0  0
   11.1967  -16.3267   27.5921 O   0  0  0  0  0  0  0  0  0  0  0  0
  2  1  1  6
  2  3  1  0
  3  4  1  0
  4  5  1  0
  5  9  1  0
  5  6  2  0
  7  2  1  0
  7  8  2  0
 10 11  1  0
 11 12  1  0
 13 12  1  0
 14 13  1  1
 14 15  1  0
 15  7  1  0
 16 14  1  0
 17 16  2  0
 18 19  1  0
 19 21  1  0
 20 19  2  0
 21 22  1  0
 22 23  1  0
 23 24  1  0
 25 24  1  6
 25 26  1  0
 25 27  1  0
 26 16  1  0
 27 29  1  0
 28 27  2  0
M  END
$$$$
