EMR.pdb
     RDKit          3D

 29 28  0  0  1  0  0  0  0  0999 V2000
    8.2682  -17.6010   21.0056 N   0  0  0  0  0  0  0  0  0  0  0  0
    9.0498  -16.4114   21.1339 C   0  0  1  0  0  0  0  0  0  0  0  0
    8.8165  -15.4067   20.0268 C   0  0  0  0  0  0  0  0  0  0  0  0
    8.5529  -16.1498   18.7327 C   0  0  0  0  0  0  0  0  0  0  0  0
    8.9269  -15.3099   17.5683 C   0  0  0  0  0  0  0  0  0  0  0  0
    8.2164  -14.3333   17.2447 O   0  0  0  0  0  0  0  0  0  0  0  0
    8.9063  -15.8279   22.4801 C   0  0  0  0  0  0  0  0  0  0  0  0
    9.3193  -14.6765   22.7837 O   0  0  0  0  0  0  0  0  0  0  0  0
   10.0606  -15.5912   16.8260 O   0  0  0  0  0  0  0  0  0  0  0  0
    7.6937  -11.3598   26.1099 C   0  0  0  0  0  0  0  0  0  0  0  0
    6.2754  -12.3498   25.5733 S   0  0  0  0  0  0  0  0  0  0  0  0
    6.6803  -14.1009   25.8895 C   0  0  0  0  0  0  0  0  0  0  0  0
    7.1282  -14.7827   24.6293 C   0  0  0  0  0  0  0  0  0  0  0  0
    7.9145  -16.0348   24.8069 C   0  0  2  0  0  0  0  0  0  0  0  0
    8.2819  -16.5733   23.4928 N   0  0  0  0  0  0  0  0  0  0  0  0
    7.2983  -17.0762   25.6457 C   0  0  0  0  0  0  0  0  0  0  0  0
    6.6544  -16.7355   26.6680 O   0  0  0  0  0  0  0  0  0  0  0  0
   14.0798  -17.6778   28.1840 N   0  0  0  0  0  0  0  0  0  0  0  0
   12.9589  -17.9746   29.0160 C   0  0  0  0  0  0  0  0  0  0  0  0
   13.0014  -17.7165   30.2668 N   0  0  0  0  0  0  0  0  0  0  0  0
   11.8279  -18.5616   28.3768 N   0  0  0  0  0  0  0  0  0  0  0  0
   11.9474  -18.9644   26.9995 C   0  0  0  0  0  0  0  0  0  0  0  0
   10.7139  -19.7718   26.5865 C   0  0  0  0  0  0  0  0  0  0  0  0
    9.7562  -18.9214   25.8035 C   0  0  0  0  0  0  0  0  0  0  0  0
    8.3450  -19.2490   26.1499 C   0  0  2  0  0  0  0  0  0  0  0  0
    7.4130  -18.4736   25.3282 N   0  0  0  0  0  0  0  0  0  0  0  0
    8.0648  -18.8846   27.5551 C   0  0  0  0  0  0  0  0  0  0  0  0
    7.8624  -19.8476   28.3804 O   0  0  0  0  0  0  0  0  0  0  0  0
    8.0173  -17.5724   28.0031 O   0  0  0  0  0  0  0  0  0  0  0  0
  2  1  1  6
  2  3  1  0
  3  4  1  0
  4  5  1  0
  5  9  1  0
  5  6  2  0
  7  2  1  0
  7  8  2  0
 10 11  1  0
 11 12  1  0
 13 12  1  0
 14 13  1  6
 14 15  1  0
 15  7  1  0
 16 14  1  0
 17 16  2  0
 18 19  1  0
 19 21  1  0
 20 19  2  0
 21 22  1  0
 22 23  1  0
 23 24  1  0
 25 24  1  6
 25 26  1  0
 25 27  1  0
 26 16  1  0
 27 29  1  0
 28 27  2  0
M  END
$$$$
