EMR.pdb
     RDKit          3D

 29 28  0  0  1  0  0  0  0  0999 V2000
    6.7599  -15.6026   20.5001 N   0  0  0  0  0  0  0  0  0  0  0  0
    7.9952  -16.1626   20.9507 C   0  0  1  0  0  0  0  0  0  0  0  0
    8.9569  -16.4969   19.8315 C   0  0  0  0  0  0  0  0  0  0  0  0
    8.3143  -16.1428   18.5056 C   0  0  0  0  0  0  0  0  0  0  0  0
    9.1822  -16.5682   17.3800 C   0  0  0  0  0  0  0  0  0  0  0  0
   10.2990  -17.0821   17.6079 O   0  0  0  0  0  0  0  0  0  0  0  0
    8.6029  -15.3248   22.0006 C   0  0  0  0  0  0  0  0  0  0  0  0
    9.7449  -14.8022   21.8953 O   0  0  0  0  0  0  0  0  0  0  0  0
    8.7731  -16.4045   16.0680 O   0  0  0  0  0  0  0  0  0  0  0  0
    5.1449  -12.0287   26.7276 C   0  0  0  0  0  0  0  0  0  0  0  0
    6.8663  -11.4680   26.6841 S   0  0  0  0  0  0  0  0  0  0  0  0
    7.9049  -12.9208   26.3086 C   0  0  0  0  0  0  0  0  0  0  0  0
    7.4887  -13.5560   25.0136 C   0  0  0  0  0  0  0  0  0  0  0  0
    8.4776  -14.4781   24.3897 C   0  0  2  0  0  0  0  0  0  0  0  0
    7.8934  -15.0826   23.1876 N   0  0  0  0  0  0  0  0  0  0  0  0
    9.0494  -15.5107   25.2699 C   0  0  0  0  0  0  0  0  0  0  0  0
    9.6265  -15.1601   26.3281 O   0  0  0  0  0  0  0  0  0  0  0  0
   13.9144  -22.1326   22.4993 N   0  0  0  0  0  0  0  0  0  0  0  0
   14.1728  -20.9415   23.2417 C   0  0  0  0  0  0  0  0  0  0  0  0
   15.3210  -20.3839   23.1820 N   0  0  0  0  0  0  0  0  0  0  0  0
   13.0981  -20.4355   24.0299 N   0  0  0  0  0  0  0  0  0  0  0  0
   13.3082  -19.2290   24.7875 C   0  0  0  0  0  0  0  0  0  0  0  0
   12.0688  -18.9255   25.6335 C   0  0  0  0  0  0  0  0  0  0  0  0
   11.0613  -18.1419   24.8434 C   0  0  0  0  0  0  0  0  0  0  0  0
    9.8796  -17.7939   25.6808 C   0  0  2  0  0  0  0  0  0  0  0  0
    8.9665  -16.9103   24.9523 N   0  0  0  0  0  0  0  0  0  0  0  0
   10.3066  -17.0507   26.8855 C   0  0  0  0  0  0  0  0  0  0  0  0
   10.8891  -15.9211   26.7006 O   0  0  0  0  0  0  0  0  0  0  0  0
   10.1026  -17.5171   28.1760 O   0  0  0  0  0  0  0  0  0  0  0  0
  2  1  1  6
  2  3  1  0
  3  4  1  0
  4  5  1  0
  5  9  1  0
  5  6  2  0
  7  2  1  0
  7  8  2  0
 10 11  1  0
 11 12  1  0
 13 12  1  0
 14 13  1  1
 14 15  1  0
 15  7  1  0
 16 14  1  0
 17 16  2  0
 18 19  1  0
 19 21  1  0
 20 19  2  0
 21 22  1  0
 22 23  1  0
 23 24  1  0
 25 24  1  6
 25 26  1  0
 25 27  1  0
 26 16  1  0
 27 29  1  0
 28 27  2  0
M  END
$$$$
