EMR.pdb
     RDKit          3D

 29 28  0  0  1  0  0  0  0  0999 V2000
    7.7357  -17.7536   21.6694 N   0  0  0  0  0  0  0  0  0  0  0  0
    9.0720  -17.6961   22.1729 C   0  0  1  0  0  0  0  0  0  0  0  0
   10.1131  -17.4262   21.1086 C   0  0  0  0  0  0  0  0  0  0  0  0
   11.4923  -17.5474   21.7245 C   0  0  0  0  0  0  0  0  0  0  0  0
   12.5383  -17.2666   20.7105 C   0  0  0  0  0  0  0  0  0  0  0  0
   13.3326  -16.3151   20.8751 O   0  0  0  0  0  0  0  0  0  0  0  0
    9.1658  -16.7714   23.3172 C   0  0  0  0  0  0  0  0  0  0  0  0
   10.2524  -16.4803   23.8854 O   0  0  0  0  0  0  0  0  0  0  0  0
   12.6517  -18.0475   19.5735 O   0  0  0  0  0  0  0  0  0  0  0  0
    7.3089  -11.3467   24.5374 C   0  0  0  0  0  0  0  0  0  0  0  0
    7.5721  -12.1357   26.1461 S   0  0  0  0  0  0  0  0  0  0  0  0
    6.5132  -13.6208   26.2060 C   0  0  0  0  0  0  0  0  0  0  0  0
    6.7378  -14.4873   25.0008 C   0  0  0  0  0  0  0  0  0  0  0  0
    7.9487  -15.3533   25.0343 C   0  0  2  0  0  0  0  0  0  0  0  0
    7.9992  -16.1723   23.8183 N   0  0  0  0  0  0  0  0  0  0  0  0
    8.1181  -16.1883   26.2351 C   0  0  0  0  0  0  0  0  0  0  0  0
    7.0999  -16.6435   26.8112 O   0  0  0  0  0  0  0  0  0  0  0  0
   10.1283  -23.3582   25.2723 N   0  0  0  0  0  0  0  0  0  0  0  0
   11.3867  -22.6853   25.2480 C   0  0  0  0  0  0  0  0  0  0  0  0
   12.4109  -23.2570   24.7409 N   0  0  0  0  0  0  0  0  0  0  0  0
   11.4211  -21.3764   25.8119 N   0  0  0  0  0  0  0  0  0  0  0  0
   10.2159  -20.8458   26.3945 C   0  0  0  0  0  0  0  0  0  0  0  0
   10.4787  -19.4390   26.9382 C   0  0  0  0  0  0  0  0  0  0  0  0
    9.2125  -18.8214   27.4570 C   0  0  0  0  0  0  0  0  0  0  0  0
    9.4463  -17.4203   27.9052 C   0  0  2  0  0  0  0  0  0  0  0  0
    9.4169  -16.4975   26.7682 N   0  0  0  0  0  0  0  0  0  0  0  0
   10.7892  -17.2936   28.5106 C   0  0  0  0  0  0  0  0  0  0  0  0
   11.6911  -16.7001   27.8151 O   0  0  0  0  0  0  0  0  0  0  0  0
   11.1007  -17.7780   29.7727 O   0  0  0  0  0  0  0  0  0  0  0  0
  2  1  1  6
  2  3  1  0
  3  4  1  0
  4  5  1  0
  5  9  1  0
  5  6  2  0
  7  2  1  0
  7  8  2  0
 10 11  1  0
 11 12  1  0
 13 12  1  0
 14 13  1  1
 14 15  1  0
 15  7  1  0
 16 14  1  0
 17 16  2  0
 18 19  1  0
 19 21  1  0
 20 19  2  0
 21 22  1  0
 22 23  1  0
 23 24  1  0
 25 24  1  6
 25 26  1  0
 25 27  1  0
 26 16  1  0
 27 29  1  0
 28 27  2  0
M  END
$$$$
