EMR.pdb
     RDKit          3D

 29 28  0  0  1  0  0  0  0  0999 V2000
    9.0000  -18.2463   27.7463 N   0  0  0  0  0  0  0  0  0  0  0  0
    8.1140  -18.8539   26.8038 C   0  0  1  0  0  0  0  0  0  0  0  0
    7.1198  -19.8077   27.4294 C   0  0  0  0  0  0  0  0  0  0  0  0
    7.6342  -20.2362   28.7888 C   0  0  0  0  0  0  0  0  0  0  0  0
    8.6962  -21.2615   28.6405 C   0  0  0  0  0  0  0  0  0  0  0  0
    9.1160  -21.5706   27.5040 O   0  0  0  0  0  0  0  0  0  0  0  0
    7.4760  -17.8375   25.9475 C   0  0  0  0  0  0  0  0  0  0  0  0
    6.5408  -18.0971   25.1435 O   0  0  0  0  0  0  0  0  0  0  0  0
    9.2364  -21.8886   29.7497 O   0  0  0  0  0  0  0  0  0  0  0  0
    5.7660  -11.8122   27.6016 C   0  0  0  0  0  0  0  0  0  0  0  0
    6.9223  -11.4681   26.2510 S   0  0  0  0  0  0  0  0  0  0  0  0
    6.9444  -12.9337   25.1639 C   0  0  0  0  0  0  0  0  0  0  0  0
    7.4562  -14.1381   25.8995 C   0  0  0  0  0  0  0  0  0  0  0  0
    7.4102  -15.4273   25.1556 C   0  0  2  0  0  0  0  0  0  0  0  0
    7.9152  -16.5056   26.0124 N   0  0  0  0  0  0  0  0  0  0  0  0
    8.0777  -15.4452   23.8434 C   0  0  0  0  0  0  0  0  0  0  0  0
    7.7460  -14.5990   22.9777 O   0  0  0  0  0  0  0  0  0  0  0  0
    7.9407  -14.8484   18.5563 N   0  0  0  0  0  0  0  0  0  0  0  0
    8.3252  -13.5807   18.0254 C   0  0  0  0  0  0  0  0  0  0  0  0
    7.6397  -13.0407   17.0920 N   0  0  0  0  0  0  0  0  0  0  0  0
    9.4894  -12.9803   18.5880 N   0  0  0  0  0  0  0  0  0  0  0  0
    9.7166  -13.1126   20.0038 C   0  0  0  0  0  0  0  0  0  0  0  0
    9.5693  -14.5792   20.4178 C   0  0  0  0  0  0  0  0  0  0  0  0
    9.8024  -14.7444   21.8915 C   0  0  0  0  0  0  0  0  0  0  0  0
    9.8243  -16.1847   22.2706 C   0  0  2  0  0  0  0  0  0  0  0  0
    9.0993  -16.4049   23.5240 N   0  0  0  0  0  0  0  0  0  0  0  0
   11.2137  -16.6306   22.5085 C   0  0  0  0  0  0  0  0  0  0  0  0
   11.6071  -16.6940   23.7295 O   0  0  0  0  0  0  0  0  0  0  0  0
   12.0844  -16.9773   21.4856 O   0  0  0  0  0  0  0  0  0  0  0  0
  2  1  1  1
  2  3  1  0
  3  4  1  0
  4  5  1  0
  5  9  1  0
  5  6  2  0
  7  2  1  0
  7  8  2  0
 10 11  1  0
 11 12  1  0
 13 12  1  0
 14 13  1  1
 14 15  1  0
 15  7  1  0
 16 14  1  0
 17 16  2  0
 18 19  1  0
 19 21  1  0
 20 19  2  0
 21 22  1  0
 22 23  1  0
 23 24  1  0
 25 24  1  1
 25 26  1  0
 25 27  1  0
 26 16  1  0
 27 29  1  0
 28 27  2  0
M  END
$$$$
