EMR.pdb
     RDKit          3D

 29 28  0  0  1  0  0  0  0  0999 V2000
    8.1665  -15.2356   19.9511 N   0  0  0  0  0  0  0  0  0  0  0  0
    7.9756  -16.0681   21.0969 C   0  0  1  0  0  0  0  0  0  0  0  0
    8.5326  -17.4656   20.9344 C   0  0  0  0  0  0  0  0  0  0  0  0
    9.9787  -17.3726   20.4913 C   0  0  0  0  0  0  0  0  0  0  0  0
   10.5530  -18.7286   20.3112 C   0  0  0  0  0  0  0  0  0  0  0  0
   10.8848  -19.1236   19.1723 O   0  0  0  0  0  0  0  0  0  0  0  0
    8.4503  -15.3983   22.3214 C   0  0  0  0  0  0  0  0  0  0  0  0
    9.6137  -14.9306   22.4485 O   0  0  0  0  0  0  0  0  0  0  0  0
   10.7299  -19.5733   21.3932 O   0  0  0  0  0  0  0  0  0  0  0  0
    5.4903  -10.6575   26.1643 C   0  0  0  0  0  0  0  0  0  0  0  0
    5.3219  -12.2882   26.9338 S   0  0  0  0  0  0  0  0  0  0  0  0
    6.8299  -13.2371   26.5388 C   0  0  0  0  0  0  0  0  0  0  0  0
    6.6624  -13.9987   25.2560 C   0  0  0  0  0  0  0  0  0  0  0  0
    7.9105  -14.5351   24.6461 C   0  0  2  0  0  0  0  0  0  0  0  0
    7.5811  -15.2624   23.4155 N   0  0  0  0  0  0  0  0  0  0  0  0
    8.7645  -15.3520   25.5242 C   0  0  0  0  0  0  0  0  0  0  0  0
    8.5780  -16.5922   25.5761 O   0  0  0  0  0  0  0  0  0  0  0  0
   16.1465  -16.0727   23.5772 N   0  0  0  0  0  0  0  0  0  0  0  0
   15.8334  -17.3653   24.0948 C   0  0  0  0  0  0  0  0  0  0  0  0
   16.4749  -18.3927   23.6875 N   0  0  0  0  0  0  0  0  0  0  0  0
   14.7891  -17.4288   25.0631 N   0  0  0  0  0  0  0  0  0  0  0  0
   14.0432  -16.2312   25.3510 C   0  0  0  0  0  0  0  0  0  0  0  0
   13.0133  -16.5129   26.4481 C   0  0  0  0  0  0  0  0  0  0  0  0
   12.1501  -15.3094   26.6925 C   0  0  0  0  0  0  0  0  0  0  0  0
   10.7391  -15.7084   26.9543 C   0  0  2  0  0  0  0  0  0  0  0  0
    9.8067  -14.7701   26.3255 N   0  0  0  0  0  0  0  0  0  0  0  0
   10.4563  -15.6682   28.4050 C   0  0  0  0  0  0  0  0  0  0  0  0
    9.7195  -14.7064   28.8313 O   0  0  0  0  0  0  0  0  0  0  0  0
   10.9435  -16.6107   29.2988 O   0  0  0  0  0  0  0  0  0  0  0  0
  2  1  1  6
  2  3  1  0
  3  4  1  0
  4  5  1  0
  5  9  1  0
  5  6  2  0
  7  2  1  0
  7  8  2  0
 10 11  1  0
 11 12  1  0
 13 12  1  0
 14 13  1  1
 14 15  1  0
 15  7  1  0
 16 14  1  0
 17 16  2  0
 18 19  1  0
 19 21  1  0
 20 19  2  0
 21 22  1  0
 22 23  1  0
 23 24  1  0
 25 24  1  1
 25 26  1  0
 25 27  1  0
 26 16  1  0
 27 29  1  0
 28 27  2  0
M  END
$$$$
