HDM.pdb
     RDKit          3D

 27 27  0  0  1  0  0  0  0  0999 V2000
   15.7517  -13.4269  -13.9295 N   0  0  0  0  0  0  0  0  0  0  0  0
   15.0790  -12.1653  -13.7283 C   0  0  1  0  0  0  0  0  0  0  0  0
   13.7513  -12.3882  -13.0438 C   0  0  0  0  0  0  0  0  0  0  0  0
   12.8675  -13.1358  -13.9795 C   0  0  0  0  0  0  0  0  0  0  0  0
   12.2890  -12.6448  -15.1234 C   0  0  0  0  0  0  0  0  0  0  0  0
   11.5578  -13.6361  -15.6973 N   0  0  0  0  0  0  0  0  0  0  0  0
   11.6959  -14.7209  -14.9009 C   0  0  0  0  0  0  0  0  0  0  0  0
   12.4853  -14.4138  -13.8685 N   0  0  0  0  0  0  0  0  0  0  0  0
   15.9464  -11.2745  -12.8802 C   0  0  0  0  0  0  0  0  0  0  0  0
   16.3937  -11.6330  -11.7682 O   0  0  0  0  0  0  0  0  0  0  0  0
   16.2998   -9.9672  -13.3144 N   0  0  0  0  0  0  0  0  0  0  0  0
   17.1420   -9.1183  -12.5451 C   0  0  1  0  0  0  0  0  0  0  0  0
   18.0631   -8.2512  -13.3638 C   0  0  0  0  0  0  0  0  0  0  0  0
   18.8495   -7.3134  -12.5428 C   0  0  0  0  0  0  0  0  0  0  0  0
   18.3654   -6.1586  -12.3595 O   0  0  0  0  0  0  0  0  0  0  0  0
   16.2804   -8.1981  -11.7554 C   0  0  0  0  0  0  0  0  0  0  0  0
   15.3822   -7.5531  -12.3496 O   0  0  0  0  0  0  0  0  0  0  0  0
   20.0563   -7.5987  -11.9685 O   0  0  0  0  0  0  0  0  0  0  0  0
   11.4577   -7.0279   -6.0603 C   0  0  0  0  0  0  0  0  0  0  0  0
   12.5615   -8.0358   -7.0698 S   0  0  0  0  0  0  0  0  0  0  0  0
   13.6777   -7.0087   -8.0543 C   0  0  0  0  0  0  0  0  0  0  0  0
   14.6412   -7.8394   -8.8223 C   0  0  0  0  0  0  0  0  0  0  0  0
   15.5795   -7.0530   -9.6998 C   0  0  2  0  0  0  0  0  0  0  0  0
   16.4313   -8.0193  -10.3567 N   0  0  0  0  0  0  0  0  0  0  0  0
   16.3977   -6.0918   -8.9718 C   0  0  0  0  0  0  0  0  0  0  0  0
   17.5983   -6.3653   -8.7266 O   0  0  0  0  0  0  0  0  0  0  0  0
   15.9525   -4.8614   -8.5111 O   0  0  0  0  0  0  0  0  0  0  0  0
  2  1  1  1
  2  3  1  0
  4  3  1  0
  5  4  2  0
  6  7  1  0
  6  5  1  0
  7  8  2  0
  8  4  1  0
  9 10  2  0
  9  2  1  0
 11  9  1  0
 12 11  1  0
 12 13  1  6
 14 13  1  0
 15 14  2  0
 16 12  1  0
 17 16  2  0
 18 14  1  0
 20 19  1  0
 21 20  1  0
 22 21  1  0
 23 22  1  1
 23 24  1  0
 24 16  1  0
 25 23  1  0
 26 25  2  0
 27 25  1  0
M  END
$$$$
