HDM.pdb
     RDKit          3D

 27 27  0  0  1  0  0  0  0  0999 V2000
   26.2285  -17.4831  -17.3540 N   0  0  0  0  0  0  0  0  0  0  0  0
   26.8977  -17.9685  -16.1703 C   0  0  1  0  0  0  0  0  0  0  0  0
   27.9801  -17.0018  -15.7523 C   0  0  0  0  0  0  0  0  0  0  0  0
   28.9325  -16.8541  -16.8866 C   0  0  0  0  0  0  0  0  0  0  0  0
   29.8925  -17.7577  -17.2689 C   0  0  0  0  0  0  0  0  0  0  0  0
   30.5530  -17.2564  -18.3456 N   0  0  0  0  0  0  0  0  0  0  0  0
   29.9919  -16.0543  -18.6107 C   0  0  0  0  0  0  0  0  0  0  0  0
   29.0170  -15.8175  -17.7292 N   0  0  0  0  0  0  0  0  0  0  0  0
   25.8910  -18.1170  -15.0614 C   0  0  0  0  0  0  0  0  0  0  0  0
   25.7456  -17.2556  -14.1658 O   0  0  0  0  0  0  0  0  0  0  0  0
   25.0494  -19.2607  -14.9839 N   0  0  0  0  0  0  0  0  0  0  0  0
   24.0285  -19.3815  -14.0015 C   0  0  1  0  0  0  0  0  0  0  0  0
   22.7321  -19.9479  -14.5205 C   0  0  0  0  0  0  0  0  0  0  0  0
   21.6740  -19.9926  -13.4957 C   0  0  0  0  0  0  0  0  0  0  0  0
   21.7283  -20.9312  -12.6486 O   0  0  0  0  0  0  0  0  0  0  0  0
   24.5069  -20.3115  -12.9438 C   0  0  0  0  0  0  0  0  0  0  0  0
   24.7493  -21.5038  -13.2527 O   0  0  0  0  0  0  0  0  0  0  0  0
   20.6446  -19.0995  -13.3946 O   0  0  0  0  0  0  0  0  0  0  0  0
   28.1106  -18.7619   -7.7731 C   0  0  0  0  0  0  0  0  0  0  0  0
   27.0029  -20.0034   -7.0768 S   0  0  0  0  0  0  0  0  0  0  0  0
   26.2189  -20.9903   -8.3734 C   0  0  0  0  0  0  0  0  0  0  0  0
   25.8206  -20.1462   -9.5297 C   0  0  0  0  0  0  0  0  0  0  0  0
   25.1505  -20.8996  -10.6486 C   0  0  2  0  0  0  0  0  0  0  0  0
   24.7014  -19.9065  -11.5987 N   0  0  0  0  0  0  0  0  0  0  0  0
   24.0206  -21.7116  -10.2160 C   0  0  0  0  0  0  0  0  0  0  0  0
   22.8548  -21.2629  -10.3427 O   0  0  0  0  0  0  0  0  0  0  0  0
   24.1228  -22.9778   -9.6585 O   0  0  0  0  0  0  0  0  0  0  0  0
  2  1  1  6
  2  3  1  0
  4  3  1  0
  5  4  2  0
  6  7  1  0
  6  5  1  0
  7  8  2  0
  8  4  1  0
  9 10  2  0
  9  2  1  0
 11  9  1  0
 12 11  1  0
 12 13  1  6
 14 13  1  0
 15 14  2  0
 16 12  1  0
 17 16  2  0
 18 14  1  0
 20 19  1  0
 21 20  1  0
 22 21  1  0
 23 22  1  1
 23 24  1  0
 24 16  1  0
 25 23  1  0
 26 25  2  0
 27 25  1  0
M  END
$$$$
