HDM.pdb
     RDKit          3D

 27 27  0  0  1  0  0  0  0  0999 V2000
   19.6749  -10.5571  -15.8187 N   0  0  0  0  0  0  0  0  0  0  0  0
   18.9468   -9.3672  -16.1912 C   0  0  1  0  0  0  0  0  0  0  0  0
   17.4621   -9.5976  -16.0382 C   0  0  0  0  0  0  0  0  0  0  0  0
   17.0618  -10.6794  -16.9790 C   0  0  0  0  0  0  0  0  0  0  0  0
   16.6387  -11.9404  -16.6401 C   0  0  0  0  0  0  0  0  0  0  0  0
   16.3673  -12.6262  -17.7815 N   0  0  0  0  0  0  0  0  0  0  0  0
   16.6264  -11.7801  -18.8047 C   0  0  0  0  0  0  0  0  0  0  0  0
   17.0441  -10.6097  -18.3157 N   0  0  0  0  0  0  0  0  0  0  0  0
   19.3795   -8.2282  -15.3076 C   0  0  0  0  0  0  0  0  0  0  0  0
   19.4206   -8.3230  -14.0608 O   0  0  0  0  0  0  0  0  0  0  0  0
   19.7661   -6.9769  -15.8616 N   0  0  0  0  0  0  0  0  0  0  0  0
   20.4278   -5.9821  -15.0907 C   0  0  1  0  0  0  0  0  0  0  0  0
   21.7712   -6.4047  -14.5544 C   0  0  0  0  0  0  0  0  0  0  0  0
   22.4030   -5.3740  -13.7117 C   0  0  0  0  0  0  0  0  0  0  0  0
   23.2862   -4.6463  -14.2520 O   0  0  0  0  0  0  0  0  0  0  0  0
   20.6691   -4.8008  -15.9619 C   0  0  0  0  0  0  0  0  0  0  0  0
   20.9662   -4.9899  -17.1668 O   0  0  0  0  0  0  0  0  0  0  0  0
   22.1063   -5.1486  -12.3968 O   0  0  0  0  0  0  0  0  0  0  0  0
   17.8741   -0.8128  -20.9449 C   0  0  0  0  0  0  0  0  0  0  0  0
   18.0145   -2.0411  -19.6316 S   0  0  0  0  0  0  0  0  0  0  0  0
   19.3022   -1.5933  -18.4437 C   0  0  0  0  0  0  0  0  0  0  0  0
   19.5210   -2.6755  -17.4492 C   0  0  0  0  0  0  0  0  0  0  0  0
   20.6201   -2.3968  -16.4578 C   0  0  2  0  0  0  0  0  0  0  0  0
   20.5766   -3.4677  -15.4872 N   0  0  0  0  0  0  0  0  0  0  0  0
   20.4880   -1.1138  -15.7796 C   0  0  0  0  0  0  0  0  0  0  0  0
   20.1957   -1.0893  -14.5588 O   0  0  0  0  0  0  0  0  0  0  0  0
   20.6625    0.1228  -16.3835 O   0  0  0  0  0  0  0  0  0  0  0  0
  2  1  1  1
  2  3  1  0
  4  3  1  0
  5  4  2  0
  6  7  1  0
  6  5  1  0
  7  8  2  0
  8  4  1  0
  9 10  2  0
  9  2  1  0
 11  9  1  0
 12 11  1  0
 12 13  1  6
 14 13  1  0
 15 14  2  0
 16 12  1  0
 17 16  2  0
 18 14  1  0
 20 19  1  0
 21 20  1  0
 22 21  1  0
 23 22  1  6
 23 24  1  0
 24 16  1  0
 25 23  1  0
 26 25  2  0
 27 25  1  0
M  END
$$$$
