HDM.pdb
     RDKit          3D

 27 27  0  0  1  0  0  0  0  0999 V2000
   25.2749  -17.2819  -16.3280 N   0  0  0  0  0  0  0  0  0  0  0  0
   26.1877  -17.8702  -15.3764 C   0  0  1  0  0  0  0  0  0  0  0  0
   27.3180  -16.9131  -15.0810 C   0  0  0  0  0  0  0  0  0  0  0  0
   28.1537  -16.7907  -16.3067 C   0  0  0  0  0  0  0  0  0  0  0  0
   29.0111  -17.7384  -16.8077 C   0  0  0  0  0  0  0  0  0  0  0  0
   29.5847  -17.2475  -17.9376 N   0  0  0  0  0  0  0  0  0  0  0  0
   29.0738  -16.0077  -18.1163 C   0  0  0  0  0  0  0  0  0  0  0  0
   28.2130  -15.7381  -17.1315 N   0  0  0  0  0  0  0  0  0  0  0  0
   25.4415  -18.1847  -14.1078 C   0  0  0  0  0  0  0  0  0  0  0  0
   25.2484  -17.3323  -13.2127 O   0  0  0  0  0  0  0  0  0  0  0  0
   24.9162  -19.4846  -13.8697 N   0  0  0  0  0  0  0  0  0  0  0  0
   24.1431  -19.7865  -12.7152 C   0  0  1  0  0  0  0  0  0  0  0  0
   23.0222  -20.7641  -12.9574 C   0  0  0  0  0  0  0  0  0  0  0  0
   22.1127  -20.3391  -14.0362 C   0  0  0  0  0  0  0  0  0  0  0  0
   21.5663  -19.2037  -13.9187 O   0  0  0  0  0  0  0  0  0  0  0  0
   25.0391  -20.4074  -11.7031 C   0  0  0  0  0  0  0  0  0  0  0  0
   25.7456  -21.3879  -12.0428 O   0  0  0  0  0  0  0  0  0  0  0  0
   21.8182  -21.0778  -15.1477 O   0  0  0  0  0  0  0  0  0  0  0  0
   28.7019  -18.0994   -6.7738 C   0  0  0  0  0  0  0  0  0  0  0  0
   27.6050  -19.2937   -5.9840 S   0  0  0  0  0  0  0  0  0  0  0  0
   26.9671  -20.4938   -7.1768 C   0  0  0  0  0  0  0  0  0  0  0  0
   26.3538  -19.8176   -8.3494 C   0  0  0  0  0  0  0  0  0  0  0  0
   25.8308  -20.7557   -9.4054 C   0  0  2  0  0  0  0  0  0  0  0  0
   25.1289  -19.9368  -10.3684 N   0  0  0  0  0  0  0  0  0  0  0  0
   24.9351  -21.7820   -8.8880 C   0  0  0  0  0  0  0  0  0  0  0  0
   23.6939  -21.6328   -9.0050 O   0  0  0  0  0  0  0  0  0  0  0  0
   25.3462  -22.9471   -8.2572 O   0  0  0  0  0  0  0  0  0  0  0  0
  2  1  1  6
  2  3  1  0
  4  3  1  0
  5  4  2  0
  6  7  1  0
  6  5  1  0
  7  8  2  0
  8  4  1  0
  9 10  2  0
  9  2  1  0
 11  9  1  0
 12 11  1  0
 12 13  1  6
 14 13  1  0
 15 14  2  0
 16 12  1  0
 17 16  2  0
 18 14  1  0
 20 19  1  0
 21 20  1  0
 22 21  1  0
 23 22  1  1
 23 24  1  0
 24 16  1  0
 25 23  1  0
 26 25  2  0
 27 25  1  0
M  END
$$$$
