HDM.pdb
     RDKit          3D

 27 27  0  0  1  0  0  0  0  0999 V2000
   20.8346  -20.7268  -13.8365 N   0  0  0  0  0  0  0  0  0  0  0  0
   21.0270  -19.8453  -14.9637 C   0  0  1  0  0  0  0  0  0  0  0  0
   20.0648  -18.6839  -14.8849 C   0  0  0  0  0  0  0  0  0  0  0  0
   18.7068  -19.1829  -15.2349 C   0  0  0  0  0  0  0  0  0  0  0  0
   18.3931  -20.0495  -16.2522 C   0  0  0  0  0  0  0  0  0  0  0  0
   17.0503  -20.2587  -16.2425 N   0  0  0  0  0  0  0  0  0  0  0  0
   16.5573  -19.5201  -15.2220 C   0  0  0  0  0  0  0  0  0  0  0  0
   17.5590  -18.8747  -14.6191 N   0  0  0  0  0  0  0  0  0  0  0  0
   22.4431  -19.3355  -14.9542 C   0  0  0  0  0  0  0  0  0  0  0  0
   22.9440  -18.7615  -13.9618 O   0  0  0  0  0  0  0  0  0  0  0  0
   23.2843  -19.4872  -16.0906 N   0  0  0  0  0  0  0  0  0  0  0  0
   24.6164  -18.9906  -16.1155 C   0  0  1  0  0  0  0  0  0  0  0  0
   25.6746  -20.0581  -16.2219 C   0  0  0  0  0  0  0  0  0  0  0  0
   27.0441  -19.5164  -16.1682 C   0  0  0  0  0  0  0  0  0  0  0  0
   27.1661  -18.2613  -16.0615 O   0  0  0  0  0  0  0  0  0  0  0  0
   24.7672  -18.1200  -17.3122 C   0  0  0  0  0  0  0  0  0  0  0  0
   24.2913  -18.5100  -18.4064 O   0  0  0  0  0  0  0  0  0  0  0  0
   28.1849  -20.2666  -16.2250 O   0  0  0  0  0  0  0  0  0  0  0  0
   29.2410  -18.2294  -20.5915 C   0  0  0  0  0  0  0  0  0  0  0  0
   27.9313  -17.5478  -21.6276 S   0  0  0  0  0  0  0  0  0  0  0  0
   26.8528  -16.4428  -20.6866 C   0  0  0  0  0  0  0  0  0  0  0  0
   26.5908  -16.9737  -19.3236 C   0  0  0  0  0  0  0  0  0  0  0  0
   25.6200  -16.1557  -18.5130 C   0  0  2  0  0  0  0  0  0  0  0  0
   25.4269  -16.8654  -17.2682 N   0  0  0  0  0  0  0  0  0  0  0  0
   24.3337  -15.9526  -19.1671 C   0  0  0  0  0  0  0  0  0  0  0  0
   23.6965  -14.8913  -18.9573 O   0  0  0  0  0  0  0  0  0  0  0  0
   23.7320  -16.8578  -20.0290 O   0  0  0  0  0  0  0  0  0  0  0  0
  2  1  1  1
  2  3  1  0
  4  3  1  0
  5  4  2  0
  6  7  1  0
  6  5  1  0
  7  8  2  0
  8  4  1  0
  9 10  2  0
  9  2  1  0
 11  9  1  0
 12 11  1  0
 12 13  1  6
 14 13  1  0
 15 14  2  0
 16 12  1  0
 17 16  2  0
 18 14  1  0
 20 19  1  0
 21 20  1  0
 22 21  1  0
 23 22  1  6
 23 24  1  0
 24 16  1  0
 25 23  1  0
 26 25  2  0
 27 25  1  0
M  END
$$$$
