HDM.pdb
     RDKit          3D

 27 27  0  0  1  0  0  0  0  0999 V2000
   20.7847   -6.7173  -16.3726 N   0  0  0  0  0  0  0  0  0  0  0  0
   21.5082   -7.0304  -15.1630 C   0  0  1  0  0  0  0  0  0  0  0  0
   20.8802   -6.3245  -13.9848 C   0  0  0  0  0  0  0  0  0  0  0  0
   20.9249   -4.8595  -14.2448 C   0  0  0  0  0  0  0  0  0  0  0  0
   22.0431   -4.0635  -14.2387 C   0  0  0  0  0  0  0  0  0  0  0  0
   21.6672   -2.7886  -14.5220 N   0  0  0  0  0  0  0  0  0  0  0  0
   20.3263   -2.8174  -14.6983 C   0  0  0  0  0  0  0  0  0  0  0  0
   19.8849   -4.0666  -14.5302 N   0  0  0  0  0  0  0  0  0  0  0  0
   21.4765   -8.5187  -14.9414 C   0  0  0  0  0  0  0  0  0  0  0  0
   21.8655   -9.0481  -13.8767 O   0  0  0  0  0  0  0  0  0  0  0  0
   20.9954   -9.3995  -15.9488 N   0  0  0  0  0  0  0  0  0  0  0  0
   20.9445  -10.8077  -15.7587 C   0  0  1  0  0  0  0  0  0  0  0  0
   19.8118  -11.4906  -16.4810 C   0  0  0  0  0  0  0  0  0  0  0  0
   18.4986  -11.2316  -15.8644 C   0  0  0  0  0  0  0  0  0  0  0  0
   18.3258  -11.6385  -14.6786 O   0  0  0  0  0  0  0  0  0  0  0  0
   22.2039  -11.3957  -16.2886 C   0  0  0  0  0  0  0  0  0  0  0  0
   22.7070  -10.9073  -17.3299 O   0  0  0  0  0  0  0  0  0  0  0  0
   17.4601  -10.5880  -16.4766 O   0  0  0  0  0  0  0  0  0  0  0  0
   29.0809  -13.6529  -15.8351 C   0  0  0  0  0  0  0  0  0  0  0  0
   27.4945  -12.9441  -15.3514 S   0  0  0  0  0  0  0  0  0  0  0  0
   26.1733  -14.1771  -15.4159 C   0  0  0  0  0  0  0  0  0  0  0  0
   24.8618  -13.5847  -15.0455 C   0  0  0  0  0  0  0  0  0  0  0  0
   24.1562  -12.8801  -16.1744 C   0  0  2  0  0  0  0  0  0  0  0  0
   22.8614  -12.4865  -15.6651 N   0  0  0  0  0  0  0  0  0  0  0  0
   23.9860  -13.7027  -17.3652 C   0  0  0  0  0  0  0  0  0  0  0  0
   23.0451  -14.5326  -17.4116 O   0  0  0  0  0  0  0  0  0  0  0  0
   24.7984  -13.6475  -18.4884 O   0  0  0  0  0  0  0  0  0  0  0  0
  2  1  1  6
  2  3  1  0
  4  3  1  0
  5  4  2  0
  6  7  1  0
  6  5  1  0
  7  8  2  0
  8  4  1  0
  9 10  2  0
  9  2  1  0
 11  9  1  0
 12 11  1  0
 12 13  1  6
 14 13  1  0
 15 14  2  0
 16 12  1  0
 17 16  2  0
 18 14  1  0
 20 19  1  0
 21 20  1  0
 22 21  1  0
 23 22  1  1
 23 24  1  0
 24 16  1  0
 25 23  1  0
 26 25  2  0
 27 25  1  0
M  END
$$$$
