AWR.pdb
     RDKit          3D

 31 32  0  0  1  0  0  0  0  0999 V2000
   25.4817  -19.6033  -20.4268 C   0  0  0  0  0  0  0  0  0  0  0  0
   26.5840  -18.6621  -20.0605 C   0  0  2  0  0  0  0  0  0  0  0  0
   27.6980  -19.2671  -19.4021 N   0  0  0  0  0  0  0  0  0  0  0  0
   26.0397  -17.5887  -19.2095 C   0  0  0  0  0  0  0  0  0  0  0  0
   26.1543  -17.7077  -17.9499 O   0  0  0  0  0  0  0  0  0  0  0  0
   25.4090  -16.4602  -19.7621 N   0  0  0  0  0  0  0  0  0  0  0  0
   24.9261  -15.3770  -18.8664 C   0  0  1  0  0  0  0  0  0  0  0  0
   25.5889  -14.1370  -19.3599 C   0  0  0  0  0  0  0  0  0  0  0  0
   26.9203  -13.9485  -18.7652 C   0  0  0  0  0  0  0  0  0  0  0  0
   28.1288  -13.8709  -19.4759 C   0  0  0  0  0  0  0  0  0  0  0  0
   29.1202  -13.7408  -18.5993 N   0  0  0  0  0  0  0  0  0  0  0  0
   28.6582  -13.7248  -17.3463 C   0  0  0  0  0  0  0  0  0  0  0  0
   29.3303  -13.5882  -16.1312 C   0  0  0  0  0  0  0  0  0  0  0  0
   28.5837  -13.5807  -14.9772 C   0  0  0  0  0  0  0  0  0  0  0  0
   27.2069  -13.7070  -15.0560 C   0  0  0  0  0  0  0  0  0  0  0  0
   26.5599  -13.8404  -16.2428 C   0  0  0  0  0  0  0  0  0  0  0  0
   27.2915  -13.8525  -17.4320 C   0  0  0  0  0  0  0  0  0  0  0  0
   23.4651  -15.3591  -19.0191 C   0  0  0  0  0  0  0  0  0  0  0  0
   23.0290  -15.5378  -20.2096 O   0  0  0  0  0  0  0  0  0  0  0  0
   16.9873  -18.6615  -16.2174 N   0  0  0  0  0  0  0  0  0  0  0  0
   18.1877  -19.3128  -15.8805 C   0  0  0  0  0  0  0  0  0  0  0  0
   18.4387  -20.5094  -16.2659 N   0  0  0  0  0  0  0  0  0  0  0  0
   19.1839  -18.6601  -15.0881 N   0  0  0  0  0  0  0  0  0  0  0  0
   19.4353  -17.2566  -15.2908 C   0  0  0  0  0  0  0  0  0  0  0  0
   19.9763  -16.8972  -16.6078 C   0  0  0  0  0  0  0  0  0  0  0  0
   20.4978  -15.5921  -16.9372 C   0  0  0  0  0  0  0  0  0  0  0  0
   21.0762  -15.1647  -18.2349 C   0  0  2  0  0  0  0  0  0  0  0  0
   22.5823  -15.1628  -17.9576 N   0  0  0  0  0  0  0  0  0  0  0  0
   20.8868  -13.7146  -18.5521 C   0  0  0  0  0  0  0  0  0  0  0  0
   21.7736  -12.7395  -18.0409 O   0  0  0  0  0  0  0  0  0  0  0  0
   19.9879  -13.2817  -19.2478 O   0  0  0  0  0  0  0  0  0  0  0  0
  2  3  1  0
  2  1  1  1
  4  2  1  0
  5  4  2  0
  6  4  1  0
  7  8  1  6
  7  6  1  0
  9  8  1  0
 10  9  2  0
 11 12  1  0
 11 10  1  0
 12 17  2  0
 13 14  2  0
 13 12  1  0
 14 15  1  0
 15 16  2  0
 17  9  1  0
 17 16  1  0
 18  7  1  0
 19 18  2  0
 21 20  1  0
 21 22  2  0
 23 21  1  0
 24 23  1  0
 25 24  1  0
 26 25  1  0
 27 26  1  1
 27 28  1  0
 28 18  1  0
 29 30  1  0
 29 27  1  0
 31 29  2  0
M  END
$$$$
