AWR.pdb
     RDKit          3D

 31 32  0  0  1  0  0  0  0  0999 V2000
   27.4233  -19.5792  -15.5303 C   0  0  0  0  0  0  0  0  0  0  0  0
   28.1782  -20.3953  -14.5306 C   0  0  2  0  0  0  0  0  0  0  0  0
   28.9927  -21.4278  -15.0884 N   0  0  0  0  0  0  0  0  0  0  0  0
   27.2265  -20.9890  -13.5744 C   0  0  0  0  0  0  0  0  0  0  0  0
   26.8563  -22.1892  -13.7659 O   0  0  0  0  0  0  0  0  0  0  0  0
   26.7341  -20.2600  -12.4777 N   0  0  0  0  0  0  0  0  0  0  0  0
   25.7442  -20.8875  -11.5640 C   0  0  1  0  0  0  0  0  0  0  0  0
   25.8757  -20.1475  -10.2773 C   0  0  0  0  0  0  0  0  0  0  0  0
   27.1214  -20.4833   -9.5722 C   0  0  0  0  0  0  0  0  0  0  0  0
   28.1547  -21.2884  -10.0779 C   0  0  0  0  0  0  0  0  0  0  0  0
   29.0932  -21.3984   -9.1423 N   0  0  0  0  0  0  0  0  0  0  0  0
   28.7599  -20.7198   -8.0413 C   0  0  0  0  0  0  0  0  0  0  0  0
   29.4455  -20.5444   -6.8389 C   0  0  0  0  0  0  0  0  0  0  0  0
   28.8639  -19.7596   -5.8720 C   0  0  0  0  0  0  0  0  0  0  0  0
   27.6328  -19.1754   -6.1187 C   0  0  0  0  0  0  0  0  0  0  0  0
   26.9711  -19.3515   -7.2917 C   0  0  0  0  0  0  0  0  0  0  0  0
   27.5362  -20.1443   -8.2924 C   0  0  0  0  0  0  0  0  0  0  0  0
   24.4379  -20.7066  -12.2113 C   0  0  0  0  0  0  0  0  0  0  0  0
   24.3192  -19.6602  -12.9395 O   0  0  0  0  0  0  0  0  0  0  0  0
   18.6784  -25.1159   -9.2587 N   0  0  0  0  0  0  0  0  0  0  0  0
   17.6950  -24.3859   -9.9506 C   0  0  0  0  0  0  0  0  0  0  0  0
   16.5437  -24.1494   -9.4388 N   0  0  0  0  0  0  0  0  0  0  0  0
   17.9430  -23.8744  -11.2632 N   0  0  0  0  0  0  0  0  0  0  0  0
   19.2715  -23.9612  -11.8123 C   0  0  0  0  0  0  0  0  0  0  0  0
   19.9649  -22.6789  -11.9896 C   0  0  0  0  0  0  0  0  0  0  0  0
   21.2760  -22.5452  -12.5788 C   0  0  0  0  0  0  0  0  0  0  0  0
   22.0474  -21.2911  -12.7620 C   0  0  2  0  0  0  0  0  0  0  0  0
   23.3752  -21.5974  -12.0632 N   0  0  0  0  0  0  0  0  0  0  0  0
   21.5856  -20.1481  -11.9137 C   0  0  0  0  0  0  0  0  0  0  0  0
   20.7235  -19.1583  -12.4389 O   0  0  0  0  0  0  0  0  0  0  0  0
   21.9060  -19.9903  -10.7510 O   0  0  0  0  0  0  0  0  0  0  0  0
  2  3  1  0
  2  1  1  6
  4  2  1  0
  5  4  2  0
  6  4  1  0
  7  8  1  1
  7  6  1  0
  9  8  1  0
 10  9  2  0
 11 12  1  0
 11 10  1  0
 12 17  2  0
 13 14  2  0
 13 12  1  0
 14 15  1  0
 15 16  2  0
 17  9  1  0
 17 16  1  0
 18  7  1  0
 19 18  2  0
 21 20  1  0
 21 22  2  0
 23 21  1  0
 24 23  1  0
 25 24  1  0
 26 25  1  0
 27 26  1  1
 27 28  1  0
 28 18  1  0
 29 30  1  0
 29 27  1  0
 31 29  2  0
M  END
$$$$
