AWR.pdb
     RDKit          3D

 31 32  0  0  1  0  0  0  0  0999 V2000
   25.3827  -20.2349  -17.1066 C   0  0  0  0  0  0  0  0  0  0  0  0
   26.8061  -20.5519  -16.7772 C   0  0  2  0  0  0  0  0  0  0  0  0
   27.4042  -21.5569  -17.5974 N   0  0  0  0  0  0  0  0  0  0  0  0
   26.8952  -20.9603  -15.3638 C   0  0  0  0  0  0  0  0  0  0  0  0
   26.4593  -22.1102  -15.0447 O   0  0  0  0  0  0  0  0  0  0  0  0
   27.4442  -20.1122  -14.3861 N   0  0  0  0  0  0  0  0  0  0  0  0
   27.5714  -20.5923  -12.9854 C   0  0  1  0  0  0  0  0  0  0  0  0
   28.6891  -19.7993  -12.4002 C   0  0  0  0  0  0  0  0  0  0  0  0
   29.0162  -20.2314  -11.0335 C   0  0  0  0  0  0  0  0  0  0  0  0
   29.9000  -21.2685  -10.6941 C   0  0  0  0  0  0  0  0  0  0  0  0
   29.9073  -21.3934   -9.3703 N   0  0  0  0  0  0  0  0  0  0  0  0
   29.0878  -20.5084   -8.7969 C   0  0  0  0  0  0  0  0  0  0  0  0
   28.8029  -20.2717   -7.4517 C   0  0  0  0  0  0  0  0  0  0  0  0
   27.9228  -19.2612   -7.1457 C   0  0  0  0  0  0  0  0  0  0  0  0
   27.3548  -18.5200   -8.1682 C   0  0  0  0  0  0  0  0  0  0  0  0
   27.6365  -18.7570   -9.4757 C   0  0  0  0  0  0  0  0  0  0  0  0
   28.5259  -19.7775   -9.8176 C   0  0  0  0  0  0  0  0  0  0  0  0
   26.2718  -20.3235  -12.3554 C   0  0  0  0  0  0  0  0  0  0  0  0
   25.7435  -19.1909  -12.6335 O   0  0  0  0  0  0  0  0  0  0  0  0
   22.1077  -21.6893  -15.9818 N   0  0  0  0  0  0  0  0  0  0  0  0
   20.9175  -21.5701  -15.2417 C   0  0  0  0  0  0  0  0  0  0  0  0
   19.8659  -22.2397  -15.5403 N   0  0  0  0  0  0  0  0  0  0  0  0
   20.8330  -20.6897  -14.1174 N   0  0  0  0  0  0  0  0  0  0  0  0
   22.0306  -20.0566  -13.6285 C   0  0  0  0  0  0  0  0  0  0  0  0
   23.0889  -20.9710  -13.1812 C   0  0  0  0  0  0  0  0  0  0  0  0
   23.2912  -21.3601  -11.8059 C   0  0  0  0  0  0  0  0  0  0  0  0
   24.2985  -20.8136  -10.8636 C   0  0  2  0  0  0  0  0  0  0  0  0
   25.6280  -21.2217  -11.5047 N   0  0  0  0  0  0  0  0  0  0  0  0
   24.4124  -21.5623   -9.5729 C   0  0  0  0  0  0  0  0  0  0  0  0
   25.4850  -22.4547   -9.3454 O   0  0  0  0  0  0  0  0  0  0  0  0
   23.6191  -21.4632   -8.6561 O   0  0  0  0  0  0  0  0  0  0  0  0
  2  3  1  0
  2  1  1  6
  4  2  1  0
  5  4  2  0
  6  4  1  0
  7  8  1  1
  7  6  1  0
  9  8  1  0
 10  9  2  0
 11 12  1  0
 11 10  1  0
 12 17  2  0
 13 14  2  0
 13 12  1  0
 14 15  1  0
 15 16  2  0
 17  9  1  0
 17 16  1  0
 18  7  1  0
 19 18  2  0
 21 20  1  0
 21 22  2  0
 23 21  1  0
 24 23  1  0
 25 24  1  0
 26 25  1  0
 27 26  1  6
 27 28  1  0
 28 18  1  0
 29 30  1  0
 29 27  1  0
 31 29  2  0
M  END
$$$$
