AWR.pdb
     RDKit          3D

 31 32  0  0  1  0  0  0  0  0999 V2000
   26.3541  -23.5121  -18.0878 C   0  0  0  0  0  0  0  0  0  0  0  0
   27.1123  -23.6262  -16.8044 C   0  0  2  0  0  0  0  0  0  0  0  0
   27.9026  -24.8092  -16.6754 N   0  0  0  0  0  0  0  0  0  0  0  0
   26.1670  -23.5468  -15.6763 C   0  0  0  0  0  0  0  0  0  0  0  0
   25.7202  -24.6333  -15.1926 O   0  0  0  0  0  0  0  0  0  0  0  0
   25.7625  -22.3113  -15.1410 N   0  0  0  0  0  0  0  0  0  0  0  0
   24.9139  -22.2823  -13.9213 C   0  0  1  0  0  0  0  0  0  0  0  0
   25.1923  -20.9651  -13.2825 C   0  0  0  0  0  0  0  0  0  0  0  0
   24.5354  -20.8366  -11.9734 C   0  0  0  0  0  0  0  0  0  0  0  0
   25.0462  -21.3082  -10.7534 C   0  0  0  0  0  0  0  0  0  0  0  0
   24.1568  -21.0464   -9.8002 N   0  0  0  0  0  0  0  0  0  0  0  0
   23.0823  -20.4291  -10.2982 C   0  0  0  0  0  0  0  0  0  0  0  0
   21.9306  -19.9578   -9.6672 C   0  0  0  0  0  0  0  0  0  0  0  0
   20.9828  -19.3284  -10.4385 C   0  0  0  0  0  0  0  0  0  0  0  0
   21.1984  -19.1836  -11.7987 C   0  0  0  0  0  0  0  0  0  0  0  0
   22.3219  -19.6459  -12.4060 C   0  0  0  0  0  0  0  0  0  0  0  0
   23.3021  -20.2906  -11.6488 C   0  0  0  0  0  0  0  0  0  0  0  0
   23.5311  -22.4200  -14.3979 C   0  0  0  0  0  0  0  0  0  0  0  0
   23.2363  -21.7494  -15.4481 O   0  0  0  0  0  0  0  0  0  0  0  0
   21.5926  -28.7723  -13.5390 N   0  0  0  0  0  0  0  0  0  0  0  0
   20.2955  -28.3170  -13.2408 C   0  0  0  0  0  0  0  0  0  0  0  0
   19.7893  -28.4383  -12.0693 N   0  0  0  0  0  0  0  0  0  0  0  0
   19.4836  -27.6957  -14.2413 N   0  0  0  0  0  0  0  0  0  0  0  0
   19.0449  -26.3377  -14.0472 C   0  0  0  0  0  0  0  0  0  0  0  0
   19.6818  -25.3397  -14.9159 C   0  0  0  0  0  0  0  0  0  0  0  0
   20.9369  -24.6925  -14.6163 C   0  0  0  0  0  0  0  0  0  0  0  0
   21.1516  -23.2525  -14.3309 C   0  0  2  0  0  0  0  0  0  0  0  0
   22.5766  -23.2203  -13.7709 N   0  0  0  0  0  0  0  0  0  0  0  0
   20.4107  -22.7386  -13.1366 C   0  0  0  0  0  0  0  0  0  0  0  0
   21.0700  -22.5532  -11.8998 O   0  0  0  0  0  0  0  0  0  0  0  0
   19.2285  -22.4527  -13.1400 O   0  0  0  0  0  0  0  0  0  0  0  0
  2  3  1  0
  2  1  1  6
  4  2  1  0
  5  4  2  0
  6  4  1  0
  7  8  1  6
  7  6  1  0
  9  8  1  0
 10  9  2  0
 11 12  1  0
 11 10  1  0
 12 17  2  0
 13 14  2  0
 13 12  1  0
 14 15  1  0
 15 16  2  0
 17  9  1  0
 17 16  1  0
 18  7  1  0
 19 18  2  0
 21 20  1  0
 21 22  2  0
 23 21  1  0
 24 23  1  0
 25 24  1  0
 26 25  1  0
 27 26  1  1
 27 28  1  0
 28 18  1  0
 29 30  1  0
 29 27  1  0
 31 29  2  0
M  END
$$$$
