AWR.pdb
     RDKit          3D

 31 32  0  0  1  0  0  0  0  0999 V2000
   26.9652  -17.3242  -14.9082 C   0  0  0  0  0  0  0  0  0  0  0  0
   28.1486  -18.0564  -14.3618 C   0  0  2  0  0  0  0  0  0  0  0  0
   28.8761  -18.8253  -15.3212 N   0  0  0  0  0  0  0  0  0  0  0  0
   27.7077  -18.9371  -13.2653 C   0  0  0  0  0  0  0  0  0  0  0  0
   27.3857  -20.1325  -13.5508 O   0  0  0  0  0  0  0  0  0  0  0  0
   27.6402  -18.4810  -11.9372 N   0  0  0  0  0  0  0  0  0  0  0  0
   27.2964  -19.4343  -10.8501 C   0  0  1  0  0  0  0  0  0  0  0  0
   27.8997  -18.8552   -9.6168 C   0  0  0  0  0  0  0  0  0  0  0  0
   27.6432  -19.6886   -8.4330 C   0  0  0  0  0  0  0  0  0  0  0  0
   27.1931  -21.0185   -8.4523 C   0  0  0  0  0  0  0  0  0  0  0  0
   27.0380  -21.4243   -7.1955 N   0  0  0  0  0  0  0  0  0  0  0  0
   27.3549  -20.4556   -6.3324 C   0  0  0  0  0  0  0  0  0  0  0  0
   27.3594  -20.4467   -4.9372 C   0  0  0  0  0  0  0  0  0  0  0  0
   27.7634  -19.2979   -4.2996 C   0  0  0  0  0  0  0  0  0  0  0  0
   28.1481  -18.2009   -5.0521 C   0  0  0  0  0  0  0  0  0  0  0  0
   28.1403  -18.2170   -6.4102 C   0  0  0  0  0  0  0  0  0  0  0  0
   27.7339  -19.3693   -7.0860 C   0  0  0  0  0  0  0  0  0  0  0  0
   25.8285  -19.4824  -10.8155 C   0  0  0  0  0  0  0  0  0  0  0  0
   25.2271  -18.5706  -11.4836 O   0  0  0  0  0  0  0  0  0  0  0  0
   22.6030  -25.9950  -13.9278 N   0  0  0  0  0  0  0  0  0  0  0  0
   22.5264  -24.9126  -14.8230 C   0  0  0  0  0  0  0  0  0  0  0  0
   21.6771  -24.8882  -15.7829 N   0  0  0  0  0  0  0  0  0  0  0  0
   23.4004  -23.7873  -14.6963 N   0  0  0  0  0  0  0  0  0  0  0  0
   24.2792  -23.7040  -13.5584 C   0  0  0  0  0  0  0  0  0  0  0  0
   23.7391  -22.9867  -12.3964 C   0  0  0  0  0  0  0  0  0  0  0  0
   24.2716  -21.7409  -11.8982 C   0  0  0  0  0  0  0  0  0  0  0  0
   23.8041  -20.9825  -10.7117 C   0  0  2  0  0  0  0  0  0  0  0  0
   25.1060  -20.4448  -10.1108 N   0  0  0  0  0  0  0  0  0  0  0  0
   23.3451  -21.8351   -9.5707 C   0  0  0  0  0  0  0  0  0  0  0  0
   22.0388  -21.7020   -9.0467 O   0  0  0  0  0  0  0  0  0  0  0  0
   24.0365  -22.6757   -9.0278 O   0  0  0  0  0  0  0  0  0  0  0  0
  2  3  1  0
  2  1  1  6
  4  2  1  0
  5  4  2  0
  6  4  1  0
  7  8  1  1
  7  6  1  0
  9  8  1  0
 10  9  2  0
 11 12  1  0
 11 10  1  0
 12 17  2  0
 13 14  2  0
 13 12  1  0
 14 15  1  0
 15 16  2  0
 17  9  1  0
 17 16  1  0
 18  7  1  0
 19 18  2  0
 21 20  1  0
 21 22  2  0
 23 21  1  0
 24 23  1  0
 25 24  1  0
 26 25  1  0
 27 26  1  6
 27 28  1  0
 28 18  1  0
 29 30  1  0
 29 27  1  0
 31 29  2  0
M  END
$$$$
