AWR.pdb
     RDKit          3D

 31 32  0  0  1  0  0  0  0  0999 V2000
   42.9566   -4.4890   -6.8598 C   0  0  0  0  0  0  0  0  0  0  0  0
   41.9421   -4.8562   -5.8249 C   0  0  2  0  0  0  0  0  0  0  0  0
   42.3497   -4.6282   -4.4749 N   0  0  0  0  0  0  0  0  0  0  0  0
   41.5755   -6.2743   -5.9898 C   0  0  0  0  0  0  0  0  0  0  0  0
   42.3310   -7.1522   -5.4677 O   0  0  0  0  0  0  0  0  0  0  0  0
   40.4259   -6.6590   -6.7021 N   0  0  0  0  0  0  0  0  0  0  0  0
   40.0458   -8.0945   -6.7624 C   0  0  1  0  0  0  0  0  0  0  0  0
   38.5996   -8.1012   -7.1213 C   0  0  0  0  0  0  0  0  0  0  0  0
   38.0747   -9.4663   -7.2724 C   0  0  0  0  0  0  0  0  0  0  0  0
   37.8340  -10.3695   -6.2246 C   0  0  0  0  0  0  0  0  0  0  0  0
   37.4028  -11.5123   -6.7503 N   0  0  0  0  0  0  0  0  0  0  0  0
   37.3367  -11.4370   -8.0821 C   0  0  0  0  0  0  0  0  0  0  0  0
   36.9254  -12.3780   -9.0266 C   0  0  0  0  0  0  0  0  0  0  0  0
   36.9374  -12.0116  -10.3513 C   0  0  0  0  0  0  0  0  0  0  0  0
   37.3514  -10.7374  -10.7017 C   0  0  0  0  0  0  0  0  0  0  0  0
   37.7512   -9.8270   -9.7763 C   0  0  0  0  0  0  0  0  0  0  0  0
   37.7508  -10.1706   -8.4230 C   0  0  0  0  0  0  0  0  0  0  0  0
   40.9067   -8.6888   -7.7938 C   0  0  0  0  0  0  0  0  0  0  0  0
   41.2796   -7.8979   -8.7292 O   0  0  0  0  0  0  0  0  0  0  0  0
   47.2656  -14.8861   -7.7484 N   0  0  0  0  0  0  0  0  0  0  0  0
   46.9521  -13.9181   -6.7772 C   0  0  0  0  0  0  0  0  0  0  0  0
   47.7499  -13.6471   -5.8109 N   0  0  0  0  0  0  0  0  0  0  0  0
   45.7208  -13.1919   -6.8299 N   0  0  0  0  0  0  0  0  0  0  0  0
   44.7910  -13.4608   -7.8963 C   0  0  0  0  0  0  0  0  0  0  0  0
   44.2310  -12.2754   -8.5577 C   0  0  0  0  0  0  0  0  0  0  0  0
   43.0208  -11.6116   -8.1349 C   0  0  0  0  0  0  0  0  0  0  0  0
   42.3253  -10.4992   -8.8279 C   0  0  2  0  0  0  0  0  0  0  0  0
   41.3100  -10.0237   -7.7848 N   0  0  0  0  0  0  0  0  0  0  0  0
   41.3810  -10.9319   -9.9050 C   0  0  0  0  0  0  0  0  0  0  0  0
   41.8368  -11.1416  -11.2268 O   0  0  0  0  0  0  0  0  0  0  0  0
   40.1933  -11.1281   -9.7307 O   0  0  0  0  0  0  0  0  0  0  0  0
  2  3  1  0
  2  1  1  6
  4  2  1  0
  5  4  2  0
  6  4  1  0
  7  8  1  6
  7  6  1  0
  9  8  1  0
 10  9  2  0
 11 12  1  0
 11 10  1  0
 12 17  2  0
 13 14  2  0
 13 12  1  0
 14 15  1  0
 15 16  2  0
 17  9  1  0
 17 16  1  0
 18  7  1  0
 19 18  2  0
 21 20  1  0
 21 22  2  0
 23 21  1  0
 24 23  1  0
 25 24  1  0
 26 25  1  0
 27 26  1  1
 27 28  1  0
 28 18  1  0
 29 30  1  0
 29 27  1  0
 31 29  2  0
M  END
$$$$
