AWR.pdb
     RDKit          3D

 31 32  0  0  1  0  0  0  0  0999 V2000
   29.8322  -20.1951  -12.6357 C   0  0  0  0  0  0  0  0  0  0  0  0
   29.9956  -20.7422  -11.2540 C   0  0  2  0  0  0  0  0  0  0  0  0
   30.8549  -21.8791  -11.1546 N   0  0  0  0  0  0  0  0  0  0  0  0
   28.6693  -21.0855  -10.7105 C   0  0  0  0  0  0  0  0  0  0  0  0
   28.2738  -22.2884  -10.8129 O   0  0  0  0  0  0  0  0  0  0  0  0
   27.8544  -20.1197  -10.0940 N   0  0  0  0  0  0  0  0  0  0  0  0
   26.5129  -20.5076   -9.5854 C   0  0  1  0  0  0  0  0  0  0  0  0
   26.2396  -19.5769   -8.4542 C   0  0  0  0  0  0  0  0  0  0  0  0
   26.5144  -20.1975   -7.1499 C   0  0  0  0  0  0  0  0  0  0  0  0
   25.8741  -21.3368   -6.6363 C   0  0  0  0  0  0  0  0  0  0  0  0
   26.3562  -21.5730   -5.4198 N   0  0  0  0  0  0  0  0  0  0  0  0
   27.2790  -20.6686   -5.0818 C   0  0  0  0  0  0  0  0  0  0  0  0
   28.0490  -20.5441   -3.9249 C   0  0  0  0  0  0  0  0  0  0  0  0
   28.9546  -19.5122   -3.8595 C   0  0  0  0  0  0  0  0  0  0  0  0
   29.0728  -18.6410   -4.9294 C   0  0  0  0  0  0  0  0  0  0  0  0
   28.3189  -18.7683   -6.0521 C   0  0  0  0  0  0  0  0  0  0  0  0
   27.3896  -19.8060   -6.1473 C   0  0  0  0  0  0  0  0  0  0  0  0
   25.5947  -20.3350  -10.7191 C   0  0  0  0  0  0  0  0  0  0  0  0
   25.7960  -19.2989  -11.4439 O   0  0  0  0  0  0  0  0  0  0  0  0
   25.2622  -25.7428  -15.4815 N   0  0  0  0  0  0  0  0  0  0  0  0
   25.4425  -24.6914  -16.3983 C   0  0  0  0  0  0  0  0  0  0  0  0
   25.2029  -24.8368  -17.6493 N   0  0  0  0  0  0  0  0  0  0  0  0
   25.9041  -23.4078  -15.9674 N   0  0  0  0  0  0  0  0  0  0  0  0
   25.6821  -23.0023  -14.6034 C   0  0  0  0  0  0  0  0  0  0  0  0
   24.2746  -22.8645  -14.2083 C   0  0  0  0  0  0  0  0  0  0  0  0
   23.8419  -22.4597  -12.8919 C   0  0  0  0  0  0  0  0  0  0  0  0
   23.8181  -21.0801  -12.3463 C   0  0  2  0  0  0  0  0  0  0  0  0
   24.5608  -21.2228  -11.0147 N   0  0  0  0  0  0  0  0  0  0  0  0
   22.4838  -20.6380  -11.8330 C   0  0  0  0  0  0  0  0  0  0  0  0
   22.0640  -20.9719  -10.5249 O   0  0  0  0  0  0  0  0  0  0  0  0
   21.6889  -19.9823  -12.4793 O   0  0  0  0  0  0  0  0  0  0  0  0
  2  3  1  0
  2  1  1  6
  4  2  1  0
  5  4  2  0
  6  4  1  0
  7  8  1  1
  7  6  1  0
  9  8  1  0
 10  9  2  0
 11 12  1  0
 11 10  1  0
 12 17  2  0
 13 14  2  0
 13 12  1  0
 14 15  1  0
 15 16  2  0
 17  9  1  0
 17 16  1  0
 18  7  1  0
 19 18  2  0
 21 20  1  0
 21 22  2  0
 23 21  1  0
 24 23  1  0
 25 24  1  0
 26 25  1  0
 27 26  1  1
 27 28  1  0
 28 18  1  0
 29 30  1  0
 29 27  1  0
 31 29  2  0
M  END
$$$$
