AWR.pdb
     RDKit          3D

 31 32  0  0  1  0  0  0  0  0999 V2000
   27.5747  -22.7896  -16.8527 C   0  0  0  0  0  0  0  0  0  0  0  0
   26.6634  -21.8635  -17.5923 C   0  0  2  0  0  0  0  0  0  0  0  0
   27.2445  -21.2324  -18.7345 N   0  0  0  0  0  0  0  0  0  0  0  0
   26.1680  -20.8307  -16.6648 C   0  0  0  0  0  0  0  0  0  0  0  0
   27.0224  -20.1276  -16.0405 O   0  0  0  0  0  0  0  0  0  0  0  0
   24.7923  -20.6187  -16.4666 N   0  0  0  0  0  0  0  0  0  0  0  0
   24.3407  -19.5793  -15.5052 C   0  0  1  0  0  0  0  0  0  0  0  0
   23.5360  -18.6213  -16.3145 C   0  0  0  0  0  0  0  0  0  0  0  0
   24.3741  -17.5899  -16.9434 C   0  0  0  0  0  0  0  0  0  0  0  0
   24.4340  -17.3126  -18.3186 C   0  0  0  0  0  0  0  0  0  0  0  0
   25.3291  -16.3482  -18.5107 N   0  0  0  0  0  0  0  0  0  0  0  0
   25.8743  -15.9579  -17.3557 C   0  0  0  0  0  0  0  0  0  0  0  0
   26.8278  -14.9754  -17.0865 C   0  0  0  0  0  0  0  0  0  0  0  0
   27.1903  -14.7685  -15.7769 C   0  0  0  0  0  0  0  0  0  0  0  0
   26.6054  -15.5310  -14.7798 C   0  0  0  0  0  0  0  0  0  0  0  0
   25.6784  -16.4863  -15.0499 C   0  0  0  0  0  0  0  0  0  0  0  0
   25.2908  -16.7201  -16.3708 C   0  0  0  0  0  0  0  0  0  0  0  0
   23.5531  -20.2934  -14.4913 C   0  0  0  0  0  0  0  0  0  0  0  0
   22.7617  -21.1958  -14.9371 O   0  0  0  0  0  0  0  0  0  0  0  0
   27.4296  -21.8946  -11.9980 N   0  0  0  0  0  0  0  0  0  0  0  0
   27.2563  -20.5063  -11.8531 C   0  0  0  0  0  0  0  0  0  0  0  0
   27.8527  -19.6673  -12.6173 N   0  0  0  0  0  0  0  0  0  0  0  0
   26.4007  -19.9714  -10.8392 N   0  0  0  0  0  0  0  0  0  0  0  0
   25.8073  -20.8639   -9.8772 C   0  0  0  0  0  0  0  0  0  0  0  0
   24.4895  -21.3986  -10.2429 C   0  0  0  0  0  0  0  0  0  0  0  0
   23.4390  -20.6134  -10.8460 C   0  0  0  0  0  0  0  0  0  0  0  0
   22.7853  -20.8551  -12.1558 C   0  0  2  0  0  0  0  0  0  0  0  0
   23.6376  -20.0302  -13.1244 N   0  0  0  0  0  0  0  0  0  0  0  0
   21.4734  -20.1573  -12.3335 C   0  0  0  0  0  0  0  0  0  0  0  0
   20.2616  -20.7912  -11.9754 O   0  0  0  0  0  0  0  0  0  0  0  0
   21.3556  -19.0335  -12.7837 O   0  0  0  0  0  0  0  0  0  0  0  0
  2  3  1  0
  2  1  1  1
  4  2  1  0
  5  4  2  0
  6  4  1  0
  7  8  1  6
  7  6  1  0
  9  8  1  0
 10  9  2  0
 11 12  1  0
 11 10  1  0
 12 17  2  0
 13 14  2  0
 13 12  1  0
 14 15  1  0
 15 16  2  0
 17  9  1  0
 17 16  1  0
 18  7  1  0
 19 18  2  0
 21 20  1  0
 21 22  2  0
 23 21  1  0
 24 23  1  0
 25 24  1  0
 26 25  1  0
 27 26  1  1
 27 28  1  0
 28 18  1  0
 29 30  1  0
 29 27  1  0
 31 29  2  0
M  END
$$$$
