PSK.pdb
     RDKit          3D

 23 23  0  0  1  0  0  0  0  0999 V2000
    7.6593  -16.3023   18.0088 N   0  0  0  0  0  0  0  0  0  0  0  0
    8.2898  -17.5979   17.9940 C   0  0  0  0  0  0  0  0  0  0  0  0
    7.7059  -18.4076   19.1118 C   0  0  0  0  0  0  0  0  0  0  0  0
    6.4541  -17.6027   19.4684 C   0  0  0  0  0  0  0  0  0  0  0  0
    6.9666  -16.1888   19.2702 C   0  0  1  0  0  0  0  0  0  0  0  0
    7.9428  -15.8950   20.3366 C   0  0  0  0  0  0  0  0  0  0  0  0
    9.1666  -16.0755   20.0919 O   0  0  0  0  0  0  0  0  0  0  0  0
    6.7156  -14.7440   24.1950 O   0  0  0  0  0  0  0  0  0  0  0  0
    7.7670  -14.0778   23.5734 C   0  0  0  0  0  0  0  0  0  0  0  0
    8.4790  -14.9598   22.5733 C   0  0  2  0  0  0  0  0  0  0  0  0
    7.5129  -15.4146   21.6244 N   0  0  0  0  0  0  0  0  0  0  0  0
    9.2123  -16.0662   23.2263 C   0  0  0  0  0  0  0  0  0  0  0  0
    8.6751  -17.2231   23.2604 O   0  0  0  0  0  0  0  0  0  0  0  0
   10.4668  -15.9572   23.8217 N   0  0  0  0  0  0  0  0  0  0  0  0
   11.1376  -17.0773   24.4721 C   0  0  1  0  0  0  0  0  0  0  0  0
   12.4688  -17.3481   23.9138 C   0  0  0  0  0  0  0  0  0  0  0  0
   12.4193  -17.8052   22.4916 C   0  0  0  0  0  0  0  0  0  0  0  0
   13.7754  -18.0973   21.9048 C   0  0  0  0  0  0  0  0  0  0  0  0
   13.5279  -18.6134   20.4860 C   0  0  0  0  0  0  0  0  0  0  0  0
   14.7700  -18.9916   19.8471 N   0  0  0  0  0  0  0  0  0  0  0  0
   11.1772  -16.7477   25.9021 C   0  0  0  0  0  0  0  0  0  0  0  0
   11.6317  -17.6541   26.8497 O   0  0  0  0  0  0  0  0  0  0  0  0
   10.8031  -15.6380   26.3217 O   0  0  0  0  0  0  0  0  0  0  0  0
  1  5  1  0
  1  2  1  0
  2  3  1  0
  3  4  1  0
  5  6  1  1
  5  4  1  0
  6 11  1  0
  7  6  2  0
  8  9  1  0
 10  9  1  1
 10 12  1  0
 11 10  1  0
 12 13  2  0
 12 14  1  0
 14 15  1  0
 15 16  1  6
 15 21  1  0
 17 16  1  0
 17 18  1  0
 18 19  1  0
 19 20  1  0
 21 22  1  0
 23 21  2  0
M  END
$$$$
