PSK.pdb
     RDKit          3D

 23 23  0  0  1  0  0  0  0  0999 V2000
    8.5443  -16.9583   17.3522 N   0  0  0  0  0  0  0  0  0  0  0  0
    9.0539  -18.2850   17.5898 C   0  0  0  0  0  0  0  0  0  0  0  0
    8.1821  -18.9360   18.6205 C   0  0  0  0  0  0  0  0  0  0  0  0
    6.9545  -18.0223   18.6228 C   0  0  0  0  0  0  0  0  0  0  0  0
    7.6128  -16.6713   18.4170 C   0  0  1  0  0  0  0  0  0  0  0  0
    8.3630  -16.3290   19.6404 C   0  0  0  0  0  0  0  0  0  0  0  0
    9.5811  -16.6489   19.7028 O   0  0  0  0  0  0  0  0  0  0  0  0
    6.5271  -14.5480   23.0286 O   0  0  0  0  0  0  0  0  0  0  0  0
    7.6943  -14.0293   22.4773 C   0  0  0  0  0  0  0  0  0  0  0  0
    8.5151  -15.0971   21.7908 C   0  0  2  0  0  0  0  0  0  0  0  0
    7.7240  -15.6476   20.7364 N   0  0  0  0  0  0  0  0  0  0  0  0
    9.0060  -16.1207   22.7391 C   0  0  0  0  0  0  0  0  0  0  0  0
    8.3557  -17.2125   22.8553 O   0  0  0  0  0  0  0  0  0  0  0  0
   10.1418  -15.9984   23.5363 N   0  0  0  0  0  0  0  0  0  0  0  0
   10.5351  -17.0024   24.5183 C   0  0  1  0  0  0  0  0  0  0  0  0
   11.9822  -17.2531   24.5307 C   0  0  0  0  0  0  0  0  0  0  0  0
   12.3188  -18.7093   24.5123 C   0  0  0  0  0  0  0  0  0  0  0  0
   13.7961  -18.9877   24.6057 C   0  0  0  0  0  0  0  0  0  0  0  0
   13.9501  -20.5095   24.5684 C   0  0  0  0  0  0  0  0  0  0  0  0
   15.3378  -20.8944   24.7089 N   0  0  0  0  0  0  0  0  0  0  0  0
   10.0304  -16.5215   25.8103 C   0  0  0  0  0  0  0  0  0  0  0  0
    9.6327  -17.3959   26.8120 O   0  0  0  0  0  0  0  0  0  0  0  0
    9.9393  -15.3060   26.0583 O   0  0  0  0  0  0  0  0  0  0  0  0
  1  5  1  0
  1  2  1  0
  2  3  1  0
  3  4  1  0
  5  6  1  1
  5  4  1  0
  6 11  1  0
  7  6  2  0
  8  9  1  0
 10  9  1  1
 10 12  1  0
 11 10  1  0
 12 13  2  0
 12 14  1  0
 14 15  1  0
 15 16  1  1
 15 21  1  0
 17 16  1  0
 17 18  1  0
 18 19  1  0
 19 20  1  0
 21 22  1  0
 23 21  2  0
M  END
$$$$
