PSK.pdb
     RDKit          3D

 23 23  0  0  1  0  0  0  0  0999 V2000
    7.3486  -16.3342   18.5126 N   0  0  0  0  0  0  0  0  0  0  0  0
    7.3447  -17.7642   18.6896 C   0  0  0  0  0  0  0  0  0  0  0  0
    6.4823  -18.0798   19.8740 C   0  0  0  0  0  0  0  0  0  0  0  0
    5.7179  -16.7687   20.0702 C   0  0  0  0  0  0  0  0  0  0  0  0
    6.7967  -15.7622   19.7177 C   0  0  1  0  0  0  0  0  0  0  0  0
    7.8197  -15.7866   20.7805 C   0  0  0  0  0  0  0  0  0  0  0  0
    8.9126  -16.3693   20.5437 O   0  0  0  0  0  0  0  0  0  0  0  0
    7.1383  -14.0935   24.6023 O   0  0  0  0  0  0  0  0  0  0  0  0
    8.2581  -13.7566   23.8486 C   0  0  0  0  0  0  0  0  0  0  0  0
    8.6755  -14.8804   22.9279 C   0  0  2  0  0  0  0  0  0  0  0  0
    7.5797  -15.1623   22.0559 N   0  0  0  0  0  0  0  0  0  0  0  0
    9.1410  -16.0702   23.6735 C   0  0  0  0  0  0  0  0  0  0  0  0
    8.2973  -16.9833   23.9614 O   0  0  0  0  0  0  0  0  0  0  0  0
   10.4486  -16.2899   24.1002 N   0  0  0  0  0  0  0  0  0  0  0  0
   10.8731  -17.5199   24.7593 C   0  0  1  0  0  0  0  0  0  0  0  0
   12.2746  -17.8615   24.4831 C   0  0  0  0  0  0  0  0  0  0  0  0
   12.5100  -18.2348   23.0551 C   0  0  0  0  0  0  0  0  0  0  0  0
   13.9362  -18.6189   22.7597 C   0  0  0  0  0  0  0  0  0  0  0  0
   13.9596  -19.1018   21.3081 C   0  0  0  0  0  0  0  0  0  0  0  0
   15.3147  -19.3491   20.8651 N   0  0  0  0  0  0  0  0  0  0  0  0
   10.6074  -17.3227   26.1896 C   0  0  0  0  0  0  0  0  0  0  0  0
   10.1348  -18.3498   26.9946 O   0  0  0  0  0  0  0  0  0  0  0  0
   10.7962  -16.2222   26.7379 O   0  0  0  0  0  0  0  0  0  0  0  0
  1  5  1  0
  1  2  1  0
  2  3  1  0
  3  4  1  0
  5  6  1  1
  5  4  1  0
  6 11  1  0
  7  6  2  0
  8  9  1  0
 10  9  1  1
 10 12  1  0
 11 10  1  0
 12 13  2  0
 12 14  1  0
 14 15  1  0
 15 16  1  1
 15 21  1  0
 17 16  1  0
 17 18  1  0
 18 19  1  0
 19 20  1  0
 21 22  1  0
 23 21  2  0
M  END
$$$$
