PSK.pdb
     RDKit          3D

 23 23  0  0  1  0  0  0  0  0999 V2000
    7.4627  -15.0204   17.7765 N   0  0  0  0  0  0  0  0  0  0  0  0
    7.1370  -13.6207   17.6719 C   0  0  0  0  0  0  0  0  0  0  0  0
    8.4200  -12.8574   17.5407 C   0  0  0  0  0  0  0  0  0  0  0  0
    9.4151  -13.9648   17.1869 C   0  0  0  0  0  0  0  0  0  0  0  0
    8.8802  -15.1015   18.0370 C   0  0  1  0  0  0  0  0  0  0  0  0
    9.1334  -14.7802   19.4545 C   0  0  0  0  0  0  0  0  0  0  0  0
   10.2894  -14.3980   19.7827 O   0  0  0  0  0  0  0  0  0  0  0  0
    6.3102  -15.7602   22.5201 O   0  0  0  0  0  0  0  0  0  0  0  0
    7.1178  -14.6298   22.5924 C   0  0  0  0  0  0  0  0  0  0  0  0
    8.4101  -14.8119   21.8296 C   0  0  2  0  0  0  0  0  0  0  0  0
    8.0901  -14.8989   20.4401 N   0  0  0  0  0  0  0  0  0  0  0  0
    9.1880  -15.9719   22.3167 C   0  0  0  0  0  0  0  0  0  0  0  0
    9.0640  -17.0907   21.7155 O   0  0  0  0  0  0  0  0  0  0  0  0
   10.0654  -15.9537   23.3985 N   0  0  0  0  0  0  0  0  0  0  0  0
   10.8802  -17.1016   23.7800 C   0  0  1  0  0  0  0  0  0  0  0  0
   12.2261  -16.7226   24.2295 C   0  0  0  0  0  0  0  0  0  0  0  0
   13.0772  -17.9027   24.5717 C   0  0  0  0  0  0  0  0  0  0  0  0
   14.3759  -17.9504   23.8102 C   0  0  0  0  0  0  0  0  0  0  0  0
   15.0991  -19.2169   24.2723 C   0  0  0  0  0  0  0  0  0  0  0  0
   16.3020  -19.4392   23.4994 N   0  0  0  0  0  0  0  0  0  0  0  0
   10.1157  -17.8130   24.8118 C   0  0  0  0  0  0  0  0  0  0  0  0
   10.3697  -19.1409   25.1256 O   0  0  0  0  0  0  0  0  0  0  0  0
    9.2065  -17.2506   25.4476 O   0  0  0  0  0  0  0  0  0  0  0  0
  1  5  1  0
  1  2  1  0
  2  3  1  0
  3  4  1  0
  5  6  1  1
  5  4  1  0
  6 11  1  0
  7  6  2  0
  8  9  1  0
 10  9  1  1
 10 12  1  0
 11 10  1  0
 12 13  2  0
 12 14  1  0
 14 15  1  0
 15 16  1  1
 15 21  1  0
 17 16  1  0
 17 18  1  0
 18 19  1  0
 19 20  1  0
 21 22  1  0
 23 21  2  0
M  END
$$$$
