TTD.pdb
     RDKit          3D

 23 22  0  0  1  0  0  0  0  0999 V2000
   20.3899  -12.9886  -19.0477 C   0  0  0  0  0  0  0  0  0  0  0  0
   19.9521  -12.0387  -17.9675 C   0  0  1  0  0  0  0  0  0  0  0  0
   20.1638  -12.5408  -16.6847 O   0  0  0  0  0  0  0  0  0  0  0  0
   20.5281  -10.6561  -18.1243 C   0  0  2  0  0  0  0  0  0  0  0  0
   21.9692  -10.7451  -18.0563 N   0  0  0  0  0  0  0  0  0  0  0  0
   19.9739   -9.6812  -17.1723 C   0  0  0  0  0  0  0  0  0  0  0  0
   18.7363   -9.5054  -17.1060 O   0  0  0  0  0  0  0  0  0  0  0  0
   20.7306   -9.4144  -13.4387 C   0  0  0  0  0  0  0  0  0  0  0  0
   21.0812   -8.0831  -14.0614 C   0  0  1  0  0  0  0  0  0  0  0  0
   22.4567   -8.1603  -14.3506 O   0  0  0  0  0  0  0  0  0  0  0  0
   20.3224   -7.9176  -15.3736 C   0  0  2  0  0  0  0  0  0  0  0  0
   20.8231   -8.9304  -16.3208 N   0  0  0  0  0  0  0  0  0  0  0  0
   20.4679   -6.5797  -15.9541 C   0  0  0  0  0  0  0  0  0  0  0  0
   21.3389   -6.4086  -16.8864 O   0  0  0  0  0  0  0  0  0  0  0  0
   19.7361   -5.4354  -15.5935 N   0  0  0  0  0  0  0  0  0  0  0  0
   20.0191   -4.1613  -16.2889 C   0  0  1  0  0  0  0  0  0  0  0  0
   19.3979   -4.2930  -17.6544 C   0  0  0  0  0  0  0  0  0  0  0  0
   18.0541   -3.7397  -17.6782 C   0  0  0  0  0  0  0  0  0  0  0  0
   17.3417   -3.7141  -16.6541 O   0  0  0  0  0  0  0  0  0  0  0  0
   19.3007   -3.0859  -15.5317 C   0  0  0  0  0  0  0  0  0  0  0  0
   18.4660   -3.2783  -14.4742 O   0  0  0  0  0  0  0  0  0  0  0  0
   17.4773   -3.2066  -18.8330 O   0  0  0  0  0  0  0  0  0  0  0  0
   19.4717   -1.8678  -15.8951 O   0  0  0  0  0  0  0  0  0  0  0  0
  2  1  1  6
  2  4  1  0
  3  2  1  0
  4  5  1  1
  6  4  1  0
  7  6  2  0
  9  8  1  6
  9 10  1  0
  9 11  1  0
 11 13  1  0
 11 12  1  6
 12  6  1  0
 13 15  1  0
 14 13  2  0
 15 16  1  0
 16 20  1  0
 16 17  1  6
 17 18  1  0
 18 22  1  0
 19 18  2  0
 20 23  2  0
 20 21  1  0
M  END
$$$$
