TTD.pdb
     RDKit          3D

 23 22  0  0  1  0  0  0  0  0999 V2000
   16.0882  -10.7688  -11.3582 C   0  0  0  0  0  0  0  0  0  0  0  0
   14.7038  -10.5824  -10.8019 C   0  0  1  0  0  0  0  0  0  0  0  0
   14.1329  -11.7733  -10.3566 O   0  0  0  0  0  0  0  0  0  0  0  0
   14.6262   -9.5038   -9.7538 C   0  0  2  0  0  0  0  0  0  0  0  0
   13.2830   -9.4731   -9.2206 N   0  0  0  0  0  0  0  0  0  0  0  0
   15.0764   -8.1886  -10.2349 C   0  0  0  0  0  0  0  0  0  0  0  0
   14.4474   -7.6074  -11.1478 O   0  0  0  0  0  0  0  0  0  0  0  0
   15.3154   -5.0895   -8.5481 C   0  0  0  0  0  0  0  0  0  0  0  0
   16.7365   -5.2825   -9.0239 C   0  0  1  0  0  0  0  0  0  0  0  0
   17.4193   -5.8492   -7.9310 O   0  0  0  0  0  0  0  0  0  0  0  0
   16.7582   -6.2821  -10.1752 C   0  0  2  0  0  0  0  0  0  0  0  0
   16.2197   -7.5615   -9.6786 N   0  0  0  0  0  0  0  0  0  0  0  0
   18.0997   -6.4889  -10.7283 C   0  0  0  0  0  0  0  0  0  0  0  0
   18.7271   -7.5707  -10.4232 O   0  0  0  0  0  0  0  0  0  0  0  0
   18.7895   -5.6103  -11.5810 N   0  0  0  0  0  0  0  0  0  0  0  0
   20.1093   -6.0195  -12.1078 C   0  0  1  0  0  0  0  0  0  0  0  0
   19.8433   -7.1933  -13.0128 C   0  0  0  0  0  0  0  0  0  0  0  0
   21.0350   -7.5665  -13.7566 C   0  0  0  0  0  0  0  0  0  0  0  0
   22.1678   -7.1716  -13.4132 O   0  0  0  0  0  0  0  0  0  0  0  0
   20.6192   -4.8772  -12.9332 C   0  0  0  0  0  0  0  0  0  0  0  0
   21.9279   -4.5678  -13.1425 O   0  0  0  0  0  0  0  0  0  0  0  0
   20.9935   -8.3812  -14.8902 O   0  0  0  0  0  0  0  0  0  0  0  0
   19.7646   -4.1084  -13.5020 O   0  0  0  0  0  0  0  0  0  0  0  0
  2  1  1  1
  2  4  1  0
  3  2  1  0
  4  5  1  6
  6  4  1  0
  7  6  2  0
  9  8  1  1
  9 10  1  0
  9 11  1  0
 11 13  1  0
 11 12  1  1
 12  6  1  0
 13 15  1  0
 14 13  2  0
 15 16  1  0
 16 20  1  0
 16 17  1  6
 17 18  1  0
 18 22  1  0
 19 18  2  0
 20 23  2  0
 20 21  1  0
M  END
$$$$
