TTD.pdb
     RDKit          3D

 23 22  0  0  1  0  0  0  0  0999 V2000
   15.4083  -10.9654  -18.0112 C   0  0  0  0  0  0  0  0  0  0  0  0
   16.4299  -10.6185  -16.9639 C   0  0  1  0  0  0  0  0  0  0  0  0
   16.9518  -11.7404  -16.3223 O   0  0  0  0  0  0  0  0  0  0  0  0
   17.5203   -9.7144  -17.4754 C   0  0  2  0  0  0  0  0  0  0  0  0
   18.2111  -10.3867  -18.5525 N   0  0  0  0  0  0  0  0  0  0  0  0
   18.4325   -9.2454  -16.4210 C   0  0  0  0  0  0  0  0  0  0  0  0
   17.9722   -8.7014  -15.3918 O   0  0  0  0  0  0  0  0  0  0  0  0
   23.1132   -9.3676  -14.7096 C   0  0  0  0  0  0  0  0  0  0  0  0
   22.0347   -9.8737  -15.6390 C   0  0  1  0  0  0  0  0  0  0  0  0
   21.7277  -11.1684  -15.1798 O   0  0  0  0  0  0  0  0  0  0  0  0
   20.7895   -9.0051  -15.4971 C   0  0  2  0  0  0  0  0  0  0  0  0
   19.8359   -9.3997  -16.5499 N   0  0  0  0  0  0  0  0  0  0  0  0
   21.0770   -7.5715  -15.5991 C   0  0  0  0  0  0  0  0  0  0  0  0
   21.5541   -7.1205  -16.7063 O   0  0  0  0  0  0  0  0  0  0  0  0
   20.8786   -6.6124  -14.5914 N   0  0  0  0  0  0  0  0  0  0  0  0
   21.3485   -5.2294  -14.8227 C   0  0  1  0  0  0  0  0  0  0  0  0
   20.1081   -4.3763  -14.8619 C   0  0  0  0  0  0  0  0  0  0  0  0
   20.4405   -2.9684  -15.0035 C   0  0  0  0  0  0  0  0  0  0  0  0
   21.5079   -2.6012  -15.5353 O   0  0  0  0  0  0  0  0  0  0  0  0
   22.1643   -4.8434  -13.6263 C   0  0  0  0  0  0  0  0  0  0  0  0
   22.3172   -5.5832  -12.4943 O   0  0  0  0  0  0  0  0  0  0  0  0
   19.5993   -1.9456  -14.5600 O   0  0  0  0  0  0  0  0  0  0  0  0
   22.7819   -3.7195  -13.6478 O   0  0  0  0  0  0  0  0  0  0  0  0
  2  1  1  6
  2  4  1  0
  3  2  1  0
  4  5  1  6
  6  4  1  0
  7  6  2  0
  9  8  1  1
  9 10  1  0
  9 11  1  0
 11 13  1  0
 11 12  1  6
 12  6  1  0
 13 15  1  0
 14 13  2  0
 15 16  1  0
 16 20  1  0
 16 17  1  1
 17 18  1  0
 18 22  1  0
 19 18  2  0
 20 23  2  0
 20 21  1  0
M  END
$$$$
