TTD.pdb
     RDKit          3D

 23 22  0  0  1  0  0  0  0  0999 V2000
   17.9674  -11.7516  -19.2281 C   0  0  0  0  0  0  0  0  0  0  0  0
   18.5306  -11.1146  -17.9880 C   0  0  1  0  0  0  0  0  0  0  0  0
   17.5602  -10.8577  -17.0211 O   0  0  0  0  0  0  0  0  0  0  0  0
   19.7008  -11.8684  -17.4132 C   0  0  2  0  0  0  0  0  0  0  0  0
   19.2737  -13.2118  -17.0941 N   0  0  0  0  0  0  0  0  0  0  0  0
   20.3307  -11.1867  -16.2720 C   0  0  0  0  0  0  0  0  0  0  0  0
   19.8809  -11.3556  -15.1161 O   0  0  0  0  0  0  0  0  0  0  0  0
   23.6840  -11.5264  -15.0302 C   0  0  0  0  0  0  0  0  0  0  0  0
   23.5835  -10.0511  -15.3409 C   0  0  1  0  0  0  0  0  0  0  0  0
   24.0938   -9.9117  -16.6454 O   0  0  0  0  0  0  0  0  0  0  0  0
   22.1180   -9.6301  -15.3502 C   0  0  2  0  0  0  0  0  0  0  0  0
   21.4481  -10.3343  -16.4587 N   0  0  0  0  0  0  0  0  0  0  0  0
   21.9392   -8.1831  -15.5007 C   0  0  0  0  0  0  0  0  0  0  0  0
   21.5793   -7.7273  -16.6495 O   0  0  0  0  0  0  0  0  0  0  0  0
   22.1205   -7.2165  -14.4969 N   0  0  0  0  0  0  0  0  0  0  0  0
   21.8170   -5.8027  -14.8072 C   0  0  1  0  0  0  0  0  0  0  0  0
   20.3168   -5.7182  -14.9074 C   0  0  0  0  0  0  0  0  0  0  0  0
   19.8749   -4.3416  -15.0560 C   0  0  0  0  0  0  0  0  0  0  0  0
   20.6457   -3.4505  -15.4667 O   0  0  0  0  0  0  0  0  0  0  0  0
   22.2701   -4.9940  -13.6296 C   0  0  0  0  0  0  0  0  0  0  0  0
   22.3835   -3.6384  -13.5907 O   0  0  0  0  0  0  0  0  0  0  0  0
   18.5754   -3.9287  -14.7534 O   0  0  0  0  0  0  0  0  0  0  0  0
   22.5852   -5.6130  -12.5513 O   0  0  0  0  0  0  0  0  0  0  0  0
  2  1  1  6
  2  4  1  0
  3  2  1  0
  4  5  1  1
  6  4  1  0
  7  6  2  0
  9  8  1  6
  9 10  1  0
  9 11  1  0
 11 13  1  0
 11 12  1  6
 12  6  1  0
 13 15  1  0
 14 13  2  0
 15 16  1  0
 16 20  1  0
 16 17  1  1
 17 18  1  0
 18 22  1  0
 19 18  2  0
 20 23  2  0
 20 21  1  0
M  END
$$$$
