TTD.pdb
     RDKit          3D

 23 22  0  0  1  0  0  0  0  0999 V2000
   18.4944  -13.8467  -16.3115 C   0  0  0  0  0  0  0  0  0  0  0  0
   18.2905  -12.4309  -16.7748 C   0  0  1  0  0  0  0  0  0  0  0  0
   17.2092  -12.2945  -17.6435 O   0  0  0  0  0  0  0  0  0  0  0  0
   18.2209  -11.4406  -15.6424 C   0  0  2  0  0  0  0  0  0  0  0  0
   16.9968  -11.6643  -14.9070 N   0  0  0  0  0  0  0  0  0  0  0  0
   18.3745  -10.0439  -16.0778 C   0  0  0  0  0  0  0  0  0  0  0  0
   19.4324   -9.6753  -16.6363 O   0  0  0  0  0  0  0  0  0  0  0  0
   16.0474   -5.7024  -16.8548 C   0  0  0  0  0  0  0  0  0  0  0  0
   16.0009   -7.1637  -16.4734 C   0  0  1  0  0  0  0  0  0  0  0  0
   15.3877   -7.8114  -17.5624 O   0  0  0  0  0  0  0  0  0  0  0  0
   17.4212   -7.7001  -16.3324 C   0  0  2  0  0  0  0  0  0  0  0  0
   17.3371   -9.0991  -15.8750 N   0  0  0  0  0  0  0  0  0  0  0  0
   18.2374   -6.9201  -15.3977 C   0  0  0  0  0  0  0  0  0  0  0  0
   17.9256   -6.9405  -14.1490 O   0  0  0  0  0  0  0  0  0  0  0  0
   19.3550   -6.1350  -15.7287 N   0  0  0  0  0  0  0  0  0  0  0  0
   20.0442   -5.3890  -14.6537 C   0  0  1  0  0  0  0  0  0  0  0  0
   21.5014   -5.7495  -14.7741 C   0  0  0  0  0  0  0  0  0  0  0  0
   22.3179   -4.9528  -13.8734 C   0  0  0  0  0  0  0  0  0  0  0  0
   21.9073   -4.6215  -12.7426 O   0  0  0  0  0  0  0  0  0  0  0  0
   19.8784   -3.9320  -14.9629 C   0  0  0  0  0  0  0  0  0  0  0  0
   19.3463   -3.4156  -16.1040 O   0  0  0  0  0  0  0  0  0  0  0  0
   23.5996   -4.5102  -14.2081 O   0  0  0  0  0  0  0  0  0  0  0  0
   20.2663   -3.0766  -14.0894 O   0  0  0  0  0  0  0  0  0  0  0  0
  2  1  1  1
  2  4  1  0
  3  2  1  0
  4  5  1  6
  6  4  1  0
  7  6  2  0
  9  8  1  6
  9 10  1  0
  9 11  1  0
 11 13  1  0
 11 12  1  1
 12  6  1  0
 13 15  1  0
 14 13  2  0
 15 16  1  0
 16 20  1  0
 16 17  1  6
 17 18  1  0
 18 22  1  0
 19 18  2  0
 20 23  2  0
 20 21  1  0
M  END
$$$$
