TTD.pdb
     RDKit          3D

 23 22  0  0  1  0  0  0  0  0999 V2000
   16.7461  -13.0880  -14.2060 C   0  0  0  0  0  0  0  0  0  0  0  0
   17.4270  -11.9163  -14.8575 C   0  0  1  0  0  0  0  0  0  0  0  0
   18.7828  -12.1381  -15.0920 O   0  0  0  0  0  0  0  0  0  0  0  0
   16.7209  -11.4344  -16.0974 C   0  0  2  0  0  0  0  0  0  0  0  0
   16.8183  -12.4588  -17.1125 N   0  0  0  0  0  0  0  0  0  0  0  0
   17.1945  -10.1231  -16.5666 C   0  0  0  0  0  0  0  0  0  0  0  0
   18.0755  -10.0566  -17.4533 O   0  0  0  0  0  0  0  0  0  0  0  0
   16.1406   -5.4029  -17.2533 C   0  0  0  0  0  0  0  0  0  0  0  0
   15.7829   -6.8060  -16.8214 C   0  0  1  0  0  0  0  0  0  0  0  0
   15.1671   -7.3931  -17.9429 O   0  0  0  0  0  0  0  0  0  0  0  0
   17.0563   -7.5845  -16.5094 C   0  0  2  0  0  0  0  0  0  0  0  0
   16.6666   -8.9225  -16.0283 N   0  0  0  0  0  0  0  0  0  0  0  0
   17.9006   -6.9237  -15.5100 C   0  0  0  0  0  0  0  0  0  0  0  0
   17.5894   -7.0486  -14.2672 O   0  0  0  0  0  0  0  0  0  0  0  0
   19.0452   -6.1514  -15.7716 N   0  0  0  0  0  0  0  0  0  0  0  0
   19.7693   -5.5442  -14.6341 C   0  0  1  0  0  0  0  0  0  0  0  0
   21.2286   -5.8202  -14.8831 C   0  0  0  0  0  0  0  0  0  0  0  0
   22.0645   -5.1844  -13.8782 C   0  0  0  0  0  0  0  0  0  0  0  0
   21.5745   -4.4704  -12.9799 O   0  0  0  0  0  0  0  0  0  0  0  0
   19.5357   -4.0658  -14.7117 C   0  0  0  0  0  0  0  0  0  0  0  0
   19.4248   -3.2204  -13.6510 O   0  0  0  0  0  0  0  0  0  0  0  0
   23.4535   -5.3278  -13.8506 O   0  0  0  0  0  0  0  0  0  0  0  0
   19.4266   -3.5270  -15.8705 O   0  0  0  0  0  0  0  0  0  0  0  0
  2  1  1  6
  2  4  1  0
  3  2  1  0
  4  5  1  6
  6  4  1  0
  7  6  2  0
  9  8  1  6
  9 10  1  0
  9 11  1  0
 11 13  1  0
 11 12  1  1
 12  6  1  0
 13 15  1  0
 14 13  2  0
 15 16  1  0
 16 20  1  0
 16 17  1  6
 17 18  1  0
 18 22  1  0
 19 18  2  0
 20 23  2  0
 20 21  1  0
M  END
$$$$
