TTD.pdb
     RDKit          3D

 23 22  0  0  1  0  0  0  0  0999 V2000
   16.9962  -12.0734  -18.3897 C   0  0  0  0  0  0  0  0  0  0  0  0
   17.6338  -11.2753  -17.2864 C   0  0  1  0  0  0  0  0  0  0  0  0
   16.7200  -10.8588  -16.3200 O   0  0  0  0  0  0  0  0  0  0  0  0
   18.8217  -11.9632  -16.6671 C   0  0  2  0  0  0  0  0  0  0  0  0
   18.3821  -13.2115  -16.0861 N   0  0  0  0  0  0  0  0  0  0  0  0
   19.5527  -11.1178  -15.7105 C   0  0  0  0  0  0  0  0  0  0  0  0
   19.1996  -11.0820  -14.5101 O   0  0  0  0  0  0  0  0  0  0  0  0
   22.9667  -11.5042  -14.7806 C   0  0  0  0  0  0  0  0  0  0  0  0
   22.9194  -10.0789  -15.2800 C   0  0  1  0  0  0  0  0  0  0  0  0
   23.2841  -10.1498  -16.6377 O   0  0  0  0  0  0  0  0  0  0  0  0
   21.4903   -9.5544  -15.1926 C   0  0  2  0  0  0  0  0  0  0  0  0
   20.6597  -10.3361  -16.1267 N   0  0  0  0  0  0  0  0  0  0  0  0
   21.3842   -8.1271  -15.5085 C   0  0  0  0  0  0  0  0  0  0  0  0
   21.1488   -7.7861  -16.7272 O   0  0  0  0  0  0  0  0  0  0  0  0
   21.5122   -7.0646  -14.5976 N   0  0  0  0  0  0  0  0  0  0  0  0
   21.3520   -5.6801  -15.0921 C   0  0  1  0  0  0  0  0  0  0  0  0
   19.8889   -5.3574  -14.9398 C   0  0  0  0  0  0  0  0  0  0  0  0
   19.6264   -3.9551  -15.2177 C   0  0  0  0  0  0  0  0  0  0  0  0
   20.4166   -3.2659  -15.8942 O   0  0  0  0  0  0  0  0  0  0  0  0
   22.1409   -4.7979  -14.1727 C   0  0  0  0  0  0  0  0  0  0  0  0
   22.3394   -3.4605  -14.3282 O   0  0  0  0  0  0  0  0  0  0  0  0
   18.4878   -3.2933  -14.7528 O   0  0  0  0  0  0  0  0  0  0  0  0
   22.6878   -5.3284  -13.1410 O   0  0  0  0  0  0  0  0  0  0  0  0
  2  1  1  6
  2  4  1  0
  3  2  1  0
  4  5  1  1
  6  4  1  0
  7  6  2  0
  9  8  1  6
  9 10  1  0
  9 11  1  0
 11 13  1  0
 11 12  1  6
 12  6  1  0
 13 15  1  0
 14 13  2  0
 15 16  1  0
 16 20  1  0
 16 17  1  1
 17 18  1  0
 18 22  1  0
 19 18  2  0
 20 23  2  0
 20 21  1  0
M  END
$$$$
