TTD.pdb
     RDKit          3D

 23 22  0  0  1  0  0  0  0  0999 V2000
   15.9280  -10.6288  -11.4880 C   0  0  0  0  0  0  0  0  0  0  0  0
   14.6839  -10.3247  -10.7003 C   0  0  1  0  0  0  0  0  0  0  0  0
   14.0857  -11.4657  -10.1684 O   0  0  0  0  0  0  0  0  0  0  0  0
   14.8911   -9.2657   -9.6498 C   0  0  2  0  0  0  0  0  0  0  0  0
   13.6639   -9.1097   -8.9022 N   0  0  0  0  0  0  0  0  0  0  0  0
   15.3903   -7.9934  -10.1938 C   0  0  0  0  0  0  0  0  0  0  0  0
   14.6540   -7.2940  -10.9258 O   0  0  0  0  0  0  0  0  0  0  0  0
   16.2197   -4.8221   -8.7967 C   0  0  0  0  0  0  0  0  0  0  0  0
   17.5357   -5.3329   -9.3355 C   0  0  1  0  0  0  0  0  0  0  0  0
   18.1225   -6.0410   -8.2697 O   0  0  0  0  0  0  0  0  0  0  0  0
   17.2754   -6.3102  -10.4767 C   0  0  2  0  0  0  0  0  0  0  0  0
   16.7015   -7.5404   -9.9016 N   0  0  0  0  0  0  0  0  0  0  0  0
   18.4844   -6.6351  -11.2389 C   0  0  0  0  0  0  0  0  0  0  0  0
   19.2869   -7.5227  -10.7642 O   0  0  0  0  0  0  0  0  0  0  0  0
   18.8682   -6.0681  -12.4661 N   0  0  0  0  0  0  0  0  0  0  0  0
   20.1507   -6.4855  -13.0728 C   0  0  1  0  0  0  0  0  0  0  0  0
   19.9212   -6.4789  -14.5612 C   0  0  0  0  0  0  0  0  0  0  0  0
   19.0033   -7.5337  -14.9580 C   0  0  0  0  0  0  0  0  0  0  0  0
   19.0185   -8.6526  -14.4057 O   0  0  0  0  0  0  0  0  0  0  0  0
   21.1554   -5.4268  -12.7329 C   0  0  0  0  0  0  0  0  0  0  0  0
   20.8918   -4.2545  -12.0939 O   0  0  0  0  0  0  0  0  0  0  0  0
   18.0553   -7.3687  -15.9702 O   0  0  0  0  0  0  0  0  0  0  0  0
   22.3791   -5.6202  -13.0647 O   0  0  0  0  0  0  0  0  0  0  0  0
  2  1  1  1
  2  4  1  0
  3  2  1  0
  4  5  1  6
  6  4  1  0
  7  6  2  0
  9  8  1  1
  9 10  1  0
  9 11  1  0
 11 13  1  0
 11 12  1  1
 12  6  1  0
 13 15  1  0
 14 13  2  0
 15 16  1  0
 16 20  1  0
 16 17  1  6
 17 18  1  0
 18 22  1  0
 19 18  2  0
 20 23  2  0
 20 21  1  0
M  END
$$$$
