TTD.pdb
     RDKit          3D

 23 22  0  0  1  0  0  0  0  0999 V2000
   16.9458   -8.6866  -17.0898 C   0  0  0  0  0  0  0  0  0  0  0  0
   16.8051  -10.1604  -16.8270 C   0  0  1  0  0  0  0  0  0  0  0  0
   16.0479  -10.8148  -17.7970 O   0  0  0  0  0  0  0  0  0  0  0  0
   18.1235  -10.8498  -16.5937 C   0  0  2  0  0  0  0  0  0  0  0  0
   17.8846  -12.2680  -16.4497 N   0  0  0  0  0  0  0  0  0  0  0  0
   18.8866  -10.2855  -15.4697 C   0  0  0  0  0  0  0  0  0  0  0  0
   18.4227  -10.3399  -14.3084 O   0  0  0  0  0  0  0  0  0  0  0  0
   22.9742   -9.5842  -15.7889 C   0  0  0  0  0  0  0  0  0  0  0  0
   22.2483   -9.6016  -14.4638 C   0  0  1  0  0  0  0  0  0  0  0  0
   23.0241   -8.7992  -13.6059 O   0  0  0  0  0  0  0  0  0  0  0  0
   20.8787   -8.9505  -14.6233 C   0  0  2  0  0  0  0  0  0  0  0  0
   20.1492   -9.6758  -15.6794 N   0  0  0  0  0  0  0  0  0  0  0  0
   20.9578   -7.5267  -14.9622 C   0  0  0  0  0  0  0  0  0  0  0  0
   21.1926   -7.2010  -16.1852 O   0  0  0  0  0  0  0  0  0  0  0  0
   20.7969   -6.4522  -14.0709 N   0  0  0  0  0  0  0  0  0  0  0  0
   20.9618   -5.0738  -14.5808 C   0  0  1  0  0  0  0  0  0  0  0  0
   19.7673   -4.3059  -14.0794 C   0  0  0  0  0  0  0  0  0  0  0  0
   19.8414   -2.9059  -14.4632 C   0  0  0  0  0  0  0  0  0  0  0  0
   20.0700   -2.0114  -13.6238 O   0  0  0  0  0  0  0  0  0  0  0  0
   22.1979   -4.5199  -13.9396 C   0  0  0  0  0  0  0  0  0  0  0  0
   22.9432   -5.1366  -12.9824 O   0  0  0  0  0  0  0  0  0  0  0  0
   19.6642   -2.4732  -15.7792 O   0  0  0  0  0  0  0  0  0  0  0  0
   22.6087   -3.3624  -14.3092 O   0  0  0  0  0  0  0  0  0  0  0  0
  2  1  1  6
  2  4  1  0
  3  2  1  0
  4  5  1  1
  6  4  1  0
  7  6  2  0
  9  8  1  6
  9 10  1  0
  9 11  1  0
 11 13  1  0
 11 12  1  6
 12  6  1  0
 13 15  1  0
 14 13  2  0
 15 16  1  0
 16 20  1  0
 16 17  1  1
 17 18  1  0
 18 22  1  0
 19 18  2  0
 20 23  2  0
 20 21  1  0
M  END
$$$$
