FRC.pdb
     RDKit          3D

 29 29  0  0  1  0  0  0  0  0999 V2000
   24.0075  -16.6423  -15.8394 N   0  0  0  0  0  0  0  0  0  0  0  0
   24.0876  -17.9892  -15.3144 C   0  0  1  0  0  0  0  0  0  0  0  0
   23.1863  -18.8555  -16.1621 C   0  0  0  0  0  0  0  0  0  0  0  0
   21.7734  -18.4931  -15.8654 C   0  0  0  0  0  0  0  0  0  0  0  0
   21.0185  -17.7602  -16.7674 C   0  0  0  0  0  0  0  0  0  0  0  0
   19.7104  -17.4290  -16.4842 C   0  0  0  0  0  0  0  0  0  0  0  0
   19.1329  -17.8226  -15.2978 C   0  0  0  0  0  0  0  0  0  0  0  0
   19.8591  -18.5481  -14.3899 C   0  0  0  0  0  0  0  0  0  0  0  0
   21.1728  -18.8787  -14.6780 C   0  0  0  0  0  0  0  0  0  0  0  0
   25.4816  -18.4265  -15.3170 C   0  0  0  0  0  0  0  0  0  0  0  0
   26.2691  -17.9823  -16.1953 O   0  0  0  0  0  0  0  0  0  0  0  0
   24.7578  -20.4450  -10.9170 N   0  0  0  0  0  0  0  0  0  0  0  0
   25.5218  -20.7906   -9.7693 C   0  0  0  0  0  0  0  0  0  0  0  0
   25.0052  -20.6162   -8.5925 N   0  0  0  0  0  0  0  0  0  0  0  0
   26.8252  -21.3190   -9.8276 N   0  0  0  0  0  0  0  0  0  0  0  0
   27.7026  -20.9977  -10.9093 C   0  0  0  0  0  0  0  0  0  0  0  0
   26.9605  -20.6107  -12.1710 C   0  0  0  0  0  0  0  0  0  0  0  0
   27.9904  -20.2761  -13.2130 C   0  0  0  0  0  0  0  0  0  0  0  0
   27.3819  -19.8087  -14.5167 C   0  0  2  0  0  0  0  0  0  0  0  0
   26.0361  -19.3403  -14.3799 N   0  0  0  0  0  0  0  0  0  0  0  0
   27.4877  -20.9014  -15.5443 C   0  0  0  0  0  0  0  0  0  0  0  0
   26.7320  -21.8896  -15.4835 O   0  0  0  0  0  0  0  0  0  0  0  0
   25.4812  -20.8752   -7.7147 N   0  0  0  0  0  0  0  0  0  0  0  0
   28.4449  -20.8136  -16.5847 C   0  0  1  0  0  0  0  0  0  0  0  0
   28.6201  -21.7995  -17.6215 C   0  0  0  0  0  0  0  0  0  0  0  0
   29.3077  -21.2510  -18.8351 S   0  0  0  0  0  0  0  0  0  0  0  0
   28.9236  -19.5361  -19.1637 C   0  0  0  0  0  0  0  0  0  0  0  0
   29.2935  -23.0466  -17.1277 O   0  0  0  0  0  0  0  0  0  0  0  0
   29.8394  -23.1983  -15.8764 O   0  0  0  0  0  0  0  0  0  0  0  0
  2  3  1  0
  2  1  1  6
  3  4  1  0
  4  9  2  0
  5  4  1  0
  5  6  2  0
  6  7  1  0
  7  8  2  0
  9  8  1  0
 10 20  1  0
 10  2  1  0
 11 10  2  0
 13 12  1  0
 14 13  2  0
 15 13  1  0
 16 15  1  0
 17 18  1  0
 17 16  1  0
 19 18  1  1
 19 20  1  0
 21 19  1  0
 21 22  2  0
 23 24  1  0
 23 21  1  0
 24 25  1  6
 26 25  1  0
 27 24  1  0
 28 27  1  0
 29 27  2  0
M  END
$$$$
