FRC.pdb
     RDKit          3D

 29 29  0  0  1  0  0  0  0  0999 V2000
   25.1009  -21.7512  -12.6977 N   0  0  0  0  0  0  0  0  0  0  0  0
   24.9181  -22.3300  -14.0122 C   0  0  1  0  0  0  0  0  0  0  0  0
   23.6606  -21.7302  -14.5955 C   0  0  0  0  0  0  0  0  0  0  0  0
   22.4914  -22.2876  -13.8619 C   0  0  0  0  0  0  0  0  0  0  0  0
   21.6878  -21.4772  -13.0758 C   0  0  0  0  0  0  0  0  0  0  0  0
   20.6068  -22.0021  -12.3998 C   0  0  0  0  0  0  0  0  0  0  0  0
   20.3088  -23.3429  -12.4960 C   0  0  0  0  0  0  0  0  0  0  0  0
   21.0886  -24.1645  -13.2672 C   0  0  0  0  0  0  0  0  0  0  0  0
   22.1736  -23.6334  -13.9447 C   0  0  0  0  0  0  0  0  0  0  0  0
   26.1089  -22.0787  -14.8205 C   0  0  0  0  0  0  0  0  0  0  0  0
   26.5798  -20.9112  -14.8845 O   0  0  0  0  0  0  0  0  0  0  0  0
   28.7146  -28.6327  -17.2162 N   0  0  0  0  0  0  0  0  0  0  0  0
   29.7067  -27.8320  -17.8447 C   0  0  0  0  0  0  0  0  0  0  0  0
   30.1874  -28.2074  -18.9893 N   0  0  0  0  0  0  0  0  0  0  0  0
   30.2102  -26.6373  -17.2963 N   0  0  0  0  0  0  0  0  0  0  0  0
   29.7186  -26.1331  -16.0524 C   0  0  0  0  0  0  0  0  0  0  0  0
   28.5360  -25.2031  -16.2231 C   0  0  0  0  0  0  0  0  0  0  0  0
   29.0640  -23.7964  -16.1991 C   0  0  0  0  0  0  0  0  0  0  0  0
   27.9738  -22.7538  -16.3133 C   0  0  2  0  0  0  0  0  0  0  0  0
   26.7985  -23.0762  -15.5621 N   0  0  0  0  0  0  0  0  0  0  0  0
   27.6569  -22.5107  -17.7629 C   0  0  0  0  0  0  0  0  0  0  0  0
   26.7445  -23.1520  -18.3176 O   0  0  0  0  0  0  0  0  0  0  0  0
   30.8777  -27.6608  -19.5268 N   0  0  0  0  0  0  0  0  0  0  0  0
   28.3921  -21.5536  -18.5043 C   0  0  2  0  0  0  0  0  0  0  0  0
   28.1668  -21.2453  -19.8943 C   0  0  0  0  0  0  0  0  0  0  0  0
   28.7054  -19.9028  -20.2868 S   0  0  0  0  0  0  0  0  0  0  0  0
   28.0581  -19.2960  -21.8389 C   0  0  0  0  0  0  0  0  0  0  0  0
   28.6604  -22.3234  -20.8144 O   0  0  0  0  0  0  0  0  0  0  0  0
   29.8701  -22.9627  -20.6931 O   0  0  0  0  0  0  0  0  0  0  0  0
  2  3  1  0
  2  1  1  1
  3  4  1  0
  4  9  2  0
  5  4  1  0
  5  6  2  0
  6  7  1  0
  7  8  2  0
  9  8  1  0
 10 20  1  0
 10  2  1  0
 11 10  2  0
 13 12  1  0
 14 13  2  0
 15 13  1  0
 16 15  1  0
 17 18  1  0
 17 16  1  0
 19 18  1  6
 19 20  1  0
 21 19  1  0
 21 22  2  0
 23 24  1  0
 23 21  1  0
 24 25  1  1
 26 25  1  0
 27 24  1  0
 28 27  1  0
 29 27  2  0
M  END
$$$$
