FRC.pdb
     RDKit          3D

 29 29  0  0  1  0  0  0  0  0999 V2000
   23.4841  -11.8243  -14.5899 N   0  0  0  0  0  0  0  0  0  0  0  0
   23.8710  -10.5069  -15.0493 C   0  0  1  0  0  0  0  0  0  0  0  0
   24.6018  -10.6853  -16.3591 C   0  0  0  0  0  0  0  0  0  0  0  0
   25.9477  -11.2523  -16.0716 C   0  0  0  0  0  0  0  0  0  0  0  0
   27.0409  -10.4274  -15.8596 C   0  0  0  0  0  0  0  0  0  0  0  0
   28.2840  -10.9615  -15.5939 C   0  0  0  0  0  0  0  0  0  0  0  0
   28.4582  -12.3261  -15.5348 C   0  0  0  0  0  0  0  0  0  0  0  0
   27.3923  -13.1624  -15.7409 C   0  0  0  0  0  0  0  0  0  0  0  0
   26.1453  -12.6220  -16.0076 C   0  0  0  0  0  0  0  0  0  0  0  0
   22.6819   -9.6652  -15.1591 C   0  0  0  0  0  0  0  0  0  0  0  0
   21.5719  -10.1934  -15.4377 O   0  0  0  0  0  0  0  0  0  0  0  0
   18.3731   -4.7298   -9.8362 N   0  0  0  0  0  0  0  0  0  0  0  0
   17.7934   -5.9546  -10.2653 C   0  0  0  0  0  0  0  0  0  0  0  0
   16.6833   -6.3503   -9.7237 N   0  0  0  0  0  0  0  0  0  0  0  0
   18.3554   -6.7805  -11.2570 N   0  0  0  0  0  0  0  0  0  0  0  0
   19.5374   -6.3892  -11.9588 C   0  0  0  0  0  0  0  0  0  0  0  0
   19.8202   -7.2620  -13.1633 C   0  0  0  0  0  0  0  0  0  0  0  0
   21.1115   -6.7879  -13.7682 C   0  0  0  0  0  0  0  0  0  0  0  0
   21.4614   -7.5063  -15.0527 C   0  0  2  0  0  0  0  0  0  0  0  0
   22.6781   -8.2562  -14.9710 N   0  0  0  0  0  0  0  0  0  0  0  0
   21.4906   -6.5229  -16.1899 C   0  0  0  0  0  0  0  0  0  0  0  0
   22.4838   -5.7895  -16.3544 O   0  0  0  0  0  0  0  0  0  0  0  0
   16.1822   -7.2065  -10.0064 N   0  0  0  0  0  0  0  0  0  0  0  0
   20.3918   -6.4250  -17.0783 C   0  0  2  0  0  0  0  0  0  0  0  0
   20.3186   -5.5139  -18.1929 C   0  0  0  0  0  0  0  0  0  0  0  0
   19.4387   -6.0161  -19.2975 S   0  0  0  0  0  0  0  0  0  0  0  0
   19.3850   -4.9345  -20.7200 C   0  0  0  0  0  0  0  0  0  0  0  0
   19.9379   -4.1221  -17.7798 O   0  0  0  0  0  0  0  0  0  0  0  0
   18.9382   -3.8160  -16.8889 O   0  0  0  0  0  0  0  0  0  0  0  0
  2  3  1  0
  2  1  1  6
  3  4  1  0
  4  9  2  0
  5  4  1  0
  5  6  2  0
  6  7  1  0
  7  8  2  0
  9  8  1  0
 10 20  1  0
 10  2  1  0
 11 10  2  0
 13 12  1  0
 14 13  2  0
 15 13  1  0
 16 15  1  0
 17 18  1  0
 17 16  1  0
 19 18  1  1
 19 20  1  0
 21 19  1  0
 21 22  2  0
 23 24  1  0
 23 21  1  0
 24 25  1  6
 26 25  1  0
 27 24  1  0
 28 27  1  0
 29 27  2  0
M  END
$$$$
