FRC.pdb
     RDKit          3D

 29 29  0  0  1  0  0  0  0  0999 V2000
   28.0124  -20.2764  -10.4347 N   0  0  0  0  0  0  0  0  0  0  0  0
   26.6906  -20.7749  -10.1174 C   0  0  1  0  0  0  0  0  0  0  0  0
   26.2382  -20.0762   -8.8571 C   0  0  0  0  0  0  0  0  0  0  0  0
   27.3727  -20.0663   -7.8935 C   0  0  0  0  0  0  0  0  0  0  0  0
   27.3872  -19.1967   -6.8146 C   0  0  0  0  0  0  0  0  0  0  0  0
   28.4423  -19.1946   -5.9270 C   0  0  0  0  0  0  0  0  0  0  0  0
   29.5003  -20.0588   -6.0998 C   0  0  0  0  0  0  0  0  0  0  0  0
   29.5088  -20.9281   -7.1592 C   0  0  0  0  0  0  0  0  0  0  0  0
   28.4471  -20.9272   -8.0485 C   0  0  0  0  0  0  0  0  0  0  0  0
   25.8031  -20.5490  -11.2557 C   0  0  0  0  0  0  0  0  0  0  0  0
   25.8703  -19.4605  -11.8878 O   0  0  0  0  0  0  0  0  0  0  0  0
   26.8563  -25.6414  -15.8936 N   0  0  0  0  0  0  0  0  0  0  0  0
   25.4787  -25.3648  -15.6786 C   0  0  0  0  0  0  0  0  0  0  0  0
   24.6544  -26.3538  -15.5217 N   0  0  0  0  0  0  0  0  0  0  0  0
   24.9415  -24.0649  -15.6237 N   0  0  0  0  0  0  0  0  0  0  0  0
   25.7822  -22.9148  -15.7402 C   0  0  0  0  0  0  0  0  0  0  0  0
   25.6692  -21.9833  -14.5518 C   0  0  0  0  0  0  0  0  0  0  0  0
   24.2609  -22.0817  -14.0366 C   0  0  0  0  0  0  0  0  0  0  0  0
   24.0047  -21.1889  -12.8426 C   0  0  2  0  0  0  0  0  0  0  0  0
   24.8415  -21.4873  -11.7201 N   0  0  0  0  0  0  0  0  0  0  0  0
   22.5469  -21.2395  -12.4773 C   0  0  0  0  0  0  0  0  0  0  0  0
   22.1013  -22.2011  -11.8229 O   0  0  0  0  0  0  0  0  0  0  0  0
   23.6590  -26.2357  -15.2779 N   0  0  0  0  0  0  0  0  0  0  0  0
   21.6742  -20.1969  -12.8741 C   0  0  2  0  0  0  0  0  0  0  0  0
   20.2711  -20.1352  -12.5494 C   0  0  0  0  0  0  0  0  0  0  0  0
   19.6803  -18.7771  -12.7794 S   0  0  0  0  0  0  0  0  0  0  0  0
   20.4791  -17.4795  -11.8443 C   0  0  0  0  0  0  0  0  0  0  0  0
   19.4701  -21.2038  -13.2346 O   0  0  0  0  0  0  0  0  0  0  0  0
   18.2827  -21.7125  -12.7677 O   0  0  0  0  0  0  0  0  0  0  0  0
  2  3  1  0
  2  1  1  6
  3  4  1  0
  4  9  2  0
  5  4  1  0
  5  6  2  0
  6  7  1  0
  7  8  2  0
  9  8  1  0
 10 20  1  0
 10  2  1  0
 11 10  2  0
 13 12  1  0
 14 13  2  0
 15 13  1  0
 16 15  1  0
 17 18  1  0
 17 16  1  0
 19 18  1  6
 19 20  1  0
 21 19  1  0
 21 22  2  0
 23 24  1  0
 23 21  1  0
 24 25  1  6
 26 25  1  0
 27 24  1  0
 28 27  1  0
 29 27  2  0
M  END
$$$$
