FRC.pdb
     RDKit          3D

 29 29  0  0  1  0  0  0  0  0999 V2000
   22.3202  -26.4881  -20.0011 N   0  0  0  0  0  0  0  0  0  0  0  0
   22.7649  -26.4839  -18.6232 C   0  0  1  0  0  0  0  0  0  0  0  0
   21.5595  -26.1849  -17.7637 C   0  0  0  0  0  0  0  0  0  0  0  0
   21.1936  -24.7542  -17.9509 C   0  0  0  0  0  0  0  0  0  0  0  0
   21.9950  -23.7398  -17.4516 C   0  0  0  0  0  0  0  0  0  0  0  0
   21.6483  -22.4172  -17.6297 C   0  0  0  0  0  0  0  0  0  0  0  0
   20.4975  -22.0837  -18.3082 C   0  0  0  0  0  0  0  0  0  0  0  0
   19.6888  -23.0690  -18.8112 C   0  0  0  0  0  0  0  0  0  0  0  0
   20.0405  -24.3963  -18.6302 C   0  0  0  0  0  0  0  0  0  0  0  0
   23.3930  -27.7664  -18.3145 C   0  0  0  0  0  0  0  0  0  0  0  0
   23.0005  -28.8075  -18.9067 O   0  0  0  0  0  0  0  0  0  0  0  0
   30.3479  -31.5815  -15.7784 N   0  0  0  0  0  0  0  0  0  0  0  0
   29.5060  -32.5353  -16.4123 C   0  0  0  0  0  0  0  0  0  0  0  0
   29.6678  -33.7943  -16.1459 N   0  0  0  0  0  0  0  0  0  0  0  0
   28.4905  -32.1967  -17.3263 N   0  0  0  0  0  0  0  0  0  0  0  0
   27.9844  -30.8622  -17.4043 C   0  0  0  0  0  0  0  0  0  0  0  0
   26.9812  -30.5511  -16.3137 C   0  0  0  0  0  0  0  0  0  0  0  0
   26.4165  -29.1879  -16.5987 C   0  0  0  0  0  0  0  0  0  0  0  0
   24.9937  -29.2328  -17.1107 C   0  0  2  0  0  0  0  0  0  0  0  0
   24.4425  -27.9376  -17.3711 N   0  0  0  0  0  0  0  0  0  0  0  0
   24.1378  -30.0189  -16.1564 C   0  0  0  0  0  0  0  0  0  0  0  0
   23.8493  -29.5439  -15.0417 O   0  0  0  0  0  0  0  0  0  0  0  0
   29.1307  -34.5488  -16.6002 N   0  0  0  0  0  0  0  0  0  0  0  0
   23.6558  -31.3006  -16.5185 C   0  0  2  0  0  0  0  0  0  0  0  0
   22.8366  -32.1354  -15.6760 C   0  0  0  0  0  0  0  0  0  0  0  0
   22.1687  -33.2450  -16.4304 S   0  0  0  0  0  0  0  0  0  0  0  0
   20.8552  -32.6902  -17.5089 C   0  0  0  0  0  0  0  0  0  0  0  0
   23.5781  -32.6560  -14.4793 O   0  0  0  0  0  0  0  0  0  0  0  0
   23.1221  -32.5877  -13.1854 O   0  0  0  0  0  0  0  0  0  0  0  0
  2  3  1  0
  2  1  1  6
  3  4  1  0
  4  9  2  0
  5  4  1  0
  5  6  2  0
  6  7  1  0
  7  8  2  0
  9  8  1  0
 10 20  1  0
 10  2  1  0
 11 10  2  0
 13 12  1  0
 14 13  2  0
 15 13  1  0
 16 15  1  0
 17 18  1  0
 17 16  1  0
 19 18  1  1
 19 20  1  0
 21 19  1  0
 21 22  2  0
 23 24  1  0
 23 21  1  0
 24 25  1  6
 26 25  1  0
 27 24  1  0
 28 27  1  0
 29 27  2  0
M  END
$$$$
