FRC.pdb
     RDKit          3D

 29 29  0  0  1  0  0  0  0  0999 V2000
   26.6563  -16.7009  -18.0703 N   0  0  0  0  0  0  0  0  0  0  0  0
   25.8573  -16.3354  -16.9195 C   0  0  1  0  0  0  0  0  0  0  0  0
   25.3377  -14.9376  -17.1598 C   0  0  0  0  0  0  0  0  0  0  0  0
   26.4772  -13.9872  -17.0414 C   0  0  0  0  0  0  0  0  0  0  0  0
   27.0519  -13.7092  -15.8114 C   0  0  0  0  0  0  0  0  0  0  0  0
   28.1071  -12.8274  -15.7112 C   0  0  0  0  0  0  0  0  0  0  0  0
   28.6071  -12.2083  -16.8348 C   0  0  0  0  0  0  0  0  0  0  0  0
   28.0556  -12.4670  -18.0624 C   0  0  0  0  0  0  0  0  0  0  0  0
   26.9957  -13.3533  -18.1588 C   0  0  0  0  0  0  0  0  0  0  0  0
   24.7974  -17.3236  -16.7338 C   0  0  0  0  0  0  0  0  0  0  0  0
   24.1826  -17.7699  -17.7396 O   0  0  0  0  0  0  0  0  0  0  0  0
   24.6092  -24.1054  -13.4376 N   0  0  0  0  0  0  0  0  0  0  0  0
   24.6361  -22.9598  -12.5967 C   0  0  0  0  0  0  0  0  0  0  0  0
   25.4396  -22.9440  -11.5787 N   0  0  0  0  0  0  0  0  0  0  0  0
   23.8336  -21.8213  -12.8003 N   0  0  0  0  0  0  0  0  0  0  0  0
   22.7394  -21.8461  -13.7196 C   0  0  0  0  0  0  0  0  0  0  0  0
   22.1344  -20.4770  -13.9479 C   0  0  0  0  0  0  0  0  0  0  0  0
   23.2682  -19.4953  -14.0429 C   0  0  0  0  0  0  0  0  0  0  0  0
   23.3090  -18.7659  -15.3676 C   0  0  2  0  0  0  0  0  0  0  0  0
   24.3929  -17.8365  -15.4712 N   0  0  0  0  0  0  0  0  0  0  0  0
   21.9832  -18.1031  -15.6205 C   0  0  0  0  0  0  0  0  0  0  0  0
   21.8304  -16.8948  -15.3595 O   0  0  0  0  0  0  0  0  0  0  0  0
   25.5248  -22.1469  -10.9295 N   0  0  0  0  0  0  0  0  0  0  0  0
   20.9030  -18.8468  -16.1556 C   0  0  1  0  0  0  0  0  0  0  0  0
   19.5894  -18.3126  -16.4141 C   0  0  0  0  0  0  0  0  0  0  0  0
   19.5111  -17.5635  -17.7099 S   0  0  0  0  0  0  0  0  0  0  0  0
   17.8842  -16.9129  -18.0653 C   0  0  0  0  0  0  0  0  0  0  0  0
   18.5114  -19.3524  -16.3171 O   0  0  0  0  0  0  0  0  0  0  0  0
   17.2193  -19.1057  -15.9216 O   0  0  0  0  0  0  0  0  0  0  0  0
  2  3  1  0
  2  1  1  6
  3  4  1  0
  4  9  2  0
  5  4  1  0
  5  6  2  0
  6  7  1  0
  7  8  2  0
  9  8  1  0
 10 20  1  0
 10  2  1  0
 11 10  2  0
 13 12  1  0
 14 13  2  0
 15 13  1  0
 16 15  1  0
 17 18  1  0
 17 16  1  0
 19 18  1  1
 19 20  1  0
 21 19  1  0
 21 22  2  0
 23 24  1  0
 23 21  1  0
 24 25  1  6
 26 25  1  0
 27 24  1  0
 28 27  1  0
 29 27  2  0
M  END
$$$$
