FRC.pdb
     RDKit          3D

 29 29  0  0  1  0  0  0  0  0999 V2000
   25.0073  -18.1077  -15.9596 N   0  0  0  0  0  0  0  0  0  0  0  0
   26.0518  -18.4439  -15.0150 C   0  0  1  0  0  0  0  0  0  0  0  0
   26.6815  -17.1477  -14.5623 C   0  0  0  0  0  0  0  0  0  0  0  0
   27.3598  -16.5230  -15.7308 C   0  0  0  0  0  0  0  0  0  0  0  0
   27.0537  -15.2314  -16.1291 C   0  0  0  0  0  0  0  0  0  0  0  0
   27.6872  -14.6607  -17.2126 C   0  0  0  0  0  0  0  0  0  0  0  0
   28.6359  -15.3675  -17.9171 C   0  0  0  0  0  0  0  0  0  0  0  0
   28.9557  -16.6463  -17.5425 C   0  0  0  0  0  0  0  0  0  0  0  0
   28.3172  -17.2160  -16.4535 C   0  0  0  0  0  0  0  0  0  0  0  0
   25.4799  -19.2238  -13.9199 C   0  0  0  0  0  0  0  0  0  0  0  0
   24.4187  -18.8293  -13.3660 O   0  0  0  0  0  0  0  0  0  0  0  0
   24.7021  -24.1031  -16.7491 N   0  0  0  0  0  0  0  0  0  0  0  0
   25.3682  -24.8832  -15.7652 C   0  0  0  0  0  0  0  0  0  0  0  0
   26.4245  -25.5556  -16.1031 N   0  0  0  0  0  0  0  0  0  0  0  0
   24.9489  -24.9751  -14.4246 N   0  0  0  0  0  0  0  0  0  0  0  0
   23.8433  -24.2071  -13.9442 C   0  0  0  0  0  0  0  0  0  0  0  0
   24.1650  -22.7331  -13.8160 C   0  0  0  0  0  0  0  0  0  0  0  0
   25.1159  -22.5798  -12.6625 C   0  0  0  0  0  0  0  0  0  0  0  0
   25.4212  -21.1345  -12.3363 C   0  0  2  0  0  0  0  0  0  0  0  0
   26.0425  -20.4277  -13.4151 N   0  0  0  0  0  0  0  0  0  0  0  0
   26.2431  -21.0629  -11.0792 C   0  0  0  0  0  0  0  0  0  0  0  0
   27.4865  -21.0391  -11.1478 O   0  0  0  0  0  0  0  0  0  0  0  0
   27.0322  -26.0440  -15.4275 N   0  0  0  0  0  0  0  0  0  0  0  0
   25.6099  -21.0221   -9.8128 C   0  0  1  0  0  0  0  0  0  0  0  0
   26.2984  -20.8510   -8.5581 C   0  0  0  0  0  0  0  0  0  0  0  0
   27.0337  -19.5478   -8.4714 S   0  0  0  0  0  0  0  0  0  0  0  0
   27.8185  -19.2707   -6.8891 C   0  0  0  0  0  0  0  0  0  0  0  0
   25.4009  -21.0529   -7.3722 O   0  0  0  0  0  0  0  0  0  0  0  0
   24.0536  -21.3102   -7.4451 O   0  0  0  0  0  0  0  0  0  0  0  0
  2  3  1  0
  2  1  1  6
  3  4  1  0
  4  9  2  0
  5  4  1  0
  5  6  2  0
  6  7  1  0
  7  8  2  0
  9  8  1  0
 10 20  1  0
 10  2  1  0
 11 10  2  0
 13 12  1  0
 14 13  2  0
 15 13  1  0
 16 15  1  0
 17 18  1  0
 17 16  1  0
 19 18  1  6
 19 20  1  0
 21 19  1  0
 21 22  2  0
 23 24  1  0
 23 21  1  0
 24 25  1  1
 26 25  1  0
 27 24  1  0
 28 27  1  0
 29 27  2  0
M  END
$$$$
