FRC.pdb
     RDKit          3D

 29 29  0  0  1  0  0  0  0  0999 V2000
   28.4590  -20.6890   -8.8091 N   0  0  0  0  0  0  0  0  0  0  0  0
   27.0259  -20.5911   -8.6281 C   0  0  1  0  0  0  0  0  0  0  0  0
   26.7708  -19.4428   -7.6807 C   0  0  0  0  0  0  0  0  0  0  0  0
   27.3672  -19.7833   -6.3600 C   0  0  0  0  0  0  0  0  0  0  0  0
   26.7806  -20.7276   -5.5325 C   0  0  0  0  0  0  0  0  0  0  0  0
   27.3401  -21.0368   -4.3108 C   0  0  0  0  0  0  0  0  0  0  0  0
   28.4930  -20.4103   -3.8936 C   0  0  0  0  0  0  0  0  0  0  0  0
   29.0916  -19.4729   -4.6943 C   0  0  0  0  0  0  0  0  0  0  0  0
   28.5266  -19.1651   -5.9208 C   0  0  0  0  0  0  0  0  0  0  0  0
   26.3851  -20.4214   -9.9301 C   0  0  0  0  0  0  0  0  0  0  0  0
   26.7219  -19.4548  -10.6656 O   0  0  0  0  0  0  0  0  0  0  0  0
   28.0406  -23.0444  -16.0854 N   0  0  0  0  0  0  0  0  0  0  0  0
   26.7114  -22.6002  -16.3227 C   0  0  0  0  0  0  0  0  0  0  0  0
   26.0489  -23.0988  -17.3199 N   0  0  0  0  0  0  0  0  0  0  0  0
   26.0559  -21.6375  -15.5321 N   0  0  0  0  0  0  0  0  0  0  0  0
   26.6926  -21.0678  -14.3862 C   0  0  0  0  0  0  0  0  0  0  0  0
   26.5098  -21.9045  -13.1375 C   0  0  0  0  0  0  0  0  0  0  0  0
   25.0440  -21.9024  -12.8063 C   0  0  0  0  0  0  0  0  0  0  0  0
   24.6973  -20.9719  -11.6650 C   0  0  2  0  0  0  0  0  0  0  0  0
   25.3824  -21.2858  -10.4479 N   0  0  0  0  0  0  0  0  0  0  0  0
   23.2064  -20.9433  -11.4714 C   0  0  0  0  0  0  0  0  0  0  0  0
   22.7267  -20.9539  -10.3220 O   0  0  0  0  0  0  0  0  0  0  0  0
   25.0947  -22.8033  -17.5777 N   0  0  0  0  0  0  0  0  0  0  0  0
   22.3409  -20.9043  -12.5920 C   0  0  2  0  0  0  0  0  0  0  0  0
   21.0972  -20.1772  -12.6412 C   0  0  0  0  0  0  0  0  0  0  0  0
   21.2565  -18.7285  -12.2911 S   0  0  0  0  0  0  0  0  0  0  0  0
   19.8142  -18.0163  -11.5107 C   0  0  0  0  0  0  0  0  0  0  0  0
   20.3768  -20.3486  -13.9467 O   0  0  0  0  0  0  0  0  0  0  0  0
   19.0417  -20.6468  -14.0707 O   0  0  0  0  0  0  0  0  0  0  0  0
  2  3  1  0
  2  1  1  6
  3  4  1  0
  4  9  2  0
  5  4  1  0
  5  6  2  0
  6  7  1  0
  7  8  2  0
  9  8  1  0
 10 20  1  0
 10  2  1  0
 11 10  2  0
 13 12  1  0
 14 13  2  0
 15 13  1  0
 16 15  1  0
 17 18  1  0
 17 16  1  0
 19 18  1  6
 19 20  1  0
 21 19  1  0
 21 22  2  0
 23 24  1  0
 23 21  1  0
 24 25  1  1
 26 25  1  0
 27 24  1  0
 28 27  1  0
 29 27  2  0
M  END
$$$$
