FRC.pdb
     RDKit          3D

 29 29  0  0  1  0  0  0  0  0999 V2000
   26.4188  -73.6269  -49.7651 N   0  0  0  0  0  0  0  0  0  0  0  0
   25.3033  -72.7904  -49.3749 C   0  0  1  0  0  0  0  0  0  0  0  0
   25.8709  -71.6026  -48.6343 C   0  0  0  0  0  0  0  0  0  0  0  0
   24.9543  -71.2698  -47.5097 C   0  0  0  0  0  0  0  0  0  0  0  0
   24.2111  -72.2539  -46.8774 C   0  0  0  0  0  0  0  0  0  0  0  0
   23.3646  -71.9364  -45.8364 C   0  0  0  0  0  0  0  0  0  0  0  0
   23.2445  -70.6332  -45.4084 C   0  0  0  0  0  0  0  0  0  0  0  0
   23.9690  -69.6424  -46.0179 C   0  0  0  0  0  0  0  0  0  0  0  0
   24.8183  -69.9654  -47.0631 C   0  0  0  0  0  0  0  0  0  0  0  0
   24.5381  -72.4206  -50.5632 C   0  0  0  0  0  0  0  0  0  0  0  0
   23.5359  -71.6654  -50.4451 O   0  0  0  0  0  0  0  0  0  0  0  0
   28.3171  -73.9389  -48.0994 N   0  0  0  0  0  0  0  0  0  0  0  0
   27.4449  -75.0059  -48.4474 C   0  0  0  0  0  0  0  0  0  0  0  0
   27.2756  -75.9805  -47.6086 N   0  0  0  0  0  0  0  0  0  0  0  0
   26.7406  -75.0749  -49.6642 N   0  0  0  0  0  0  0  0  0  0  0  0
   27.3288  -75.6699  -50.8232 C   0  0  0  0  0  0  0  0  0  0  0  0
   28.1204  -74.6806  -51.6522 C   0  0  0  0  0  0  0  0  0  0  0  0
   27.2117  -73.5238  -51.9595 C   0  0  0  0  0  0  0  0  0  0  0  0
   25.7625  -73.9329  -52.1046 C   0  0  2  0  0  0  0  0  0  0  0  0
   24.8437  -72.8582  -51.8807 N   0  0  0  0  0  0  0  0  0  0  0  0
   25.4759  -75.1046  -51.2068 C   0  0  0  0  0  0  0  0  0  0  0  0
   24.8030  -74.9461  -50.1707 O   0  0  0  0  0  0  0  0  0  0  0  0
   26.9739  -76.9275  -47.8852 N   0  0  0  0  0  0  0  0  0  0  0  0
   25.9681  -76.3920  -51.5331 C   0  0  1  0  0  0  0  0  0  0  0  0
   25.3764  -77.2716  -52.5099 C   0  0  0  0  0  0  0  0  0  0  0  0
   24.8589  -78.5434  -51.9091 S   0  0  0  0  0  0  0  0  0  0  0  0
   23.0861  -78.5585  -51.6784 C   0  0  0  0  0  0  0  0  0  0  0  0
   24.3274  -76.5925  -53.3412 O   0  0  0  0  0  0  0  0  0  0  0  0
   23.7588  -75.3778  -53.0446 O   0  0  0  0  0  0  0  0  0  0  0  0
  2  3  1  0
  2  1  1  6
  3  4  1  0
  4  9  2  0
  5  4  1  0
  5  6  2  0
  6  7  1  0
  7  8  2  0
  9  8  1  0
 10 20  1  0
 10  2  1  0
 11 10  2  0
 13 12  1  0
 14 13  2  0
 15 13  1  0
 16 15  1  0
 17 18  1  0
 17 16  1  0
 19 18  1  1
 19 20  1  0
 21 19  1  0
 21 22  2  0
 23 24  1  0
 23 21  1  0
 24 25  1  6
 26 25  1  0
 27 24  1  0
 28 27  1  0
 29 27  2  0
M  END
$$$$
