HEC.pdb
     RDKit          3D

 26 26  0  0  1  0  0  0  0  0999 V2000
   19.6399  -13.3876  -15.8862 N   0  0  0  0  0  0  0  0  0  0  0  0
   18.6283  -12.4136  -16.1716 C   0  0  1  0  0  0  0  0  0  0  0  0
   17.5378  -12.5042  -15.1293 C   0  0  0  0  0  0  0  0  0  0  0  0
   16.8722  -13.8207  -15.2849 C   0  0  0  0  0  0  0  0  0  0  0  0
   15.9401  -14.1848  -16.2317 C   0  0  0  0  0  0  0  0  0  0  0  0
   15.5825  -15.4830  -16.0252 N   0  0  0  0  0  0  0  0  0  0  0  0
   16.2902  -15.9220  -14.9551 C   0  0  0  0  0  0  0  0  0  0  0  0
   17.0619  -14.9199  -14.5156 N   0  0  0  0  0  0  0  0  0  0  0  0
   19.1922  -11.0611  -16.2862 C   0  0  0  0  0  0  0  0  0  0  0  0
   19.8618  -10.6195  -15.2982 O   0  0  0  0  0  0  0  0  0  0  0  0
   19.0395  -10.2241  -17.4163 N   0  0  0  0  0  0  0  0  0  0  0  0
   19.6803   -8.9524  -17.5148 C   0  0  1  0  0  0  0  0  0  0  0  0
   20.6311   -8.7582  -18.6306 C   0  0  0  0  0  0  0  0  0  0  0  0
   21.3654   -7.4916  -18.7575 C   0  0  0  0  0  0  0  0  0  0  0  0
   22.2100   -7.3212  -19.9542 C   0  0  0  0  0  0  0  0  0  0  0  0
   21.9499   -6.5230  -20.8813 O   0  0  0  0  0  0  0  0  0  0  0  0
   18.7303   -7.8216  -17.3169 C   0  0  0  0  0  0  0  0  0  0  0  0
   17.6528   -7.7367  -17.9720 O   0  0  0  0  0  0  0  0  0  0  0  0
   23.3923   -8.0648  -20.1317 O   0  0  0  0  0  0  0  0  0  0  0  0
   18.9853   -6.7822  -16.3821 N   0  0  0  0  0  0  0  0  0  0  0  0
   18.0997   -5.6395  -16.2724 C   0  0  1  0  0  0  0  0  0  0  0  0
   17.1992   -5.8773  -15.0729 C   0  0  0  0  0  0  0  0  0  0  0  0
   16.3772   -4.3581  -14.5352 S   0  0  0  0  0  0  0  0  0  0  0  0
   18.9165   -4.4485  -15.9678 C   0  0  0  0  0  0  0  0  0  0  0  0
   20.0608   -4.5894  -15.4877 O   0  0  0  0  0  0  0  0  0  0  0  0
   18.4483   -3.1643  -16.2003 O   0  0  0  0  0  0  0  0  0  0  0  0
  2  1  1  1
  2  3  1  0
  3  4  1  0
  4  8  1  0
  4  5  2  0
  5  6  1  0
  7  6  1  0
  8  7  2  0
  9 11  1  0
  9  2  1  0
 10  9  2  0
 12 11  1  0
 13 14  1  0
 12 13  1  6
 14 15  1  0
 15 19  1  0
 16 15  2  0
 17 12  1  0
 17 18  2  0
 20 17  1  0
 21 20  1  0
 21 22  1  1
 23 22  1  0
 24 21  1  0
 25 24  2  0
 26 24  1  0
M  END
$$$$
