HEC.pdb
     RDKit          3D

 26 26  0  0  1  0  0  0  0  0999 V2000
   26.4150  -15.8761  -17.8541 N   0  0  0  0  0  0  0  0  0  0  0  0
   25.7632  -17.1290  -17.6114 C   0  0  1  0  0  0  0  0  0  0  0  0
   26.7588  -18.1075  -17.0326 C   0  0  0  0  0  0  0  0  0  0  0  0
   27.8101  -18.3394  -18.0530 C   0  0  0  0  0  0  0  0  0  0  0  0
   27.8582  -17.8449  -19.3380 C   0  0  0  0  0  0  0  0  0  0  0  0
   28.9918  -18.2958  -19.9442 N   0  0  0  0  0  0  0  0  0  0  0  0
   29.6438  -19.0663  -19.0389 C   0  0  0  0  0  0  0  0  0  0  0  0
   28.9297  -19.0885  -17.9065 N   0  0  0  0  0  0  0  0  0  0  0  0
   24.5707  -16.9674  -16.7676 C   0  0  0  0  0  0  0  0  0  0  0  0
   24.7539  -16.6578  -15.5469 O   0  0  0  0  0  0  0  0  0  0  0  0
   23.2412  -17.1329  -17.2217 N   0  0  0  0  0  0  0  0  0  0  0  0
   22.1147  -16.9474  -16.3649 C   0  0  1  0  0  0  0  0  0  0  0  0
   21.2267  -15.8006  -16.6531 C   0  0  0  0  0  0  0  0  0  0  0  0
   21.6726  -14.4330  -16.3524 C   0  0  0  0  0  0  0  0  0  0  0  0
   20.7668  -13.3323  -16.7297 C   0  0  0  0  0  0  0  0  0  0  0  0
   21.0192  -12.1238  -16.5291 O   0  0  0  0  0  0  0  0  0  0  0  0
   21.3960  -18.2232  -16.0886 C   0  0  0  0  0  0  0  0  0  0  0  0
   21.1455  -19.0566  -17.0051 O   0  0  0  0  0  0  0  0  0  0  0  0
   19.5303  -13.5795  -17.3560 O   0  0  0  0  0  0  0  0  0  0  0  0
   20.9566  -18.5691  -14.7821 N   0  0  0  0  0  0  0  0  0  0  0  0
   20.2818  -19.8268  -14.5274 C   0  0  1  0  0  0  0  0  0  0  0  0
   20.6480  -20.2607  -13.1189 C   0  0  0  0  0  0  0  0  0  0  0  0
   22.4250  -20.5497  -12.9429 S   0  0  0  0  0  0  0  0  0  0  0  0
   18.8264  -19.5813  -14.5372 C   0  0  0  0  0  0  0  0  0  0  0  0
   18.3961  -18.4182  -14.6851 O   0  0  0  0  0  0  0  0  0  0  0  0
   17.9120  -20.6126  -14.3859 O   0  0  0  0  0  0  0  0  0  0  0  0
  2  1  1  1
  2  3  1  0
  3  4  1  0
  4  8  1  0
  4  5  2  0
  5  6  1  0
  7  6  1  0
  8  7  2  0
  9 11  1  0
  9  2  1  0
 10  9  2  0
 12 11  1  0
 13 14  1  0
 12 13  1  6
 14 15  1  0
 15 19  1  0
 16 15  2  0
 17 12  1  0
 17 18  2  0
 20 17  1  0
 21 20  1  0
 21 22  1  1
 23 22  1  0
 24 21  1  0
 25 24  2  0
 26 24  1  0
M  END
$$$$
