HEC.pdb
     RDKit          3D

 26 26  0  0  1  0  0  0  0  0999 V2000
   26.6245  -32.3089  -10.3426 N   0  0  0  0  0  0  0  0  0  0  0  0
   26.2515  -33.4735   -9.5956 C   0  0  1  0  0  0  0  0  0  0  0  0
   26.7043  -34.7101  -10.3369 C   0  0  0  0  0  0  0  0  0  0  0  0
   25.9337  -34.7861  -11.6020 C   0  0  0  0  0  0  0  0  0  0  0  0
   26.4194  -34.7028  -12.8885 C   0  0  0  0  0  0  0  0  0  0  0  0
   25.3811  -34.8200  -13.7627 N   0  0  0  0  0  0  0  0  0  0  0  0
   24.2566  -34.9757  -13.0213 C   0  0  0  0  0  0  0  0  0  0  0  0
   24.5949  -34.9544  -11.7259 N   0  0  0  0  0  0  0  0  0  0  0  0
   26.7587  -33.4211   -8.2170 C   0  0  0  0  0  0  0  0  0  0  0  0
   27.6990  -32.6002   -7.9692 O   0  0  0  0  0  0  0  0  0  0  0  0
   26.2724  -34.2192   -7.1551 N   0  0  0  0  0  0  0  0  0  0  0  0
   26.7090  -34.0427   -5.8076 C   0  0  1  0  0  0  0  0  0  0  0  0
   25.7092  -33.5627   -4.8295 C   0  0  0  0  0  0  0  0  0  0  0  0
   26.1087  -33.3002   -3.4399 C   0  0  0  0  0  0  0  0  0  0  0  0
   25.0576  -32.8400   -2.5137 C   0  0  0  0  0  0  0  0  0  0  0  0
   25.2639  -32.5557   -1.3133 O   0  0  0  0  0  0  0  0  0  0  0  0
   27.5373  -35.1838   -5.3256 C   0  0  0  0  0  0  0  0  0  0  0  0
   27.1585  -36.3823   -5.4579 O   0  0  0  0  0  0  0  0  0  0  0  0
   23.7225  -32.6875   -2.9339 O   0  0  0  0  0  0  0  0  0  0  0  0
   28.7947  -34.9843   -4.6942 N   0  0  0  0  0  0  0  0  0  0  0  0
   29.5676  -36.1042   -4.1940 C   0  0  1  0  0  0  0  0  0  0  0  0
   30.9435  -35.5772   -3.8257 C   0  0  0  0  0  0  0  0  0  0  0  0
   31.8605  -35.0126   -5.2792 S   0  0  0  0  0  0  0  0  0  0  0  0
   28.9402  -36.5786   -2.9450 C   0  0  0  0  0  0  0  0  0  0  0  0
   27.8786  -36.0540   -2.5480 O   0  0  0  0  0  0  0  0  0  0  0  0
   29.4984  -37.5992   -2.1905 O   0  0  0  0  0  0  0  0  0  0  0  0
  2  1  1  6
  2  3  1  0
  3  4  1  0
  4  8  1  0
  4  5  2  0
  5  6  1  0
  7  6  1  0
  8  7  2  0
  9 11  1  0
  9  2  1  0
 10  9  2  0
 12 11  1  0
 13 14  1  0
 12 13  1  1
 14 15  1  0
 15 19  1  0
 16 15  2  0
 17 12  1  0
 17 18  2  0
 20 17  1  0
 21 20  1  0
 21 22  1  1
 23 22  1  0
 24 21  1  0
 25 24  2  0
 26 24  1  0
M  END
$$$$
