HEC.pdb
     RDKit          3D

 26 26  0  0  1  0  0  0  0  0999 V2000
   17.2138  -11.8379  -17.1101 N   0  0  0  0  0  0  0  0  0  0  0  0
   18.3451  -11.3939  -16.3508 C   0  0  1  0  0  0  0  0  0  0  0  0
   19.6000  -12.0284  -16.9044 C   0  0  0  0  0  0  0  0  0  0  0  0
   19.4933  -13.4938  -16.7003 C   0  0  0  0  0  0  0  0  0  0  0  0
   19.1470  -14.4491  -17.6305 C   0  0  0  0  0  0  0  0  0  0  0  0
   19.1688  -15.6747  -17.0361 N   0  0  0  0  0  0  0  0  0  0  0  0
   19.5274  -15.4801  -15.7431 C   0  0  0  0  0  0  0  0  0  0  0  0
   19.7205  -14.1695  -15.5480 N   0  0  0  0  0  0  0  0  0  0  0  0
   18.4255   -9.9271  -16.3017 C   0  0  0  0  0  0  0  0  0  0  0  0
   18.4891   -9.3060  -17.4106 O   0  0  0  0  0  0  0  0  0  0  0  0
   18.4369   -9.1663  -15.1091 N   0  0  0  0  0  0  0  0  0  0  0  0
   18.4701   -7.7393  -15.1160 C   0  0  1  0  0  0  0  0  0  0  0  0
   17.1936   -7.0314  -14.8793 C   0  0  0  0  0  0  0  0  0  0  0  0
   17.1609   -5.5623  -14.8622 C   0  0  0  0  0  0  0  0  0  0  0  0
   15.8608   -4.9218  -14.5902 C   0  0  0  0  0  0  0  0  0  0  0  0
   14.8134   -5.5555  -14.3333 O   0  0  0  0  0  0  0  0  0  0  0  0
   19.6234   -7.1950  -14.3452 C   0  0  0  0  0  0  0  0  0  0  0  0
   19.8030   -7.4811  -13.1273 O   0  0  0  0  0  0  0  0  0  0  0  0
   15.7140   -3.5217  -14.6023 O   0  0  0  0  0  0  0  0  0  0  0  0
   20.5805   -6.3283  -14.9387 N   0  0  0  0  0  0  0  0  0  0  0  0
   21.6992   -5.8123  -14.1744 C   0  0  1  0  0  0  0  0  0  0  0  0
   22.9569   -6.0576  -14.9895 C   0  0  0  0  0  0  0  0  0  0  0  0
   23.2944   -7.8230  -15.1938 S   0  0  0  0  0  0  0  0  0  0  0  0
   21.5426   -4.3495  -14.0549 C   0  0  0  0  0  0  0  0  0  0  0  0
   20.6795   -3.7617  -14.7399 O   0  0  0  0  0  0  0  0  0  0  0  0
   22.3321   -3.5993  -13.1967 O   0  0  0  0  0  0  0  0  0  0  0  0
  2  1  1  6
  2  3  1  0
  3  4  1  0
  4  8  1  0
  4  5  2  0
  5  6  1  0
  7  6  1  0
  8  7  2  0
  9 11  1  0
  9  2  1  0
 10  9  2  0
 12 11  1  0
 13 14  1  0
 12 13  1  1
 14 15  1  0
 15 19  1  0
 16 15  2  0
 17 12  1  0
 17 18  2  0
 20 17  1  0
 21 20  1  0
 21 22  1  6
 23 22  1  0
 24 21  1  0
 25 24  2  0
 26 24  1  0
M  END
$$$$
