HEC.pdb
     RDKit          3D

 26 26  0  0  1  0  0  0  0  0999 V2000
   25.5839  -19.9085  -17.9359 N   0  0  0  0  0  0  0  0  0  0  0  0
   25.7962  -19.6566  -16.5413 C   0  0  1  0  0  0  0  0  0  0  0  0
   27.0815  -18.8821  -16.3625 C   0  0  0  0  0  0  0  0  0  0  0  0
   28.1662  -19.6476  -17.0241 C   0  0  0  0  0  0  0  0  0  0  0  0
   28.9657  -19.2404  -18.0694 C   0  0  0  0  0  0  0  0  0  0  0  0
   29.8365  -20.2417  -18.3776 N   0  0  0  0  0  0  0  0  0  0  0  0
   29.5781  -21.2653  -17.5267 C   0  0  0  0  0  0  0  0  0  0  0  0
   28.5749  -20.9026  -16.7173 N   0  0  0  0  0  0  0  0  0  0  0  0
   24.6407  -18.9872  -15.9273 C   0  0  0  0  0  0  0  0  0  0  0  0
   24.7273  -18.6807  -14.6952 O   0  0  0  0  0  0  0  0  0  0  0  0
   23.4463  -18.6640  -16.6130 N   0  0  0  0  0  0  0  0  0  0  0  0
   22.3204  -18.0872  -15.9518 C   0  0  1  0  0  0  0  0  0  0  0  0
   21.5577  -17.0565  -16.6884 C   0  0  0  0  0  0  0  0  0  0  0  0
   20.3669  -16.4484  -16.0786 C   0  0  0  0  0  0  0  0  0  0  0  0
   19.6766  -15.3997  -16.8521 C   0  0  0  0  0  0  0  0  0  0  0  0
   20.0192  -14.1968  -16.8531 O   0  0  0  0  0  0  0  0  0  0  0  0
   21.4724  -19.1109  -15.2783 C   0  0  0  0  0  0  0  0  0  0  0  0
   21.1689  -20.1993  -15.8445 O   0  0  0  0  0  0  0  0  0  0  0  0
   18.5611  -15.6950  -17.6587 O   0  0  0  0  0  0  0  0  0  0  0  0
   20.9627  -18.9174  -13.9659 N   0  0  0  0  0  0  0  0  0  0  0  0
   20.1214  -19.9152  -13.3346 C   0  0  1  0  0  0  0  0  0  0  0  0
   20.4241  -19.8878  -11.8467 C   0  0  0  0  0  0  0  0  0  0  0  0
   19.3373  -20.9955  -10.9170 S   0  0  0  0  0  0  0  0  0  0  0  0
   18.7135  -19.5020  -13.4948 C   0  0  0  0  0  0  0  0  0  0  0  0
   18.4454  -18.3157  -13.7789 O   0  0  0  0  0  0  0  0  0  0  0  0
   17.6679  -20.3990  -13.3382 O   0  0  0  0  0  0  0  0  0  0  0  0
  2  1  1  6
  2  3  1  0
  3  4  1  0
  4  8  1  0
  4  5  2  0
  5  6  1  0
  7  6  1  0
  8  7  2  0
  9 11  1  0
  9  2  1  0
 10  9  2  0
 12 11  1  0
 13 14  1  0
 12 13  1  6
 14 15  1  0
 15 19  1  0
 16 15  2  0
 17 12  1  0
 17 18  2  0
 20 17  1  0
 21 20  1  0
 21 22  1  1
 23 22  1  0
 24 21  1  0
 25 24  2  0
 26 24  1  0
M  END
$$$$
