HEC.pdb
     RDKit          3D

 26 26  0  0  1  0  0  0  0  0999 V2000
   16.2585  -25.0956   -8.9990 N   0  0  0  0  0  0  0  0  0  0  0  0
   17.3872  -24.9991   -8.1216 C   0  0  1  0  0  0  0  0  0  0  0  0
   17.8788  -23.5704   -8.0933 C   0  0  0  0  0  0  0  0  0  0  0  0
   18.3514  -23.2280   -9.4570 C   0  0  0  0  0  0  0  0  0  0  0  0
   17.7040  -22.4657  -10.4045 C   0  0  0  0  0  0  0  0  0  0  0  0
   18.4805  -22.3937  -11.5215 N   0  0  0  0  0  0  0  0  0  0  0  0
   19.6046  -23.1081  -11.2676 C   0  0  0  0  0  0  0  0  0  0  0  0
   19.5209  -23.6062  -10.0274 N   0  0  0  0  0  0  0  0  0  0  0  0
   17.0808  -25.5200   -6.7817 C   0  0  0  0  0  0  0  0  0  0  0  0
   16.3594  -24.7971   -6.0226 O   0  0  0  0  0  0  0  0  0  0  0  0
   17.5333  -26.7648   -6.2849 N   0  0  0  0  0  0  0  0  0  0  0  0
   17.0652  -27.3082   -5.0507 C   0  0  1  0  0  0  0  0  0  0  0  0
   16.5902  -28.7085   -5.0646 C   0  0  0  0  0  0  0  0  0  0  0  0
   15.5532  -29.1227   -6.0199 C   0  0  0  0  0  0  0  0  0  0  0  0
   15.9770  -29.3567   -7.4128 C   0  0  0  0  0  0  0  0  0  0  0  0
   17.0952  -29.8176   -7.7315 O   0  0  0  0  0  0  0  0  0  0  0  0
   17.9639  -26.9785   -3.9087 C   0  0  0  0  0  0  0  0  0  0  0  0
   19.1538  -26.5929   -4.0894 O   0  0  0  0  0  0  0  0  0  0  0  0
   15.1275  -29.0691   -8.4980 O   0  0  0  0  0  0  0  0  0  0  0  0
   17.5300  -27.0791   -2.5592 N   0  0  0  0  0  0  0  0  0  0  0  0
   18.4473  -26.8556   -1.4589 C   0  0  1  0  0  0  0  0  0  0  0  0
   17.7540  -25.9340   -0.4707 C   0  0  0  0  0  0  0  0  0  0  0  0
   18.7016  -25.7507    1.0593 S   0  0  0  0  0  0  0  0  0  0  0  0
   18.6639  -28.1420   -0.7684 C   0  0  0  0  0  0  0  0  0  0  0  0
   19.7646  -28.3756   -0.2265 O   0  0  0  0  0  0  0  0  0  0  0  0
   17.6730  -29.1095   -0.7015 O   0  0  0  0  0  0  0  0  0  0  0  0
  2  1  1  6
  2  3  1  0
  3  4  1  0
  4  8  1  0
  4  5  2  0
  5  6  1  0
  7  6  1  0
  8  7  2  0
  9 11  1  0
  9  2  1  0
 10  9  2  0
 12 11  1  0
 13 14  1  0
 12 13  1  6
 14 15  1  0
 15 19  1  0
 16 15  2  0
 17 12  1  0
 17 18  2  0
 20 17  1  0
 21 20  1  0
 21 22  1  1
 23 22  1  0
 24 21  1  0
 25 24  2  0
 26 24  1  0
M  END
$$$$
