HEC.pdb
     RDKit          3D

 26 26  0  0  1  0  0  0  0  0999 V2000
   40.9402  -10.5510   -5.6697 N   0  0  0  0  0  0  0  0  0  0  0  0
   41.4273  -10.1326   -6.9508 C   0  0  1  0  0  0  0  0  0  0  0  0
   40.8402   -8.7829   -7.2933 C   0  0  0  0  0  0  0  0  0  0  0  0
   39.3845   -8.9657   -7.5123 C   0  0  0  0  0  0  0  0  0  0  0  0
   38.3533   -8.5503   -6.6987 C   0  0  0  0  0  0  0  0  0  0  0  0
   37.1686   -8.9157   -7.2634 N   0  0  0  0  0  0  0  0  0  0  0  0
   37.4641   -9.5547   -8.4222 C   0  0  0  0  0  0  0  0  0  0  0  0
   38.7952   -9.5814   -8.5656 N   0  0  0  0  0  0  0  0  0  0  0  0
   42.8961  -10.1421   -7.0039 C   0  0  0  0  0  0  0  0  0  0  0  0
   43.5222   -9.6938   -5.9907 O   0  0  0  0  0  0  0  0  0  0  0  0
   43.6537  -10.6140   -8.1014 N   0  0  0  0  0  0  0  0  0  0  0  0
   45.0808  -10.6427   -8.0860 C   0  0  1  0  0  0  0  0  0  0  0  0
   45.7435  -11.7425   -8.8195 C   0  0  0  0  0  0  0  0  0  0  0  0
   47.2098  -11.8406   -8.8278 C   0  0  0  0  0  0  0  0  0  0  0  0
   47.8019  -13.0034   -9.5147 C   0  0  0  0  0  0  0  0  0  0  0  0
   47.7581  -14.1712   -9.0688 O   0  0  0  0  0  0  0  0  0  0  0  0
   45.6778   -9.2991   -8.3282 C   0  0  0  0  0  0  0  0  0  0  0  0
   45.3355   -8.5880   -9.3154 O   0  0  0  0  0  0  0  0  0  0  0  0
   48.4696  -12.8681  -10.7468 O   0  0  0  0  0  0  0  0  0  0  0  0
   46.6606   -8.7476   -7.4625 N   0  0  0  0  0  0  0  0  0  0  0  0
   47.2063   -7.4247   -7.6952 C   0  0  1  0  0  0  0  0  0  0  0  0
   47.4806   -6.8021   -6.3375 C   0  0  0  0  0  0  0  0  0  0  0  0
   45.9733   -6.6494   -5.3489 S   0  0  0  0  0  0  0  0  0  0  0  0
   48.5099   -7.5742   -8.3712 C   0  0  0  0  0  0  0  0  0  0  0  0
   48.9294   -8.7143   -8.6611 O   0  0  0  0  0  0  0  0  0  0  0  0
   49.2918   -6.4768   -8.6980 O   0  0  0  0  0  0  0  0  0  0  0  0
  2  1  1  1
  2  3  1  0
  3  4  1  0
  4  8  1  0
  4  5  2  0
  5  6  1  0
  7  6  1  0
  8  7  2  0
  9 11  1  0
  9  2  1  0
 10  9  2  0
 12 11  1  0
 13 14  1  0
 12 13  1  6
 14 15  1  0
 15 19  1  0
 16 15  2  0
 17 12  1  0
 17 18  2  0
 20 17  1  0
 21 20  1  0
 21 22  1  1
 23 22  1  0
 24 21  1  0
 25 24  2  0
 26 24  1  0
M  END
$$$$
