HEC.pdb
     RDKit          3D

 26 26  0  0  1  0  0  0  0  0999 V2000
   16.7739  -12.0193  -13.5213 N   0  0  0  0  0  0  0  0  0  0  0  0
   16.3437  -10.6796  -13.7926 C   0  0  1  0  0  0  0  0  0  0  0  0
   14.8336  -10.6370  -13.8322 C   0  0  0  0  0  0  0  0  0  0  0  0
   14.3902  -11.4189  -15.0121 C   0  0  0  0  0  0  0  0  0  0  0  0
   13.9728  -12.7315  -15.0424 C   0  0  0  0  0  0  0  0  0  0  0  0
   13.6526  -13.0652  -16.3237 N   0  0  0  0  0  0  0  0  0  0  0  0
   13.8702  -11.9642  -17.0846 C   0  0  0  0  0  0  0  0  0  0  0  0
   14.3127  -10.9801  -16.2918 N   0  0  0  0  0  0  0  0  0  0  0  0
   16.9132   -9.7209  -12.8351 C   0  0  0  0  0  0  0  0  0  0  0  0
   16.6797   -9.9175  -11.5996 O   0  0  0  0  0  0  0  0  0  0  0  0
   17.6986   -8.6010  -13.1958 N   0  0  0  0  0  0  0  0  0  0  0  0
   18.2017   -7.6798  -12.2284 C   0  0  1  0  0  0  0  0  0  0  0  0
   19.4223   -6.9245  -12.5837 C   0  0  0  0  0  0  0  0  0  0  0  0
   19.9971   -5.9666  -11.6289 C   0  0  0  0  0  0  0  0  0  0  0  0
   21.2521   -5.2984  -12.0199 C   0  0  0  0  0  0  0  0  0  0  0  0
   22.3892   -5.7712  -11.8013 O   0  0  0  0  0  0  0  0  0  0  0  0
   17.1234   -6.8493  -11.6216 C   0  0  0  0  0  0  0  0  0  0  0  0
   16.2848   -6.2262  -12.3328 O   0  0  0  0  0  0  0  0  0  0  0  0
   21.2482   -4.0555  -12.6812 O   0  0  0  0  0  0  0  0  0  0  0  0
   16.9816   -6.7157  -10.2140 N   0  0  0  0  0  0  0  0  0  0  0  0
   15.9496   -5.8734   -9.6418 C   0  0  1  0  0  0  0  0  0  0  0  0
   15.6768   -6.3814   -8.2369 C   0  0  0  0  0  0  0  0  0  0  0  0
   14.9875   -8.0539   -8.2467 S   0  0  0  0  0  0  0  0  0  0  0  0
   16.4897   -4.5063   -9.5075 C   0  0  0  0  0  0  0  0  0  0  0  0
   17.6757   -4.2759   -9.8238 O   0  0  0  0  0  0  0  0  0  0  0  0
   15.7133   -3.4586   -9.0363 O   0  0  0  0  0  0  0  0  0  0  0  0
  2  1  1  1
  2  3  1  0
  3  4  1  0
  4  8  1  0
  4  5  2  0
  5  6  1  0
  7  6  1  0
  8  7  2  0
  9 11  1  0
  9  2  1  0
 10  9  2  0
 12 11  1  0
 13 14  1  0
 12 13  1  6
 14 15  1  0
 15 19  1  0
 16 15  2  0
 17 12  1  0
 17 18  2  0
 20 17  1  0
 21 20  1  0
 21 22  1  1
 23 22  1  0
 24 21  1  0
 25 24  2  0
 26 24  1  0
M  END
$$$$
