CTL.pdb
     RDKit          3D

 22 21  0  0  1  0  0  0  0  0999 V2000
    8.6027  -15.1254   17.7669 N   0  0  0  0  0  0  0  0  0  0  0  0
    9.3262  -14.7808   18.9710 C   0  0  1  0  0  0  0  0  0  0  0  0
    9.4788  -13.2607   18.9923 C   0  0  0  0  0  0  0  0  0  0  0  0
    7.8768  -12.4759   19.2848 S   0  0  0  0  0  0  0  0  0  0  0  0
    8.6212  -15.2400   20.1850 C   0  0  0  0  0  0  0  0  0  0  0  0
    7.3615  -15.3757   20.1109 O   0  0  0  0  0  0  0  0  0  0  0  0
    8.5874  -18.3519   21.3922 C   0  0  0  0  0  0  0  0  0  0  0  0
    8.9246  -17.5951   22.6560 C   0  0  1  0  0  0  0  0  0  0  0  0
   10.2744  -17.8092   22.9242 O   0  0  0  0  0  0  0  0  0  0  0  0
    8.6184  -16.1149   22.5097 C   0  0  2  0  0  0  0  0  0  0  0  0
    9.3052  -15.5259   21.4031 N   0  0  0  0  0  0  0  0  0  0  0  0
    8.9482  -15.3881   23.7691 C   0  0  0  0  0  0  0  0  0  0  0  0
   10.0357  -14.7605   23.8386 O   0  0  0  0  0  0  0  0  0  0  0  0
    7.7680  -11.8222   25.8860 C   0  0  0  0  0  0  0  0  0  0  0  0
    6.7297  -12.9326   26.0434 C   0  0  2  0  0  0  0  0  0  0  0  0
    5.5021  -12.3306   26.6375 C   0  0  0  0  0  0  0  0  0  0  0  0
    7.2906  -14.0930   26.8047 C   0  0  0  0  0  0  0  0  0  0  0  0
    8.4668  -14.6834   26.1299 C   0  0  2  0  0  0  0  0  0  0  0  0
    8.1040  -15.3656   24.8908 N   0  0  0  0  0  0  0  0  0  0  0  0
    9.2163  -15.6164   26.9735 C   0  0  0  0  0  0  0  0  0  0  0  0
    9.7751  -15.2714   28.0180 O   0  0  0  0  0  0  0  0  0  0  0  0
    9.3201  -16.9528   26.6086 O   0  0  0  0  0  0  0  0  0  0  0  0
  2  1  1  6
  3  2  1  0
  4  3  1  0
  5 11  1  0
  5  2  1  0
  6  5  2  0
  8 10  1  0
  8  7  1  6
  9  8  1  0
 10 11  1  6
 10 12  1  0
 12 19  1  0
 13 12  2  0
 15 14  1  1
 16 15  1  0
 17 15  1  0
 18 17  1  1
 19 18  1  0
 20 18  1  0
 20 22  1  0
 21 20  2  0
M  END
$$$$
