CTL.pdb
     RDKit          3D

 22 21  0  0  1  0  0  0  0  0999 V2000
    8.5140  -16.2873   18.4487 N   0  0  0  0  0  0  0  0  0  0  0  0
    9.0035  -15.5402   19.5862 C   0  0  1  0  0  0  0  0  0  0  0  0
    8.4133  -14.1338   19.4967 C   0  0  0  0  0  0  0  0  0  0  0  0
    6.6408  -14.1764   19.8488 S   0  0  0  0  0  0  0  0  0  0  0  0
    8.6210  -16.1737   20.8645 C   0  0  0  0  0  0  0  0  0  0  0  0
    7.9478  -17.2479   20.8038 O   0  0  0  0  0  0  0  0  0  0  0  0
    9.2540  -18.5389   22.0865 C   0  0  0  0  0  0  0  0  0  0  0  0
    9.6954  -17.6785   23.2478 C   0  0  1  0  0  0  0  0  0  0  0  0
   11.0511  -17.4088   23.0769 O   0  0  0  0  0  0  0  0  0  0  0  0
    8.8827  -16.3979   23.3244 C   0  0  2  0  0  0  0  0  0  0  0  0
    8.9811  -15.6210   22.1286 N   0  0  0  0  0  0  0  0  0  0  0  0
    9.2994  -15.5867   24.5040 C   0  0  0  0  0  0  0  0  0  0  0  0
   10.4031  -14.9854   24.4654 O   0  0  0  0  0  0  0  0  0  0  0  0
    7.5460  -12.0117   25.5890 C   0  0  0  0  0  0  0  0  0  0  0  0
    6.8467  -13.2238   26.2039 C   0  0  2  0  0  0  0  0  0  0  0  0
    5.4843  -12.7971   26.6334 C   0  0  0  0  0  0  0  0  0  0  0  0
    7.6809  -13.8385   27.2842 C   0  0  0  0  0  0  0  0  0  0  0  0
    8.8685  -14.5329   26.7413 C   0  0  2  0  0  0  0  0  0  0  0  0
    8.5204  -15.4561   25.6648 N   0  0  0  0  0  0  0  0  0  0  0  0
    9.6307  -15.2647   27.7549 C   0  0  0  0  0  0  0  0  0  0  0  0
   10.1282  -14.7162   28.7417 O   0  0  0  0  0  0  0  0  0  0  0  0
    9.8185  -16.6352   27.6273 O   0  0  0  0  0  0  0  0  0  0  0  0
  2  1  1  6
  3  2  1  0
  4  3  1  0
  5 11  1  0
  5  2  1  0
  6  5  2  0
  8 10  1  0
  8  7  1  6
  9  8  1  0
 10 11  1  6
 10 12  1  0
 12 19  1  0
 13 12  2  0
 15 14  1  1
 16 15  1  0
 17 15  1  0
 18 17  1  1
 19 18  1  0
 20 18  1  0
 20 22  1  0
 21 20  2  0
M  END
$$$$
