CTL.pdb
     RDKit          3D

 22 21  0  0  1  0  0  0  0  0999 V2000
    7.9161  -13.9700   18.3035 N   0  0  0  0  0  0  0  0  0  0  0  0
    9.0410  -14.2063   19.1813 C   0  0  1  0  0  0  0  0  0  0  0  0
    9.6184  -12.8433   19.5600 C   0  0  0  0  0  0  0  0  0  0  0  0
   11.1454  -13.0522   20.5046 S   0  0  0  0  0  0  0  0  0  0  0  0
    8.6433  -14.9472   20.3956 C   0  0  0  0  0  0  0  0  0  0  0  0
    7.4921  -14.7077   20.8733 O   0  0  0  0  0  0  0  0  0  0  0  0
    8.6739  -18.8803   23.1901 C   0  0  0  0  0  0  0  0  0  0  0  0
    9.1542  -18.1311   21.9687 C   0  0  1  0  0  0  0  0  0  0  0  0
    8.3728  -18.5423   20.8917 O   0  0  0  0  0  0  0  0  0  0  0  0
    9.0658  -16.6290   22.1740 C   0  0  2  0  0  0  0  0  0  0  0  0
    9.4995  -15.8983   21.0246 N   0  0  0  0  0  0  0  0  0  0  0  0
    9.8515  -16.2203   23.3734 C   0  0  0  0  0  0  0  0  0  0  0  0
   11.0949  -16.0707   23.2601 O   0  0  0  0  0  0  0  0  0  0  0  0
   10.1729  -15.5430   28.7862 C   0  0  0  0  0  0  0  0  0  0  0  0
   10.0635  -14.2994   27.9045 C   0  0  2  0  0  0  0  0  0  0  0  0
    9.4672  -13.2072   28.7255 C   0  0  0  0  0  0  0  0  0  0  0  0
    9.3311  -14.6003   26.6342 C   0  0  0  0  0  0  0  0  0  0  0  0
   10.0605  -15.5705   25.7892 C   0  0  2  0  0  0  0  0  0  0  0  0
    9.2744  -15.9914   24.6328 N   0  0  0  0  0  0  0  0  0  0  0  0
   10.4972  -16.7644   26.5156 C   0  0  0  0  0  0  0  0  0  0  0  0
    9.7301  -17.6844   26.8110 O   0  0  0  0  0  0  0  0  0  0  0  0
   11.8252  -16.8953   26.9019 O   0  0  0  0  0  0  0  0  0  0  0  0
  2  1  1  6
  3  2  1  0
  4  3  1  0
  5 11  1  0
  5  2  1  0
  6  5  2  0
  8 10  1  0
  8  7  1  1
  9  8  1  0
 10 11  1  6
 10 12  1  0
 12 19  1  0
 13 12  2  0
 15 14  1  1
 16 15  1  0
 17 15  1  0
 18 17  1  1
 19 18  1  0
 20 18  1  0
 20 22  1  0
 21 20  2  0
M  END
$$$$
