CTL.pdb
     RDKit          3D

 22 21  0  0  1  0  0  0  0  0999 V2000
    4.9335  -13.3706   26.6000 N   0  0  0  0  0  0  0  0  0  0  0  0
    6.0087  -12.9745   25.7175 C   0  0  1  0  0  0  0  0  0  0  0  0
    6.8877  -11.9873   26.4838 C   0  0  0  0  0  0  0  0  0  0  0  0
    8.3022  -11.4943   25.4720 S   0  0  0  0  0  0  0  0  0  0  0  0
    6.8098  -14.1336   25.2742 C   0  0  0  0  0  0  0  0  0  0  0  0
    7.0565  -15.0342   26.1337 O   0  0  0  0  0  0  0  0  0  0  0  0
    6.7684  -15.3493   21.3769 C   0  0  0  0  0  0  0  0  0  0  0  0
    8.1214  -15.5399   22.0226 C   0  0  1  0  0  0  0  0  0  0  0  0
    8.9798  -14.5839   21.4850 O   0  0  0  0  0  0  0  0  0  0  0  0
    8.0329  -15.4157   23.5335 C   0  0  2  0  0  0  0  0  0  0  0  0
    7.2979  -14.2592   23.9404 N   0  0  0  0  0  0  0  0  0  0  0  0
    9.3969  -15.3997   24.1354 C   0  0  0  0  0  0  0  0  0  0  0  0
   10.1121  -14.3762   23.9863 O   0  0  0  0  0  0  0  0  0  0  0  0
   10.2647  -15.8237   29.5465 C   0  0  0  0  0  0  0  0  0  0  0  0
   10.9353  -15.2632   28.2926 C   0  0  2  0  0  0  0  0  0  0  0  0
   11.2993  -13.8432   28.5640 C   0  0  0  0  0  0  0  0  0  0  0  0
   10.0785  -15.4708   27.0828 C   0  0  0  0  0  0  0  0  0  0  0  0
   10.7627  -16.2781   26.0497 C   0  0  2  0  0  0  0  0  0  0  0  0
    9.9309  -16.4736   24.8655 N   0  0  0  0  0  0  0  0  0  0  0  0
   11.2041  -17.5887   26.5309 C   0  0  0  0  0  0  0  0  0  0  0  0
   10.4638  -18.5754   26.5549 O   0  0  0  0  0  0  0  0  0  0  0  0
   12.5055  -17.7592   26.9859 O   0  0  0  0  0  0  0  0  0  0  0  0
  2  1  1  1
  3  2  1  0
  4  3  1  0
  5 11  1  0
  5  2  1  0
  6  5  2  0
  8 10  1  0
  8  7  1  6
  9  8  1  0
 10 11  1  6
 10 12  1  0
 12 19  1  0
 13 12  2  0
 15 14  1  1
 16 15  1  0
 17 15  1  0
 18 17  1  1
 19 18  1  0
 20 18  1  0
 20 22  1  0
 21 20  2  0
M  END
$$$$
