CTL.pdb
     RDKit          3D

 22 21  0  0  1  0  0  0  0  0999 V2000
    4.2108  -20.0301   20.9359 N   0  0  0  0  0  0  0  0  0  0  0  0
    4.2408  -18.7379   21.5849 C   0  0  1  0  0  0  0  0  0  0  0  0
    3.1384  -18.7329   22.6427 C   0  0  0  0  0  0  0  0  0  0  0  0
    1.5131  -18.7474   21.8514 S   0  0  0  0  0  0  0  0  0  0  0  0
    5.5509  -18.4692   22.2119 C   0  0  0  0  0  0  0  0  0  0  0  0
    6.0253  -19.3641   22.9766 O   0  0  0  0  0  0  0  0  0  0  0  0
    8.6512  -18.2593   20.5911 C   0  0  0  0  0  0  0  0  0  0  0  0
    8.6468  -17.0069   21.4367 C   0  0  1  0  0  0  0  0  0  0  0  0
    8.4291  -15.9273   20.5842 O   0  0  0  0  0  0  0  0  0  0  0  0
    7.5854  -17.0780   22.5204 C   0  0  2  0  0  0  0  0  0  0  0  0
    6.2735  -17.2613   21.9833 N   0  0  0  0  0  0  0  0  0  0  0  0
    7.6289  -15.8554   23.3727 C   0  0  0  0  0  0  0  0  0  0  0  0
    7.0214  -14.8251   22.9845 O   0  0  0  0  0  0  0  0  0  0  0  0
    5.6014  -12.5949   27.1628 C   0  0  0  0  0  0  0  0  0  0  0  0
    7.0038  -12.9135   26.6453 C   0  0  2  0  0  0  0  0  0  0  0  0
    7.5744  -11.6625   26.0692 C   0  0  0  0  0  0  0  0  0  0  0  0
    6.9820  -14.0817   25.7095 C   0  0  0  0  0  0  0  0  0  0  0  0
    8.3420  -14.5836   25.4162 C   0  0  2  0  0  0  0  0  0  0  0  0
    8.3165  -15.7909   24.5952 N   0  0  0  0  0  0  0  0  0  0  0  0
    9.1362  -14.8526   26.6165 C   0  0  0  0  0  0  0  0  0  0  0  0
    9.6416  -13.9567   27.2978 O   0  0  0  0  0  0  0  0  0  0  0  0
    9.3470  -16.1618   27.0307 O   0  0  0  0  0  0  0  0  0  0  0  0
  2  1  1  1
  3  2  1  0
  4  3  1  0
  5 11  1  0
  5  2  1  0
  6  5  2  0
  8 10  1  0
  8  7  1  6
  9  8  1  0
 10 11  1  6
 10 12  1  0
 12 19  1  0
 13 12  2  0
 15 14  1  6
 16 15  1  0
 17 15  1  0
 18 17  1  1
 19 18  1  0
 20 18  1  0
 20 22  1  0
 21 20  2  0
M  END
$$$$
