CTL.pdb
     RDKit          3D

 22 21  0  0  1  0  0  0  0  0999 V2000
   10.7285  -18.9195   19.5145 N   0  0  0  0  0  0  0  0  0  0  0  0
    9.7622  -18.7046   20.5689 C   0  0  1  0  0  0  0  0  0  0  0  0
   10.1896  -19.5596   21.7608 C   0  0  0  0  0  0  0  0  0  0  0  0
   11.5262  -20.6778   21.2802 S   0  0  0  0  0  0  0  0  0  0  0  0
    9.6860  -17.2828   20.9619 C   0  0  0  0  0  0  0  0  0  0  0  0
   10.7114  -16.5648   20.7526 O   0  0  0  0  0  0  0  0  0  0  0  0
    7.6299  -13.0495   21.4512 C   0  0  0  0  0  0  0  0  0  0  0  0
    7.5330  -14.5187   21.1109 C   0  0  1  0  0  0  0  0  0  0  0  0
    7.8078  -14.6523   19.7521 O   0  0  0  0  0  0  0  0  0  0  0  0
    8.4916  -15.3431   21.9521 C   0  0  2  0  0  0  0  0  0  0  0  0
    8.5194  -16.7157   21.5541 N   0  0  0  0  0  0  0  0  0  0  0  0
    8.1442  -15.2309   23.3978 C   0  0  0  0  0  0  0  0  0  0  0  0
    7.0959  -15.7874   23.8132 O   0  0  0  0  0  0  0  0  0  0  0  0
    7.8633  -11.8107   26.6480 C   0  0  0  0  0  0  0  0  0  0  0  0
    6.9462  -12.6614   25.7698 C   0  0  2  0  0  0  0  0  0  0  0  0
    5.5426  -12.2211   26.0122 C   0  0  0  0  0  0  0  0  0  0  0  0
    7.1916  -14.1219   25.9877 C   0  0  0  0  0  0  0  0  0  0  0  0
    8.6047  -14.4888   25.7513 C   0  0  2  0  0  0  0  0  0  0  0  0
    8.9300  -14.5323   24.3283 N   0  0  0  0  0  0  0  0  0  0  0  0
    8.9848  -15.7671   26.3556 C   0  0  0  0  0  0  0  0  0  0  0  0
    8.8912  -15.9878   27.5659 O   0  0  0  0  0  0  0  0  0  0  0  0
    9.4747  -16.7939   25.5583 O   0  0  0  0  0  0  0  0  0  0  0  0
  2  1  1  6
  3  2  1  0
  4  3  1  0
  5 11  1  0
  5  2  1  0
  6  5  2  0
  8 10  1  0
  8  7  1  1
  9  8  1  0
 10 11  1  6
 10 12  1  0
 12 19  1  0
 13 12  2  0
 15 14  1  1
 16 15  1  0
 17 15  1  0
 18 17  1  6
 19 18  1  0
 20 18  1  0
 20 22  1  0
 21 20  2  0
M  END
$$$$
