CTL.pdb
     RDKit          3D

 22 21  0  0  1  0  0  0  0  0999 V2000
    8.5420  -15.1125   17.3696 N   0  0  0  0  0  0  0  0  0  0  0  0
    8.7996  -14.4331   18.6201 C   0  0  1  0  0  0  0  0  0  0  0  0
    8.2582  -13.0106   18.4865 C   0  0  0  0  0  0  0  0  0  0  0  0
    8.5888  -12.0719   19.9956 S   0  0  0  0  0  0  0  0  0  0  0  0
    8.1568  -15.1188   19.7596 C   0  0  0  0  0  0  0  0  0  0  0  0
    7.2351  -15.9501   19.4945 O   0  0  0  0  0  0  0  0  0  0  0  0
    7.9618  -17.7024   20.6425 C   0  0  0  0  0  0  0  0  0  0  0  0
    8.4884  -17.1724   21.9561 C   0  0  1  0  0  0  0  0  0  0  0  0
    9.8738  -17.3141   21.9390 O   0  0  0  0  0  0  0  0  0  0  0  0
    8.0837  -15.7241   22.1674 C   0  0  2  0  0  0  0  0  0  0  0  0
    8.5382  -14.8745   21.1116 N   0  0  0  0  0  0  0  0  0  0  0  0
    8.5858  -15.2297   23.4815 C   0  0  0  0  0  0  0  0  0  0  0  0
    9.8043  -14.9401   23.5935 O   0  0  0  0  0  0  0  0  0  0  0  0
    5.5153  -12.1773   26.8526 C   0  0  0  0  0  0  0  0  0  0  0  0
    6.9269  -12.5748   26.4221 C   0  0  2  0  0  0  0  0  0  0  0  0
    7.0891  -12.2048   24.9871 C   0  0  0  0  0  0  0  0  0  0  0  0
    7.2021  -14.0128   26.7339 C   0  0  0  0  0  0  0  0  0  0  0  0
    8.2766  -14.5695   25.8836 C   0  0  2  0  0  0  0  0  0  0  0  0
    7.7658  -15.0683   24.6098 N   0  0  0  0  0  0  0  0  0  0  0  0
    9.0384  -15.6390   26.5314 C   0  0  0  0  0  0  0  0  0  0  0  0
    9.8187  -15.4324   27.4645 O   0  0  0  0  0  0  0  0  0  0  0  0
    8.8978  -16.9517   26.0991 O   0  0  0  0  0  0  0  0  0  0  0  0
  2  1  1  6
  3  2  1  0
  4  3  1  0
  5 11  1  0
  5  2  1  0
  6  5  2  0
  8 10  1  0
  8  7  1  6
  9  8  1  0
 10 11  1  6
 10 12  1  0
 12 19  1  0
 13 12  2  0
 15 14  1  6
 16 15  1  0
 17 15  1  0
 18 17  1  1
 19 18  1  0
 20 18  1  0
 20 22  1  0
 21 20  2  0
M  END
$$$$
