CTL.pdb
     RDKit          3D

 22 21  0  0  1  0  0  0  0  0999 V2000
   12.6325  -15.4989   18.0750 N   0  0  0  0  0  0  0  0  0  0  0  0
   13.0382  -15.5298   19.4629 C   0  0  1  0  0  0  0  0  0  0  0  0
   13.8878  -14.2858   19.7177 C   0  0  0  0  0  0  0  0  0  0  0  0
   15.5698  -14.5420   19.1068 S   0  0  0  0  0  0  0  0  0  0  0  0
   11.8757  -15.5493   20.3740 C   0  0  0  0  0  0  0  0  0  0  0  0
   10.9572  -14.6989   20.1646 O   0  0  0  0  0  0  0  0  0  0  0  0
    9.2649  -17.9420   20.8483 C   0  0  0  0  0  0  0  0  0  0  0  0
    9.8199  -17.7368   22.2389 C   0  0  1  0  0  0  0  0  0  0  0  0
   10.5953  -18.8516   22.5484 O   0  0  0  0  0  0  0  0  0  0  0  0
   10.6333  -16.4572   22.3238 C   0  0  2  0  0  0  0  0  0  0  0  0
   11.7661  -16.4759   21.4522 N   0  0  0  0  0  0  0  0  0  0  0  0
   11.0658  -16.2075   23.7287 C   0  0  0  0  0  0  0  0  0  0  0  0
   12.2735  -16.3850   24.0306 O   0  0  0  0  0  0  0  0  0  0  0  0
   10.0186  -15.2690   29.0204 C   0  0  0  0  0  0  0  0  0  0  0  0
   10.3431  -14.0877   28.1064 C   0  0  2  0  0  0  0  0  0  0  0  0
    9.7558  -12.8613   28.7175 C   0  0  0  0  0  0  0  0  0  0  0  0
    9.9081  -14.3574   26.6997 C   0  0  0  0  0  0  0  0  0  0  0  0
   10.6475  -15.4875   26.0969 C   0  0  2  0  0  0  0  0  0  0  0  0
   10.1913  -15.7814   24.7412 N   0  0  0  0  0  0  0  0  0  0  0  0
   10.5801  -16.7175   26.8884 C   0  0  0  0  0  0  0  0  0  0  0  0
    9.6081  -17.4769   26.8611 O   0  0  0  0  0  0  0  0  0  0  0  0
   11.6398  -17.0708   27.7142 O   0  0  0  0  0  0  0  0  0  0  0  0
  2  1  1  6
  3  2  1  0
  4  3  1  0
  5 11  1  0
  5  2  1  0
  6  5  2  0
  8 10  1  0
  8  7  1  6
  9  8  1  0
 10 11  1  6
 10 12  1  0
 12 19  1  0
 13 12  2  0
 15 14  1  1
 16 15  1  0
 17 15  1  0
 18 17  1  1
 19 18  1  0
 20 18  1  0
 20 22  1  0
 21 20  2  0
M  END
$$$$
