CTL.pdb
     RDKit          3D

 22 21  0  0  1  0  0  0  0  0999 V2000
    8.1594  -14.9984   17.1959 N   0  0  0  0  0  0  0  0  0  0  0  0
    8.6376  -14.3826   18.4140 C   0  0  1  0  0  0  0  0  0  0  0  0
    8.1436  -12.9368   18.4189 C   0  0  0  0  0  0  0  0  0  0  0  0
    8.9384  -12.0095   19.7516 S   0  0  0  0  0  0  0  0  0  0  0  0
    8.1516  -15.0921   19.6149 C   0  0  0  0  0  0  0  0  0  0  0  0
    7.2089  -15.9270   19.4566 O   0  0  0  0  0  0  0  0  0  0  0  0
    8.1124  -17.6080   20.3365 C   0  0  0  0  0  0  0  0  0  0  0  0
    8.7514  -17.2019   21.6443 C   0  0  1  0  0  0  0  0  0  0  0  0
   10.1247  -17.3951   21.5166 O   0  0  0  0  0  0  0  0  0  0  0  0
    8.4262  -15.7597   21.9915 C   0  0  2  0  0  0  0  0  0  0  0  0
    8.7024  -14.8662   20.9106 N   0  0  0  0  0  0  0  0  0  0  0  0
    9.1692  -15.3382   23.2136 C   0  0  0  0  0  0  0  0  0  0  0  0
   10.0482  -14.4450   23.1094 O   0  0  0  0  0  0  0  0  0  0  0  0
    5.5491  -13.0480   26.5992 C   0  0  0  0  0  0  0  0  0  0  0  0
    6.9954  -13.5336   26.6917 C   0  0  2  0  0  0  0  0  0  0  0  0
    7.8499  -12.3629   27.0406 C   0  0  0  0  0  0  0  0  0  0  0  0
    7.4026  -14.2585   25.4470 C   0  0  0  0  0  0  0  0  0  0  0  0
    8.6260  -15.0648   25.6491 C   0  0  2  0  0  0  0  0  0  0  0  0
    8.9393  -15.8884   24.4848 N   0  0  0  0  0  0  0  0  0  0  0  0
    8.5667  -15.9292   26.8294 C   0  0  0  0  0  0  0  0  0  0  0  0
    9.0704  -15.6175   27.9116 O   0  0  0  0  0  0  0  0  0  0  0  0
    7.9229  -17.1583   26.7584 O   0  0  0  0  0  0  0  0  0  0  0  0
  2  1  1  6
  3  2  1  0
  4  3  1  0
  5 11  1  0
  5  2  1  0
  6  5  2  0
  8 10  1  0
  8  7  1  6
  9  8  1  0
 10 11  1  6
 10 12  1  0
 12 19  1  0
 13 12  2  0
 15 14  1  6
 16 15  1  0
 17 15  1  0
 18 17  1  6
 19 18  1  0
 20 18  1  0
 20 22  1  0
 21 20  2  0
M  END
$$$$
