KKR.pdb
     RDKit          3D

 30 29  0  0  1  0  0  0  0  0999 V2000
   18.9548  -33.3591   -8.8182 N   0  0  0  0  0  0  0  0  0  0  0  0
   19.6567  -32.3075   -8.1642 C   0  0  1  0  0  0  0  0  0  0  0  0
   20.2912  -31.4320   -9.2233 C   0  0  0  0  0  0  0  0  0  0  0  0
   21.5886  -32.1294   -9.6164 C   0  0  0  0  0  0  0  0  0  0  0  0
   22.6134  -32.1286   -8.5245 C   0  0  0  0  0  0  0  0  0  0  0  0
   23.8622  -32.8541   -8.9434 C   0  0  0  0  0  0  0  0  0  0  0  0
   25.0203  -32.0909   -8.5066 N   0  0  0  0  0  0  0  0  0  0  0  0
   18.7076  -31.5265   -7.3177 C   0  0  0  0  0  0  0  0  0  0  0  0
   17.7599  -30.8811   -7.8359 O   0  0  0  0  0  0  0  0  0  0  0  0
   18.8730  -31.5113   -5.9287 N   0  0  0  0  0  0  0  0  0  0  0  0
   18.1992  -30.6992   -4.9517 C   0  0  1  0  0  0  0  0  0  0  0  0
   18.0523  -31.3183   -3.5764 C   0  0  0  0  0  0  0  0  0  0  0  0
   17.3439  -30.3991   -2.6150 C   0  0  0  0  0  0  0  0  0  0  0  0
   17.2880  -30.9627   -1.2195 C   0  0  0  0  0  0  0  0  0  0  0  0
   16.6110  -30.0541   -0.2486 C   0  0  0  0  0  0  0  0  0  0  0  0
   16.6725  -30.6428    1.0948 N   0  0  0  0  0  0  0  0  0  0  0  0
   18.6023  -29.2995   -4.9561 C   0  0  0  0  0  0  0  0  0  0  0  0
   19.7272  -28.9226   -4.4825 O   0  0  0  0  0  0  0  0  0  0  0  0
   19.7440  -24.1864  -10.1789 N   0  0  0  0  0  0  0  0  0  0  0  0
   18.3488  -23.9883  -10.1425 C   0  0  0  0  0  0  0  0  0  0  0  0
   17.7434  -23.6689  -11.2297 N   0  0  0  0  0  0  0  0  0  0  0  0
   17.6544  -24.1471   -8.9044 N   0  0  0  0  0  0  0  0  0  0  0  0
   18.4359  -24.6542   -7.7979 C   0  0  0  0  0  0  0  0  0  0  0  0
   17.6327  -24.6673   -6.4961 C   0  0  0  0  0  0  0  0  0  0  0  0
   17.1545  -26.0722   -6.2716 C   0  0  0  0  0  0  0  0  0  0  0  0
   18.1936  -26.8811   -5.5779 C   0  0  2  0  0  0  0  0  0  0  0  0
   17.7883  -28.2865   -5.4755 N   0  0  0  0  0  0  0  0  0  0  0  0
   18.3753  -26.4108   -4.1888 C   0  0  0  0  0  0  0  0  0  0  0  0
   17.4992  -26.4887   -3.2898 O   0  0  0  0  0  0  0  0  0  0  0  0
   19.5915  -25.8212   -3.7663 O   0  0  0  0  0  0  0  0  0  0  0  0
  2  1  1  6
  2  3  1  0
  3  4  1  0
  4  5  1  0
  5  6  1  0
  6  7  1  0
  8  9  2  0
  8  2  1  0
 10  8  1  0
 11 10  1  0
 11 17  1  0
 11 12  1  1
 13 14  1  0
 13 12  1  0
 15 16  1  0
 15 14  1  0
 17 18  2  0
 19 20  1  0
 20 21  2  0
 20 22  1  0
 22 23  1  0
 24 23  1  0
 24 25  1  0
 26 25  1  1
 27 17  1  0
 27 26  1  0
 28 30  1  0
 28 26  1  0
 29 28  2  0
M  END
$$$$
