KKR.pdb
     RDKit          3D

 30 29  0  0  1  0  0  0  0  0999 V2000
   22.6168  -15.2222  -19.6631 N   0  0  0  0  0  0  0  0  0  0  0  0
   22.3221  -15.3448  -18.2759 C   0  0  1  0  0  0  0  0  0  0  0  0
   20.8804  -14.9375  -18.0606 C   0  0  0  0  0  0  0  0  0  0  0  0
   20.8534  -13.4190  -18.1936 C   0  0  0  0  0  0  0  0  0  0  0  0
   21.1824  -12.7088  -16.9169 C   0  0  0  0  0  0  0  0  0  0  0  0
   21.0287  -11.2200  -17.0618 C   0  0  0  0  0  0  0  0  0  0  0  0
   21.2412  -10.5954  -15.7660 N   0  0  0  0  0  0  0  0  0  0  0  0
   22.5545  -16.7532  -17.8402 C   0  0  0  0  0  0  0  0  0  0  0  0
   21.7623  -17.6722  -18.1737 O   0  0  0  0  0  0  0  0  0  0  0  0
   23.6684  -17.0569  -17.0503 N   0  0  0  0  0  0  0  0  0  0  0  0
   24.0440  -18.3192  -16.4728 C   0  0  1  0  0  0  0  0  0  0  0  0
   25.5198  -18.4871  -16.1722 C   0  0  0  0  0  0  0  0  0  0  0  0
   25.8407  -19.8708  -15.6691 C   0  0  0  0  0  0  0  0  0  0  0  0
   27.3179  -20.0755  -15.4587 C   0  0  0  0  0  0  0  0  0  0  0  0
   27.6555  -21.4470  -14.9775 C   0  0  0  0  0  0  0  0  0  0  0  0
   29.1067  -21.5519  -14.7824 N   0  0  0  0  0  0  0  0  0  0  0  0
   23.1460  -18.7901  -15.4271 C   0  0  0  0  0  0  0  0  0  0  0  0
   22.9113  -18.0966  -14.3802 O   0  0  0  0  0  0  0  0  0  0  0  0
   15.7153  -22.9280  -15.9463 N   0  0  0  0  0  0  0  0  0  0  0  0
   15.8188  -22.8742  -14.5416 C   0  0  0  0  0  0  0  0  0  0  0  0
   14.7941  -23.1939  -13.8356 N   0  0  0  0  0  0  0  0  0  0  0  0
   17.0530  -22.4675  -13.9487 N   0  0  0  0  0  0  0  0  0  0  0  0
   18.0853  -22.0336  -14.8644 C   0  0  0  0  0  0  0  0  0  0  0  0
   19.3270  -21.5348  -14.1231 C   0  0  0  0  0  0  0  0  0  0  0  0
   20.2985  -21.0327  -15.1511 C   0  0  0  0  0  0  0  0  0  0  0  0
   21.5292  -20.5030  -14.5029 C   0  0  2  0  0  0  0  0  0  0  0  0
   22.4884  -20.0231  -15.5026 N   0  0  0  0  0  0  0  0  0  0  0  0
   22.2241  -21.5729  -13.7571 C   0  0  0  0  0  0  0  0  0  0  0  0
   23.1317  -22.3007  -14.2350 O   0  0  0  0  0  0  0  0  0  0  0  0
   21.9007  -21.8567  -12.4080 O   0  0  0  0  0  0  0  0  0  0  0  0
  2  1  1  6
  2  3  1  0
  3  4  1  0
  4  5  1  0
  5  6  1  0
  6  7  1  0
  8  9  2  0
  8  2  1  0
 10  8  1  0
 11 10  1  0
 11 17  1  0
 11 12  1  1
 13 14  1  0
 13 12  1  0
 15 16  1  0
 15 14  1  0
 17 18  2  0
 19 20  1  0
 20 21  2  0
 20 22  1  0
 22 23  1  0
 24 23  1  0
 24 25  1  0
 26 25  1  6
 27 17  1  0
 27 26  1  0
 28 30  1  0
 28 26  1  0
 29 28  2  0
M  END
$$$$
