KKR.pdb
     RDKit          3D

 30 29  0  0  1  0  0  0  0  0999 V2000
   10.9975  -27.6376  -10.9343 N   0  0  0  0  0  0  0  0  0  0  0  0
   11.9450  -26.9833  -10.0974 C   0  0  1  0  0  0  0  0  0  0  0  0
   12.9081  -28.0244   -9.5690 C   0  0  0  0  0  0  0  0  0  0  0  0
   12.0905  -28.9122   -8.6376 C   0  0  0  0  0  0  0  0  0  0  0  0
   12.9125  -29.9524   -7.9414 C   0  0  0  0  0  0  0  0  0  0  0  0
   12.0529  -30.8685   -7.1148 C   0  0  0  0  0  0  0  0  0  0  0  0
   12.9088  -31.8055   -6.4049 N   0  0  0  0  0  0  0  0  0  0  0  0
   12.6620  -25.9353  -10.8816 C   0  0  0  0  0  0  0  0  0  0  0  0
   12.9870  -26.1344  -12.0809 O   0  0  0  0  0  0  0  0  0  0  0  0
   12.9774  -24.7143  -10.2762 N   0  0  0  0  0  0  0  0  0  0  0  0
   13.6714  -23.5859  -10.8355 C   0  0  1  0  0  0  0  0  0  0  0  0
   13.0745  -22.2293  -10.5197 C   0  0  0  0  0  0  0  0  0  0  0  0
   11.5923  -22.1871  -10.7885 C   0  0  0  0  0  0  0  0  0  0  0  0
   10.9867  -20.8503  -10.4502 C   0  0  0  0  0  0  0  0  0  0  0  0
    9.5080  -20.8118  -10.6461 C   0  0  0  0  0  0  0  0  0  0  0  0
    8.9988  -19.4909  -10.2573 N   0  0  0  0  0  0  0  0  0  0  0  0
   15.1220  -23.6603  -10.7250 C   0  0  0  0  0  0  0  0  0  0  0  0
   15.6919  -24.2527   -9.7472 O   0  0  0  0  0  0  0  0  0  0  0  0
   21.6165  -27.6720  -11.0415 N   0  0  0  0  0  0  0  0  0  0  0  0
   21.3846  -26.8406  -12.1560 C   0  0  0  0  0  0  0  0  0  0  0  0
   22.3158  -26.7099  -13.0314 N   0  0  0  0  0  0  0  0  0  0  0  0
   20.1283  -26.1718  -12.2773 N   0  0  0  0  0  0  0  0  0  0  0  0
   19.1607  -26.4436  -11.2371 C   0  0  0  0  0  0  0  0  0  0  0  0
   17.8162  -25.7730  -11.5248 C   0  0  0  0  0  0  0  0  0  0  0  0
   17.8077  -24.4500  -10.8160 C   0  0  0  0  0  0  0  0  0  0  0  0
   17.4175  -23.3540  -11.7442 C   0  0  2  0  0  0  0  0  0  0  0  0
   15.9765  -23.0915  -11.6761 N   0  0  0  0  0  0  0  0  0  0  0  0
   17.6925  -23.7378  -13.1446 C   0  0  0  0  0  0  0  0  0  0  0  0
   18.8421  -23.8202  -13.6482 O   0  0  0  0  0  0  0  0  0  0  0  0
   16.6411  -24.0485  -14.0409 O   0  0  0  0  0  0  0  0  0  0  0  0
  2  1  1  6
  2  3  1  0
  3  4  1  0
  4  5  1  0
  5  6  1  0
  6  7  1  0
  8  9  2  0
  8  2  1  0
 10  8  1  0
 11 10  1  0
 11 17  1  0
 11 12  1  1
 13 14  1  0
 13 12  1  0
 15 16  1  0
 15 14  1  0
 17 18  2  0
 19 20  1  0
 20 21  2  0
 20 22  1  0
 22 23  1  0
 24 23  1  0
 24 25  1  0
 26 25  1  1
 27 17  1  0
 27 26  1  0
 28 30  1  0
 28 26  1  0
 29 28  2  0
M  END
$$$$
