KKR.pdb
     RDKit          3D

 30 29  0  0  1  0  0  0  0  0999 V2000
   22.6677  -28.8823  -17.1991 N   0  0  0  0  0  0  0  0  0  0  0  0
   23.5036  -28.3945  -16.1553 C   0  0  1  0  0  0  0  0  0  0  0  0
   24.9366  -28.4295  -16.6413 C   0  0  0  0  0  0  0  0  0  0  0  0
   25.3897  -29.8777  -16.4950 C   0  0  0  0  0  0  0  0  0  0  0  0
   26.8351  -30.0806  -16.8302 C   0  0  0  0  0  0  0  0  0  0  0  0
   27.2005  -31.5393  -16.8231 C   0  0  0  0  0  0  0  0  0  0  0  0
   28.5489  -31.6904  -17.3460 N   0  0  0  0  0  0  0  0  0  0  0  0
   23.0911  -27.0063  -15.7947 C   0  0  0  0  0  0  0  0  0  0  0  0
   23.7674  -26.0131  -16.1684 O   0  0  0  0  0  0  0  0  0  0  0  0
   21.9365  -26.8053  -15.0309 N   0  0  0  0  0  0  0  0  0  0  0  0
   21.3218  -25.5656  -14.6393 C   0  0  1  0  0  0  0  0  0  0  0  0
   21.2189  -24.5150  -15.7265 C   0  0  0  0  0  0  0  0  0  0  0  0
   20.5608  -23.2525  -15.2326 C   0  0  0  0  0  0  0  0  0  0  0  0
   20.4318  -22.2128  -16.3146 C   0  0  0  0  0  0  0  0  0  0  0  0
   19.8408  -20.9322  -15.8274 C   0  0  0  0  0  0  0  0  0  0  0  0
   18.5177  -20.7435  -16.4349 N   0  0  0  0  0  0  0  0  0  0  0  0
   20.1274  -25.7221  -13.8204 C   0  0  0  0  0  0  0  0  0  0  0  0
   19.0047  -26.0603  -14.3271 O   0  0  0  0  0  0  0  0  0  0  0  0
   17.5903  -24.3688   -6.5207 N   0  0  0  0  0  0  0  0  0  0  0  0
   17.0867  -25.6657   -6.2943 C   0  0  0  0  0  0  0  0  0  0  0  0
   16.0573  -25.8035   -5.5380 N   0  0  0  0  0  0  0  0  0  0  0  0
   17.7330  -26.7815   -6.9087 N   0  0  0  0  0  0  0  0  0  0  0  0
   18.7938  -26.4674   -7.8406 C   0  0  0  0  0  0  0  0  0  0  0  0
   18.2552  -26.2277   -9.2522 C   0  0  0  0  0  0  0  0  0  0  0  0
   19.4297  -25.9553  -10.1461 C   0  0  0  0  0  0  0  0  0  0  0  0
   18.9931  -25.7927  -11.5597 C   0  0  2  0  0  0  0  0  0  0  0  0
   20.1345  -25.5131  -12.4366 N   0  0  0  0  0  0  0  0  0  0  0  0
   18.0877  -24.6323  -11.6927 C   0  0  0  0  0  0  0  0  0  0  0  0
   18.4673  -23.4342  -11.7405 O   0  0  0  0  0  0  0  0  0  0  0  0
   16.6844  -24.8018  -11.7778 O   0  0  0  0  0  0  0  0  0  0  0  0
  2  1  1  6
  2  3  1  0
  3  4  1  0
  4  5  1  0
  5  6  1  0
  6  7  1  0
  8  9  2  0
  8  2  1  0
 10  8  1  0
 11 10  1  0
 11 17  1  0
 11 12  1  6
 13 14  1  0
 13 12  1  0
 15 16  1  0
 15 14  1  0
 17 18  2  0
 19 20  1  0
 20 21  2  0
 20 22  1  0
 22 23  1  0
 24 23  1  0
 24 25  1  0
 26 25  1  1
 27 17  1  0
 27 26  1  0
 28 30  1  0
 28 26  1  0
 29 28  2  0
M  END
$$$$
