KKR.pdb
     RDKit          3D

 30 29  0  0  1  0  0  0  0  0999 V2000
   13.8908  -13.9806  -16.0365 N   0  0  0  0  0  0  0  0  0  0  0  0
   15.0133  -13.3610  -16.6549 C   0  0  1  0  0  0  0  0  0  0  0  0
   14.9705  -13.6738  -18.1351 C   0  0  0  0  0  0  0  0  0  0  0  0
   14.7870  -15.1839  -18.2356 C   0  0  0  0  0  0  0  0  0  0  0  0
   13.4741  -15.5802  -18.8371 C   0  0  0  0  0  0  0  0  0  0  0  0
   13.3767  -17.0710  -19.0084 C   0  0  0  0  0  0  0  0  0  0  0  0
   12.0640  -17.4000  -19.5404 N   0  0  0  0  0  0  0  0  0  0  0  0
   14.9648  -11.8890  -16.4140 C   0  0  0  0  0  0  0  0  0  0  0  0
   15.8118  -11.1198  -16.9378 O   0  0  0  0  0  0  0  0  0  0  0  0
   13.9640  -11.3558  -15.5948 N   0  0  0  0  0  0  0  0  0  0  0  0
   13.7326   -9.9827  -15.2356 C   0  0  1  0  0  0  0  0  0  0  0  0
   12.3644   -9.6798  -14.6588 C   0  0  0  0  0  0  0  0  0  0  0  0
   11.4495   -9.0469  -15.6753 C   0  0  0  0  0  0  0  0  0  0  0  0
   10.0550   -8.8449  -15.1436 C   0  0  0  0  0  0  0  0  0  0  0  0
    9.1423   -8.1937  -16.1283 C   0  0  0  0  0  0  0  0  0  0  0  0
    7.8211   -8.0039  -15.5172 N   0  0  0  0  0  0  0  0  0  0  0  0
   14.8462   -9.3494  -14.5423 C   0  0  0  0  0  0  0  0  0  0  0  0
   15.3713   -9.8682  -13.4998 O   0  0  0  0  0  0  0  0  0  0  0  0
   22.8015   -9.7598  -14.8600 N   0  0  0  0  0  0  0  0  0  0  0  0
   22.5895   -8.8691  -13.7883 C   0  0  0  0  0  0  0  0  0  0  0  0
   23.4342   -8.8578  -12.8203 N   0  0  0  0  0  0  0  0  0  0  0  0
   21.4476   -8.0113  -13.8105 N   0  0  0  0  0  0  0  0  0  0  0  0
   20.1999   -8.6242  -14.2100 C   0  0  0  0  0  0  0  0  0  0  0  0
   19.0192   -7.6658  -14.0440 C   0  0  0  0  0  0  0  0  0  0  0  0
   17.7794   -8.3936  -14.4752 C   0  0  0  0  0  0  0  0  0  0  0  0
   16.5819   -7.5180  -14.3544 C   0  0  2  0  0  0  0  0  0  0  0  0
   15.4070   -8.1412  -14.9716 N   0  0  0  0  0  0  0  0  0  0  0  0
   16.7931   -6.2476  -15.0793 C   0  0  0  0  0  0  0  0  0  0  0  0
   16.1487   -5.8939  -16.0998 O   0  0  0  0  0  0  0  0  0  0  0  0
   17.7697   -5.3139  -14.6554 O   0  0  0  0  0  0  0  0  0  0  0  0
  2  1  1  1
  2  3  1  0
  3  4  1  0
  4  5  1  0
  5  6  1  0
  6  7  1  0
  8  9  2  0
  8  2  1  0
 10  8  1  0
 11 10  1  0
 11 17  1  0
 11 12  1  1
 13 14  1  0
 13 12  1  0
 15 16  1  0
 15 14  1  0
 17 18  2  0
 19 20  1  0
 20 21  2  0
 20 22  1  0
 22 23  1  0
 24 23  1  0
 24 25  1  0
 26 25  1  6
 27 17  1  0
 27 26  1  0
 28 30  1  0
 28 26  1  0
 29 28  2  0
M  END
$$$$
