KKR.pdb
     RDKit          3D

 30 29  0  0  1  0  0  0  0  0999 V2000
   28.8792  -21.0353  -13.6635 N   0  0  0  0  0  0  0  0  0  0  0  0
   27.8996  -20.9472  -12.6345 C   0  0  1  0  0  0  0  0  0  0  0  0
   28.6144  -20.7319  -11.3179 C   0  0  0  0  0  0  0  0  0  0  0  0
   29.8474  -21.6272  -11.3632 C   0  0  0  0  0  0  0  0  0  0  0  0
   30.7477  -21.4523  -10.1793 C   0  0  0  0  0  0  0  0  0  0  0  0
   31.9734  -22.3164  -10.2896 C   0  0  0  0  0  0  0  0  0  0  0  0
   32.8513  -22.0356   -9.1649 N   0  0  0  0  0  0  0  0  0  0  0  0
   26.9661  -19.8211  -12.9309 C   0  0  0  0  0  0  0  0  0  0  0  0
   25.9830  -19.5822  -12.1827 O   0  0  0  0  0  0  0  0  0  0  0  0
   27.1864  -19.0193  -14.0558 N   0  0  0  0  0  0  0  0  0  0  0  0
   26.3147  -18.0401  -14.6468 C   0  0  1  0  0  0  0  0  0  0  0  0
   27.0059  -16.8873  -15.3467 C   0  0  0  0  0  0  0  0  0  0  0  0
   27.5128  -17.2763  -16.7115 C   0  0  0  0  0  0  0  0  0  0  0  0
   28.1495  -16.1202  -17.4369 C   0  0  0  0  0  0  0  0  0  0  0  0
   28.6382  -16.4825  -18.7994 C   0  0  0  0  0  0  0  0  0  0  0  0
   29.3446  -15.3366  -19.3848 N   0  0  0  0  0  0  0  0  0  0  0  0
   25.1802  -18.6044  -15.3652 C   0  0  0  0  0  0  0  0  0  0  0  0
   25.2975  -19.6468  -16.0942 O   0  0  0  0  0  0  0  0  0  0  0  0
   18.7624  -21.3604  -13.2196 N   0  0  0  0  0  0  0  0  0  0  0  0
   19.5238  -22.5260  -12.9989 C   0  0  0  0  0  0  0  0  0  0  0  0
   18.9802  -23.6684  -13.2222 N   0  0  0  0  0  0  0  0  0  0  0  0
   20.8693  -22.4022  -12.5355 N   0  0  0  0  0  0  0  0  0  0  0  0
   21.3747  -21.0533  -12.4044 C   0  0  0  0  0  0  0  0  0  0  0  0
   21.3242  -20.2978  -13.7336 C   0  0  0  0  0  0  0  0  0  0  0  0
   22.6327  -19.5812  -13.8986 C   0  0  0  0  0  0  0  0  0  0  0  0
   22.6666  -18.8288  -15.1823 C   0  0  2  0  0  0  0  0  0  0  0  0
   23.8993  -18.0441  -15.3028 N   0  0  0  0  0  0  0  0  0  0  0  0
   21.5588  -17.8524  -15.2406 C   0  0  0  0  0  0  0  0  0  0  0  0
   20.3388  -18.1582  -15.2431 O   0  0  0  0  0  0  0  0  0  0  0  0
   21.8096  -16.4599  -15.2992 O   0  0  0  0  0  0  0  0  0  0  0  0
  2  1  1  6
  2  3  1  0
  3  4  1  0
  4  5  1  0
  5  6  1  0
  6  7  1  0
  8  9  2  0
  8  2  1  0
 10  8  1  0
 11 10  1  0
 11 17  1  0
 11 12  1  6
 13 14  1  0
 13 12  1  0
 15 16  1  0
 15 14  1  0
 17 18  2  0
 19 20  1  0
 20 21  2  0
 20 22  1  0
 22 23  1  0
 24 23  1  0
 24 25  1  0
 26 25  1  1
 27 17  1  0
 27 26  1  0
 28 30  1  0
 28 26  1  0
 29 28  2  0
M  END
$$$$
