KKR.pdb
     RDKit          3D

 30 29  0  0  1  0  0  0  0  0999 V2000
   23.7694  -18.8985  -17.3872 N   0  0  0  0  0  0  0  0  0  0  0  0
   23.9603  -20.2970  -17.5723 C   0  0  1  0  0  0  0  0  0  0  0  0
   25.4284  -20.5418  -17.8467 C   0  0  0  0  0  0  0  0  0  0  0  0
   25.5710  -20.5542  -19.3645 C   0  0  0  0  0  0  0  0  0  0  0  0
   26.3066  -19.3638  -19.8979 C   0  0  0  0  0  0  0  0  0  0  0  0
   26.3872  -19.3960  -21.3991 C   0  0  0  0  0  0  0  0  0  0  0  0
   27.0431  -18.1838  -21.8625 N   0  0  0  0  0  0  0  0  0  0  0  0
   23.5120  -21.0266  -16.3500 C   0  0  0  0  0  0  0  0  0  0  0  0
   23.7245  -22.2599  -16.2188 O   0  0  0  0  0  0  0  0  0  0  0  0
   22.8463  -20.3307  -15.3354 N   0  0  0  0  0  0  0  0  0  0  0  0
   22.4377  -20.8026  -14.0399 C   0  0  1  0  0  0  0  0  0  0  0  0
   23.3338  -20.4012  -12.8856 C   0  0  0  0  0  0  0  0  0  0  0  0
   22.8995  -21.0304  -11.5870 C   0  0  0  0  0  0  0  0  0  0  0  0
   23.6848  -20.5149  -10.4098 C   0  0  0  0  0  0  0  0  0  0  0  0
   23.2427  -21.1002   -9.1105 C   0  0  0  0  0  0  0  0  0  0  0  0
   24.0030  -20.4860   -8.0151 N   0  0  0  0  0  0  0  0  0  0  0  0
   21.0095  -20.6801  -13.7811 C   0  0  0  0  0  0  0  0  0  0  0  0
   20.3960  -19.5672  -13.9111 O   0  0  0  0  0  0  0  0  0  0  0  0
   20.5955  -26.3605  -13.6622 N   0  0  0  0  0  0  0  0  0  0  0  0
   19.5429  -26.9270  -14.4092 C   0  0  0  0  0  0  0  0  0  0  0  0
   19.8158  -27.8615  -15.2475 N   0  0  0  0  0  0  0  0  0  0  0  0
   18.2120  -26.4470  -14.2130 N   0  0  0  0  0  0  0  0  0  0  0  0
   18.0540  -25.3943  -13.2337 C   0  0  0  0  0  0  0  0  0  0  0  0
   18.4557  -24.0304  -13.7982 C   0  0  0  0  0  0  0  0  0  0  0  0
   18.2348  -23.0098  -12.7202 C   0  0  0  0  0  0  0  0  0  0  0  0
   18.7830  -21.6861  -13.1233 C   0  0  2  0  0  0  0  0  0  0  0  0
   20.2250  -21.7660  -13.3764 N   0  0  0  0  0  0  0  0  0  0  0  0
   18.6181  -20.7025  -12.0328 C   0  0  0  0  0  0  0  0  0  0  0  0
   19.3379  -20.6535  -11.0025 O   0  0  0  0  0  0  0  0  0  0  0  0
   17.6025  -19.7168  -12.0803 O   0  0  0  0  0  0  0  0  0  0  0  0
  2  1  1  1
  2  3  1  0
  3  4  1  0
  4  5  1  0
  5  6  1  0
  6  7  1  0
  8  9  2  0
  8  2  1  0
 10  8  1  0
 11 10  1  0
 11 17  1  0
 11 12  1  1
 13 14  1  0
 13 12  1  0
 15 16  1  0
 15 14  1  0
 17 18  2  0
 19 20  1  0
 20 21  2  0
 20 22  1  0
 22 23  1  0
 24 23  1  0
 24 25  1  0
 26 25  1  1
 27 17  1  0
 27 26  1  0
 28 30  1  0
 28 26  1  0
 29 28  2  0
M  END
$$$$
