KKR.pdb
     RDKit          3D

 30 29  0  0  1  0  0  0  0  0999 V2000
   17.2736  -23.7672   -8.0207 N   0  0  0  0  0  0  0  0  0  0  0  0
   18.0849  -24.6693   -8.7652 C   0  0  1  0  0  0  0  0  0  0  0  0
   17.3293  -25.9722   -8.9146 C   0  0  0  0  0  0  0  0  0  0  0  0
   17.8405  -26.8791   -7.8009 C   0  0  0  0  0  0  0  0  0  0  0  0
   17.3930  -26.4497   -6.4379 C   0  0  0  0  0  0  0  0  0  0  0  0
   17.8516  -27.4153   -5.3803 C   0  0  0  0  0  0  0  0  0  0  0  0
   17.6176  -26.8272   -4.0711 N   0  0  0  0  0  0  0  0  0  0  0  0
   18.3990  -24.0733  -10.0969 C   0  0  0  0  0  0  0  0  0  0  0  0
   19.2011  -24.6380  -10.8851 O   0  0  0  0  0  0  0  0  0  0  0  0
   17.7937  -22.8702  -10.4753 N   0  0  0  0  0  0  0  0  0  0  0  0
   17.8490  -22.1958  -11.7441 C   0  0  1  0  0  0  0  0  0  0  0  0
   16.5368  -21.6183  -12.2351 C   0  0  0  0  0  0  0  0  0  0  0  0
   16.6805  -20.9488  -13.5775 C   0  0  0  0  0  0  0  0  0  0  0  0
   15.3644  -20.4473  -14.1112 C   0  0  0  0  0  0  0  0  0  0  0  0
   15.4873  -19.7866  -15.4434 C   0  0  0  0  0  0  0  0  0  0  0  0
   14.1895  -19.2177  -15.8272 N   0  0  0  0  0  0  0  0  0  0  0  0
   19.0044  -21.3242  -11.9090 C   0  0  0  0  0  0  0  0  0  0  0  0
   19.3051  -20.4356  -11.0419 O   0  0  0  0  0  0  0  0  0  0  0  0
   26.3403  -22.9159  -16.0582 N   0  0  0  0  0  0  0  0  0  0  0  0
   25.3663  -23.5369  -15.2503 C   0  0  0  0  0  0  0  0  0  0  0  0
   25.3408  -24.8201  -15.1924 N   0  0  0  0  0  0  0  0  0  0  0  0
   24.4417  -22.7250  -14.5249 N   0  0  0  0  0  0  0  0  0  0  0  0
   24.3354  -21.3469  -14.9514 C   0  0  0  0  0  0  0  0  0  0  0  0
   23.3661  -20.5549  -14.0720 C   0  0  0  0  0  0  0  0  0  0  0  0
   22.0974  -21.3497  -13.9646 C   0  0  0  0  0  0  0  0  0  0  0  0
   21.0735  -20.6095  -13.1780 C   0  0  2  0  0  0  0  0  0  0  0  0
   19.8518  -21.4046  -13.0199 N   0  0  0  0  0  0  0  0  0  0  0  0
   20.6655  -19.3783  -13.8863 C   0  0  0  0  0  0  0  0  0  0  0  0
   19.6406  -19.2781  -14.6084 O   0  0  0  0  0  0  0  0  0  0  0  0
   21.4302  -18.1901  -13.7935 O   0  0  0  0  0  0  0  0  0  0  0  0
  2  1  1  1
  2  3  1  0
  3  4  1  0
  4  5  1  0
  5  6  1  0
  6  7  1  0
  8  9  2  0
  8  2  1  0
 10  8  1  0
 11 10  1  0
 11 17  1  0
 11 12  1  1
 13 14  1  0
 13 12  1  0
 15 16  1  0
 15 14  1  0
 17 18  2  0
 19 20  1  0
 20 21  2  0
 20 22  1  0
 22 23  1  0
 24 23  1  0
 24 25  1  0
 26 25  1  6
 27 17  1  0
 27 26  1  0
 28 30  1  0
 28 26  1  0
 29 28  2  0
M  END
$$$$
