KKR.pdb
     RDKit          3D

 30 29  0  0  1  0  0  0  0  0999 V2000
   22.1725  -29.3144  -11.5803 N   0  0  0  0  0  0  0  0  0  0  0  0
   20.7657  -29.1101  -11.5067 C   0  0  1  0  0  0  0  0  0  0  0  0
   20.1455  -30.3225  -10.8462 C   0  0  0  0  0  0  0  0  0  0  0  0
   20.1712  -31.4268  -11.8969 C   0  0  0  0  0  0  0  0  0  0  0  0
   21.1627  -32.5072  -11.5934 C   0  0  0  0  0  0  0  0  0  0  0  0
   20.4769  -33.7894  -11.2100 C   0  0  0  0  0  0  0  0  0  0  0  0
   21.4818  -34.8229  -11.0185 N   0  0  0  0  0  0  0  0  0  0  0  0
   20.4830  -27.8689  -10.7278 C   0  0  0  0  0  0  0  0  0  0  0  0
   21.3300  -27.4047   -9.9212 O   0  0  0  0  0  0  0  0  0  0  0  0
   19.2597  -27.2115  -10.8960 N   0  0  0  0  0  0  0  0  0  0  0  0
   18.8653  -25.9112  -10.4251 C   0  0  1  0  0  0  0  0  0  0  0  0
   18.6959  -24.8521  -11.4956 C   0  0  0  0  0  0  0  0  0  0  0  0
   18.3324  -23.5111  -10.9121 C   0  0  0  0  0  0  0  0  0  0  0  0
   18.2490  -22.4336  -11.9610 C   0  0  0  0  0  0  0  0  0  0  0  0
   17.7578  -21.1312  -11.4236 C   0  0  0  0  0  0  0  0  0  0  0  0
   17.5597  -20.1897  -12.5324 N   0  0  0  0  0  0  0  0  0  0  0  0
   17.8198  -25.9334   -9.4111 C   0  0  0  0  0  0  0  0  0  0  0  0
   16.6180  -26.2626   -9.6921 O   0  0  0  0  0  0  0  0  0  0  0  0
   18.4089  -26.7402   -0.8971 N   0  0  0  0  0  0  0  0  0  0  0  0
   18.7082  -27.4840   -2.0565 C   0  0  0  0  0  0  0  0  0  0  0  0
   19.4787  -28.5066   -1.9505 N   0  0  0  0  0  0  0  0  0  0  0  0
   18.1493  -27.0800   -3.3073 N   0  0  0  0  0  0  0  0  0  0  0  0
   17.2718  -25.9308   -3.2698 C   0  0  0  0  0  0  0  0  0  0  0  0
   16.5802  -25.7019   -4.6149 C   0  0  0  0  0  0  0  0  0  0  0  0
   17.6403  -25.7080   -5.6775 C   0  0  0  0  0  0  0  0  0  0  0  0
   17.0343  -25.5849   -7.0313 C   0  0  2  0  0  0  0  0  0  0  0  0
   18.0643  -25.5978   -8.0747 N   0  0  0  0  0  0  0  0  0  0  0  0
   16.3344  -24.2908   -7.1705 C   0  0  0  0  0  0  0  0  0  0  0  0
   15.1118  -24.1130   -6.9347 O   0  0  0  0  0  0  0  0  0  0  0  0
   17.0206  -23.1265   -7.5934 O   0  0  0  0  0  0  0  0  0  0  0  0
  2  1  1  1
  2  3  1  0
  3  4  1  0
  4  5  1  0
  5  6  1  0
  6  7  1  0
  8  9  2  0
  8  2  1  0
 10  8  1  0
 11 10  1  0
 11 17  1  0
 11 12  1  6
 13 14  1  0
 13 12  1  0
 15 16  1  0
 15 14  1  0
 17 18  2  0
 19 20  1  0
 20 21  2  0
 20 22  1  0
 22 23  1  0
 24 23  1  0
 24 25  1  0
 26 25  1  1
 27 17  1  0
 27 26  1  0
 28 30  1  0
 28 26  1  0
 29 28  2  0
M  END
$$$$
