CTV.pdb
     RDKit          3D

 21 20  0  0  1  0  0  0  0  0999 V2000
    6.0628  -18.3562   19.3485 N   0  0  0  0  0  0  0  0  0  0  0  0
    6.2093  -17.0832   19.9809 C   0  0  1  0  0  0  0  0  0  0  0  0
    4.9338  -16.2837   19.9108 C   0  0  0  0  0  0  0  0  0  0  0  0
    3.5364  -17.1398   20.6627 S   0  0  0  0  0  0  0  0  0  0  0  0
    6.7298  -17.1875   21.3728 C   0  0  0  0  0  0  0  0  0  0  0  0
    6.3009  -18.0819   22.1478 O   0  0  0  0  0  0  0  0  0  0  0  0
    9.4621  -18.4986   22.3415 C   0  0  0  0  0  0  0  0  0  0  0  0
    9.6537  -17.1661   23.0298 C   0  0  1  0  0  0  0  0  0  0  0  0
   10.5678  -16.3705   22.3740 O   0  0  0  0  0  0  0  0  0  0  0  0
    8.3189  -16.4704   23.1823 C   0  0  2  0  0  0  0  0  0  0  0  0
    7.7187  -16.2912   21.8716 N   0  0  0  0  0  0  0  0  0  0  0  0
    8.4987  -15.1754   23.8829 C   0  0  0  0  0  0  0  0  0  0  0  0
    8.4897  -14.0605   23.3058 O   0  0  0  0  0  0  0  0  0  0  0  0
    6.3682  -14.2552   26.6811 C   0  0  0  0  0  0  0  0  0  0  0  0
    7.4195  -13.3157   26.1349 C   0  0  1  0  0  0  0  0  0  0  0  0
    7.5077  -12.0289   26.8973 C   0  0  0  0  0  0  0  0  0  0  0  0
    8.7572  -14.0425   26.1174 C   0  0  2  0  0  0  0  0  0  0  0  0
    8.6912  -15.2126   25.2878 N   0  0  0  0  0  0  0  0  0  0  0  0
    9.0468  -14.4372   27.5275 C   0  0  0  0  0  0  0  0  0  0  0  0
    8.9176  -15.6309   27.8789 O   0  0  0  0  0  0  0  0  0  0  0  0
    9.4585  -13.5154   28.4711 O   0  0  0  0  0  0  0  0  0  0  0  0
  2  3  1  0
  2  5  1  0
  2  1  1  1
  4  3  1  0
  5 11  1  0
  6  5  2  0
  8  7  1  6
  9  8  1  0
 10 11  1  6
 10 12  1  0
 10  8  1  0
 12 18  1  0
 13 12  2  0
 15 16  1  1
 15 14  1  0
 17 15  1  0
 17 18  1  6
 19 17  1  0
 20 19  2  0
 21 19  1  0
M  END
$$$$
