CTV.pdb
     RDKit          3D

 21 20  0  0  1  0  0  0  0  0999 V2000
    8.1818  -15.0153   18.0777 N   0  0  0  0  0  0  0  0  0  0  0  0
    8.4303  -14.2037   19.2272 C   0  0  1  0  0  0  0  0  0  0  0  0
    7.9729  -12.7846   19.0083 C   0  0  0  0  0  0  0  0  0  0  0  0
    9.3276  -11.6794   18.5673 S   0  0  0  0  0  0  0  0  0  0  0  0
    7.8684  -14.7873   20.4774 C   0  0  0  0  0  0  0  0  0  0  0  0
    6.6523  -15.1060   20.5410 O   0  0  0  0  0  0  0  0  0  0  0  0
    7.5448  -17.6541   21.9259 C   0  0  0  0  0  0  0  0  0  0  0  0
    8.2898  -16.9388   23.0302 C   0  0  1  0  0  0  0  0  0  0  0  0
    9.6240  -17.2813   23.0619 O   0  0  0  0  0  0  0  0  0  0  0  0
    8.1021  -15.4440   22.8914 C   0  0  2  0  0  0  0  0  0  0  0  0
    8.6755  -15.0033   21.6315 N   0  0  0  0  0  0  0  0  0  0  0  0
    8.7181  -14.7459   24.0461 C   0  0  0  0  0  0  0  0  0  0  0  0
    9.9052  -14.3379   24.0650 O   0  0  0  0  0  0  0  0  0  0  0  0
    7.3106  -11.7311   26.0012 C   0  0  0  0  0  0  0  0  0  0  0  0
    7.3536  -12.9221   26.9317 C   0  0  1  0  0  0  0  0  0  0  0  0
    6.0140  -13.5658   27.1210 C   0  0  0  0  0  0  0  0  0  0  0  0
    8.3764  -13.9165   26.3996 C   0  0  2  0  0  0  0  0  0  0  0  0
    7.9074  -14.5328   25.1905 N   0  0  0  0  0  0  0  0  0  0  0  0
    8.5558  -14.9522   27.4593 C   0  0  0  0  0  0  0  0  0  0  0  0
    8.1273  -16.1129   27.2743 O   0  0  0  0  0  0  0  0  0  0  0  0
    9.1883  -14.6682   28.6547 O   0  0  0  0  0  0  0  0  0  0  0  0
  2  3  1  0
  2  5  1  0
  2  1  1  6
  4  3  1  0
  5 11  1  0
  6  5  2  0
  8  7  1  6
  9  8  1  0
 10 11  1  6
 10 12  1  0
 10  8  1  0
 12 18  1  0
 13 12  2  0
 15 16  1  6
 15 14  1  0
 17 15  1  0
 17 18  1  6
 19 17  1  0
 20 19  2  0
 21 19  1  0
M  END
$$$$
