CTV.pdb
     RDKit          3D

 21 20  0  0  1  0  0  0  0  0999 V2000
    8.3299  -17.4929   18.8844 N   0  0  0  0  0  0  0  0  0  0  0  0
    9.1020  -16.9712   19.9679 C   0  0  1  0  0  0  0  0  0  0  0  0
   10.1510  -16.0051   19.4810 C   0  0  0  0  0  0  0  0  0  0  0  0
   11.2360  -15.4348   20.8034 S   0  0  0  0  0  0  0  0  0  0  0  0
    8.2586  -16.3859   21.0474 C   0  0  0  0  0  0  0  0  0  0  0  0
    7.2871  -15.6380   20.7618 O   0  0  0  0  0  0  0  0  0  0  0  0
    6.1953  -18.1673   23.2489 C   0  0  0  0  0  0  0  0  0  0  0  0
    7.0326  -17.3449   24.2022 C   0  0  1  0  0  0  0  0  0  0  0  0
    8.0014  -18.1006   24.8256 O   0  0  0  0  0  0  0  0  0  0  0  0
    7.6327  -16.1643   23.4707 C   0  0  2  0  0  0  0  0  0  0  0  0
    8.5167  -16.6473   22.4240 N   0  0  0  0  0  0  0  0  0  0  0  0
    8.3478  -15.2847   24.4274 C   0  0  0  0  0  0  0  0  0  0  0  0
    9.5982  -15.1991   24.4989 O   0  0  0  0  0  0  0  0  0  0  0  0
    6.7920  -11.6741   25.5299 C   0  0  0  0  0  0  0  0  0  0  0  0
    7.0818  -12.5685   26.7140 C   0  0  1  0  0  0  0  0  0  0  0  0
    5.8512  -13.2111   27.2774 C   0  0  0  0  0  0  0  0  0  0  0  0
    8.1090  -13.6110   26.2942 C   0  0  2  0  0  0  0  0  0  0  0  0
    7.5607  -14.4991   25.3081 N   0  0  0  0  0  0  0  0  0  0  0  0
    8.4656  -14.3780   27.5241 C   0  0  0  0  0  0  0  0  0  0  0  0
    8.1015  -15.5690   27.6424 O   0  0  0  0  0  0  0  0  0  0  0  0
    9.1945  -13.8087   28.5508 O   0  0  0  0  0  0  0  0  0  0  0  0
  2  3  1  0
  2  5  1  0
  2  1  1  6
  4  3  1  0
  5 11  1  0
  6  5  2  0
  8  7  1  6
  9  8  1  0
 10 11  1  6
 10 12  1  0
 10  8  1  0
 12 18  1  0
 13 12  2  0
 15 16  1  6
 15 14  1  0
 17 15  1  0
 17 18  1  6
 19 17  1  0
 20 19  2  0
 21 19  1  0
M  END
$$$$
