CTV.pdb
     RDKit          3D

 21 20  0  0  1  0  0  0  0  0999 V2000
    3.4270  -20.3208   21.7107 N   0  0  0  0  0  0  0  0  0  0  0  0
    4.0012  -19.0161   21.8118 C   0  0  1  0  0  0  0  0  0  0  0  0
    2.9861  -17.9434   21.5123 C   0  0  0  0  0  0  0  0  0  0  0  0
    2.2546  -18.1186   19.8736 S   0  0  0  0  0  0  0  0  0  0  0  0
    4.6900  -18.7886   23.1129 C   0  0  0  0  0  0  0  0  0  0  0  0
    4.4295  -19.5156   24.1071 O   0  0  0  0  0  0  0  0  0  0  0  0
    8.2151  -18.9395   23.5134 C   0  0  0  0  0  0  0  0  0  0  0  0
    7.3081  -18.7849   24.7131 C   0  0  1  0  0  0  0  0  0  0  0  0
    8.0172  -18.6923   25.8908 O   0  0  0  0  0  0  0  0  0  0  0  0
    6.3965  -17.5933   24.5173 C   0  0  2  0  0  0  0  0  0  0  0  0
    5.6559  -17.7543   23.2781 N   0  0  0  0  0  0  0  0  0  0  0  0
    7.1910  -16.3407   24.5205 C   0  0  0  0  0  0  0  0  0  0  0  0
    7.8803  -15.9468   23.5480 O   0  0  0  0  0  0  0  0  0  0  0  0
    7.7290  -12.0316   26.8437 C   0  0  0  0  0  0  0  0  0  0  0  0
    6.9651  -13.3246   26.6682 C   0  0  1  0  0  0  0  0  0  0  0  0
    5.6021  -13.1240   26.0792 C   0  0  0  0  0  0  0  0  0  0  0  0
    7.8024  -14.2708   25.8187 C   0  0  2  0  0  0  0  0  0  0  0  0
    7.1617  -15.5502   25.6980 N   0  0  0  0  0  0  0  0  0  0  0  0
    9.1127  -14.4246   26.5168 C   0  0  0  0  0  0  0  0  0  0  0  0
    9.3164  -15.4204   27.2462 O   0  0  0  0  0  0  0  0  0  0  0  0
   10.1226  -13.4909   26.3827 O   0  0  0  0  0  0  0  0  0  0  0  0
  2  3  1  0
  2  5  1  0
  2  1  1  1
  4  3  1  0
  5 11  1  0
  6  5  2  0
  8  7  1  6
  9  8  1  0
 10 11  1  6
 10 12  1  0
 10  8  1  0
 12 18  1  0
 13 12  2  0
 15 16  1  6
 15 14  1  0
 17 15  1  0
 17 18  1  1
 19 17  1  0
 20 19  2  0
 21 19  1  0
M  END
$$$$
