CTV.pdb
     RDKit          3D

 21 20  0  0  1  0  0  0  0  0999 V2000
    8.6842  -15.8436   17.8292 N   0  0  0  0  0  0  0  0  0  0  0  0
    8.7854  -14.8183   18.8194 C   0  0  1  0  0  0  0  0  0  0  0  0
    8.4440  -13.4661   18.2485 C   0  0  0  0  0  0  0  0  0  0  0  0
    8.5395  -12.1501   19.4773 S   0  0  0  0  0  0  0  0  0  0  0  0
    7.9992  -15.1231   20.0475 C   0  0  0  0  0  0  0  0  0  0  0  0
    6.7649  -15.3586   19.9714 O   0  0  0  0  0  0  0  0  0  0  0  0
    6.8953  -17.5354   21.6010 C   0  0  0  0  0  0  0  0  0  0  0  0
    7.7302  -16.9434   22.7139 C   0  0  1  0  0  0  0  0  0  0  0  0
    8.9724  -17.5331   22.8002 O   0  0  0  0  0  0  0  0  0  0  0  0
    7.8368  -15.4449   22.5341 C   0  0  2  0  0  0  0  0  0  0  0  0
    8.6066  -15.1590   21.3358 N   0  0  0  0  0  0  0  0  0  0  0  0
    8.4506  -14.8319   23.7373 C   0  0  0  0  0  0  0  0  0  0  0  0
    9.6799  -14.6076   23.8585 O   0  0  0  0  0  0  0  0  0  0  0  0
    7.2878  -12.1255   27.7006 C   0  0  0  0  0  0  0  0  0  0  0  0
    6.7964  -12.9873   26.5595 C   0  0  1  0  0  0  0  0  0  0  0  0
    6.0259  -12.2152   25.5323 C   0  0  0  0  0  0  0  0  0  0  0  0
    7.9917  -13.6968   25.9383 C   0  0  2  0  0  0  0  0  0  0  0  0
    7.5868  -14.4830   24.8070 N   0  0  0  0  0  0  0  0  0  0  0  0
    8.5575  -14.5852   26.9959 C   0  0  0  0  0  0  0  0  0  0  0  0
    8.2323  -15.7926   27.0343 O   0  0  0  0  0  0  0  0  0  0  0  0
    9.4409  -14.1122   27.9475 O   0  0  0  0  0  0  0  0  0  0  0  0
  2  3  1  0
  2  5  1  0
  2  1  1  6
  4  3  1  0
  5 11  1  0
  6  5  2  0
  8  7  1  6
  9  8  1  0
 10 11  1  6
 10 12  1  0
 10  8  1  0
 12 18  1  0
 13 12  2  0
 15 16  1  6
 15 14  1  0
 17 15  1  0
 17 18  1  6
 19 17  1  0
 20 19  2  0
 21 19  1  0
M  END
$$$$
