CTV.pdb
     RDKit          3D

 21 20  0  0  1  0  0  0  0  0999 V2000
    7.5942  -16.0552   19.2888 N   0  0  0  0  0  0  0  0  0  0  0  0
    8.0191  -15.0585   20.2205 C   0  0  1  0  0  0  0  0  0  0  0  0
    7.5115  -13.6929   19.8352 C   0  0  0  0  0  0  0  0  0  0  0  0
    8.0865  -12.3988   20.9512 S   0  0  0  0  0  0  0  0  0  0  0  0
    7.6816  -15.4051   21.6294 C   0  0  0  0  0  0  0  0  0  0  0  0
    6.5246  -15.8010   21.9283 O   0  0  0  0  0  0  0  0  0  0  0  0
    6.6280  -17.3138   23.1274 C   0  0  0  0  0  0  0  0  0  0  0  0
    7.9013  -17.2288   23.9383 C   0  0  1  0  0  0  0  0  0  0  0  0
    8.8876  -18.0533   23.4428 O   0  0  0  0  0  0  0  0  0  0  0  0
    8.3651  -15.7909   24.0163 C   0  0  2  0  0  0  0  0  0  0  0  0
    8.6424  -15.3028   22.6765 N   0  0  0  0  0  0  0  0  0  0  0  0
    9.5575  -15.6891   24.8928 C   0  0  0  0  0  0  0  0  0  0  0  0
   10.7389  -15.7996   24.4825 O   0  0  0  0  0  0  0  0  0  0  0  0
   10.1211  -12.8203   27.2763 C   0  0  0  0  0  0  0  0  0  0  0  0
   10.1035  -14.0703   28.1267 C   0  0  1  0  0  0  0  0  0  0  0  0
    8.8216  -14.2465   28.8822 C   0  0  0  0  0  0  0  0  0  0  0  0
   10.3893  -15.2691   27.2326 C   0  0  2  0  0  0  0  0  0  0  0  0
    9.3363  -15.4529   26.2739 N   0  0  0  0  0  0  0  0  0  0  0  0
   10.4716  -16.4598   28.1289 C   0  0  0  0  0  0  0  0  0  0  0  0
    9.5465  -17.3020   28.1318 O   0  0  0  0  0  0  0  0  0  0  0  0
   11.5505  -16.6662   28.9674 O   0  0  0  0  0  0  0  0  0  0  0  0
  2  3  1  0
  2  5  1  0
  2  1  1  6
  4  3  1  0
  5 11  1  0
  6  5  2  0
  8  7  1  6
  9  8  1  0
 10 11  1  6
 10 12  1  0
 10  8  1  0
 12 18  1  0
 13 12  2  0
 15 16  1  6
 15 14  1  0
 17 15  1  0
 17 18  1  6
 19 17  1  0
 20 19  2  0
 21 19  1  0
M  END
$$$$
