CTV.pdb
     RDKit          3D

 21 20  0  0  1  0  0  0  0  0999 V2000
   10.0713  -15.1428   17.9426 N   0  0  0  0  0  0  0  0  0  0  0  0
   10.3376  -15.5333   19.2911 C   0  0  1  0  0  0  0  0  0  0  0  0
   11.7850  -15.3178   19.6509 C   0  0  0  0  0  0  0  0  0  0  0  0
   12.8977  -16.3900   18.7218 S   0  0  0  0  0  0  0  0  0  0  0  0
    9.4152  -14.8924   20.2697 C   0  0  0  0  0  0  0  0  0  0  0  0
    9.0240  -13.7087   20.0953 O   0  0  0  0  0  0  0  0  0  0  0  0
    6.0598  -15.8597   20.9999 C   0  0  0  0  0  0  0  0  0  0  0  0
    6.7336  -15.8733   22.3534 C   0  0  1  0  0  0  0  0  0  0  0  0
    7.0290  -17.1521   22.7727 O   0  0  0  0  0  0  0  0  0  0  0  0
    7.9680  -14.9991   22.3210 C   0  0  2  0  0  0  0  0  0  0  0  0
    8.9480  -15.5858   21.4234 N   0  0  0  0  0  0  0  0  0  0  0  0
    8.5108  -14.8365   23.6919 C   0  0  0  0  0  0  0  0  0  0  0  0
    9.5927  -15.3411   24.0805 O   0  0  0  0  0  0  0  0  0  0  0  0
    7.4411  -11.4759   26.0013 C   0  0  0  0  0  0  0  0  0  0  0  0
    7.2099  -12.8284   26.6365 C   0  0  1  0  0  0  0  0  0  0  0  0
    5.7800  -13.2707   26.5679 C   0  0  0  0  0  0  0  0  0  0  0  0
    8.1354  -13.8397   25.9741 C   0  0  2  0  0  0  0  0  0  0  0  0
    7.7531  -14.0629   24.6082 N   0  0  0  0  0  0  0  0  0  0  0  0
    8.0062  -15.1083   26.7499 C   0  0  0  0  0  0  0  0  0  0  0  0
    7.3476  -16.0619   26.2787 O   0  0  0  0  0  0  0  0  0  0  0  0
    8.5978  -15.2672   27.9886 O   0  0  0  0  0  0  0  0  0  0  0  0
  2  3  1  0
  2  5  1  0
  2  1  1  6
  4  3  1  0
  5 11  1  0
  6  5  2  0
  8  7  1  6
  9  8  1  0
 10 11  1  6
 10 12  1  0
 10  8  1  0
 12 18  1  0
 13 12  2  0
 15 16  1  6
 15 14  1  0
 17 15  1  0
 17 18  1  6
 19 17  1  0
 20 19  2  0
 21 19  1  0
M  END
$$$$
