CTV.pdb
     RDKit          3D

 21 20  0  0  1  0  0  0  0  0999 V2000
    4.0810  -19.5571   20.7326 N   0  0  0  0  0  0  0  0  0  0  0  0
    4.3680  -18.3933   21.5106 C   0  0  1  0  0  0  0  0  0  0  0  0
    3.4783  -18.3092   22.7239 C   0  0  0  0  0  0  0  0  0  0  0  0
    1.7263  -18.2813   22.2987 S   0  0  0  0  0  0  0  0  0  0  0  0
    5.8105  -18.2774   21.8640 C   0  0  0  0  0  0  0  0  0  0  0  0
    6.5066  -19.3104   22.0463 O   0  0  0  0  0  0  0  0  0  0  0  0
   10.1388  -16.7733   21.3802 C   0  0  0  0  0  0  0  0  0  0  0  0
    8.6720  -16.9514   21.0597 C   0  0  1  0  0  0  0  0  0  0  0  0
    8.4327  -18.1097   20.3528 O   0  0  0  0  0  0  0  0  0  0  0  0
    7.8580  -16.8989   22.3339 C   0  0  2  0  0  0  0  0  0  0  0  0
    6.4471  -17.0108   22.0069 N   0  0  0  0  0  0  0  0  0  0  0  0
    8.1505  -15.6457   23.0716 C   0  0  0  0  0  0  0  0  0  0  0  0
    7.8461  -14.5012   22.6549 O   0  0  0  0  0  0  0  0  0  0  0  0
    6.8257  -13.6477   24.7309 C   0  0  0  0  0  0  0  0  0  0  0  0
    7.6956  -14.2117   25.8315 C   0  0  1  0  0  0  0  0  0  0  0  0
    7.0355  -15.3242   26.5875 C   0  0  0  0  0  0  0  0  0  0  0  0
    9.0163  -14.6625   25.2226 C   0  0  2  0  0  0  0  0  0  0  0  0
    8.8135  -15.7609   24.3203 N   0  0  0  0  0  0  0  0  0  0  0  0
    9.8844  -15.0933   26.3579 C   0  0  0  0  0  0  0  0  0  0  0  0
   10.1981  -16.2983   26.4791 O   0  0  0  0  0  0  0  0  0  0  0  0
   10.3600  -14.1934   27.2925 O   0  0  0  0  0  0  0  0  0  0  0  0
  2  3  1  0
  2  5  1  0
  2  1  1  1
  4  3  1  0
  5 11  1  0
  6  5  2  0
  8  7  1  1
  9  8  1  0
 10 11  1  6
 10 12  1  0
 10  8  1  0
 12 18  1  0
 13 12  2  0
 15 16  1  6
 15 14  1  0
 17 15  1  0
 17 18  1  6
 19 17  1  0
 20 19  2  0
 21 19  1  0
M  END
$$$$
