IVF.pdb
     RDKit          3D

 27 27  0  0  1  0  0  0  0  0999 V2000
    6.3840  -17.1773   18.9964 C   0  0  0  0  0  0  0  0  0  0  0  0
    6.6475  -15.7292   19.3610 C   0  0  0  0  0  0  0  0  0  0  0  0
    7.1547  -15.5600   20.7535 C   0  0  2  0  0  0  0  0  0  0  0  0
    6.4521  -16.4449   21.7165 C   0  0  0  0  0  0  0  0  0  0  0  0
    7.1915  -14.1244   21.2337 C   0  0  2  0  0  0  0  0  0  0  0  0
    7.9656  -13.3282   20.2735 N   0  0  0  0  0  0  0  0  0  0  0  0
    7.8930  -14.0897   22.5391 C   0  0  0  0  0  0  0  0  0  0  0  0
    9.1376  -14.2197   22.5481 O   0  0  0  0  0  0  0  0  0  0  0  0
    7.6642  -12.9470   27.3532 C   0  0  0  0  0  0  0  0  0  0  0  0
    6.9038  -13.1246   26.0624 C   0  0  1  0  0  0  0  0  0  0  0  0
    6.4459  -11.7670   25.5755 C   0  0  0  0  0  0  0  0  0  0  0  0
    7.8158  -13.7891   25.0464 C   0  0  2  0  0  0  0  0  0  0  0  0
    7.1903  -13.9100   23.7652 N   0  0  0  0  0  0  0  0  0  0  0  0
    8.2277  -15.1093   25.5685 C   0  0  0  0  0  0  0  0  0  0  0  0
    7.3634  -16.0441   25.6018 O   0  0  0  0  0  0  0  0  0  0  0  0
    9.5254  -15.4212   26.0411 N   0  0  0  0  0  0  0  0  0  0  0  0
    9.8916  -16.6445   26.7167 C   0  0  1  0  0  0  0  0  0  0  0  0
   11.1612  -17.1634   26.1296 C   0  0  0  0  0  0  0  0  0  0  0  0
   11.1393  -17.3364   24.6621 C   0  0  0  0  0  0  0  0  0  0  0  0
   10.5925  -18.4428   24.0482 C   0  0  0  0  0  0  0  0  0  0  0  0
   10.5765  -18.5971   22.6783 C   0  0  0  0  0  0  0  0  0  0  0  0
   11.1287  -17.6085   21.8549 C   0  0  0  0  0  0  0  0  0  0  0  0
   11.6768  -16.4983   22.4571 C   0  0  0  0  0  0  0  0  0  0  0  0
   11.6754  -16.3788   23.8349 C   0  0  0  0  0  0  0  0  0  0  0  0
    9.8445  -16.5859   28.1778 C   0  0  0  0  0  0  0  0  0  0  0  0
    9.5759  -15.5148   28.7691 O   0  0  0  0  0  0  0  0  0  0  0  0
   10.0972  -17.7094   28.9305 O   0  0  0  0  0  0  0  0  0  0  0  0
  2  1  1  0
  3  2  1  0
  3  4  1  1
  5  3  1  0
  5  6  1  6
  7 13  1  0
  7  5  1  0
  8  7  2  0
 10  9  1  1
 11 10  1  0
 12 10  1  0
 12 13  1  6
 14 12  1  0
 14 15  2  0
 16 14  1  0
 17 16  1  0
 17 25  1  0
 17 18  1  1
 19 20  2  0
 19 18  1  0
 21 20  1  0
 22 21  2  0
 23 22  1  0
 23 24  2  0
 24 19  1  0
 25 27  1  0
 26 25  2  0
M  END
$$$$
