IVF.pdb
     RDKit          3D

 27 27  0  0  1  0  0  0  0  0999 V2000
    7.4031  -11.7929   19.8180 C   0  0  0  0  0  0  0  0  0  0  0  0
    7.4504  -13.2982   19.6412 C   0  0  0  0  0  0  0  0  0  0  0  0
    7.5114  -14.0372   20.9355 C   0  0  2  0  0  0  0  0  0  0  0  0
    8.6485  -13.5931   21.7804 C   0  0  0  0  0  0  0  0  0  0  0  0
    7.4706  -15.5444   20.7955 C   0  0  2  0  0  0  0  0  0  0  0  0
    6.2674  -15.9130   20.0397 N   0  0  0  0  0  0  0  0  0  0  0  0
    7.3666  -16.1336   22.1518 C   0  0  0  0  0  0  0  0  0  0  0  0
    6.3004  -15.9759   22.7875 O   0  0  0  0  0  0  0  0  0  0  0  0
    8.7421  -19.5991   25.2820 C   0  0  0  0  0  0  0  0  0  0  0  0
    8.9023  -18.9508   23.9292 C   0  0  1  0  0  0  0  0  0  0  0  0
    8.1413  -19.7647   22.9053 C   0  0  0  0  0  0  0  0  0  0  0  0
    8.3694  -17.5309   24.0024 C   0  0  2  0  0  0  0  0  0  0  0  0
    8.4382  -16.8682   22.7361 N   0  0  0  0  0  0  0  0  0  0  0  0
    9.1251  -16.7918   25.0358 C   0  0  0  0  0  0  0  0  0  0  0  0
   10.2853  -16.3563   24.7425 O   0  0  0  0  0  0  0  0  0  0  0  0
    8.6542  -16.5260   26.3445 N   0  0  0  0  0  0  0  0  0  0  0  0
    9.4371  -15.9343   27.4047 C   0  0  1  0  0  0  0  0  0  0  0  0
    8.5923  -14.9502   28.1422 C   0  0  0  0  0  0  0  0  0  0  0  0
    8.0761  -13.8374   27.3182 C   0  0  0  0  0  0  0  0  0  0  0  0
    8.8242  -12.7188   27.0198 C   0  0  0  0  0  0  0  0  0  0  0  0
    8.3350  -11.6844   26.2509 C   0  0  0  0  0  0  0  0  0  0  0  0
    7.0329  -11.7456   25.7399 C   0  0  0  0  0  0  0  0  0  0  0  0
    6.2767  -12.8588   26.0307 C   0  0  0  0  0  0  0  0  0  0  0  0
    6.8011  -13.8764   26.8065 C   0  0  0  0  0  0  0  0  0  0  0  0
   10.1778  -16.8842   28.2350 C   0  0  0  0  0  0  0  0  0  0  0  0
   11.0397  -16.4866   29.0523 O   0  0  0  0  0  0  0  0  0  0  0  0
    9.9414  -18.2354   28.1308 O   0  0  0  0  0  0  0  0  0  0  0  0
  2  1  1  0
  3  2  1  0
  3  4  1  6
  5  3  1  0
  5  6  1  6
  7 13  1  0
  7  5  1  0
  8  7  2  0
 10  9  1  1
 11 10  1  0
 12 10  1  0
 12 13  1  6
 14 12  1  0
 14 15  2  0
 16 14  1  0
 17 16  1  0
 17 25  1  0
 17 18  1  1
 19 20  2  0
 19 18  1  0
 21 20  1  0
 22 21  2  0
 23 22  1  0
 23 24  2  0
 24 19  1  0
 25 27  1  0
 26 25  2  0
M  END
$$$$
