IVF.pdb
     RDKit          3D

 27 27  0  0  1  0  0  0  0  0999 V2000
    7.5913  -11.6575   19.6959 C   0  0  0  0  0  0  0  0  0  0  0  0
    7.8598  -13.1180   19.3887 C   0  0  0  0  0  0  0  0  0  0  0  0
    7.9763  -13.9612   20.6136 C   0  0  2  0  0  0  0  0  0  0  0  0
    8.9272  -13.3881   21.5991 C   0  0  0  0  0  0  0  0  0  0  0  0
    8.2640  -15.4224   20.3396 C   0  0  2  0  0  0  0  0  0  0  0  0
    7.1930  -15.9606   19.4921 N   0  0  0  0  0  0  0  0  0  0  0  0
    8.2443  -16.1492   21.6316 C   0  0  0  0  0  0  0  0  0  0  0  0
    7.1365  -16.4818   22.1089 O   0  0  0  0  0  0  0  0  0  0  0  0
   10.4953  -19.3322   24.5115 C   0  0  0  0  0  0  0  0  0  0  0  0
   10.4800  -18.4807   23.2663 C   0  0  1  0  0  0  0  0  0  0  0  0
   10.0659  -19.3410   22.0924 C   0  0  0  0  0  0  0  0  0  0  0  0
    9.5069  -17.3334   23.4717 C   0  0  2  0  0  0  0  0  0  0  0  0
    9.4432  -16.4754   22.3284 N   0  0  0  0  0  0  0  0  0  0  0  0
    9.9034  -16.5842   24.6828 C   0  0  0  0  0  0  0  0  0  0  0  0
   10.9250  -15.8265   24.6189 O   0  0  0  0  0  0  0  0  0  0  0  0
    9.2276  -16.6432   25.9256 N   0  0  0  0  0  0  0  0  0  0  0  0
    9.7013  -16.0553   27.1574 C   0  0  1  0  0  0  0  0  0  0  0  0
    8.5803  -15.3140   27.8053 C   0  0  0  0  0  0  0  0  0  0  0  0
    8.0087  -14.2211   26.9913 C   0  0  0  0  0  0  0  0  0  0  0  0
    6.8339  -14.3530   26.2825 C   0  0  0  0  0  0  0  0  0  0  0  0
    6.3074  -13.3287   25.5247 C   0  0  0  0  0  0  0  0  0  0  0  0
    6.9692  -12.0969   25.4545 C   0  0  0  0  0  0  0  0  0  0  0  0
    8.1432  -11.9533   26.1593 C   0  0  0  0  0  0  0  0  0  0  0  0
    8.6413  -13.0038   26.9081 C   0  0  0  0  0  0  0  0  0  0  0  0
   10.4532  -16.9587   28.0285 C   0  0  0  0  0  0  0  0  0  0  0  0
   10.3505  -18.2011   27.9071 O   0  0  0  0  0  0  0  0  0  0  0  0
   11.2875  -16.4578   29.0009 O   0  0  0  0  0  0  0  0  0  0  0  0
  2  1  1  0
  3  2  1  0
  3  4  1  1
  5  3  1  0
  5  6  1  6
  7 13  1  0
  7  5  1  0
  8  7  2  0
 10  9  1  1
 11 10  1  0
 12 10  1  0
 12 13  1  6
 14 12  1  0
 14 15  2  0
 16 14  1  0
 17 16  1  0
 17 25  1  0
 17 18  1  1
 19 20  2  0
 19 18  1  0
 21 20  1  0
 22 21  2  0
 23 22  1  0
 23 24  2  0
 24 19  1  0
 25 27  1  0
 26 25  2  0
M  END
$$$$
