IVF.pdb
     RDKit          3D

 27 27  0  0  1  0  0  0  0  0999 V2000
    6.6581  -22.4347   22.5095 C   0  0  0  0  0  0  0  0  0  0  0  0
    6.5335  -21.4252   21.3849 C   0  0  0  0  0  0  0  0  0  0  0  0
    7.1953  -20.1240   21.6913 C   0  0  2  0  0  0  0  0  0  0  0  0
    6.8192  -19.6067   23.0311 C   0  0  0  0  0  0  0  0  0  0  0  0
    7.0290  -19.0713   20.6157 C   0  0  2  0  0  0  0  0  0  0  0  0
    7.5579  -19.6025   19.3535 N   0  0  0  0  0  0  0  0  0  0  0  0
    7.8359  -17.8874   20.9966 C   0  0  0  0  0  0  0  0  0  0  0  0
    9.0816  -18.0027   21.0266 O   0  0  0  0  0  0  0  0  0  0  0  0
    8.1420  -13.0296   21.7318 C   0  0  0  0  0  0  0  0  0  0  0  0
    7.2763  -14.1946   21.3205 C   0  0  1  0  0  0  0  0  0  0  0  0
    7.0966  -14.1620   19.8183 C   0  0  0  0  0  0  0  0  0  0  0  0
    7.9494  -15.4823   21.7613 C   0  0  2  0  0  0  0  0  0  0  0  0
    7.2315  -16.6388   21.3203 N   0  0  0  0  0  0  0  0  0  0  0  0
    8.0888  -15.4667   23.2329 C   0  0  0  0  0  0  0  0  0  0  0  0
    7.0479  -15.2626   23.9378 O   0  0  0  0  0  0  0  0  0  0  0  0
    9.3051  -15.6636   23.9305 N   0  0  0  0  0  0  0  0  0  0  0  0
    9.5929  -15.1647   25.2554 C   0  0  1  0  0  0  0  0  0  0  0  0
    9.5231  -13.6744   25.2399 C   0  0  0  0  0  0  0  0  0  0  0  0
    8.3489  -13.1026   25.9315 C   0  0  0  0  0  0  0  0  0  0  0  0
    8.3918  -12.6619   27.2368 C   0  0  0  0  0  0  0  0  0  0  0  0
    7.2917  -12.1302   27.8752 C   0  0  0  0  0  0  0  0  0  0  0  0
    6.0720  -12.0209   27.1965 C   0  0  0  0  0  0  0  0  0  0  0  0
    6.0176  -12.4571   25.8917 C   0  0  0  0  0  0  0  0  0  0  0  0
    7.1420  -12.9859   25.2845 C   0  0  0  0  0  0  0  0  0  0  0  0
    8.8647  -15.8238   26.3396 C   0  0  0  0  0  0  0  0  0  0  0  0
    9.0848  -15.5244   27.5358 O   0  0  0  0  0  0  0  0  0  0  0  0
    7.9236  -16.7886   26.0636 O   0  0  0  0  0  0  0  0  0  0  0  0
  2  1  1  0
  3  2  1  0
  3  4  1  1
  5  3  1  0
  5  6  1  6
  7 13  1  0
  7  5  1  0
  8  7  2  0
 10  9  1  6
 11 10  1  0
 12 10  1  0
 12 13  1  1
 14 12  1  0
 14 15  2  0
 16 14  1  0
 17 16  1  0
 17 25  1  0
 17 18  1  6
 19 20  2  0
 19 18  1  0
 21 20  1  0
 22 21  2  0
 23 22  1  0
 23 24  2  0
 24 19  1  0
 25 27  1  0
 26 25  2  0
M  END
$$$$
