IVF.pdb
     RDKit          3D

 27 27  0  0  1  0  0  0  0  0999 V2000
    7.1579  -11.6300   19.8373 C   0  0  0  0  0  0  0  0  0  0  0  0
    7.7482  -12.9530   19.3895 C   0  0  0  0  0  0  0  0  0  0  0  0
    7.7948  -13.9709   20.4788 C   0  0  2  0  0  0  0  0  0  0  0  0
    8.4270  -13.4411   21.7132 C   0  0  0  0  0  0  0  0  0  0  0  0
    8.3941  -15.2988   20.0662 C   0  0  2  0  0  0  0  0  0  0  0  0
    7.5748  -15.8692   18.9899 N   0  0  0  0  0  0  0  0  0  0  0  0
    8.3366  -16.2153   21.2300 C   0  0  0  0  0  0  0  0  0  0  0  0
    7.2367  -16.7356   21.5222 O   0  0  0  0  0  0  0  0  0  0  0  0
   10.5940  -19.4945   23.9932 C   0  0  0  0  0  0  0  0  0  0  0  0
   10.6219  -18.5130   22.8479 C   0  0  1  0  0  0  0  0  0  0  0  0
   10.4101  -19.2679   21.5536 C   0  0  0  0  0  0  0  0  0  0  0  0
    9.5287  -17.4814   23.0626 C   0  0  2  0  0  0  0  0  0  0  0  0
    9.4915  -16.5146   22.0084 N   0  0  0  0  0  0  0  0  0  0  0  0
    9.7359  -16.8348   24.3757 C   0  0  0  0  0  0  0  0  0  0  0  0
   10.6838  -15.9924   24.4933 O   0  0  0  0  0  0  0  0  0  0  0  0
    8.9528  -17.0814   25.5293 N   0  0  0  0  0  0  0  0  0  0  0  0
    9.2270  -16.5568   26.8472 C   0  0  1  0  0  0  0  0  0  0  0  0
    7.9953  -15.9017   27.3761 C   0  0  0  0  0  0  0  0  0  0  0  0
    7.6899  -14.5846   26.7797 C   0  0  0  0  0  0  0  0  0  0  0  0
    8.5201  -13.4926   26.9143 C   0  0  0  0  0  0  0  0  0  0  0  0
    8.2277  -12.2668   26.3554 C   0  0  0  0  0  0  0  0  0  0  0  0
    7.0503  -12.0957   25.6174 C   0  0  0  0  0  0  0  0  0  0  0  0
    6.2137  -13.1799   25.4754 C   0  0  0  0  0  0  0  0  0  0  0  0
    6.5400  -14.3941   26.0515 C   0  0  0  0  0  0  0  0  0  0  0  0
    9.8947  -17.4854   27.7594 C   0  0  0  0  0  0  0  0  0  0  0  0
    9.8411  -18.7223   27.5692 O   0  0  0  0  0  0  0  0  0  0  0  0
   10.5937  -17.0150   28.8469 O   0  0  0  0  0  0  0  0  0  0  0  0
  2  1  1  0
  3  2  1  0
  3  4  1  1
  5  3  1  0
  5  6  1  6
  7 13  1  0
  7  5  1  0
  8  7  2  0
 10  9  1  1
 11 10  1  0
 12 10  1  0
 12 13  1  6
 14 12  1  0
 14 15  2  0
 16 14  1  0
 17 16  1  0
 17 25  1  0
 17 18  1  1
 19 20  2  0
 19 18  1  0
 21 20  1  0
 22 21  2  0
 23 22  1  0
 23 24  2  0
 24 19  1  0
 25 27  1  0
 26 25  2  0
M  END
$$$$
