IVF.pdb
     RDKit          3D

 27 27  0  0  1  0  0  0  0  0999 V2000
   12.6206  -20.9902   19.8367 C   0  0  0  0  0  0  0  0  0  0  0  0
   11.9577  -19.8492   19.0896 C   0  0  0  0  0  0  0  0  0  0  0  0
   11.5114  -18.7443   19.9868 C   0  0  2  0  0  0  0  0  0  0  0  0
   10.7954  -19.2506   21.1847 C   0  0  0  0  0  0  0  0  0  0  0  0
   10.7327  -17.6496   19.2880 C   0  0  2  0  0  0  0  0  0  0  0  0
   11.5986  -17.0296   18.2776 N   0  0  0  0  0  0  0  0  0  0  0  0
   10.3784  -16.6187   20.2926 C   0  0  0  0  0  0  0  0  0  0  0  0
   11.3028  -15.9581   20.8170 O   0  0  0  0  0  0  0  0  0  0  0  0
    6.8725  -13.8560   22.4244 C   0  0  0  0  0  0  0  0  0  0  0  0
    7.2276  -14.8632   21.3588 C   0  0  1  0  0  0  0  0  0  0  0  0
    7.1615  -14.1865   20.0069 C   0  0  0  0  0  0  0  0  0  0  0  0
    8.6228  -15.3946   21.6351 C   0  0  2  0  0  0  0  0  0  0  0  0
    9.0268  -16.3656   20.6648 N   0  0  0  0  0  0  0  0  0  0  0  0
    8.6559  -15.9567   23.0019 C   0  0  0  0  0  0  0  0  0  0  0  0
    8.4364  -17.2024   23.1500 O   0  0  0  0  0  0  0  0  0  0  0  0
    8.9160  -15.2092   24.1759 N   0  0  0  0  0  0  0  0  0  0  0  0
    8.9726  -15.7547   25.5124 C   0  0  1  0  0  0  0  0  0  0  0  0
    9.2204  -14.6465   26.4801 C   0  0  0  0  0  0  0  0  0  0  0  0
    8.2078  -13.5703   26.4614 C   0  0  0  0  0  0  0  0  0  0  0  0
    6.8534  -13.8196   26.4046 C   0  0  0  0  0  0  0  0  0  0  0  0
    5.9149  -12.8099   26.3867 C   0  0  0  0  0  0  0  0  0  0  0  0
    6.3241  -11.4716   26.4276 C   0  0  0  0  0  0  0  0  0  0  0  0
    7.6747  -11.2106   26.4854 C   0  0  0  0  0  0  0  0  0  0  0  0
    8.5869  -12.2499   26.5007 C   0  0  0  0  0  0  0  0  0  0  0  0
    7.8832  -16.6681   25.8577 C   0  0  0  0  0  0  0  0  0  0  0  0
    7.9735  -17.4298   26.8481 O   0  0  0  0  0  0  0  0  0  0  0  0
    6.7376  -16.7082   25.0970 O   0  0  0  0  0  0  0  0  0  0  0  0
  2  1  1  0
  3  2  1  0
  3  4  1  1
  5  3  1  0
  5  6  1  6
  7 13  1  0
  7  5  1  0
  8  7  2  0
 10  9  1  1
 11 10  1  0
 12 10  1  0
 12 13  1  6
 14 12  1  0
 14 15  2  0
 16 14  1  0
 17 16  1  0
 17 25  1  0
 17 18  1  1
 19 20  2  0
 19 18  1  0
 21 20  1  0
 22 21  2  0
 23 22  1  0
 23 24  2  0
 24 19  1  0
 25 27  1  0
 26 25  2  0
M  END
$$$$
