IVF.pdb
     RDKit          3D

 27 27  0  0  1  0  0  0  0  0999 V2000
    5.2021  -21.3788   23.4370 C   0  0  0  0  0  0  0  0  0  0  0  0
    5.3351  -20.5932   22.1468 C   0  0  0  0  0  0  0  0  0  0  0  0
    6.1245  -19.3376   22.3057 C   0  0  2  0  0  0  0  0  0  0  0  0
    5.6308  -18.5048   23.4313 C   0  0  0  0  0  0  0  0  0  0  0  0
    6.2748  -18.5303   21.0335 C   0  0  2  0  0  0  0  0  0  0  0  0
    6.7901  -19.4102   19.9776 N   0  0  0  0  0  0  0  0  0  0  0  0
    7.2733  -17.4620   21.2772 C   0  0  0  0  0  0  0  0  0  0  0  0
    8.4665  -17.7941   21.4558 O   0  0  0  0  0  0  0  0  0  0  0  0
    8.3696  -12.6492   21.0211 C   0  0  0  0  0  0  0  0  0  0  0  0
    7.3012  -13.7074   20.8991 C   0  0  1  0  0  0  0  0  0  0  0  0
    6.9409  -13.8702   19.4385 C   0  0  0  0  0  0  0  0  0  0  0  0
    7.8330  -15.0066   21.4777 C   0  0  2  0  0  0  0  0  0  0  0  0
    6.9084  -16.0853   21.3078 N   0  0  0  0  0  0  0  0  0  0  0  0
    8.1540  -14.7956   22.9052 C   0  0  0  0  0  0  0  0  0  0  0  0
    7.5221  -13.8909   23.5409 O   0  0  0  0  0  0  0  0  0  0  0  0
    9.1222  -15.5301   23.6318 N   0  0  0  0  0  0  0  0  0  0  0  0
    9.4104  -15.3610   25.0373 C   0  0  1  0  0  0  0  0  0  0  0  0
    8.1311  -15.3968   25.8041 C   0  0  0  0  0  0  0  0  0  0  0  0
    7.5573  -14.0705   26.1132 C   0  0  0  0  0  0  0  0  0  0  0  0
    8.3263  -12.9978   26.5106 C   0  0  0  0  0  0  0  0  0  0  0  0
    7.7833  -11.7636   26.7979 C   0  0  0  0  0  0  0  0  0  0  0  0
    6.4019  -11.5631   26.6899 C   0  0  0  0  0  0  0  0  0  0  0  0
    5.6239  -12.6273   26.2927 C   0  0  0  0  0  0  0  0  0  0  0  0
    6.2042  -13.8512   26.0139 C   0  0  0  0  0  0  0  0  0  0  0  0
   10.4867  -16.2047   25.5570 C   0  0  0  0  0  0  0  0  0  0  0  0
   11.0382  -17.0626   24.8298 O   0  0  0  0  0  0  0  0  0  0  0  0
   10.9120  -16.0715   26.8586 O   0  0  0  0  0  0  0  0  0  0  0  0
  2  1  1  0
  3  2  1  0
  3  4  1  1
  5  3  1  0
  5  6  1  6
  7 13  1  0
  7  5  1  0
  8  7  2  0
 10  9  1  6
 11 10  1  0
 12 10  1  0
 12 13  1  1
 14 12  1  0
 14 15  2  0
 16 14  1  0
 17 16  1  0
 17 25  1  0
 17 18  1  1
 19 20  2  0
 19 18  1  0
 21 20  1  0
 22 21  2  0
 23 22  1  0
 23 24  2  0
 24 19  1  0
 25 27  1  0
 26 25  2  0
M  END
$$$$
