MSD.pdb
     RDKit          3D

 23 22  0  0  1  0  0  0  0  0999 V2000
   16.6168  -12.8811   -9.9930 C   0  0  0  0  0  0  0  0  0  0  0  0
   14.8766  -13.0217   -9.4722 S   0  0  0  0  0  0  0  0  0  0  0  0
   14.1783  -11.3648   -9.4663 C   0  0  0  0  0  0  0  0  0  0  0  0
   15.0437  -10.3504  -10.1677 C   0  0  0  0  0  0  0  0  0  0  0  0
   14.2482   -9.0441  -10.1701 C   0  0  2  0  0  0  0  0  0  0  0  0
   13.0392   -9.2566  -10.9524 N   0  0  0  0  0  0  0  0  0  0  0  0
   15.0528   -7.9206  -10.7202 C   0  0  0  0  0  0  0  0  0  0  0  0
   15.0588   -7.7814  -11.9708 O   0  0  0  0  0  0  0  0  0  0  0  0
   17.2004   -5.5954   -8.1151 O   0  0  0  0  0  0  0  0  0  0  0  0
   16.8496   -4.9316   -9.2939 C   0  0  0  0  0  0  0  0  0  0  0  0
   16.6258   -6.0045  -10.3560 C   0  0  2  0  0  0  0  0  0  0  0  0
   15.7724   -7.0591   -9.8504 N   0  0  0  0  0  0  0  0  0  0  0  0
   17.9678   -6.5252  -10.7337 C   0  0  0  0  0  0  0  0  0  0  0  0
   18.4774   -7.4427  -10.0422 O   0  0  0  0  0  0  0  0  0  0  0  0
   18.7009   -6.0395  -11.8336 N   0  0  0  0  0  0  0  0  0  0  0  0
   19.9961   -6.6369  -12.2572 C   0  0  1  0  0  0  0  0  0  0  0  0
   19.7119   -7.7352  -13.2571 C   0  0  0  0  0  0  0  0  0  0  0  0
   20.9590   -8.2505  -13.8083 C   0  0  0  0  0  0  0  0  0  0  0  0
   22.0590   -7.9651  -13.3094 O   0  0  0  0  0  0  0  0  0  0  0  0
   20.7425   -5.4980  -12.8213 C   0  0  0  0  0  0  0  0  0  0  0  0
   22.0697   -5.5717  -13.1607 O   0  0  0  0  0  0  0  0  0  0  0  0
   20.9365   -9.0828  -14.9195 O   0  0  0  0  0  0  0  0  0  0  0  0
   20.1684   -4.4029  -13.0101 O   0  0  0  0  0  0  0  0  0  0  0  0
  1  2  1  0
  2  3  1  0
  4  5  1  0
  4  3  1  0
  5  6  1  6
  5  7  1  0
  7  8  2  0
 11 10  1  1
 10  9  1  0
 12  7  1  0
 12 11  1  0
 13 11  1  0
 13 15  1  0
 14 13  2  0
 16 15  1  0
 16 17  1  6
 17 18  1  0
 18 19  2  0
 18 22  1  0
 20 21  1  0
 20 16  1  0
 23 20  2  0
M  END
$$$$
