MSD.pdb
     RDKit          3D

 23 22  0  0  1  0  0  0  0  0999 V2000
   28.2577  -14.0084  -15.7457 C   0  0  0  0  0  0  0  0  0  0  0  0
   27.3801  -12.4620  -16.1429 S   0  0  0  0  0  0  0  0  0  0  0  0
   25.6168  -12.8046  -16.0615 C   0  0  0  0  0  0  0  0  0  0  0  0
   24.7611  -11.6027  -16.3664 C   0  0  0  0  0  0  0  0  0  0  0  0
   23.3168  -12.1052  -16.3873 C   0  0  2  0  0  0  0  0  0  0  0  0
   23.1858  -13.0479  -17.4888 N   0  0  0  0  0  0  0  0  0  0  0  0
   22.3535  -10.9804  -16.5262 C   0  0  0  0  0  0  0  0  0  0  0  0
   22.1535  -10.5402  -17.6879 O   0  0  0  0  0  0  0  0  0  0  0  0
   20.2728   -9.5914  -13.2013 O   0  0  0  0  0  0  0  0  0  0  0  0
   19.6663   -9.4547  -14.4529 C   0  0  0  0  0  0  0  0  0  0  0  0
   20.7900   -9.3268  -15.4777 C   0  0  2  0  0  0  0  0  0  0  0  0
   21.7031  -10.4464  -15.3824 N   0  0  0  0  0  0  0  0  0  0  0  0
   21.4804   -8.0374  -15.2033 C   0  0  0  0  0  0  0  0  0  0  0  0
   22.7069   -8.0540  -14.9292 O   0  0  0  0  0  0  0  0  0  0  0  0
   20.8257   -6.7910  -15.2355 N   0  0  0  0  0  0  0  0  0  0  0  0
   21.5507   -5.5030  -15.0653 C   0  0  1  0  0  0  0  0  0  0  0  0
   22.3244   -5.2184  -16.3332 C   0  0  0  0  0  0  0  0  0  0  0  0
   22.8885   -3.8752  -16.2891 C   0  0  0  0  0  0  0  0  0  0  0  0
   23.7481   -3.5566  -15.4525 O   0  0  0  0  0  0  0  0  0  0  0  0
   20.4794   -4.5283  -14.7914 C   0  0  0  0  0  0  0  0  0  0  0  0
   20.6767   -3.3944  -14.0448 O   0  0  0  0  0  0  0  0  0  0  0  0
   22.4663   -2.9137  -17.1975 O   0  0  0  0  0  0  0  0  0  0  0  0
   19.3291   -4.7157  -15.2456 O   0  0  0  0  0  0  0  0  0  0  0  0
  1  2  1  0
  2  3  1  0
  4  5  1  0
  4  3  1  0
  5  6  1  6
  5  7  1  0
  7  8  2  0
 11 10  1  1
 10  9  1  0
 12  7  1  0
 12 11  1  0
 13 11  1  0
 13 15  1  0
 14 13  2  0
 16 15  1  0
 16 17  1  6
 17 18  1  0
 18 19  2  0
 18 22  1  0
 20 21  1  0
 20 16  1  0
 23 20  2  0
M  END
$$$$
