MSD.pdb
     RDKit          3D

 23 22  0  0  1  0  0  0  0  0999 V2000
   20.1173  -24.9988  -16.0257 C   0  0  0  0  0  0  0  0  0  0  0  0
   18.8212  -23.7464  -15.7590 S   0  0  0  0  0  0  0  0  0  0  0  0
   19.4133  -22.6168  -14.4915 C   0  0  0  0  0  0  0  0  0  0  0  0
   20.8420  -22.1854  -14.6973 C   0  0  0  0  0  0  0  0  0  0  0  0
   21.1932  -21.2985  -13.5019 C   0  0  2  0  0  0  0  0  0  0  0  0
   20.1743  -20.2642  -13.3961 N   0  0  0  0  0  0  0  0  0  0  0  0
   22.5486  -20.7036  -13.6480 C   0  0  0  0  0  0  0  0  0  0  0  0
   22.6088  -19.5092  -14.0391 O   0  0  0  0  0  0  0  0  0  0  0  0
   25.6140  -22.5895  -11.9975 O   0  0  0  0  0  0  0  0  0  0  0  0
   25.9699  -21.3105  -12.4340 C   0  0  0  0  0  0  0  0  0  0  0  0
   25.0401  -20.9641  -13.5937 C   0  0  2  0  0  0  0  0  0  0  0  0
   23.7058  -21.4719  -13.3528 N   0  0  0  0  0  0  0  0  0  0  0  0
   25.6364  -21.5619  -14.8190 C   0  0  0  0  0  0  0  0  0  0  0  0
   25.3206  -22.7369  -15.1344 O   0  0  0  0  0  0  0  0  0  0  0  0
   26.5422  -20.8740  -15.6493 N   0  0  0  0  0  0  0  0  0  0  0  0
   27.1875  -21.5114  -16.8287 C   0  0  1  0  0  0  0  0  0  0  0  0
   27.7972  -20.4248  -17.6858 C   0  0  0  0  0  0  0  0  0  0  0  0
   27.4409  -20.6262  -19.0847 C   0  0  0  0  0  0  0  0  0  0  0  0
   26.7182  -21.5692  -19.4437 O   0  0  0  0  0  0  0  0  0  0  0  0
   28.1785  -22.4279  -16.2368 C   0  0  0  0  0  0  0  0  0  0  0  0
   28.3882  -23.7009  -16.7032 O   0  0  0  0  0  0  0  0  0  0  0  0
   27.9122  -19.7520  -20.0550 O   0  0  0  0  0  0  0  0  0  0  0  0
   28.8739  -22.0578  -15.2651 O   0  0  0  0  0  0  0  0  0  0  0  0
  1  2  1  0
  2  3  1  0
  4  5  1  0
  4  3  1  0
  5  6  1  6
  5  7  1  0
  7  8  2  0
 11 10  1  1
 10  9  1  0
 12  7  1  0
 12 11  1  0
 13 11  1  0
 13 15  1  0
 14 13  2  0
 16 15  1  0
 16 17  1  6
 17 18  1  0
 18 19  2  0
 18 22  1  0
 20 21  1  0
 20 16  1  0
 23 20  2  0
M  END
$$$$
