MSD.pdb
     RDKit          3D

 23 22  0  0  1  0  0  0  0  0999 V2000
   19.8722  -17.4535  -14.2942 C   0  0  0  0  0  0  0  0  0  0  0  0
   21.0508  -18.5150  -15.1906 S   0  0  0  0  0  0  0  0  0  0  0  0
   21.8007  -17.5176  -16.4851 C   0  0  0  0  0  0  0  0  0  0  0  0
   22.3413  -16.2024  -15.9870 C   0  0  0  0  0  0  0  0  0  0  0  0
   21.5236  -15.1159  -16.6868 C   0  0  2  0  0  0  0  0  0  0  0  0
   21.7518  -15.2356  -18.1195 N   0  0  0  0  0  0  0  0  0  0  0  0
   21.8910  -13.7606  -16.1963 C   0  0  0  0  0  0  0  0  0  0  0  0
   21.7846  -13.5527  -14.9598 O   0  0  0  0  0  0  0  0  0  0  0  0
   23.4031  -11.0747  -18.8781 O   0  0  0  0  0  0  0  0  0  0  0  0
   23.8263  -10.8744  -17.5614 C   0  0  0  0  0  0  0  0  0  0  0  0
   22.7404  -11.4485  -16.6554 C   0  0  2  0  0  0  0  0  0  0  0  0
   22.3385  -12.7650  -17.1045 N   0  0  0  0  0  0  0  0  0  0  0  0
   21.6009  -10.4919  -16.6871 C   0  0  0  0  0  0  0  0  0  0  0  0
   20.7210  -10.6281  -17.5742 O   0  0  0  0  0  0  0  0  0  0  0  0
   21.4567   -9.4349  -15.7678 N   0  0  0  0  0  0  0  0  0  0  0  0
   20.3316   -8.4639  -15.8368 C   0  0  1  0  0  0  0  0  0  0  0  0
   19.6679   -8.4036  -14.4792 C   0  0  0  0  0  0  0  0  0  0  0  0
   18.7538   -9.5268  -14.3143 C   0  0  0  0  0  0  0  0  0  0  0  0
   18.3820  -10.2116  -15.2803 O   0  0  0  0  0  0  0  0  0  0  0  0
   20.9783   -7.2019  -16.2388 C   0  0  0  0  0  0  0  0  0  0  0  0
   22.3392   -7.0617  -16.3413 O   0  0  0  0  0  0  0  0  0  0  0  0
   18.2758   -9.8547  -13.0526 O   0  0  0  0  0  0  0  0  0  0  0  0
   20.2827   -6.1968  -16.5040 O   0  0  0  0  0  0  0  0  0  0  0  0
  1  2  1  0
  2  3  1  0
  4  5  1  0
  4  3  1  0
  5  6  1  6
  5  7  1  0
  7  8  2  0
 11 10  1  6
 10  9  1  0
 12  7  1  0
 12 11  1  0
 13 11  1  0
 13 15  1  0
 14 13  2  0
 16 15  1  0
 16 17  1  1
 17 18  1  0
 18 19  2  0
 18 22  1  0
 20 21  1  0
 20 16  1  0
 23 20  2  0
M  END
$$$$
