MSD.pdb
     RDKit          3D

 23 22  0  0  1  0  0  0  0  0999 V2000
   28.2644  -13.5572  -15.0974 C   0  0  0  0  0  0  0  0  0  0  0  0
   27.2665  -12.4086  -16.0995 S   0  0  0  0  0  0  0  0  0  0  0  0
   25.7998  -11.9930  -15.1460 C   0  0  0  0  0  0  0  0  0  0  0  0
   24.9162  -10.9778  -15.8230 C   0  0  0  0  0  0  0  0  0  0  0  0
   23.4860  -11.5016  -15.6848 C   0  0  2  0  0  0  0  0  0  0  0  0
   23.2405  -12.4295  -16.7792 N   0  0  0  0  0  0  0  0  0  0  0  0
   22.4984  -10.3894  -15.6924 C   0  0  0  0  0  0  0  0  0  0  0  0
   22.1906   -9.9069  -16.8129 O   0  0  0  0  0  0  0  0  0  0  0  0
   21.1793   -8.7432  -12.1064 O   0  0  0  0  0  0  0  0  0  0  0  0
   20.2246   -8.8094  -13.1249 C   0  0  0  0  0  0  0  0  0  0  0  0
   20.9879   -8.8260  -14.4464 C   0  0  2  0  0  0  0  0  0  0  0  0
   21.9437   -9.9131  -14.4750 N   0  0  0  0  0  0  0  0  0  0  0  0
   21.6624   -7.5056  -14.5725 C   0  0  0  0  0  0  0  0  0  0  0  0
   22.9180   -7.4690  -14.6144 O   0  0  0  0  0  0  0  0  0  0  0  0
   20.9614   -6.2865  -14.6480 N   0  0  0  0  0  0  0  0  0  0  0  0
   21.6377   -4.9920  -14.9314 C   0  0  1  0  0  0  0  0  0  0  0  0
   22.2167   -5.0503  -16.3272 C   0  0  0  0  0  0  0  0  0  0  0  0
   22.6981   -3.7345  -16.7290 C   0  0  0  0  0  0  0  0  0  0  0  0
   23.0478   -2.8857  -15.8938 O   0  0  0  0  0  0  0  0  0  0  0  0
   20.5666   -3.9919  -14.7735 C   0  0  0  0  0  0  0  0  0  0  0  0
   19.2680   -4.3297  -14.4875 O   0  0  0  0  0  0  0  0  0  0  0  0
   22.7746   -3.4034  -18.0753 O   0  0  0  0  0  0  0  0  0  0  0  0
   20.8214   -2.7739  -14.9003 O   0  0  0  0  0  0  0  0  0  0  0  0
  1  2  1  0
  2  3  1  0
  4  5  1  0
  4  3  1  0
  5  6  1  6
  5  7  1  0
  7  8  2  0
 11 10  1  1
 10  9  1  0
 12  7  1  0
 12 11  1  0
 13 11  1  0
 13 15  1  0
 14 13  2  0
 16 15  1  0
 16 17  1  6
 17 18  1  0
 18 19  2  0
 18 22  1  0
 20 21  1  0
 20 16  1  0
 23 20  2  0
M  END
$$$$
