YGV.pdb
     RDKit          3D

 24 24  0  0  1  0  0  0  0  0999 V2000
    6.9262  -11.2991   29.2545 O   0  0  0  0  0  0  0  0  0  0  0  0
    7.0481  -12.0402   28.0809 C   0  0  0  0  0  0  0  0  0  0  0  0
    5.9842  -12.2373   27.2243 C   0  0  0  0  0  0  0  0  0  0  0  0
    6.1187  -12.9739   26.0646 C   0  0  0  0  0  0  0  0  0  0  0  0
    7.3220  -13.5456   25.7100 C   0  0  0  0  0  0  0  0  0  0  0  0
    7.4982  -14.3419   24.4715 C   0  0  0  0  0  0  0  0  0  0  0  0
    6.8098  -15.6672   24.6875 C   0  0  2  0  0  0  0  0  0  0  0  0
    7.6137  -16.4719   25.5877 N   0  0  0  0  0  0  0  0  0  0  0  0
    6.5600  -16.3786   23.4021 C   0  0  0  0  0  0  0  0  0  0  0  0
    5.7374  -15.9100   22.5775 O   0  0  0  0  0  0  0  0  0  0  0  0
    8.3937  -13.3568   26.5566 C   0  0  0  0  0  0  0  0  0  0  0  0
    8.2466  -12.6174   27.7148 C   0  0  0  0  0  0  0  0  0  0  0  0
    7.2217  -17.5872   23.0571 N   0  0  0  0  0  0  0  0  0  0  0  0
    7.1067  -18.1582   21.7598 C   0  0  0  0  0  0  0  0  0  0  0  0
    7.6274  -17.3753   20.6431 C   0  0  0  0  0  0  0  0  0  0  0  0
    7.4277  -17.8766   19.4800 O   0  0  0  0  0  0  0  0  0  0  0  0
    8.8583  -13.2050   20.4345 C   0  0  0  0  0  0  0  0  0  0  0  0
    8.2600  -14.0829   19.3846 C   0  0  2  0  0  0  0  0  0  0  0  0
    6.7604  -14.0101   19.4707 C   0  0  0  0  0  0  0  0  0  0  0  0
    8.7821  -15.4982   19.4970 C   0  0  2  0  0  0  0  0  0  0  0  0
    8.3122  -16.1583   20.6873 N   0  0  0  0  0  0  0  0  0  0  0  0
   10.2552  -15.5581   19.3906 C   0  0  0  0  0  0  0  0  0  0  0  0
   10.9568  -15.8858   20.3780 O   0  0  0  0  0  0  0  0  0  0  0  0
   10.9085  -15.2575   18.2085 O   0  0  0  0  0  0  0  0  0  0  0  0
  2  1  1  0
  2  3  2  0
  4  3  1  0
  5  4  2  0
  6  7  1  0
  6  5  1  0
  7  9  1  0
  7  8  1  1
  9 10  2  0
  9 13  1  0
 11 12  2  0
 11  5  1  0
 12  2  1  0
 13 14  1  0
 15 14  1  0
 15 21  1  0
 16 15  2  0
 18 17  1  1
 19 18  1  0
 20 21  1  1
 20 22  1  0
 20 18  1  0
 22 23  2  0
 22 24  1  0
M  END
$$$$
