YGV.pdb
     RDKit          3D

 24 24  0  0  1  0  0  0  0  0999 V2000
   11.4751  -14.9414   30.0499 O   0  0  0  0  0  0  0  0  0  0  0  0
   10.5102  -14.8836   29.0462 C   0  0  0  0  0  0  0  0  0  0  0  0
   10.1746  -13.7010   28.4191 C   0  0  0  0  0  0  0  0  0  0  0  0
    9.2166  -13.6578   27.4260 C   0  0  0  0  0  0  0  0  0  0  0  0
    8.5524  -14.7942   27.0161 C   0  0  0  0  0  0  0  0  0  0  0  0
    7.5191  -14.7802   25.9526 C   0  0  0  0  0  0  0  0  0  0  0  0
    7.5959  -16.1048   25.2340 C   0  0  2  0  0  0  0  0  0  0  0  0
    8.9176  -16.2475   24.6537 N   0  0  0  0  0  0  0  0  0  0  0  0
    6.5326  -16.2364   24.1982 C   0  0  0  0  0  0  0  0  0  0  0  0
    5.8739  -15.2273   23.8461 O   0  0  0  0  0  0  0  0  0  0  0  0
    8.8778  -15.9829   27.6341 C   0  0  0  0  0  0  0  0  0  0  0  0
    9.8385  -16.0135   28.6271 C   0  0  0  0  0  0  0  0  0  0  0  0
    6.2214  -17.4750   23.5764 N   0  0  0  0  0  0  0  0  0  0  0  0
    7.0193  -18.0050   22.5254 C   0  0  0  0  0  0  0  0  0  0  0  0
    7.3465  -17.1048   21.4238 C   0  0  0  0  0  0  0  0  0  0  0  0
    7.1362  -17.5742   20.2493 O   0  0  0  0  0  0  0  0  0  0  0  0
    8.9090  -12.9816   21.4479 C   0  0  0  0  0  0  0  0  0  0  0  0
    8.2727  -13.7030   20.3052 C   0  0  2  0  0  0  0  0  0  0  0  0
    6.8046  -13.3791   20.2683 C   0  0  0  0  0  0  0  0  0  0  0  0
    8.5396  -15.1899   20.3845 C   0  0  2  0  0  0  0  0  0  0  0  0
    7.8580  -15.8065   21.4929 N   0  0  0  0  0  0  0  0  0  0  0  0
    9.9857  -15.4957   20.4006 C   0  0  0  0  0  0  0  0  0  0  0  0
   10.7217  -15.1661   19.4391 O   0  0  0  0  0  0  0  0  0  0  0  0
   10.5755  -16.1508   21.4672 O   0  0  0  0  0  0  0  0  0  0  0  0
  2  1  1  0
  2  3  2  0
  4  3  1  0
  5  4  2  0
  6  7  1  0
  6  5  1  0
  7  9  1  0
  7  8  1  6
  9 10  2  0
  9 13  1  0
 11 12  2  0
 11  5  1  0
 12  2  1  0
 13 14  1  0
 15 14  1  0
 15 21  1  0
 16 15  2  0
 18 17  1  1
 19 18  1  0
 20 21  1  1
 20 22  1  0
 20 18  1  0
 22 23  2  0
 22 24  1  0
M  END
$$$$
