YGV.pdb
     RDKit          3D

 24 24  0  0  1  0  0  0  0  0999 V2000
   41.7105  -89.7661    4.7931 O   0  0  0  0  0  0  0  0  0  0  0  0
   42.8137  -89.0051    5.1748 C   0  0  0  0  0  0  0  0  0  0  0  0
   43.9460  -88.9111    4.3915 C   0  0  0  0  0  0  0  0  0  0  0  0
   45.0321  -88.1535    4.7816 C   0  0  0  0  0  0  0  0  0  0  0  0
   45.0343  -87.4568    5.9711 C   0  0  0  0  0  0  0  0  0  0  0  0
   46.1849  -86.6349    6.4177 C   0  0  0  0  0  0  0  0  0  0  0  0
   45.7636  -85.1884    6.3327 C   0  0  2  0  0  0  0  0  0  0  0  0
   45.4700  -84.7063    7.6690 N   0  0  0  0  0  0  0  0  0  0  0  0
   44.5989  -85.0023    5.4218 C   0  0  0  0  0  0  0  0  0  0  0  0
   44.7451  -84.3872    4.3372 O   0  0  0  0  0  0  0  0  0  0  0  0
   43.9094  -87.5417    6.7638 C   0  0  0  0  0  0  0  0  0  0  0  0
   42.8284  -88.3034    6.3625 C   0  0  0  0  0  0  0  0  0  0  0  0
   43.3034  -85.4978    5.7278 N   0  0  0  0  0  0  0  0  0  0  0  0
   42.3851  -85.8696    4.7076 C   0  0  0  0  0  0  0  0  0  0  0  0
   42.1283  -87.2962    4.5354 C   0  0  0  0  0  0  0  0  0  0  0  0
   41.2417  -87.7933    5.3169 O   0  0  0  0  0  0  0  0  0  0  0  0
   43.9274  -87.4224    1.3577 C   0  0  0  0  0  0  0  0  0  0  0  0
   42.5166  -87.8893    1.2074 C   0  0  2  0  0  0  0  0  0  0  0  0
   41.6371  -86.7159    0.8744 C   0  0  0  0  0  0  0  0  0  0  0  0
   42.0551  -88.6316    2.4422 C   0  0  2  0  0  0  0  0  0  0  0  0
   42.7270  -88.1782    3.6322 N   0  0  0  0  0  0  0  0  0  0  0  0
   42.1646  -90.0972    2.2839 C   0  0  0  0  0  0  0  0  0  0  0  0
   42.2841  -90.6123    1.1459 O   0  0  0  0  0  0  0  0  0  0  0  0
   42.1393  -90.9472    3.3754 O   0  0  0  0  0  0  0  0  0  0  0  0
  2  1  1  0
  2  3  2  0
  4  3  1  0
  5  4  2  0
  6  7  1  0
  6  5  1  0
  7  9  1  0
  7  8  1  1
  9 10  2  0
  9 13  1  0
 11 12  2  0
 11  5  1  0
 12  2  1  0
 13 14  1  0
 15 14  1  0
 15 21  1  0
 16 15  2  0
 18 17  1  1
 19 18  1  0
 20 21  1  1
 20 22  1  0
 20 18  1  0
 22 23  2  0
 22 24  1  0
M  END
$$$$
