YGV.pdb
     RDKit          3D

 24 24  0  0  1  0  0  0  0  0999 V2000
   11.3516  -14.6386   30.2820 O   0  0  0  0  0  0  0  0  0  0  0  0
   10.4541  -14.6887   29.2174 C   0  0  0  0  0  0  0  0  0  0  0  0
   10.3939  -13.6950   28.2617 C   0  0  0  0  0  0  0  0  0  0  0  0
    9.4997  -13.7571   27.2118 C   0  0  0  0  0  0  0  0  0  0  0  0
    8.6267  -14.8147   27.0710 C   0  0  0  0  0  0  0  0  0  0  0  0
    7.6550  -14.9101   25.9549 C   0  0  0  0  0  0  0  0  0  0  0  0
    7.5134  -16.3714   25.6059 C   0  0  2  0  0  0  0  0  0  0  0  0
    8.8292  -16.9820   25.6018 N   0  0  0  0  0  0  0  0  0  0  0  0
    6.8223  -16.5654   24.2999 C   0  0  0  0  0  0  0  0  0  0  0  0
    5.8527  -15.8306   23.9901 O   0  0  0  0  0  0  0  0  0  0  0  0
    8.6758  -15.8149   28.0187 C   0  0  0  0  0  0  0  0  0  0  0  0
    9.5754  -15.7415   29.0652 C   0  0  0  0  0  0  0  0  0  0  0  0
    7.2159  -17.5630   23.3686 N   0  0  0  0  0  0  0  0  0  0  0  0
    6.5753  -17.7016   22.1065 C   0  0  0  0  0  0  0  0  0  0  0  0
    7.0756  -16.8712   21.0151 C   0  0  0  0  0  0  0  0  0  0  0  0
    6.6306  -17.1684   19.8499 O   0  0  0  0  0  0  0  0  0  0  0  0
    8.9135  -12.9490   20.9859 C   0  0  0  0  0  0  0  0  0  0  0  0
    8.1483  -13.6561   19.9157 C   0  0  2  0  0  0  0  0  0  0  0  0
    6.6803  -13.3789   20.0880 C   0  0  0  0  0  0  0  0  0  0  0  0
    8.4650  -15.1353   19.9077 C   0  0  2  0  0  0  0  0  0  0  0  0
    7.9734  -15.8031   21.0849 N   0  0  0  0  0  0  0  0  0  0  0  0
    9.9053  -15.3950   19.6998 C   0  0  0  0  0  0  0  0  0  0  0  0
   10.6003  -15.9161   20.6054 O   0  0  0  0  0  0  0  0  0  0  0  0
   10.5341  -15.0757   18.5094 O   0  0  0  0  0  0  0  0  0  0  0  0
  2  1  1  0
  2  3  2  0
  4  3  1  0
  5  4  2  0
  6  7  1  0
  6  5  1  0
  7  9  1  0
  7  8  1  6
  9 10  2  0
  9 13  1  0
 11 12  2  0
 11  5  1  0
 12  2  1  0
 13 14  1  0
 15 14  1  0
 15 21  1  0
 16 15  2  0
 18 17  1  1
 19 18  1  0
 20 21  1  1
 20 22  1  0
 20 18  1  0
 22 23  2  0
 22 24  1  0
M  END
$$$$
