YGV.pdb
     RDKit          3D

 24 24  0  0  1  0  0  0  0  0999 V2000
   11.2587  -14.5827   30.7987 O   0  0  0  0  0  0  0  0  0  0  0  0
   10.7129  -15.2340   29.6944 C   0  0  0  0  0  0  0  0  0  0  0  0
   11.1409  -16.4835   29.2946 C   0  0  0  0  0  0  0  0  0  0  0  0
   10.5914  -17.1176   28.1984 C   0  0  0  0  0  0  0  0  0  0  0  0
    9.5903  -16.5310   27.4539 C   0  0  0  0  0  0  0  0  0  0  0  0
    8.9803  -17.1863   26.2718 C   0  0  0  0  0  0  0  0  0  0  0  0
    7.7175  -17.8683   26.7378 C   0  0  2  0  0  0  0  0  0  0  0  0
    8.0766  -19.0165   27.5483 N   0  0  0  0  0  0  0  0  0  0  0  0
    6.8462  -18.2633   25.5952 C   0  0  0  0  0  0  0  0  0  0  0  0
    5.7129  -18.7571   25.8142 O   0  0  0  0  0  0  0  0  0  0  0  0
    9.1529  -15.2824   27.8420 C   0  0  0  0  0  0  0  0  0  0  0  0
    9.7108  -14.6577   28.9412 C   0  0  0  0  0  0  0  0  0  0  0  0
    7.2443  -18.1048   24.2409 N   0  0  0  0  0  0  0  0  0  0  0  0
    6.4486  -17.3855   23.3073 C   0  0  0  0  0  0  0  0  0  0  0  0
    6.5819  -15.9318   23.3051 C   0  0  0  0  0  0  0  0  0  0  0  0
    6.2125  -15.3476   22.2252 O   0  0  0  0  0  0  0  0  0  0  0  0
    7.8831  -12.8663   26.3768 C   0  0  0  0  0  0  0  0  0  0  0  0
    6.9282  -12.8322   25.2287 C   0  0  2  0  0  0  0  0  0  0  0  0
    5.5516  -13.1914   25.7160 C   0  0  0  0  0  0  0  0  0  0  0  0
    7.3994  -13.7260   24.1028 C   0  0  2  0  0  0  0  0  0  0  0  0
    7.0602  -15.1073   24.3266 N   0  0  0  0  0  0  0  0  0  0  0  0
    8.8423  -13.5607   23.8278 C   0  0  0  0  0  0  0  0  0  0  0  0
    9.6312  -14.5305   23.9366 O   0  0  0  0  0  0  0  0  0  0  0  0
    9.3711  -12.3411   23.4437 O   0  0  0  0  0  0  0  0  0  0  0  0
  2  1  1  0
  2  3  2  0
  4  3  1  0
  5  4  2  0
  6  7  1  0
  6  5  1  0
  7  9  1  0
  7  8  1  6
  9 10  2  0
  9 13  1  0
 11 12  2  0
 11  5  1  0
 12  2  1  0
 13 14  1  0
 15 14  1  0
 15 21  1  0
 16 15  2  0
 18 17  1  1
 19 18  1  0
 20 21  1  1
 20 22  1  0
 20 18  1  0
 22 23  2  0
 22 24  1  0
M  END
$$$$
