YGV.pdb
     RDKit          3D

 24 24  0  0  1  0  0  0  0  0999 V2000
    9.4611  -12.3838   17.6291 O   0  0  0  0  0  0  0  0  0  0  0  0
    8.7364  -12.9633   18.6686 C   0  0  0  0  0  0  0  0  0  0  0  0
    9.3306  -13.3386   19.8563 C   0  0  0  0  0  0  0  0  0  0  0  0
    8.6007  -13.9119   20.8783 C   0  0  0  0  0  0  0  0  0  0  0  0
    7.2457  -14.1352   20.7582 C   0  0  0  0  0  0  0  0  0  0  0  0
    6.4347  -14.7488   21.8374 C   0  0  0  0  0  0  0  0  0  0  0  0
    6.7196  -16.2306   21.8266 C   0  0  2  0  0  0  0  0  0  0  0  0
    5.8550  -16.8671   20.8511 N   0  0  0  0  0  0  0  0  0  0  0  0
    6.5513  -16.8377   23.1771 C   0  0  0  0  0  0  0  0  0  0  0  0
    5.4121  -16.8894   23.7022 O   0  0  0  0  0  0  0  0  0  0  0  0
    6.6389  -13.7651   19.5768 C   0  0  0  0  0  0  0  0  0  0  0  0
    7.3801  -13.1920   18.5609 C   0  0  0  0  0  0  0  0  0  0  0  0
    7.6408  -17.3724   23.9151 N   0  0  0  0  0  0  0  0  0  0  0  0
    7.6901  -17.2983   25.3344 C   0  0  0  0  0  0  0  0  0  0  0  0
    8.8618  -16.6574   25.9239 C   0  0  0  0  0  0  0  0  0  0  0  0
    9.8337  -16.4398   25.1165 O   0  0  0  0  0  0  0  0  0  0  0  0
    9.2426  -14.3793   29.5788 C   0  0  0  0  0  0  0  0  0  0  0  0
   10.0057  -14.2596   28.3004 C   0  0  2  0  0  0  0  0  0  0  0  0
    9.2705  -13.3382   27.3667 C   0  0  0  0  0  0  0  0  0  0  0  0
   10.2645  -15.6204   27.6922 C   0  0  2  0  0  0  0  0  0  0  0  0
    9.0518  -16.2576   27.2490 N   0  0  0  0  0  0  0  0  0  0  0  0
   11.0368  -16.4970   28.5979 C   0  0  0  0  0  0  0  0  0  0  0  0
   10.5135  -17.5212   29.0996 O   0  0  0  0  0  0  0  0  0  0  0  0
   12.3535  -16.2224   28.9226 O   0  0  0  0  0  0  0  0  0  0  0  0
  2  1  1  0
  2  3  2  0
  4  3  1  0
  5  4  2  0
  6  7  1  0
  6  5  1  0
  7  9  1  0
  7  8  1  6
  9 10  2  0
  9 13  1  0
 11 12  2  0
 11  5  1  0
 12  2  1  0
 13 14  1  0
 15 14  1  0
 15 21  1  0
 16 15  2  0
 18 17  1  1
 19 18  1  0
 20 21  1  1
 20 22  1  0
 20 18  1  0
 22 23  2  0
 22 24  1  0
M  END
$$$$
