FMF.pdb
     RDKit          3D

 31 32  0  0  1  0  0  0  0  0999 V2000
   18.5168  -12.0131  -16.2100 N   0  0  0  0  0  0  0  0  0  0  0  0
   18.9622  -10.7602  -16.8237 C   0  0  1  0  0  0  0  0  0  0  0  0
   17.7804   -9.8271  -16.9907 C   0  0  0  0  0  0  0  0  0  0  0  0
   16.9790  -10.3113  -18.1361 C   0  0  0  0  0  0  0  0  0  0  0  0
   15.8016  -11.0099  -17.9836 C   0  0  0  0  0  0  0  0  0  0  0  0
   15.0802  -11.4466  -19.0827 C   0  0  0  0  0  0  0  0  0  0  0  0
   15.5501  -11.1766  -20.3623 C   0  0  0  0  0  0  0  0  0  0  0  0
   16.7193  -10.4830  -20.5297 C   0  0  0  0  0  0  0  0  0  0  0  0
   17.4184  -10.0596  -19.4344 C   0  0  0  0  0  0  0  0  0  0  0  0
   20.0213  -10.1665  -15.9802 C   0  0  0  0  0  0  0  0  0  0  0  0
   19.9352  -10.2724  -14.7373 O   0  0  0  0  0  0  0  0  0  0  0  0
   26.9226  -10.4667  -14.7523 C   0  0  0  0  0  0  0  0  0  0  0  0
   26.1310   -9.6111  -16.1541 S   0  0  0  0  0  0  0  0  0  0  0  0
   24.6556   -8.7305  -15.5354 C   0  0  0  0  0  0  0  0  0  0  0  0
   23.4453   -9.3731  -16.1269 C   0  0  0  0  0  0  0  0  0  0  0  0
   22.1266   -8.8437  -15.6389 C   0  0  2  0  0  0  0  0  0  0  0  0
   21.1287   -9.4831  -16.5277 N   0  0  0  0  0  0  0  0  0  0  0  0
   21.9385   -7.3982  -15.7870 C   0  0  0  0  0  0  0  0  0  0  0  0
   21.8093   -6.8693  -16.9518 O   0  0  0  0  0  0  0  0  0  0  0  0
   21.8752   -6.4458  -14.7313 N   0  0  0  0  0  0  0  0  0  0  0  0
   21.7445   -5.0077  -14.9734 C   0  0  1  0  0  0  0  0  0  0  0  0
   21.1015   -4.3157  -13.8295 C   0  0  0  0  0  0  0  0  0  0  0  0
   21.0345   -2.8648  -14.0608 C   0  0  0  0  0  0  0  0  0  0  0  0
   22.1004   -2.0301  -13.8116 C   0  0  0  0  0  0  0  0  0  0  0  0
   22.0381   -0.6659  -14.0367 C   0  0  0  0  0  0  0  0  0  0  0  0
   20.8797   -0.0796  -14.5296 C   0  0  0  0  0  0  0  0  0  0  0  0
   19.8143   -0.9013  -14.7802 C   0  0  0  0  0  0  0  0  0  0  0  0
   19.8799   -2.2503  -14.5565 C   0  0  0  0  0  0  0  0  0  0  0  0
   23.0899   -4.4902  -15.2171 C   0  0  0  0  0  0  0  0  0  0  0  0
   23.3436   -3.7313  -16.3369 O   0  0  0  0  0  0  0  0  0  0  0  0
   24.0296   -4.7246  -14.4263 O   0  0  0  0  0  0  0  0  0  0  0  0
  2  1  1  1
  3  4  1  0
  3  2  1  0
  4  5  2  0
  5  6  1  0
  7  6  2  0
  8  7  1  0
  9  8  2  0
  9  4  1  0
 10  2  1  0
 10 11  2  0
 12 13  1  0
 13 14  1  0
 16 15  1  6
 15 14  1  0
 16 17  1  0
 17 10  1  0
 18 16  1  0
 19 18  2  0
 20 18  1  0
 21 22  1  1
 21 20  1  0
 22 23  1  0
 23 28  1  0
 24 23  2  0
 24 25  1  0
 25 26  2  0
 26 27  1  0
 28 27  2  0
 29 30  1  0
 29 21  1  0
 31 29  2  0
M  END
$$$$
