FMF.pdb
     RDKit          3D

 31 32  0  0  1  0  0  0  0  0999 V2000
   25.5895  -17.8337  -15.7488 N   0  0  0  0  0  0  0  0  0  0  0  0
   26.4193  -18.5042  -14.7455 C   0  0  1  0  0  0  0  0  0  0  0  0
   27.7023  -17.7245  -14.5428 C   0  0  0  0  0  0  0  0  0  0  0  0
   28.5415  -17.9117  -15.7466 C   0  0  0  0  0  0  0  0  0  0  0  0
   29.2075  -19.0862  -16.0195 C   0  0  0  0  0  0  0  0  0  0  0  0
   29.9842  -19.2215  -17.1586 C   0  0  0  0  0  0  0  0  0  0  0  0
   30.0951  -18.1554  -18.0430 C   0  0  0  0  0  0  0  0  0  0  0  0
   29.4386  -16.9812  -17.7851 C   0  0  0  0  0  0  0  0  0  0  0  0
   28.6767  -16.8650  -16.6567 C   0  0  0  0  0  0  0  0  0  0  0  0
   25.6442  -18.6300  -13.4930 C   0  0  0  0  0  0  0  0  0  0  0  0
   24.9321  -17.6710  -13.1232 O   0  0  0  0  0  0  0  0  0  0  0  0
   21.6187  -22.4693  -12.8650 C   0  0  0  0  0  0  0  0  0  0  0  0
   21.1542  -21.5162  -11.3819 S   0  0  0  0  0  0  0  0  0  0  0  0
   22.6607  -20.7474  -10.6932 C   0  0  0  0  0  0  0  0  0  0  0  0
   23.6080  -20.4865  -11.8167 C   0  0  0  0  0  0  0  0  0  0  0  0
   24.9161  -19.8576  -11.4285 C   0  0  2  0  0  0  0  0  0  0  0  0
   25.6785  -19.7958  -12.6973 N   0  0  0  0  0  0  0  0  0  0  0  0
   25.7348  -20.6386  -10.4978 C   0  0  0  0  0  0  0  0  0  0  0  0
   26.3387  -21.7039  -10.8901 O   0  0  0  0  0  0  0  0  0  0  0  0
   25.9602  -20.3428   -9.1240 N   0  0  0  0  0  0  0  0  0  0  0  0
   26.6100  -21.2851   -8.2109 C   0  0  1  0  0  0  0  0  0  0  0  0
   28.0021  -20.8766   -7.9013 C   0  0  0  0  0  0  0  0  0  0  0  0
   28.0532  -20.0626   -6.6775 C   0  0  0  0  0  0  0  0  0  0  0  0
   27.6866  -18.7358   -6.6606 C   0  0  0  0  0  0  0  0  0  0  0  0
   27.7284  -17.9730   -5.5064 C   0  0  0  0  0  0  0  0  0  0  0  0
   28.1486  -18.5266   -4.3041 C   0  0  0  0  0  0  0  0  0  0  0  0
   28.5154  -19.8451   -4.3108 C   0  0  0  0  0  0  0  0  0  0  0  0
   28.4725  -20.5964   -5.4545 C   0  0  0  0  0  0  0  0  0  0  0  0
   25.7928  -21.3410   -7.0000 C   0  0  0  0  0  0  0  0  0  0  0  0
   26.1160  -22.2191   -5.9907 O   0  0  0  0  0  0  0  0  0  0  0  0
   24.7925  -20.6045   -6.8563 O   0  0  0  0  0  0  0  0  0  0  0  0
  2  1  1  6
  3  4  1  0
  3  2  1  0
  4  5  2  0
  5  6  1  0
  7  6  2  0
  8  7  1  0
  9  8  2  0
  9  4  1  0
 10  2  1  0
 10 11  2  0
 12 13  1  0
 13 14  1  0
 16 15  1  6
 15 14  1  0
 16 17  1  0
 17 10  1  0
 18 16  1  0
 19 18  2  0
 20 18  1  0
 21 22  1  1
 21 20  1  0
 22 23  1  0
 23 28  1  0
 24 23  2  0
 24 25  1  0
 25 26  2  0
 26 27  1  0
 28 27  2  0
 29 30  1  0
 29 21  1  0
 31 29  2  0
M  END
$$$$
