FMF.pdb
     RDKit          3D

 31 32  0  0  1  0  0  0  0  0999 V2000
   26.4806   -6.8100  -20.7286 N   0  0  0  0  0  0  0  0  0  0  0  0
   26.0063   -6.7194  -19.3460 C   0  0  1  0  0  0  0  0  0  0  0  0
   25.1264   -5.4962  -19.1889 C   0  0  0  0  0  0  0  0  0  0  0  0
   25.9922   -4.3002  -19.2807 C   0  0  0  0  0  0  0  0  0  0  0  0
   26.5513   -3.6945  -18.1771 C   0  0  0  0  0  0  0  0  0  0  0  0
   27.3571   -2.5750  -18.3055 C   0  0  0  0  0  0  0  0  0  0  0  0
   27.6073   -2.0518  -19.5683 C   0  0  0  0  0  0  0  0  0  0  0  0
   27.0583   -2.6433  -20.6752 C   0  0  0  0  0  0  0  0  0  0  0  0
   26.2658   -3.7471  -20.5303 C   0  0  0  0  0  0  0  0  0  0  0  0
   25.2875   -7.9657  -19.0062 C   0  0  0  0  0  0  0  0  0  0  0  0
   24.7324   -8.6127  -19.9210 O   0  0  0  0  0  0  0  0  0  0  0  0
   26.8221  -13.0676  -15.2481 C   0  0  0  0  0  0  0  0  0  0  0  0
   27.6868  -11.4870  -15.5274 S   0  0  0  0  0  0  0  0  0  0  0  0
   26.4388  -10.1961  -15.8604 C   0  0  0  0  0  0  0  0  0  0  0  0
   25.5630  -10.6683  -16.9728 C   0  0  0  0  0  0  0  0  0  0  0  0
   24.4821   -9.7144  -17.3960 C   0  0  2  0  0  0  0  0  0  0  0  0
   25.2046   -8.4534  -17.6839 N   0  0  0  0  0  0  0  0  0  0  0  0
   23.4925   -9.3917  -16.3648 C   0  0  0  0  0  0  0  0  0  0  0  0
   23.8590   -8.8993  -15.2350 O   0  0  0  0  0  0  0  0  0  0  0  0
   22.0837   -9.5657  -16.4675 N   0  0  0  0  0  0  0  0  0  0  0  0
   21.1640   -9.2066  -15.3862 C   0  0  1  0  0  0  0  0  0  0  0  0
   20.3884   -7.9841  -15.7099 C   0  0  0  0  0  0  0  0  0  0  0  0
   21.2680   -6.8086  -15.7960 C   0  0  0  0  0  0  0  0  0  0  0  0
   21.8003   -6.3739  -16.9888 C   0  0  0  0  0  0  0  0  0  0  0  0
   22.6222   -5.2632  -17.0691 C   0  0  0  0  0  0  0  0  0  0  0  0
   22.9455   -4.5351  -15.9316 C   0  0  0  0  0  0  0  0  0  0  0  0
   22.4212   -4.9597  -14.7408 C   0  0  0  0  0  0  0  0  0  0  0  0
   21.6085   -6.0587  -14.6654 C   0  0  0  0  0  0  0  0  0  0  0  0
   20.2819  -10.3532  -15.1755 C   0  0  0  0  0  0  0  0  0  0  0  0
   20.3507  -11.4393  -16.0181 O   0  0  0  0  0  0  0  0  0  0  0  0
   19.4530  -10.3722  -14.2396 O   0  0  0  0  0  0  0  0  0  0  0  0
  2  1  1  6
  3  4  1  0
  3  2  1  0
  4  5  2  0
  5  6  1  0
  7  6  2  0
  8  7  1  0
  9  8  2  0
  9  4  1  0
 10  2  1  0
 10 11  2  0
 12 13  1  0
 13 14  1  0
 16 15  1  1
 15 14  1  0
 16 17  1  0
 17 10  1  0
 18 16  1  0
 19 18  2  0
 20 18  1  0
 21 22  1  6
 21 20  1  0
 22 23  1  0
 23 28  1  0
 24 23  2  0
 24 25  1  0
 25 26  2  0
 26 27  1  0
 28 27  2  0
 29 30  1  0
 29 21  1  0
 31 29  2  0
M  END
$$$$
