FMF.pdb
     RDKit          3D

 31 32  0  0  1  0  0  0  0  0999 V2000
   22.8140   -7.6400  -16.8038 N   0  0  0  0  0  0  0  0  0  0  0  0
   22.1057   -7.7394  -15.5258 C   0  0  1  0  0  0  0  0  0  0  0  0
   23.0690   -7.4703  -14.3878 C   0  0  0  0  0  0  0  0  0  0  0  0
   24.1321   -8.4976  -14.4414 C   0  0  0  0  0  0  0  0  0  0  0  0
   25.3859   -8.2511  -14.9558 C   0  0  0  0  0  0  0  0  0  0  0  0
   26.3544   -9.2411  -14.9882 C   0  0  0  0  0  0  0  0  0  0  0  0
   26.0586  -10.5057  -14.4938 C   0  0  0  0  0  0  0  0  0  0  0  0
   24.8161  -10.7658  -13.9791 C   0  0  0  0  0  0  0  0  0  0  0  0
   23.8726   -9.7776  -13.9550 C   0  0  0  0  0  0  0  0  0  0  0  0
   20.9759   -6.7860  -15.5319 C   0  0  0  0  0  0  0  0  0  0  0  0
   20.9931   -5.8326  -16.3407 O   0  0  0  0  0  0  0  0  0  0  0  0
   14.6762   -5.3044  -18.3840 C   0  0  0  0  0  0  0  0  0  0  0  0
   16.3168   -6.0362  -18.0732 S   0  0  0  0  0  0  0  0  0  0  0  0
   16.8598   -5.5488  -16.3991 C   0  0  0  0  0  0  0  0  0  0  0  0
   18.1549   -6.2319  -16.1102 C   0  0  0  0  0  0  0  0  0  0  0  0
   18.7345   -5.9728  -14.7484 C   0  0  2  0  0  0  0  0  0  0  0  0
   19.8758   -6.9128  -14.6561 N   0  0  0  0  0  0  0  0  0  0  0  0
   17.8527   -6.2892  -13.6219 C   0  0  0  0  0  0  0  0  0  0  0  0
   17.4662   -7.4972  -13.4103 O   0  0  0  0  0  0  0  0  0  0  0  0
   17.3396   -5.3640  -12.6699 N   0  0  0  0  0  0  0  0  0  0  0  0
   16.3344   -5.7353  -11.6721 C   0  0  1  0  0  0  0  0  0  0  0  0
   16.9195   -5.8237  -10.3116 C   0  0  0  0  0  0  0  0  0  0  0  0
   15.8732   -6.0369   -9.3003 C   0  0  0  0  0  0  0  0  0  0  0  0
   15.5578   -7.2879   -8.8204 C   0  0  0  0  0  0  0  0  0  0  0  0
   14.5777   -7.4860   -7.8633 C   0  0  0  0  0  0  0  0  0  0  0  0
   13.8651   -6.4132   -7.3439 C   0  0  0  0  0  0  0  0  0  0  0  0
   14.1714   -5.1652   -7.8150 C   0  0  0  0  0  0  0  0  0  0  0  0
   15.1415   -4.9734   -8.7617 C   0  0  0  0  0  0  0  0  0  0  0  0
   15.2794   -4.7250  -11.7302 C   0  0  0  0  0  0  0  0  0  0  0  0
   13.9620   -5.0955  -11.5839 O   0  0  0  0  0  0  0  0  0  0  0  0
   15.5454   -3.5173  -11.9150 O   0  0  0  0  0  0  0  0  0  0  0  0
  2  1  1  6
  3  4  1  0
  3  2  1  0
  4  5  2  0
  5  6  1  0
  7  6  2  0
  8  7  1  0
  9  8  2  0
  9  4  1  0
 10  2  1  0
 10 11  2  0
 12 13  1  0
 13 14  1  0
 16 15  1  6
 15 14  1  0
 16 17  1  0
 17 10  1  0
 18 16  1  0
 19 18  2  0
 20 18  1  0
 21 22  1  1
 21 20  1  0
 22 23  1  0
 23 28  1  0
 24 23  2  0
 24 25  1  0
 25 26  2  0
 26 27  1  0
 28 27  2  0
 29 30  1  0
 29 21  1  0
 31 29  2  0
M  END
$$$$
