FMF.pdb
     RDKit          3D

 31 32  0  0  1  0  0  0  0  0999 V2000
   23.6937  -21.7466  -13.9817 N   0  0  0  0  0  0  0  0  0  0  0  0
   24.0950  -20.6711  -13.0722 C   0  0  1  0  0  0  0  0  0  0  0  0
   22.8670  -19.9214  -12.5975 C   0  0  0  0  0  0  0  0  0  0  0  0
   22.3698  -19.1051  -13.7265 C   0  0  0  0  0  0  0  0  0  0  0  0
   23.1144  -18.1048  -14.3119 C   0  0  0  0  0  0  0  0  0  0  0  0
   22.6121  -17.3623  -15.3680 C   0  0  0  0  0  0  0  0  0  0  0  0
   21.3353  -17.6289  -15.8472 C   0  0  0  0  0  0  0  0  0  0  0  0
   20.5829  -18.6205  -15.2753 C   0  0  0  0  0  0  0  0  0  0  0  0
   21.0940  -19.3433  -14.2342 C   0  0  0  0  0  0  0  0  0  0  0  0
   24.8550  -21.2569  -11.9476 C   0  0  0  0  0  0  0  0  0  0  0  0
   24.3797  -22.2442  -11.3453 O   0  0  0  0  0  0  0  0  0  0  0  0
   31.1975  -20.1116  -11.2968 C   0  0  0  0  0  0  0  0  0  0  0  0
   30.9275  -21.8283  -10.7455 S   0  0  0  0  0  0  0  0  0  0  0  0
   29.2827  -21.9310   -9.9586 C   0  0  0  0  0  0  0  0  0  0  0  0
   28.2634  -21.4622  -10.9429 C   0  0  0  0  0  0  0  0  0  0  0  0
   26.8514  -21.3994  -10.4333 C   0  0  2  0  0  0  0  0  0  0  0  0
   26.1006  -20.7414  -11.5279 N   0  0  0  0  0  0  0  0  0  0  0  0
   26.6513  -20.5678   -9.2436 C   0  0  0  0  0  0  0  0  0  0  0  0
   26.2808  -19.3416   -9.3549 O   0  0  0  0  0  0  0  0  0  0  0  0
   26.8262  -20.9777   -7.8920 N   0  0  0  0  0  0  0  0  0  0  0  0
   26.6878  -20.0546   -6.7639 C   0  0  1  0  0  0  0  0  0  0  0  0
   26.7027  -20.7709   -5.4648 C   0  0  0  0  0  0  0  0  0  0  0  0
   28.0687  -20.8597   -4.9270 C   0  0  0  0  0  0  0  0  0  0  0  0
   28.9247  -21.8854   -5.2588 C   0  0  0  0  0  0  0  0  0  0  0  0
   30.2124  -21.9636   -4.7574 C   0  0  0  0  0  0  0  0  0  0  0  0
   30.6958  -20.9952   -3.8872 C   0  0  0  0  0  0  0  0  0  0  0  0
   29.8519  -19.9715   -3.5512 C   0  0  0  0  0  0  0  0  0  0  0  0
   28.5790  -19.8975   -4.0493 C   0  0  0  0  0  0  0  0  0  0  0  0
   27.7906  -19.0991   -6.8544 C   0  0  0  0  0  0  0  0  0  0  0  0
   27.7051  -17.8855   -6.2109 O   0  0  0  0  0  0  0  0  0  0  0  0
   28.8219  -19.3572   -7.5126 O   0  0  0  0  0  0  0  0  0  0  0  0
  2  1  1  6
  3  4  1  0
  3  2  1  0
  4  5  2  0
  5  6  1  0
  7  6  2  0
  8  7  1  0
  9  8  2  0
  9  4  1  0
 10  2  1  0
 10 11  2  0
 12 13  1  0
 13 14  1  0
 16 15  1  6
 15 14  1  0
 16 17  1  0
 17 10  1  0
 18 16  1  0
 19 18  2  0
 20 18  1  0
 21 22  1  1
 21 20  1  0
 22 23  1  0
 23 28  1  0
 24 23  2  0
 24 25  1  0
 25 26  2  0
 26 27  1  0
 28 27  2  0
 29 30  1  0
 29 21  1  0
 31 29  2  0
M  END
$$$$
