FMF.pdb
     RDKit          3D

 31 32  0  0  1  0  0  0  0  0999 V2000
   19.7915  -17.9560  -16.4761 N   0  0  0  0  0  0  0  0  0  0  0  0
   21.2186  -17.7640  -16.7432 C   0  0  1  0  0  0  0  0  0  0  0  0
   21.6269  -16.3610  -16.3430 C   0  0  0  0  0  0  0  0  0  0  0  0
   21.1564  -15.4343  -17.3957 C   0  0  0  0  0  0  0  0  0  0  0  0
   20.2296  -14.4428  -17.1604 C   0  0  0  0  0  0  0  0  0  0  0  0
   19.8144  -13.5949  -18.1742 C   0  0  0  0  0  0  0  0  0  0  0  0
   20.3403  -13.7451  -19.4517 C   0  0  0  0  0  0  0  0  0  0  0  0
   21.2628  -14.7266  -19.7010 C   0  0  0  0  0  0  0  0  0  0  0  0
   21.6612  -15.5542  -18.6892 C   0  0  0  0  0  0  0  0  0  0  0  0
   21.9836  -18.7939  -16.0086 C   0  0  0  0  0  0  0  0  0  0  0  0
   21.6358  -19.0905  -14.8448 O   0  0  0  0  0  0  0  0  0  0  0  0
   24.8709  -25.5106  -15.2687 C   0  0  0  0  0  0  0  0  0  0  0  0
   23.8072  -24.1219  -15.7820 S   0  0  0  0  0  0  0  0  0  0  0  0
   24.8765  -22.7351  -16.2999 C   0  0  0  0  0  0  0  0  0  0  0  0
   24.0020  -21.6195  -16.7671 C   0  0  0  0  0  0  0  0  0  0  0  0
   23.8267  -20.4845  -15.7984 C   0  0  2  0  0  0  0  0  0  0  0  0
   23.0946  -19.4564  -16.5743 N   0  0  0  0  0  0  0  0  0  0  0  0
   25.0672  -19.8489  -15.3470 C   0  0  0  0  0  0  0  0  0  0  0  0
   25.6267  -18.9291  -16.0501 O   0  0  0  0  0  0  0  0  0  0  0  0
   25.7740  -20.1421  -14.1470 N   0  0  0  0  0  0  0  0  0  0  0  0
   27.0336  -19.4847  -13.7932 C   0  0  1  0  0  0  0  0  0  0  0  0
   26.9166  -18.7223  -12.5259 C   0  0  0  0  0  0  0  0  0  0  0  0
   26.3756  -19.5667  -11.4502 C   0  0  0  0  0  0  0  0  0  0  0  0
   27.1783  -20.1360  -10.4876 C   0  0  0  0  0  0  0  0  0  0  0  0
   26.6668  -20.9246   -9.4717 C   0  0  0  0  0  0  0  0  0  0  0  0
   25.3035  -21.1749   -9.3849 C   0  0  0  0  0  0  0  0  0  0  0  0
   24.4973  -20.6135  -10.3376 C   0  0  0  0  0  0  0  0  0  0  0  0
   25.0070  -19.8339  -11.3409 C   0  0  0  0  0  0  0  0  0  0  0  0
   28.0489  -20.5314  -13.6896 C   0  0  0  0  0  0  0  0  0  0  0  0
   29.3711  -20.1934  -13.5116 O   0  0  0  0  0  0  0  0  0  0  0  0
   27.7443  -21.7420  -13.7627 O   0  0  0  0  0  0  0  0  0  0  0  0
  2  1  1  1
  3  4  1  0
  3  2  1  0
  4  5  2  0
  5  6  1  0
  7  6  2  0
  8  7  1  0
  9  8  2  0
  9  4  1  0
 10  2  1  0
 10 11  2  0
 12 13  1  0
 13 14  1  0
 16 15  1  6
 15 14  1  0
 16 17  1  0
 17 10  1  0
 18 16  1  0
 19 18  2  0
 20 18  1  0
 21 22  1  1
 21 20  1  0
 22 23  1  0
 23 28  1  0
 24 23  2  0
 24 25  1  0
 25 26  2  0
 26 27  1  0
 28 27  2  0
 29 30  1  0
 29 21  1  0
 31 29  2  0
M  END
$$$$
