FMF.pdb
     RDKit          3D

 31 32  0  0  1  0  0  0  0  0999 V2000
   28.3875  -21.3346  -18.3298 N   0  0  0  0  0  0  0  0  0  0  0  0
   28.5169  -21.8643  -16.9706 C   0  0  1  0  0  0  0  0  0  0  0  0
   29.9821  -21.9478  -16.5943 C   0  0  0  0  0  0  0  0  0  0  0  0
   30.5603  -23.1230  -17.2821 C   0  0  0  0  0  0  0  0  0  0  0  0
   31.3401  -23.0196  -18.4129 C   0  0  0  0  0  0  0  0  0  0  0  0
   31.8632  -24.1453  -19.0279 C   0  0  0  0  0  0  0  0  0  0  0  0
   31.5982  -25.4019  -18.4970 C   0  0  0  0  0  0  0  0  0  0  0  0
   30.8243  -25.5205  -17.3729 C   0  0  0  0  0  0  0  0  0  0  0  0
   30.3164  -24.3995  -16.7791 C   0  0  0  0  0  0  0  0  0  0  0  0
   27.7567  -20.9962  -16.0465 C   0  0  0  0  0  0  0  0  0  0  0  0
   27.8557  -19.7551  -16.1630 O   0  0  0  0  0  0  0  0  0  0  0  0
   20.9846  -18.7704  -14.3430 C   0  0  0  0  0  0  0  0  0  0  0  0
   22.3456  -19.5480  -15.2740 S   0  0  0  0  0  0  0  0  0  0  0  0
   23.8123  -19.6352  -14.1896 C   0  0  0  0  0  0  0  0  0  0  0  0
   24.9203  -20.2813  -14.9528 C   0  0  0  0  0  0  0  0  0  0  0  0
   26.1522  -20.6063  -14.1563 C   0  0  2  0  0  0  0  0  0  0  0  0
   26.9212  -21.5180  -15.0351 N   0  0  0  0  0  0  0  0  0  0  0  0
   25.9170  -21.3415  -12.9110 C   0  0  0  0  0  0  0  0  0  0  0  0
   25.6678  -22.6028  -12.9307 O   0  0  0  0  0  0  0  0  0  0  0  0
   25.9336  -20.7962  -11.5965 N   0  0  0  0  0  0  0  0  0  0  0  0
   25.4194  -21.5236  -10.4345 C   0  0  1  0  0  0  0  0  0  0  0  0
   26.5178  -22.0411   -9.5820 C   0  0  0  0  0  0  0  0  0  0  0  0
   27.1716  -20.9498   -8.8440 C   0  0  0  0  0  0  0  0  0  0  0  0
   26.4566  -19.9865   -8.1689 C   0  0  0  0  0  0  0  0  0  0  0  0
   27.0736  -18.9642   -7.4689 C   0  0  0  0  0  0  0  0  0  0  0  0
   28.4584  -18.8711   -7.4212 C   0  0  0  0  0  0  0  0  0  0  0  0
   29.1780  -19.8242   -8.0896 C   0  0  0  0  0  0  0  0  0  0  0  0
   28.5641  -20.8339   -8.7808 C   0  0  0  0  0  0  0  0  0  0  0  0
   24.5649  -20.5977   -9.6931 C   0  0  0  0  0  0  0  0  0  0  0  0
   24.4063  -19.3036  -10.1337 O   0  0  0  0  0  0  0  0  0  0  0  0
   23.9687  -20.9542   -8.6534 O   0  0  0  0  0  0  0  0  0  0  0  0
  2  1  1  6
  3  4  1  0
  3  2  1  0
  4  5  2  0
  5  6  1  0
  7  6  2  0
  8  7  1  0
  9  8  2  0
  9  4  1  0
 10  2  1  0
 10 11  2  0
 12 13  1  0
 13 14  1  0
 16 15  1  6
 15 14  1  0
 16 17  1  0
 17 10  1  0
 18 16  1  0
 19 18  2  0
 20 18  1  0
 21 22  1  1
 21 20  1  0
 22 23  1  0
 23 28  1  0
 24 23  2  0
 24 25  1  0
 25 26  2  0
 26 27  1  0
 28 27  2  0
 29 30  1  0
 29 21  1  0
 31 29  2  0
M  END
$$$$
