FMF.pdb
     RDKit          3D

 31 32  0  0  1  0  0  0  0  0999 V2000
   29.1370  -36.7279  -12.5170 N   0  0  0  0  0  0  0  0  0  0  0  0
   28.8297  -35.6393  -11.5867 C   0  0  1  0  0  0  0  0  0  0  0  0
   27.3527  -35.3098  -11.6589 C   0  0  0  0  0  0  0  0  0  0  0  0
   27.0751  -34.7657  -13.0063 C   0  0  0  0  0  0  0  0  0  0  0  0
   27.5096  -33.5245  -13.4163 C   0  0  0  0  0  0  0  0  0  0  0  0
   27.2283  -33.0507  -14.6873 C   0  0  0  0  0  0  0  0  0  0  0  0
   26.4952  -33.8393  -15.5660 C   0  0  0  0  0  0  0  0  0  0  0  0
   26.0564  -35.0758  -15.1725 C   0  0  0  0  0  0  0  0  0  0  0  0
   26.3429  -35.5275  -13.9150 C   0  0  0  0  0  0  0  0  0  0  0  0
   29.2404  -36.0453  -10.2258 C   0  0  0  0  0  0  0  0  0  0  0  0
   29.7710  -37.1658  -10.0630 O   0  0  0  0  0  0  0  0  0  0  0  0
   34.1891  -34.6665   -7.4828 C   0  0  0  0  0  0  0  0  0  0  0  0
   33.5396  -36.3380   -7.1538 S   0  0  0  0  0  0  0  0  0  0  0  0
   31.7723  -36.1959   -6.7164 C   0  0  0  0  0  0  0  0  0  0  0  0
   31.0193  -35.7890   -7.9391 C   0  0  0  0  0  0  0  0  0  0  0  0
   29.5341  -35.6416   -7.7662 C   0  0  2  0  0  0  0  0  0  0  0  0
   29.0553  -35.2125   -9.1009 N   0  0  0  0  0  0  0  0  0  0  0  0
   29.1133  -34.5990   -6.8268 C   0  0  0  0  0  0  0  0  0  0  0  0
   29.2125  -33.3556   -7.1391 O   0  0  0  0  0  0  0  0  0  0  0  0
   28.5711  -34.8067   -5.5274 N   0  0  0  0  0  0  0  0  0  0  0  0
   27.2059  -34.4156   -5.1709 C   0  0  1  0  0  0  0  0  0  0  0  0
   26.2171  -34.9172   -6.1566 C   0  0  0  0  0  0  0  0  0  0  0  0
   25.9144  -33.8933   -7.1681 C   0  0  0  0  0  0  0  0  0  0  0  0
   25.7870  -34.1951   -8.5051 C   0  0  0  0  0  0  0  0  0  0  0  0
   25.4950  -33.2315   -9.4548 C   0  0  0  0  0  0  0  0  0  0  0  0
   25.3174  -31.9038   -9.0881 C   0  0  0  0  0  0  0  0  0  0  0  0
   25.4424  -31.5939   -7.7609 C   0  0  0  0  0  0  0  0  0  0  0  0
   25.7311  -32.5499   -6.8246 C   0  0  0  0  0  0  0  0  0  0  0  0
   26.9415  -34.9508   -3.8364 C   0  0  0  0  0  0  0  0  0  0  0  0
   27.4529  -36.1753   -3.4715 O   0  0  0  0  0  0  0  0  0  0  0  0
   26.2511  -34.3185   -3.0075 O   0  0  0  0  0  0  0  0  0  0  0  0
  2  1  1  6
  3  4  1  0
  3  2  1  0
  4  5  2  0
  5  6  1  0
  7  6  2  0
  8  7  1  0
  9  8  2  0
  9  4  1  0
 10  2  1  0
 10 11  2  0
 12 13  1  0
 13 14  1  0
 16 15  1  6
 15 14  1  0
 16 17  1  0
 17 10  1  0
 18 16  1  0
 19 18  2  0
 20 18  1  0
 21 22  1  6
 21 20  1  0
 22 23  1  0
 23 28  1  0
 24 23  2  0
 24 25  1  0
 25 26  2  0
 26 27  1  0
 28 27  2  0
 29 30  1  0
 29 21  1  0
 31 29  2  0
M  END
$$$$
