FMF.pdb
     RDKit          3D

 31 32  0  0  1  0  0  0  0  0999 V2000
   27.4867  -20.9782  -13.1433 N   0  0  0  0  0  0  0  0  0  0  0  0
   26.8240  -19.9513  -12.3363 C   0  0  1  0  0  0  0  0  0  0  0  0
   25.8007  -19.2213  -13.1821 C   0  0  0  0  0  0  0  0  0  0  0  0
   26.5320  -18.3327  -14.1117 C   0  0  0  0  0  0  0  0  0  0  0  0
   27.0979  -17.1402  -13.7177 C   0  0  0  0  0  0  0  0  0  0  0  0
   27.7749  -16.3358  -14.6198 C   0  0  0  0  0  0  0  0  0  0  0  0
   27.8866  -16.7365  -15.9457 C   0  0  0  0  0  0  0  0  0  0  0  0
   27.3291  -17.9197  -16.3523 C   0  0  0  0  0  0  0  0  0  0  0  0
   26.6647  -18.7010  -15.4492 C   0  0  0  0  0  0  0  0  0  0  0  0
   26.2087  -20.5959  -11.1567 C   0  0  0  0  0  0  0  0  0  0  0  0
   25.7458  -21.7518  -11.2715 O   0  0  0  0  0  0  0  0  0  0  0  0
   27.5586  -19.9246   -4.5506 C   0  0  0  0  0  0  0  0  0  0  0  0
   28.4061  -19.2723   -6.0271 S   0  0  0  0  0  0  0  0  0  0  0  0
   27.7954  -20.1768   -7.4913 C   0  0  0  0  0  0  0  0  0  0  0  0
   26.3133  -20.0131   -7.5574 C   0  0  0  0  0  0  0  0  0  0  0  0
   25.6374  -20.6921   -8.7147 C   0  0  2  0  0  0  0  0  0  0  0  0
   26.1245  -19.9529   -9.9026 N   0  0  0  0  0  0  0  0  0  0  0  0
   24.1764  -20.5846   -8.7377 C   0  0  0  0  0  0  0  0  0  0  0  0
   23.6050  -19.4694   -9.0257 O   0  0  0  0  0  0  0  0  0  0  0  0
   23.2517  -21.6315   -8.4645 N   0  0  0  0  0  0  0  0  0  0  0  0
   21.8016  -21.4394   -8.5290 C   0  0  1  0  0  0  0  0  0  0  0  0
   21.2394  -21.9365   -9.8087 C   0  0  0  0  0  0  0  0  0  0  0  0
   21.2565  -20.8846  -10.8364 C   0  0  0  0  0  0  0  0  0  0  0  0
   20.4999  -19.7395  -10.7296 C   0  0  0  0  0  0  0  0  0  0  0  0
   20.5225  -18.7472  -11.6942 C   0  0  0  0  0  0  0  0  0  0  0  0
   21.3217  -18.8721  -12.8231 C   0  0  0  0  0  0  0  0  0  0  0  0
   22.0775  -20.0073  -12.9383 C   0  0  0  0  0  0  0  0  0  0  0  0
   22.0525  -20.9865  -11.9820 C   0  0  0  0  0  0  0  0  0  0  0  0
   21.2245  -22.1465   -7.3869 C   0  0  0  0  0  0  0  0  0  0  0  0
   21.2279  -23.5225   -7.3553 O   0  0  0  0  0  0  0  0  0  0  0  0
   20.7182  -21.5261   -6.4266 O   0  0  0  0  0  0  0  0  0  0  0  0
  2  1  1  6
  3  4  1  0
  3  2  1  0
  4  5  2  0
  5  6  1  0
  7  6  2  0
  8  7  1  0
  9  8  2  0
  9  4  1  0
 10  2  1  0
 10 11  2  0
 12 13  1  0
 13 14  1  0
 16 15  1  1
 15 14  1  0
 16 17  1  0
 17 10  1  0
 18 16  1  0
 19 18  2  0
 20 18  1  0
 21 22  1  6
 21 20  1  0
 22 23  1  0
 23 28  1  0
 24 23  2  0
 24 25  1  0
 25 26  2  0
 26 27  1  0
 28 27  2  0
 29 30  1  0
 29 21  1  0
 31 29  2  0
M  END
$$$$
