FMF.pdb
     RDKit          3D

 31 32  0  0  1  0  0  0  0  0999 V2000
   20.4511  -15.1362  -23.5799 N   0  0  0  0  0  0  0  0  0  0  0  0
   20.3731  -14.4732  -22.2764 C   0  0  1  0  0  0  0  0  0  0  0  0
   19.2628  -13.4425  -22.2954 C   0  0  0  0  0  0  0  0  0  0  0  0
   19.6359  -12.3924  -23.2683 C   0  0  0  0  0  0  0  0  0  0  0  0
   18.9725  -12.2074  -24.4613 C   0  0  0  0  0  0  0  0  0  0  0  0
   19.3533  -11.2119  -25.3461 C   0  0  0  0  0  0  0  0  0  0  0  0
   20.4229  -10.3840  -25.0272 C   0  0  0  0  0  0  0  0  0  0  0  0
   21.0924  -10.5558  -23.8446 C   0  0  0  0  0  0  0  0  0  0  0  0
   20.7033  -11.5429  -22.9833 C   0  0  0  0  0  0  0  0  0  0  0  0
   20.1592  -15.4979  -21.2325 C   0  0  0  0  0  0  0  0  0  0  0  0
   19.3768  -16.4450  -21.4657 O   0  0  0  0  0  0  0  0  0  0  0  0
   23.0528  -19.7155  -17.4876 C   0  0  0  0  0  0  0  0  0  0  0  0
   24.0277  -18.5810  -18.5299 S   0  0  0  0  0  0  0  0  0  0  0  0
   22.8735  -17.5129  -19.4582 C   0  0  0  0  0  0  0  0  0  0  0  0
   21.9720  -16.8368  -18.4794 C   0  0  0  0  0  0  0  0  0  0  0  0
   20.5918  -16.5199  -18.9814 C   0  0  2  0  0  0  0  0  0  0  0  0
   20.8074  -15.4464  -19.9793 N   0  0  0  0  0  0  0  0  0  0  0  0
   19.6728  -15.9697  -17.9818 C   0  0  0  0  0  0  0  0  0  0  0  0
   19.3168  -16.6683  -16.9628 O   0  0  0  0  0  0  0  0  0  0  0  0
   19.0892  -14.6717  -18.0003 N   0  0  0  0  0  0  0  0  0  0  0  0
   18.2682  -14.1606  -16.9010 C   0  0  1  0  0  0  0  0  0  0  0  0
   18.5103  -12.7166  -16.6617 C   0  0  0  0  0  0  0  0  0  0  0  0
   18.0707  -11.9105  -17.8106 C   0  0  0  0  0  0  0  0  0  0  0  0
   18.8822  -11.6742  -18.8971 C   0  0  0  0  0  0  0  0  0  0  0  0
   18.4644  -10.9213  -19.9807 C   0  0  0  0  0  0  0  0  0  0  0  0
   17.1911  -10.3677  -20.0123 C   0  0  0  0  0  0  0  0  0  0  0  0
   16.3769  -10.5970  -18.9364 C   0  0  0  0  0  0  0  0  0  0  0  0
   16.7938  -11.3424  -17.8665 C   0  0  0  0  0  0  0  0  0  0  0  0
   16.8724  -14.4118  -17.2559 C   0  0  0  0  0  0  0  0  0  0  0  0
   16.5623  -14.9837  -18.4687 O   0  0  0  0  0  0  0  0  0  0  0  0
   15.9401  -14.1138  -16.4778 O   0  0  0  0  0  0  0  0  0  0  0  0
  2  1  1  6
  3  4  1  0
  3  2  1  0
  4  5  2  0
  5  6  1  0
  7  6  2  0
  8  7  1  0
  9  8  2  0
  9  4  1  0
 10  2  1  0
 10 11  2  0
 12 13  1  0
 13 14  1  0
 16 15  1  1
 15 14  1  0
 16 17  1  0
 17 10  1  0
 18 16  1  0
 19 18  2  0
 20 18  1  0
 21 22  1  6
 21 20  1  0
 22 23  1  0
 23 28  1  0
 24 23  2  0
 24 25  1  0
 25 26  2  0
 26 27  1  0
 28 27  2  0
 29 30  1  0
 29 21  1  0
 31 29  2  0
M  END
$$$$
