ETM.pdb
     RDKit          3D

 25 24  0  0  1  0  0  0  0  0999 V2000
   12.8811  -17.7449   19.2625 N   0  0  0  0  0  0  0  0  0  0  0  0
   12.8431  -17.4990   20.7054 C   0  0  1  0  0  0  0  0  0  0  0  0
   13.8981  -16.4151   20.9655 C   0  0  0  0  0  0  0  0  0  0  0  0
   15.0332  -17.0398   21.7287 C   0  0  0  0  0  0  0  0  0  0  0  0
   16.0989  -16.0888   22.0985 C   0  0  0  0  0  0  0  0  0  0  0  0
   16.0664  -15.3642   23.1119 O   0  0  0  0  0  0  0  0  0  0  0  0
   11.4964  -16.9938   21.0427 C   0  0  0  0  0  0  0  0  0  0  0  0
   10.9120  -16.2108   20.2708 O   0  0  0  0  0  0  0  0  0  0  0  0
   17.2226  -15.9880   21.2629 O   0  0  0  0  0  0  0  0  0  0  0  0
    8.5066  -18.8719   21.2805 C   0  0  0  0  0  0  0  0  0  0  0  0
    8.6563  -18.2296   22.6197 C   0  0  1  0  0  0  0  0  0  0  0  0
    9.3714  -19.1525   23.4191 O   0  0  0  0  0  0  0  0  0  0  0  0
    9.5100  -16.9677   22.5977 C   0  0  2  0  0  0  0  0  0  0  0  0
   10.8750  -17.4111   22.2563 N   0  0  0  0  0  0  0  0  0  0  0  0
    9.5669  -16.2752   23.8929 C   0  0  0  0  0  0  0  0  0  0  0  0
   10.6304  -16.3152   24.6109 O   0  0  0  0  0  0  0  0  0  0  0  0
    6.1517  -11.3059   25.6217 C   0  0  0  0  0  0  0  0  0  0  0  0
    6.3513  -11.9023   27.3227 S   0  0  0  0  0  0  0  0  0  0  0  0
    7.5238  -13.3080   27.3707 C   0  0  0  0  0  0  0  0  0  0  0  0
    7.5326  -13.8921   25.9857 C   0  0  0  0  0  0  0  0  0  0  0  0
    8.6093  -14.9121   25.7709 C   0  0  2  0  0  0  0  0  0  0  0  0
    8.5032  -15.5268   24.4545 N   0  0  0  0  0  0  0  0  0  0  0  0
    8.4780  -16.0125   26.7395 C   0  0  0  0  0  0  0  0  0  0  0  0
    7.8026  -17.0332   26.4801 O   0  0  0  0  0  0  0  0  0  0  0  0
    9.0889  -15.9822   27.9815 O   0  0  0  0  0  0  0  0  0  0  0  0
  2  1  1  6
  2  3  1  0
  4  5  1  0
  4  3  1  0
  5  6  2  0
  7  8  2  0
  7  2  1  0
  9  5  1  0
 11 10  1  6
 11 13  1  0
 12 11  1  0
 13 14  1  1
 14  7  1  0
 15 13  1  0
 15 22  1  0
 16 15  2  0
 18 17  1  0
 19 18  1  0
 19 20  1  0
 21 20  1  1
 21 22  1  0
 21 23  1  0
 23 25  1  0
 24 23  2  0
M  END
$$$$
