ETM.pdb
     RDKit          3D

 25 24  0  0  1  0  0  0  0  0999 V2000
   11.8511  -18.0360   18.3296 N   0  0  0  0  0  0  0  0  0  0  0  0
   12.0070  -18.1122   19.7834 C   0  0  1  0  0  0  0  0  0  0  0  0
   13.4337  -17.6243   20.0699 C   0  0  0  0  0  0  0  0  0  0  0  0
   14.3958  -18.6247   19.4916 C   0  0  0  0  0  0  0  0  0  0  0  0
   15.8145  -18.2625   19.6728 C   0  0  0  0  0  0  0  0  0  0  0  0
   16.7482  -19.0878   19.6924 O   0  0  0  0  0  0  0  0  0  0  0  0
   11.0209  -17.1960   20.3924 C   0  0  0  0  0  0  0  0  0  0  0  0
   10.8292  -16.0684   19.9002 O   0  0  0  0  0  0  0  0  0  0  0  0
   16.1417  -16.9067   19.8331 O   0  0  0  0  0  0  0  0  0  0  0  0
    7.4448  -17.6945   20.7325 C   0  0  0  0  0  0  0  0  0  0  0  0
    7.9725  -17.5030   22.1158 C   0  0  1  0  0  0  0  0  0  0  0  0
    8.2773  -18.7966   22.6014 O   0  0  0  0  0  0  0  0  0  0  0  0
    9.2864  -16.7330   22.1650 C   0  0  2  0  0  0  0  0  0  0  0  0
   10.2933  -17.6151   21.5449 N   0  0  0  0  0  0  0  0  0  0  0  0
    9.7332  -16.4217   23.5301 C   0  0  0  0  0  0  0  0  0  0  0  0
   10.6490  -17.1214   24.0953 O   0  0  0  0  0  0  0  0  0  0  0  0
    5.4131  -11.9074   26.9285 C   0  0  0  0  0  0  0  0  0  0  0  0
    7.1763  -12.2797   27.1317 S   0  0  0  0  0  0  0  0  0  0  0  0
    7.6560  -13.6896   26.0662 C   0  0  0  0  0  0  0  0  0  0  0  0
    9.1376  -13.8660   26.2487 C   0  0  0  0  0  0  0  0  0  0  0  0
    9.6610  -15.1576   25.6979 C   0  0  2  0  0  0  0  0  0  0  0  0
    9.2226  -15.3654   24.3243 N   0  0  0  0  0  0  0  0  0  0  0  0
    9.1323  -16.2974   26.4647 C   0  0  0  0  0  0  0  0  0  0  0  0
    8.2282  -17.0299   26.0053 O   0  0  0  0  0  0  0  0  0  0  0  0
    9.6009  -16.6218   27.7264 O   0  0  0  0  0  0  0  0  0  0  0  0
  2  1  1  6
  2  3  1  0
  4  5  1  0
  4  3  1  0
  5  6  2  0
  7  8  2  0
  7  2  1  0
  9  5  1  0
 11 10  1  6
 11 13  1  0
 12 11  1  0
 13 14  1  1
 14  7  1  0
 15 13  1  0
 15 22  1  0
 16 15  2  0
 18 17  1  0
 19 18  1  0
 19 20  1  0
 21 20  1  1
 21 22  1  0
 21 23  1  0
 23 25  1  0
 24 23  2  0
M  END
$$$$
