ETM.pdb
     RDKit          3D

 25 24  0  0  1  0  0  0  0  0999 V2000
   11.0121  -17.5245   18.0939 N   0  0  0  0  0  0  0  0  0  0  0  0
   10.5473  -17.8189   19.4508 C   0  0  1  0  0  0  0  0  0  0  0  0
   11.7539  -18.4323   20.1744 C   0  0  0  0  0  0  0  0  0  0  0  0
   12.0299  -19.7793   19.5658 C   0  0  0  0  0  0  0  0  0  0  0  0
   13.0738  -20.5494   20.2686 C   0  0  0  0  0  0  0  0  0  0  0  0
   13.5992  -21.5855   19.8174 O   0  0  0  0  0  0  0  0  0  0  0  0
   10.1657  -16.5405   20.0854 C   0  0  0  0  0  0  0  0  0  0  0  0
   10.7475  -15.4869   19.7662 O   0  0  0  0  0  0  0  0  0  0  0  0
   13.5083  -20.0935   21.5234 O   0  0  0  0  0  0  0  0  0  0  0  0
    7.3123  -14.7133   19.6273 C   0  0  0  0  0  0  0  0  0  0  0  0
    7.3015  -14.9799   21.0961 C   0  0  1  0  0  0  0  0  0  0  0  0
    6.5725  -16.1799   21.2711 O   0  0  0  0  0  0  0  0  0  0  0  0
    8.6835  -15.2587   21.6743 C   0  0  2  0  0  0  0  0  0  0  0  0
    9.1275  -16.5257   21.0628 N   0  0  0  0  0  0  0  0  0  0  0  0
    8.6845  -15.4328   23.1337 C   0  0  0  0  0  0  0  0  0  0  0  0
    8.1511  -16.4700   23.6701 O   0  0  0  0  0  0  0  0  0  0  0  0
    6.7163  -11.2608   28.1355 C   0  0  0  0  0  0  0  0  0  0  0  0
    5.9623  -12.0478   26.6860 S   0  0  0  0  0  0  0  0  0  0  0  0
    6.4961  -13.7950   26.5609 C   0  0  0  0  0  0  0  0  0  0  0  0
    7.1980  -13.9235   25.2379 C   0  0  0  0  0  0  0  0  0  0  0  0
    8.6501  -14.2733   25.3600 C   0  0  2  0  0  0  0  0  0  0  0  0
    9.2493  -14.5164   24.0547 N   0  0  0  0  0  0  0  0  0  0  0  0
    8.8175  -15.5241   26.1177 C   0  0  0  0  0  0  0  0  0  0  0  0
    8.5212  -15.5967   27.3310 O   0  0  0  0  0  0  0  0  0  0  0  0
    9.3072  -16.6814   25.5369 O   0  0  0  0  0  0  0  0  0  0  0  0
  2  1  1  6
  2  3  1  0
  4  5  1  0
  4  3  1  0
  5  6  2  0
  7  8  2  0
  7  2  1  0
  9  5  1  0
 11 10  1  6
 11 13  1  0
 12 11  1  0
 13 14  1  6
 14  7  1  0
 15 13  1  0
 15 22  1  0
 16 15  2  0
 18 17  1  0
 19 18  1  0
 19 20  1  0
 21 20  1  6
 21 22  1  0
 21 23  1  0
 23 25  1  0
 24 23  2  0
M  END
$$$$
