ETM.pdb
     RDKit          3D

 25 24  0  0  1  0  0  0  0  0999 V2000
    9.1081  -18.9241   19.2244 N   0  0  0  0  0  0  0  0  0  0  0  0
   10.3810  -18.2010   19.2526 C   0  0  1  0  0  0  0  0  0  0  0  0
   10.6483  -17.7828   17.8003 C   0  0  0  0  0  0  0  0  0  0  0  0
   12.0244  -17.1803   17.7320 C   0  0  0  0  0  0  0  0  0  0  0  0
   12.7124  -17.4072   16.4468 C   0  0  0  0  0  0  0  0  0  0  0  0
   12.1723  -17.9195   15.4473 O   0  0  0  0  0  0  0  0  0  0  0  0
   10.2039  -17.0071   20.1046 C   0  0  0  0  0  0  0  0  0  0  0  0
   11.1080  -16.1541   20.1797 O   0  0  0  0  0  0  0  0  0  0  0  0
   14.0586  -17.0248   16.3341 O   0  0  0  0  0  0  0  0  0  0  0  0
    6.8339  -14.9053   20.3268 C   0  0  0  0  0  0  0  0  0  0  0  0
    7.3026  -15.3648   21.6676 C   0  0  1  0  0  0  0  0  0  0  0  0
    6.6539  -16.5992   21.9075 O   0  0  0  0  0  0  0  0  0  0  0  0
    8.7935  -15.6755   21.7177 C   0  0  2  0  0  0  0  0  0  0  0  0
    8.9914  -16.8420   20.8364 N   0  0  0  0  0  0  0  0  0  0  0  0
    9.2735  -16.0328   23.0602 C   0  0  0  0  0  0  0  0  0  0  0  0
    9.7577  -17.1984   23.2941 O   0  0  0  0  0  0  0  0  0  0  0  0
   11.0774  -13.6177   30.4196 C   0  0  0  0  0  0  0  0  0  0  0  0
   10.3186  -13.2973   28.8040 S   0  0  0  0  0  0  0  0  0  0  0  0
   10.1797  -14.8520   27.8465 C   0  0  0  0  0  0  0  0  0  0  0  0
    9.7671  -14.4518   26.4576 C   0  0  0  0  0  0  0  0  0  0  0  0
    9.7205  -15.5965   25.4916 C   0  0  2  0  0  0  0  0  0  0  0  0
    9.2525  -15.1664   24.1809 N   0  0  0  0  0  0  0  0  0  0  0  0
    8.7608  -16.6160   25.9459 C   0  0  0  0  0  0  0  0  0  0  0  0
    9.0836  -17.4899   26.7810 O   0  0  0  0  0  0  0  0  0  0  0  0
    7.4581  -16.6659   25.4801 O   0  0  0  0  0  0  0  0  0  0  0  0
  2  1  1  6
  2  3  1  0
  4  5  1  0
  4  3  1  0
  5  6  2  0
  7  8  2  0
  7  2  1  0
  9  5  1  0
 11 10  1  6
 11 13  1  0
 12 11  1  0
 13 14  1  6
 14  7  1  0
 15 13  1  0
 15 22  1  0
 16 15  2  0
 18 17  1  0
 19 18  1  0
 19 20  1  0
 21 20  1  1
 21 22  1  0
 21 23  1  0
 23 25  1  0
 24 23  2  0
M  END
$$$$
