ETM.pdb
     RDKit          3D

 25 24  0  0  1  0  0  0  0  0999 V2000
   11.7399  -15.8373   17.3203 N   0  0  0  0  0  0  0  0  0  0  0  0
   11.9544  -15.7321   18.7648 C   0  0  1  0  0  0  0  0  0  0  0  0
   12.9313  -14.5631   18.9511 C   0  0  0  0  0  0  0  0  0  0  0  0
   14.3238  -15.0716   18.6992 C   0  0  0  0  0  0  0  0  0  0  0  0
   15.3703  -14.0412   18.8404 C   0  0  0  0  0  0  0  0  0  0  0  0
   15.9255  -13.4744   17.8793 O   0  0  0  0  0  0  0  0  0  0  0  0
   10.6548  -15.4182   19.3932 C   0  0  0  0  0  0  0  0  0  0  0  0
    9.8517  -14.6583   18.8204 O   0  0  0  0  0  0  0  0  0  0  0  0
   15.7710  -13.6700   20.1337 O   0  0  0  0  0  0  0  0  0  0  0  0
    7.9426  -16.7248   19.2937 C   0  0  0  0  0  0  0  0  0  0  0  0
    8.0552  -16.7218   20.7823 C   0  0  1  0  0  0  0  0  0  0  0  0
    8.5947  -17.9810   21.1369 O   0  0  0  0  0  0  0  0  0  0  0  0
    9.0449  -15.6935   21.3160 C   0  0  2  0  0  0  0  0  0  0  0  0
   10.3306  -15.9927   20.6574 N   0  0  0  0  0  0  0  0  0  0  0  0
    9.2484  -15.7743   22.7693 C   0  0  0  0  0  0  0  0  0  0  0  0
   10.4073  -16.0369   23.2550 O   0  0  0  0  0  0  0  0  0  0  0  0
    6.5021  -10.8016   28.0679 C   0  0  0  0  0  0  0  0  0  0  0  0
    6.3010  -11.8370   26.5926 S   0  0  0  0  0  0  0  0  0  0  0  0
    7.4999  -13.2210   26.6181 C   0  0  0  0  0  0  0  0  0  0  0  0
    7.3336  -13.9418   25.3096 C   0  0  0  0  0  0  0  0  0  0  0  0
    8.4809  -14.8447   24.9714 C   0  0  2  0  0  0  0  0  0  0  0  0
    8.2330  -15.5787   23.7378 N   0  0  0  0  0  0  0  0  0  0  0  0
    8.6596  -15.8653   26.0168 C   0  0  0  0  0  0  0  0  0  0  0  0
    8.9103  -15.5495   27.2011 O   0  0  0  0  0  0  0  0  0  0  0  0
    8.5611  -17.2207   25.7525 O   0  0  0  0  0  0  0  0  0  0  0  0
  2  1  1  6
  2  3  1  0
  4  5  1  0
  4  3  1  0
  5  6  2  0
  7  8  2  0
  7  2  1  0
  9  5  1  0
 11 10  1  6
 11 13  1  0
 12 11  1  0
 13 14  1  6
 14  7  1  0
 15 13  1  0
 15 22  1  0
 16 15  2  0
 18 17  1  0
 19 18  1  0
 19 20  1  0
 21 20  1  1
 21 22  1  0
 21 23  1  0
 23 25  1  0
 24 23  2  0
M  END
$$$$
