ETM.pdb
     RDKit          3D

 25 24  0  0  1  0  0  0  0  0999 V2000
    9.6099  -19.0785   19.5279 N   0  0  0  0  0  0  0  0  0  0  0  0
   10.8648  -18.3862   19.8274 C   0  0  1  0  0  0  0  0  0  0  0  0
   11.5488  -18.1701   18.4705 C   0  0  0  0  0  0  0  0  0  0  0  0
   12.3065  -19.4217   18.1233 C   0  0  0  0  0  0  0  0  0  0  0  0
   13.6789  -19.1745   17.6415 C   0  0  0  0  0  0  0  0  0  0  0  0
   14.7062  -19.5524   18.2374 O   0  0  0  0  0  0  0  0  0  0  0  0
   10.5282  -17.0863   20.4435 C   0  0  0  0  0  0  0  0  0  0  0  0
   11.2060  -16.0759   20.1789 O   0  0  0  0  0  0  0  0  0  0  0  0
   13.8471  -18.4713   16.4380 O   0  0  0  0  0  0  0  0  0  0  0  0
    7.4521  -15.1122   20.2600 C   0  0  0  0  0  0  0  0  0  0  0  0
    7.6703  -15.4138   21.7057 C   0  0  1  0  0  0  0  0  0  0  0  0
    6.9438  -16.5983   21.9728 O   0  0  0  0  0  0  0  0  0  0  0  0
    9.1185  -15.7425   22.0471 C   0  0  2  0  0  0  0  0  0  0  0  0
    9.4229  -17.0012   21.3404 N   0  0  0  0  0  0  0  0  0  0  0  0
    9.3481  -15.9595   23.4825 C   0  0  0  0  0  0  0  0  0  0  0  0
    8.9643  -17.0449   24.0506 O   0  0  0  0  0  0  0  0  0  0  0  0
    6.0841  -10.9868   27.8740 C   0  0  0  0  0  0  0  0  0  0  0  0
    6.4527  -11.9996   26.4155 S   0  0  0  0  0  0  0  0  0  0  0  0
    7.7262  -13.2530   26.8163 C   0  0  0  0  0  0  0  0  0  0  0  0
    8.3282  -13.6712   25.5041 C   0  0  0  0  0  0  0  0  0  0  0  0
    9.4261  -14.6818   25.6420 C   0  0  2  0  0  0  0  0  0  0  0  0
    9.9878  -15.0358   24.3454 N   0  0  0  0  0  0  0  0  0  0  0  0
    8.9047  -15.9358   26.2095 C   0  0  0  0  0  0  0  0  0  0  0  0
    8.1817  -16.7050   25.5380 O   0  0  0  0  0  0  0  0  0  0  0  0
    9.1818  -16.3330   27.5064 O   0  0  0  0  0  0  0  0  0  0  0  0
  2  1  1  6
  2  3  1  0
  4  5  1  0
  4  3  1  0
  5  6  2  0
  7  8  2  0
  7  2  1  0
  9  5  1  0
 11 10  1  6
 11 13  1  0
 12 11  1  0
 13 14  1  6
 14  7  1  0
 15 13  1  0
 15 22  1  0
 16 15  2  0
 18 17  1  0
 19 18  1  0
 19 20  1  0
 21 20  1  6
 21 22  1  0
 21 23  1  0
 23 25  1  0
 24 23  2  0
M  END
$$$$
