ETM.pdb
     RDKit          3D

 25 24  0  0  1  0  0  0  0  0999 V2000
   13.3236  -17.1017   19.5226 N   0  0  0  0  0  0  0  0  0  0  0  0
   12.9182  -17.0646   20.9290 C   0  0  1  0  0  0  0  0  0  0  0  0
   13.9538  -16.1763   21.6319 C   0  0  0  0  0  0  0  0  0  0  0  0
   15.2066  -16.9840   21.8296 C   0  0  0  0  0  0  0  0  0  0  0  0
   16.2562  -16.2809   22.5917 C   0  0  0  0  0  0  0  0  0  0  0  0
   17.3262  -15.8774   22.0964 O   0  0  0  0  0  0  0  0  0  0  0  0
   11.5798  -16.4428   20.9976 C   0  0  0  0  0  0  0  0  0  0  0  0
   11.2912  -15.4973   20.2405 O   0  0  0  0  0  0  0  0  0  0  0  0
   16.0443  -16.0476   23.9598 O   0  0  0  0  0  0  0  0  0  0  0  0
    8.3243  -17.8356   20.2706 C   0  0  0  0  0  0  0  0  0  0  0  0
    8.2952  -17.4276   21.7063 C   0  0  1  0  0  0  0  0  0  0  0  0
    8.7246  -18.5566   22.4432 O   0  0  0  0  0  0  0  0  0  0  0  0
    9.2880  -16.3224   22.0453 C   0  0  2  0  0  0  0  0  0  0  0  0
   10.6254  -16.9353   21.9355 N   0  0  0  0  0  0  0  0  0  0  0  0
    9.1384  -15.7978   23.4101 C   0  0  0  0  0  0  0  0  0  0  0  0
   10.0280  -16.0356   24.3045 O   0  0  0  0  0  0  0  0  0  0  0  0
    5.4218  -10.7401   28.2856 C   0  0  0  0  0  0  0  0  0  0  0  0
    5.6107  -11.5143   26.6566 S   0  0  0  0  0  0  0  0  0  0  0  0
    6.7554  -12.9400   26.7584 C   0  0  0  0  0  0  0  0  0  0  0  0
    6.9755  -13.4008   25.3446 C   0  0  0  0  0  0  0  0  0  0  0  0
    7.9680  -14.5171   25.2244 C   0  0  2  0  0  0  0  0  0  0  0  0
    8.0477  -15.0116   23.8565 N   0  0  0  0  0  0  0  0  0  0  0  0
    7.5523  -15.6673   26.0435 C   0  0  0  0  0  0  0  0  0  0  0  0
    6.7082  -16.4925   25.6290 O   0  0  0  0  0  0  0  0  0  0  0  0
    8.0668  -15.9005   27.3074 O   0  0  0  0  0  0  0  0  0  0  0  0
  2  1  1  6
  2  3  1  0
  4  5  1  0
  4  3  1  0
  5  6  2  0
  7  8  2  0
  7  2  1  0
  9  5  1  0
 11 10  1  6
 11 13  1  0
 12 11  1  0
 13 14  1  1
 14  7  1  0
 15 13  1  0
 15 22  1  0
 16 15  2  0
 18 17  1  0
 19 18  1  0
 19 20  1  0
 21 20  1  6
 21 22  1  0
 21 23  1  0
 23 25  1  0
 24 23  2  0
M  END
$$$$
