QCQ.pdb
     RDKit          3D

 25 24  0  0  1  0  0  0  0  0999 V2000
   -7.6897  -25.1983   20.8037 N   0  0  0  0  0  0  0  0  0  0  0  0
   -7.8531  -24.8372   22.1840 C   0  0  0  0  0  0  0  0  0  0  0  0
   -9.0141  -24.6550   22.5906 O   0  0  0  0  0  0  0  0  0  0  0  0
   -6.6759  -24.7028   23.0140 C   0  0  0  0  0  0  0  0  0  0  0  0
   -5.3556  -24.9803   22.3646 C   0  0  0  0  0  0  0  0  0  0  0  0
   -4.2754  -24.0047   22.6519 C   0  0  2  0  0  0  0  0  0  0  0  0
   -4.5822  -22.7046   22.1428 N   0  0  0  0  0  0  0  0  0  0  0  0
   -2.9587  -24.4379   22.0863 C   0  0  0  0  0  0  0  0  0  0  0  0
   -2.4561  -25.5468   22.4051 O   0  0  0  0  0  0  0  0  0  0  0  0
   -2.2142  -23.6450   21.1789 N   0  0  0  0  0  0  0  0  0  0  0  0
   -0.9729  -24.0573   20.5866 C   0  0  1  0  0  0  0  0  0  0  0  0
   -0.5802  -23.3269   19.3622 C   0  0  0  0  0  0  0  0  0  0  0  0
   -1.9822  -23.2867   18.1812 S   0  0  0  0  0  0  0  0  0  0  0  0
    0.1243  -23.9330   21.6041 C   0  0  0  0  0  0  0  0  0  0  0  0
    0.0454  -23.0737   22.5180 O   0  0  0  0  0  0  0  0  0  0  0  0
    0.7120  -25.8321   26.2916 N   0  0  0  0  0  0  0  0  0  0  0  0
    2.1251  -25.5538   26.2436 C   0  0  0  0  0  0  0  0  0  0  0  0
    2.7415  -25.6755   27.3142 O   0  0  0  0  0  0  0  0  0  0  0  0
    2.6975  -25.1616   24.9619 C   0  0  0  0  0  0  0  0  0  0  0  0
    1.6712  -25.1556   23.8757 C   0  0  0  0  0  0  0  0  0  0  0  0
    2.2907  -24.7939   22.5709 C   0  0  2  0  0  0  0  0  0  0  0  0
    1.2600  -24.7843   21.5436 N   0  0  0  0  0  0  0  0  0  0  0  0
    3.3561  -25.7612   22.2064 C   0  0  0  0  0  0  0  0  0  0  0  0
    3.0132  -26.8795   21.4725 O   0  0  0  0  0  0  0  0  0  0  0  0
    4.5392  -25.5918   22.5421 O   0  0  0  0  0  0  0  0  0  0  0  0
  1  2  1  0
  2  4  1  0
  3  2  2  0
  5  4  1  0
  6  5  1  0
  6  7  1  6
  8  6  1  0
  8  9  2  0
 10  8  1  0
 11 10  1  0
 11 14  1  0
 11 12  1  6
 13 12  1  0
 14 22  1  0
 15 14  2  0
 17 16  1  0
 17 19  1  0
 18 17  2  0
 19 20  1  0
 21 20  1  1
 21 23  1  0
 22 21  1  0
 23 25  2  0
 23 24  1  0
M  END
$$$$
